=
 OpenBabel10262420143D

 27 31  0  0  1  0  0  0  0  0999 V2000
  186.7550  178.9090  140.5530 N   0  0  0  0  0  0  0  0  0  0  0  0
  188.6560  177.4030  140.5540 N   0  0  0  0  0  0  0  0  0  0  0  0
  187.2260  177.6050  144.0450 C   0  0  0  0  0  2  0  0  0  0  0  0
  189.8690  176.8370  140.1410 N   0  0  0  0  0  2  0  0  0  0  0  0
  184.9960  178.7750  143.7060 C   0  0  0  0  0  0  0  0  0  0  0  0
  187.9190  178.4180  139.7890 C   0  0  1  0  0  3  0  0  0  0  0  0
  189.5510  176.3710  142.4280 C   0  0  1  0  0  3  0  0  0  0  0  0
  186.5270  178.6310  141.8050 C   0  0  0  0  0  0  0  0  0  0  0  0
  188.4600  177.2090  141.9210 C   0  0  0  0  0  0  0  0  0  0  0  0
  185.7320  177.6340  144.3830 C   0  0  0  0  0  2  0  0  0  0  0  0
  190.3400  176.0480  141.2260 N   0  0  0  0  0  2  0  0  0  0  0  0
  185.3520  179.1910  142.4850 C   0  0  0  0  0  3  0  0  0  0  0  0
  187.4340  177.7550  142.5670 C   0  0  0  0  0  0  0  0  0  0  0  0
  190.8400  178.4130  143.1900 C   0  0  0  0  0  3  0  0  0  0  0  0
  191.9680  178.4060  145.2950 N   0  0  0  0  0  0  0  0  0  0  0  0
  191.5570  177.1330  145.5430 C   0  0  0  0  0  3  0  0  0  0  0  0
  190.7670  176.4580  144.6100 C   0  0  0  0  0  3  0  0  0  0  0  0
  190.4040  177.1020  143.4240 C   0  0  0  0  0  0  0  0  0  0  0  0
  191.6290  179.0540  144.1480 C   0  0  0  0  0  3  0  0  0  0  0  0
  186.5810  177.2980  135.8390 C   0  0  0  0  0  2  0  0  0  0  0  0
  187.4640  177.8670  138.4310 C   0  0  0  0  0  3  0  0  0  0  0  0
  188.2930  178.4720  137.2830 C   0  0  0  0  0  2  0  0  0  0  0  0
  187.5810  178.4460  135.9240 C   0  0  0  0  0  2  0  0  0  0  0  0
  185.4880  177.4350  136.9070 C   0  0  0  0  0  2  0  0  0  0  0  0
  185.9720  178.1190  138.1930 C   0  0  0  0  0  2  0  0  0  0  0  0
  182.5570  178.9910  144.0100 C   0  0  0  0  0  1  0  0  0  0  0  0
  183.8900  179.3720  144.3150 O   0  0  0  0  0  0  0  0  0  0  0  0
  1  8  2  0  0  0  0
  2  9  1  0  0  0  0
  3 10  1  0  0  0  0
  4  2  1  0  0  0  0
  4 11  1  0  0  0  0
  5 27  1  0  0  0  0
  5 10  1  0  0  0  0
  6 21  1  6  0  0  0
  6  1  1  0  0  0  0
  6  2  1  0  0  0  0
  7 18  1  1  0  0  0
  8 12  1  0  0  0  0
  8 13  1  0  0  0  0
  9  7  1  0  0  0  0
  9 13  2  0  0  0  0
 11  7  1  0  0  0  0
 12  5  2  0  0  0  0
 13  3  1  0  0  0  0
 14 18  2  0  0  0  0
 14 19  1  0  0  0  0
 15 16  1  0  0  0  0
 17 16  2  0  0  0  0
 18 17  1  0  0  0  0
 19 15  2  0  0  0  0
 20 23  1  0  0  0  0
 20 24  1  0  0  0  0
 22 21  1  0  0  0  0
 23 22  1  0  0  0  0
 24 25  1  0  0  0  0
 25 21  1  0  0  0  0
 26 27  1  0  0  0  0
M  END
>  <MODEL>
1

>  <REMARK>
 VINA RESULT:      -8.1      0.000      0.000
  Name = 
  3 active torsions:
  status: ('A' for Active; 'I' for Inactive)
    1  A    between atoms: C_9  and  C_15
    2  A    between atoms: C_13  and  O_22
    3  A    between atoms: C_14  and  C_17
                            x       y       z     vdW  Elec       q    Type
                         _______ _______ _______ _____ _____    ______ ____

>  <TORSDO>
F 3

$$$$
=
 OpenBabel10262420143D

 27 31  0  0  1  0  0  0  0  0999 V2000
  188.2890  176.6740  143.9800 N   0  0  0  0  0  0  0  0  0  0  0  0
  190.2860  177.1840  142.7020 N   0  0  0  0  0  0  0  0  0  0  0  0
  187.2560  178.4530  140.8360 C   0  0  0  0  0  2  0  0  0  0  0  0
  191.6050  177.0650  142.2440 N   0  0  0  0  0  2  0  0  0  0  0  0
  185.3910  178.2960  142.5550 C   0  0  0  0  0  0  0  0  0  0  0  0
  189.7370  176.4260  143.8350 C   0  0  1  0  0  3  0  0  0  0  0  0
  190.3210  178.1570  140.5970 C   0  0  1  0  0  3  0  0  0  0  0  0
  187.5620  177.3140  143.1100 C   0  0  0  0  0  0  0  0  0  0  0  0
  189.4750  177.7660  141.7280 C   0  0  0  0  0  0  0  0  0  0  0  0
  186.0500  179.1420  141.4830 C   0  0  0  0  0  2  0  0  0  0  0  0
  191.6850  177.8160  141.0390 N   0  0  0  0  0  2  0  0  0  0  0  0
  186.1200  177.4870  143.3330 C   0  0  0  0  0  3  0  0  0  0  0  0
  188.1590  177.8780  141.8860 C   0  0  0  0  0  0  0  0  0  0  0  0
  190.5250  176.1330  139.0890 C   0  0  0  0  0  3  0  0  0  0  0  0
  189.3070  176.0360  137.0370 N   0  0  0  0  0  0  0  0  0  0  0  0
  188.7660  177.2620  137.2670 C   0  0  0  0  0  3  0  0  0  0  0  0
  189.0930  177.9660  138.4290 C   0  0  0  0  0  3  0  0  0  0  0  0
  189.9780  177.3970  139.3490 C   0  0  0  0  0  0  0  0  0  0  0  0
  190.1720  175.4620  137.9160 C   0  0  0  0  0  3  0  0  0  0  0  0
  191.7120  176.9740  147.6350 C   0  0  0  0  0  2  0  0  0  0  0  0
  190.4650  176.7730  145.1390 C   0  0  0  0  0  3  0  0  0  0  0  0
  191.6340  175.8040  145.3950 C   0  0  0  0  0  2  0  0  0  0  0  0
  192.0390  175.6960  146.8710 C   0  0  0  0  0  2  0  0  0  0  0  0
  190.2060  177.2660  147.6100 C   0  0  0  0  0  2  0  0  0  0  0  0
  189.5080  176.7710  146.3360 C   0  0  0  0  0  2  0  0  0  0  0  0
  183.4940  178.8740  144.0230 C   0  0  0  0  0  1  0  0  0  0  0  0
  184.0190  178.3890  142.7960 O   0  0  0  0  0  0  0  0  0  0  0  0
  2  6  1  0  0  0  0
  3 10  1  0  0  0  0
  3 13  1  0  0  0  0
  4  2  1  0  0  0  0
  5 27  1  0  0  0  0
  5 12  2  0  0  0  0
  6  1  1  0  0  0  0
  6 21  1  1  0  0  0
  7 18  1  6  0  0  0
  7 11  1  0  0  0  0
  7  9  1  0  0  0  0
  8 12  1  0  0  0  0
  8  1  2  0  0  0  0
  9 13  2  0  0  0  0
  9  2  1  0  0  0  0
 10  5  1  0  0  0  0
 11  4  1  0  0  0  0
 13  8  1  0  0  0  0
 14 18  1  0  0  0  0
 15 16  2  0  0  0  0
 15 19  1  0  0  0  0
 16 17  1  0  0  0  0
 17 18  2  0  0  0  0
 19 14  2  0  0  0  0
 21 22  1  0  0  0  0
 21 25  1  0  0  0  0
 22 23  1  0  0  0  0
 23 20  1  0  0  0  0
 24 20  1  0  0  0  0
 25 24  1  0  0  0  0
 27 26  1  0  0  0  0
M  END
>  <MODEL>
2

>  <REMARK>
 VINA RESULT:      -7.5      2.024      6.299
  Name = 
  3 active torsions:
  status: ('A' for Active; 'I' for Inactive)
    1  A    between atoms: C_9  and  C_15
    2  A    between atoms: C_13  and  O_22
    3  A    between atoms: C_14  and  C_17
                            x       y       z     vdW  Elec       q    Type
                         _______ _______ _______ _____ _____    ______ ____

>  <TORSDO>
F 3

$$$$
=
 OpenBabel10262420143D

 27 31  0  0  1  0  0  0  0  0999 V2000
  186.1270  178.8130  140.9910 N   0  0  0  0  0  0  0  0  0  0  0  0
  183.7420  178.5580  141.3530 N   0  0  0  0  0  0  0  0  0  0  0  0
  184.5300  177.8780  137.7220 C   0  0  0  0  0  2  0  0  0  0  0  0
  182.4900  178.7390  141.9540 N   0  0  0  0  0  2  0  0  0  0  0  0
  187.0630  177.6800  137.6900 C   0  0  0  0  0  0  0  0  0  0  0  0
  185.0070  179.0400  141.9260 C   0  0  1  0  0  3  0  0  0  0  0  0
  182.1730  178.1180  139.7030 C   0  0  1  0  0  3  0  0  0  0  0  0
  185.9860  178.4260  139.7560 C   0  0  0  0  0  0  0  0  0  0  0  0
  183.6020  178.2550  139.9990 C   0  0  0  0  0  0  0  0  0  0  0  0
  185.7460  177.0940  137.2180 C   0  0  0  0  0  2  0  0  0  0  0  0
  181.5200  178.2970  141.0120 N   0  0  0  0  0  2  0  0  0  0  0  0
  187.1640  178.2530  138.8960 C   0  0  0  0  0  3  0  0  0  0  0  0
  184.6530  178.1520  139.1910 C   0  0  0  0  0  0  0  0  0  0  0  0
  181.8570  180.5340  139.0100 C   0  0  0  0  0  3  0  0  0  0  0  0
  180.8050  181.0600  136.9310 N   0  0  0  0  0  0  0  0  0  0  0  0
  180.6360  179.7390  136.6510 C   0  0  0  0  0  3  0  0  0  0  0  0
  181.0790  178.7690  137.5520 C   0  0  0  0  0  3  0  0  0  0  0  0
  181.6960  179.1670  138.7410 C   0  0  0  0  0  0  0  0  0  0  0  0
  181.4010  181.4730  138.0820 C   0  0  0  0  0  3  0  0  0  0  0  0
  186.0800  177.5030  145.8160 C   0  0  0  0  0  2  0  0  0  0  0  0
  185.2980  178.3640  143.2720 C   0  0  0  0  0  3  0  0  0  0  0  0
  184.9290  179.2890  144.4460 C   0  0  0  0  0  2  0  0  0  0  0  0
  185.6810  178.9730  145.7470 C   0  0  0  0  0  2  0  0  0  0  0  0
  187.0180  177.1270  144.6610 C   0  0  0  0  0  2  0  0  0  0  0  0
  186.7650  177.9360  143.3810 C   0  0  0  0  0  2  0  0  0  0  0  0
  189.4310  178.2200  137.2540 C   0  0  0  0  0  1  0  0  0  0  0  0
  188.2130  177.5780  136.9050 O   0  0  0  0  0  0  0  0  0  0  0  0
  1  6  1  0  0  0  0
  2  6  1  0  0  0  0
  2  4  1  0  0  0  0
  3 13  1  0  0  0  0
  5 12  2  0  0  0  0
  6 21  1  1  0  0  0
  7 18  1  6  0  0  0
  7  9  1  0  0  0  0
  7 11  1  0  0  0  0
  8  1  2  0  0  0  0
  9  2  1  0  0  0  0
 10  5  1  0  0  0  0
 10  3  1  0  0  0  0
 11  4  1  0  0  0  0
 12  8  1  0  0  0  0
 13  8  1  0  0  0  0
 13  9  2  0  0  0  0
 15 19  1  0  0  0  0
 16 15  2  0  0  0  0
 16 17  1  0  0  0  0
 17 18  2  0  0  0  0
 18 14  1  0  0  0  0
 19 14  2  0  0  0  0
 21 25  1  0  0  0  0
 21 22  1  0  0  0  0
 22 23  1  0  0  0  0
 23 20  1  0  0  0  0
 24 20  1  0  0  0  0
 25 24  1  0  0  0  0
 27 26  1  0  0  0  0
 27  5  1  0  0  0  0
M  END
>  <MODEL>
3

>  <REMARK>
 VINA RESULT:      -7.2      3.646      8.431
  Name = 
  3 active torsions:
  status: ('A' for Active; 'I' for Inactive)
    1  A    between atoms: C_9  and  C_15
    2  A    between atoms: C_13  and  O_22
    3  A    between atoms: C_14  and  C_17
                            x       y       z     vdW  Elec       q    Type
                         _______ _______ _______ _____ _____    ______ ____

>  <TORSDO>
F 3

$$$$
=
 OpenBabel10262420143D

 27 31  0  0  1  0  0  0  0  0999 V2000
  187.9220  176.7520  143.6280 N   0  0  0  0  0  0  0  0  0  0  0  0
  189.6970  177.2380  142.0480 N   0  0  0  0  0  0  0  0  0  0  0  0
  186.4510  178.6770  140.7560 C   0  0  0  0  0  2  0  0  0  0  0  0
  190.9150  177.0900  141.3710 N   0  0  0  0  0  2  0  0  0  0  0  0
  184.8950  178.5220  142.7590 C   0  0  0  0  0  0  0  0  0  0  0  0
  189.3150  176.4590  143.2340 C   0  0  1  0  0  3  0  0  0  0  0  0
  189.4190  178.2840  139.9960 C   0  0  1  0  0  3  0  0  0  0  0  0
  187.0860  177.4470  142.9110 C   0  0  0  0  0  0  0  0  0  0  0  0
  188.7580  177.8820  141.2420 C   0  0  0  0  0  0  0  0  0  0  0  0
  185.3990  179.3830  141.6170 C   0  0  0  0  0  2  0  0  0  0  0  0
  190.8230  177.8810  140.1920 N   0  0  0  0  0  2  0  0  0  0  0  0
  185.7110  177.6620  143.3790 C   0  0  0  0  0  3  0  0  0  0  0  0
  187.4930  178.0340  141.6220 C   0  0  0  0  0  0  0  0  0  0  0  0
  188.0030  178.2480  137.8970 C   0  0  0  0  0  3  0  0  0  0  0  0
  187.8090  176.2430  136.6130 N   0  0  0  0  0  0  0  0  0  0  0  0
  188.6190  175.5770  137.4790 C   0  0  0  0  0  3  0  0  0  0  0  0
  189.1500  176.2350  138.5910 C   0  0  0  0  0  3  0  0  0  0  0  0
  188.8420  177.5820  138.8020 C   0  0  0  0  0  0  0  0  0  0  0  0
  187.4930  177.5530  136.7980 C   0  0  0  0  0  3  0  0  0  0  0  0
  191.9000  176.8100  146.6740 C   0  0  0  0  0  2  0  0  0  0  0  0
  190.2640  176.7340  144.4070 C   0  0  0  0  0  3  0  0  0  0  0  0
  191.3800  175.6760  144.4750 C   0  0  0  0  0  2  0  0  0  0  0  0
  192.0030  175.5190  145.8690 C   0  0  0  0  0  2  0  0  0  0  0  0
  190.4360  177.2160  146.8870 C   0  0  0  0  0  2  0  0  0  0  0  0
  189.5100  176.7900  145.7390 C   0  0  0  0  0  2  0  0  0  0  0  0
  183.2940  178.9520  144.5870 C   0  0  0  0  0  1  0  0  0  0  0  0
  183.5870  178.6540  143.2300 O   0  0  0  0  0  0  0  0  0  0  0  0
  2  6  1  0  0  0  0
  3 10  1  0  0  0  0
  3 13  1  0  0  0  0
  4  2  1  0  0  0  0
  5 27  1  0  0  0  0
  5 12  2  0  0  0  0
  6  1  1  0  0  0  0
  6 21  1  1  0  0  0
  7 18  1  6  0  0  0
  7 11  1  0  0  0  0
  7  9  1  0  0  0  0
  8 12  1  0  0  0  0
  8  1  2  0  0  0  0
  9 13  2  0  0  0  0
  9  2  1  0  0  0  0
 10  5  1  0  0  0  0
 11  4  1  0  0  0  0
 13  8  1  0  0  0  0
 14 18  1  0  0  0  0
 15 19  1  0  0  0  0
 15 16  2  0  0  0  0
 16 17  1  0  0  0  0
 17 18  2  0  0  0  0
 19 14  2  0  0  0  0
 20 24  1  0  0  0  0
 21 22  1  0  0  0  0
 21 25  1  0  0  0  0
 22 23  1  0  0  0  0
 23 20  1  0  0  0  0
 25 24  1  0  0  0  0
 27 26  1  0  0  0  0
M  END
>  <MODEL>
4

>  <REMARK>
 VINA RESULT:      -7.1      1.695      6.136
  Name = 
  3 active torsions:
  status: ('A' for Active; 'I' for Inactive)
    1  A    between atoms: C_9  and  C_15
    2  A    between atoms: C_13  and  O_22
    3  A    between atoms: C_14  and  C_17
                            x       y       z     vdW  Elec       q    Type
                         _______ _______ _______ _____ _____    ______ ____

>  <TORSDO>
F 3

$$$$
=
 OpenBabel10262420143D

 27 31  0  0  1  0  0  0  0  0999 V2000
  186.5820  177.3410  144.0690 N   0  0  0  0  0  0  0  0  0  0  0  0
  188.8190  177.8220  143.2660 N   0  0  0  0  0  0  0  0  0  0  0  0
  186.3170  178.6800  140.5680 C   0  0  0  0  0  2  0  0  0  0  0  0
  190.2140  177.7320  143.1640 N   0  0  0  0  0  2  0  0  0  0  0  0
  184.0860  178.6080  141.7830 C   0  0  0  0  0  0  0  0  0  0  0  0
  188.0270  177.1670  144.3160 C   0  0  1  0  0  3  0  0  0  0  0  0
  189.3520  178.5470  141.1280 C   0  0  1  0  0  3  0  0  0  0  0  0
  186.0770  177.8310  142.9730 C   0  0  0  0  0  0  0  0  0  0  0  0
  188.2610  178.2370  142.0570 C   0  0  0  0  0  0  0  0  0  0  0  0
  184.9670  179.3640  140.8070 C   0  0  0  0  0  2  0  0  0  0  0  0
  190.5710  178.3430  141.9300 N   0  0  0  0  0  2  0  0  0  0  0  0
  184.6210  177.9400  142.8130 C   0  0  0  0  0  3  0  0  0  0  0  0
  186.9450  178.2860  141.8720 C   0  0  0  0  0  0  0  0  0  0  0  0
  188.3060  177.6310  139.0110 C   0  0  0  0  0  3  0  0  0  0  0  0
  189.4140  175.9210  137.7650 N   0  0  0  0  0  0  0  0  0  0  0  0
  190.4430  175.9000  138.6550 C   0  0  0  0  0  3  0  0  0  0  0  0
  190.4310  176.7540  139.7600 C   0  0  0  0  0  3  0  0  0  0  0  0
  189.3560  177.6280  139.9400 C   0  0  0  0  0  0  0  0  0  0  0  0
  188.3560  176.7610  137.9190 C   0  0  0  0  0  3  0  0  0  0  0  0
  189.0620  178.2520  148.3650 C   0  0  0  0  0  2  0  0  0  0  0  0
  188.3940  177.7060  145.7040 C   0  0  0  0  0  3  0  0  0  0  0  0
  189.6820  177.0470  146.2300 C   0  0  0  0  0  2  0  0  0  0  0  0
  189.8110  177.0700  147.7600 C   0  0  0  0  0  2  0  0  0  0  0  0
  187.5620  178.1780  148.0490 C   0  0  0  0  0  2  0  0  0  0  0  0
  187.2520  177.5030  146.7060 C   0  0  0  0  0  2  0  0  0  0  0  0
  182.0270  178.3700  140.4450 C   0  0  0  0  0  1  0  0  0  0  0  0
  182.6950  178.6440  141.6670 O   0  0  0  0  0  0  0  0  0  0  0  0
  1  6  1  0  0  0  0
  2  6  1  0  0  0  0
  3 10  1  0  0  0  0
  3 13  1  0  0  0  0
  4  2  1  0  0  0  0
  5 12  2  0  0  0  0
  6 21  1  1  0  0  0
  7 18  1  6  0  0  0
  7 11  1  0  0  0  0
  7  9  1  0  0  0  0
  8  1  2  0  0  0  0
  9  2  1  0  0  0  0
 10  5  1  0  0  0  0
 11  4  1  0  0  0  0
 12  8  1  0  0  0  0
 13  9  2  0  0  0  0
 13  8  1  0  0  0  0
 14 18  1  0  0  0  0
 15 19  1  0  0  0  0
 15 16  2  0  0  0  0
 16 17  1  0  0  0  0
 17 18  2  0  0  0  0
 19 14  2  0  0  0  0
 21 22  1  0  0  0  0
 21 25  1  0  0  0  0
 22 23  1  0  0  0  0
 23 20  1  0  0  0  0
 24 20  1  0  0  0  0
 25 24  1  0  0  0  0
 26 27  1  0  0  0  0
 27  5  1  0  0  0  0
M  END
>  <MODEL>
5

>  <REMARK>
 VINA RESULT:      -7.0      2.450      6.143
  Name = 
  3 active torsions:
  status: ('A' for Active; 'I' for Inactive)
    1  A    between atoms: C_9  and  C_15
    2  A    between atoms: C_13  and  O_22
    3  A    between atoms: C_14  and  C_17
                            x       y       z     vdW  Elec       q    Type
                         _______ _______ _______ _____ _____    ______ ____

>  <TORSDO>
F 3

$$$$
=
 OpenBabel10262420143D

 27 31  0  0  1  0  0  0  0  0999 V2000
  187.8670  177.1350  142.8980 N   0  0  0  0  0  0  0  0  0  0  0  0
  187.0160  178.0690  140.8280 N   0  0  0  0  0  0  0  0  0  0  0  0
  184.6660  178.9530  143.6510 C   0  0  0  0  0  2  0  0  0  0  0  0
  186.8120  178.2080  139.4490 N   0  0  0  0  0  2  0  0  0  0  0  0
  185.9910  178.3540  145.7360 C   0  0  0  0  0  0  0  0  0  0  0  0
  187.9880  177.1440  141.4270 C   0  0  1  0  0  3  0  0  0  0  0  0
  185.0010  179.1930  140.5900 C   0  0  1  0  0  3  0  0  0  0  0  0
  186.9030  177.7100  143.5600 C   0  0  0  0  0  0  0  0  0  0  0  0
  185.9320  178.5800  141.5420 C   0  0  0  0  0  0  0  0  0  0  0  0
  185.1020  179.3790  145.0570 C   0  0  0  0  0  2  0  0  0  0  0  0
  185.6780  179.0520  139.2890 N   0  0  0  0  0  2  0  0  0  0  0  0
  186.8570  177.6210  145.0250 C   0  0  0  0  0  3  0  0  0  0  0  0
  185.8420  178.4580  142.8630 C   0  0  0  0  0  0  0  0  0  0  0  0
  182.5530  179.0140  141.2100 C   0  0  0  0  0  3  0  0  0  0  0  0
  181.2610  177.1440  140.4770 N   0  0  0  0  0  0  0  0  0  0  0  0
  182.3400  176.6110  139.8430 C   0  0  0  0  0  3  0  0  0  0  0  0
  183.5690  177.2730  139.8760 C   0  0  0  0  0  3  0  0  0  0  0  0
  183.6780  178.4850  140.5630 C   0  0  0  0  0  0  0  0  0  0  0  0
  181.3410  178.3210  141.1530 C   0  0  0  0  0  3  0  0  0  0  0  0
  192.0910  177.7210  140.2120 C   0  0  0  0  0  2  0  0  0  0  0  0
  189.4220  177.5070  141.0180 C   0  0  0  0  0  3  0  0  0  0  0  0
  189.7570  176.9480  139.6230 C   0  0  0  0  0  2  0  0  0  0  0  0
  191.2600  176.7530  139.3780 C   0  0  0  0  0  2  0  0  0  0  0  0
  191.8570  177.5030  141.7130 C   0  0  0  0  0  2  0  0  0  0  0  0
  190.4430  177.0080  142.0450 C   0  0  0  0  0  2  0  0  0  0  0  0
  187.1510  178.2410  147.9100 C   0  0  0  0  0  1  0  0  0  0  0  0
  185.9710  178.1980  147.1230 O   0  0  0  0  0  0  0  0  0  0  0  0
  1  8  2  0  0  0  0
  2  6  1  0  0  0  0
  2  9  1  0  0  0  0
  3 10  1  0  0  0  0
  4  2  1  0  0  0  0
  5 27  1  0  0  0  0
  6 21  1  1  0  0  0
  6  1  1  0  0  0  0
  7 18  1  6  0  0  0
  7  9  1  0  0  0  0
  8 12  1  0  0  0  0
  9 13  2  0  0  0  0
 10  5  1  0  0  0  0
 11  4  1  0  0  0  0
 11  7  1  0  0  0  0
 12  5  2  0  0  0  0
 13  8  1  0  0  0  0
 13  3  1  0  0  0  0
 15 19  2  0  0  0  0
 16 17  2  0  0  0  0
 16 15  1  0  0  0  0
 17 18  1  0  0  0  0
 18 14  2  0  0  0  0
 19 14  1  0  0  0  0
 20 24  1  0  0  0  0
 21 25  1  0  0  0  0
 22 21  1  0  0  0  0
 23 22  1  0  0  0  0
 23 20  1  0  0  0  0
 24 25  1  0  0  0  0
 27 26  1  0  0  0  0
M  END
>  <MODEL>
6

>  <REMARK>
 VINA RESULT:      -6.9      2.686      5.977
  Name = 
  3 active torsions:
  status: ('A' for Active; 'I' for Inactive)
    1  A    between atoms: C_9  and  C_15
    2  A    between atoms: C_13  and  O_22
    3  A    between atoms: C_14  and  C_17
                            x       y       z     vdW  Elec       q    Type
                         _______ _______ _______ _____ _____    ______ ____

>  <TORSDO>
F 3

$$$$
=
 OpenBabel10262420143D

 27 31  0  0  1  0  0  0  0  0999 V2000
  188.0870  176.9270  143.5130 N   0  0  0  0  0  0  0  0  0  0  0  0
  186.9930  178.2420  141.7940 N   0  0  0  0  0  0  0  0  0  0  0  0
  185.3220  178.9010  145.1180 C   0  0  0  0  0  2  0  0  0  0  0  0
  186.5590  178.6090  140.5130 N   0  0  0  0  0  2  0  0  0  0  0  0
  186.9210  177.8680  146.8010 C   0  0  0  0  0  0  0  0  0  0  0  0
  187.9380  177.1490  142.0610 C   0  0  1  0  0  3  0  0  0  0  0  0
  185.1210  179.5740  142.1100 C   0  0  1  0  0  3  0  0  0  0  0  0
  187.3370  177.4810  144.4220 C   0  0  0  0  0  0  0  0  0  0  0  0
  186.1280  178.7370  142.7690 C   0  0  0  0  0  0  0  0  0  0  0  0
  186.0550  179.0640  146.4530 C   0  0  0  0  0  2  0  0  0  0  0  0
  185.5270  179.5710  140.6940 N   0  0  0  0  0  2  0  0  0  0  0  0
  187.5480  177.1750  145.8430 C   0  0  0  0  0  3  0  0  0  0  0  0
  186.2660  178.4240  144.0540 C   0  0  0  0  0  0  0  0  0  0  0  0
  183.1350  178.2830  141.2130 C   0  0  0  0  0  3  0  0  0  0  0  0
  181.1910  177.9750  142.5660 N   0  0  0  0  0  0  0  0  0  0  0  0
  181.7560  178.6750  143.5870 C   0  0  0  0  0  3  0  0  0  0  0  0
  183.0410  179.2040  143.4460 C   0  0  0  0  0  3  0  0  0  0  0  0
  183.7380  179.0060  142.2520 C   0  0  0  0  0  0  0  0  0  0  0  0
  181.8480  177.7700  141.3930 C   0  0  0  0  0  3  0  0  0  0  0  0
  191.8220  177.5030  140.2090 C   0  0  0  0  0  2  0  0  0  0  0  0
  189.3070  177.4340  141.4290 C   0  0  0  0  0  3  0  0  0  0  0  0
  189.3860  176.8610  140.0010 C   0  0  0  0  0  2  0  0  0  0  0  0
  190.8170  176.5850  139.5220 C   0  0  0  0  0  2  0  0  0  0  0  0
  191.8170  177.2930  141.7290 C   0  0  0  0  0  2  0  0  0  0  0  0
  190.4490  176.8750  142.2840 C   0  0  0  0  0  2  0  0  0  0  0  0
  188.3060  177.8780  148.8430 C   0  0  0  0  0  1  0  0  0  0  0  0
  187.1350  177.5040  148.1320 O   0  0  0  0  0  0  0  0  0  0  0  0
  1  8  2  0  0  0  0
  2  6  1  0  0  0  0
  2  9  1  0  0  0  0
  3 10  1  0  0  0  0
  4 11  1  0  0  0  0
  4  2  1  0  0  0  0
  5 27  1  0  0  0  0
  6 21  1  1  0  0  0
  6  1  1  0  0  0  0
  7 18  1  6  0  0  0
  7  9  1  0  0  0  0
  8 12  1  0  0  0  0
  9 13  2  0  0  0  0
 10  5  1  0  0  0  0
 11  7  1  0  0  0  0
 12  5  2  0  0  0  0
 13  8  1  0  0  0  0
 13  3  1  0  0  0  0
 14 19  2  0  0  0  0
 14 18  1  0  0  0  0
 15 16  2  0  0  0  0
 17 16  1  0  0  0  0
 18 17  2  0  0  0  0
 19 15  1  0  0  0  0
 20 24  1  0  0  0  0
 21 25  1  0  0  0  0
 22 21  1  0  0  0  0
 23 22  1  0  0  0  0
 23 20  1  0  0  0  0
 24 25  1  0  0  0  0
 27 26  1  0  0  0  0
M  END
>  <MODEL>
7

>  <REMARK>
 VINA RESULT:      -6.7      2.912      6.001
  Name = 
  3 active torsions:
  status: ('A' for Active; 'I' for Inactive)
    1  A    between atoms: C_9  and  C_15
    2  A    between atoms: C_13  and  O_22
    3  A    between atoms: C_14  and  C_17
                            x       y       z     vdW  Elec       q    Type
                         _______ _______ _______ _____ _____    ______ ____

>  <TORSDO>
F 3

$$$$
=
 OpenBabel10262420143D

 27 31  0  0  1  0  0  0  0  0999 V2000
  187.9150  176.6720  143.0120 N   0  0  0  0  0  0  0  0  0  0  0  0
  188.0830  177.4570  145.3010 N   0  0  0  0  0  0  0  0  0  0  0  0
  191.4860  177.6360  143.6700 C   0  0  0  0  0  2  0  0  0  0  0  0
  187.7580  177.5990  146.6560 N   0  0  0  0  0  2  0  0  0  0  0  0
  190.9810  177.2890  141.2030 C   0  0  0  0  0  0  0  0  0  0  0  0
  187.2330  176.7700  144.3180 C   0  0  1  0  0  3  0  0  0  0  0  0
  190.0480  178.0730  146.3680 C   0  0  1  0  0  3  0  0  0  0  0  0
  189.1660  176.9710  142.8120 C   0  0  0  0  0  0  0  0  0  0  0  0
  189.4470  177.6640  145.0950 C   0  0  0  0  0  0  0  0  0  0  0  0
  191.7490  178.0970  142.2320 C   0  0  0  0  0  2  0  0  0  0  0  0
  188.9030  178.1520  147.2930 N   0  0  0  0  0  2  0  0  0  0  0  0
  189.7600  176.8150  141.4770 C   0  0  0  0  0  3  0  0  0  0  0  0
  190.0150  177.4710  143.9080 C   0  0  0  0  0  0  0  0  0  0  0  0
  191.6670  177.2150  148.1150 C   0  0  0  0  0  3  0  0  0  0  0  0
  192.8750  175.1880  147.7410 N   0  0  0  0  0  0  0  0  0  0  0  0
  192.2860  175.0290  146.5260 C   0  0  0  0  0  3  0  0  0  0  0  0
  191.3610  175.9690  146.0660 C   0  0  0  0  0  3  0  0  0  0  0  0
  191.0460  177.0700  146.8670 C   0  0  0  0  0  0  0  0  0  0  0  0
  192.5870  176.2520  148.5380 C   0  0  0  0  0  3  0  0  0  0  0  0
  183.6740  179.1570  143.7940 C   0  0  0  0  0  2  0  0  0  0  0  0
  185.8840  177.4830  144.1570 C   0  0  0  0  0  3  0  0  0  0  0  0
  185.8080  178.2240  142.8100 C   0  0  0  0  0  2  0  0  0  0  0  0
  184.8050  179.3860  142.7970 C   0  0  0  0  0  2  0  0  0  0  0  0
  184.2110  179.0540  145.2280 C   0  0  0  0  0  2  0  0  0  0  0  0
  185.6230  178.4580  145.3100 C   0  0  0  0  0  2  0  0  0  0  0  0
  190.8030  176.3490  138.9290 C   0  0  0  0  0  1  0  0  0  0  0  0
  191.5050  177.0760  139.9270 O   0  0  0  0  0  0  0  0  0  0  0  0
  1  6  1  0  0  0  0
  2  4  1  0  0  0  0
  3 13  1  0  0  0  0
  4 11  1  0  0  0  0
  5 12  2  0  0  0  0
  5 10  1  0  0  0  0
  6 21  1  6  0  0  0
  6  2  1  0  0  0  0
  7 18  1  1  0  0  0
  7 11  1  0  0  0  0
  8  1  2  0  0  0  0
  8 13  1  0  0  0  0
  9  2  1  0  0  0  0
  9  7  1  0  0  0  0
 10  3  1  0  0  0  0
 12  8  1  0  0  0  0
 13  9  2  0  0  0  0
 14 19  1  0  0  0  0
 15 19  2  0  0  0  0
 16 15  1  0  0  0  0
 17 16  2  0  0  0  0
 17 18  1  0  0  0  0
 18 14  2  0  0  0  0
 20 24  1  0  0  0  0
 21 25  1  0  0  0  0
 22 21  1  0  0  0  0
 23 22  1  0  0  0  0
 23 20  1  0  0  0  0
 24 25  1  0  0  0  0
 26 27  1  0  0  0  0
 27  5  1  0  0  0  0
M  END
>  <MODEL>
8

>  <REMARK>
 VINA RESULT:      -6.4      3.324      5.875
  Name = 
  3 active torsions:
  status: ('A' for Active; 'I' for Inactive)
    1  A    between atoms: C_9  and  C_15
    2  A    between atoms: C_13  and  O_22
    3  A    between atoms: C_14  and  C_17
                            x       y       z     vdW  Elec       q    Type
                         _______ _______ _______ _____ _____    ______ ____

>  <TORSDO>
F 3

$$$$
=
 OpenBabel10262420143D

 27 31  0  0  1  0  0  0  0  0999 V2000
  187.1120  177.4000  142.5070 N   0  0  0  0  0  0  0  0  0  0  0  0
  188.7300  177.8100  140.7470 N   0  0  0  0  0  0  0  0  0  0  0  0
  185.2870  178.7680  139.5210 C   0  0  0  0  0  2  0  0  0  0  0  0
  189.9110  177.6740  140.0070 N   0  0  0  0  0  2  0  0  0  0  0  0
  183.8800  178.7630  141.6380 C   0  0  0  0  0  0  0  0  0  0  0  0
  188.4990  177.1750  142.0520 C   0  0  1  0  0  3  0  0  0  0  0  0
  188.2250  178.5290  138.6000 C   0  0  1  0  0  3  0  0  0  0  0  0
  186.1700  177.9130  141.7680 C   0  0  0  0  0  0  0  0  0  0  0  0
  187.6850  178.2510  139.9350 C   0  0  0  0  0  0  0  0  0  0  0  0
  184.2280  179.4950  140.3560 C   0  0  0  0  0  2  0  0  0  0  0  0
  189.6710  178.2800  138.7420 N   0  0  0  0  0  2  0  0  0  0  0  0
  184.8120  178.0720  142.3050 C   0  0  0  0  0  3  0  0  0  0  0  0
  186.4380  178.3450  140.3850 C   0  0  0  0  0  0  0  0  0  0  0  0
  187.7820  176.2260  137.6450 C   0  0  0  0  0  3  0  0  0  0  0  0
  186.5490  175.9850  135.6130 N   0  0  0  0  0  0  0  0  0  0  0  0
  186.4050  177.3330  135.5080 C   0  0  0  0  0  3  0  0  0  0  0  0
  186.9520  178.1750  136.4790 C   0  0  0  0  0  3  0  0  0  0  0  0
  187.6440  177.6180  137.5580 C   0  0  0  0  0  0  0  0  0  0  0  0
  187.2200  175.4190  136.6520 C   0  0  0  0  0  3  0  0  0  0  0  0
  191.3320  178.2020  145.1440 C   0  0  0  0  0  2  0  0  0  0  0  0
  189.4890  177.6930  143.1030 C   0  0  0  0  0  3  0  0  0  0  0  0
  190.8420  176.9670  142.9940 C   0  0  0  0  0  2  0  0  0  0  0  0
  191.6610  176.9820  144.2910 C   0  0  0  0  0  2  0  0  0  0  0  0
  189.8530  178.2090  145.5560 C   0  0  0  0  0  2  0  0  0  0  0  0
  188.9280  177.5520  144.5220 C   0  0  0  0  0  2  0  0  0  0  0  0
  181.4300  178.5740  141.4260 C   0  0  0  0  0  1  0  0  0  0  0  0
  182.5980  178.8470  142.1840 O   0  0  0  0  0  0  0  0  0  0  0  0
  2  6  1  0  0  0  0
  3 10  1  0  0  0  0
  3 13  1  0  0  0  0
  4  2  1  0  0  0  0
  5 27  1  0  0  0  0
  5 12  2  0  0  0  0
  6  1  1  0  0  0  0
  6 21  1  1  0  0  0
  7 18  1  6  0  0  0
  7 11  1  0  0  0  0
  7  9  1  0  0  0  0
  8 12  1  0  0  0  0
  8  1  2  0  0  0  0
  9 13  2  0  0  0  0
  9  2  1  0  0  0  0
 10  5  1  0  0  0  0
 11  4  1  0  0  0  0
 13  8  1  0  0  0  0
 15 19  1  0  0  0  0
 16 15  2  0  0  0  0
 16 17  1  0  0  0  0
 17 18  2  0  0  0  0
 18 14  1  0  0  0  0
 19 14  2  0  0  0  0
 20 24  1  0  0  0  0
 21 25  1  0  0  0  0
 22 21  1  0  0  0  0
 22 23  1  0  0  0  0
 23 20  1  0  0  0  0
 25 24  1  0  0  0  0
 26 27  1  0  0  0  0
M  END
>  <MODEL>
9

>  <REMARK>
 VINA RESULT:      -6.2      1.875      6.248
  Name = 
  3 active torsions:
  status: ('A' for Active; 'I' for Inactive)
    1  A    between atoms: C_9  and  C_15
    2  A    between atoms: C_13  and  O_22
    3  A    between atoms: C_14  and  C_17
                            x       y       z     vdW  Elec       q    Type
                         _______ _______ _______ _____ _____    ______ ____

>  <TORSDO>
F 3

$$$$
