=
 OpenBabel10262420473D

 28 31  0  0  1  0  0  0  0  0999 V2000
  185.1610  177.7560  138.6880 C   0  0  1  0  0  3  0  0  0  0  0  0
  189.0380  177.4960  136.8620 N   0  0  0  0  0  1  0  0  0  0  0  0
  187.1830  178.0090  141.4430 C   0  0  1  0  0  3  0  0  0  0  0  0
  187.6750  177.9430  138.8390 C   0  0  2  0  0  3  0  0  0  0  0  0
  186.1910  178.7090  140.7210 O   0  0  0  0  0  0  0  0  0  0  0  0
  186.6270  177.2810  136.6820 C   0  0  0  0  0  2  0  0  0  0  0  0
  188.7970  178.6530  139.5840 C   0  0  0  0  0  2  0  0  0  0  0  0
  187.7790  178.0590  137.3200 C   0  0  2  0  0  3  0  0  0  0  0  0
  188.6040  178.4970  141.0960 C   0  0  0  0  0  2  0  0  0  0  0  0
  185.2700  177.8030  137.1610 C   0  0  0  0  0  2  0  0  0  0  0  0
  186.3320  178.5290  139.3150 C   0  0  2  0  0  3  0  0  0  0  0  0
  185.3870  178.3100  143.1430 C   0  0  0  0  0  2  0  0  0  0  0  0
  187.6480  177.1480  145.2040 C   0  0  0  0  0  3  0  0  0  0  0  0
  185.8490  178.9070  145.5360 C   0  0  2  0  0  3  0  0  0  0  0  0
  186.8860  178.0360  142.9480 C   0  0  1  0  0  3  0  0  0  0  0  0
  188.5780  176.1100  143.1980 C   0  0  0  0  0  1  0  0  0  0  0  0
  186.9810  178.0220  145.9780 C   0  0  0  0  0  3  0  0  0  0  0  0
  187.3500  176.8060  143.7650 C   0  0  1  0  0  3  0  0  0  0  0  0
  185.1420  179.3440  146.6550 O   0  0  0  0  0  1  0  0  0  0  0  0
  184.9060  178.1870  144.5880 C   0  0  0  0  0  2  0  0  0  0  0  0
  183.7720  178.2320  139.1470 C   0  0  1  0  0  3  0  0  0  0  0  0
  183.5700  179.6810  138.6970 C   0  0  0  0  0  2  0  0  0  0  0  0
  181.2620  177.9670  138.9000 C   0  0  0  0  0  0  0  0  0  0  0  0
  182.2450  180.2180  139.2190 C   0  0  0  0  0  2  0  0  0  0  0  0
  182.6800  175.9760  139.4350 C   0  0  0  0  0  1  0  0  0  0  0  0
  182.6110  177.3100  138.7010 C   0  0  2  0  0  3  0  0  0  0  0  0
  180.2750  177.3020  139.1760 O   0  0  0  0  0  0  0  0  0  0  0  0
  181.0950  179.4270  138.6130 C   0  0  0  0  0  2  0  0  0  0  0  0
  1 10  1  6  0  0  0
  1 21  1  0  0  0  0
  1 11  1  0  0  0  0
  3  9  1  1  0  0  0
  3 15  1  0  0  0  0
  4 11  1  0  0  0  0
  4  7  1  1  0  0  0
  5  3  1  0  0  0  0
  6 10  1  0  0  0  0
  6  8  1  0  0  0  0
  7  9  1  0  0  0  0
  8  2  1  6  0  0  0
  8  4  1  0  0  0  0
 11  5  1  1  0  0  0
 12 20  1  0  0  0  0
 13 17  2  0  0  0  0
 14 17  1  0  0  0  0
 14 19  1  1  0  0  0
 15 12  1  6  0  0  0
 15 18  1  0  0  0  0
 18 16  1  6  0  0  0
 18 13  1  0  0  0  0
 20 14  1  0  0  0  0
 21 22  1  6  0  0  0
 22 24  1  0  0  0  0
 23 27  2  0  0  0  0
 26 23  1  0  0  0  0
 26 21  1  0  0  0  0
 26 25  1  1  0  0  0
 28 23  1  0  0  0  0
 28 24  1  0  0  0  0
M  END
>  <MODEL>
1

>  <REMARK>
 VINA RESULT:      -8.1      0.000      0.000
  Name = 
  2 active torsions:
  status: ('A' for Active; 'I' for Inactive)
    1  A    between atoms: C_1  and  C_2
    2  A    between atoms: C_10  and  C_13
                            x       y       z     vdW  Elec       q    Type
                         _______ _______ _______ _____ _____    ______ ____

>  <TORSDO>
F 2

$$$$
=
 OpenBabel10262420473D

 28 31  0  0  1  0  0  0  0  0999 V2000
  188.8670  177.3400  145.3780 C   0  0  1  0  0  3  0  0  0  0  0  0
  187.4200  177.4940  149.4170 N   0  0  0  0  0  1  0  0  0  0  0  0
  185.5800  178.1500  144.8480 C   0  0  1  0  0  3  0  0  0  0  0  0
  187.0530  177.9150  147.0390 C   0  0  2  0  0  3  0  0  0  0  0  0
  186.8930  178.6230  144.6300 O   0  0  0  0  0  0  0  0  0  0  0  0
  189.1770  176.9040  147.8500 C   0  0  0  0  0  2  0  0  0  0  0  0
  185.8770  178.8530  147.2770 C   0  0  0  0  0  2  0  0  0  0  0  0
  188.0670  177.9020  148.1820 C   0  0  2  0  0  3  0  0  0  0  0  0
  184.9230  178.8110  146.0780 C   0  0  0  0  0  2  0  0  0  0  0  0
  189.8700  177.2600  146.5320 C   0  0  0  0  0  2  0  0  0  0  0  0
  187.7500  178.3350  145.7310 C   0  0  2  0  0  3  0  0  0  0  0  0
  183.3320  178.7610  143.9650 C   0  0  0  0  0  2  0  0  0  0  0  0
  184.8530  178.6870  141.0680 C   0  0  0  0  0  3  0  0  0  0  0  0
  182.4920  178.0210  141.7190 C   0  0  2  0  0  3  0  0  0  0  0  0
  184.7350  178.2740  143.5730 C   0  0  1  0  0  3  0  0  0  0  0  0
  186.8550  179.1380  142.3930 C   0  0  0  0  0  1  0  0  0  0  0  0
  183.6220  178.2470  140.7530 C   0  0  0  0  0  3  0  0  0  0  0  0
  185.3350  179.1260  142.4290 C   0  0  1  0  0  3  0  0  0  0  0  0
  181.2880  177.9840  141.0180 O   0  0  0  0  0  1  0  0  0  0  0  0
  182.4300  179.1060  142.7800 C   0  0  0  0  0  2  0  0  0  0  0  0
  189.5880  177.6430  144.0530 C   0  0  1  0  0  3  0  0  0  0  0  0
  190.9740  178.2140  144.3620 C   0  0  0  0  0  2  0  0  0  0  0  0
  190.6210  176.6840  141.9450 C   0  0  0  0  0  0  0  0  0  0  0  0
  191.6790  178.6170  143.0760 C   0  0  0  0  0  2  0  0  0  0  0  0
  188.2590  176.1180  142.5470 C   0  0  0  0  0  1  0  0  0  0  0  0
  189.6490  176.4410  143.0800 C   0  0  2  0  0  3  0  0  0  0  0  0
  190.4220  176.2110  140.8370 O   0  0  0  0  0  0  0  0  0  0  0  0
  191.9160  177.3880  142.2110 C   0  0  0  0  0  2  0  0  0  0  0  0
  1 11  1  0  0  0  0
  1 10  1  1  0  0  0
  3  9  1  1  0  0  0
  4  7  1  1  0  0  0
  4  8  1  0  0  0  0
  5  3  1  0  0  0  0
  6  8  1  0  0  0  0
  8  2  1  1  0  0  0
  9  7  1  0  0  0  0
 10  6  1  0  0  0  0
 11  5  1  6  0  0  0
 11  4  1  0  0  0  0
 13 18  1  0  0  0  0
 14 19  1  6  0  0  0
 14 20  1  0  0  0  0
 15 12  1  1  0  0  0
 15  3  1  0  0  0  0
 17 13  2  0  0  0  0
 17 14  1  0  0  0  0
 18 16  1  6  0  0  0
 18 15  1  0  0  0  0
 20 12  1  0  0  0  0
 21 22  1  1  0  0  0
 21  1  1  0  0  0  0
 23 28  1  0  0  0  0
 23 26  1  0  0  0  0
 24 22  1  0  0  0  0
 26 25  1  6  0  0  0
 26 21  1  0  0  0  0
 27 23  2  0  0  0  0
 28 24  1  0  0  0  0
M  END
>  <MODEL>
2

>  <REMARK>
 VINA RESULT:      -7.8      3.577      7.824
  Name = 
  2 active torsions:
  status: ('A' for Active; 'I' for Inactive)
    1  A    between atoms: C_1  and  C_2
    2  A    between atoms: C_10  and  C_13
                            x       y       z     vdW  Elec       q    Type
                         _______ _______ _______ _____ _____    ______ ____

>  <TORSDO>
F 2

$$$$
=
 OpenBabel10262420473D

 28 31  0  0  1  0  0  0  0  0999 V2000
  185.7490  178.5890  144.0650 C   0  0  1  0  0  3  0  0  0  0  0  0
  187.1250  178.3450  148.1250 N   0  0  0  0  0  1  0  0  0  0  0  0
  188.9770  177.5430  143.5840 C   0  0  1  0  0  3  0  0  0  0  0  0
  187.4930  177.8910  145.7530 C   0  0  2  0  0  3  0  0  0  0  0  0
  187.6360  177.1650  143.3480 O   0  0  0  0  0  0  0  0  0  0  0  0
  185.4370  179.0540  146.5320 C   0  0  0  0  0  2  0  0  0  0  0  0
  188.5960  176.8720  146.0100 C   0  0  0  0  0  2  0  0  0  0  0  0
  186.4680  177.9800  146.8810 C   0  0  2  0  0  3  0  0  0  0  0  0
  189.5670  176.8410  144.8240 C   0  0  0  0  0  2  0  0  0  0  0  0
  184.7390  178.7450  145.2050 C   0  0  0  0  0  2  0  0  0  0  0  0
  186.7870  177.5180  144.4360 C   0  0  2  0  0  3  0  0  0  0  0  0
  188.9170  177.4940  141.0940 C   0  0  0  0  0  2  0  0  0  0  0  0
  192.1750  177.6030  141.3770 C   0  0  0  0  0  3  0  0  0  0  0  0
  190.6950  176.4040  139.6990 C   0  0  2  0  0  3  0  0  0  0  0  0
  189.8290  177.3550  142.3220 C   0  0  1  0  0  3  0  0  0  0  0  0
  191.7000  178.6450  143.5340 C   0  0  0  0  0  1  0  0  0  0  0  0
  192.0110  176.8420  140.2800 C   0  0  0  0  0  3  0  0  0  0  0  0
  191.0880  178.2470  142.2000 C   0  0  1  0  0  3  0  0  0  0  0  0
  190.8840  176.0110  138.3750 O   0  0  0  0  0  1  0  0  0  0  0  0
  189.6560  177.5110  139.7570 C   0  0  0  0  0  2  0  0  0  0  0  0
  185.0270  178.3340  142.7310 C   0  0  1  0  0  3  0  0  0  0  0  0
  183.5240  178.2220  142.9940 C   0  0  0  0  0  2  0  0  0  0  0  0
  184.4050  179.2660  140.4560 C   0  0  0  0  0  0  0  0  0  0  0  0
  182.7860  177.8720  141.7100 C   0  0  0  0  0  2  0  0  0  0  0  0
  186.8020  179.2140  141.1700 C   0  0  0  0  0  1  0  0  0  0  0  0
  185.3570  179.3690  141.6280 C   0  0  2  0  0  3  0  0  0  0  0  0
  184.7790  179.5160  139.3210 O   0  0  0  0  0  0  0  0  0  0  0  0
  182.9510  178.9960  140.6980 C   0  0  0  0  0  2  0  0  0  0  0  0
  1 11  1  0  0  0  0
  1 10  1  1  0  0  0
  3  9  1  1  0  0  0
  4  7  1  1  0  0  0
  4  8  1  0  0  0  0
  5  3  1  0  0  0  0
  6  8  1  0  0  0  0
  8  2  1  1  0  0  0
  9  7  1  0  0  0  0
 10  6  1  0  0  0  0
 11  5  1  6  0  0  0
 11  4  1  0  0  0  0
 13 18  1  0  0  0  0
 14 19  1  6  0  0  0
 14 20  1  0  0  0  0
 14 17  1  0  0  0  0
 15 12  1  6  0  0  0
 15  3  1  0  0  0  0
 17 13  2  0  0  0  0
 18 15  1  0  0  0  0
 18 16  1  1  0  0  0
 20 12  1  0  0  0  0
 21 22  1  1  0  0  0
 21  1  1  0  0  0  0
 23 28  1  0  0  0  0
 23 26  1  0  0  0  0
 24 22  1  0  0  0  0
 26 25  1  6  0  0  0
 26 21  1  0  0  0  0
 27 23  2  0  0  0  0
 28 24  1  0  0  0  0
M  END
>  <MODEL>
3

>  <REMARK>
 VINA RESULT:      -7.8      3.256      6.275
  Name = 
  2 active torsions:
  status: ('A' for Active; 'I' for Inactive)
    1  A    between atoms: C_1  and  C_2
    2  A    between atoms: C_10  and  C_13
                            x       y       z     vdW  Elec       q    Type
                         _______ _______ _______ _____ _____    ______ ____

>  <TORSDO>
F 2

$$$$
=
 OpenBabel10262420473D

 28 31  0  0  1  0  0  0  0  0999 V2000
  189.6620  176.0410  138.0850 C   0  0  1  0  0  3  0  0  0  0  0  0
  193.9390  176.1140  137.7150 N   0  0  0  0  0  1  0  0  0  0  0  0
  190.5640  176.9200  141.2720 C   0  0  1  0  0  3  0  0  0  0  0  0
  191.9370  176.6030  139.0270 C   0  0  2  0  0  3  0  0  0  0  0  0
  189.8260  177.3760  140.1570 O   0  0  0  0  0  0  0  0  0  0  0  0
  191.7720  175.5360  136.7860 C   0  0  0  0  0  2  0  0  0  0  0  0
  192.6590  177.5540  139.9720 C   0  0  0  0  0  2  0  0  0  0  0  0
  192.5530  176.5430  137.6310 C   0  0  2  0  0  3  0  0  0  0  0  0
  191.9660  177.5600  141.3400 C   0  0  0  0  0  2  0  0  0  0  0  0
  190.2920  175.9140  136.6950 C   0  0  0  0  0  2  0  0  0  0  0  0
  190.4650  177.0450  138.9270 C   0  0  2  0  0  3  0  0  0  0  0  0
  188.2670  176.9440  142.2370 C   0  0  0  0  0  2  0  0  0  0  0  0
  189.8600  176.8220  145.0930 C   0  0  0  0  0  3  0  0  0  0  0  0
  187.7150  178.0110  144.4400 C   0  0  2  0  0  3  0  0  0  0  0  0
  189.7600  177.0910  142.5680 C   0  0  1  0  0  3  0  0  0  0  0  0
  191.6410  175.8040  143.7670 C   0  0  0  0  0  1  0  0  0  0  0  0
  188.7870  177.5720  145.3980 C   0  0  0  0  0  3  0  0  0  0  0  0
  190.1700  176.1910  143.7580 C   0  0  1  0  0  3  0  0  0  0  0  0
  186.5820  178.3900  145.1580 O   0  0  0  0  0  1  0  0  0  0  0  0
  187.3500  176.9100  143.4580 C   0  0  0  0  0  2  0  0  0  0  0  0
  188.1630  176.3670  137.9730 C   0  0  1  0  0  3  0  0  0  0  0  0
  187.9950  177.8740  137.7700 C   0  0  0  0  0  2  0  0  0  0  0  0
  186.0420  176.1020  136.6080 C   0  0  0  0  0  0  0  0  0  0  0  0
  186.5200  178.2460  137.7530 C   0  0  0  0  0  2  0  0  0  0  0  0
  187.3320  174.0780  137.3140 C   0  0  0  0  0  1  0  0  0  0  0  0
  187.4180  175.5410  136.8970 C   0  0  2  0  0  3  0  0  0  0  0  0
  185.1190  175.3680  136.2910 O   0  0  0  0  0  0  0  0  0  0  0  0
  185.8370  177.5860  136.5650 C   0  0  0  0  0  2  0  0  0  0  0  0
  1 10  1  6  0  0  0
  1 11  1  0  0  0  0
  3  9  1  1  0  0  0
  3 15  1  0  0  0  0
  4  7  1  1  0  0  0
  5  3  1  0  0  0  0
  6  8  1  0  0  0  0
  7  9  1  0  0  0  0
  8  2  1  1  0  0  0
  8  4  1  0  0  0  0
 10  6  1  0  0  0  0
 11  4  1  0  0  0  0
 11  5  1  1  0  0  0
 12 20  1  0  0  0  0
 13 17  2  0  0  0  0
 14 19  1  1  0  0  0
 14 17  1  0  0  0  0
 15 12  1  6  0  0  0
 15 18  1  0  0  0  0
 18 16  1  1  0  0  0
 18 13  1  0  0  0  0
 20 14  1  0  0  0  0
 21 22  1  6  0  0  0
 21  1  1  0  0  0  0
 23 26  1  0  0  0  0
 24 22  1  0  0  0  0
 26 25  1  1  0  0  0
 26 21  1  0  0  0  0
 27 23  2  0  0  0  0
 28 23  1  0  0  0  0
 28 24  1  0  0  0  0
M  END
>  <MODEL>
4

>  <REMARK>
 VINA RESULT:      -7.5      3.083      4.331
  Name = 
  2 active torsions:
  status: ('A' for Active; 'I' for Inactive)
    1  A    between atoms: C_1  and  C_2
    2  A    between atoms: C_10  and  C_13
                            x       y       z     vdW  Elec       q    Type
                         _______ _______ _______ _____ _____    ______ ____

>  <TORSDO>
F 2

$$$$
=
 OpenBabel10262420473D

 28 31  0  0  1  0  0  0  0  0999 V2000
  190.5420  177.0640  139.7790 C   0  0  1  0  0  3  0  0  0  0  0  0
  193.9720  176.7350  137.2190 N   0  0  0  0  0  1  0  0  0  0  0  0
  189.0510  176.1660  136.8270 C   0  0  1  0  0  3  0  0  0  0  0  0
  191.5830  176.3780  137.5830 C   0  0  2  0  0  3  0  0  0  0  0  0
  189.2190  175.7430  138.1650 O   0  0  0  0  0  0  0  0  0  0  0  0
  193.0040  177.4310  139.3330 C   0  0  0  0  0  2  0  0  0  0  0  0
  191.4440  175.3960  136.4280 C   0  0  0  0  0  2  0  0  0  0  0  0
  192.9730  176.3870  138.2150 C   0  0  2  0  0  3  0  0  0  0  0  0
  190.0190  175.4450  135.8660 C   0  0  0  0  0  2  0  0  0  0  0  0
  191.9410  177.1400  140.3960 C   0  0  0  0  0  2  0  0  0  0  0  0
  190.5290  176.0230  138.6490 C   0  0  2  0  0  3  0  0  0  0  0  0
  186.9250  174.9230  137.2010 C   0  0  0  0  0  2  0  0  0  0  0  0
  185.6160  177.3670  135.4630 C   0  0  0  0  0  3  0  0  0  0  0  0
  185.0410  174.8970  135.5440 C   0  0  2  0  0  3  0  0  0  0  0  0
  187.5810  176.0560  136.3990 C   0  0  1  0  0  3  0  0  0  0  0  0
  187.5550  178.6280  136.2510 C   0  0  0  0  0  1  0  0  0  0  0  0
  184.8580  176.3200  135.0950 C   0  0  0  0  0  3  0  0  0  0  0  0
  186.7450  177.3570  136.4630 C   0  0  1  0  0  3  0  0  0  0  0  0
  183.8620  174.1870  135.3190 O   0  0  0  0  0  1  0  0  0  0  0  0
  185.4120  174.8120  137.0140 C   0  0  0  0  0  2  0  0  0  0  0  0
  189.4820  176.8270  140.8690 C   0  0  1  0  0  3  0  0  0  0  0  0
  190.1800  176.3650  142.1490 C   0  0  0  0  0  2  0  0  0  0  0  0
  187.7380  177.8780  142.3820 C   0  0  0  0  0  0  0  0  0  0  0  0
  189.1550  176.0270  143.2200 C   0  0  0  0  0  2  0  0  0  0  0  0
  187.6350  178.2530  139.9100 C   0  0  0  0  0  1  0  0  0  0  0  0
  188.5460  178.0370  141.1110 C   0  0  2  0  0  3  0  0  0  0  0  0
  186.6120  178.3410  142.4700 O   0  0  0  0  0  0  0  0  0  0  0  0
  188.3730  177.2760  143.5980 C   0  0  0  0  0  2  0  0  0  0  0  0
  1 10  1  1  0  0  0
  1 21  1  0  0  0  0
  3  9  1  6  0  0  0
  3  5  1  0  0  0  0
  4  7  1  6  0  0  0
  4  8  1  0  0  0  0
  4 11  1  0  0  0  0
  6 10  1  0  0  0  0
  8  2  1  6  0  0  0
  8  6  1  0  0  0  0
  9  7  1  0  0  0  0
 11  5  1  6  0  0  0
 11  1  1  0  0  0  0
 13 18  1  0  0  0  0
 14 19  1  1  0  0  0
 14 20  1  0  0  0  0
 15 18  1  0  0  0  0
 15  3  1  0  0  0  0
 15 12  1  1  0  0  0
 17 13  2  0  0  0  0
 17 14  1  0  0  0  0
 18 16  1  6  0  0  0
 20 12  1  0  0  0  0
 21 26  1  0  0  0  0
 21 22  1  1  0  0  0
 22 24  1  0  0  0  0
 23 27  2  0  0  0  0
 23 28  1  0  0  0  0
 24 28  1  0  0  0  0
 26 25  1  6  0  0  0
 26 23  1  0  0  0  0
M  END
>  <MODEL>
5

>  <REMARK>
 VINA RESULT:      -7.4      3.361      7.490
  Name = 
  2 active torsions:
  status: ('A' for Active; 'I' for Inactive)
    1  A    between atoms: C_1  and  C_2
    2  A    between atoms: C_10  and  C_13
                            x       y       z     vdW  Elec       q    Type
                         _______ _______ _______ _____ _____    ______ ____

>  <TORSDO>
F 2

$$$$
=
 OpenBabel10262420473D

 28 31  0  0  1  0  0  0  0  0999 V2000
  182.4690  178.6200  139.8390 C   0  0  1  0  0  3  0  0  0  0  0  0
  179.6990  180.8230  142.2700 N   0  0  0  0  0  1  0  0  0  0  0  0
  184.0670  178.5320  142.8690 C   0  0  1  0  0  3  0  0  0  0  0  0
  181.6860  179.4110  142.1060 C   0  0  2  0  0  3  0  0  0  0  0  0
  183.5100  177.6920  141.8790 O   0  0  0  0  0  0  0  0  0  0  0  0
  180.4340  180.1040  140.0710 C   0  0  0  0  0  2  0  0  0  0  0  0
  181.6790  179.0450  143.5840 C   0  0  0  0  0  2  0  0  0  0  0  0
  180.2990  179.7160  141.5440 C   0  0  2  0  0  3  0  0  0  0  0  0
  183.1060  178.7440  144.0570 C   0  0  0  0  0  2  0  0  0  0  0  0
  181.1000  178.9890  139.2610 C   0  0  0  0  0  2  0  0  0  0  0  0
  182.3210  178.2470  141.3230 C   0  0  2  0  0  3  0  0  0  0  0  0
  186.4240  178.2200  142.1240 C   0  0  0  0  0  2  0  0  0  0  0  0
  186.9720  177.6640  145.3020 C   0  0  0  0  0  3  0  0  0  0  0  0
  188.0160  176.6290  143.2330 C   0  0  2  0  0  3  0  0  0  0  0  0
  185.4520  178.0270  143.2970 C   0  0  1  0  0  3  0  0  0  0  0  0
  184.9630  179.0160  145.6250 C   0  0  0  0  0  1  0  0  0  0  0  0
  187.8550  176.8380  144.7130 C   0  0  0  0  0  3  0  0  0  0  0  0
  186.0230  178.6120  144.6120 C   0  0  1  0  0  3  0  0  0  0  0  0
  189.2630  176.0600  142.9810 O   0  0  0  0  0  1  0  0  0  0  0  0
  187.8860  177.9310  142.4610 C   0  0  0  0  0  2  0  0  0  0  0  0
  183.1470  177.5390  138.9800 C   0  0  1  0  0  3  0  0  0  0  0  0
  182.0670  176.7050  138.2870 C   0  0  0  0  0  2  0  0  0  0  0  0
  184.6020  177.0530  136.9600 C   0  0  0  0  0  0  0  0  0  0  0  0
  182.6990  175.5630  137.5060 C   0  0  0  0  0  2  0  0  0  0  0  0
  185.4110  178.6240  138.7310 C   0  0  0  0  0  1  0  0  0  0  0  0
  184.1950  178.0920  137.9840 C   0  0  2  0  0  3  0  0  0  0  0  0
  185.7320  177.0360  136.4990 O   0  0  0  0  0  0  0  0  0  0  0  0
  183.5730  176.1230  136.3930 C   0  0  0  0  0  2  0  0  0  0  0  0
  1 10  1  6  0  0  0
  1 11  1  0  0  0  0
  3 15  1  0  0  0  0
  3  9  1  1  0  0  0
  4  7  1  1  0  0  0
  5  3  1  0  0  0  0
  6  8  1  0  0  0  0
  7  9  1  0  0  0  0
  8  4  1  0  0  0  0
  8  2  1  1  0  0  0
 10  6  1  0  0  0  0
 11  5  1  1  0  0  0
 11  4  1  0  0  0  0
 12 20  1  0  0  0  0
 14 19  1  1  0  0  0
 14 17  1  0  0  0  0
 15 12  1  6  0  0  0
 15 18  1  0  0  0  0
 17 13  2  0  0  0  0
 18 13  1  0  0  0  0
 18 16  1  1  0  0  0
 20 14  1  0  0  0  0
 21 22  1  6  0  0  0
 21  1  1  0  0  0  0
 23 26  1  0  0  0  0
 24 22  1  0  0  0  0
 26 25  1  1  0  0  0
 26 21  1  0  0  0  0
 27 23  2  0  0  0  0
 28 23  1  0  0  0  0
 28 24  1  0  0  0  0
M  END
>  <MODEL>
6

>  <REMARK>
 VINA RESULT:      -7.3      2.983      5.116
  Name = 
  2 active torsions:
  status: ('A' for Active; 'I' for Inactive)
    1  A    between atoms: C_1  and  C_2
    2  A    between atoms: C_10  and  C_13
                            x       y       z     vdW  Elec       q    Type
                         _______ _______ _______ _____ _____    ______ ____

>  <TORSDO>
F 2

$$$$
=
 OpenBabel10262420473D

 28 31  0  0  1  0  0  0  0  0999 V2000
  182.6890  178.4410  140.3590 C   0  0  1  0  0  3  0  0  0  0  0  0
  180.0750  180.4820  143.0850 N   0  0  0  0  0  1  0  0  0  0  0  0
  184.7200  178.7160  143.1060 C   0  0  1  0  0  3  0  0  0  0  0  0
  182.1660  179.2850  142.6810 C   0  0  2  0  0  3  0  0  0  0  0  0
  184.1220  177.7610  142.2530 O   0  0  0  0  0  0  0  0  0  0  0  0
  180.5530  179.7090  140.8350 C   0  0  0  0  0  2  0  0  0  0  0  0
  182.4210  179.0140  144.1580 C   0  0  0  0  0  2  0  0  0  0  0  0
  180.6850  179.4020  142.3270 C   0  0  2  0  0  3  0  0  0  0  0  0
  183.9270  178.8980  144.4170 C   0  0  0  0  0  2  0  0  0  0  0  0
  181.2160  178.6240  139.9830 C   0  0  0  0  0  2  0  0  0  0  0  0
  182.8070  178.1490  141.8630 C   0  0  2  0  0  3  0  0  0  0  0  0
  186.3000  177.3160  144.4280 C   0  0  0  0  0  2  0  0  0  0  0  0
  188.4880  178.3540  142.2270 C   0  0  0  0  0  3  0  0  0  0  0  0
  188.7290  177.8800  144.7090 C   0  0  2  0  0  3  0  0  0  0  0  0
  186.2020  178.3920  143.3370 C   0  0  1  0  0  3  0  0  0  0  0  0
  186.5320  178.6460  140.7940 C   0  0  0  0  0  1  0  0  0  0  0  0
  189.2310  178.2640  143.3450 C   0  0  0  0  0  3  0  0  0  0  0  0
  187.0270  178.0090  142.0840 C   0  0  1  0  0  3  0  0  0  0  0  0
  189.8050  177.4820  145.5010 O   0  0  0  0  0  1  0  0  0  0  0  0
  187.7070  176.7580  144.6390 C   0  0  0  0  0  2  0  0  0  0  0  0
  183.3530  177.3870  139.4560 C   0  0  1  0  0  3  0  0  0  0  0  0
  182.4310  176.1700  139.3540 C   0  0  0  0  0  2  0  0  0  0  0  0
  184.1310  176.8030  137.1140 C   0  0  0  0  0  0  0  0  0  0  0  0
  183.0990  175.0660  138.5470 C   0  0  0  0  0  2  0  0  0  0  0  0
  184.9330  178.9060  138.2070 C   0  0  0  0  0  1  0  0  0  0  0  0
  183.7760  177.9240  138.0670 C   0  0  2  0  0  3  0  0  0  0  0  0
  184.9870  176.9560  136.2570 O   0  0  0  0  0  0  0  0  0  0  0  0
  183.3280  175.5380  137.1190 C   0  0  0  0  0  2  0  0  0  0  0  0
  1 10  1  6  0  0  0
  1 11  1  0  0  0  0
  3 15  1  0  0  0  0
  3  9  1  1  0  0  0
  4  7  1  1  0  0  0
  5  3  1  0  0  0  0
  6  8  1  0  0  0  0
  7  9  1  0  0  0  0
  8  4  1  0  0  0  0
  8  2  1  1  0  0  0
 10  6  1  0  0  0  0
 11  5  1  1  0  0  0
 11  4  1  0  0  0  0
 12 20  1  0  0  0  0
 13 17  2  0  0  0  0
 14 19  1  1  0  0  0
 15 12  1  1  0  0  0
 17 14  1  0  0  0  0
 18 16  1  6  0  0  0
 18 13  1  0  0  0  0
 18 15  1  0  0  0  0
 20 14  1  0  0  0  0
 21 22  1  6  0  0  0
 21  1  1  0  0  0  0
 23 28  1  0  0  0  0
 23 26  1  0  0  0  0
 24 22  1  0  0  0  0
 26 25  1  1  0  0  0
 26 21  1  0  0  0  0
 27 23  2  0  0  0  0
 28 24  1  0  0  0  0
M  END
>  <MODEL>
7

>  <REMARK>
 VINA RESULT:      -7.2      3.076      4.992
  Name = 
  2 active torsions:
  status: ('A' for Active; 'I' for Inactive)
    1  A    between atoms: C_1  and  C_2
    2  A    between atoms: C_10  and  C_13
                            x       y       z     vdW  Elec       q    Type
                         _______ _______ _______ _____ _____    ______ ____

>  <TORSDO>
F 2

$$$$
=
 OpenBabel10262420473D

 28 31  0  0  1  0  0  0  0  0999 V2000
  187.3670  177.7580  140.2130 C   0  0  1  0  0  3  0  0  0  0  0  0
  187.4660  177.2410  144.4740 N   0  0  0  0  0  1  0  0  0  0  0  0
  184.1370  178.5590  141.0290 C   0  0  1  0  0  3  0  0  0  0  0  0
  186.2880  178.0200  142.4810 C   0  0  2  0  0  3  0  0  0  0  0  0
  185.3000  179.0930  140.4300 O   0  0  0  0  0  0  0  0  0  0  0  0
  188.5260  176.9480  142.3110 C   0  0  0  0  0  2  0  0  0  0  0  0
  185.3060  178.8800  143.2670 C   0  0  0  0  0  2  0  0  0  0  0  0
  187.6420  177.8540  143.1680 C   0  0  2  0  0  3  0  0  0  0  0  0
  183.9860  179.0030  142.4980 C   0  0  0  0  0  2  0  0  0  0  0  0
  188.7140  177.5230  140.9040 C   0  0  0  0  0  2  0  0  0  0  0  0
  186.4840  178.6570  141.0930 C   0  0  2  0  0  3  0  0  0  0  0  0
  183.1670  180.1270  139.3530 C   0  0  0  0  0  2  0  0  0  0  0  0
  180.8910  177.7990  139.0320 C   0  0  0  0  0  3  0  0  0  0  0  0
  180.7030  180.3280  138.9260 C   0  0  2  0  0  3  0  0  0  0  0  0
  182.8960  178.8590  140.1770 C   0  0  1  0  0  3  0  0  0  0  0  0
  182.6540  176.3160  139.8440 C   0  0  0  0  0  1  0  0  0  0  0  0
  180.1770  178.9220  138.8380 C   0  0  0  0  0  3  0  0  0  0  0  0
  182.3740  177.7050  139.2880 C   0  0  1  0  0  3  0  0  0  0  0  0
  179.8280  181.1890  138.2670 O   0  0  0  0  0  1  0  0  0  0  0  0
  182.0900  180.4500  138.3190 C   0  0  0  0  0  2  0  0  0  0  0  0
  187.5770  178.2830  138.7820 C   0  0  1  0  0  3  0  0  0  0  0  0
  189.0560  178.6280  138.5910 C   0  0  0  0  0  2  0  0  0  0  0  0
  187.5440  177.7330  136.3060 C   0  0  0  0  0  0  0  0  0  0  0  0
  189.2830  179.2420  137.2190 C   0  0  0  0  0  2  0  0  0  0  0  0
  185.5240  177.2810  137.7130 C   0  0  0  0  0  1  0  0  0  0  0  0
  187.0460  177.3340  137.6800 C   0  0  2  0  0  3  0  0  0  0  0  0
  186.8580  177.5470  135.3130 O   0  0  0  0  0  0  0  0  0  0  0  0
  188.9480  178.2260  136.1370 C   0  0  0  0  0  2  0  0  0  0  0  0
  1 10  1  1  0  0  0
  1 11  1  0  0  0  0
  3  9  1  1  0  0  0
  4  8  1  0  0  0  0
  4  7  1  1  0  0  0
  5  3  1  0  0  0  0
  6  8  1  0  0  0  0
  8  2  1  1  0  0  0
  9  7  1  0  0  0  0
 10  6  1  0  0  0  0
 11  5  1  6  0  0  0
 11  4  1  0  0  0  0
 13 18  1  0  0  0  0
 14 19  1  6  0  0  0
 15 12  1  6  0  0  0
 15  3  1  0  0  0  0
 17 14  1  0  0  0  0
 17 13  2  0  0  0  0
 18 16  1  1  0  0  0
 18 15  1  0  0  0  0
 20 14  1  0  0  0  0
 20 12  1  0  0  0  0
 21 22  1  6  0  0  0
 21  1  1  0  0  0  0
 23 26  1  0  0  0  0
 24 22  1  0  0  0  0
 26 25  1  6  0  0  0
 26 21  1  0  0  0  0
 27 23  2  0  0  0  0
 28 23  1  0  0  0  0
 28 24  1  0  0  0  0
M  END
>  <MODEL>
8

>  <REMARK>
 VINA RESULT:      -7.2      2.365      6.260
  Name = 
  2 active torsions:
  status: ('A' for Active; 'I' for Inactive)
    1  A    between atoms: C_1  and  C_2
    2  A    between atoms: C_10  and  C_13
                            x       y       z     vdW  Elec       q    Type
                         _______ _______ _______ _____ _____    ______ ____

>  <TORSDO>
F 2

$$$$
=
 OpenBabel10262420473D

 28 31  0  0  1  0  0  0  0  0999 V2000
  185.6040  179.1790  143.8100 C   0  0  1  0  0  3  0  0  0  0  0  0
  187.3150  178.0710  147.5880 N   0  0  0  0  0  1  0  0  0  0  0  0
  188.4860  177.6380  142.7780 C   0  0  1  0  0  3  0  0  0  0  0  0
  187.3360  177.9210  145.1500 C   0  0  2  0  0  3  0  0  0  0  0  0
  187.0790  177.5560  142.6730 O   0  0  0  0  0  0  0  0  0  0  0  0
  185.6490  179.3140  146.3350 C   0  0  0  0  0  2  0  0  0  0  0  0
  188.2300  176.6890  145.1260 C   0  0  0  0  0  2  0  0  0  0  0  0
  186.4720  178.0270  146.4050 C   0  0  2  0  0  3  0  0  0  0  0  0
  189.0470  176.6580  143.8290 C   0  0  0  0  0  2  0  0  0  0  0  0
  184.7690  179.3450  145.0830 C   0  0  0  0  0  2  0  0  0  0  0  0
  186.4360  177.8900  143.9000 C   0  0  2  0  0  3  0  0  0  0  0  0
  188.3000  178.2500  140.3710 C   0  0  0  0  0  2  0  0  0  0  0  0
  191.3680  177.1230  140.2230 C   0  0  0  0  0  3  0  0  0  0  0  0
  189.4720  176.9960  138.5410 C   0  0  2  0  0  3  0  0  0  0  0  0
  189.1470  177.4890  141.4010 C   0  0  1  0  0  3  0  0  0  0  0  0
  191.4180  177.6790  142.6010 C   0  0  0  0  0  1  0  0  0  0  0  0
  190.8810  176.7760  139.0190 C   0  0  0  0  0  3  0  0  0  0  0  0
  190.6420  177.8780  141.3080 C   0  0  1  0  0  3  0  0  0  0  0  0
  189.4390  176.9130  137.1500 O   0  0  0  0  0  1  0  0  0  0  0  0
  188.9300  178.3450  138.9820 C   0  0  0  0  0  2  0  0  0  0  0  0
  184.7110  179.2680  142.5600 C   0  0  1  0  0  3  0  0  0  0  0  0
  185.5620  178.9880  141.3200 C   0  0  0  0  0  2  0  0  0  0  0  0
  182.7750  178.2530  141.2730 C   0  0  0  0  0  0  0  0  0  0  0  0
  184.7320  179.1640  140.0570 C   0  0  0  0  0  2  0  0  0  0  0  0
  182.4760  178.8980  143.6720 C   0  0  0  0  0  1  0  0  0  0  0  0
  183.4490  178.3730  142.6240 C   0  0  2  0  0  3  0  0  0  0  0  0
  181.5640  178.1280  141.1860 O   0  0  0  0  0  0  0  0  0  0  0  0
  183.6080  178.1390  140.0330 C   0  0  0  0  0  2  0  0  0  0  0  0
  1 11  1  0  0  0  0
  1 10  1  1  0  0  0
  3  9  1  1  0  0  0
  4  7  1  1  0  0  0
  4  8  1  0  0  0  0
  5  3  1  0  0  0  0
  6  8  1  0  0  0  0
  8  2  1  1  0  0  0
  9  7  1  0  0  0  0
 10  6  1  0  0  0  0
 11  5  1  6  0  0  0
 11  4  1  0  0  0  0
 13 18  1  0  0  0  0
 14 19  1  6  0  0  0
 14 20  1  0  0  0  0
 14 17  1  0  0  0  0
 15 12  1  6  0  0  0
 15  3  1  0  0  0  0
 17 13  2  0  0  0  0
 18 15  1  0  0  0  0
 18 16  1  1  0  0  0
 20 12  1  0  0  0  0
 21 22  1  6  0  0  0
 21 26  1  0  0  0  0
 21  1  1  0  0  0  0
 23 26  1  0  0  0  0
 24 22  1  0  0  0  0
 26 25  1  1  0  0  0
 27 23  2  0  0  0  0
 28 24  1  0  0  0  0
 28 23  1  0  0  0  0
M  END
>  <MODEL>
9

>  <REMARK>
 VINA RESULT:      -7.2      2.920      5.969
  Name = 
  2 active torsions:
  status: ('A' for Active; 'I' for Inactive)
    1  A    between atoms: C_1  and  C_2
    2  A    between atoms: C_10  and  C_13
                            x       y       z     vdW  Elec       q    Type
                         _______ _______ _______ _____ _____    ______ ____

>  <TORSDO>
F 2

$$$$
