=
 OpenBabel10262420023D

 27 31  0  0  1  0  0  0  0  0999 V2000
  182.7100  178.0810  142.3600 C   0  0  0  0  0  2  0  0  0  0  0  0
  182.6550  177.9500  139.8350 C   0  0  1  0  0  3  0  0  0  0  0  0
  184.7760  179.5000  140.1700 C   0  0  0  0  0  2  0  0  0  0  0  0
  184.8920  176.0720  136.8350 O   0  0  0  0  0  0  0  0  0  0  0  0
  186.6350  177.1540  135.4920 C   0  0  0  0  0  1  0  0  0  0  0  0
  182.5560  176.4090  139.8270 C   0  0  0  0  0  2  0  0  0  0  0  0
  185.7690  178.0400  137.6570 C   0  0  0  0  0  0  0  0  0  0  0  0
  187.6970  177.6530  141.7310 C   0  0  0  0  0  3  0  0  0  0  0  0
  186.5750  179.0010  137.7820 O   0  0  0  0  0  0  0  0  0  0  0  0
  187.2730  177.5080  143.0540 C   0  0  0  0  0  3  0  0  0  0  0  0
  184.5230  177.8690  138.3150 C   0  0  0  0  0  0  0  0  0  0  0  0
  182.1600  178.5350  141.0830 N   0  0  0  0  0  0  0  0  0  0  0  0
  185.9050  176.9850  136.7360 N   0  0  0  0  0  0  0  0  0  0  0  0
  183.8950  176.6950  137.6430 C   0  0  2  0  0  3  0  0  0  0  0  0
  183.6890  179.4120  143.1180 S   0  0  0  0  0  0  0  0  0  0  0  0
  184.0110  178.4600  139.3990 C   0  0  0  0  0  0  0  0  0  0  0  0
  186.8880  178.3210  140.8090 C   0  0  0  0  0  3  0  0  0  0  0  0
  183.3810  175.7230  138.7120 C   0  0  0  0  0  2  0  0  0  0  0  0
  186.0450  178.0380  143.4550 C   0  0  0  0  0  3  0  0  0  0  0  0
  185.2340  178.7150  142.5380 C   0  0  0  0  0  0  0  0  0  0  0  0
  185.6540  178.8550  141.2010 C   0  0  0  0  0  0  0  0  0  0  0  0
  178.9620  181.3400  140.9610 C   0  0  0  0  0  3  0  0  0  0  0  0
  181.0750  179.4870  141.0440 C   0  0  0  0  0  0  0  0  0  0  0  0
  180.8310  180.2420  139.8840 C   0  0  0  0  0  3  0  0  0  0  0  0
  179.7810  181.1630  139.8430 C   0  0  0  0  0  3  0  0  0  0  0  0
  179.1930  180.5950  142.1190 C   0  0  0  0  0  3  0  0  0  0  0  0
  180.2420  179.6740  142.1610 C   0  0  0  0  0  3  0  0  0  0  0  0
  1 15  1  0  0  0  0
  2  6  1  1  0  0  0
  2 12  1  0  0  0  0
  3 21  1  0  0  0  0
  4 14  1  0  0  0  0
  5 13  1  0  0  0  0
  7  9  2  0  0  0  0
  7 11  1  0  0  0  0
  8 10  1  0  0  0  0
 10 19  2  0  0  0  0
 11 16  2  0  0  0  0
 12  1  1  0  0  0  0
 13  4  1  0  0  0  0
 13  7  1  0  0  0  0
 14 11  1  0  0  0  0
 14 18  1  1  0  0  0
 16  2  1  0  0  0  0
 16  3  1  0  0  0  0
 17 21  1  0  0  0  0
 17  8  2  0  0  0  0
 18  6  1  0  0  0  0
 20 15  1  0  0  0  0
 20 19  1  0  0  0  0
 21 20  2  0  0  0  0
 22 26  1  0  0  0  0
 23 12  1  0  0  0  0
 23 27  1  0  0  0  0
 24 23  2  0  0  0  0
 25 24  1  0  0  0  0
 25 22  2  0  0  0  0
 26 27  2  0  0  0  0
M  END
>  <MODEL>
1

>  <REMARK>
 VINA RESULT:      -6.0      0.000      0.000
  Name = 
  1 active torsions:
  status: ('A' for Active; 'I' for Inactive)
    1  A    between atoms: C_9  and  N_15
                            x       y       z     vdW  Elec       q    Type
                         _______ _______ _______ _____ _____    ______ ____

>  <TORSDO>
F 1

$$$$
=
 OpenBabel10262420023D

 27 31  0  0  1  0  0  0  0  0999 V2000
  182.0620  177.3020  139.8200 C   0  0  0  0  0  2  0  0  0  0  0  0
  183.4220  177.0060  137.7080 C   0  0  1  0  0  3  0  0  0  0  0  0
  184.6450  179.1110  138.7520 C   0  0  0  0  0  2  0  0  0  0  0  0
  187.2610  175.6570  136.7240 O   0  0  0  0  0  0  0  0  0  0  0  0
  189.1880  177.1030  136.2680 C   0  0  0  0  0  1  0  0  0  0  0  0
  183.6620  175.5030  137.9660 C   0  0  0  0  0  2  0  0  0  0  0  0
  187.1220  177.8400  137.4550 C   0  0  0  0  0  0  0  0  0  0  0  0
  186.5460  178.2650  141.9220 C   0  0  0  0  0  3  0  0  0  0  0  0
  187.5120  178.9950  137.7740 O   0  0  0  0  0  0  0  0  0  0  0  0
  185.5100  178.0880  142.8420 C   0  0  0  0  0  3  0  0  0  0  0  0
  185.7850  177.3640  137.4060 C   0  0  0  0  0  0  0  0  0  0  0  0
  182.2190  177.5030  138.3800 N   0  0  0  0  0  0  0  0  0  0  0  0
  187.9510  176.8110  136.9700 N   0  0  0  0  0  0  0  0  0  0  0  0
  185.8830  176.0210  136.7640 C   0  0  2  0  0  3  0  0  0  0  0  0
  182.1710  178.9000  140.6800 S   0  0  0  0  0  0  0  0  0  0  0  0
  184.6560  177.8520  137.9300 C   0  0  0  0  0  0  0  0  0  0  0  0
  186.2550  178.6190  140.6030 C   0  0  0  0  0  3  0  0  0  0  0  0
  185.0810  175.0110  137.5950 C   0  0  0  0  0  2  0  0  0  0  0  0
  184.1840  178.2730  142.4430 C   0  0  0  0  0  3  0  0  0  0  0  0
  183.8860  178.6350  141.1250 C   0  0  0  0  0  0  0  0  0  0  0  0
  184.9290  178.8060  140.1930 C   0  0  0  0  0  0  0  0  0  0  0  0
  179.1120  179.2800  136.0770 C   0  0  0  0  0  3  0  0  0  0  0  0
  181.1640  178.1050  137.6000 C   0  0  0  0  0  0  0  0  0  0  0  0
  181.3310  179.3820  137.0390 C   0  0  0  0  0  3  0  0  0  0  0  0
  180.3110  179.9670  136.2830 C   0  0  0  0  0  3  0  0  0  0  0  0
  178.9340  178.0080  136.6270 C   0  0  0  0  0  3  0  0  0  0  0  0
  179.9530  177.4240  137.3830 C   0  0  0  0  0  3  0  0  0  0  0  0
  1 15  1  0  0  0  0
  2 16  1  0  0  0  0
  2  6  1  1  0  0  0
  2 12  1  0  0  0  0
  3 21  1  0  0  0  0
  4 14  1  0  0  0  0
  4 13  1  0  0  0  0
  5 13  1  0  0  0  0
  7  9  2  0  0  0  0
  8 10  1  0  0  0  0
 11  7  1  0  0  0  0
 11 16  2  0  0  0  0
 12  1  1  0  0  0  0
 13  7  1  0  0  0  0
 14 11  1  0  0  0  0
 14 18  1  1  0  0  0
 15 20  1  0  0  0  0
 16  3  1  0  0  0  0
 17  8  2  0  0  0  0
 18  6  1  0  0  0  0
 19 10  2  0  0  0  0
 20 19  1  0  0  0  0
 21 17  1  0  0  0  0
 21 20  2  0  0  0  0
 22 25  2  0  0  0  0
 22 26  1  0  0  0  0
 23 12  1  0  0  0  0
 24 23  2  0  0  0  0
 25 24  1  0  0  0  0
 26 27  2  0  0  0  0
 27 23  1  0  0  0  0
M  END
>  <MODEL>
2

>  <REMARK>
 VINA RESULT:      -5.8      2.267      2.850
  Name = 
  1 active torsions:
  status: ('A' for Active; 'I' for Inactive)
    1  A    between atoms: C_9  and  N_15
                            x       y       z     vdW  Elec       q    Type
                         _______ _______ _______ _____ _____    ______ ____

>  <TORSDO>
F 1

$$$$
=
 OpenBabel10262420023D

 27 31  0  0  1  0  0  0  0  0999 V2000
  180.7660  178.4540  136.9660 C   0  0  0  0  0  2  0  0  0  0  0  0
  182.2840  179.5620  138.6590 C   0  0  1  0  0  3  0  0  0  0  0  0
  180.1480  179.1370  140.1660 C   0  0  0  0  0  2  0  0  0  0  0  0
  184.4960  178.3660  142.0070 O   0  0  0  0  0  0  0  0  0  0  0  0
  183.7800  178.6350  144.3370 C   0  0  0  0  0  1  0  0  0  0  0  0
  183.4690  178.6220  138.3460 C   0  0  0  0  0  2  0  0  0  0  0  0
  182.2490  178.7410  142.3700 C   0  0  0  0  0  0  0  0  0  0  0  0
  179.5490  175.4530  140.8340 C   0  0  0  0  0  3  0  0  0  0  0  0
  181.1630  178.8220  143.0050 O   0  0  0  0  0  0  0  0  0  0  0  0
  179.0820  175.0060  139.5960 C   0  0  0  0  0  3  0  0  0  0  0  0
  182.4810  179.0800  141.0110 C   0  0  0  0  0  0  0  0  0  0  0  0
  181.3450  179.6680  137.5400 N   0  0  0  0  0  0  0  0  0  0  0  0
  183.4910  178.3950  142.9340 N   0  0  0  0  0  0  0  0  0  0  0  0
  183.9620  179.0030  140.8480 C   0  0  2  0  0  3  0  0  0  0  0  0
  178.9890  178.3820  137.3430 S   0  0  0  0  0  0  0  0  0  0  0  0
  181.6350  179.2760  139.9950 C   0  0  0  0  0  0  0  0  0  0  0  0
  179.8700  176.8000  141.0140 C   0  0  0  0  0  3  0  0  0  0  0  0
  184.2840  178.1890  139.5870 C   0  0  0  0  0  2  0  0  0  0  0  0
  178.9310  175.9090  138.5410 C   0  0  0  0  0  3  0  0  0  0  0  0
  179.2440  177.2620  138.7170 C   0  0  0  0  0  0  0  0  0  0  0  0
  179.7230  177.7130  139.9630 C   0  0  0  0  0  0  0  0  0  0  0  0
  180.5410  183.4840  135.8340 C   0  0  0  0  0  3  0  0  0  0  0  0
  181.0710  180.9620  136.9600 C   0  0  0  0  0  0  0  0  0  0  0  0
  181.0690  182.1170  137.7600 C   0  0  0  0  0  3  0  0  0  0  0  0
  180.8050  183.3700  137.2010 C   0  0  0  0  0  3  0  0  0  0  0  0
  180.5420  182.3440  135.0270 C   0  0  0  0  0  3  0  0  0  0  0  0
  180.8050  181.0910  135.5850 C   0  0  0  0  0  3  0  0  0  0  0  0
  1 15  1  0  0  0  0
  1 12  1  0  0  0  0
  2  6  1  6  0  0  0
  2 16  1  0  0  0  0
  4 13  1  0  0  0  0
  6 18  1  0  0  0  0
  7 13  1  0  0  0  0
  7  9  2  0  0  0  0
  8 17  1  0  0  0  0
 10  8  2  0  0  0  0
 11  7  1  0  0  0  0
 12  2  1  0  0  0  0
 13  5  1  0  0  0  0
 14 18  1  6  0  0  0
 14 11  1  0  0  0  0
 14  4  1  0  0  0  0
 15 20  1  0  0  0  0
 16  3  1  0  0  0  0
 16 11  2  0  0  0  0
 19 20  2  0  0  0  0
 19 10  1  0  0  0  0
 20 21  1  0  0  0  0
 21  3  1  0  0  0  0
 21 17  2  0  0  0  0
 22 25  1  0  0  0  0
 23 12  1  0  0  0  0
 23 24  1  0  0  0  0
 25 24  2  0  0  0  0
 26 27  1  0  0  0  0
 26 22  2  0  0  0  0
 27 23  2  0  0  0  0
M  END
>  <MODEL>
3

>  <REMARK>
 VINA RESULT:      -5.8      3.593      6.061
  Name = 
  1 active torsions:
  status: ('A' for Active; 'I' for Inactive)
    1  A    between atoms: C_9  and  N_15
                            x       y       z     vdW  Elec       q    Type
                         _______ _______ _______ _____ _____    ______ ____

>  <TORSDO>
F 1

$$$$
=
 OpenBabel10262420023D

 27 31  0  0  1  0  0  0  0  0999 V2000
  189.8180  178.2490  138.7220 C   0  0  0  0  0  2  0  0  0  0  0  0
  191.0760  176.0660  138.4980 C   0  0  1  0  0  3  0  0  0  0  0  0
  188.6240  175.2450  137.9270 C   0  0  0  0  0  2  0  0  0  0  0  0
  192.3030  173.5670  135.3710 O   0  0  0  0  0  0  0  0  0  0  0  0
  191.1430  171.5260  134.6620 C   0  0  0  0  0  1  0  0  0  0  0  0
  192.1490  176.6750  137.5700 C   0  0  0  0  0  2  0  0  0  0  0  0
  190.1110  173.3250  136.0480 C   0  0  0  0  0  0  0  0  0  0  0  0
  187.3590  176.6220  134.6290 C   0  0  0  0  0  3  0  0  0  0  0  0
  188.9370  172.8680  136.0720 O   0  0  0  0  0  0  0  0  0  0  0  0
  187.1130  177.9590  134.9490 C   0  0  0  0  0  3  0  0  0  0  0  0
  190.6820  174.2840  136.9260 C   0  0  0  0  0  0  0  0  0  0  0  0
  190.4300  177.0740  139.3420 N   0  0  0  0  0  0  0  0  0  0  0  0
  191.1360  172.8770  135.1930 N   0  0  0  0  0  0  0  0  0  0  0  0
  192.1350  174.2920  136.5880 C   0  0  2  0  0  3  0  0  0  0  0  0
  188.0110  178.1700  138.9020 S   0  0  0  0  0  0  0  0  0  0  0  0
  190.1160  175.1480  137.7750 C   0  0  0  0  0  0  0  0  0  0  0  0
  187.8270  175.7440  135.6090 C   0  0  0  0  0  3  0  0  0  0  0  0
  192.6010  175.7440  136.4210 C   0  0  0  0  0  2  0  0  0  0  0  0
  187.3300  178.4160  136.2510 C   0  0  0  0  0  3  0  0  0  0  0  0
  187.7920  177.5400  137.2400 C   0  0  0  0  0  0  0  0  0  0  0  0
  188.0480  176.1930  136.9170 C   0  0  0  0  0  0  0  0  0  0  0  0
  190.5860  176.6870  143.5770 C   0  0  0  0  0  3  0  0  0  0  0  0
  190.4820  176.9410  140.7790 C   0  0  0  0  0  0  0  0  0  0  0  0
  191.6160  177.3620  141.4940 C   0  0  0  0  0  3  0  0  0  0  0  0
  191.6680  177.2350  142.8850 C   0  0  0  0  0  3  0  0  0  0  0  0
  189.4520  176.2660  142.8790 C   0  0  0  0  0  3  0  0  0  0  0  0
  189.3990  176.3920  141.4890 C   0  0  0  0  0  3  0  0  0  0  0  0
  1 15  1  0  0  0  0
  1 12  1  0  0  0  0
  2  6  1  6  0  0  0
  2 12  1  0  0  0  0
  4 14  1  0  0  0  0
  5 13  1  0  0  0  0
  7  9  2  0  0  0  0
  7 11  1  0  0  0  0
  8 10  2  0  0  0  0
  8 17  1  0  0  0  0
 10 19  1  0  0  0  0
 11 16  2  0  0  0  0
 12 23  1  0  0  0  0
 13  4  1  0  0  0  0
 13  7  1  0  0  0  0
 14 18  1  6  0  0  0
 14 11  1  0  0  0  0
 16  3  1  0  0  0  0
 16  2  1  0  0  0  0
 17 21  2  0  0  0  0
 18  6  1  0  0  0  0
 19 20  2  0  0  0  0
 20 15  1  0  0  0  0
 21 20  1  0  0  0  0
 21  3  1  0  0  0  0
 23 27  2  0  0  0  0
 23 24  1  0  0  0  0
 24 25  2  0  0  0  0
 25 22  1  0  0  0  0
 26 22  2  0  0  0  0
 27 26  1  0  0  0  0
M  END
>  <MODEL>
4

>  <REMARK>
 VINA RESULT:      -5.7      6.089      8.503
  Name = 
  1 active torsions:
  status: ('A' for Active; 'I' for Inactive)
    1  A    between atoms: C_9  and  N_15
                            x       y       z     vdW  Elec       q    Type
                         _______ _______ _______ _____ _____    ______ ____

>  <TORSDO>
F 1

$$$$
=
 OpenBabel10262420023D

 27 31  0  0  1  0  0  0  0  0999 V2000
  182.4770  179.6660  139.4750 C   0  0  0  0  0  2  0  0  0  0  0  0
  183.1730  177.2360  139.5650 C   0  0  1  0  0  3  0  0  0  0  0  0
  180.5390  176.9600  139.5650 C   0  0  0  0  0  2  0  0  0  0  0  0
  183.1990  173.9780  136.9350 O   0  0  0  0  0  0  0  0  0  0  0  0
  181.5160  172.1960  136.8840 C   0  0  0  0  0  1  0  0  0  0  0  0
  184.1460  177.3770  138.3730 C   0  0  0  0  0  2  0  0  0  0  0  0
  181.1840  174.4180  137.9670 C   0  0  0  0  0  0  0  0  0  0  0  0
  178.9690  177.9780  136.2670 C   0  0  0  0  0  3  0  0  0  0  0  0
  179.9680  174.2810  138.2680 O   0  0  0  0  0  0  0  0  0  0  0  0
  179.0810  179.3690  136.3100 C   0  0  0  0  0  3  0  0  0  0  0  0
  182.1070  175.3500  138.5110 C   0  0  0  0  0  0  0  0  0  0  0  0
  182.9360  178.5100  140.2450 N   0  0  0  0  0  0  0  0  0  0  0  0
  181.9000  173.5810  137.0920 N   0  0  0  0  0  0  0  0  0  0  0  0
  183.4320  174.9340  137.9680 C   0  0  2  0  0  3  0  0  0  0  0  0
  180.7670  180.0740  139.9350 S   0  0  0  0  0  0  0  0  0  0  0  0
  181.9170  176.4680  139.2180 C   0  0  0  0  0  0  0  0  0  0  0  0
  179.4250  177.2070  137.3390 C   0  0  0  0  0  3  0  0  0  0  0  0
  184.1540  176.1670  137.4100 C   0  0  0  0  0  2  0  0  0  0  0  0
  179.6430  179.9890  137.4290 C   0  0  0  0  0  3  0  0  0  0  0  0
  180.0950  179.2240  138.5090 C   0  0  0  0  0  0  0  0  0  0  0  0
  179.9910  177.8190  138.4650 C   0  0  0  0  0  0  0  0  0  0  0  0
  183.8310  178.8770  144.3900 C   0  0  0  0  0  3  0  0  0  0  0  0
  183.2420  178.6350  141.6510 C   0  0  0  0  0  0  0  0  0  0  0  0
  182.2200  178.8820  142.5840 C   0  0  0  0  0  3  0  0  0  0  0  0
  182.5130  179.0020  143.9460 C   0  0  0  0  0  3  0  0  0  0  0  0
  184.8560  178.6290  143.4740 C   0  0  0  0  0  3  0  0  0  0  0  0
  184.5630  178.5090  142.1130 C   0  0  0  0  0  3  0  0  0  0  0  0
  1 15  1  0  0  0  0
  1 12  1  0  0  0  0
  2  6  1  6  0  0  0
  2 12  1  0  0  0  0
  4 13  1  0  0  0  0
  4 14  1  0  0  0  0
  5 13  1  0  0  0  0
  7  9  2  0  0  0  0
  7 11  1  0  0  0  0
  8 10  2  0  0  0  0
  8 17  1  0  0  0  0
 10 19  1  0  0  0  0
 11 16  2  0  0  0  0
 12 23  1  0  0  0  0
 13  7  1  0  0  0  0
 14 18  1  6  0  0  0
 14 11  1  0  0  0  0
 16  2  1  0  0  0  0
 16  3  1  0  0  0  0
 17 21  2  0  0  0  0
 18  6  1  0  0  0  0
 19 20  2  0  0  0  0
 20 15  1  0  0  0  0
 21 20  1  0  0  0  0
 21  3  1  0  0  0  0
 23 27  2  0  0  0  0
 23 24  1  0  0  0  0
 24 25  2  0  0  0  0
 25 22  1  0  0  0  0
 26 22  2  0  0  0  0
 27 26  1  0  0  0  0
M  END
>  <MODEL>
5

>  <REMARK>
 VINA RESULT:      -5.6      2.792      5.703
  Name = 
  1 active torsions:
  status: ('A' for Active; 'I' for Inactive)
    1  A    between atoms: C_9  and  N_15
                            x       y       z     vdW  Elec       q    Type
                         _______ _______ _______ _____ _____    ______ ____

>  <TORSDO>
F 1

$$$$
=
 OpenBabel10262420023D

 27 31  0  0  1  0  0  0  0  0999 V2000
  181.1540  177.2660  140.5980 C   0  0  0  0  0  2  0  0  0  0  0  0
  181.2300  179.7610  140.1890 C   0  0  1  0  0  3  0  0  0  0  0  0
  181.9560  178.8810  137.7990 C   0  0  0  0  0  2  0  0  0  0  0  0
  178.9320  182.5750  138.1080 O   0  0  0  0  0  0  0  0  0  0  0  0
  179.4640  183.4590  135.8830 C   0  0  0  0  0  1  0  0  0  0  0  0
  179.8150  179.9890  140.7640 C   0  0  0  0  0  2  0  0  0  0  0  0
  180.4320  181.3680  136.8380 C   0  0  0  0  0  0  0  0  0  0  0  0
  179.1340  177.1200  135.9770 C   0  0  0  0  0  3  0  0  0  0  0  0
  181.0570  180.9860  135.8120 O   0  0  0  0  0  0  0  0  0  0  0  0
  179.0450  175.9150  136.6780 C   0  0  0  0  0  3  0  0  0  0  0  0
  180.6400  180.9510  138.1790 C   0  0  0  0  0  0  0  0  0  0  0  0
  181.8550  178.5440  140.7120 N   0  0  0  0  0  0  0  0  0  0  0  0
  179.4600  182.3850  136.8610 N   0  0  0  0  0  0  0  0  0  0  0  0
  179.7930  181.8660  138.9980 C   0  0  2  0  0  3  0  0  0  0  0  0
  182.0250  176.1890  139.4210 S   0  0  0  0  0  0  0  0  0  0  0  0
  181.2890  179.8970  138.6840 C   0  0  0  0  0  0  0  0  0  0  0  0
  180.0980  178.0660  136.3350 C   0  0  0  0  0  3  0  0  0  0  0  0
  178.9740  181.0340  139.9930 C   0  0  0  0  0  2  0  0  0  0  0  0
  179.9240  175.6540  137.7310 C   0  0  0  0  0  3  0  0  0  0  0  0
  180.8970  176.5940  138.0900 C   0  0  0  0  0  0  0  0  0  0  0  0
  180.9830  177.8140  137.3900 C   0  0  0  0  0  0  0  0  0  0  0  0
  185.5660  178.8080  142.7800 C   0  0  0  0  0  3  0  0  0  0  0  0
  183.1150  178.6350  141.4120 C   0  0  0  0  0  0  0  0  0  0  0  0
  183.1530  178.6200  142.8170 C   0  0  0  0  0  3  0  0  0  0  0  0
  184.3710  178.7060  143.4970 C   0  0  0  0  0  3  0  0  0  0  0  0
  185.5420  178.8210  141.3840 C   0  0  0  0  0  3  0  0  0  0  0  0
  184.3250  178.7350  140.7030 C   0  0  0  0  0  3  0  0  0  0  0  0
  1 12  1  0  0  0  0
  2 12  1  0  0  0  0
  2  6  1  6  0  0  0
  3 16  1  0  0  0  0
  4 14  1  0  0  0  0
  5 13  1  0  0  0  0
  7 13  1  0  0  0  0
  7 11  1  0  0  0  0
  8 17  2  0  0  0  0
  8 10  1  0  0  0  0
  9  7  2  0  0  0  0
 10 19  2  0  0  0  0
 11 16  2  0  0  0  0
 11 14  1  0  0  0  0
 12 23  1  0  0  0  0
 13  4  1  0  0  0  0
 14 18  1  1  0  0  0
 15  1  1  0  0  0  0
 16  2  1  0  0  0  0
 17 21  1  0  0  0  0
 18  6  1  0  0  0  0
 19 20  1  0  0  0  0
 20 15  1  0  0  0  0
 21  3  1  0  0  0  0
 21 20  2  0  0  0  0
 22 25  1  0  0  0  0
 23 24  1  0  0  0  0
 24 25  2  0  0  0  0
 26 22  2  0  0  0  0
 27 26  1  0  0  0  0
 27 23  2  0  0  0  0
M  END
>  <MODEL>
6

>  <REMARK>
 VINA RESULT:      -5.5      3.458      6.505
  Name = 
  1 active torsions:
  status: ('A' for Active; 'I' for Inactive)
    1  A    between atoms: C_9  and  N_15
                            x       y       z     vdW  Elec       q    Type
                         _______ _______ _______ _____ _____    ______ ____

>  <TORSDO>
F 1

$$$$
=
 OpenBabel10262420023D

 27 31  0  0  1  0  0  0  0  0999 V2000
  183.2360  180.1280  139.0920 C   0  0  0  0  0  2  0  0  0  0  0  0
  184.2550  177.8140  139.0100 C   0  0  1  0  0  3  0  0  0  0  0  0
  181.7350  177.2270  138.4420 C   0  0  0  0  0  2  0  0  0  0  0  0
  185.2430  175.0270  136.0460 O   0  0  0  0  0  0  0  0  0  0  0  0
  183.8800  173.0840  135.4290 C   0  0  0  0  0  1  0  0  0  0  0  0
  185.3980  178.2530  138.0690 C   0  0  0  0  0  2  0  0  0  0  0  0
  183.0300  175.0580  136.6970 C   0  0  0  0  0  0  0  0  0  0  0  0
  180.6630  178.5440  135.0520 C   0  0  0  0  0  3  0  0  0  0  0  0
  181.8130  174.7300  136.7260 O   0  0  0  0  0  0  0  0  0  0  0  0
  180.5590  179.9160  135.2940 C   0  0  0  0  0  3  0  0  0  0  0  0
  183.6900  175.9980  137.5310 C   0  0  0  0  0  0  0  0  0  0  0  0
  183.7110  178.9310  139.7860 N   0  0  0  0  0  0  0  0  0  0  0  0
  184.0110  174.4570  135.8850 N   0  0  0  0  0  0  0  0  0  0  0  0
  185.1390  175.8330  137.2190 C   0  0  2  0  0  3  0  0  0  0  0  0
  181.4280  180.2510  139.2450 S   0  0  0  0  0  0  0  0  0  0  0  0
  183.2110  176.9640  138.3210 C   0  0  0  0  0  0  0  0  0  0  0  0
  181.0240  177.6780  136.0870 C   0  0  0  0  0  3  0  0  0  0  0  0
  185.7610  177.2150  136.9800 C   0  0  0  0  0  2  0  0  0  0  0  0
  180.8080  180.4190  136.5720 C   0  0  0  0  0  3  0  0  0  0  0  0
  181.1630  179.5560  137.6160 C   0  0  0  0  0  0  0  0  0  0  0  0
  181.2770  178.1730  137.3720 C   0  0  0  0  0  0  0  0  0  0  0  0
  183.7670  178.7590  144.0380 C   0  0  0  0  0  3  0  0  0  0  0  0
  183.7320  178.8740  141.2290 C   0  0  0  0  0  0  0  0  0  0  0  0
  182.5420  178.6840  141.9520 C   0  0  0  0  0  3  0  0  0  0  0  0
  182.5600  178.6280  143.3490 C   0  0  0  0  0  3  0  0  0  0  0  0
  184.9570  178.9460  143.3310 C   0  0  0  0  0  3  0  0  0  0  0  0
  184.9400  179.0030  141.9350 C   0  0  0  0  0  3  0  0  0  0  0  0
  1 15  1  0  0  0  0
  1 12  1  0  0  0  0
  2  6  1  6  0  0  0
  2 12  1  0  0  0  0
  4 14  1  0  0  0  0
  5 13  1  0  0  0  0
  7  9  2  0  0  0  0
  7 11  1  0  0  0  0
  8 10  2  0  0  0  0
  8 17  1  0  0  0  0
 10 19  1  0  0  0  0
 11 16  2  0  0  0  0
 12 23  1  0  0  0  0
 13  4  1  0  0  0  0
 13  7  1  0  0  0  0
 14 18  1  6  0  0  0
 14 11  1  0  0  0  0
 16  3  1  0  0  0  0
 16  2  1  0  0  0  0
 17 21  2  0  0  0  0
 18  6  1  0  0  0  0
 19 20  2  0  0  0  0
 20 15  1  0  0  0  0
 21 20  1  0  0  0  0
 21  3  1  0  0  0  0
 23 27  2  0  0  0  0
 23 24  1  0  0  0  0
 24 25  2  0  0  0  0
 25 22  1  0  0  0  0
 26 22  2  0  0  0  0
 27 26  1  0  0  0  0
M  END
>  <MODEL>
7

>  <REMARK>
 VINA RESULT:      -5.4      2.526      5.291
  Name = 
  1 active torsions:
  status: ('A' for Active; 'I' for Inactive)
    1  A    between atoms: C_9  and  N_15
                            x       y       z     vdW  Elec       q    Type
                         _______ _______ _______ _____ _____    ______ ____

>  <TORSDO>
F 1

$$$$
=
 OpenBabel10262420023D

 27 31  0  0  1  0  0  0  0  0999 V2000
  189.6610  175.5060  134.6250 C   0  0  0  0  0  2  0  0  0  0  0  0
  188.2510  176.1760  136.6150 C   0  0  1  0  0  3  0  0  0  0  0  0
  190.1980  174.8710  137.8490 C   0  0  0  0  0  2  0  0  0  0  0  0
  188.5340  178.9300  139.7550 O   0  0  0  0  0  0  0  0  0  0  0  0
  189.2610  178.3960  142.0360 C   0  0  0  0  0  1  0  0  0  0  0  0
  188.1820  177.6560  136.1810 C   0  0  0  0  0  2  0  0  0  0  0  0
  189.6920  176.9560  140.0450 C   0  0  0  0  0  0  0  0  0  0  0  0
  193.5210  176.6860  137.6510 C   0  0  0  0  0  3  0  0  0  0  0  0
  190.4260  176.1010  140.6090 O   0  0  0  0  0  0  0  0  0  0  0  0
  193.8820  176.4840  136.3170 C   0  0  0  0  0  3  0  0  0  0  0  0
  189.0020  176.8210  138.8110 C   0  0  0  0  0  0  0  0  0  0  0  0
  188.5030  175.2750  135.4880 N   0  0  0  0  0  0  0  0  0  0  0  0
  189.3210  178.1960  140.5990 N   0  0  0  0  0  0  0  0  0  0  0  0
  188.1250  178.0250  138.7320 C   0  0  2  0  0  3  0  0  0  0  0  0
  190.8780  174.1750  134.8590 S   0  0  0  0  0  0  0  0  0  0  0  0
  189.1500  175.9480  137.8100 C   0  0  0  0  0  0  0  0  0  0  0  0
  192.3340  176.1390  138.1430 C   0  0  0  0  0  3  0  0  0  0  0  0
  188.2820  178.6680  137.3480 C   0  0  0  0  0  2  0  0  0  0  0  0
  193.0590  175.7290  135.4780 C   0  0  0  0  0  3  0  0  0  0  0  0
  191.8720  175.1710  135.9670 C   0  0  0  0  0  0  0  0  0  0  0  0
  191.5010  175.3800  137.3100 C   0  0  0  0  0  0  0  0  0  0  0  0
  185.7190  172.1780  134.6110 C   0  0  0  0  0  3  0  0  0  0  0  0
  187.5570  174.2260  135.1890 C   0  0  0  0  0  0  0  0  0  0  0  0
  187.9580  172.8780  135.2050 C   0  0  0  0  0  3  0  0  0  0  0  0
  187.0440  171.8610  134.9170 C   0  0  0  0  0  3  0  0  0  0  0  0
  185.3070  173.5120  134.5940 C   0  0  0  0  0  3  0  0  0  0  0  0
  186.2200  174.5300  134.8810 C   0  0  0  0  0  3  0  0  0  0  0  0
  1 15  1  0  0  0  0
  1 12  1  0  0  0  0
  2  6  1  6  0  0  0
  2 16  1  0  0  0  0
  4 13  1  0  0  0  0
  6 18  1  0  0  0  0
  7 13  1  0  0  0  0
  7  9  2  0  0  0  0
  8 17  1  0  0  0  0
 10  8  2  0  0  0  0
 11  7  1  0  0  0  0
 12  2  1  0  0  0  0
 13  5  1  0  0  0  0
 14 18  1  6  0  0  0
 14 11  1  0  0  0  0
 14  4  1  0  0  0  0
 15 20  1  0  0  0  0
 16  3  1  0  0  0  0
 16 11  2  0  0  0  0
 19 20  2  0  0  0  0
 19 10  1  0  0  0  0
 20 21  1  0  0  0  0
 21  3  1  0  0  0  0
 21 17  2  0  0  0  0
 22 25  1  0  0  0  0
 23 24  1  0  0  0  0
 23 12  1  0  0  0  0
 25 24  2  0  0  0  0
 26 22  2  0  0  0  0
 26 27  1  0  0  0  0
 27 23  2  0  0  0  0
M  END
>  <MODEL>
8

>  <REMARK>
 VINA RESULT:      -5.0      6.033      8.720
  Name = 
  1 active torsions:
  status: ('A' for Active; 'I' for Inactive)
    1  A    between atoms: C_9  and  N_15
                            x       y       z     vdW  Elec       q    Type
                         _______ _______ _______ _____ _____    ______ ____

>  <TORSDO>
F 1

$$$$
=
 OpenBabel10262420023D

 27 31  0  0  1  0  0  0  0  0999 V2000
  183.7570  177.4550  138.9990 C   0  0  0  0  0  2  0  0  0  0  0  0
  184.6490  176.3050  136.9300 C   0  0  1  0  0  3  0  0  0  0  0  0
  186.4100  178.2690  137.1600 C   0  0  0  0  0  2  0  0  0  0  0  0
  187.9340  173.8950  135.9670 O   0  0  0  0  0  0  0  0  0  0  0  0
  189.9920  174.6830  134.8900 C   0  0  0  0  0  1  0  0  0  0  0  0
  184.6410  174.9100  137.5930 C   0  0  0  0  0  2  0  0  0  0  0  0
  188.3390  176.1640  136.0290 C   0  0  0  0  0  0  0  0  0  0  0  0
  188.6360  177.8790  140.2050 C   0  0  0  0  0  3  0  0  0  0  0  0
  188.9900  177.2410  135.9460 O   0  0  0  0  0  0  0  0  0  0  0  0
  187.7610  178.1960  141.2460 C   0  0  0  0  0  3  0  0  0  0  0  0
  186.9490  176.0140  136.2730 C   0  0  0  0  0  0  0  0  0  0  0  0
  183.6970  177.2250  137.5560 N   0  0  0  0  0  0  0  0  0  0  0  0
  188.8620  174.8820  135.7810 N   0  0  0  0  0  0  0  0  0  0  0  0
  186.6780  174.5640  136.0510 C   0  0  2  0  0  3  0  0  0  0  0  0
  184.3130  179.1540  139.3290 S   0  0  0  0  0  0  0  0  0  0  0  0
  186.0410  176.8700  136.7530 C   0  0  0  0  0  0  0  0  0  0  0  0
  188.1930  177.9280  138.8810 C   0  0  0  0  0  3  0  0  0  0  0  0
  185.8550  174.0230  137.2280 C   0  0  0  0  0  2  0  0  0  0  0  0
  186.4450  178.5690  140.9620 C   0  0  0  0  0  3  0  0  0  0  0  0
  185.9970  178.6280  139.6370 C   0  0  0  0  0  0  0  0  0  0  0  0
  186.8760  178.3000  138.5860 C   0  0  0  0  0  0  0  0  0  0  0  0
  180.6270  178.9890  135.1930 C   0  0  0  0  0  3  0  0  0  0  0  0
  182.6550  177.8250  136.7550 C   0  0  0  0  0  0  0  0  0  0  0  0
  182.5980  177.5960  135.3700 C   0  0  0  0  0  3  0  0  0  0  0  0
  181.5910  178.1750  134.5940 C   0  0  0  0  0  3  0  0  0  0  0  0
  180.6710  179.2240  136.5700 C   0  0  0  0  0  3  0  0  0  0  0  0
  181.6780  178.6450  137.3460 C   0  0  0  0  0  3  0  0  0  0  0  0
  1 15  1  0  0  0  0
  2 12  1  0  0  0  0
  2  6  1  1  0  0  0
  3 21  1  0  0  0  0
  4 14  1  0  0  0  0
  5 13  1  0  0  0  0
  7 11  1  0  0  0  0
  8 10  1  0  0  0  0
  9  7  2  0  0  0  0
 11 16  2  0  0  0  0
 12  1  1  0  0  0  0
 13  4  1  0  0  0  0
 13  7  1  0  0  0  0
 14 11  1  0  0  0  0
 14 18  1  1  0  0  0
 15 20  1  0  0  0  0
 16  2  1  0  0  0  0
 16  3  1  0  0  0  0
 17  8  2  0  0  0  0
 18  6  1  0  0  0  0
 19 10  2  0  0  0  0
 20 19  1  0  0  0  0
 21 17  1  0  0  0  0
 21 20  2  0  0  0  0
 22 26  1  0  0  0  0
 23 27  1  0  0  0  0
 23 12  1  0  0  0  0
 24 23  2  0  0  0  0
 25 22  2  0  0  0  0
 25 24  1  0  0  0  0
 26 27  2  0  0  0  0
M  END
>  <MODEL>
9

>  <REMARK>
 VINA RESULT:      -4.9      2.956      4.049
  Name = 
  1 active torsions:
  status: ('A' for Active; 'I' for Inactive)
    1  A    between atoms: C_9  and  N_15
                            x       y       z     vdW  Elec       q    Type
                         _______ _______ _______ _____ _____    ______ ____

>  <TORSDO>
F 1

$$$$
