=
 OpenBabel10252415053D

 34 39  0  0  1  0  0  0  0  0999 V2000
  187.9580  177.4280  145.5210 C   0  0  0  0  0  0  0  0  0  0  0  0
  185.8160  178.5020  146.0150 C   0  0  0  0  0  0  0  0  0  0  0  0
  186.3390  177.7240  143.7640 C   0  0  0  0  0  0  0  0  0  0  0  0
  184.4500  178.1930  142.0380 C   0  0  2  0  0  3  0  0  0  0  0  0
  187.4650  178.1960  147.7670 C   0  0  0  0  0  3  0  0  0  0  0  0
  186.2070  178.6540  147.3480 C   0  0  0  0  0  3  0  0  0  0  0  0
  184.1610  178.7920  144.2630 C   0  0  0  0  0  0  0  0  0  0  0  0
  186.7020  177.8870  145.1050 C   0  0  0  0  0  0  0  0  0  0  0  0
  183.1120  178.8070  142.1710 N   0  0  0  0  0  2  0  0  0  0  0  0
  188.3390  177.5840  146.8570 C   0  0  0  0  0  3  0  0  0  0  0  0
  188.4150  176.6870  143.3190 C   0  0  0  0  0  3  0  0  0  0  0  0
  188.7890  176.8390  144.6220 N   0  0  0  0  0  0  0  0  0  0  0  0
  184.4880  178.9700  145.5510 C   0  0  0  0  0  3  0  0  0  0  0  0
  182.9110  179.1810  143.5820 C   0  0  1  0  0  3  0  0  0  0  0  0
  185.0560  178.2090  143.3510 N   0  0  0  0  0  0  0  0  0  0  0  0
  187.1980  177.1280  142.8950 N   0  0  0  0  0  0  0  0  0  0  0  0
  181.7220  178.4110  144.1360 C   0  0  0  0  0  2  0  0  0  0  0  0
  180.4230  178.9950  143.6170 C   0  0  0  0  0  2  0  0  0  0  0  0
  179.6960  177.9540  142.7940 C   0  0  0  0  0  2  0  0  0  0  0  0
  179.9400  178.1960  141.3820 N   0  0  0  0  0  2  0  0  0  0  0  0
  180.9360  176.4930  140.1090 O   0  0  0  0  0  1  0  0  0  0  0  0
  179.7390  176.9310  140.6850 C   0  0  1  0  0  3  0  0  0  0  0  0
  179.1800  175.9480  141.5320 O   0  0  0  0  0  0  0  0  0  0  0  0
  179.3250  173.5980  141.9070 C   0  0  0  0  0  1  0  0  0  0  0  0
  179.2390  174.7060  140.8800 C   0  0  0  0  0  2  0  0  0  0  0  0
  185.2920  179.0070  141.0660 C   0  0  0  0  0  2  0  0  0  0  0  0
  185.9620  176.9240  136.8010 C   0  0  0  0  0  3  0  0  0  0  0  0
  186.8740  177.5480  137.5880 C   0  0  0  0  0  3  0  0  0  0  0  0
  184.3930  178.0790  138.9850 C   0  0  1  0  0  3  0  0  0  0  0  0
  186.5440  178.4300  138.6740 N   0  0  0  0  0  2  0  0  0  0  0  0
  183.6560  177.8900  137.7000 C   0  0  0  0  0  2  0  0  0  0  0  0
  185.3380  179.1270  138.5820 N   0  0  2  0  0  0  0  0  0  0  0  0
  184.5070  179.2880  139.7910 C   0  0  2  0  0  3  0  0  0  0  0  0
  184.4370  176.8100  136.9300 C   0  0  0  0  0  2  0  0  0  0  0  0
  1 10  2  0  0  0  0
  2  6  1  0  0  0  0
  3  8  1  0  0  0  0
  4 26  1  6  0  0  0
  4  9  1  0  0  0  0
  4 15  1  0  0  0  0
  6  5  2  0  0  0  0
  7 13  2  0  0  0  0
  8  1  1  0  0  0  0
  8  2  2  0  0  0  0
  9 14  1  0  0  0  0
 10  5  1  0  0  0  0
 11 12  2  0  0  0  0
 12  1  1  0  0  0  0
 13  2  1  0  0  0  0
 14 17  1  1  0  0  0
 14  7  1  0  0  0  0
 15  3  1  0  0  0  0
 15  7  1  0  0  0  0
 16 11  1  0  0  0  0
 16  3  2  0  0  0  0
 18 17  1  0  0  0  0
 19 18  1  0  0  0  0
 20 19  1  0  0  0  0
 22 21  1  1  0  0  0
 22 20  1  0  0  0  0
 22 23  1  0  0  0  0
 25 23  1  0  0  0  0
 25 24  1  0  0  0  0
 27 34  1  0  0  0  0
 27 28  2  0  0  0  0
 28 30  1  0  0  0  0
 29 31  1  6  0  0  0
 29 33  1  0  0  0  0
 32 30  1  1  0  0  0
 32 29  1  0  0  0  0
 32 33  1  0  0  0  0
 33 26  1  1  0  0  0
 34 31  1  0  0  0  0
M  END
>  <MODEL>
1

>  <REMARK>
 VINA RESULT:      -8.9      0.000      0.000
  Name = 
  9 active torsions:
  status: ('A' for Active; 'I' for Inactive)
    1  A    between atoms: C_3  and  C_13
    2  A    between atoms: C_3  and  C_17
    3  A    between atoms: C_5  and  C_26
    4  A    between atoms: C_13  and  N_33
    5  A    between atoms: C_14  and  O_20
    6  A    between atoms: C_17  and  C_29
    7  A    between atoms: O_20  and  C_34
    8  A    between atoms: C_26  and  C_28
    9  A    between atoms: N_33  and  C_34
                            x       y       z     vdW  Elec       q    Type
                         _______ _______ _______ _____ _____    ______ ____

>  <TORSDO>
F 9

$$$$
=
 OpenBabel10252415053D

 34 39  0  0  1  0  0  0  0  0999 V2000
  184.1970  178.8420  142.4390 C   0  0  0  0  0  0  0  0  0  0  0  0
  186.0130  178.1730  143.9360 C   0  0  0  0  0  0  0  0  0  0  0  0
  186.4150  178.5250  141.5580 C   0  0  0  0  0  0  0  0  0  0  0  0
  188.8780  178.0840  140.8450 C   0  0  2  0  0  3  0  0  0  0  0  0
  183.7690  178.4930  144.7990 C   0  0  0  0  0  3  0  0  0  0  0  0
  185.1160  178.1650  145.0090 C   0  0  0  0  0  3  0  0  0  0  0  0
  188.2600  177.8690  143.0730 C   0  0  0  0  0  0  0  0  0  0  0  0
  185.5420  178.5120  142.6500 C   0  0  0  0  0  0  0  0  0  0  0  0
  190.0800  177.6960  141.6110 N   0  0  0  0  0  2  0  0  0  0  0  0
  183.3090  178.8310  143.5180 C   0  0  0  0  0  3  0  0  0  0  0  0
  184.6430  179.1740  140.1370 C   0  0  0  0  0  3  0  0  0  0  0  0
  183.7740  179.1650  141.1880 N   0  0  0  0  0  0  0  0  0  0  0  0
  187.4430  177.8380  144.1350 C   0  0  0  0  0  3  0  0  0  0  0  0
  189.7050  177.5670  143.0310 C   0  0  1  0  0  3  0  0  0  0  0  0
  187.7850  178.1750  141.7880 N   0  0  0  0  0  0  0  0  0  0  0  0
  185.9540  178.8560  140.3220 N   0  0  0  0  0  0  0  0  0  0  0  0
  190.4990  178.5740  143.8490 C   0  0  0  0  0  2  0  0  0  0  0  0
  191.6810  177.9010  144.5170 C   0  0  0  0  0  2  0  0  0  0  0  0
  191.2840  176.5080  144.9580 C   0  0  0  0  0  2  0  0  0  0  0  0
  192.0480  176.1380  146.1370 N   0  0  0  0  0  2  0  0  0  0  0  0
  191.7820  177.3250  148.1450 O   0  0  0  0  0  1  0  0  0  0  0  0
  191.1970  176.3800  147.2970 C   0  0  1  0  0  3  0  0  0  0  0  0
  189.8900  176.7610  146.9180 O   0  0  0  0  0  0  0  0  0  0  0  0
  187.8770  177.7110  147.7690 C   0  0  0  0  0  1  0  0  0  0  0  0
  189.3850  177.6500  147.8800 C   0  0  0  0  0  2  0  0  0  0  0  0
  188.5750  177.0230  139.7980 C   0  0  0  0  0  2  0  0  0  0  0  0
  186.8080  176.5120  135.3700 C   0  0  0  0  0  3  0  0  0  0  0  0
  186.8710  175.5920  136.3650 C   0  0  0  0  0  3  0  0  0  0  0  0
  188.3530  177.8110  137.4890 C   0  0  1  0  0  3  0  0  0  0  0  0
  187.7050  175.7080  137.5310 N   0  0  0  0  0  2  0  0  0  0  0  0
  188.6390  178.2910  136.1040 C   0  0  0  0  0  2  0  0  0  0  0  0
  188.8820  176.4470  137.3980 N   0  0  2  0  0  0  0  0  0  0  0  0
  189.2970  177.3420  138.4940 C   0  0  2  0  0  3  0  0  0  0  0  0
  187.3950  177.9260  135.2740 C   0  0  0  0  0  2  0  0  0  0  0  0
  1  8  1  0  0  0  0
  1 10  2  0  0  0  0
  2 13  1  0  0  0  0
  2  6  1  0  0  0  0
  3 15  1  0  0  0  0
  3  8  1  0  0  0  0
  4 26  1  6  0  0  0
  4  9  1  0  0  0  0
  4 15  1  0  0  0  0
  5  6  2  0  0  0  0
  7 13  2  0  0  0  0
  8  2  2  0  0  0  0
  9 14  1  0  0  0  0
 10  5  1  0  0  0  0
 11 16  1  0  0  0  0
 11 12  2  0  0  0  0
 12  1  1  0  0  0  0
 14  7  1  0  0  0  0
 14 17  1  1  0  0  0
 15  7  1  0  0  0  0
 16  3  2  0  0  0  0
 17 18  1  0  0  0  0
 18 19  1  0  0  0  0
 19 20  1  0  0  0  0
 20 22  1  0  0  0  0
 22 21  1  1  0  0  0
 23 22  1  0  0  0  0
 23 25  1  0  0  0  0
 24 25  1  0  0  0  0
 27 28  2  0  0  0  0
 28 30  1  0  0  0  0
 29 31  1  6  0  0  0
 29 33  1  0  0  0  0
 32 29  1  0  0  0  0
 32 30  1  1  0  0  0
 32 33  1  0  0  0  0
 33 26  1  1  0  0  0
 34 27  1  0  0  0  0
 34 31  1  0  0  0  0
M  END
>  <MODEL>
2

>  <REMARK>
 VINA RESULT:      -8.6      3.808      7.289
  Name = 
  9 active torsions:
  status: ('A' for Active; 'I' for Inactive)
    1  A    between atoms: C_3  and  C_13
    2  A    between atoms: C_3  and  C_17
    3  A    between atoms: C_5  and  C_26
    4  A    between atoms: C_13  and  N_33
    5  A    between atoms: C_14  and  O_20
    6  A    between atoms: C_17  and  C_29
    7  A    between atoms: O_20  and  C_34
    8  A    between atoms: C_26  and  C_28
    9  A    between atoms: N_33  and  C_34
                            x       y       z     vdW  Elec       q    Type
                         _______ _______ _______ _____ _____    ______ ____

>  <TORSDO>
F 9

$$$$
=
 OpenBabel10252415053D

 34 39  0  0  1  0  0  0  0  0999 V2000
  185.3840  178.4920  145.6940 C   0  0  0  0  0  0  0  0  0  0  0  0
  187.2190  177.7350  144.2640 C   0  0  0  0  0  0  0  0  0  0  0  0
  185.2170  178.7430  143.3060 C   0  0  0  0  0  0  0  0  0  0  0  0
  185.2580  178.8680  140.7070 C   0  0  2  0  0  3  0  0  0  0  0  0
  187.3620  177.4880  146.6730 C   0  0  0  0  0  3  0  0  0  0  0  0
  187.9220  177.3190  145.3980 C   0  0  0  0  0  3  0  0  0  0  0  0
  187.0800  177.9970  141.8550 C   0  0  0  0  0  0  0  0  0  0  0  0
  185.9450  178.3210  144.4220 C   0  0  0  0  0  0  0  0  0  0  0  0
  186.2760  178.4760  139.7100 N   0  0  0  0  0  2  0  0  0  0  0  0
  186.0960  178.0730  146.8220 C   0  0  0  0  0  3  0  0  0  0  0  0
  183.4630  179.4690  144.7130 C   0  0  0  0  0  3  0  0  0  0  0  0
  184.1550  179.0610  145.8150 N   0  0  0  0  0  0  0  0  0  0  0  0
  187.7950  177.5740  142.9070 C   0  0  0  0  0  3  0  0  0  0  0  0
  187.4440  177.9320  140.4260 C   0  0  1  0  0  3  0  0  0  0  0  0
  185.7990  178.5510  142.0110 N   0  0  0  0  0  0  0  0  0  0  0  0
  183.9910  179.3090  143.4680 N   0  0  0  0  0  0  0  0  0  0  0  0
  188.6570  178.8000  140.1300 C   0  0  0  0  0  2  0  0  0  0  0  0
  189.6800  178.0250  139.3220 C   0  0  0  0  0  2  0  0  0  0  0  0
  190.8230  177.6100  140.2230 C   0  0  0  0  0  2  0  0  0  0  0  0
  190.5380  176.3050  140.7960 N   0  0  0  0  0  2  0  0  0  0  0  0
  190.4370  175.2050  142.8680 O   0  0  0  0  0  1  0  0  0  0  0  0
  190.5950  176.4480  142.2460 C   0  0  1  0  0  3  0  0  0  0  0  0
  191.7810  177.0910  142.6640 O   0  0  0  0  0  0  0  0  0  0  0  0
  191.0970  179.0170  143.8900 C   0  0  0  0  0  1  0  0  0  0  0  0
  191.5900  177.5880  143.9630 C   0  0  0  0  0  2  0  0  0  0  0  0
  183.9790  178.0790  140.4690 C   0  0  0  0  0  2  0  0  0  0  0  0
  179.2800  177.1610  140.7050 C   0  0  0  0  0  3  0  0  0  0  0  0
  180.2570  176.4180  140.1280 C   0  0  0  0  0  3  0  0  0  0  0  0
  181.6820  178.8230  140.8840 C   0  0  1  0  0  3  0  0  0  0  0  0
  181.5690  176.9080  139.8030 N   0  0  0  0  0  2  0  0  0  0  0  0
  180.3890  179.5700  140.8550 C   0  0  0  0  0  2  0  0  0  0  0  0
  181.6860  178.2720  139.5250 N   0  0  2  0  0  0  0  0  0  0  0  0
  182.8540  179.0120  140.0390 C   0  0  2  0  0  3  0  0  0  0  0  0
  179.3200  178.5660  141.3210 C   0  0  0  0  0  2  0  0  0  0  0  0
  1 12  1  0  0  0  0
  1 10  2  0  0  0  0
  2  8  2  0  0  0  0
  2  6  1  0  0  0  0
  3 16  2  0  0  0  0
  3  8  1  0  0  0  0
  4 26  1  6  0  0  0
  4 15  1  0  0  0  0
  5 10  1  0  0  0  0
  6  5  2  0  0  0  0
  7 15  1  0  0  0  0
  7 13  2  0  0  0  0
  8  1  1  0  0  0  0
  9 14  1  0  0  0  0
  9  4  1  0  0  0  0
 11 12  2  0  0  0  0
 13  2  1  0  0  0  0
 14 17  1  1  0  0  0
 14  7  1  0  0  0  0
 15  3  1  0  0  0  0
 16 11  1  0  0  0  0
 18 17  1  0  0  0  0
 18 19  1  0  0  0  0
 19 20  1  0  0  0  0
 20 22  1  0  0  0  0
 22 23  1  0  0  0  0
 22 21  1  1  0  0  0
 23 25  1  0  0  0  0
 24 25  1  0  0  0  0
 27 34  1  0  0  0  0
 28 27  2  0  0  0  0
 29 31  1  6  0  0  0
 30 28  1  0  0  0  0
 31 34  1  0  0  0  0
 32 30  1  1  0  0  0
 32 33  1  0  0  0  0
 32 29  1  0  0  0  0
 33 26  1  1  0  0  0
 33 29  1  0  0  0  0
M  END
>  <MODEL>
3

>  <REMARK>
 VINA RESULT:      -8.4      3.335      6.822
  Name = 
  9 active torsions:
  status: ('A' for Active; 'I' for Inactive)
    1  A    between atoms: C_3  and  C_13
    2  A    between atoms: C_3  and  C_17
    3  A    between atoms: C_5  and  C_26
    4  A    between atoms: C_13  and  N_33
    5  A    between atoms: C_14  and  O_20
    6  A    between atoms: C_17  and  C_29
    7  A    between atoms: O_20  and  C_34
    8  A    between atoms: C_26  and  C_28
    9  A    between atoms: N_33  and  C_34
                            x       y       z     vdW  Elec       q    Type
                         _______ _______ _______ _____ _____    ______ ____

>  <TORSDO>
F 9

$$$$
=
 OpenBabel10252415053D

 34 39  0  0  1  0  0  0  0  0999 V2000
  190.8500  176.4140  137.4080 C   0  0  0  0  0  0  0  0  0  0  0  0
  191.8300  176.9350  139.5890 C   0  0  0  0  0  0  0  0  0  0  0  0
  189.4120  176.8890  139.2800 C   0  0  0  0  0  0  0  0  0  0  0  0
  188.0780  177.4720  141.4370 C   0  0  2  0  0  3  0  0  0  0  0  0
  193.2580  176.4580  137.6870 C   0  0  0  0  0  3  0  0  0  0  0  0
  193.1080  176.7890  139.0420 C   0  0  0  0  0  3  0  0  0  0  0  0
  190.3980  177.3960  141.4940 C   0  0  0  0  0  0  0  0  0  0  0  0
  190.7020  176.7460  138.7620 C   0  0  0  0  0  0  0  0  0  0  0  0
  188.5070  177.7900  142.8150 N   0  0  0  0  0  2  0  0  0  0  0  0
  192.1320  176.2710  136.8710 C   0  0  0  0  0  3  0  0  0  0  0  0
  188.4950  176.3790  137.1630 C   0  0  0  0  0  3  0  0  0  0  0  0
  189.7450  176.2380  136.6370 N   0  0  0  0  0  0  0  0  0  0  0  0
  191.6470  177.2760  141.0200 C   0  0  0  0  0  3  0  0  0  0  0  0
  189.9790  177.7330  142.8680 C   0  0  1  0  0  3  0  0  0  0  0  0
  189.2780  177.2390  140.6630 N   0  0  0  0  0  0  0  0  0  0  0  0
  188.3310  176.7030  138.4760 N   0  0  0  0  0  0  0  0  0  0  0  0
  190.3990  176.6520  143.8510 C   0  0  0  0  0  2  0  0  0  0  0  0
  191.3760  177.2090  144.8680 C   0  0  0  0  0  2  0  0  0  0  0  0
  190.7860  177.0840  146.2550 C   0  0  0  0  0  2  0  0  0  0  0  0
  189.5190  177.7920  146.3080 N   0  0  0  0  0  2  0  0  0  0  0  0
  189.1760  178.2620  148.5830 O   0  0  0  0  0  1  0  0  0  0  0  0
  188.8490  177.3890  147.5400 C   0  0  1  0  0  3  0  0  0  0  0  0
  187.4510  177.2870  147.3680 O   0  0  0  0  0  0  0  0  0  0  0  0
  185.8750  178.8320  146.4670 C   0  0  0  0  0  1  0  0  0  0  0  0
  187.0900  177.9720  146.1960 C   0  0  0  0  0  2  0  0  0  0  0  0
  187.3050  178.6470  140.8570 C   0  0  0  0  0  2  0  0  0  0  0  0
  182.6650  178.8850  139.6760 C   0  0  0  0  0  3  0  0  0  0  0  0
  183.7210  179.4810  139.0690 C   0  0  0  0  0  3  0  0  0  0  0  0
  184.9440  178.3100  141.4190 C   0  0  1  0  0  3  0  0  0  0  0  0
  185.0200  179.6390  139.6660 N   0  0  0  0  0  2  0  0  0  0  0  0
  183.6140  178.3370  142.0960 C   0  0  0  0  0  2  0  0  0  0  0  0
  185.0730  179.7260  141.0590 N   0  0  2  0  0  0  0  0  0  0  0  0
  186.1560  179.0330  141.7810 C   0  0  2  0  0  3  0  0  0  0  0  0
  182.5780  178.0880  140.9840 C   0  0  0  0  0  2  0  0  0  0  0  0
  1  8  1  0  0  0  0
  2 13  1  0  0  0  0
  3 15  1  0  0  0  0
  4 26  1  6  0  0  0
  4  9  1  0  0  0  0
  5  6  2  0  0  0  0
  6  2  1  0  0  0  0
  7 14  1  0  0  0  0
  8  3  1  0  0  0  0
  8  2  2  0  0  0  0
  9 14  1  0  0  0  0
 10  1  2  0  0  0  0
 10  5  1  0  0  0  0
 11 16  1  0  0  0  0
 12 11  2  0  0  0  0
 12  1  1  0  0  0  0
 13  7  2  0  0  0  0
 14 17  1  1  0  0  0
 15  4  1  0  0  0  0
 15  7  1  0  0  0  0
 16  3  2  0  0  0  0
 17 18  1  0  0  0  0
 18 19  1  0  0  0  0
 19 20  1  0  0  0  0
 20 22  1  0  0  0  0
 22 21  1  1  0  0  0
 23 22  1  0  0  0  0
 25 24  1  0  0  0  0
 25 23  1  0  0  0  0
 27 34  1  0  0  0  0
 28 30  1  0  0  0  0
 28 27  2  0  0  0  0
 29 33  1  0  0  0  0
 29 31  1  1  0  0  0
 32 30  1  6  0  0  0
 32 29  1  0  0  0  0
 32 33  1  0  0  0  0
 33 26  1  6  0  0  0
 34 31  1  0  0  0  0
M  END
>  <MODEL>
4

>  <REMARK>
 VINA RESULT:      -8.1      4.005      7.896
  Name = 
  9 active torsions:
  status: ('A' for Active; 'I' for Inactive)
    1  A    between atoms: C_3  and  C_13
    2  A    between atoms: C_3  and  C_17
    3  A    between atoms: C_5  and  C_26
    4  A    between atoms: C_13  and  N_33
    5  A    between atoms: C_14  and  O_20
    6  A    between atoms: C_17  and  C_29
    7  A    between atoms: O_20  and  C_34
    8  A    between atoms: C_26  and  C_28
    9  A    between atoms: N_33  and  C_34
                            x       y       z     vdW  Elec       q    Type
                         _______ _______ _______ _____ _____    ______ ____

>  <TORSDO>
F 9

$$$$
=
 OpenBabel10252415053D

 34 39  0  0  1  0  0  0  0  0999 V2000
  185.0480  178.6610  140.1460 C   0  0  0  0  0  0  0  0  0  0  0  0
  186.3120  178.2060  142.1910 C   0  0  0  0  0  0  0  0  0  0  0  0
  187.4150  178.2410  140.0170 C   0  0  0  0  0  0  0  0  0  0  0  0
  189.9620  177.7210  140.1350 C   0  0  2  0  0  3  0  0  0  0  0  0
  183.9260  178.6270  142.2950 C   0  0  0  0  0  3  0  0  0  0  0  0
  185.1380  178.3360  142.9380 C   0  0  0  0  0  3  0  0  0  0  0  0
  188.7030  177.8010  142.0850 C   0  0  0  0  0  0  0  0  0  0  0  0
  186.2570  178.3690  140.7900 C   0  0  0  0  0  0  0  0  0  0  0  0
  190.8680  177.4450  141.2700 N   0  0  0  0  0  2  0  0  0  0  0  0
  183.8790  178.7890  140.9020 C   0  0  0  0  0  3  0  0  0  0  0  0
  186.1680  178.6870  138.0600 C   0  0  0  0  0  3  0  0  0  0  0  0
  185.0270  178.8130  138.7960 N   0  0  0  0  0  0  0  0  0  0  0  0
  187.6070  177.9070  142.8500 C   0  0  0  0  0  3  0  0  0  0  0  0
  190.0830  177.5040  142.5160 C   0  0  1  0  0  3  0  0  0  0  0  0
  188.6420  177.9310  140.6890 N   0  0  0  0  0  0  0  0  0  0  0  0
  187.3530  178.4020  138.6680 N   0  0  0  0  0  0  0  0  0  0  0  0
  190.6330  178.6140  143.3980 C   0  0  0  0  0  2  0  0  0  0  0  0
  191.6780  178.0670  144.3500 C   0  0  0  0  0  2  0  0  0  0  0  0
  190.9990  177.2510  145.4280 C   0  0  0  0  0  2  0  0  0  0  0  0
  189.7380  177.8770  145.7870 N   0  0  0  0  0  2  0  0  0  0  0  0
  189.1890  176.6580  147.7180 O   0  0  0  0  0  1  0  0  0  0  0  0
  188.8890  176.8400  146.3640 C   0  0  1  0  0  3  0  0  0  0  0  0
  187.5180  177.1160  146.1680 O   0  0  0  0  0  0  0  0  0  0  0  0
  185.7250  178.6080  146.6600 C   0  0  0  0  0  1  0  0  0  0  0  0
  187.1960  178.3010  146.8480 C   0  0  0  0  0  2  0  0  0  0  0  0
  189.9460  176.5290  139.1910 C   0  0  0  0  0  2  0  0  0  0  0  0
  191.0890  174.0050  135.2790 C   0  0  0  0  0  3  0  0  0  0  0  0
  190.2870  173.6440  136.3110 C   0  0  0  0  0  3  0  0  0  0  0  0
  191.3690  176.1680  137.2300 C   0  0  1  0  0  3  0  0  0  0  0  0
  190.2590  174.3010  137.5900 N   0  0  0  0  0  2  0  0  0  0  0  0
  192.5410  175.9680  136.3260 C   0  0  0  0  0  2  0  0  0  0  0  0
  191.4360  174.9260  138.0080 N   0  0  2  0  0  0  0  0  0  0  0  0
  191.3530  176.2340  138.6850 C   0  0  2  0  0  3  0  0  0  0  0  0
  191.9900  175.2330  135.0910 C   0  0  0  0  0  2  0  0  0  0  0  0
  1  8  1  0  0  0  0
  1 10  2  0  0  0  0
  2 13  1  0  0  0  0
  2  6  1  0  0  0  0
  3 15  1  0  0  0  0
  3  8  1  0  0  0  0
  4 26  1  6  0  0  0
  4 15  1  0  0  0  0
  4  9  1  0  0  0  0
  5  6  2  0  0  0  0
  7 14  1  0  0  0  0
  7 13  2  0  0  0  0
  8  2  2  0  0  0  0
  9 14  1  0  0  0  0
 10  5  1  0  0  0  0
 11 16  1  0  0  0  0
 11 12  2  0  0  0  0
 12  1  1  0  0  0  0
 14 17  1  1  0  0  0
 15  7  1  0  0  0  0
 16  3  2  0  0  0  0
 17 18  1  0  0  0  0
 18 19  1  0  0  0  0
 19 20  1  0  0  0  0
 20 22  1  0  0  0  0
 22 21  1  1  0  0  0
 23 22  1  0  0  0  0
 23 25  1  0  0  0  0
 24 25  1  0  0  0  0
 27 28  2  0  0  0  0
 28 30  1  0  0  0  0
 29 31  1  1  0  0  0
 29 32  1  0  0  0  0
 29 33  1  0  0  0  0
 32 30  1  6  0  0  0
 32 33  1  0  0  0  0
 33 26  1  6  0  0  0
 34 27  1  0  0  0  0
 34 31  1  0  0  0  0
M  END
>  <MODEL>
5

>  <REMARK>
 VINA RESULT:      -7.8      4.105      7.615
  Name = 
  9 active torsions:
  status: ('A' for Active; 'I' for Inactive)
    1  A    between atoms: C_3  and  C_13
    2  A    between atoms: C_3  and  C_17
    3  A    between atoms: C_5  and  C_26
    4  A    between atoms: C_13  and  N_33
    5  A    between atoms: C_14  and  O_20
    6  A    between atoms: C_17  and  C_29
    7  A    between atoms: O_20  and  C_34
    8  A    between atoms: C_26  and  C_28
    9  A    between atoms: N_33  and  C_34
                            x       y       z     vdW  Elec       q    Type
                         _______ _______ _______ _____ _____    ______ ____

>  <TORSDO>
F 9

$$$$
=
 OpenBabel10252415053D

 34 39  0  0  1  0  0  0  0  0999 V2000
  189.4460  177.0790  146.1260 C   0  0  0  0  0  0  0  0  0  0  0  0
  187.2660  178.1820  146.2670 C   0  0  0  0  0  0  0  0  0  0  0  0
  188.1760  177.4730  144.1190 C   0  0  0  0  0  0  0  0  0  0  0  0
  186.6370  178.0440  142.1000 C   0  0  2  0  0  3  0  0  0  0  0  0
  188.5660  177.7780  148.2750 C   0  0  0  0  0  3  0  0  0  0  0  0
  187.4120  178.2780  147.6540 C   0  0  0  0  0  3  0  0  0  0  0  0
  185.9600  178.5700  144.2590 C   0  0  0  0  0  0  0  0  0  0  0  0
  188.2920  177.5800  145.5080 C   0  0  0  0  0  0  0  0  0  0  0  0
  185.3070  178.6820  142.0140 N   0  0  0  0  0  2  0  0  0  0  0  0
  189.5820  177.1790  147.5140 C   0  0  0  0  0  3  0  0  0  0  0  0
  190.2810  176.4070  144.0150 C   0  0  0  0  0  3  0  0  0  0  0  0
  190.4170  176.5030  145.3690 N   0  0  0  0  0  0  0  0  0  0  0  0
  186.0510  178.6960  145.5900 C   0  0  0  0  0  3  0  0  0  0  0  0
  184.8600  179.0110  143.3800 C   0  0  1  0  0  3  0  0  0  0  0  0
  186.9960  178.0000  143.5010 N   0  0  0  0  0  0  0  0  0  0  0  0
  189.1690  176.8890  143.3960 N   0  0  0  0  0  0  0  0  0  0  0  0
  183.5790  178.2490  143.6800 C   0  0  0  0  0  2  0  0  0  0  0  0
  182.4860  179.2010  144.1250 C   0  0  0  0  0  2  0  0  0  0  0  0
  181.1450  178.6880  143.6450 C   0  0  0  0  0  2  0  0  0  0  0  0
  180.8900  179.1850  142.3040 N   0  0  0  0  0  2  0  0  0  0  0  0
  179.2700  177.5560  141.8140 O   0  0  0  0  0  1  0  0  0  0  0  0
  180.5400  178.0350  141.4760 C   0  0  1  0  0  3  0  0  0  0  0  0
  180.6330  178.3330  140.0980 O   0  0  0  0  0  0  0  0  0  0  0  0
  182.7950  178.9430  139.3010 C   0  0  0  0  0  1  0  0  0  0  0  0
  181.5040  179.4210  139.9310 C   0  0  0  0  0  2  0  0  0  0  0  0
  187.6530  178.8730  141.3290 C   0  0  0  0  0  2  0  0  0  0  0  0
  187.5600  178.6240  136.5420 C   0  0  0  0  0  3  0  0  0  0  0  0
  186.5270  178.5020  137.4140 C   0  0  0  0  0  3  0  0  0  0  0  0
  188.8140  178.6260  139.1860 C   0  0  1  0  0  3  0  0  0  0  0  0
  186.6760  178.2530  138.8220 N   0  0  0  0  0  2  0  0  0  0  0  0
  189.6760  178.1320  138.0710 C   0  0  0  0  0  2  0  0  0  0  0  0
  187.8150  177.5530  139.2270 N   0  0  2  0  0  0  0  0  0  0  0  0
  188.5170  177.9720  140.4540 C   0  0  2  0  0  3  0  0  0  0  0  0
  189.0710  178.7260  136.7860 C   0  0  0  0  0  2  0  0  0  0  0  0
  1 10  2  0  0  0  0
  2  6  1  0  0  0  0
  3  8  1  0  0  0  0
  4 26  1  6  0  0  0
  4 15  1  0  0  0  0
  6  5  2  0  0  0  0
  7 13  2  0  0  0  0
  8  1  1  0  0  0  0
  8  2  2  0  0  0  0
  9  4  1  0  0  0  0
  9 14  1  0  0  0  0
 10  5  1  0  0  0  0
 11 12  2  0  0  0  0
 12  1  1  0  0  0  0
 13  2  1  0  0  0  0
 14 17  1  1  0  0  0
 14  7  1  0  0  0  0
 15  3  1  0  0  0  0
 15  7  1  0  0  0  0
 16 11  1  0  0  0  0
 16  3  2  0  0  0  0
 17 18  1  0  0  0  0
 19 18  1  0  0  0  0
 20 19  1  0  0  0  0
 22 21  1  6  0  0  0
 22 20  1  0  0  0  0
 23 22  1  0  0  0  0
 24 25  1  0  0  0  0
 25 23  1  0  0  0  0
 27 34  1  0  0  0  0
 27 28  2  0  0  0  0
 28 30  1  0  0  0  0
 29 31  1  6  0  0  0
 29 32  1  0  0  0  0
 29 33  1  0  0  0  0
 32 30  1  1  0  0  0
 32 33  1  0  0  0  0
 33 26  1  1  0  0  0
 34 31  1  0  0  0  0
M  END
>  <MODEL>
6

>  <REMARK>
 VINA RESULT:      -7.8      1.740      2.879
  Name = 
  9 active torsions:
  status: ('A' for Active; 'I' for Inactive)
    1  A    between atoms: C_3  and  C_13
    2  A    between atoms: C_3  and  C_17
    3  A    between atoms: C_5  and  C_26
    4  A    between atoms: C_13  and  N_33
    5  A    between atoms: C_14  and  O_20
    6  A    between atoms: C_17  and  C_29
    7  A    between atoms: O_20  and  C_34
    8  A    between atoms: C_26  and  C_28
    9  A    between atoms: N_33  and  C_34
                            x       y       z     vdW  Elec       q    Type
                         _______ _______ _______ _____ _____    ______ ____

>  <TORSDO>
F 9

$$$$
=
 OpenBabel10252415053D

 34 39  0  0  1  0  0  0  0  0999 V2000
  186.0570  178.2660  145.8670 C   0  0  0  0  0  0  0  0  0  0  0  0
  187.7320  177.6540  144.1910 C   0  0  0  0  0  0  0  0  0  0  0  0
  185.6040  178.6460  143.5330 C   0  0  0  0  0  0  0  0  0  0  0  0
  185.3380  178.9190  140.9590 C   0  0  2  0  0  3  0  0  0  0  0  0
  188.1630  177.2760  146.5480 C   0  0  0  0  0  3  0  0  0  0  0  0
  188.5750  177.1990  145.2100 C   0  0  0  0  0  3  0  0  0  0  0  0
  187.3050  178.0480  141.8350 C   0  0  0  0  0  0  0  0  0  0  0  0
  186.4690  178.1860  144.5300 C   0  0  0  0  0  0  0  0  0  0  0  0
  186.2420  178.6200  139.8290 N   0  0  0  0  0  2  0  0  0  0  0  0
  186.9070  177.8080  146.8770 C   0  0  0  0  0  3  0  0  0  0  0  0
  184.0080  179.2290  145.1740 C   0  0  0  0  0  3  0  0  0  0  0  0
  184.8360  178.7840  146.1620 N   0  0  0  0  0  0  0  0  0  0  0  0
  188.1490  177.5900  142.7700 C   0  0  0  0  0  3  0  0  0  0  0  0
  187.5010  178.0770  140.3720 C   0  0  1  0  0  3  0  0  0  0  0  0
  186.0360  178.5480  142.1700 N   0  0  0  0  0  0  0  0  0  0  0  0
  184.3910  179.1590  143.8690 N   0  0  0  0  0  0  0  0  0  0  0  0
  188.6460  179.0020  139.9910 C   0  0  0  0  0  2  0  0  0  0  0  0
  189.0340  178.7960  138.5400 C   0  0  0  0  0  2  0  0  0  0  0  0
  189.2710  177.3230  138.2860 C   0  0  0  0  0  2  0  0  0  0  0  0
  190.6150  177.1310  137.7690 N   0  0  0  0  0  2  0  0  0  0  0  0
  192.7090  176.3980  138.5380 O   0  0  0  0  0  1  0  0  0  0  0  0
  191.3260  176.2820  138.7170 C   0  0  1  0  0  3  0  0  0  0  0  0
  190.9510  176.5560  140.0510 O   0  0  0  0  0  0  0  0  0  0  0  0
  191.6800  177.5010  142.1140 C   0  0  0  0  0  1  0  0  0  0  0  0
  191.9060  177.4120  140.6210 C   0  0  0  0  0  2  0  0  0  0  0  0
  184.0620  178.1020  140.8230 C   0  0  0  0  0  2  0  0  0  0  0  0
  179.4490  176.8160  140.5970 C   0  0  0  0  0  3  0  0  0  0  0  0
  180.5140  176.2480  139.9790 C   0  0  0  0  0  3  0  0  0  0  0  0
  181.6920  178.5990  141.1920 C   0  0  1  0  0  3  0  0  0  0  0  0
  181.7970  176.8790  139.8230 N   0  0  0  0  0  2  0  0  0  0  0  0
  180.3450  179.2450  141.1910 C   0  0  0  0  0  2  0  0  0  0  0  0
  181.8160  178.2740  139.7670 N   0  0  2  0  0  0  0  0  0  0  0  0
  182.8880  179.0070  140.4670 C   0  0  2  0  0  3  0  0  0  0  0  0
  179.3390  178.1040  141.4240 C   0  0  0  0  0  2  0  0  0  0  0  0
  1 12  1  0  0  0  0
  1 10  2  0  0  0  0
  2  8  2  0  0  0  0
  2  6  1  0  0  0  0
  3 16  2  0  0  0  0
  3  8  1  0  0  0  0
  4 26  1  6  0  0  0
  4 15  1  0  0  0  0
  5 10  1  0  0  0  0
  6  5  2  0  0  0  0
  7 15  1  0  0  0  0
  7 13  2  0  0  0  0
  8  1  1  0  0  0  0
  9 14  1  0  0  0  0
  9  4  1  0  0  0  0
 11 12  2  0  0  0  0
 13  2  1  0  0  0  0
 14 17  1  1  0  0  0
 14  7  1  0  0  0  0
 15  3  1  0  0  0  0
 16 11  1  0  0  0  0
 18 17  1  0  0  0  0
 19 18  1  0  0  0  0
 20 19  1  0  0  0  0
 20 22  1  0  0  0  0
 22 21  1  1  0  0  0
 22 23  1  0  0  0  0
 23 25  1  0  0  0  0
 25 24  1  0  0  0  0
 27 34  1  0  0  0  0
 28 27  2  0  0  0  0
 29 31  1  6  0  0  0
 30 28  1  0  0  0  0
 31 34  1  0  0  0  0
 32 30  1  1  0  0  0
 32 33  1  0  0  0  0
 32 29  1  0  0  0  0
 33 26  1  1  0  0  0
 33 29  1  0  0  0  0
M  END
>  <MODEL>
7

>  <REMARK>
 VINA RESULT:      -7.7      3.458      6.831
  Name = 
  9 active torsions:
  status: ('A' for Active; 'I' for Inactive)
    1  A    between atoms: C_3  and  C_13
    2  A    between atoms: C_3  and  C_17
    3  A    between atoms: C_5  and  C_26
    4  A    between atoms: C_13  and  N_33
    5  A    between atoms: C_14  and  O_20
    6  A    between atoms: C_17  and  C_29
    7  A    between atoms: O_20  and  C_34
    8  A    between atoms: C_26  and  C_28
    9  A    between atoms: N_33  and  C_34
                            x       y       z     vdW  Elec       q    Type
                         _______ _______ _______ _____ _____    ______ ____

>  <TORSDO>
F 9

$$$$
=
 OpenBabel10252415053D

 34 39  0  0  1  0  0  0  0  0999 V2000
  186.2910  178.1040  146.3230 C   0  0  0  0  0  0  0  0  0  0  0  0
  187.9340  177.5610  144.5930 C   0  0  0  0  0  0  0  0  0  0  0  0
  185.7560  178.4850  144.0070 C   0  0  0  0  0  0  0  0  0  0  0  0
  185.4040  178.7680  141.4440 C   0  0  2  0  0  3  0  0  0  0  0  0
  188.4480  177.1800  146.9330 C   0  0  0  0  0  3  0  0  0  0  0  0
  188.8220  177.1270  145.5820 C   0  0  0  0  0  3  0  0  0  0  0  0
  187.4240  177.9570  142.2540 C   0  0  0  0  0  0  0  0  0  0  0  0
  186.6660  178.0480  144.9740 C   0  0  0  0  0  0  0  0  0  0  0  0
  186.2830  178.5070  140.2860 N   0  0  0  0  0  2  0  0  0  0  0  0
  187.1860  177.6680  147.3040 C   0  0  0  0  0  3  0  0  0  0  0  0
  184.1920  179.0030  145.6990 C   0  0  0  0  0  3  0  0  0  0  0  0
  185.0630  178.5790  146.6590 N   0  0  0  0  0  0  0  0  0  0  0  0
  188.3110  177.5210  143.1600 C   0  0  0  0  0  3  0  0  0  0  0  0
  187.5750  178.0030  140.7870 C   0  0  1  0  0  3  0  0  0  0  0  0
  186.1500  178.4110  142.6310 N   0  0  0  0  0  0  0  0  0  0  0  0
  184.5370  178.9550  144.3830 N   0  0  0  0  0  0  0  0  0  0  0  0
  188.6770  178.9680  140.3790 C   0  0  0  0  0  2  0  0  0  0  0  0
  189.0150  178.7980  138.9110 C   0  0  0  0  0  2  0  0  0  0  0  0
  189.1320  177.3240  138.5880 C   0  0  0  0  0  2  0  0  0  0  0  0
  190.3930  177.0760  137.9100 N   0  0  0  0  0  2  0  0  0  0  0  0
  190.5670  176.0040  139.9930 O   0  0  0  0  0  1  0  0  0  0  0  0
  191.1390  176.1200  138.7210 C   0  0  1  0  0  3  0  0  0  0  0  0
  191.2490  174.8640  138.0850 O   0  0  0  0  0  0  0  0  0  0  0  0
  193.2320  175.0430  136.7740 C   0  0  0  0  0  1  0  0  0  0  0  0
  191.7180  175.0620  136.7770 C   0  0  0  0  0  2  0  0  0  0  0  0
  184.1520  177.9090  141.3400 C   0  0  0  0  0  2  0  0  0  0  0  0
  180.2270  180.4130  140.1970 C   0  0  0  0  0  3  0  0  0  0  0  0
  180.3740  179.4660  141.1560 C   0  0  0  0  0  3  0  0  0  0  0  0
  182.9220  179.3500  139.7860 C   0  0  1  0  0  3  0  0  0  0  0  0
  181.4650  178.5310  141.2180 N   0  0  0  0  0  2  0  0  0  0  0  0
  182.2680  179.9180  138.5700 C   0  0  0  0  0  2  0  0  0  0  0  0
  182.0680  178.1790  140.0090 N   0  0  2  0  0  0  0  0  0  0  0  0
  183.5350  178.0380  139.9520 C   0  0  2  0  0  3  0  0  0  0  0  0
  181.1860  180.8790  139.0930 C   0  0  0  0  0  2  0  0  0  0  0  0
  1 12  1  0  0  0  0
  1 10  2  0  0  0  0
  2  8  2  0  0  0  0
  2  6  1  0  0  0  0
  3 16  2  0  0  0  0
  3  8  1  0  0  0  0
  4 26  1  6  0  0  0
  4 15  1  0  0  0  0
  5 10  1  0  0  0  0
  6  5  2  0  0  0  0
  7 15  1  0  0  0  0
  7 13  2  0  0  0  0
  8  1  1  0  0  0  0
  9 14  1  0  0  0  0
  9  4  1  0  0  0  0
 11 12  2  0  0  0  0
 13  2  1  0  0  0  0
 14 17  1  1  0  0  0
 14  7  1  0  0  0  0
 15  3  1  0  0  0  0
 16 11  1  0  0  0  0
 18 17  1  0  0  0  0
 19 18  1  0  0  0  0
 20 19  1  0  0  0  0
 20 22  1  0  0  0  0
 22 21  1  1  0  0  0
 23 22  1  0  0  0  0
 24 25  1  0  0  0  0
 25 23  1  0  0  0  0
 27 28  2  0  0  0  0
 28 30  1  0  0  0  0
 29 31  1  6  0  0  0
 29 33  1  0  0  0  0
 29 32  1  0  0  0  0
 31 34  1  0  0  0  0
 32 30  1  1  0  0  0
 33 32  1  0  0  0  0
 33 26  1  1  0  0  0
 34 27  1  0  0  0  0
M  END
>  <MODEL>
8

>  <REMARK>
 VINA RESULT:      -7.7      3.569      6.764
  Name = 
  9 active torsions:
  status: ('A' for Active; 'I' for Inactive)
    1  A    between atoms: C_3  and  C_13
    2  A    between atoms: C_3  and  C_17
    3  A    between atoms: C_5  and  C_26
    4  A    between atoms: C_13  and  N_33
    5  A    between atoms: C_14  and  O_20
    6  A    between atoms: C_17  and  C_29
    7  A    between atoms: O_20  and  C_34
    8  A    between atoms: C_26  and  C_28
    9  A    between atoms: N_33  and  C_34
                            x       y       z     vdW  Elec       q    Type
                         _______ _______ _______ _____ _____    ______ ____

>  <TORSDO>
F 9

$$$$
=
 OpenBabel10252415053D

 34 39  0  0  1  0  0  0  0  0999 V2000
  186.9940  177.9410  146.8240 C   0  0  0  0  0  0  0  0  0  0  0  0
  188.3950  177.2840  144.9290 C   0  0  0  0  0  0  0  0  0  0  0  0
  186.2590  178.4040  144.5780 C   0  0  0  0  0  0  0  0  0  0  0  0
  185.6710  178.7570  142.0680 C   0  0  2  0  0  3  0  0  0  0  0  0
  189.1120  176.8230  147.2000 C   0  0  0  0  0  3  0  0  0  0  0  0
  189.3380  176.7580  145.8170 C   0  0  0  0  0  3  0  0  0  0  0  0
  187.6840  177.7600  142.6580 C   0  0  0  0  0  0  0  0  0  0  0  0
  187.2210  177.8730  145.4430 C   0  0  0  0  0  0  0  0  0  0  0  0
  186.4000  178.4390  140.8230 N   0  0  0  0  0  2  0  0  0  0  0  0
  187.9430  177.4130  147.7030 C   0  0  0  0  0  3  0  0  0  0  0  0
  184.9290  179.0300  146.4280 C   0  0  0  0  0  3  0  0  0  0  0  0
  185.8530  178.5160  147.2890 N   0  0  0  0  0  0  0  0  0  0  0  0
  188.6170  177.2340  143.4640 C   0  0  0  0  0  3  0  0  0  0  0  0
  187.6860  177.8160  141.1830 C   0  0  1  0  0  3  0  0  0  0  0  0
  186.5010  178.3180  143.1690 N   0  0  0  0  0  0  0  0  0  0  0  0
  185.1310  178.9730  145.0820 N   0  0  0  0  0  0  0  0  0  0  0  0
  188.8220  178.6870  140.6690 C   0  0  0  0  0  2  0  0  0  0  0  0
  189.4960  178.0330  139.4790 C   0  0  0  0  0  2  0  0  0  0  0  0
  189.0040  178.6820  138.2030 C   0  0  0  0  0  2  0  0  0  0  0  0
  188.3110  177.6940  137.3940 N   0  0  0  0  0  2  0  0  0  0  0  0
  187.0010  177.8980  135.4560 O   0  0  0  0  0  1  0  0  0  0  0  0
  187.1820  178.3670  136.7620 C   0  0  1  0  0  3  0  0  0  0  0  0
  186.0010  178.2430  137.5270 O   0  0  0  0  0  0  0  0  0  0  0  0
  184.8020  176.1820  137.5120 C   0  0  0  0  0  1  0  0  0  0  0  0
  185.0690  177.4890  136.7960 C   0  0  0  0  0  2  0  0  0  0  0  0
  184.3440  178.0130  142.0880 C   0  0  0  0  0  2  0  0  0  0  0  0
  180.4770  180.1330  140.2070 C   0  0  0  0  0  3  0  0  0  0  0  0
  180.5710  179.4130  141.3530 C   0  0  0  0  0  3  0  0  0  0  0  0
  183.2030  179.0670  140.1940 C   0  0  1  0  0  3  0  0  0  0  0  0
  181.6640  178.5360  141.6770 N   0  0  0  0  0  2  0  0  0  0  0  0
  182.6220  179.3510  138.8480 C   0  0  0  0  0  2  0  0  0  0  0  0
  182.3460  177.9500  140.6080 N   0  0  2  0  0  0  0  0  0  0  0  0
  183.8150  177.8330  140.6710 C   0  0  2  0  0  3  0  0  0  0  0  0
  181.5000  180.3770  139.0900 C   0  0  0  0  0  2  0  0  0  0  0  0
  1 12  1  0  0  0  0
  1 10  2  0  0  0  0
  2  8  2  0  0  0  0
  2  6  1  0  0  0  0
  3 16  2  0  0  0  0
  3  8  1  0  0  0  0
  4 26  1  6  0  0  0
  4 15  1  0  0  0  0
  5 10  1  0  0  0  0
  6  5  2  0  0  0  0
  7 15  1  0  0  0  0
  7 13  2  0  0  0  0
  8  1  1  0  0  0  0
  9 14  1  0  0  0  0
  9  4  1  0  0  0  0
 11 12  2  0  0  0  0
 13  2  1  0  0  0  0
 14 17  1  1  0  0  0
 14  7  1  0  0  0  0
 15  3  1  0  0  0  0
 16 11  1  0  0  0  0
 18 17  1  0  0  0  0
 19 18  1  0  0  0  0
 20 19  1  0  0  0  0
 22 21  1  6  0  0  0
 22 20  1  0  0  0  0
 22 23  1  0  0  0  0
 25 24  1  0  0  0  0
 25 23  1  0  0  0  0
 27 28  2  0  0  0  0
 28 30  1  0  0  0  0
 29 31  1  6  0  0  0
 29 32  1  0  0  0  0
 29 33  1  0  0  0  0
 31 34  1  0  0  0  0
 32 33  1  0  0  0  0
 32 30  1  1  0  0  0
 33 26  1  1  0  0  0
 34 27  1  0  0  0  0
M  END
>  <MODEL>
9

>  <REMARK>
 VINA RESULT:      -7.5      2.723      5.561
  Name = 
  9 active torsions:
  status: ('A' for Active; 'I' for Inactive)
    1  A    between atoms: C_3  and  C_13
    2  A    between atoms: C_3  and  C_17
    3  A    between atoms: C_5  and  C_26
    4  A    between atoms: C_13  and  N_33
    5  A    between atoms: C_14  and  O_20
    6  A    between atoms: C_17  and  C_29
    7  A    between atoms: O_20  and  C_34
    8  A    between atoms: C_26  and  C_28
    9  A    between atoms: N_33  and  C_34
                            x       y       z     vdW  Elec       q    Type
                         _______ _______ _______ _____ _____    ______ ____

>  <TORSDO>
F 9

$$$$
