=
 OpenBabel10262419303D

 31 34  0  0  1  0  0  0  0  0999 V2000
  185.1970  178.3840  145.2230 C   0  0  0  0  0  0  0  0  0  0  0  0
  188.5640  177.7490  143.6890 C   0  0  0  0  0  0  0  0  0  0  0  0
  189.4640  177.3960  144.8420 C   0  0  0  0  0  0  0  0  0  0  0  0
  189.8330  176.5760  147.1080 C   0  0  0  0  0  3  0  0  0  0  0  0
  187.1820  178.0550  143.8430 C   0  0  0  0  0  0  0  0  0  0  0  0
  184.4400  178.6710  144.0870 C   0  0  0  0  0  3  0  0  0  0  0  0
  188.9670  176.9210  146.0680 C   0  0  0  0  0  3  0  0  0  0  0  0
  188.3390  178.1240  141.2630 C   0  0  0  0  0  0  0  0  0  0  0  0
  184.4460  178.4050  146.8030 Cl  0  0  0  0  0  0  0  0  0  0  0  0
  191.4310  177.9690  143.3810 C   0  0  0  0  0  2  0  0  0  0  0  0
  191.2130  176.6950  146.9360 C   0  0  0  0  0  0  0  0  0  0  0  0
  186.9850  178.3920  141.4430 C   0  0  0  0  0  3  0  0  0  0  0  0
  189.1420  177.8060  142.3890 C   0  0  0  0  0  0  0  0  0  0  0  0
  186.5550  178.0820  145.1000 C   0  0  0  0  0  3  0  0  0  0  0  0
  192.0530  176.3660  147.9470 F   0  0  0  0  0  0  0  0  0  0  0  0
  186.4040  178.3660  142.7030 C   0  0  0  0  0  0  0  0  0  0  0  0
  185.0440  178.6630  142.8290 C   0  0  0  0  0  3  0  0  0  0  0  0
  190.5930  177.4360  142.2260 C   0  0  0  0  0  2  0  0  0  0  0  0
  190.8620  177.4830  144.6740 C   0  0  0  0  0  0  0  0  0  0  0  0
  191.7280  177.1470  145.7200 C   0  0  0  0  0  3  0  0  0  0  0  0
  188.8320  178.1920  139.9140 N   0  0  0  0  0  2  0  0  0  0  0  0
  188.7110  177.1690  138.8850 C   0  0  0  0  0  2  0  0  0  0  0  0
  188.9400  177.8230  136.2910 S   0  0  0  0  0  0  0  0  0  0  0  0
  188.0650  177.7470  137.6760 C   0  0  0  0  0  0  0  0  0  0  0  0
  186.8460  178.4880  137.8410 N   0  0  0  0  0  2  0  0  0  0  0  0
  185.0860  177.3000  136.6910 C   0  0  0  0  0  2  0  0  0  0  0  0
  185.5000  177.9960  137.7440 C   0  0  0  0  0  0  0  0  0  0  0  0
  184.6240  178.0600  138.9500 C   0  0  0  0  0  2  0  0  0  0  0  0
  183.6520  179.2260  138.8580 C   0  0  2  0  0  3  0  0  0  0  0  0
  184.3240  180.4270  139.0820 O   0  0  0  0  0  1  0  0  0  0  0  0
  182.5650  179.0580  139.8990 C   0  0  0  0  0  1  0  0  0  0  0  0
  1  9  1  0  0  0  0
  2  5  1  0  0  0  0
  2  3  1  0  0  0  0
  3  7  1  0  0  0  0
  5 14  2  0  0  0  0
  6  1  2  0  0  0  0
  7  4  2  0  0  0  0
  8 12  2  0  0  0  0
  8 13  1  0  0  0  0
 10 19  1  0  0  0  0
 11  4  1  0  0  0  0
 11 15  1  0  0  0  0
 12 16  1  0  0  0  0
 13  2  2  0  0  0  0
 14  1  1  0  0  0  0
 16 17  2  0  0  0  0
 16  5  1  0  0  0  0
 17  6  1  0  0  0  0
 18 13  1  0  0  0  0
 18 10  1  0  0  0  0
 19  3  2  0  0  0  0
 19 20  1  0  0  0  0
 20 11  2  0  0  0  0
 21  8  1  0  0  0  0
 22 21  1  0  0  0  0
 23 24  2  0  0  0  0
 24 25  1  0  0  0  0
 24 22  1  0  0  0  0
 26 27  2  0  0  0  0
 27 25  1  0  0  0  0
 27 28  1  0  0  0  0
 29 28  1  0  0  0  0
 29 30  1  0  0  0  0
 29 31  1  1  0  0  0
M  END
>  <MODEL>
1

>  <REMARK>
 VINA RESULT:      -9.6      0.000      0.000
  Name = 
  7 active torsions:
  status: ('A' for Active; 'I' for Inactive)
    1  A    between atoms: C_1  and  C_24
    2  A    between atoms: N_3  and  C_19
    3  A    between atoms: N_3  and  C_22
    4  A    between atoms: C_9  and  C_22
    5  A    between atoms: C_9  and  N_23
    6  A    between atoms: C_15  and  N_23
    7  A    between atoms: C_19  and  C_24
                            x       y       z     vdW  Elec       q    Type
                         _______ _______ _______ _____ _____    ______ ____

>  <TORSDO>
F 7

$$$$
=
 OpenBabel10262419303D

 31 34  0  0  1  0  0  0  0  0999 V2000
  189.5890  177.3490  147.2980 C   0  0  0  0  0  0  0  0  0  0  0  0
  187.4620  177.7070  144.2260 C   0  0  0  0  0  0  0  0  0  0  0  0
  188.3800  177.4110  143.0720 C   0  0  0  0  0  0  0  0  0  0  0  0
  190.3810  176.3890  142.1240 C   0  0  0  0  0  3  0  0  0  0  0  0
  187.8800  177.6700  145.5860 C   0  0  0  0  0  0  0  0  0  0  0  0
  188.6530  177.6120  148.2980 C   0  0  0  0  0  3  0  0  0  0  0  0
  189.5650  176.6710  143.2230 C   0  0  0  0  0  3  0  0  0  0  0  0
  185.2040  178.3540  144.9780 C   0  0  0  0  0  0  0  0  0  0  0  0
  191.2460  176.9810  147.7240 Cl  0  0  0  0  0  0  0  0  0  0  0  0
  186.7540  178.6080  141.5700 C   0  0  0  0  0  2  0  0  0  0  0  0
  190.0190  176.8390  140.8530 C   0  0  0  0  0  0  0  0  0  0  0  0
  185.6370  178.2820  146.2990 C   0  0  0  0  0  3  0  0  0  0  0  0
  186.1180  178.0720  143.9290 C   0  0  0  0  0  0  0  0  0  0  0  0
  189.2050  177.3800  145.9560 C   0  0  0  0  0  3  0  0  0  0  0  0
  190.8130  176.5720  139.7880 F   0  0  0  0  0  0  0  0  0  0  0  0
  186.9480  177.9510  146.6120 C   0  0  0  0  0  0  0  0  0  0  0  0
  187.3350  177.9140  147.9560 C   0  0  0  0  0  3  0  0  0  0  0  0
  185.6680  178.0650  142.4910 C   0  0  0  0  0  2  0  0  0  0  0  0
  188.0140  177.8330  141.7760 C   0  0  0  0  0  0  0  0  0  0  0  0
  188.8370  177.5590  140.6780 C   0  0  0  0  0  3  0  0  0  0  0  0
  183.8280  178.7170  144.7730 N   0  0  0  0  0  2  0  0  0  0  0  0
  183.3110  179.6870  143.8200 C   0  0  0  0  0  2  0  0  0  0  0  0
  180.8170  178.6960  143.9260 S   0  0  0  0  0  0  0  0  0  0  0  0
  182.1620  179.1000  143.0790 C   0  0  0  0  0  0  0  0  0  0  0  0
  182.3820  178.6250  141.7420 N   0  0  0  0  0  2  0  0  0  0  0  0
  180.6840  179.8730  140.5630 C   0  0  0  0  0  2  0  0  0  0  0  0
  181.7440  179.0720  140.5360 C   0  0  0  0  0  0  0  0  0  0  0  0
  182.4250  178.8290  139.2300 C   0  0  0  0  0  2  0  0  0  0  0  0
  183.9270  179.0410  139.3490 C   0  0  2  0  0  3  0  0  0  0  0  0
  184.2430  180.3720  139.0750 O   0  0  0  0  0  1  0  0  0  0  0  0
  184.6410  178.1420  138.3630 C   0  0  0  0  0  1  0  0  0  0  0  0
  1  9  1  0  0  0  0
  1  6  1  0  0  0  0
  2  5  1  0  0  0  0
  3  7  1  0  0  0  0
  3  2  1  0  0  0  0
  4  7  2  0  0  0  0
  5 14  1  0  0  0  0
  5 16  2  0  0  0  0
  8 12  2  0  0  0  0
 10 19  1  0  0  0  0
 10 18  1  0  0  0  0
 11  4  1  0  0  0  0
 12 16  1  0  0  0  0
 13  2  2  0  0  0  0
 13  8  1  0  0  0  0
 14  1  2  0  0  0  0
 15 11  1  0  0  0  0
 16 17  1  0  0  0  0
 17  6  2  0  0  0  0
 18 13  1  0  0  0  0
 19  3  2  0  0  0  0
 20 11  2  0  0  0  0
 20 19  1  0  0  0  0
 21  8  1  0  0  0  0
 22 21  1  0  0  0  0
 24 22  1  0  0  0  0
 24 23  2  0  0  0  0
 25 24  1  0  0  0  0
 27 26  2  0  0  0  0
 27 25  1  0  0  0  0
 28 29  1  0  0  0  0
 28 27  1  0  0  0  0
 29 31  1  6  0  0  0
 30 29  1  0  0  0  0
M  END
>  <MODEL>
2

>  <REMARK>
 VINA RESULT:      -9.5      3.463      5.358
  Name = 
  7 active torsions:
  status: ('A' for Active; 'I' for Inactive)
    1  A    between atoms: C_1  and  C_24
    2  A    between atoms: N_3  and  C_19
    3  A    between atoms: N_3  and  C_22
    4  A    between atoms: C_9  and  C_22
    5  A    between atoms: C_9  and  N_23
    6  A    between atoms: C_15  and  N_23
    7  A    between atoms: C_19  and  C_24
                            x       y       z     vdW  Elec       q    Type
                         _______ _______ _______ _____ _____    ______ ____

>  <TORSDO>
F 7

$$$$
=
 OpenBabel10262419303D

 31 34  0  0  1  0  0  0  0  0999 V2000
  188.5700  177.2630  145.8340 C   0  0  0  0  0  0  0  0  0  0  0  0
  186.5500  178.2810  142.8390 C   0  0  0  0  0  0  0  0  0  0  0  0
  185.1480  178.4700  143.3520 C   0  0  0  0  0  0  0  0  0  0  0  0
  183.5570  178.9110  145.1460 C   0  0  0  0  0  3  0  0  0  0  0  0
  187.6400  177.8990  143.6690 C   0  0  0  0  0  0  0  0  0  0  0  0
  189.8380  177.1420  145.2670 C   0  0  0  0  0  3  0  0  0  0  0  0
  184.8690  178.7120  144.7080 C   0  0  0  0  0  3  0  0  0  0  0  0
  188.0810  178.3110  140.9060 C   0  0  0  0  0  0  0  0  0  0  0  0
  188.3400  176.9460  147.5400 Cl  0  0  0  0  0  0  0  0  0  0  0  0
  184.3300  178.2310  140.9840 C   0  0  0  0  0  2  0  0  0  0  0  0
  182.5030  178.8780  144.2320 C   0  0  0  0  0  0  0  0  0  0  0  0
  189.1320  177.9630  141.7500 C   0  0  0  0  0  3  0  0  0  0  0  0
  186.7770  178.4670  141.4450 C   0  0  0  0  0  0  0  0  0  0  0  0
  187.4820  177.6350  145.0410 C   0  0  0  0  0  3  0  0  0  0  0  0
  181.2300  179.0650  144.6570 F   0  0  0  0  0  0  0  0  0  0  0  0
  188.9300  177.7530  143.1070 C   0  0  0  0  0  0  0  0  0  0  0  0
  190.0170  177.3850  143.9050 C   0  0  0  0  0  3  0  0  0  0  0  0
  185.6290  178.9170  140.5790 C   0  0  0  0  0  2  0  0  0  0  0  0
  184.0740  178.4680  142.4360 C   0  0  0  0  0  0  0  0  0  0  0  0
  182.7600  178.6580  142.8780 C   0  0  0  0  0  3  0  0  0  0  0  0
  188.4060  178.4910  139.5170 N   0  0  0  0  0  2  0  0  0  0  0  0
  189.6460  178.1190  138.8530 C   0  0  0  0  0  2  0  0  0  0  0  0
  188.1150  176.3230  137.5710 S   0  0  0  0  0  0  0  0  0  0  0  0
  189.5250  176.7460  138.2960 C   0  0  0  0  0  0  0  0  0  0  0  0
  190.4980  175.7630  138.6830 N   0  0  0  0  0  2  0  0  0  0  0  0
  191.5330  174.2570  137.1040 C   0  0  0  0  0  2  0  0  0  0  0  0
  191.6250  175.2980  137.9250 C   0  0  0  0  0  0  0  0  0  0  0  0
  192.8550  176.1420  137.8740 C   0  0  0  0  0  2  0  0  0  0  0  0
  193.9200  175.5050  136.9950 C   0  0  2  0  0  3  0  0  0  0  0  0
  195.0680  175.2500  137.7460 O   0  0  0  0  0  1  0  0  0  0  0  0
  194.2630  176.4450  135.8590 C   0  0  0  0  0  1  0  0  0  0  0  0
  1  9  1  0  0  0  0
  2  3  1  0  0  0  0
  2  5  1  0  0  0  0
  3  7  1  0  0  0  0
  5 14  1  0  0  0  0
  6  1  1  0  0  0  0
  7  4  2  0  0  0  0
  8 13  1  0  0  0  0
  8 12  2  0  0  0  0
 10 19  1  0  0  0  0
 11 15  1  0  0  0  0
 11  4  1  0  0  0  0
 12 16  1  0  0  0  0
 13  2  2  0  0  0  0
 14  1  2  0  0  0  0
 16  5  2  0  0  0  0
 16 17  1  0  0  0  0
 17  6  2  0  0  0  0
 18 10  1  0  0  0  0
 18 13  1  0  0  0  0
 19 20  1  0  0  0  0
 19  3  2  0  0  0  0
 20 11  2  0  0  0  0
 21  8  1  0  0  0  0
 22 21  1  0  0  0  0
 23 24  2  0  0  0  0
 24 25  1  0  0  0  0
 24 22  1  0  0  0  0
 26 27  2  0  0  0  0
 27 25  1  0  0  0  0
 28 27  1  0  0  0  0
 29 31  1  6  0  0  0
 29 30  1  0  0  0  0
 29 28  1  0  0  0  0
M  END
>  <MODEL>
3

>  <REMARK>
 VINA RESULT:      -9.1      3.870      6.445
  Name = 
  7 active torsions:
  status: ('A' for Active; 'I' for Inactive)
    1  A    between atoms: C_1  and  C_24
    2  A    between atoms: N_3  and  C_19
    3  A    between atoms: N_3  and  C_22
    4  A    between atoms: C_9  and  C_22
    5  A    between atoms: C_9  and  N_23
    6  A    between atoms: C_15  and  N_23
    7  A    between atoms: C_19  and  C_24
                            x       y       z     vdW  Elec       q    Type
                         _______ _______ _______ _____ _____    ______ ____

>  <TORSDO>
F 7

$$$$
=
 OpenBabel10262419303D

 31 34  0  0  1  0  0  0  0  0999 V2000
  188.4950  177.2770  147.1860 C   0  0  0  0  0  0  0  0  0  0  0  0
  187.1860  178.0710  143.7590 C   0  0  0  0  0  0  0  0  0  0  0  0
  185.7190  178.3430  143.9480 C   0  0  0  0  0  0  0  0  0  0  0  0
  183.8120  178.9880  145.3250 C   0  0  0  0  0  3  0  0  0  0  0  0
  188.0630  177.7370  144.8290 C   0  0  0  0  0  0  0  0  0  0  0  0
  189.8460  177.0710  146.9100 C   0  0  0  0  0  3  0  0  0  0  0  0
  185.1760  178.7150  145.1900 C   0  0  0  0  0  3  0  0  0  0  0  0
  189.0830  177.8830  142.1950 C   0  0  0  0  0  0  0  0  0  0  0  0
  187.9020  177.1230  148.8250 Cl  0  0  0  0  0  0  0  0  0  0  0  0
  185.3980  177.9100  141.4900 C   0  0  0  0  0  2  0  0  0  0  0  0
  182.9690  178.8990  144.2160 C   0  0  0  0  0  0  0  0  0  0  0  0
  189.9200  177.5860  143.2670 C   0  0  0  0  0  3  0  0  0  0  0  0
  187.7050  178.1220  142.4330 C   0  0  0  0  0  0  0  0  0  0  0  0
  187.6130  177.6040  146.1540 C   0  0  0  0  0  3  0  0  0  0  0  0
  181.6460  179.1580  144.3470 F   0  0  0  0  0  0  0  0  0  0  0  0
  189.4330  177.5070  144.5640 C   0  0  0  0  0  0  0  0  0  0  0  0
  190.3140  177.1840  145.6010 C   0  0  0  0  0  3  0  0  0  0  0  0
  186.7830  178.5220  141.3110 C   0  0  0  0  0  2  0  0  0  0  0  0
  184.8580  178.2860  142.8310 C   0  0  0  0  0  0  0  0  0  0  0  0
  183.4910  178.5500  142.9690 C   0  0  0  0  0  3  0  0  0  0  0  0
  189.6970  177.9280  140.8960 N   0  0  0  0  0  2  0  0  0  0  0  0
  190.4840  176.8810  140.2630 C   0  0  0  0  0  2  0  0  0  0  0  0
  191.6630  176.3880  137.9000 S   0  0  0  0  0  0  0  0  0  0  0  0
  190.4510  177.0510  138.7850 C   0  0  0  0  0  0  0  0  0  0  0  0
  189.5600  178.0310  138.2300 N   0  0  0  0  0  2  0  0  0  0  0  0
  188.6410  178.0460  135.9970 C   0  0  0  0  0  2  0  0  0  0  0  0
  188.4900  177.8150  137.2970 C   0  0  0  0  0  0  0  0  0  0  0  0
  187.2690  177.0940  137.7590 C   0  0  0  0  0  2  0  0  0  0  0  0
  186.0060  177.8160  137.3150 C   0  0  2  0  0  3  0  0  0  0  0  0
  185.8300  178.9760  138.0700 O   0  0  0  0  0  1  0  0  0  0  0  0
  184.8120  176.9060  137.5090 C   0  0  0  0  0  1  0  0  0  0  0  0
  1  9  1  0  0  0  0
  2  3  1  0  0  0  0
  2  5  1  0  0  0  0
  3  7  1  0  0  0  0
  5 14  1  0  0  0  0
  6  1  1  0  0  0  0
  7  4  2  0  0  0  0
  8 13  1  0  0  0  0
  8 12  2  0  0  0  0
 10 19  1  0  0  0  0
 11 15  1  0  0  0  0
 11  4  1  0  0  0  0
 12 16  1  0  0  0  0
 13  2  2  0  0  0  0
 14  1  2  0  0  0  0
 16  5  2  0  0  0  0
 16 17  1  0  0  0  0
 17  6  2  0  0  0  0
 18 10  1  0  0  0  0
 18 13  1  0  0  0  0
 19 20  1  0  0  0  0
 19  3  2  0  0  0  0
 20 11  2  0  0  0  0
 21  8  1  0  0  0  0
 22 21  1  0  0  0  0
 23 24  2  0  0  0  0
 24 22  1  0  0  0  0
 25 24  1  0  0  0  0
 26 27  2  0  0  0  0
 27 28  1  0  0  0  0
 27 25  1  0  0  0  0
 29 31  1  1  0  0  0
 29 28  1  0  0  0  0
 29 30  1  0  0  0  0
M  END
>  <MODEL>
4

>  <REMARK>
 VINA RESULT:      -9.1      2.671      4.774
  Name = 
  7 active torsions:
  status: ('A' for Active; 'I' for Inactive)
    1  A    between atoms: C_1  and  C_24
    2  A    between atoms: N_3  and  C_19
    3  A    between atoms: N_3  and  C_22
    4  A    between atoms: C_9  and  C_22
    5  A    between atoms: C_9  and  N_23
    6  A    between atoms: C_15  and  N_23
    7  A    between atoms: C_19  and  C_24
                            x       y       z     vdW  Elec       q    Type
                         _______ _______ _______ _____ _____    ______ ____

>  <TORSDO>
F 7

$$$$
=
 OpenBabel10262419303D

 31 34  0  0  1  0  0  0  0  0999 V2000
  188.9740  177.4660  147.1660 C   0  0  0  0  0  0  0  0  0  0  0  0
  187.1150  177.9580  143.9440 C   0  0  0  0  0  0  0  0  0  0  0  0
  188.0830  177.5620  142.8630 C   0  0  0  0  0  0  0  0  0  0  0  0
  190.0480  176.3510  142.0750 C   0  0  0  0  0  3  0  0  0  0  0  0
  187.4290  177.9070  145.3300 C   0  0  0  0  0  0  0  0  0  0  0  0
  187.9970  177.8270  148.0930 C   0  0  0  0  0  3  0  0  0  0  0  0
  189.1840  176.7230  143.1080 C   0  0  0  0  0  3  0  0  0  0  0  0
  184.8760  178.8160  144.5210 C   0  0  0  0  0  0  0  0  0  0  0  0
  190.5570  176.9600  147.7170 Cl  0  0  0  0  0  0  0  0  0  0  0  0
  186.6840  178.8730  141.2330 C   0  0  0  0  0  2  0  0  0  0  0  0
  189.8210  176.8100  140.7760 C   0  0  0  0  0  0  0  0  0  0  0  0
  185.2050  178.7280  145.8700 C   0  0  0  0  0  3  0  0  0  0  0  0
  185.8340  178.4360  143.5440 C   0  0  0  0  0  0  0  0  0  0  0  0
  188.6920  177.5080  145.7990 C   0  0  0  0  0  3  0  0  0  0  0  0
  190.6620  176.4550  139.7750 F   0  0  0  0  0  0  0  0  0  0  0  0
  186.4550  178.2880  146.2830 C   0  0  0  0  0  0  0  0  0  0  0  0
  186.7390  178.2390  147.6510 C   0  0  0  0  0  3  0  0  0  0  0  0
  185.4900  178.4440  142.0770 C   0  0  0  0  0  2  0  0  0  0  0  0
  187.8510  177.9930  141.5390 C   0  0  0  0  0  0  0  0  0  0  0  0
  188.7230  177.6280  140.5070 C   0  0  0  0  0  3  0  0  0  0  0  0
  183.5560  179.2950  144.2120 N   0  0  0  0  0  2  0  0  0  0  0  0
  182.3780  178.4910  143.9220 C   0  0  0  0  0  2  0  0  0  0  0  0
  180.0970  179.6920  143.1670 S   0  0  0  0  0  0  0  0  0  0  0  0
  181.5970  179.1220  142.8250 C   0  0  0  0  0  0  0  0  0  0  0  0
  182.0390  178.9280  141.4720 N   0  0  0  0  0  2  0  0  0  0  0  0
  180.5710  177.5740  140.1140 C   0  0  0  0  0  2  0  0  0  0  0  0
  181.7790  177.8040  140.6170 C   0  0  0  0  0  0  0  0  0  0  0  0
  182.9340  177.0190  140.0920 C   0  0  0  0  0  2  0  0  0  0  0  0
  183.0820  177.2040  138.5890 C   0  0  2  0  0  3  0  0  0  0  0  0
  183.2890  175.9680  137.9750 O   0  0  0  0  0  1  0  0  0  0  0  0
  184.2640  178.1070  138.3080 C   0  0  0  0  0  1  0  0  0  0  0  0
  1  9  1  0  0  0  0
  1  6  1  0  0  0  0
  2  5  1  0  0  0  0
  3  7  1  0  0  0  0
  3  2  1  0  0  0  0
  4  7  2  0  0  0  0
  5 14  1  0  0  0  0
  5 16  2  0  0  0  0
  8 12  2  0  0  0  0
 10 19  1  0  0  0  0
 10 18  1  0  0  0  0
 11  4  1  0  0  0  0
 12 16  1  0  0  0  0
 13  2  2  0  0  0  0
 13  8  1  0  0  0  0
 14  1  2  0  0  0  0
 15 11  1  0  0  0  0
 16 17  1  0  0  0  0
 17  6  2  0  0  0  0
 18 13  1  0  0  0  0
 19  3  2  0  0  0  0
 20 11  2  0  0  0  0
 20 19  1  0  0  0  0
 21  8  1  0  0  0  0
 22 21  1  0  0  0  0
 24 23  2  0  0  0  0
 24 22  1  0  0  0  0
 25 24  1  0  0  0  0
 26 27  2  0  0  0  0
 27 25  1  0  0  0  0
 28 27  1  0  0  0  0
 29 31  1  1  0  0  0
 29 28  1  0  0  0  0
 30 29  1  0  0  0  0
M  END
>  <MODEL>
5

>  <REMARK>
 VINA RESULT:      -9.0      3.616      5.384
  Name = 
  7 active torsions:
  status: ('A' for Active; 'I' for Inactive)
    1  A    between atoms: C_1  and  C_24
    2  A    between atoms: N_3  and  C_19
    3  A    between atoms: N_3  and  C_22
    4  A    between atoms: C_9  and  C_22
    5  A    between atoms: C_9  and  N_23
    6  A    between atoms: C_15  and  N_23
    7  A    between atoms: C_19  and  C_24
                            x       y       z     vdW  Elec       q    Type
                         _______ _______ _______ _____ _____    ______ ____

>  <TORSDO>
F 7

$$$$
=
 OpenBabel10262419303D

 31 34  0  0  1  0  0  0  0  0999 V2000
  188.4500  177.2970  146.2820 C   0  0  0  0  0  0  0  0  0  0  0  0
  186.6400  178.2580  143.1380 C   0  0  0  0  0  0  0  0  0  0  0  0
  185.2050  178.4450  143.5490 C   0  0  0  0  0  0  0  0  0  0  0  0
  183.4890  178.9020  145.2200 C   0  0  0  0  0  3  0  0  0  0  0  0
  187.6720  177.8950  144.0480 C   0  0  0  0  0  0  0  0  0  0  0  0
  189.7560  177.1760  145.8080 C   0  0  0  0  0  3  0  0  0  0  0  0
  184.8290  178.7050  144.8780 C   0  0  0  0  0  3  0  0  0  0  0  0
  188.3030  178.2700  141.3170 C   0  0  0  0  0  0  0  0  0  0  0  0
  188.1030  177.0040  147.9720 Cl  0  0  0  0  0  0  0  0  0  0  0  0
  184.5570  178.1660  141.1330 C   0  0  0  0  0  2  0  0  0  0  0  0
  182.5020  178.8480  144.2350 C   0  0  0  0  0  0  0  0  0  0  0  0
  189.2940  177.9420  142.2370 C   0  0  0  0  0  3  0  0  0  0  0  0
  186.9640  178.4250  141.7610 C   0  0  0  0  0  0  0  0  0  0  0  0
  187.4200  177.6510  145.4090 C   0  0  0  0  0  3  0  0  0  0  0  0
  181.2020  179.0330  144.5670 F   0  0  0  0  0  0  0  0  0  0  0  0
  188.9980  177.7510  143.5800 C   0  0  0  0  0  0  0  0  0  0  0  0
  190.0290  177.4020  144.4580 C   0  0  0  0  0  3  0  0  0  0  0  0
  185.8770  178.8550  140.8090 C   0  0  0  0  0  2  0  0  0  0  0  0
  184.1980  178.4230  142.5600 C   0  0  0  0  0  0  0  0  0  0  0  0
  182.8550  178.6100  142.9060 C   0  0  0  0  0  3  0  0  0  0  0  0
  188.7240  178.4330  139.9520 N   0  0  0  0  0  2  0  0  0  0  0  0
  189.8170  177.7430  139.2850 C   0  0  0  0  0  2  0  0  0  0  0  0
  190.4780  176.6020  136.9450 S   0  0  0  0  0  0  0  0  0  0  0  0
  189.4830  177.5420  137.8490 C   0  0  0  0  0  0  0  0  0  0  0  0
  188.5110  178.4110  137.2460 N   0  0  0  0  0  2  0  0  0  0  0  0
  187.1160  178.1690  135.2900 C   0  0  0  0  0  2  0  0  0  0  0  0
  187.2830  178.0390  136.6020 C   0  0  0  0  0  0  0  0  0  0  0  0
  186.2670  177.2720  137.3800 C   0  0  0  0  0  2  0  0  0  0  0  0
  185.9310  175.9570  136.6940 C   0  0  2  0  0  3  0  0  0  0  0  0
  184.6500  175.5410  137.0610 O   0  0  0  0  0  1  0  0  0  0  0  0
  186.9370  174.9040  137.1050 C   0  0  0  0  0  1  0  0  0  0  0  0
  1  9  1  0  0  0  0
  2  3  1  0  0  0  0
  2  5  1  0  0  0  0
  3  7  1  0  0  0  0
  5 14  1  0  0  0  0
  6  1  1  0  0  0  0
  7  4  2  0  0  0  0
  8 13  1  0  0  0  0
  8 12  2  0  0  0  0
 10 19  1  0  0  0  0
 11 15  1  0  0  0  0
 11  4  1  0  0  0  0
 12 16  1  0  0  0  0
 13  2  2  0  0  0  0
 14  1  2  0  0  0  0
 16  5  2  0  0  0  0
 16 17  1  0  0  0  0
 17  6  2  0  0  0  0
 18 10  1  0  0  0  0
 18 13  1  0  0  0  0
 19 20  1  0  0  0  0
 19  3  2  0  0  0  0
 20 11  2  0  0  0  0
 21  8  1  0  0  0  0
 22 21  1  0  0  0  0
 23 24  2  0  0  0  0
 24 22  1  0  0  0  0
 25 24  1  0  0  0  0
 26 27  2  0  0  0  0
 27 25  1  0  0  0  0
 27 28  1  0  0  0  0
 29 30  1  0  0  0  0
 29 31  1  1  0  0  0
 29 28  1  0  0  0  0
M  END
>  <MODEL>
6

>  <REMARK>
 VINA RESULT:      -8.9      2.750      4.989
  Name = 
  7 active torsions:
  status: ('A' for Active; 'I' for Inactive)
    1  A    between atoms: C_1  and  C_24
    2  A    between atoms: N_3  and  C_19
    3  A    between atoms: N_3  and  C_22
    4  A    between atoms: C_9  and  C_22
    5  A    between atoms: C_9  and  N_23
    6  A    between atoms: C_15  and  N_23
    7  A    between atoms: C_19  and  C_24
                            x       y       z     vdW  Elec       q    Type
                         _______ _______ _______ _____ _____    ______ ____

>  <TORSDO>
F 7

$$$$
=
 OpenBabel10262419303D

 31 34  0  0  1  0  0  0  0  0999 V2000
  185.3320  178.3670  145.2530 C   0  0  0  0  0  0  0  0  0  0  0  0
  188.6650  177.4840  143.7690 C   0  0  0  0  0  0  0  0  0  0  0  0
  189.5620  177.2130  144.9450 C   0  0  0  0  0  0  0  0  0  0  0  0
  189.9240  176.5970  147.2760 C   0  0  0  0  0  3  0  0  0  0  0  0
  187.2950  177.8470  143.8990 C   0  0  0  0  0  0  0  0  0  0  0  0
  184.5750  178.5700  144.0990 C   0  0  0  0  0  3  0  0  0  0  0  0
  189.0610  176.8700  146.2120 C   0  0  0  0  0  3  0  0  0  0  0  0
  188.4320  177.6380  141.3180 C   0  0  0  0  0  0  0  0  0  0  0  0
  184.5940  178.5590  146.8280 Cl  0  0  0  0  0  0  0  0  0  0  0  0
  191.5350  177.5840  143.4270 C   0  0  0  0  0  2  0  0  0  0  0  0
  191.3060  176.6550  147.0870 C   0  0  0  0  0  0  0  0  0  0  0  0
  187.0890  177.9640  141.4790 C   0  0  0  0  0  3  0  0  0  0  0  0
  189.2340  177.4010  142.4660 C   0  0  0  0  0  0  0  0  0  0  0  0
  186.6780  178.0110  145.1520 C   0  0  0  0  0  3  0  0  0  0  0  0
  192.1430  176.3960  148.1190 F   0  0  0  0  0  0  0  0  0  0  0  0
  186.5170  178.0740  142.7400 C   0  0  0  0  0  0  0  0  0  0  0  0
  185.1680  178.4250  142.8450 C   0  0  0  0  0  3  0  0  0  0  0  0
  190.6720  176.9720  142.3310 C   0  0  0  0  0  2  0  0  0  0  0  0
  190.9620  177.2390  144.7630 C   0  0  0  0  0  0  0  0  0  0  0  0
  191.8250  176.9750  145.8310 C   0  0  0  0  0  3  0  0  0  0  0  0
  188.9170  177.5640  139.9670 N   0  0  0  0  0  2  0  0  0  0  0  0
  189.1120  178.6710  139.0440 C   0  0  0  0  0  2  0  0  0  0  0  0
  186.9300  177.9540  137.6510 S   0  0  0  0  0  0  0  0  0  0  0  0
  188.5250  178.3320  137.7200 C   0  0  0  0  0  0  0  0  0  0  0  0
  189.4170  178.0420  136.6320 N   0  0  0  0  0  2  0  0  0  0  0  0
  189.5530  176.1450  135.1440 C   0  0  0  0  0  2  0  0  0  0  0  0
  189.9490  176.7640  136.2500 C   0  0  0  0  0  0  0  0  0  0  0  0
  191.1390  176.2350  136.9800 C   0  0  0  0  0  2  0  0  0  0  0  0
  191.2740  174.7320  136.7880 C   0  0  2  0  0  3  0  0  0  0  0  0
  190.5720  174.0590  137.7890 O   0  0  0  0  0  1  0  0  0  0  0  0
  192.7360  174.3460  136.8540 C   0  0  0  0  0  1  0  0  0  0  0  0
  1  9  1  0  0  0  0
  2  5  1  0  0  0  0
  2  3  1  0  0  0  0
  3  7  1  0  0  0  0
  5 14  2  0  0  0  0
  6  1  2  0  0  0  0
  7  4  2  0  0  0  0
  8 12  2  0  0  0  0
  8 13  1  0  0  0  0
 10 19  1  0  0  0  0
 11  4  1  0  0  0  0
 11 15  1  0  0  0  0
 12 16  1  0  0  0  0
 13  2  2  0  0  0  0
 14  1  1  0  0  0  0
 16 17  2  0  0  0  0
 16  5  1  0  0  0  0
 17  6  1  0  0  0  0
 18 13  1  0  0  0  0
 18 10  1  0  0  0  0
 19  3  2  0  0  0  0
 19 20  1  0  0  0  0
 20 11  2  0  0  0  0
 21  8  1  0  0  0  0
 22 21  1  0  0  0  0
 23 24  2  0  0  0  0
 24 22  1  0  0  0  0
 25 24  1  0  0  0  0
 26 27  2  0  0  0  0
 27 25  1  0  0  0  0
 27 28  1  0  0  0  0
 29 31  1  1  0  0  0
 29 28  1  0  0  0  0
 29 30  1  0  0  0  0
M  END
>  <MODEL>
7

>  <REMARK>
 VINA RESULT:      -8.9      2.369      3.659
  Name = 
  7 active torsions:
  status: ('A' for Active; 'I' for Inactive)
    1  A    between atoms: C_1  and  C_24
    2  A    between atoms: N_3  and  C_19
    3  A    between atoms: N_3  and  C_22
    4  A    between atoms: C_9  and  C_22
    5  A    between atoms: C_9  and  N_23
    6  A    between atoms: C_15  and  N_23
    7  A    between atoms: C_19  and  C_24
                            x       y       z     vdW  Elec       q    Type
                         _______ _______ _______ _____ _____    ______ ____

>  <TORSDO>
F 7

$$$$
=
 OpenBabel10262419303D

 31 34  0  0  1  0  0  0  0  0999 V2000
  188.3550  177.3360  145.7370 C   0  0  0  0  0  0  0  0  0  0  0  0
  186.3500  178.3160  142.7200 C   0  0  0  0  0  0  0  0  0  0  0  0
  184.9400  178.4800  143.2180 C   0  0  0  0  0  0  0  0  0  0  0  0
  183.3220  178.8950  144.9940 C   0  0  0  0  0  3  0  0  0  0  0  0
  187.4380  177.9530  143.5620 C   0  0  0  0  0  0  0  0  0  0  0  0
  189.6320  177.2370  145.1850 C   0  0  0  0  0  3  0  0  0  0  0  0
  184.6410  178.7190  144.5700 C   0  0  0  0  0  3  0  0  0  0  0  0
  187.9010  178.3710  140.8040 C   0  0  0  0  0  0  0  0  0  0  0  0
  188.1120  177.0170  147.4410 Cl  0  0  0  0  0  0  0  0  0  0  0  0
  184.1520  178.2250  140.8410 C   0  0  0  0  0  2  0  0  0  0  0  0
  182.2780  178.8420  144.0690 C   0  0  0  0  0  0  0  0  0  0  0  0
  188.9490  178.0420  141.6590 C   0  0  0  0  0  3  0  0  0  0  0  0
  186.5890  178.5040  141.3290 C   0  0  0  0  0  0  0  0  0  0  0  0
  187.2700  177.6890  144.9330 C   0  0  0  0  0  3  0  0  0  0  0  0
  180.9980  179.0070  144.4800 F   0  0  0  0  0  0  0  0  0  0  0  0
  188.7360  177.8310  143.0140 C   0  0  0  0  0  0  0  0  0  0  0  0
  189.8210  177.4820  143.8250 C   0  0  0  0  0  3  0  0  0  0  0  0
  185.4430  178.9330  140.4490 C   0  0  0  0  0  2  0  0  0  0  0  0
  183.8760  178.4590  142.2910 C   0  0  0  0  0  0  0  0  0  0  0  0
  182.5540  178.6260  142.7180 C   0  0  0  0  0  3  0  0  0  0  0  0
  188.2380  178.5560  139.4180 N   0  0  0  0  0  2  0  0  0  0  0  0
  189.3610  177.9670  138.7040 C   0  0  0  0  0  2  0  0  0  0  0  0
  189.1110  177.7850  136.0360 S   0  0  0  0  0  0  0  0  0  0  0  0
  188.8620  177.1840  137.5420 C   0  0  0  0  0  0  0  0  0  0  0  0
  187.9260  176.1220  137.7850 N   0  0  0  0  0  2  0  0  0  0  0  0
  185.7090  176.8520  137.1650 C   0  0  0  0  0  2  0  0  0  0  0  0
  186.6510  175.9150  137.1560 C   0  0  0  0  0  0  0  0  0  0  0  0
  186.4700  174.7250  136.2750 C   0  0  0  0  0  2  0  0  0  0  0  0
  186.5790  173.4340  137.0720 C   0  0  2  0  0  3  0  0  0  0  0  0
  186.9320  172.3810  136.2270 O   0  0  0  0  0  1  0  0  0  0  0  0
  185.2470  173.1290  137.7220 C   0  0  0  0  0  1  0  0  0  0  0  0
  1  9  1  0  0  0  0
  2  3  1  0  0  0  0
  2  5  1  0  0  0  0
  3  7  1  0  0  0  0
  5 14  1  0  0  0  0
  6  1  1  0  0  0  0
  7  4  2  0  0  0  0
  8 13  1  0  0  0  0
  8 12  2  0  0  0  0
 10 19  1  0  0  0  0
 11 15  1  0  0  0  0
 11  4  1  0  0  0  0
 12 16  1  0  0  0  0
 13  2  2  0  0  0  0
 14  1  2  0  0  0  0
 16  5  2  0  0  0  0
 16 17  1  0  0  0  0
 17  6  2  0  0  0  0
 18 10  1  0  0  0  0
 18 13  1  0  0  0  0
 19 20  1  0  0  0  0
 19  3  2  0  0  0  0
 20 11  2  0  0  0  0
 21  8  1  0  0  0  0
 22 21  1  0  0  0  0
 23 24  2  0  0  0  0
 24 25  1  0  0  0  0
 24 22  1  0  0  0  0
 27 26  2  0  0  0  0
 27 25  1  0  0  0  0
 28 29  1  0  0  0  0
 28 27  1  0  0  0  0
 29 31  1  6  0  0  0
 30 29  1  0  0  0  0
M  END
>  <MODEL>
8

>  <REMARK>
 VINA RESULT:      -8.7      3.226      5.373
  Name = 
  7 active torsions:
  status: ('A' for Active; 'I' for Inactive)
    1  A    between atoms: C_1  and  C_24
    2  A    between atoms: N_3  and  C_19
    3  A    between atoms: N_3  and  C_22
    4  A    between atoms: C_9  and  C_22
    5  A    between atoms: C_9  and  N_23
    6  A    between atoms: C_15  and  N_23
    7  A    between atoms: C_19  and  C_24
                            x       y       z     vdW  Elec       q    Type
                         _______ _______ _______ _____ _____    ______ ____

>  <TORSDO>
F 7

$$$$
=
 OpenBabel10262419303D

 31 34  0  0  1  0  0  0  0  0999 V2000
  189.2010  177.4820  140.6580 C   0  0  0  0  0  0  0  0  0  0  0  0
  187.4560  178.1020  143.9220 C   0  0  0  0  0  0  0  0  0  0  0  0
  188.4440  177.6980  144.9820 C   0  0  0  0  0  0  0  0  0  0  0  0
  190.7190  177.2830  145.7540 C   0  0  0  0  0  3  0  0  0  0  0  0
  187.7330  178.0290  142.5290 C   0  0  0  0  0  0  0  0  0  0  0  0
  188.2270  177.9060  139.7540 C   0  0  0  0  0  3  0  0  0  0  0  0
  189.8260  177.6340  144.7380 C   0  0  0  0  0  3  0  0  0  0  0  0
  185.2010  178.9480  143.3920 C   0  0  0  0  0  0  0  0  0  0  0  0
  190.7330  176.8720  140.0710 Cl  0  0  0  0  0  0  0  0  0  0  0  0
  186.5210  177.5070  146.5950 C   0  0  0  0  0  2  0  0  0  0  0  0
  190.2430  176.9970  147.0340 C   0  0  0  0  0  0  0  0  0  0  0  0
  185.5130  178.8910  142.0360 C   0  0  0  0  0  3  0  0  0  0  0  0
  186.1710  178.5460  144.3470 C   0  0  0  0  0  0  0  0  0  0  0  0
  188.9530  177.5410  142.0310 C   0  0  0  0  0  3  0  0  0  0  0  0
  191.1080  176.6510  148.0180 F   0  0  0  0  0  0  0  0  0  0  0  0
  186.7500  178.4390  141.5980 C   0  0  0  0  0  0  0  0  0  0  0  0
  187.0030  178.3830  140.2240 C   0  0  0  0  0  3  0  0  0  0  0  0
  185.8980  178.6650  145.8240 C   0  0  0  0  0  2  0  0  0  0  0  0
  187.9820  177.4340  146.2900 C   0  0  0  0  0  0  0  0  0  0  0  0
  188.8760  177.0730  147.3030 C   0  0  0  0  0  3  0  0  0  0  0  0
  183.8870  179.4230  143.7280 N   0  0  0  0  0  2  0  0  0  0  0  0
  182.7600  178.6270  144.1900 C   0  0  0  0  0  2  0  0  0  0  0  0
  180.0830  178.6550  143.9680 S   0  0  0  0  0  0  0  0  0  0  0  0
  181.5760  178.8830  143.3270 C   0  0  0  0  0  0  0  0  0  0  0  0
  181.7770  179.0070  141.9100 N   0  0  0  0  0  2  0  0  0  0  0  0
  180.5040  177.5490  140.4670 C   0  0  0  0  0  2  0  0  0  0  0  0
  181.6790  177.9750  140.9170 C   0  0  0  0  0  0  0  0  0  0  0  0
  182.9180  177.5430  140.2050 C   0  0  0  0  0  2  0  0  0  0  0  0
  182.9900  178.1550  138.8140 C   0  0  2  0  0  3  0  0  0  0  0  0
  183.6110  177.2670  137.9340 O   0  0  0  0  0  1  0  0  0  0  0  0
  183.7850  179.4420  138.8720 C   0  0  0  0  0  1  0  0  0  0  0  0
  1 14  1  0  0  0  0
  2 13  2  0  0  0  0
  2  3  1  0  0  0  0
  3 19  1  0  0  0  0
  4 11  2  0  0  0  0
  5  2  1  0  0  0  0
  6 17  1  0  0  0  0
  6  1  2  0  0  0  0
  7  3  2  0  0  0  0
  7  4  1  0  0  0  0
  8 21  1  0  0  0  0
  8 13  1  0  0  0  0
  9  1  1  0  0  0  0
 11 20  1  0  0  0  0
 11 15  1  0  0  0  0
 12  8  2  0  0  0  0
 13 18  1  0  0  0  0
 14  5  2  0  0  0  0
 16 12  1  0  0  0  0
 16  5  1  0  0  0  0
 17 16  2  0  0  0  0
 18 10  1  0  0  0  0
 19 10  1  0  0  0  0
 19 20  2  0  0  0  0
 21 22  1  0  0  0  0
 24 23  2  0  0  0  0
 24 22  1  0  0  0  0
 25 24  1  0  0  0  0
 26 27  2  0  0  0  0
 27 25  1  0  0  0  0
 28 27  1  0  0  0  0
 29 31  1  1  0  0  0
 29 28  1  0  0  0  0
 30 29  1  0  0  0  0
M  END
>  <MODEL>
9

>  <REMARK>
 VINA RESULT:      -8.7      3.445      4.969
  Name = 
  7 active torsions:
  status: ('A' for Active; 'I' for Inactive)
    1  A    between atoms: C_1  and  C_24
    2  A    between atoms: N_3  and  C_19
    3  A    between atoms: N_3  and  C_22
    4  A    between atoms: C_9  and  C_22
    5  A    between atoms: C_9  and  N_23
    6  A    between atoms: C_15  and  N_23
    7  A    between atoms: C_19  and  C_24
                            x       y       z     vdW  Elec       q    Type
                         _______ _______ _______ _____ _____    ______ ____

>  <TORSDO>
F 7

$$$$
