=
 OpenBabel10262423003D

 37 39  0  0  1  0  0  0  0  0999 V2000
  183.9020  177.4650  136.4160 C   0  0  0  0  0  2  0  0  0  0  0  0
  184.6330  178.5100  140.6950 C   0  0  0  0  0  3  0  0  0  0  0  0
  182.4800  177.1910  136.9220 C   0  0  2  0  0  3  0  0  0  0  0  0
  184.0720  178.4470  139.4150 C   0  0  0  0  0  0  0  0  0  0  0  0
  184.9890  178.5110  138.2400 C   0  0  0  0  0  2  0  0  0  0  0  0
  182.6740  178.3130  139.2690 C   0  0  0  0  0  0  0  0  0  0  0  0
  182.4370  178.3180  141.6870 C   0  0  0  0  0  3  0  0  0  0  0  0
  184.8950  177.2770  137.4690 N   0  0  0  0  0  0  0  0  0  0  0  0
  181.8690  178.2540  140.4120 C   0  0  0  0  0  3  0  0  0  0  0  0
  181.9870  178.2500  137.9300 C   0  0  1  0  0  3  0  0  0  0  0  0
  183.8190  178.4460  141.8360 C   0  0  0  0  0  0  0  0  0  0  0  0
  184.3580  178.5070  143.1240 O   0  0  0  0  0  0  0  0  0  0  0  0
  184.4880  179.7250  143.8450 C   0  0  0  0  0  1  0  0  0  0  0  0
  180.6320  175.5230  138.1310 S   0  0  0  0  0  1  0  0  0  0  0  0
  182.3110  175.7640  137.4630 C   0  0  1  0  0  3  0  0  0  0  0  0
  182.5580  174.7310  136.3700 C   0  0  0  0  0  2  0  0  0  0  0  0
  184.4310  173.6290  137.7120 C   0  0  0  0  0  1  0  0  0  0  0  0
  183.1160  173.4350  136.9460 C   0  0  2  0  0  3  0  0  0  0  0  0
  182.1100  172.5930  134.9930 O   0  0  0  0  0  0  0  0  0  0  0  0
  183.0790  172.3310  135.9600 N   0  0  0  0  0  0  0  0  0  0  0  0
  181.8330  171.5810  135.8540 C   0  0  2  0  0  0  0  0  0  0  0  0
  181.9770  170.2160  135.2130 C   0  0  0  0  0  1  0  0  0  0  0  0
  179.4240  172.4920  136.2540 C   0  0  0  0  0  1  0  0  0  0  0  0
  180.7170  171.4960  137.9380 O   0  0  0  0  0  0  0  0  0  0  0  0
  180.6720  171.8590  136.7750 C   0  0  0  0  0  0  0  0  0  0  0  0
  186.1980  176.9710  136.8690 C   0  0  0  0  0  2  0  0  0  0  0  0
  187.3810  177.2480  137.7980 C   0  0  0  0  0  1  0  0  0  0  0  0
  181.5160  179.6040  137.3690 C   0  0  1  0  0  3  0  0  0  0  0  0
  180.5310  179.5040  136.2360 C   0  0  0  0  0  0  0  0  0  0  0  0
  180.8490  180.0380  135.0560 C   0  0  0  0  0  2  0  0  0  0  0  0
  179.1290  177.6890  135.2890 C   0  0  0  0  0  1  0  0  0  0  0  0
  179.2510  178.7380  136.3800 C   0  0  0  0  0  2  0  0  0  0  0  0
  181.0330  180.5470  138.4660 C   0  0  0  0  0  2  0  0  0  0  0  0
  181.7680  181.8720  138.3850 C   0  0  0  0  0  2  0  0  0  0  0  0
  180.9090  182.8790  137.6500 C   0  0  0  0  0  2  0  0  0  0  0  0
  181.1360  184.4870  136.1590 C   0  0  0  0  0  1  0  0  0  0  0  0
  181.6690  184.0100  137.3560 O   0  0  0  0  0  0  0  0  0  0  0  0
  1  3  1  0  0  0  0
  1  8  1  0  0  0  0
  2 11  1  0  0  0  0
  3 15  1  1  0  0  0
  3 10  1  0  0  0  0
  4  2  2  0  0  0  0
  5  4  1  0  0  0  0
  6  4  1  0  0  0  0
  6  9  2  0  0  0  0
  7 11  2  0  0  0  0
  8  5  1  0  0  0  0
  9  7  1  0  0  0  0
 10 28  1  6  0  0  0
 10  6  1  0  0  0  0
 11 12  1  0  0  0  0
 12 13  1  0  0  0  0
 15 14  1  6  0  0  0
 16 18  1  0  0  0  0
 16 15  1  0  0  0  0
 18 17  1  6  0  0  0
 19 21  1  0  0  0  0
 19 20  1  0  0  0  0
 20 18  1  0  0  0  0
 21 22  1  6  0  0  0
 21 20  1  0  0  0  0
 21 25  1  0  0  0  0
 23 25  1  0  0  0  0
 25 24  2  0  0  0  0
 26  8  1  0  0  0  0
 26 27  1  0  0  0  0
 28 33  1  1  0  0  0
 29 32  1  0  0  0  0
 29 28  1  0  0  0  0
 30 29  2  0  0  0  0
 31 32  1  0  0  0  0
 34 33  1  0  0  0  0
 35 34  1  0  0  0  0
 36 37  1  0  0  0  0
 37 35  1  0  0  0  0
M  END
>  <MODEL>
1

>  <REMARK>
 VINA RESULT:      -4.4      0.000      0.000
  Name = 
  14 active torsions:
  status: ('A' for Active; 'I' for Inactive)
    1  A    between atoms: C_1  and  C_12
    2  A    between atoms: C_1  and  C_36
    3  A    between atoms: O_3  and  C_32
    4  A    between atoms: N_6  and  C_37
    5  A    between atoms: C_8  and  C_35
    6  A    between atoms: C_10  and  C_14
    7  A    between atoms: C_14  and  C_27
    8  A    between atoms: C_17  and  C_26
    9  A    between atoms: C_17  and  C_33
   10  A    between atoms: C_22  and  N_24
   11  A    between atoms: C_26  and  O_34
   12  A    between atoms: C_27  and  C_37
   13  A    between atoms: C_29  and  C_36
   14  A    between atoms: C_33  and  C_36
                            x       y       z     vdW  Elec       q    Type
                         _______ _______ _______ _____ _____    ______ ____

>  <TORSDO>
F 14

$$$$
=
 OpenBabel10262423003D

 37 39  0  0  1  0  0  0  0  0999 V2000
  182.0220  176.2530  137.5720 C   0  0  0  0  0  2  0  0  0  0  0  0
  180.2340  180.1300  136.2680 C   0  0  0  0  0  3  0  0  0  0  0  0
  182.7660  177.1480  138.5710 C   0  0  2  0  0  3  0  0  0  0  0  0
  180.6760  179.0670  137.0600 C   0  0  0  0  0  0  0  0  0  0  0  0
  180.4080  177.6770  136.5870 C   0  0  0  0  0  2  0  0  0  0  0  0
  181.3670  179.3290  138.2640 C   0  0  0  0  0  0  0  0  0  0  0  0
  181.1440  181.7130  137.8530 C   0  0  0  0  0  3  0  0  0  0  0  0
  181.6670  176.9800  136.3570 N   0  0  0  0  0  0  0  0  0  0  0  0
  181.5900  180.6550  138.6490 C   0  0  0  0  0  3  0  0  0  0  0  0
  181.8660  178.2440  139.1820 C   0  0  1  0  0  3  0  0  0  0  0  0
  180.4650  181.4580  136.6600 C   0  0  0  0  0  0  0  0  0  0  0  0
  180.0320  182.5360  135.8830 O   0  0  0  0  0  0  0  0  0  0  0  0
  180.8980  183.5890  135.4800 C   0  0  0  0  0  1  0  0  0  0  0  0
  184.9320  178.7370  139.2370 S   0  0  0  0  0  1  0  0  0  0  0  0
  184.0620  177.7320  137.9900 C   0  0  1  0  0  3  0  0  0  0  0  0
  184.9940  176.6240  137.5140 C   0  0  0  0  0  2  0  0  0  0  0  0
  185.0940  177.3090  135.0550 C   0  0  0  0  0  1  0  0  0  0  0  0
  185.8720  177.0950  136.3600 C   0  0  2  0  0  3  0  0  0  0  0  0
  187.5510  175.9460  137.5410 O   0  0  0  0  0  0  0  0  0  0  0  0
  187.1270  176.3140  136.2660 N   0  0  0  0  0  0  0  0  0  0  0  0
  188.3070  176.8790  136.9090 C   0  0  2  0  0  0  0  0  0  0  0  0
  189.6210  176.3190  136.4050 C   0  0  0  0  0  1  0  0  0  0  0  0
  188.5890  178.4020  139.0050 C   0  0  0  0  0  1  0  0  0  0  0  0
  188.0530  179.2310  136.8780 O   0  0  0  0  0  0  0  0  0  0  0  0
  188.2690  178.2400  137.5550 C   0  0  0  0  0  0  0  0  0  0  0  0
  181.5100  176.0340  135.2470 C   0  0  0  0  0  2  0  0  0  0  0  0
  182.1650  174.6760  135.5010 C   0  0  0  0  0  1  0  0  0  0  0  0
  180.8910  177.8260  140.2960 C   0  0  1  0  0  3  0  0  0  0  0  0
  180.9680  178.6650  141.5440 C   0  0  0  0  0  0  0  0  0  0  0  0
  179.8530  178.8900  142.2400 C   0  0  0  0  0  2  0  0  0  0  0  0
  183.2590  178.0200  142.2440 C   0  0  0  0  0  1  0  0  0  0  0  0
  182.2800  179.1660  142.0670 C   0  0  0  0  0  2  0  0  0  0  0  0
  179.4590  177.6870  139.7890 C   0  0  0  0  0  2  0  0  0  0  0  0
  179.0680  176.2240  139.7040 C   0  0  0  0  0  2  0  0  0  0  0  0
  179.5360  175.5050  140.9520 C   0  0  0  0  0  2  0  0  0  0  0  0
  179.2650  173.4930  141.8130 C   0  0  0  0  0  1  0  0  0  0  0  0
  179.7140  174.1520  140.6680 O   0  0  0  0  0  0  0  0  0  0  0  0
  1  3  1  0  0  0  0
  2 11  2  0  0  0  0
  2  4  1  0  0  0  0
  3 15  1  6  0  0  0
  3 10  1  0  0  0  0
  4  6  2  0  0  0  0
  5  4  1  0  0  0  0
  6  9  1  0  0  0  0
  6 10  1  0  0  0  0
  7  9  2  0  0  0  0
  8  5  1  0  0  0  0
  8  1  1  0  0  0  0
 10 28  1  6  0  0  0
 11  7  1  0  0  0  0
 12 11  1  0  0  0  0
 13 12  1  0  0  0  0
 15 14  1  1  0  0  0
 16 15  1  0  0  0  0
 18 17  1  6  0  0  0
 18 16  1  0  0  0  0
 20 18  1  0  0  0  0
 20 21  1  0  0  0  0
 20 19  1  0  0  0  0
 21 22  1  6  0  0  0
 21 19  1  0  0  0  0
 21 25  1  0  0  0  0
 24 25  2  0  0  0  0
 25 23  1  0  0  0  0
 26 27  1  0  0  0  0
 26  8  1  0  0  0  0
 28 33  1  6  0  0  0
 28 29  1  0  0  0  0
 29 32  1  0  0  0  0
 29 30  2  0  0  0  0
 32 31  1  0  0  0  0
 34 33  1  0  0  0  0
 34 35  1  0  0  0  0
 37 35  1  0  0  0  0
 37 36  1  0  0  0  0
M  END
>  <MODEL>
2

>  <REMARK>
 VINA RESULT:      -4.2      2.789      6.805
  Name = 
  14 active torsions:
  status: ('A' for Active; 'I' for Inactive)
    1  A    between atoms: C_1  and  C_12
    2  A    between atoms: C_1  and  C_36
    3  A    between atoms: O_3  and  C_32
    4  A    between atoms: N_6  and  C_37
    5  A    between atoms: C_8  and  C_35
    6  A    between atoms: C_10  and  C_14
    7  A    between atoms: C_14  and  C_27
    8  A    between atoms: C_17  and  C_26
    9  A    between atoms: C_17  and  C_33
   10  A    between atoms: C_22  and  N_24
   11  A    between atoms: C_26  and  O_34
   12  A    between atoms: C_27  and  C_37
   13  A    between atoms: C_29  and  C_36
   14  A    between atoms: C_33  and  C_36
                            x       y       z     vdW  Elec       q    Type
                         _______ _______ _______ _____ _____    ______ ____

>  <TORSDO>
F 14

$$$$
=
 OpenBabel10262423003D

 37 39  0  0  1  0  0  0  0  0999 V2000
  182.3860  176.3250  136.9740 C   0  0  0  0  0  2  0  0  0  0  0  0
  180.6850  180.0900  135.2840 C   0  0  0  0  0  3  0  0  0  0  0  0
  182.8230  177.2560  138.1130 C   0  0  2  0  0  3  0  0  0  0  0  0
  181.0060  179.0490  136.1600 C   0  0  0  0  0  0  0  0  0  0  0  0
  180.9460  177.6500  135.6430 C   0  0  0  0  0  2  0  0  0  0  0  0
  181.3860  179.3420  137.4870 C   0  0  0  0  0  0  0  0  0  0  0  0
  181.1040  181.7110  137.0280 C   0  0  0  0  0  3  0  0  0  0  0  0
  182.2690  177.0400  135.7070 N   0  0  0  0  0  0  0  0  0  0  0  0
  181.4270  180.6760  137.9080 C   0  0  0  0  0  3  0  0  0  0  0  0
  181.7370  178.2820  138.4990 C   0  0  1  0  0  3  0  0  0  0  0  0
  180.7310  181.4250  135.7120 C   0  0  0  0  0  0  0  0  0  0  0  0
  180.4140  182.4820  134.8550 O   0  0  0  0  0  0  0  0  0  0  0  0
  180.6240  183.8440  135.2030 C   0  0  0  0  0  1  0  0  0  0  0  0
  184.6960  178.9330  139.2680 S   0  0  0  0  0  1  0  0  0  0  0  0
  184.1750  177.9300  137.8390 C   0  0  1  0  0  3  0  0  0  0  0  0
  185.2530  176.8940  137.5460 C   0  0  0  0  0  2  0  0  0  0  0  0
  185.6920  177.8500  135.2180 C   0  0  0  0  0  1  0  0  0  0  0  0
  186.2910  177.4340  136.5680 C   0  0  2  0  0  3  0  0  0  0  0  0
  187.8130  176.1360  137.8070 O   0  0  0  0  0  0  0  0  0  0  0  0
  187.5030  176.5840  136.5240 N   0  0  0  0  0  0  0  0  0  0  0  0
  188.6640  177.0490  137.2740 C   0  0  2  0  0  0  0  0  0  0  0  0
  189.9770  176.4350  136.8370 C   0  0  0  0  0  1  0  0  0  0  0  0
  188.4950  178.4530  139.4640 C   0  0  0  0  0  1  0  0  0  0  0  0
  188.8600  179.4060  137.3520 O   0  0  0  0  0  0  0  0  0  0  0  0
  188.6560  178.3810  137.9810 C   0  0  0  0  0  0  0  0  0  0  0  0
  182.4320  176.1000  134.5940 C   0  0  0  0  0  2  0  0  0  0  0  0
  181.4410  174.9350  134.6250 C   0  0  0  0  0  1  0  0  0  0  0  0
  180.5640  177.7870  139.3640 C   0  0  1  0  0  3  0  0  0  0  0  0
  180.0700  176.4080  139.0210 C   0  0  0  0  0  0  0  0  0  0  0  0
  179.1700  176.2690  138.0470 C   0  0  0  0  0  2  0  0  0  0  0  0
  179.6420  174.0440  139.6400 C   0  0  0  0  0  1  0  0  0  0  0  0
  180.6380  175.1880  139.6820 C   0  0  0  0  0  2  0  0  0  0  0  0
  180.8420  177.9400  140.8560 C   0  0  0  0  0  2  0  0  0  0  0  0
  180.9080  179.4080  141.2340 C   0  0  0  0  0  2  0  0  0  0  0  0
  180.0840  179.6430  142.4820 C   0  0  0  0  0  2  0  0  0  0  0  0
  179.7260  178.4270  144.2860 C   0  0  0  0  0  1  0  0  0  0  0  0
  180.7340  179.0810  143.5800 O   0  0  0  0  0  0  0  0  0  0  0  0
  1  3  1  0  0  0  0
  2 11  2  0  0  0  0
  2  4  1  0  0  0  0
  3 15  1  6  0  0  0
  3 10  1  0  0  0  0
  4  6  2  0  0  0  0
  5  8  1  0  0  0  0
  5  4  1  0  0  0  0
  6  9  1  0  0  0  0
  6 10  1  0  0  0  0
  7  9  2  0  0  0  0
  8  1  1  0  0  0  0
 10 28  1  6  0  0  0
 11  7  1  0  0  0  0
 12 13  1  0  0  0  0
 12 11  1  0  0  0  0
 15 14  1  1  0  0  0
 16 15  1  0  0  0  0
 18 17  1  6  0  0  0
 18 16  1  0  0  0  0
 20 18  1  0  0  0  0
 20 21  1  0  0  0  0
 20 19  1  0  0  0  0
 21 22  1  6  0  0  0
 21 19  1  0  0  0  0
 21 25  1  0  0  0  0
 24 25  2  0  0  0  0
 25 23  1  0  0  0  0
 26 27  1  0  0  0  0
 26  8  1  0  0  0  0
 28 33  1  1  0  0  0
 29 28  1  0  0  0  0
 29 32  1  0  0  0  0
 30 29  2  0  0  0  0
 31 32  1  0  0  0  0
 33 34  1  0  0  0  0
 34 35  1  0  0  0  0
 35 37  1  0  0  0  0
 37 36  1  0  0  0  0
M  END
>  <MODEL>
3

>  <REMARK>
 VINA RESULT:      -4.1      3.130      6.528
  Name = 
  14 active torsions:
  status: ('A' for Active; 'I' for Inactive)
    1  A    between atoms: C_1  and  C_12
    2  A    between atoms: C_1  and  C_36
    3  A    between atoms: O_3  and  C_32
    4  A    between atoms: N_6  and  C_37
    5  A    between atoms: C_8  and  C_35
    6  A    between atoms: C_10  and  C_14
    7  A    between atoms: C_14  and  C_27
    8  A    between atoms: C_17  and  C_26
    9  A    between atoms: C_17  and  C_33
   10  A    between atoms: C_22  and  N_24
   11  A    between atoms: C_26  and  O_34
   12  A    between atoms: C_27  and  C_37
   13  A    between atoms: C_29  and  C_36
   14  A    between atoms: C_33  and  C_36
                            x       y       z     vdW  Elec       q    Type
                         _______ _______ _______ _____ _____    ______ ____

>  <TORSDO>
F 14

$$$$
=
 OpenBabel10262423003D

 37 39  0  0  1  0  0  0  0  0999 V2000
  183.5760  177.3670  139.5810 C   0  0  0  0  0  2  0  0  0  0  0  0
  181.7070  181.1140  138.0320 C   0  0  0  0  0  3  0  0  0  0  0  0
  182.5910  177.5780  140.7380 C   0  0  2  0  0  3  0  0  0  0  0  0
  181.8800  179.8310  138.5590 C   0  0  0  0  0  0  0  0  0  0  0  0
  182.9240  178.9550  137.9510 C   0  0  0  0  0  2  0  0  0  0  0  0
  181.0840  179.4060  139.6450 C   0  0  0  0  0  0  0  0  0  0  0  0
  179.9580  181.5580  139.6410 C   0  0  0  0  0  3  0  0  0  0  0  0
  183.9390  178.6290  138.9450 N   0  0  0  0  0  0  0  0  0  0  0  0
  180.1260  180.2780  140.1730 C   0  0  0  0  0  3  0  0  0  0  0  0
  181.1960  178.0370  140.2640 C   0  0  1  0  0  3  0  0  0  0  0  0
  180.7460  181.9840  138.5690 C   0  0  0  0  0  0  0  0  0  0  0  0
  180.5570  183.2710  138.0590 O   0  0  0  0  0  0  0  0  0  0  0  0
  179.3670  183.6640  137.3890 C   0  0  0  0  0  1  0  0  0  0  0  0
  181.8390  179.0070  142.9860 S   0  0  0  0  0  1  0  0  0  0  0  0
  183.1540  178.4980  141.8320 C   0  0  1  0  0  3  0  0  0  0  0  0
  184.2570  177.8000  142.6190 C   0  0  0  0  0  2  0  0  0  0  0  0
  185.7590  179.6780  141.7580 C   0  0  0  0  0  1  0  0  0  0  0  0
  185.4060  178.7520  142.9290 C   0  0  2  0  0  3  0  0  0  0  0  0
  186.0530  177.0050  144.3670 O   0  0  0  0  0  0  0  0  0  0  0  0
  186.5340  178.0590  143.5910 N   0  0  0  0  0  0  0  0  0  0  0  0
  186.5510  178.0670  145.0490 C   0  0  2  0  0  0  0  0  0  0  0  0
  187.9080  177.7810  145.6600 C   0  0  0  0  0  1  0  0  0  0  0  0
  184.2390  178.1750  146.2480 C   0  0  0  0  0  1  0  0  0  0  0  0
  185.7540  179.9640  146.2180 O   0  0  0  0  0  0  0  0  0  0  0  0
  185.5180  178.8300  145.8390 C   0  0  0  0  0  0  0  0  0  0  0  0
  185.2440  178.4920  138.2890 C   0  0  0  0  0  2  0  0  0  0  0  0
  185.3560  177.2520  137.4000 C   0  0  0  0  0  1  0  0  0  0  0  0
  180.2580  176.9700  139.6730 C   0  0  1  0  0  3  0  0  0  0  0  0
  179.9870  177.1210  138.2000 C   0  0  0  0  0  0  0  0  0  0  0  0
  178.9310  177.8340  137.8080 C   0  0  0  0  0  2  0  0  0  0  0  0
  180.1700  176.0970  135.9470 C   0  0  0  0  0  1  0  0  0  0  0  0
  180.9300  176.5710  137.1730 C   0  0  0  0  0  2  0  0  0  0  0  0
  180.6940  175.5530  140.0320 C   0  0  0  0  0  2  0  0  0  0  0  0
  179.5070  174.7410  140.5150 C   0  0  0  0  0  2  0  0  0  0  0  0
  179.3530  173.5100  139.6470 C   0  0  0  0  0  2  0  0  0  0  0  0
  179.0620  172.7110  137.6130 C   0  0  0  0  0  1  0  0  0  0  0  0
  179.0390  173.8970  138.3450 O   0  0  0  0  0  0  0  0  0  0  0  0
  1  3  1  0  0  0  0
  2  4  2  0  0  0  0
  2 11  1  0  0  0  0
  3 15  1  1  0  0  0
  4  6  1  0  0  0  0
  5  4  1  0  0  0  0
  5  8  1  0  0  0  0
  6  9  2  0  0  0  0
  6 10  1  0  0  0  0
  7  9  1  0  0  0  0
  8  1  1  0  0  0  0
 10 28  1  6  0  0  0
 10  3  1  0  0  0  0
 11  7  2  0  0  0  0
 12 11  1  0  0  0  0
 13 12  1  0  0  0  0
 15 16  1  0  0  0  0
 15 14  1  1  0  0  0
 16 18  1  0  0  0  0
 18 17  1  6  0  0  0
 18 20  1  0  0  0  0
 19 21  1  0  0  0  0
 20 19  1  0  0  0  0
 20 21  1  0  0  0  0
 21 22  1  1  0  0  0
 21 25  1  0  0  0  0
 25 24  2  0  0  0  0
 25 23  1  0  0  0  0
 26  8  1  0  0  0  0
 27 26  1  0  0  0  0
 28 33  1  6  0  0  0
 29 28  1  0  0  0  0
 30 29  2  0  0  0  0
 31 32  1  0  0  0  0
 32 29  1  0  0  0  0
 33 34  1  0  0  0  0
 35 34  1  0  0  0  0
 36 37  1  0  0  0  0
 37 35  1  0  0  0  0
M  END
>  <MODEL>
4

>  <REMARK>
 VINA RESULT:      -3.9      2.686      7.482
  Name = 
  14 active torsions:
  status: ('A' for Active; 'I' for Inactive)
    1  A    between atoms: C_1  and  C_12
    2  A    between atoms: C_1  and  C_36
    3  A    between atoms: O_3  and  C_32
    4  A    between atoms: N_6  and  C_37
    5  A    between atoms: C_8  and  C_35
    6  A    between atoms: C_10  and  C_14
    7  A    between atoms: C_14  and  C_27
    8  A    between atoms: C_17  and  C_26
    9  A    between atoms: C_17  and  C_33
   10  A    between atoms: C_22  and  N_24
   11  A    between atoms: C_26  and  O_34
   12  A    between atoms: C_27  and  C_37
   13  A    between atoms: C_29  and  C_36
   14  A    between atoms: C_33  and  C_36
                            x       y       z     vdW  Elec       q    Type
                         _______ _______ _______ _____ _____    ______ ____

>  <TORSDO>
F 14

$$$$
=
 OpenBabel10262423003D

 37 39  0  0  1  0  0  0  0  0999 V2000
  183.7490  177.5240  136.6370 C   0  0  0  0  0  2  0  0  0  0  0  0
  184.6230  178.6420  140.8700 C   0  0  0  0  0  3  0  0  0  0  0  0
  182.3310  177.3120  137.1840 C   0  0  2  0  0  3  0  0  0  0  0  0
  184.0280  178.5690  139.6070 C   0  0  0  0  0  0  0  0  0  0  0  0
  184.9170  178.5730  138.4080 C   0  0  0  0  0  2  0  0  0  0  0  0
  182.6230  178.4810  139.4980 C   0  0  0  0  0  0  0  0  0  0  0  0
  182.4480  178.5510  141.9190 C   0  0  0  0  0  3  0  0  0  0  0  0
  184.7610  177.3260  137.6700 N   0  0  0  0  0  0  0  0  0  0  0  0
  181.8460  178.4770  140.6610 C   0  0  0  0  0  3  0  0  0  0  0  0
  181.9010  178.4110  138.1770 C   0  0  1  0  0  3  0  0  0  0  0  0
  183.8370  178.6340  142.0320 C   0  0  0  0  0  0  0  0  0  0  0  0
  184.4100  178.7060  143.3040 O   0  0  0  0  0  0  0  0  0  0  0  0
  185.7220  178.2370  143.5830 C   0  0  0  0  0  1  0  0  0  0  0  0
  180.8950  175.9340  139.1070 S   0  0  0  0  0  1  0  0  0  0  0  0
  182.1270  175.9040  137.7630 C   0  0  1  0  0  3  0  0  0  0  0  0
  181.6580  174.9320  136.6870 C   0  0  0  0  0  2  0  0  0  0  0  0
  183.2490  174.8970  134.6900 C   0  0  0  0  0  1  0  0  0  0  0  0
  182.8360  174.2400  136.0130 C   0  0  2  0  0  3  0  0  0  0  0  0
  182.6590  172.2850  137.3110 O   0  0  0  0  0  0  0  0  0  0  0  0
  182.6790  172.7670  136.0030 N   0  0  0  0  0  0  0  0  0  0  0  0
  183.7640  171.9830  136.5820 C   0  0  2  0  0  0  0  0  0  0  0  0
  183.7920  170.5340  136.1410 C   0  0  0  0  0  1  0  0  0  0  0  0
  186.1560  172.9210  136.1440 C   0  0  0  0  0  1  0  0  0  0  0  0
  185.1000  173.0210  138.2360 O   0  0  0  0  0  0  0  0  0  0  0  0
  185.0250  172.6410  137.0790 C   0  0  0  0  0  0  0  0  0  0  0  0
  186.0370  176.9600  137.0450 C   0  0  0  0  0  2  0  0  0  0  0  0
  186.1250  177.3370  135.5650 C   0  0  0  0  0  1  0  0  0  0  0  0
  181.4630  179.7670  137.5960 C   0  0  1  0  0  3  0  0  0  0  0  0
  180.3040  179.6940  136.6390 C   0  0  0  0  0  0  0  0  0  0  0  0
  179.0650  179.8020  137.1180 C   0  0  0  0  0  2  0  0  0  0  0  0
  179.8400  178.3660  134.5950 C   0  0  0  0  0  1  0  0  0  0  0  0
  180.5190  179.6010  135.1580 C   0  0  0  0  0  2  0  0  0  0  0  0
  181.2440  180.8170  138.6800 C   0  0  0  0  0  2  0  0  0  0  0  0
  181.9910  182.0920  138.3390 C   0  0  0  0  0  2  0  0  0  0  0  0
  181.0290  183.0920  137.7340 C   0  0  0  0  0  2  0  0  0  0  0  0
  180.5490  184.2590  135.9260 C   0  0  0  0  0  1  0  0  0  0  0  0
  181.1560  183.0760  136.3460 O   0  0  0  0  0  0  0  0  0  0  0  0
  1  3  1  0  0  0  0
  1  8  1  0  0  0  0
  2 11  1  0  0  0  0
  3 15  1  1  0  0  0
  3 10  1  0  0  0  0
  4  2  2  0  0  0  0
  5  4  1  0  0  0  0
  6  4  1  0  0  0  0
  6  9  2  0  0  0  0
  7 11  2  0  0  0  0
  8  5  1  0  0  0  0
  9  7  1  0  0  0  0
 10 28  1  6  0  0  0
 10  6  1  0  0  0  0
 11 12  1  0  0  0  0
 12 13  1  0  0  0  0
 15 14  1  1  0  0  0
 16 15  1  0  0  0  0
 18 17  1  6  0  0  0
 18 16  1  0  0  0  0
 20 18  1  0  0  0  0
 20 21  1  0  0  0  0
 20 19  1  0  0  0  0
 21 22  1  6  0  0  0
 21 25  1  0  0  0  0
 21 19  1  0  0  0  0
 23 25  1  0  0  0  0
 25 24  2  0  0  0  0
 26  8  1  0  0  0  0
 27 26  1  0  0  0  0
 28 33  1  1  0  0  0
 29 30  2  0  0  0  0
 29 28  1  0  0  0  0
 31 32  1  0  0  0  0
 32 29  1  0  0  0  0
 34 33  1  0  0  0  0
 35 34  1  0  0  0  0
 36 37  1  0  0  0  0
 37 35  1  0  0  0  0
M  END
>  <MODEL>
5

>  <REMARK>
 VINA RESULT:      -3.8      1.267      1.980
  Name = 
  14 active torsions:
  status: ('A' for Active; 'I' for Inactive)
    1  A    between atoms: C_1  and  C_12
    2  A    between atoms: C_1  and  C_36
    3  A    between atoms: O_3  and  C_32
    4  A    between atoms: N_6  and  C_37
    5  A    between atoms: C_8  and  C_35
    6  A    between atoms: C_10  and  C_14
    7  A    between atoms: C_14  and  C_27
    8  A    between atoms: C_17  and  C_26
    9  A    between atoms: C_17  and  C_33
   10  A    between atoms: C_22  and  N_24
   11  A    between atoms: C_26  and  O_34
   12  A    between atoms: C_27  and  C_37
   13  A    between atoms: C_29  and  C_36
   14  A    between atoms: C_33  and  C_36
                            x       y       z     vdW  Elec       q    Type
                         _______ _______ _______ _____ _____    ______ ____

>  <TORSDO>
F 14

$$$$
=
 OpenBabel10262423003D

 37 39  0  0  1  0  0  0  0  0999 V2000
  184.1790  177.8730  141.1740 C   0  0  0  0  0  2  0  0  0  0  0  0
  182.6490  181.1220  138.5210 C   0  0  0  0  0  3  0  0  0  0  0  0
  182.7510  177.9170  141.7340 C   0  0  2  0  0  3  0  0  0  0  0  0
  182.7670  179.9150  139.2170 C   0  0  0  0  0  0  0  0  0  0  0  0
  184.1020  179.2490  139.2490 C   0  0  0  0  0  2  0  0  0  0  0  0
  181.6420  179.3720  139.8740 C   0  0  0  0  0  0  0  0  0  0  0  0
  180.3080  181.2530  139.1110 C   0  0  0  0  0  3  0  0  0  0  0  0
  184.5820  179.1630  140.6230 N   0  0  0  0  0  0  0  0  0  0  0  0
  180.4190  180.0480  139.8100 C   0  0  0  0  0  3  0  0  0  0  0  0
  181.6790  178.0720  140.6350 C   0  0  1  0  0  3  0  0  0  0  0  0
  181.4200  181.7960  138.4640 C   0  0  0  0  0  0  0  0  0  0  0  0
  181.2780  183.0030  137.7740 O   0  0  0  0  0  0  0  0  0  0  0  0
  180.2650  183.2180  136.8010 C   0  0  0  0  0  1  0  0  0  0  0  0
  180.8220  179.3100  143.1470 S   0  0  0  0  0  1  0  0  0  0  0  0
  182.5860  178.9630  142.8460 C   0  0  1  0  0  3  0  0  0  0  0  0
  183.2210  178.4840  144.1460 C   0  0  0  0  0  2  0  0  0  0  0  0
  184.5800  180.6030  143.7130 C   0  0  0  0  0  1  0  0  0  0  0  0
  184.4860  179.2710  144.4680 C   0  0  2  0  0  3  0  0  0  0  0  0
  185.4240  177.2090  145.1050 O   0  0  0  0  0  0  0  0  0  0  0  0
  185.6910  178.4110  144.4500 N   0  0  0  0  0  0  0  0  0  0  0  0
  186.2710  178.0580  145.7410 C   0  0  2  0  0  0  0  0  0  0  0  0
  187.7140  177.6000  145.6730 C   0  0  0  0  0  1  0  0  0  0  0  0
  186.4420  179.7210  147.7410 C   0  0  0  0  0  1  0  0  0  0  0  0
  184.6440  178.2450  147.4480 O   0  0  0  0  0  0  0  0  0  0  0  0
  185.7230  178.6250  147.0260 C   0  0  0  0  0  0  0  0  0  0  0  0
  186.0440  179.2710  140.6410 C   0  0  0  0  0  2  0  0  0  0  0  0
  186.7220  178.2530  141.5600 C   0  0  0  0  0  1  0  0  0  0  0  0
  181.3100  176.8210  139.8180 C   0  0  1  0  0  3  0  0  0  0  0  0
  179.8540  176.4440  139.8720 C   0  0  0  0  0  0  0  0  0  0  0  0
  179.0540  176.8140  138.8710 C   0  0  0  0  0  2  0  0  0  0  0  0
  179.4250  174.1150  140.6100 C   0  0  0  0  0  1  0  0  0  0  0  0
  179.3110  175.5840  140.9730 C   0  0  0  0  0  2  0  0  0  0  0  0
  181.8280  176.8940  138.3850 C   0  0  0  0  0  2  0  0  0  0  0  0
  182.3930  175.5520  137.9590 C   0  0  0  0  0  2  0  0  0  0  0  0
  183.7830  175.7490  137.3910 C   0  0  0  0  0  2  0  0  0  0  0  0
  185.1830  177.1280  136.3910 C   0  0  0  0  0  1  0  0  0  0  0  0
  183.8330  176.9590  136.6990 O   0  0  0  0  0  0  0  0  0  0  0  0
  1  3  1  0  0  0  0
  2  4  1  0  0  0  0
  3 15  1  1  0  0  0
  4  5  1  0  0  0  0
  4  6  2  0  0  0  0
  5  8  1  0  0  0  0
  6 10  1  0  0  0  0
  7  9  2  0  0  0  0
  8 26  1  0  0  0  0
  8  1  1  0  0  0  0
  9  6  1  0  0  0  0
 10 28  1  6  0  0  0
 10  3  1  0  0  0  0
 11  2  2  0  0  0  0
 11  7  1  0  0  0  0
 12 11  1  0  0  0  0
 13 12  1  0  0  0  0
 15 14  1  1  0  0  0
 15 16  1  0  0  0  0
 16 18  1  0  0  0  0
 18 17  1  6  0  0  0
 19 21  1  0  0  0  0
 20 18  1  0  0  0  0
 20 19  1  0  0  0  0
 20 21  1  0  0  0  0
 21 22  1  1  0  0  0
 21 25  1  0  0  0  0
 25 24  2  0  0  0  0
 25 23  1  0  0  0  0
 26 27  1  0  0  0  0
 28 33  1  6  0  0  0
 28 29  1  0  0  0  0
 29 32  1  0  0  0  0
 30 29  2  0  0  0  0
 31 32  1  0  0  0  0
 34 33  1  0  0  0  0
 35 34  1  0  0  0  0
 36 37  1  0  0  0  0
 37 35  1  0  0  0  0
M  END
>  <MODEL>
6

>  <REMARK>
 VINA RESULT:      -3.8      3.245      7.701
  Name = 
  14 active torsions:
  status: ('A' for Active; 'I' for Inactive)
    1  A    between atoms: C_1  and  C_12
    2  A    between atoms: C_1  and  C_36
    3  A    between atoms: O_3  and  C_32
    4  A    between atoms: N_6  and  C_37
    5  A    between atoms: C_8  and  C_35
    6  A    between atoms: C_10  and  C_14
    7  A    between atoms: C_14  and  C_27
    8  A    between atoms: C_17  and  C_26
    9  A    between atoms: C_17  and  C_33
   10  A    between atoms: C_22  and  N_24
   11  A    between atoms: C_26  and  O_34
   12  A    between atoms: C_27  and  C_37
   13  A    between atoms: C_29  and  C_36
   14  A    between atoms: C_33  and  C_36
                            x       y       z     vdW  Elec       q    Type
                         _______ _______ _______ _____ _____    ______ ____

>  <TORSDO>
F 14

$$$$
=
 OpenBabel10262423003D

 37 39  0  0  1  0  0  0  0  0999 V2000
  184.7140  177.7660  136.6100 C   0  0  0  0  0  2  0  0  0  0  0  0
  184.7730  178.7060  140.9740 C   0  0  0  0  0  3  0  0  0  0  0  0
  183.3580  177.1370  136.9560 C   0  0  2  0  0  3  0  0  0  0  0  0
  184.3640  178.5860  139.6420 C   0  0  0  0  0  0  0  0  0  0  0  0
  185.3450  178.9310  138.5710 C   0  0  0  0  0  2  0  0  0  0  0  0
  183.0590  178.1370  139.3480 C   0  0  0  0  0  0  0  0  0  0  0  0
  182.6040  177.9480  141.7260 C   0  0  0  0  0  3  0  0  0  0  0  0
  185.6200  177.7560  137.7540 N   0  0  0  0  0  0  0  0  0  0  0  0
  182.1890  177.8260  140.3980 C   0  0  0  0  0  3  0  0  0  0  0  0
  182.5340  177.9920  137.9420 C   0  0  1  0  0  3  0  0  0  0  0  0
  183.8960  178.3880  142.0220 C   0  0  0  0  0  0  0  0  0  0  0  0
  184.2830  178.5000  143.3600 O   0  0  0  0  0  0  0  0  0  0  0  0
  184.4430  179.7530  144.0120 C   0  0  0  0  0  1  0  0  0  0  0  0
  181.8930  175.0720  138.0750 S   0  0  0  0  0  1  0  0  0  0  0  0
  183.4850  175.6820  137.4290 C   0  0  1  0  0  3  0  0  0  0  0  0
  183.9330  174.7740  136.2890 C   0  0  0  0  0  2  0  0  0  0  0  0
  184.7790  173.0350  137.9580 C   0  0  0  0  0  1  0  0  0  0  0  0
  185.0910  173.8790  136.7150 C   0  0  2  0  0  3  0  0  0  0  0  0
  186.9120  174.6210  135.4230 O   0  0  0  0  0  0  0  0  0  0  0  0
  186.3810  174.6060  136.7120 N   0  0  0  0  0  0  0  0  0  0  0  0
  187.5660  173.8480  136.3270 C   0  0  2  0  0  0  0  0  0  0  0  0
  188.8750  174.4620  136.7800 C   0  0  0  0  0  1  0  0  0  0  0  0
  186.9150  171.8740  134.7540 C   0  0  0  0  0  1  0  0  0  0  0  0
  187.9700  171.5710  136.8260 O   0  0  0  0  0  0  0  0  0  0  0  0
  187.4890  172.3700  136.0410 C   0  0  0  0  0  0  0  0  0  0  0  0
  187.0080  177.7990  137.2820 C   0  0  0  0  0  2  0  0  0  0  0  0
  188.0410  177.7250  138.4080 C   0  0  0  0  0  1  0  0  0  0  0  0
  181.8080  179.2270  137.3820 C   0  0  1  0  0  3  0  0  0  0  0  0
  180.8190  178.9300  136.2870 C   0  0  0  0  0  0  0  0  0  0  0  0
  181.1670  179.1700  135.0220 C   0  0  0  0  0  2  0  0  0  0  0  0
  179.3970  176.9370  135.8860 C   0  0  0  0  0  1  0  0  0  0  0  0
  179.5000  178.2830  136.5800 C   0  0  0  0  0  2  0  0  0  0  0  0
  181.1980  180.0890  138.4830 C   0  0  0  0  0  2  0  0  0  0  0  0
  181.5750  181.5450  138.2850 C   0  0  0  0  0  2  0  0  0  0  0  0
  180.4650  182.2540  137.5370 C   0  0  0  0  0  2  0  0  0  0  0  0
  179.9320  184.2180  136.6900 C   0  0  0  0  0  1  0  0  0  0  0  0
  180.5280  183.6210  137.8000 O   0  0  0  0  0  0  0  0  0  0  0  0
  1  3  1  0  0  0  0
  1  8  1  0  0  0  0
  2 11  1  0  0  0  0
  3 15  1  1  0  0  0
  3 10  1  0  0  0  0
  4  2  2  0  0  0  0
  5  4  1  0  0  0  0
  6  4  1  0  0  0  0
  6  9  2  0  0  0  0
  7 11  2  0  0  0  0
  8  5  1  0  0  0  0
  9  7  1  0  0  0  0
 10 28  1  6  0  0  0
 10  6  1  0  0  0  0
 11 12  1  0  0  0  0
 12 13  1  0  0  0  0
 15 14  1  6  0  0  0
 16 18  1  0  0  0  0
 16 15  1  0  0  0  0
 18 17  1  1  0  0  0
 19 21  1  0  0  0  0
 19 20  1  0  0  0  0
 20 18  1  0  0  0  0
 21 20  1  0  0  0  0
 21 22  1  1  0  0  0
 23 25  1  0  0  0  0
 25 21  1  0  0  0  0
 25 24  2  0  0  0  0
 26  8  1  0  0  0  0
 26 27  1  0  0  0  0
 28 33  1  1  0  0  0
 29 32  1  0  0  0  0
 29 28  1  0  0  0  0
 30 29  2  0  0  0  0
 31 32  1  0  0  0  0
 34 33  1  0  0  0  0
 35 37  1  0  0  0  0
 35 34  1  0  0  0  0
 36 37  1  0  0  0  0
M  END
>  <MODEL>
7

>  <REMARK>
 VINA RESULT:      -3.6      2.310      3.004
  Name = 
  14 active torsions:
  status: ('A' for Active; 'I' for Inactive)
    1  A    between atoms: C_1  and  C_12
    2  A    between atoms: C_1  and  C_36
    3  A    between atoms: O_3  and  C_32
    4  A    between atoms: N_6  and  C_37
    5  A    between atoms: C_8  and  C_35
    6  A    between atoms: C_10  and  C_14
    7  A    between atoms: C_14  and  C_27
    8  A    between atoms: C_17  and  C_26
    9  A    between atoms: C_17  and  C_33
   10  A    between atoms: C_22  and  N_24
   11  A    between atoms: C_26  and  O_34
   12  A    between atoms: C_27  and  C_37
   13  A    between atoms: C_29  and  C_36
   14  A    between atoms: C_33  and  C_36
                            x       y       z     vdW  Elec       q    Type
                         _______ _______ _______ _____ _____    ______ ____

>  <TORSDO>
F 14

$$$$
=
 OpenBabel10262423003D

 37 39  0  0  1  0  0  0  0  0999 V2000
  189.2420  178.0110  136.6090 C   0  0  0  0  0  2  0  0  0  0  0  0
  187.1270  174.1810  135.7180 C   0  0  0  0  0  3  0  0  0  0  0  0
  190.0820  177.1140  137.5270 C   0  0  2  0  0  3  0  0  0  0  0  0
  188.1300  175.1350  135.9140 C   0  0  0  0  0  0  0  0  0  0  0  0
  187.9230  176.5000  135.3490 C   0  0  0  0  0  2  0  0  0  0  0  0
  189.2910  174.7910  136.6410 C   0  0  0  0  0  0  0  0  0  0  0  0
  188.4150  172.5470  136.9480 C   0  0  0  0  0  3  0  0  0  0  0  0
  187.8930  177.4830  136.4260 N   0  0  0  0  0  0  0  0  0  0  0  0
  189.4210  173.4940  137.1480 C   0  0  0  0  0  3  0  0  0  0  0  0
  190.4250  175.7530  136.8870 C   0  0  1  0  0  3  0  0  0  0  0  0
  187.2630  172.8830  136.2330 C   0  0  0  0  0  0  0  0  0  0  0  0
  186.2730  171.9150  136.0500 O   0  0  0  0  0  0  0  0  0  0  0  0
  184.8930  172.2370  135.9430 C   0  0  0  0  0  1  0  0  0  0  0  0
  190.6270  176.1270  140.0550 S   0  0  0  0  0  1  0  0  0  0  0  0
  189.4600  176.9500  138.9220 C   0  0  1  0  0  3  0  0  0  0  0  0
  189.0740  178.3020  139.5110 C   0  0  0  0  0  2  0  0  0  0  0  0
  186.9920  178.6080  140.9590 C   0  0  0  0  0  1  0  0  0  0  0  0
  188.4540  178.1470  140.8950 C   0  0  2  0  0  3  0  0  0  0  0  0
  190.3270  177.6840  142.2410 O   0  0  0  0  0  0  0  0  0  0  0  0
  189.3540  178.6420  141.9610 N   0  0  0  0  0  0  0  0  0  0  0  0
  189.3890  177.8790  143.2030 C   0  0  2  0  0  0  0  0  0  0  0  0
  189.9280  178.6460  144.3930 C   0  0  0  0  0  1  0  0  0  0  0  0
  187.1920  176.8560  144.1630 C   0  0  0  0  0  1  0  0  0  0  0  0
  188.7510  175.6180  142.9230 O   0  0  0  0  0  0  0  0  0  0  0  0
  188.4790  176.6970  143.4210 C   0  0  0  0  0  0  0  0  0  0  0  0
  186.9810  178.5750  136.0700 C   0  0  0  0  0  2  0  0  0  0  0  0
  186.2630  178.3640  134.7360 C   0  0  0  0  0  1  0  0  0  0  0  0
  191.5520  175.7200  135.8400 C   0  0  1  0  0  3  0  0  0  0  0  0
  192.9280  175.9800  136.3920 C   0  0  0  0  0  0  0  0  0  0  0  0
  193.8760  176.4330  135.5710 C   0  0  0  0  0  2  0  0  0  0  0  0
  194.4940  175.0340  138.0660 C   0  0  0  0  0  1  0  0  0  0  0  0
  193.2230  175.8340  137.8540 C   0  0  0  0  0  2  0  0  0  0  0  0
  191.5090  174.4590  134.9830 C   0  0  0  0  0  2  0  0  0  0  0  0
  192.2850  173.3400  135.6500 C   0  0  0  0  0  2  0  0  0  0  0  0
  192.2700  172.1170  134.7580 C   0  0  0  0  0  2  0  0  0  0  0  0
  194.0610  171.5940  135.9330 C   0  0  0  0  0  1  0  0  0  0  0  0
  192.8840  171.0530  135.4190 O   0  0  0  0  0  0  0  0  0  0  0  0
  1  3  1  0  0  0  0
  2  4  2  0  0  0  0
  2 11  1  0  0  0  0
  3 15  1  1  0  0  0
  4  6  1  0  0  0  0
  5  4  1  0  0  0  0
  5  8  1  0  0  0  0
  6 10  1  0  0  0  0
  6  9  2  0  0  0  0
  7  9  1  0  0  0  0
  8  1  1  0  0  0  0
 10 28  1  6  0  0  0
 10  3  1  0  0  0  0
 11  7  2  0  0  0  0
 12 11  1  0  0  0  0
 13 12  1  0  0  0  0
 15 16  1  0  0  0  0
 15 14  1  1  0  0  0
 16 18  1  0  0  0  0
 18 17  1  6  0  0  0
 18 20  1  0  0  0  0
 19 21  1  0  0  0  0
 20 19  1  0  0  0  0
 20 21  1  0  0  0  0
 21 25  1  0  0  0  0
 21 22  1  1  0  0  0
 24 25  2  0  0  0  0
 25 23  1  0  0  0  0
 26  8  1  0  0  0  0
 27 26  1  0  0  0  0
 28 33  1  1  0  0  0
 28 29  1  0  0  0  0
 29 32  1  0  0  0  0
 30 29  2  0  0  0  0
 32 31  1  0  0  0  0
 33 34  1  0  0  0  0
 35 37  1  0  0  0  0
 35 34  1  0  0  0  0
 37 36  1  0  0  0  0
M  END
>  <MODEL>
8

>  <REMARK>
 VINA RESULT:      -3.3      5.460     10.823
  Name = 
  14 active torsions:
  status: ('A' for Active; 'I' for Inactive)
    1  A    between atoms: C_1  and  C_12
    2  A    between atoms: C_1  and  C_36
    3  A    between atoms: O_3  and  C_32
    4  A    between atoms: N_6  and  C_37
    5  A    between atoms: C_8  and  C_35
    6  A    between atoms: C_10  and  C_14
    7  A    between atoms: C_14  and  C_27
    8  A    between atoms: C_17  and  C_26
    9  A    between atoms: C_17  and  C_33
   10  A    between atoms: C_22  and  N_24
   11  A    between atoms: C_26  and  O_34
   12  A    between atoms: C_27  and  C_37
   13  A    between atoms: C_29  and  C_36
   14  A    between atoms: C_33  and  C_36
                            x       y       z     vdW  Elec       q    Type
                         _______ _______ _______ _____ _____    ______ ____

>  <TORSDO>
F 14

$$$$
=
 OpenBabel10262423003D

 37 39  0  0  1  0  0  0  0  0999 V2000
  185.6880  177.2510  135.5740 C   0  0  0  0  0  2  0  0  0  0  0  0
  184.7670  178.7550  139.6760 C   0  0  0  0  0  3  0  0  0  0  0  0
  184.7950  176.0810  136.0070 C   0  0  2  0  0  3  0  0  0  0  0  0
  184.6300  178.2380  138.3840 C   0  0  0  0  0  0  0  0  0  0  0  0
  185.4250  178.8640  137.2870 C   0  0  0  0  0  2  0  0  0  0  0  0
  183.7640  177.1460  138.1550 C   0  0  0  0  0  0  0  0  0  0  0  0
  183.1930  177.1250  140.5150 C   0  0  0  0  0  3  0  0  0  0  0  0
  186.3400  177.8830  136.7160 N   0  0  0  0  0  0  0  0  0  0  0  0
  183.0500  176.6030  139.2270 C   0  0  0  0  0  3  0  0  0  0  0  0
  183.5480  176.5370  136.7930 C   0  0  1  0  0  3  0  0  0  0  0  0
  184.0500  178.2020  140.7470 C   0  0  0  0  0  0  0  0  0  0  0  0
  184.1730  178.7020  142.0460 O   0  0  0  0  0  0  0  0  0  0  0  0
  185.3890  179.2370  142.5520 C   0  0  0  0  0  1  0  0  0  0  0  0
  184.4310  173.8240  137.5660 S   0  0  0  0  0  1  0  0  0  0  0  0
  185.5740  174.9890  136.7540 C   0  0  1  0  0  3  0  0  0  0  0  0
  186.4740  174.2110  135.8010 C   0  0  0  0  0  2  0  0  0  0  0  0
  187.7390  172.5240  137.2420 C   0  0  0  0  0  1  0  0  0  0  0  0
  187.7970  173.8440  136.4630 C   0  0  2  0  0  3  0  0  0  0  0  0
  188.9810  175.8640  136.2280 O   0  0  0  0  0  0  0  0  0  0  0  0
  188.4060  175.0010  137.1590 N   0  0  0  0  0  0  0  0  0  0  0  0
  189.8460  175.1760  137.0150 C   0  0  2  0  0  0  0  0  0  0  0  0
  190.4800  176.0450  138.0810 C   0  0  0  0  0  1  0  0  0  0  0  0
  190.8580  174.2700  134.7900 C   0  0  0  0  0  1  0  0  0  0  0  0
  191.2940  173.3090  136.8840 O   0  0  0  0  0  0  0  0  0  0  0  0
  190.6850  174.1690  136.2700 C   0  0  0  0  0  0  0  0  0  0  0  0
  187.5670  178.5540  136.2740 C   0  0  0  0  0  2  0  0  0  0  0  0
  188.4760  178.9920  137.4240 C   0  0  0  0  0  1  0  0  0  0  0  0
  182.3740  177.1250  135.9910 C   0  0  1  0  0  3  0  0  0  0  0  0
  181.1370  176.2680  135.9710 C   0  0  0  0  0  0  0  0  0  0  0  0
  180.1540  176.5730  135.1240 C   0  0  0  0  0  2  0  0  0  0  0  0
  181.0750  173.7880  135.9400 C   0  0  0  0  0  1  0  0  0  0  0  0
  181.0310  175.0300  136.8100 C   0  0  0  0  0  2  0  0  0  0  0  0
  182.0650  178.5650  136.3880 C   0  0  0  0  0  2  0  0  0  0  0  0
  180.9460  178.6030  137.4110 C   0  0  0  0  0  2  0  0  0  0  0  0
  180.8650  179.9880  138.0170 C   0  0  0  0  0  2  0  0  0  0  0  0
  180.3690  179.4760  140.1030 C   0  0  0  0  0  1  0  0  0  0  0  0
  181.4010  179.9630  139.3030 O   0  0  0  0  0  0  0  0  0  0  0  0
  1  3  1  0  0  0  0
  1  8  1  0  0  0  0
  2 11  1  0  0  0  0
  3 15  1  1  0  0  0
  3 10  1  0  0  0  0
  4  2  2  0  0  0  0
  5  4  1  0  0  0  0
  6  4  1  0  0  0  0
  6  9  2  0  0  0  0
  7 11  2  0  0  0  0
  8  5  1  0  0  0  0
  9  7  1  0  0  0  0
 10 28  1  6  0  0  0
 10  6  1  0  0  0  0
 11 12  1  0  0  0  0
 12 13  1  0  0  0  0
 15 14  1  6  0  0  0
 16 18  1  0  0  0  0
 16 15  1  0  0  0  0
 18 20  1  0  0  0  0
 18 17  1  1  0  0  0
 19 21  1  0  0  0  0
 19 20  1  0  0  0  0
 21 20  1  0  0  0  0
 21 22  1  1  0  0  0
 23 25  1  0  0  0  0
 25 24  2  0  0  0  0
 25 21  1  0  0  0  0
 26  8  1  0  0  0  0
 26 27  1  0  0  0  0
 28 33  1  1  0  0  0
 29 28  1  0  0  0  0
 29 32  1  0  0  0  0
 30 29  2  0  0  0  0
 31 32  1  0  0  0  0
 33 34  1  0  0  0  0
 34 35  1  0  0  0  0
 35 37  1  0  0  0  0
 37 36  1  0  0  0  0
M  END
>  <MODEL>
9

>  <REMARK>
 VINA RESULT:      -3.0      3.159      5.040
  Name = 
  14 active torsions:
  status: ('A' for Active; 'I' for Inactive)
    1  A    between atoms: C_1  and  C_12
    2  A    between atoms: C_1  and  C_36
    3  A    between atoms: O_3  and  C_32
    4  A    between atoms: N_6  and  C_37
    5  A    between atoms: C_8  and  C_35
    6  A    between atoms: C_10  and  C_14
    7  A    between atoms: C_14  and  C_27
    8  A    between atoms: C_17  and  C_26
    9  A    between atoms: C_17  and  C_33
   10  A    between atoms: C_22  and  N_24
   11  A    between atoms: C_26  and  O_34
   12  A    between atoms: C_27  and  C_37
   13  A    between atoms: C_29  and  C_36
   14  A    between atoms: C_33  and  C_36
                            x       y       z     vdW  Elec       q    Type
                         _______ _______ _______ _____ _____    ______ ____

>  <TORSDO>
F 14

$$$$
