=
 OpenBabel10262423393D

 34 40  0  0  1  0  0  0  0  0999 V2000
  183.9290  176.4230  138.3710 C   0  0  1  0  0  3  0  0  0  0  0  0
  183.5230  178.9750  138.2950 C   0  0  1  0  0  3  0  0  0  0  0  0
  181.2580  173.8150  136.1350 C   0  0  0  0  0  0  0  0  0  0  0  0
  185.8160  177.8740  137.9780 C   0  0  2  0  0  3  0  0  0  0  0  0
  182.4380  175.7400  135.0490 C   0  0  0  0  0  2  0  0  0  0  0  0
  180.4430  175.7450  138.7220 O   0  0  0  0  0  0  0  0  0  0  0  0
  185.1210  174.3310  136.5330 C   0  0  2  0  0  3  0  0  0  0  0  0
  183.2010  175.1000  138.1350 C   0  0  0  0  0  2  0  0  0  0  0  0
  185.7670  175.6930  136.7710 C   0  0  1  0  0  0  0  0  0  0  0  0
  179.8690  176.4730  137.6700 C   0  0  0  0  0  0  0  0  0  0  0  0
  187.1490  175.7140  137.0450 O   0  0  0  0  0  0  0  0  0  0  0  0
  180.3650  176.1090  140.1020 C   0  0  2  0  0  3  0  0  0  0  0  0
  179.1140  177.4540  137.9010 O   0  0  0  0  0  0  0  0  0  0  0  0
  180.0020  174.6270  135.9750 C   0  0  0  0  0  2  0  0  0  0  0  0
  185.4480  175.2550  135.3600 C   0  0  0  0  0  2  0  0  0  0  0  0
  183.6130  174.3390  136.8720 C   0  0  1  0  0  3  0  0  0  0  0  0
  187.0860  178.1820  137.1870 C   0  0  0  0  0  2  0  0  0  0  0  0
  184.9180  176.8500  137.2920 C   0  0  1  0  0  3  0  0  0  0  0  0
  178.9310  176.0610  140.5980 C   0  0  0  0  0  1  0  0  0  0  0  0
  187.6640  176.9200  136.5100 C   0  0  0  0  0  2  0  0  0  0  0  0
  181.5900  176.6870  135.8970 C   0  0  0  0  0  2  0  0  0  0  0  0
  182.4550  177.4970  140.1220 C   0  0  0  0  0  0  0  0  0  0  0  0
  180.2070  176.1260  136.2560 C   0  0  2  0  0  3  0  0  0  0  0  0
  180.9770  177.4810  140.3710 C   0  0  0  0  0  2  0  0  0  0  0  0
  182.5960  174.3660  135.7120 C   0  0  1  0  0  3  0  0  0  0  0  0
  181.1790  172.6730  136.5550 O   0  0  0  0  0  0  0  0  0  0  0  0
  185.0500  179.1290  138.4310 C   0  0  0  0  0  2  0  0  0  0  0  0
  183.2930  177.5210  141.1600 C   0  0  0  0  0  2  0  0  0  0  0  0
  182.9660  177.5790  138.7060 C   0  0  2  0  0  3  0  0  0  0  0  0
  182.7770  180.1670  138.8780 C   0  0  0  0  0  2  0  0  0  0  0  0
  181.2380  181.9600  138.1700 C   0  0  2  0  0  3  0  0  0  0  0  0
  180.4270  180.9310  138.9230 C   0  0  0  0  0  2  0  0  0  0  0  0
  180.5240  182.3780  137.0480 O   0  0  0  0  0  1  0  0  0  0  0  0
  181.5640  180.4870  138.0260 C   0  0  2  0  0  3  0  0  0  0  0  0
  1  8  1  6  0  0  0
  1 29  1  0  0  0  0
  2 27  1  0  0  0  0
  2 29  1  0  0  0  0
  2 30  1  1  0  0  0
  3 26  2  0  0  0  0
  4 17  1  6  0  0  0
  4 27  1  0  0  0  0
  5 25  1  0  0  0  0
  5 21  1  0  0  0  0
  6 12  1  0  0  0  0
  7 15  1  6  0  0  0
  7  9  1  0  0  0  0
  7 16  1  0  0  0  0
  9 15  1  6  0  0  0
  9 11  1  0  0  0  0
  9 18  1  0  0  0  0
 10 13  2  0  0  0  0
 10  6  1  0  0  0  0
 12 24  1  0  0  0  0
 12 19  1  6  0  0  0
 14  3  1  0  0  0  0
 14 23  1  0  0  0  0
 16  8  1  1  0  0  0
 18  4  1  0  0  0  0
 18  1  1  0  0  0  0
 20 11  1  0  0  0  0
 20 17  1  0  0  0  0
 21 23  1  0  0  0  0
 22 24  1  0  0  0  0
 22 28  2  0  0  0  0
 23 10  1  0  0  0  0
 25  3  1  0  0  0  0
 25 16  1  0  0  0  0
 29 22  1  0  0  0  0
 31 32  1  0  0  0  0
 33 31  1  0  0  0  0
 34 31  1  0  0  0  0
 34 30  1  0  0  0  0
 34 32  1  0  0  0  0
M  END
>  <MODEL>
1

>  <REMARK>
 VINA RESULT:      -5.1      0.000      0.000
  Name = 
  2 active torsions:
  status: ('A' for Active; 'I' for Inactive)
    1  A    between atoms: C_2  and  C_23
    2  A    between atoms: C_23  and  C_25
                            x       y       z     vdW  Elec       q    Type
                         _______ _______ _______ _____ _____    ______ ____

>  <TORSDO>
F 2

$$$$
=
 OpenBabel10262423393D

 34 40  0  0  1  0  0  0  0  0999 V2000
  185.4220  175.7590  135.6360 C   0  0  1  0  0  3  0  0  0  0  0  0
  186.2730  177.2440  137.5740 C   0  0  1  0  0  3  0  0  0  0  0  0
  186.3590  171.5100  135.6930 C   0  0  0  0  0  0  0  0  0  0  0  0
  183.8770  177.3020  136.6630 C   0  0  2  0  0  3  0  0  0  0  0  0
  185.2600  172.6450  137.6380 C   0  0  0  0  0  2  0  0  0  0  0  0
  188.5310  174.0190  135.4280 O   0  0  0  0  0  0  0  0  0  0  0  0
  183.1860  173.7570  135.2190 C   0  0  2  0  0  3  0  0  0  0  0  0
  185.7050  174.4180  134.9590 C   0  0  0  0  0  2  0  0  0  0  0  0
  182.9860  175.0900  135.9350 C   0  0  1  0  0  0  0  0  0  0  0  0
  188.7620  173.6200  136.7510 C   0  0  0  0  0  0  0  0  0  0  0  0
  181.8710  175.8650  135.5580 O   0  0  0  0  0  0  0  0  0  0  0  0
  189.2360  175.0660  134.7570 C   0  0  2  0  0  3  0  0  0  0  0  0
  189.7290  174.0920  137.4080 O   0  0  0  0  0  0  0  0  0  0  0  0
  187.5780  171.4150  136.5700 C   0  0  0  0  0  2  0  0  0  0  0  0
  182.6060  173.8040  136.6330 C   0  0  0  0  0  2  0  0  0  0  0  0
  184.6690  173.3200  135.2160 C   0  0  1  0  0  3  0  0  0  0  0  0
  182.4870  177.5740  137.2360 C   0  0  0  0  0  2  0  0  0  0  0  0
  184.1890  175.8150  136.5320 C   0  0  1  0  0  3  0  0  0  0  0  0
  190.7050  174.7180  134.5960 C   0  0  0  0  0  1  0  0  0  0  0  0
  181.4400  176.5690  136.7100 C   0  0  0  0  0  2  0  0  0  0  0  0
  186.5520  173.4280  137.8610 C   0  0  0  0  0  2  0  0  0  0  0  0
  187.6660  176.9050  135.4260 C   0  0  0  0  0  0  0  0  0  0  0  0
  187.8170  172.6760  137.4190 C   0  0  2  0  0  3  0  0  0  0  0  0
  189.0800  176.4100  135.4640 C   0  0  0  0  0  2  0  0  0  0  0  0
  185.1080  172.1970  136.1790 C   0  0  1  0  0  3  0  0  0  0  0  0
  186.3670  170.9670  134.6010 O   0  0  0  0  0  0  0  0  0  0  0  0
  185.0000  178.0860  137.3650 C   0  0  0  0  0  2  0  0  0  0  0  0
  187.3460  177.9110  134.6100 C   0  0  0  0  0  2  0  0  0  0  0  0
  186.6520  176.3210  136.3770 C   0  0  2  0  0  3  0  0  0  0  0  0
  187.4180  178.0730  138.1380 C   0  0  0  0  0  2  0  0  0  0  0  0
  188.8520  178.0090  140.1440 C   0  0  2  0  0  3  0  0  0  0  0  0
  189.7350  177.7630  138.9410 C   0  0  0  0  0  2  0  0  0  0  0  0
  189.2200  177.1410  141.1700 O   0  0  0  0  0  1  0  0  0  0  0  0
  188.3300  177.1970  138.9750 C   0  0  2  0  0  3  0  0  0  0  0  0
  1  8  1  1  0  0  0
  1 29  1  0  0  0  0
  1 18  1  0  0  0  0
  2 30  1  6  0  0  0
  3 25  1  0  0  0  0
  3 14  1  0  0  0  0
  4 17  1  1  0  0  0
  4 27  1  0  0  0  0
  5 21  1  0  0  0  0
  6 10  1  0  0  0  0
  7  9  1  0  0  0  0
  7 15  1  1  0  0  0
  9 18  1  0  0  0  0
  9 15  1  1  0  0  0
 10 13  2  0  0  0  0
 10 23  1  0  0  0  0
 11  9  1  0  0  0  0
 11 20  1  0  0  0  0
 12 19  1  1  0  0  0
 12  6  1  0  0  0  0
 12 24  1  0  0  0  0
 14 23  1  0  0  0  0
 16  8  1  1  0  0  0
 16  7  1  0  0  0  0
 16 25  1  0  0  0  0
 18  4  1  0  0  0  0
 20 17  1  0  0  0  0
 22 24  1  0  0  0  0
 22 29  1  0  0  0  0
 23 21  1  0  0  0  0
 25  5  1  0  0  0  0
 26  3  2  0  0  0  0
 27  2  1  0  0  0  0
 28 22  2  0  0  0  0
 29  2  1  0  0  0  0
 30 34  1  0  0  0  0
 31 33  1  0  0  0  0
 32 34  1  0  0  0  0
 32 31  1  0  0  0  0
 34 31  1  0  0  0  0
M  END
>  <MODEL>
2

>  <REMARK>
 VINA RESULT:      -5.0      2.802      6.911
  Name = 
  2 active torsions:
  status: ('A' for Active; 'I' for Inactive)
    1  A    between atoms: C_2  and  C_23
    2  A    between atoms: C_23  and  C_25
                            x       y       z     vdW  Elec       q    Type
                         _______ _______ _______ _____ _____    ______ ____

>  <TORSDO>
F 2

$$$$
=
 OpenBabel10262423393D

 34 40  0  0  1  0  0  0  0  0999 V2000
  186.0910  176.1670  136.1300 C   0  0  1  0  0  3  0  0  0  0  0  0
  187.3310  177.2420  138.1270 C   0  0  1  0  0  3  0  0  0  0  0  0
  186.1330  171.8340  135.7310 C   0  0  0  0  0  0  0  0  0  0  0  0
  184.9540  177.8730  137.4040 C   0  0  2  0  0  3  0  0  0  0  0  0
  185.3960  172.9570  137.8460 C   0  0  0  0  0  2  0  0  0  0  0  0
  188.7590  173.8720  135.5370 O   0  0  0  0  0  0  0  0  0  0  0  0
  183.4720  174.7070  135.6970 C   0  0  2  0  0  3  0  0  0  0  0  0
  186.0550  174.8750  135.3140 C   0  0  0  0  0  2  0  0  0  0  0  0
  183.5880  175.9710  136.5440 C   0  0  1  0  0  0  0  0  0  0  0  0
  188.9730  173.2990  136.7990 C   0  0  0  0  0  0  0  0  0  0  0  0
  182.6390  176.9890  136.3210 O   0  0  0  0  0  0  0  0  0  0  0  0
  189.6280  174.8210  134.9150 C   0  0  2  0  0  3  0  0  0  0  0  0
  190.0490  173.4970  137.4230 O   0  0  0  0  0  0  0  0  0  0  0  0
  187.3520  171.4070  136.5040 C   0  0  0  0  0  2  0  0  0  0  0  0
  182.9890  174.7220  137.1470 C   0  0  0  0  0  2  0  0  0  0  0  0
  184.8300  173.9860  135.5450 C   0  0  1  0  0  3  0  0  0  0  0  0
  183.6830  178.3560  138.0980 C   0  0  0  0  0  2  0  0  0  0  0  0
  184.9450  176.3740  137.1150 C   0  0  1  0  0  3  0  0  0  0  0  0
  190.9830  174.2040  134.6160 C   0  0  0  0  0  1  0  0  0  0  0  0
  182.4240  177.6400  137.5610 C   0  0  0  0  0  2  0  0  0  0  0  0
  186.8330  173.4380  138.0450 C   0  0  0  0  0  2  0  0  0  0  0  0
  188.5090  176.8570  135.8620 C   0  0  0  0  0  0  0  0  0  0  0  0
  187.8890  172.4990  137.4450 C   0  0  2  0  0  3  0  0  0  0  0  0
  189.7900  176.0870  135.7520 C   0  0  0  0  0  2  0  0  0  0  0  0
  185.0780  172.7030  136.3670 C   0  0  1  0  0  3  0  0  0  0  0  0
  185.9720  171.4170  134.5960 O   0  0  0  0  0  0  0  0  0  0  0  0
  186.2500  178.3380  138.0900 C   0  0  0  0  0  2  0  0  0  0  0  0
  188.3610  177.9860  135.1670 C   0  0  0  0  0  2  0  0  0  0  0  0
  187.4480  176.3910  136.8270 C   0  0  2  0  0  3  0  0  0  0  0  0
  188.6510  177.7620  138.6810 C   0  0  0  0  0  2  0  0  0  0  0  0
  190.0360  177.2390  140.6530 C   0  0  2  0  0  3  0  0  0  0  0  0
  190.8630  176.9460  139.4210 C   0  0  0  0  0  2  0  0  0  0  0  0
  190.2280  176.2230  141.5880 O   0  0  0  0  0  1  0  0  0  0  0  0
  189.3760  176.6550  139.4200 C   0  0  2  0  0  3  0  0  0  0  0  0
  1  8  1  1  0  0  0
  1 29  1  0  0  0  0
  1 18  1  0  0  0  0
  2 30  1  6  0  0  0
  3 25  1  0  0  0  0
  3 14  1  0  0  0  0
  4 27  1  1  0  0  0
  4 17  1  0  0  0  0
  5 21  1  0  0  0  0
  6 10  1  0  0  0  0
  7  9  1  0  0  0  0
  7 15  1  1  0  0  0
  9 18  1  0  0  0  0
  9 15  1  1  0  0  0
 10 13  2  0  0  0  0
 10 23  1  0  0  0  0
 11  9  1  0  0  0  0
 11 20  1  0  0  0  0
 12 19  1  1  0  0  0
 12  6  1  0  0  0  0
 12 24  1  0  0  0  0
 14 23  1  0  0  0  0
 16  8  1  1  0  0  0
 16  7  1  0  0  0  0
 16 25  1  0  0  0  0
 18  4  1  0  0  0  0
 20 17  1  0  0  0  0
 22 29  1  0  0  0  0
 23 21  1  0  0  0  0
 24 22  1  0  0  0  0
 25  5  1  0  0  0  0
 26  3  2  0  0  0  0
 27  2  1  0  0  0  0
 28 22  2  0  0  0  0
 29  2  1  0  0  0  0
 30 34  1  0  0  0  0
 31 33  1  0  0  0  0
 32 31  1  0  0  0  0
 34 32  1  0  0  0  0
 34 31  1  0  0  0  0
M  END
>  <MODEL>
3

>  <REMARK>
 VINA RESULT:      -4.7      2.782      7.192
  Name = 
  2 active torsions:
  status: ('A' for Active; 'I' for Inactive)
    1  A    between atoms: C_2  and  C_23
    2  A    between atoms: C_23  and  C_25
                            x       y       z     vdW  Elec       q    Type
                         _______ _______ _______ _____ _____    ______ ____

>  <TORSDO>
F 2

$$$$
=
 OpenBabel10262423393D

 34 40  0  0  1  0  0  0  0  0999 V2000
  179.7000  179.1330  137.0920 C   0  0  1  0  0  3  0  0  0  0  0  0
  181.7080  178.2660  135.7140 C   0  0  1  0  0  3  0  0  0  0  0  0
  180.0100  179.1820  141.4320 C   0  0  0  0  0  0  0  0  0  0  0  0
  180.4340  180.4290  135.1940 C   0  0  2  0  0  3  0  0  0  0  0  0
  181.7300  180.2750  139.9740 C   0  0  0  0  0  2  0  0  0  0  0  0
  180.0230  176.4930  139.4710 O   0  0  0  0  0  0  0  0  0  0  0  0
  178.9910  181.6710  138.5850 C   0  0  2  0  0  3  0  0  0  0  0  0
  179.1090  179.0590  138.5000 C   0  0  0  0  0  2  0  0  0  0  0  0
  179.6320  181.6740  137.2010 C   0  0  1  0  0  0  0  0  0  0  0  0
  181.3770  176.5520  139.8320 C   0  0  0  0  0  0  0  0  0  0  0  0
  179.0660  182.5210  136.2270 O   0  0  0  0  0  0  0  0  0  0  0  0
  179.4440  175.4820  138.6430 C   0  0  2  0  0  3  0  0  0  0  0  0
  182.1630  175.6110  139.5420 O   0  0  0  0  0  0  0  0  0  0  0  0
  181.0690  178.1570  141.7360 C   0  0  0  0  0  2  0  0  0  0  0  0
  180.2940  182.4280  138.3310 C   0  0  0  0  0  2  0  0  0  0  0  0
  179.2290  180.3390  139.3310 C   0  0  1  0  0  3  0  0  0  0  0  0
  180.7750  181.7920  134.5950 C   0  0  0  0  0  2  0  0  0  0  0  0
  180.3910  180.4400  136.7190 C   0  0  1  0  0  3  0  0  0  0  0  0
  179.5230  174.1200  139.3090 C   0  0  0  0  0  1  0  0  0  0  0  0
  180.1180  182.9480  135.3800 C   0  0  0  0  0  2  0  0  0  0  0  0
  182.1320  178.8870  139.4760 C   0  0  0  0  0  2  0  0  0  0  0  0
  179.8130  176.6840  136.4720 C   0  0  0  0  0  0  0  0  0  0  0  0
  181.9120  177.7710  140.5080 C   0  0  2  0  0  3  0  0  0  0  0  0
  180.0840  175.4370  137.2580 C   0  0  0  0  0  2  0  0  0  0  0  0
  180.2770  180.3070  140.4640 C   0  0  1  0  0  3  0  0  0  0  0  0
  178.9470  179.1350  142.0280 O   0  0  0  0  0  0  0  0  0  0  0  0
  181.2820  179.2750  134.6310 C   0  0  0  0  0  2  0  0  0  0  0  0
  178.9320  176.6490  135.4710 C   0  0  0  0  0  2  0  0  0  0  0  0
  180.6090  177.9310  136.7660 C   0  0  2  0  0  3  0  0  0  0  0  0
  182.4230  177.0610  135.1190 C   0  0  0  0  0  2  0  0  0  0  0  0
  184.2490  175.8700  136.2730 C   0  0  2  0  0  3  0  0  0  0  0  0
  184.0500  177.1940  136.9750 C   0  0  0  0  0  2  0  0  0  0  0  0
  185.6140  175.6190  136.1430 O   0  0  0  0  0  1  0  0  0  0  0  0
  183.8970  177.1070  135.4700 C   0  0  2  0  0  3  0  0  0  0  0  0
  1  8  1  1  0  0  0
  2 30  1  6  0  0  0
  2 29  1  0  0  0  0
  3 14  1  0  0  0  0
  3 26  2  0  0  0  0
  4 17  1  1  0  0  0
  4 18  1  0  0  0  0
  5 25  1  0  0  0  0
  6 10  1  0  0  0  0
  7 15  1  1  0  0  0
  7 16  1  0  0  0  0
  9 15  1  1  0  0  0
  9  7  1  0  0  0  0
 10 23  1  0  0  0  0
 11  9  1  0  0  0  0
 12 19  1  1  0  0  0
 12  6  1  0  0  0  0
 13 10  2  0  0  0  0
 16  8  1  6  0  0  0
 16 25  1  0  0  0  0
 17 20  1  0  0  0  0
 18  1  1  0  0  0  0
 18  9  1  0  0  0  0
 20 11  1  0  0  0  0
 21  5  1  0  0  0  0
 21 23  1  0  0  0  0
 22 29  1  0  0  0  0
 22 24  1  0  0  0  0
 23 14  1  0  0  0  0
 24 12  1  0  0  0  0
 25  3  1  0  0  0  0
 27  4  1  0  0  0  0
 27  2  1  0  0  0  0
 28 22  2  0  0  0  0
 29  1  1  0  0  0  0
 30 34  1  0  0  0  0
 31 32  1  0  0  0  0
 33 31  1  0  0  0  0
 34 31  1  0  0  0  0
 34 32  1  0  0  0  0
M  END
>  <MODEL>
4

>  <REMARK>
 VINA RESULT:      -4.7      2.021      6.467
  Name = 
  2 active torsions:
  status: ('A' for Active; 'I' for Inactive)
    1  A    between atoms: C_2  and  C_23
    2  A    between atoms: C_23  and  C_25
                            x       y       z     vdW  Elec       q    Type
                         _______ _______ _______ _____ _____    ______ ____

>  <TORSDO>
F 2

$$$$
=
 OpenBabel10262423393D

 34 40  0  0  1  0  0  0  0  0999 V2000
  182.6620  174.7670  135.5540 C   0  0  1  0  0  3  0  0  0  0  0  0
  182.3750  176.4270  137.5140 C   0  0  1  0  0  3  0  0  0  0  0  0
  185.9650  171.9360  135.6800 C   0  0  0  0  0  0  0  0  0  0  0  0
  180.4630  175.0500  136.5040 C   0  0  2  0  0  3  0  0  0  0  0  0
  184.3320  172.1430  137.5690 C   0  0  0  0  0  2  0  0  0  0  0  0
  186.1980  175.2510  135.4880 O   0  0  0  0  0  0  0  0  0  0  0  0
  182.0990  171.8320  135.0580 C   0  0  2  0  0  3  0  0  0  0  0  0
  183.7200  173.8790  134.8980 C   0  0  0  0  0  2  0  0  0  0  0  0
  181.1100  172.7610  135.7550 C   0  0  1  0  0  0  0  0  0  0  0  0
  186.5720  175.0460  136.8230 C   0  0  0  0  0  0  0  0  0  0  0  0
  179.7680  172.7170  135.3260 O   0  0  0  0  0  0  0  0  0  0  0  0
  186.1560  176.5240  134.8390 C   0  0  2  0  0  3  0  0  0  0  0  0
  187.0350  175.9910  137.5160 O   0  0  0  0  0  0  0  0  0  0  0  0
  186.9610  172.5760  136.6080 C   0  0  0  0  0  2  0  0  0  0  0  0
  181.5550  171.4920  136.4460 C   0  0  0  0  0  2  0  0  0  0  0  0
  183.5450  172.3740  135.1200 C   0  0  1  0  0  3  0  0  0  0  0  0
  179.1690  174.4200  137.0160 C   0  0  0  0  0  2  0  0  0  0  0  0
  181.6120  174.0520  136.3970 C   0  0  1  0  0  3  0  0  0  0  0  0
  187.5430  177.1330  134.7430 C   0  0  0  0  0  1  0  0  0  0  0  0
  178.9580  172.9980  136.4540 C   0  0  0  0  0  2  0  0  0  0  0  0
  184.8830  173.5420  137.8410 C   0  0  0  0  0  2  0  0  0  0  0  0
  183.7710  177.0360  135.4300 C   0  0  0  0  0  0  0  0  0  0  0  0
  186.3610  173.7100  137.4570 C   0  0  2  0  0  3  0  0  0  0  0  0
  185.1960  177.4900  135.5300 C   0  0  0  0  0  2  0  0  0  0  0  0
  184.5350  171.7220  136.1080 C   0  0  1  0  0  3  0  0  0  0  0  0
  186.3390  171.5280  134.5940 O   0  0  0  0  0  0  0  0  0  0  0  0
  180.8610  176.3380  137.2470 C   0  0  0  0  0  2  0  0  0  0  0  0
  182.9420  177.6630  134.5940 C   0  0  0  0  0  2  0  0  0  0  0  0
  183.2780  175.9410  136.3410 C   0  0  2  0  0  3  0  0  0  0  0  0
  182.7680  177.7670  138.1210 C   0  0  0  0  0  2  0  0  0  0  0  0
  183.4190  178.6570  140.3270 C   0  0  2  0  0  3  0  0  0  0  0  0
  184.6390  178.7050  139.4350 C   0  0  0  0  0  2  0  0  0  0  0  0
  183.7920  178.2120  141.5940 O   0  0  0  0  0  1  0  0  0  0  0  0
  183.6660  177.5490  139.3230 C   0  0  2  0  0  3  0  0  0  0  0  0
  1  8  1  1  0  0  0
  1 29  1  0  0  0  0
  1 18  1  0  0  0  0
  2 30  1  6  0  0  0
  3 25  1  0  0  0  0
  3 14  1  0  0  0  0
  4 17  1  1  0  0  0
  4 27  1  0  0  0  0
  5 21  1  0  0  0  0
  6 10  1  0  0  0  0
  7 16  1  0  0  0  0
  7  9  1  0  0  0  0
  7 15  1  1  0  0  0
  9 18  1  0  0  0  0
  9 15  1  1  0  0  0
 10 23  1  0  0  0  0
 10 13  2  0  0  0  0
 11  9  1  0  0  0  0
 11 20  1  0  0  0  0
 12 19  1  1  0  0  0
 12  6  1  0  0  0  0
 12 24  1  0  0  0  0
 14 23  1  0  0  0  0
 16  8  1  1  0  0  0
 16 25  1  0  0  0  0
 18  4  1  0  0  0  0
 20 17  1  0  0  0  0
 22 24  1  0  0  0  0
 22 29  1  0  0  0  0
 23 21  1  0  0  0  0
 25  5  1  0  0  0  0
 26  3  2  0  0  0  0
 27  2  1  0  0  0  0
 28 22  2  0  0  0  0
 29  2  1  0  0  0  0
 30 34  1  0  0  0  0
 31 33  1  0  0  0  0
 32 31  1  0  0  0  0
 34 32  1  0  0  0  0
 34 31  1  0  0  0  0
M  END
>  <MODEL>
5

>  <REMARK>
 VINA RESULT:      -4.6      2.603      5.967
  Name = 
  2 active torsions:
  status: ('A' for Active; 'I' for Inactive)
    1  A    between atoms: C_2  and  C_23
    2  A    between atoms: C_23  and  C_25
                            x       y       z     vdW  Elec       q    Type
                         _______ _______ _______ _____ _____    ______ ____

>  <TORSDO>
F 2

$$$$
=
 OpenBabel10262423393D

 34 40  0  0  1  0  0  0  0  0999 V2000
  188.7530  173.9930  136.7950 C   0  0  1  0  0  3  0  0  0  0  0  0
  190.5810  174.9150  135.2160 C   0  0  1  0  0  3  0  0  0  0  0  0
  184.8260  175.8690  136.7660 C   0  0  0  0  0  0  0  0  0  0  0  0
  190.0370  172.4240  135.4870 C   0  0  2  0  0  3  0  0  0  0  0  0
  185.9050  175.0320  134.6650 C   0  0  0  0  0  2  0  0  0  0  0  0
  187.6930  177.2790  137.7020 O   0  0  0  0  0  0  0  0  0  0  0  0
  186.2930  172.2460  136.5270 C   0  0  2  0  0  3  0  0  0  0  0  0
  187.4380  174.4080  137.4540 C   0  0  0  0  0  2  0  0  0  0  0  0
  187.6220  171.9190  135.8520 C   0  0  1  0  0  0  0  0  0  0  0  0
  187.4950  177.9030  136.4630 C   0  0  0  0  0  0  0  0  0  0  0  0
  188.1010  170.5990  135.9710 O   0  0  0  0  0  0  0  0  0  0  0  0
  188.7880  177.5440  138.5820 C   0  0  2  0  0  3  0  0  0  0  0  0
  188.2260  178.8630  136.0990 O   0  0  0  0  0  0  0  0  0  0  0  0
  185.0840  177.2500  136.2260 C   0  0  0  0  0  2  0  0  0  0  0  0
  186.3660  172.0220  135.0170 C   0  0  0  0  0  2  0  0  0  0  0  0
  186.1800  173.7440  136.8870 C   0  0  1  0  0  3  0  0  0  0  0  0
  190.0690  171.1860  134.5940 C   0  0  0  0  0  2  0  0  0  0  0  0
  188.6430  173.0300  135.6190 C   0  0  1  0  0  3  0  0  0  0  0  0
  188.7410  178.9720  139.0950 C   0  0  0  0  0  1  0  0  0  0  0  0
  188.8170  170.3040  134.7840 C   0  0  0  0  0  2  0  0  0  0  0  0
  186.9610  176.1250  134.8180 C   0  0  0  0  0  2  0  0  0  0  0  0
  190.3170  175.7980  137.6280 C   0  0  0  0  0  0  0  0  0  0  0  0
  186.4490  177.3860  135.5300 C   0  0  2  0  0  3  0  0  0  0  0  0
  190.1360  177.2550  137.9270 C   0  0  0  0  0  2  0  0  0  0  0  0
  185.2820  174.6460  136.0120 C   0  0  1  0  0  3  0  0  0  0  0  0
  184.1850  175.7430  137.7950 O   0  0  0  0  0  0  0  0  0  0  0  0
  191.1090  173.4710  135.1350 C   0  0  0  0  0  2  0  0  0  0  0  0
  191.1400  175.0710  138.3850 C   0  0  0  0  0  2  0  0  0  0  0  0
  189.6360  175.2010  136.4220 C   0  0  2  0  0  3  0  0  0  0  0  0
  191.6870  175.9390  135.0040 C   0  0  0  0  0  2  0  0  0  0  0  0
  193.8370  176.2530  136.1710 C   0  0  2  0  0  3  0  0  0  0  0  0
  194.1270  176.1730  134.6900 C   0  0  0  0  0  2  0  0  0  0  0  0
  194.7950  175.5180  136.8680 O   0  0  0  0  0  1  0  0  0  0  0  0
  193.0370  175.3120  135.2930 C   0  0  2  0  0  3  0  0  0  0  0  0
  1  8  1  6  0  0  0
  2 30  1  1  0  0  0
  2 29  1  0  0  0  0
  3 26  2  0  0  0  0
  4 17  1  6  0  0  0
  4 18  1  0  0  0  0
  5 21  1  0  0  0  0
  5 25  1  0  0  0  0
  6 12  1  0  0  0  0
  7 15  1  6  0  0  0
  7 16  1  0  0  0  0
  9 15  1  6  0  0  0
  9 11  1  0  0  0  0
  9  7  1  0  0  0  0
 10  6  1  0  0  0  0
 12 19  1  6  0  0  0
 13 10  2  0  0  0  0
 14  3  1  0  0  0  0
 16  8  1  6  0  0  0
 17 20  1  0  0  0  0
 18  9  1  0  0  0  0
 18  1  1  0  0  0  0
 20 11  1  0  0  0  0
 21 23  1  0  0  0  0
 22 24  1  0  0  0  0
 22 28  2  0  0  0  0
 23 14  1  0  0  0  0
 23 10  1  0  0  0  0
 24 12  1  0  0  0  0
 25  3  1  0  0  0  0
 25 16  1  0  0  0  0
 27  2  1  0  0  0  0
 27  4  1  0  0  0  0
 29  1  1  0  0  0  0
 29 22  1  0  0  0  0
 30 34  1  0  0  0  0
 31 33  1  0  0  0  0
 32 34  1  0  0  0  0
 32 31  1  0  0  0  0
 34 31  1  0  0  0  0
M  END
>  <MODEL>
6

>  <REMARK>
 VINA RESULT:      -4.4      4.121      8.168
  Name = 
  2 active torsions:
  status: ('A' for Active; 'I' for Inactive)
    1  A    between atoms: C_2  and  C_23
    2  A    between atoms: C_23  and  C_25
                            x       y       z     vdW  Elec       q    Type
                         _______ _______ _______ _____ _____    ______ ____

>  <TORSDO>
F 2

$$$$
=
 OpenBabel10262423393D

 34 40  0  0  1  0  0  0  0  0999 V2000
  182.1970  178.3070  138.8850 C   0  0  1  0  0  3  0  0  0  0  0  0
  183.7650  177.8750  140.8940 C   0  0  1  0  0  3  0  0  0  0  0  0
  181.5760  175.1130  135.9950 C   0  0  0  0  0  0  0  0  0  0  0  0
  181.4450  178.9500  141.0850 C   0  0  2  0  0  3  0  0  0  0  0  0
  181.2140  174.7610  138.4500 C   0  0  0  0  0  2  0  0  0  0  0  0
  184.4370  176.6950  136.6210 O   0  0  0  0  0  0  0  0  0  0  0  0
  179.3650  177.5620  138.1050 C   0  0  2  0  0  3  0  0  0  0  0  0
  181.8970  177.7800  137.4810 C   0  0  0  0  0  2  0  0  0  0  0  0
  179.7430  178.0430  139.5030 C   0  0  1  0  0  0  0  0  0  0  0  0
  184.6850  175.4630  137.2420 C   0  0  0  0  0  0  0  0  0  0  0  0
  178.9340  179.0390  140.0860 O   0  0  0  0  0  0  0  0  0  0  0  0
  185.3700  177.7750  136.5500 C   0  0  2  0  0  3  0  0  0  0  0  0
  185.8340  175.1790  137.6760 O   0  0  0  0  0  0  0  0  0  0  0  0
  182.7880  174.2350  136.1530 C   0  0  0  0  0  2  0  0  0  0  0  0
  179.0310  176.7210  139.3370 C   0  0  0  0  0  2  0  0  0  0  0  0
  180.5840  177.0050  137.3360 C   0  0  1  0  0  3  0  0  0  0  0  0
  180.3290  178.9840  142.1270 C   0  0  0  0  0  2  0  0  0  0  0  0
  181.1930  177.9380  139.9710 C   0  0  1  0  0  3  0  0  0  0  0  0
  186.5870  177.3910  135.7280 C   0  0  0  0  0  1  0  0  0  0  0  0
  178.9350  178.8150  141.4850 C   0  0  0  0  0  2  0  0  0  0  0  0
  182.7170  174.9390  138.6570 C   0  0  0  0  0  2  0  0  0  0  0  0
  184.6520  178.8780  138.6870 C   0  0  0  0  0  0  0  0  0  0  0  0
  183.5650  174.4980  137.4540 C   0  0  2  0  0  3  0  0  0  0  0  0
  185.7920  178.2620  137.9340 C   0  0  0  0  0  2  0  0  0  0  0  0
  180.7220  175.4750  137.1840 C   0  0  1  0  0  3  0  0  0  0  0  0
  181.2480  175.4800  134.8790 O   0  0  0  0  0  0  0  0  0  0  0  0
  182.8540  178.8280  141.6910 C   0  0  0  0  0  2  0  0  0  0  0  0
  184.6030  180.2030  138.8310 C   0  0  0  0  0  2  0  0  0  0  0  0
  183.6320  177.9840  139.3450 C   0  0  2  0  0  3  0  0  0  0  0  0
  185.1920  177.8760  141.4230 C   0  0  0  0  0  2  0  0  0  0  0  0
  185.7400  179.1290  143.4760 C   0  0  2  0  0  3  0  0  0  0  0  0
  186.6090  177.8920  143.4470 C   0  0  0  0  0  2  0  0  0  0  0  0
  185.2620  179.3260  144.7700 O   0  0  0  0  0  1  0  0  0  0  0  0
  185.1840  177.8250  142.9380 C   0  0  2  0  0  3  0  0  0  0  0  0
  1  8  1  6  0  0  0
  1 29  1  0  0  0  0
  1 18  1  0  0  0  0
  2 30  1  6  0  0  0
  2 27  1  0  0  0  0
  3 14  1  0  0  0  0
  3 25  1  0  0  0  0
  4 27  1  1  0  0  0
  4 17  1  0  0  0  0
  5 21  1  0  0  0  0
  6 10  1  0  0  0  0
  7 15  1  1  0  0  0
  7  9  1  0  0  0  0
  9 15  1  1  0  0  0
  9 18  1  0  0  0  0
  9 11  1  0  0  0  0
 10 23  1  0  0  0  0
 10 13  2  0  0  0  0
 11 20  1  0  0  0  0
 12 19  1  6  0  0  0
 12  6  1  0  0  0  0
 12 24  1  0  0  0  0
 14 23  1  0  0  0  0
 16  8  1  1  0  0  0
 16  7  1  0  0  0  0
 18  4  1  0  0  0  0
 20 17  1  0  0  0  0
 22 28  2  0  0  0  0
 22 29  1  0  0  0  0
 23 21  1  0  0  0  0
 24 22  1  0  0  0  0
 25 16  1  0  0  0  0
 25  5  1  0  0  0  0
 26  3  2  0  0  0  0
 29  2  1  0  0  0  0
 30 34  1  0  0  0  0
 31 33  1  0  0  0  0
 32 31  1  0  0  0  0
 34 32  1  0  0  0  0
 34 31  1  0  0  0  0
M  END
>  <MODEL>
7

>  <REMARK>
 VINA RESULT:      -3.7      2.357      5.807
  Name = 
  2 active torsions:
  status: ('A' for Active; 'I' for Inactive)
    1  A    between atoms: C_2  and  C_23
    2  A    between atoms: C_23  and  C_25
                            x       y       z     vdW  Elec       q    Type
                         _______ _______ _______ _____ _____    ______ ____

>  <TORSDO>
F 2

$$$$
=
 OpenBabel10262423393D

 34 40  0  0  1  0  0  0  0  0999 V2000
  181.5430  179.0540  139.3800 C   0  0  1  0  0  3  0  0  0  0  0  0
  180.6500  176.6640  139.7930 C   0  0  1  0  0  3  0  0  0  0  0  0
  180.7830  180.9340  135.5300 C   0  0  0  0  0  0  0  0  0  0  0  0
  180.3910  178.6020  141.4510 C   0  0  2  0  0  3  0  0  0  0  0  0
  178.9310  179.9760  136.9200 C   0  0  0  0  0  2  0  0  0  0  0  0
  182.6320  178.2220  136.0850 O   0  0  0  0  0  0  0  0  0  0  0  0
  180.3860  181.8530  139.3160 C   0  0  2  0  0  3  0  0  0  0  0  0
  181.8940  180.0070  138.2370 C   0  0  0  0  0  2  0  0  0  0  0  0
  180.0370  180.8340  140.3970 C   0  0  1  0  0  0  0  0  0  0  0  0
  181.4920  177.6410  135.5100 C   0  0  0  0  0  0  0  0  0  0  0  0
  180.0740  181.2720  141.7360 O   0  0  0  0  0  0  0  0  0  0  0  0
  183.7950  177.5000  136.4960 C   0  0  2  0  0  3  0  0  0  0  0  0
  181.4800  176.4210  135.1920 O   0  0  0  0  0  0  0  0  0  0  0  0
  180.5430  179.7770  134.5980 C   0  0  0  0  0  2  0  0  0  0  0  0
  178.9310  181.4770  139.5920 C   0  0  0  0  0  2  0  0  0  0  0  0
  180.9260  181.1770  138.0360 C   0  0  1  0  0  3  0  0  0  0  0  0
  179.3590  179.0290  142.4930 C   0  0  0  0  0  2  0  0  0  0  0  0
  180.2470  179.3460  140.1270 C   0  0  1  0  0  3  0  0  0  0  0  0
  184.4880  176.8600  135.3070 C   0  0  0  0  0  1  0  0  0  0  0  0
  179.0830  180.5470  142.4420 C   0  0  0  0  0  2  0  0  0  0  0  0
  179.5160  178.5870  136.6720 C   0  0  0  0  0  2  0  0  0  0  0  0
  183.0160  177.0710  138.8420 C   0  0  0  0  0  0  0  0  0  0  0  0
  180.2530  178.4550  135.3310 C   0  0  2  0  0  3  0  0  0  0  0  0
  183.4750  176.4510  137.5570 C   0  0  0  0  0  2  0  0  0  0  0  0
  179.9960  181.0740  136.8090 C   0  0  1  0  0  3  0  0  0  0  0  0
  181.5790  181.8000  135.2100 O   0  0  0  0  0  0  0  0  0  0  0  0
  180.4910  177.0770  141.2680 C   0  0  0  0  0  2  0  0  0  0  0  0
  183.8420  177.0930  139.8900 C   0  0  0  0  0  2  0  0  0  0  0  0
  181.5990  177.5730  138.9560 C   0  0  2  0  0  3  0  0  0  0  0  0
  180.8900  175.1680  139.6430 C   0  0  0  0  0  2  0  0  0  0  0  0
  180.0770  173.5650  137.9550 C   0  0  2  0  0  3  0  0  0  0  0  0
  179.4880  174.9170  137.6240 C   0  0  0  0  0  2  0  0  0  0  0  0
  179.1010  172.5840  137.7910 O   0  0  0  0  0  1  0  0  0  0  0  0
  179.6560  174.4990  139.0700 C   0  0  2  0  0  3  0  0  0  0  0  0
  1  8  1  6  0  0  0
  1 18  1  0  0  0  0
  2 30  1  1  0  0  0
  2 27  1  0  0  0  0
  3 25  1  0  0  0  0
  4 27  1  6  0  0  0
  4 17  1  0  0  0  0
  6 12  1  0  0  0  0
  7 15  1  6  0  0  0
  7  9  1  0  0  0  0
  9 15  1  6  0  0  0
  9 11  1  0  0  0  0
 10  6  1  0  0  0  0
 11 20  1  0  0  0  0
 12 19  1  6  0  0  0
 12 24  1  0  0  0  0
 13 10  2  0  0  0  0
 14 23  1  0  0  0  0
 14  3  1  0  0  0  0
 16  8  1  1  0  0  0
 16  7  1  0  0  0  0
 18  9  1  0  0  0  0
 18  4  1  0  0  0  0
 20 17  1  0  0  0  0
 21  5  1  0  0  0  0
 22 29  1  0  0  0  0
 22 28  2  0  0  0  0
 23 10  1  0  0  0  0
 23 21  1  0  0  0  0
 24 22  1  0  0  0  0
 25  5  1  0  0  0  0
 25 16  1  0  0  0  0
 26  3  2  0  0  0  0
 29  1  1  0  0  0  0
 29  2  1  0  0  0  0
 31 34  1  0  0  0  0
 32 31  1  0  0  0  0
 32 34  1  0  0  0  0
 33 31  1  0  0  0  0
 34 30  1  0  0  0  0
M  END
>  <MODEL>
8

>  <REMARK>
 VINA RESULT:      -3.5      2.271      6.614
  Name = 
  2 active torsions:
  status: ('A' for Active; 'I' for Inactive)
    1  A    between atoms: C_2  and  C_23
    2  A    between atoms: C_23  and  C_25
                            x       y       z     vdW  Elec       q    Type
                         _______ _______ _______ _____ _____    ______ ____

>  <TORSDO>
F 2

$$$$
=
 OpenBabel10262423393D

 34 40  0  0  1  0  0  0  0  0999 V2000
  188.6500  178.0060  139.5510 C   0  0  1  0  0  3  0  0  0  0  0  0
  189.1330  176.3470  141.4740 C   0  0  1  0  0  3  0  0  0  0  0  0
  188.2750  176.4590  135.5010 C   0  0  0  0  0  0  0  0  0  0  0  0
  187.3400  178.1770  141.5700 C   0  0  2  0  0  3  0  0  0  0  0  0
  186.9190  175.5390  137.3970 C   0  0  0  0  0  2  0  0  0  0  0  0
  191.0080  176.4060  137.4020 O   0  0  0  0  0  0  0  0  0  0  0  0
  186.2470  178.8080  137.8910 C   0  0  2  0  0  3  0  0  0  0  0  0
  188.7690  178.1260  138.0320 C   0  0  0  0  0  2  0  0  0  0  0  0
  186.1860  178.6190  139.4030 C   0  0  1  0  0  0  0  0  0  0  0  0
  190.6290  175.0580  137.4610 C   0  0  0  0  0  0  0  0  0  0  0  0
  185.5440  179.6230  140.1560 O   0  0  0  0  0  0  0  0  0  0  0  0
  192.1690  176.9550  138.0290 C   0  0  2  0  0  3  0  0  0  0  0  0
  191.3880  174.1970  137.9820 O   0  0  0  0  0  0  0  0  0  0  0  0
  189.0220  175.1530  135.5370 C   0  0  0  0  0  2  0  0  0  0  0  0
  185.2380  177.8450  138.5160 C   0  0  0  0  0  2  0  0  0  0  0  0
  187.4470  178.0640  137.2620 C   0  0  1  0  0  3  0  0  0  0  0  0
  185.9730  178.3470  142.2300 C   0  0  0  0  0  2  0  0  0  0  0  0
  187.2480  177.7730  140.1010 C   0  0  1  0  0  3  0  0  0  0  0  0
  193.4380  176.3750  137.4300 C   0  0  0  0  0  1  0  0  0  0  0  0
  184.9460  178.9910  141.2740 C   0  0  0  0  0  2  0  0  0  0  0  0
  188.2100  174.9940  138.0040 C   0  0  0  0  0  2  0  0  0  0  0  0
  191.0460  177.5230  140.2000 C   0  0  0  0  0  0  0  0  0  0  0  0
  189.2840  174.6410  136.9640 C   0  0  2  0  0  3  0  0  0  0  0  0
  192.1540  176.7560  139.5420 C   0  0  0  0  0  2  0  0  0  0  0  0
  187.1790  176.7520  136.4950 C   0  0  1  0  0  3  0  0  0  0  0  0
  188.5200  177.2610  134.6160 O   0  0  0  0  0  0  0  0  0  0  0  0
  188.3090  177.2900  142.3710 C   0  0  0  0  0  2  0  0  0  0  0  0
  191.3350  178.6260  140.8920 C   0  0  0  0  0  2  0  0  0  0  0  0
  189.6390  176.9830  140.1450 C   0  0  2  0  0  3  0  0  0  0  0  0
  190.1840  175.5820  142.2660 C   0  0  0  0  0  2  0  0  0  0  0  0
  191.6740  176.9380  143.6890 C   0  0  2  0  0  3  0  0  0  0  0  0
  191.5460  175.5740  144.3280 C   0  0  0  0  0  2  0  0  0  0  0  0
  191.6110  177.9180  144.6780 O   0  0  0  0  0  1  0  0  0  0  0  0
  190.3510  176.2000  143.6410 C   0  0  2  0  0  3  0  0  0  0  0  0
  1  8  1  6  0  0  0
  1 18  1  0  0  0  0
  1 29  1  0  0  0  0
  2 30  1  1  0  0  0
  2 27  1  0  0  0  0
  3 14  1  0  0  0  0
  3 25  1  0  0  0  0
  4 17  1  1  0  0  0
  4 27  1  0  0  0  0
  5 21  1  0  0  0  0
  6 10  1  0  0  0  0
  6 12  1  0  0  0  0
  7 15  1  6  0  0  0
  7  9  1  0  0  0  0
  9 15  1  1  0  0  0
  9 18  1  0  0  0  0
  9 11  1  0  0  0  0
 10 13  2  0  0  0  0
 11 20  1  0  0  0  0
 12 19  1  6  0  0  0
 12 24  1  0  0  0  0
 14 23  1  0  0  0  0
 16  7  1  0  0  0  0
 16  8  1  1  0  0  0
 18  4  1  0  0  0  0
 20 17  1  0  0  0  0
 22 28  2  0  0  0  0
 23 10  1  0  0  0  0
 23 21  1  0  0  0  0
 24 22  1  0  0  0  0
 25 16  1  0  0  0  0
 25  5  1  0  0  0  0
 26  3  2  0  0  0  0
 29 22  1  0  0  0  0
 29  2  1  0  0  0  0
 30 34  1  0  0  0  0
 31 32  1  0  0  0  0
 31 33  1  0  0  0  0
 34 31  1  0  0  0  0
 34 32  1  0  0  0  0
M  END
>  <MODEL>
9

>  <REMARK>
 VINA RESULT:      -3.4      4.534      8.720
  Name = 
  2 active torsions:
  status: ('A' for Active; 'I' for Inactive)
    1  A    between atoms: C_2  and  C_23
    2  A    between atoms: C_23  and  C_25
                            x       y       z     vdW  Elec       q    Type
                         _______ _______ _______ _____ _____    ______ ____

>  <TORSDO>
F 2

$$$$
