=
 OpenBabel10262420503D

 28 32  0  0  0  0  0  0  0  0999 V2000
  187.5310  178.2260  140.9430 N   0  0  0  0  0  0  0  0  0  0  0  0
  190.4450  177.0810  144.7790 C   0  0  0  0  0  2  0  0  0  0  0  0
  184.4320  178.5600  144.8070 C   0  0  0  0  0  1  0  0  0  0  0  0
  189.0300  177.2080  146.7500 C   0  0  0  0  0  0  0  0  0  0  0  0
  188.1390  177.6820  144.5510 C   0  0  0  0  0  0  0  0  0  0  0  0
  191.3680  176.5980  146.9600 C   0  0  0  0  0  0  0  0  0  0  0  0
  189.1800  177.3330  145.3430 C   0  0  0  0  0  0  0  0  0  0  0  0
  186.6270  177.8280  146.5910 C   0  0  0  0  0  3  0  0  0  0  0  0
  190.1230  176.8430  147.5410 C   0  0  0  0  0  3  0  0  0  0  0  0
  186.0200  178.3850  142.8660 C   0  0  0  0  0  0  0  0  0  0  0  0
  188.3150  177.7910  143.2040 N   0  0  0  0  0  0  0  0  0  0  0  0
  187.8580  177.4320  147.3490 C   0  0  0  0  0  3  0  0  0  0  0  0
  185.2380  178.8110  140.6260 C   0  0  0  0  0  3  0  0  0  0  0  0
  185.7970  178.2890  144.2480 C   0  0  0  0  0  0  0  0  0  0  0  0
  185.0520  178.7060  142.0500 N   0  0  0  0  0  0  0  0  0  0  0  0
  192.4460  176.2360  147.7560 O   0  0  0  0  0  1  0  0  0  0  0  0
  191.5290  176.7170  145.5800 C   0  0  0  0  0  3  0  0  0  0  0  0
  186.8590  177.9350  145.1030 C   0  0  0  0  0  0  0  0  0  0  0  0
  186.4360  178.5770  140.0890 C   0  0  0  0  0  3  0  0  0  0  0  0
  187.3060  178.1290  142.3600 C   0  0  0  0  0  0  0  0  0  0  0  0
  188.8310  177.9310  140.3530 C   0  0  0  0  0  2  0  0  0  0  0  0
  188.7140  177.8090  138.8710 C   0  0  0  0  0  0  0  0  0  0  0  0
  188.4360  177.5630  136.1240 C   0  0  0  0  0  0  0  0  0  0  0  0
  189.0130  178.8960  138.0460 C   0  0  0  0  0  3  0  0  0  0  0  0
  188.2710  176.6150  138.2950 C   0  0  0  0  0  3  0  0  0  0  0  0
  188.1440  176.5170  136.9440 N   0  0  0  0  0  0  0  0  0  0  0  0
  188.2840  177.4160  134.6520 C   0  0  0  0  0  1  0  0  0  0  0  0
  188.8750  178.7740  136.6620 C   0  0  0  0  0  3  0  0  0  0  0  0
  1 20  1  0  0  0  0
  2  7  1  0  0  0  0
  2 17  1  0  0  0  0
  4 12  1  0  0  0  0
  4  9  2  0  0  0  0
  5 18  1  0  0  0  0
  5  7  2  0  0  0  0
  6  9  1  0  0  0  0
  6 16  1  0  0  0  0
  7  4  1  0  0  0  0
  8 12  2  0  0  0  0
 10 14  1  0  0  0  0
 11  5  1  0  0  0  0
 13 15  1  0  0  0  0
 14  3  1  0  0  0  0
 14 18  2  0  0  0  0
 15 10  2  0  0  0  0
 17  6  2  0  0  0  0
 18  8  1  0  0  0  0
 19 13  2  0  0  0  0
 19  1  1  0  0  0  0
 20 10  1  0  0  0  0
 20 11  2  0  0  0  0
 21  1  1  0  0  0  0
 22 21  1  0  0  0  0
 23 28  2  0  0  0  0
 23 26  1  0  0  0  0
 24 22  2  0  0  0  0
 25 22  1  0  0  0  0
 26 25  2  0  0  0  0
 27 23  1  0  0  0  0
 28 24  1  0  0  0  0
M  END
>  <MODEL>
1

>  <REMARK>
 VINA RESULT:     -11.0      0.000      0.000
  Name = 
  2 active torsions:
  status: ('A' for Active; 'I' for Inactive)
    1  A    between atoms: N_1  and  C_2
    2  A    between atoms: C_2  and  C_3
                            x       y       z     vdW  Elec       q    Type
                         _______ _______ _______ _____ _____    ______ ____

>  <TORSDO>
F 2

$$$$
=
 OpenBabel10262420503D

 28 32  0  0  0  0  0  0  0  0999 V2000
  189.8770  177.0230  142.4920 N   0  0  0  0  0  0  0  0  0  0  0  0
  185.1330  178.3950  142.8450 C   0  0  0  0  0  2  0  0  0  0  0  0
  189.1700  177.2630  147.4010 C   0  0  0  0  0  1  0  0  0  0  0  0
  184.6600  178.5510  145.2230 C   0  0  0  0  0  0  0  0  0  0  0  0
  186.8540  177.9030  144.4350 C   0  0  0  0  0  0  0  0  0  0  0  0
  182.9300  179.0480  143.5980 C   0  0  0  0  0  0  0  0  0  0  0  0
  185.5770  178.2730  144.1750 C   0  0  0  0  0  0  0  0  0  0  0  0
  186.3970  178.0520  146.9320 C   0  0  0  0  0  3  0  0  0  0  0  0
  183.3500  178.9340  144.9230 C   0  0  0  0  0  3  0  0  0  0  0  0
  189.5040  177.1490  144.9120 C   0  0  0  0  0  0  0  0  0  0  0  0
  187.7100  177.6450  143.4060 N   0  0  0  0  0  0  0  0  0  0  0  0
  185.0170  178.4560  146.5060 C   0  0  0  0  0  3  0  0  0  0  0  0
  191.6550  176.5370  144.0110 C   0  0  0  0  0  3  0  0  0  0  0  0
  188.6540  177.3990  145.9990 C   0  0  0  0  0  0  0  0  0  0  0  0
  190.7490  176.7990  145.0990 N   0  0  0  0  0  0  0  0  0  0  0  0
  181.6270  179.4300  143.3120 O   0  0  0  0  0  1  0  0  0  0  0  0
  183.8210  178.7790  142.5580 C   0  0  0  0  0  3  0  0  0  0  0  0
  187.3170  177.7800  145.7670 C   0  0  0  0  0  0  0  0  0  0  0  0
  191.2360  176.6470  142.7500 C   0  0  0  0  0  3  0  0  0  0  0  0
  189.0030  177.2790  143.6050 C   0  0  0  0  0  0  0  0  0  0  0  0
  189.4280  177.1830  141.1150 C   0  0  0  0  0  2  0  0  0  0  0  0
  190.5500  176.9160  140.1690 C   0  0  0  0  0  0  0  0  0  0  0  0
  192.5970  176.4360  138.3620 C   0  0  0  0  0  0  0  0  0  0  0  0
  191.7990  177.5080  140.3660 C   0  0  0  0  0  3  0  0  0  0  0  0
  190.3520  176.0940  139.0550 C   0  0  0  0  0  3  0  0  0  0  0  0
  191.3720  175.8720  138.1830 N   0  0  0  0  0  0  0  0  0  0  0  0
  193.6860  176.1680  137.3870 C   0  0  0  0  0  1  0  0  0  0  0  0
  192.8320  177.2670  139.4600 C   0  0  0  0  0  3  0  0  0  0  0  0
  1 19  1  0  0  0  0
  1 20  1  0  0  0  0
  2  7  1  0  0  0  0
  4 12  1  0  0  0  0
  5 18  1  0  0  0  0
  6  9  1  0  0  0  0
  7  5  2  0  0  0  0
  7  4  1  0  0  0  0
  9  4  2  0  0  0  0
 10 15  2  0  0  0  0
 10 14  1  0  0  0  0
 11 20  2  0  0  0  0
 11  5  1  0  0  0  0
 12  8  2  0  0  0  0
 13 15  1  0  0  0  0
 14  3  1  0  0  0  0
 16  6  1  0  0  0  0
 17  2  1  0  0  0  0
 17  6  2  0  0  0  0
 18 14  2  0  0  0  0
 18  8  1  0  0  0  0
 19 13  2  0  0  0  0
 20 10  1  0  0  0  0
 21  1  1  0  0  0  0
 22 24  1  0  0  0  0
 22 21  1  0  0  0  0
 23 28  1  0  0  0  0
 25 22  2  0  0  0  0
 26 23  2  0  0  0  0
 26 25  1  0  0  0  0
 27 23  1  0  0  0  0
 28 24  2  0  0  0  0
M  END
>  <MODEL>
2

>  <REMARK>
 VINA RESULT:     -10.6      3.213      5.312
  Name = 
  2 active torsions:
  status: ('A' for Active; 'I' for Inactive)
    1  A    between atoms: N_1  and  C_2
    2  A    between atoms: C_2  and  C_3
                            x       y       z     vdW  Elec       q    Type
                         _______ _______ _______ _____ _____    ______ ____

>  <TORSDO>
F 2

$$$$
=
 OpenBabel10262420503D

 28 32  0  0  0  0  0  0  0  0999 V2000
  189.9040  177.8810  139.6330 N   0  0  0  0  0  0  0  0  0  0  0  0
  191.0100  177.0240  144.3830 C   0  0  0  0  0  2  0  0  0  0  0  0
  185.5300  178.4930  141.9010 C   0  0  0  0  0  1  0  0  0  0  0  0
  188.9300  177.2940  145.6090 C   0  0  0  0  0  0  0  0  0  0  0  0
  189.0040  177.6040  143.2110 C   0  0  0  0  0  0  0  0  0  0  0  0
  190.9710  176.7050  146.7790 C   0  0  0  0  0  0  0  0  0  0  0  0
  189.6320  177.3160  144.3750 C   0  0  0  0  0  0  0  0  0  0  0  0
  186.8080  177.8980  144.4600 C   0  0  0  0  0  3  0  0  0  0  0  0
  189.6050  176.9890  146.7940 C   0  0  0  0  0  3  0  0  0  0  0  0
  187.7560  178.1780  140.7750 C   0  0  0  0  0  0  0  0  0  0  0  0
  189.7070  177.6150  142.0430 N   0  0  0  0  0  0  0  0  0  0  0  0
  187.6230  177.5590  145.6720 C   0  0  0  0  0  3  0  0  0  0  0  0
  187.9450  178.4380  138.3860 C   0  0  0  0  0  3  0  0  0  0  0  0
  186.9960  178.1840  141.9550 C   0  0  0  0  0  0  0  0  0  0  0  0
  187.2030  178.4370  139.6200 N   0  0  0  0  0  0  0  0  0  0  0  0
  191.6310  176.4030  147.9610 O   0  0  0  0  0  1  0  0  0  0  0  0
  191.6740  176.7220  145.5730 C   0  0  0  0  0  3  0  0  0  0  0  0
  187.6180  177.8950  143.1860 C   0  0  0  0  0  0  0  0  0  0  0  0
  189.2510  178.1670  138.3900 C   0  0  0  0  0  3  0  0  0  0  0  0
  189.1290  177.8880  140.8450 C   0  0  0  0  0  0  0  0  0  0  0  0
  191.3220  177.5450  139.6350 C   0  0  0  0  0  2  0  0  0  0  0  0
  191.5850  176.3950  138.7220 C   0  0  0  0  0  0  0  0  0  0  0  0
  192.0180  174.2700  136.9950 C   0  0  0  0  0  0  0  0  0  0  0  0
  192.7940  176.3020  138.0310 C   0  0  0  0  0  3  0  0  0  0  0  0
  190.6080  175.4150  138.5240 C   0  0  0  0  0  3  0  0  0  0  0  0
  190.8430  174.3800  137.6730 N   0  0  0  0  0  0  0  0  0  0  0  0
  192.2370  173.1240  136.0740 C   0  0  0  0  0  1  0  0  0  0  0  0
  193.0160  175.2320  137.1620 C   0  0  0  0  0  3  0  0  0  0  0  0
  1 21  1  0  0  0  0
  1 20  1  0  0  0  0
  2 17  1  0  0  0  0
  3 14  1  0  0  0  0
  4 12  1  0  0  0  0
  4  9  2  0  0  0  0
  5  7  2  0  0  0  0
  6  9  1  0  0  0  0
  6 16  1  0  0  0  0
  7  2  1  0  0  0  0
  7  4  1  0  0  0  0
  8 12  2  0  0  0  0
 10 20  1  0  0  0  0
 10 14  1  0  0  0  0
 11  5  1  0  0  0  0
 13 19  2  0  0  0  0
 13 15  1  0  0  0  0
 14 18  2  0  0  0  0
 15 10  2  0  0  0  0
 17  6  2  0  0  0  0
 18  5  1  0  0  0  0
 18  8  1  0  0  0  0
 19  1  1  0  0  0  0
 20 11  2  0  0  0  0
 22 21  1  0  0  0  0
 23 28  2  0  0  0  0
 23 26  1  0  0  0  0
 24 22  2  0  0  0  0
 25 22  1  0  0  0  0
 26 25  2  0  0  0  0
 27 23  1  0  0  0  0
 28 24  1  0  0  0  0
M  END
>  <MODEL>
3

>  <REMARK>
 VINA RESULT:     -10.1      2.400      2.935
  Name = 
  2 active torsions:
  status: ('A' for Active; 'I' for Inactive)
    1  A    between atoms: N_1  and  C_2
    2  A    between atoms: C_2  and  C_3
                            x       y       z     vdW  Elec       q    Type
                         _______ _______ _______ _____ _____    ______ ____

>  <TORSDO>
F 2

$$$$
=
 OpenBabel10262420503D

 28 32  0  0  0  0  0  0  0  0999 V2000
  189.7230  177.7480  140.3290 N   0  0  0  0  0  0  0  0  0  0  0  0
  185.3270  178.4520  142.4950 C   0  0  0  0  0  2  0  0  0  0  0  0
  190.7530  177.0730  145.1380 C   0  0  0  0  0  1  0  0  0  0  0  0
  185.7020  178.1480  144.8760 C   0  0  0  0  0  0  0  0  0  0  0  0
  187.5180  177.9140  143.2950 C   0  0  0  0  0  0  0  0  0  0  0  0
  183.4900  178.6960  144.0470 C   0  0  0  0  0  0  0  0  0  0  0  0
  186.2120  178.1630  143.5510 C   0  0  0  0  0  0  0  0  0  0  0  0
  187.9500  177.5850  145.7800 C   0  0  0  0  0  3  0  0  0  0  0  0
  184.3500  178.4140  145.1090 C   0  0  0  0  0  3  0  0  0  0  0  0
  190.2070  177.4190  142.7090 C   0  0  0  0  0  0  0  0  0  0  0  0
  187.9760  177.9390  142.0120 N   0  0  0  0  0  0  0  0  0  0  0  0
  186.4870  177.8830  145.9230 C   0  0  0  0  0  3  0  0  0  0  0  0
  191.9420  177.2350  141.0460 C   0  0  0  0  0  3  0  0  0  0  0  0
  189.7760  177.3780  144.0430 C   0  0  0  0  0  0  0  0  0  0  0  0
  191.4570  177.1980  142.4010 N   0  0  0  0  0  0  0  0  0  0  0  0
  182.1490  178.9590  144.2910 O   0  0  0  0  0  1  0  0  0  0  0  0
  183.9770  178.7160  142.7410 C   0  0  0  0  0  3  0  0  0  0  0  0
  188.4220  177.6260  144.3460 C   0  0  0  0  0  0  0  0  0  0  0  0
  191.1050  177.5020  140.0430 C   0  0  0  0  0  3  0  0  0  0  0  0
  189.2770  177.7040  141.6950 C   0  0  0  0  0  0  0  0  0  0  0  0
  188.8150  178.0810  139.2380 C   0  0  0  0  0  2  0  0  0  0  0  0
  189.0950  177.2250  138.0500 C   0  0  0  0  0  0  0  0  0  0  0  0
  189.5590  175.6110  135.8440 C   0  0  0  0  0  0  0  0  0  0  0  0
  189.5590  177.7940  136.8620 C   0  0  0  0  0  3  0  0  0  0  0  0
  188.8660  175.8470  138.1030 C   0  0  0  0  0  3  0  0  0  0  0  0
  189.1010  175.0740  137.0080 N   0  0  0  0  0  0  0  0  0  0  0  0
  189.8050  174.7320  134.6700 C   0  0  0  0  0  1  0  0  0  0  0  0
  189.7950  176.9840  135.7500 C   0  0  0  0  0  3  0  0  0  0  0  0
  1 20  1  0  0  0  0
  2 17  1  0  0  0  0
  2  7  1  0  0  0  0
  4  9  2  0  0  0  0
  4 12  1  0  0  0  0
  5  7  2  0  0  0  0
  5 18  1  0  0  0  0
  6 16  1  0  0  0  0
  6  9  1  0  0  0  0
  7  4  1  0  0  0  0
  8 12  2  0  0  0  0
 10 14  1  0  0  0  0
 11  5  1  0  0  0  0
 13 15  1  0  0  0  0
 14 18  2  0  0  0  0
 14  3  1  0  0  0  0
 15 10  2  0  0  0  0
 17  6  2  0  0  0  0
 18  8  1  0  0  0  0
 19  1  1  0  0  0  0
 19 13  2  0  0  0  0
 20 11  2  0  0  0  0
 20 10  1  0  0  0  0
 21  1  1  0  0  0  0
 22 25  1  0  0  0  0
 22 21  1  0  0  0  0
 23 26  1  0  0  0  0
 24 22  2  0  0  0  0
 26 25  2  0  0  0  0
 27 23  1  0  0  0  0
 28 23  2  0  0  0  0
 28 24  1  0  0  0  0
M  END
>  <MODEL>
4

>  <REMARK>
 VINA RESULT:     -10.0      2.682      4.691
  Name = 
  2 active torsions:
  status: ('A' for Active; 'I' for Inactive)
    1  A    between atoms: N_1  and  C_2
    2  A    between atoms: C_2  and  C_3
                            x       y       z     vdW  Elec       q    Type
                         _______ _______ _______ _____ _____    ______ ____

>  <TORSDO>
F 2

$$$$
=
 OpenBabel10262420503D

 28 32  0  0  0  0  0  0  0  0999 V2000
  189.4170  177.8350  140.1030 N   0  0  0  0  0  0  0  0  0  0  0  0
  188.8900  177.5020  145.0150 C   0  0  0  0  0  2  0  0  0  0  0  0
  184.6380  179.0020  140.7720 C   0  0  0  0  0  1  0  0  0  0  0  0
  186.5700  178.0540  145.4740 C   0  0  0  0  0  0  0  0  0  0  0  0
  187.4210  178.0600  143.2100 C   0  0  0  0  0  0  0  0  0  0  0  0
  188.0730  177.4840  147.2900 C   0  0  0  0  0  0  0  0  0  0  0  0
  187.6210  177.8780  144.5360 C   0  0  0  0  0  0  0  0  0  0  0  0
  184.9850  178.6460  143.6500 C   0  0  0  0  0  3  0  0  0  0  0  0
  186.8060  177.8550  146.8370 C   0  0  0  0  0  3  0  0  0  0  0  0
  187.0610  178.4080  140.4580 C   0  0  0  0  0  0  0  0  0  0  0  0
  188.4510  177.8810  142.3350 N   0  0  0  0  0  0  0  0  0  0  0  0
  185.3420  178.4090  145.0880 C   0  0  0  0  0  3  0  0  0  0  0  0
  188.0120  178.3580  138.2440 C   0  0  0  0  0  3  0  0  0  0  0  0
  185.9750  178.6080  141.3240 C   0  0  0  0  0  0  0  0  0  0  0  0
  186.9260  178.5570  139.1680 N   0  0  0  0  0  0  0  0  0  0  0  0
  188.2960  177.2890  148.6460 O   0  0  0  0  0  1  0  0  0  0  0  0
  189.1150  177.3070  146.3800 C   0  0  0  0  0  3  0  0  0  0  0  0
  186.1490  178.4340  142.7120 C   0  0  0  0  0  0  0  0  0  0  0  0
  189.2170  178.0060  138.6950 C   0  0  0  0  0  3  0  0  0  0  0  0
  188.3070  178.0410  140.9940 C   0  0  0  0  0  0  0  0  0  0  0  0
  190.7230  177.4110  140.5940 C   0  0  0  0  0  2  0  0  0  0  0  0
  191.5060  176.7700  139.4980 C   0  0  0  0  0  0  0  0  0  0  0  0
  193.0080  175.5650  137.5040 C   0  0  0  0  0  0  0  0  0  0  0  0
  190.9260  175.7860  138.6950 C   0  0  0  0  0  3  0  0  0  0  0  0
  192.8410  177.1260  139.2860 C   0  0  0  0  0  3  0  0  0  0  0  0
  193.5590  176.5220  138.3000 N   0  0  0  0  0  0  0  0  0  0  0  0
  193.8250  174.9300  136.4370 C   0  0  0  0  0  1  0  0  0  0  0  0
  191.6790  175.1790  137.6890 C   0  0  0  0  0  3  0  0  0  0  0  0
  1 21  1  0  0  0  0
  1 20  1  0  0  0  0
  2 17  1  0  0  0  0
  3 14  1  0  0  0  0
  4  9  2  0  0  0  0
  5  7  2  0  0  0  0
  6 16  1  0  0  0  0
  7  2  1  0  0  0  0
  7  4  1  0  0  0  0
  8 12  2  0  0  0  0
  9  6  1  0  0  0  0
 10 20  1  0  0  0  0
 10 14  1  0  0  0  0
 11  5  1  0  0  0  0
 12  4  1  0  0  0  0
 13 19  2  0  0  0  0
 13 15  1  0  0  0  0
 14 18  2  0  0  0  0
 15 10  2  0  0  0  0
 17  6  2  0  0  0  0
 18  5  1  0  0  0  0
 18  8  1  0  0  0  0
 19  1  1  0  0  0  0
 20 11  2  0  0  0  0
 22 21  1  0  0  0  0
 23 28  2  0  0  0  0
 23 26  1  0  0  0  0
 24 22  2  0  0  0  0
 25 22  1  0  0  0  0
 26 25  2  0  0  0  0
 27 23  1  0  0  0  0
 28 24  1  0  0  0  0
M  END
>  <MODEL>
5

>  <REMARK>
 VINA RESULT:      -9.9      2.537      3.497
  Name = 
  2 active torsions:
  status: ('A' for Active; 'I' for Inactive)
    1  A    between atoms: N_1  and  C_2
    2  A    between atoms: C_2  and  C_3
                            x       y       z     vdW  Elec       q    Type
                         _______ _______ _______ _____ _____    ______ ____

>  <TORSDO>
F 2

$$$$
=
 OpenBabel10262420503D

 28 32  0  0  0  0  0  0  0  0999 V2000
  189.0170  177.7470  139.1390 N   0  0  0  0  0  0  0  0  0  0  0  0
  185.6230  178.5910  142.6430 C   0  0  0  0  0  2  0  0  0  0  0  0
  191.3390  176.2990  143.2810 C   0  0  0  0  0  1  0  0  0  0  0  0
  186.6500  177.9180  144.7390 C   0  0  0  0  0  0  0  0  0  0  0  0
  187.8530  177.7210  142.6500 C   0  0  0  0  0  0  0  0  0  0  0  0
  184.3920  178.8040  144.7130 C   0  0  0  0  0  0  0  0  0  0  0  0
  186.7340  178.0670  143.3300 C   0  0  0  0  0  0  0  0  0  0  0  0
  188.9610  177.0040  144.8240 C   0  0  0  0  0  3  0  0  0  0  0  0
  185.4820  178.2870  145.4140 C   0  0  0  0  0  3  0  0  0  0  0  0
  190.1430  177.0380  141.1970 C   0  0  0  0  0  0  0  0  0  0  0  0
  187.9030  177.8790  141.2970 N   0  0  0  0  0  0  0  0  0  0  0  0
  187.6670  177.4290  145.4520 C   0  0  0  0  0  3  0  0  0  0  0  0
  191.2520  176.9100  139.0610 C   0  0  0  0  0  3  0  0  0  0  0  0
  190.1310  176.8540  142.5880 C   0  0  0  0  0  0  0  0  0  0  0  0
  191.1970  176.7340  140.4880 N   0  0  0  0  0  0  0  0  0  0  0  0
  183.2380  179.1670  145.3930 O   0  0  0  0  0  1  0  0  0  0  0  0
  184.4620  178.9560  143.3280 C   0  0  0  0  0  3  0  0  0  0  0  0
  188.9810  177.1970  143.3270 C   0  0  0  0  0  0  0  0  0  0  0  0
  190.1990  177.4020  138.4060 C   0  0  0  0  0  3  0  0  0  0  0  0
  189.0010  177.5580  140.5640 C   0  0  0  0  0  0  0  0  0  0  0  0
  187.8790  178.3220  138.4310 C   0  0  0  0  0  2  0  0  0  0  0  0
  187.0550  177.2450  137.8110 C   0  0  0  0  0  0  0  0  0  0  0  0
  185.5400  175.2040  136.7040 C   0  0  0  0  0  0  0  0  0  0  0  0
  185.7000  177.4560  137.5430 C   0  0  0  0  0  3  0  0  0  0  0  0
  187.6220  176.0010  137.5210 C   0  0  0  0  0  3  0  0  0  0  0  0
  186.8600  175.0140  136.9760 N   0  0  0  0  0  0  0  0  0  0  0  0
  184.7410  174.1000  136.1080 C   0  0  0  0  0  1  0  0  0  0  0  0
  184.9360  176.4310  136.9840 C   0  0  0  0  0  3  0  0  0  0  0  0
  1 20  1  0  0  0  0
  2 17  1  0  0  0  0
  2  7  1  0  0  0  0
  4  9  2  0  0  0  0
  4 12  1  0  0  0  0
  5 18  1  0  0  0  0
  5  7  2  0  0  0  0
  6 16  1  0  0  0  0
  6  9  1  0  0  0  0
  7  4  1  0  0  0  0
  8 12  2  0  0  0  0
 10 14  1  0  0  0  0
 11  5  1  0  0  0  0
 13 15  1  0  0  0  0
 14  3  1  0  0  0  0
 14 18  2  0  0  0  0
 15 10  2  0  0  0  0
 17  6  2  0  0  0  0
 18  8  1  0  0  0  0
 19 13  2  0  0  0  0
 19  1  1  0  0  0  0
 20 10  1  0  0  0  0
 20 11  2  0  0  0  0
 21  1  1  0  0  0  0
 22 21  1  0  0  0  0
 23 26  2  0  0  0  0
 23 28  1  0  0  0  0
 24 22  1  0  0  0  0
 25 22  2  0  0  0  0
 26 25  1  0  0  0  0
 27 23  1  0  0  0  0
 28 24  2  0  0  0  0
M  END
>  <MODEL>
6

>  <REMARK>
 VINA RESULT:      -9.7      2.786      4.747
  Name = 
  2 active torsions:
  status: ('A' for Active; 'I' for Inactive)
    1  A    between atoms: N_1  and  C_2
    2  A    between atoms: C_2  and  C_3
                            x       y       z     vdW  Elec       q    Type
                         _______ _______ _______ _____ _____    ______ ____

>  <TORSDO>
F 2

$$$$
=
 OpenBabel10262420503D

 28 32  0  0  0  0  0  0  0  0999 V2000
  183.6180  178.6930  141.8860 N   0  0  0  0  0  0  0  0  0  0  0  0
  188.4720  177.7270  141.7330 C   0  0  0  0  0  2  0  0  0  0  0  0
  184.8130  178.3310  146.6910 C   0  0  0  0  0  1  0  0  0  0  0  0
  189.1830  177.5240  144.0470 C   0  0  0  0  0  0  0  0  0  0  0  0
  186.8780  178.0080  143.4960 C   0  0  0  0  0  0  0  0  0  0  0  0
  190.7830  177.2400  142.2470 C   0  0  0  0  0  0  0  0  0  0  0  0
  188.1490  177.7600  143.1030 C   0  0  0  0  0  0  0  0  0  0  0  0
  187.5840  177.8050  145.9310 C   0  0  0  0  0  3  0  0  0  0  0  0
  190.4860  177.2670  143.6090 C   0  0  0  0  0  3  0  0  0  0  0  0
  184.2320  178.5100  144.2520 C   0  0  0  0  0  0  0  0  0  0  0  0
  185.9080  178.2280  142.5640 N   0  0  0  0  0  0  0  0  0  0  0  0
  188.9450  177.5390  145.3600 C   0  0  0  0  0  3  0  0  0  0  0  0
  181.9610  178.9650  143.5840 C   0  0  0  0  0  3  0  0  0  0  0  0
  185.2010  178.2940  145.2430 C   0  0  0  0  0  0  0  0  0  0  0  0
  182.9870  178.7420  144.5700 N   0  0  0  0  0  0  0  0  0  0  0  0
  192.0800  176.9840  141.8240 O   0  0  0  0  0  1  0  0  0  0  0  0
  189.7770  177.4700  141.3080 C   0  0  0  0  0  3  0  0  0  0  0  0
  186.5360  178.0390  144.8700 C   0  0  0  0  0  0  0  0  0  0  0  0
  182.2640  178.9400  142.2860 C   0  0  0  0  0  3  0  0  0  0  0  0
  184.6140  178.4730  142.9000 C   0  0  0  0  0  0  0  0  0  0  0  0
  183.9440  178.6240  140.4670 C   0  0  0  0  0  2  0  0  0  0  0  0
  182.8990  177.8550  139.7310 C   0  0  0  0  0  0  0  0  0  0  0  0
  180.9760  176.4510  138.3100 C   0  0  0  0  0  0  0  0  0  0  0  0
  182.8070  176.4690  139.8760 C   0  0  0  0  0  3  0  0  0  0  0  0
  182.0210  178.5110  138.8630 C   0  0  0  0  0  3  0  0  0  0  0  0
  181.0850  177.8020  138.1770 N   0  0  0  0  0  0  0  0  0  0  0  0
  179.9390  175.7130  137.5430 C   0  0  0  0  0  1  0  0  0  0  0  0
  181.8390  175.7600  139.1630 C   0  0  0  0  0  3  0  0  0  0  0  0
  1 19  1  0  0  0  0
  1 20  1  0  0  0  0
  2  7  1  0  0  0  0
  4 12  1  0  0  0  0
  5 18  1  0  0  0  0
  6  9  1  0  0  0  0
  7  5  2  0  0  0  0
  7  4  1  0  0  0  0
  9  4  2  0  0  0  0
 10 15  2  0  0  0  0
 10 14  1  0  0  0  0
 11 20  2  0  0  0  0
 11  5  1  0  0  0  0
 12  8  2  0  0  0  0
 13 15  1  0  0  0  0
 14  3  1  0  0  0  0
 16  6  1  0  0  0  0
 17  2  1  0  0  0  0
 17  6  2  0  0  0  0
 18 14  2  0  0  0  0
 18  8  1  0  0  0  0
 19 13  2  0  0  0  0
 20 10  1  0  0  0  0
 21  1  1  0  0  0  0
 22 24  1  0  0  0  0
 22 21  1  0  0  0  0
 23 28  1  0  0  0  0
 25 22  2  0  0  0  0
 26 23  2  0  0  0  0
 26 25  1  0  0  0  0
 27 23  1  0  0  0  0
 28 24  2  0  0  0  0
M  END
>  <MODEL>
7

>  <REMARK>
 VINA RESULT:      -9.6      3.071      4.768
  Name = 
  2 active torsions:
  status: ('A' for Active; 'I' for Inactive)
    1  A    between atoms: N_1  and  C_2
    2  A    between atoms: C_2  and  C_3
                            x       y       z     vdW  Elec       q    Type
                         _______ _______ _______ _____ _____    ______ ____

>  <TORSDO>
F 2

$$$$
=
 OpenBabel10262420503D

 28 32  0  0  0  0  0  0  0  0999 V2000
  184.0780  178.8250  142.2370 N   0  0  0  0  0  0  0  0  0  0  0  0
  188.6590  177.8850  140.6120 C   0  0  0  0  0  2  0  0  0  0  0  0
  186.5060  177.6810  146.4130 C   0  0  0  0  0  1  0  0  0  0  0  0
  189.9570  177.3050  142.5810 C   0  0  0  0  0  0  0  0  0  0  0  0
  187.6150  177.8780  142.7660 C   0  0  0  0  0  0  0  0  0  0  0  0
  190.9980  177.3150  140.3910 C   0  0  0  0  0  0  0  0  0  0  0  0
  188.7200  177.6950  142.0050 C   0  0  0  0  0  0  0  0  0  0  0  0
  188.9410  177.2780  144.8510 C   0  0  0  0  0  3  0  0  0  0  0  0
  191.0800  177.1200  141.7700 C   0  0  0  0  0  3  0  0  0  0  0  0
  185.2970  178.2570  144.2850 C   0  0  0  0  0  0  0  0  0  0  0  0
  186.4410  178.2500  142.1810 N   0  0  0  0  0  0  0  0  0  0  0  0
  190.0840  177.1060  143.8950 C   0  0  0  0  0  3  0  0  0  0  0  0
  182.9540  178.8200  144.3440 C   0  0  0  0  0  3  0  0  0  0  0  0
  186.4870  177.8790  144.9270 C   0  0  0  0  0  0  0  0  0  0  0  0
  184.1960  178.4370  144.9640 N   0  0  0  0  0  0  0  0  0  0  0  0
  192.1190  177.1280  139.5940 O   0  0  0  0  0  1  0  0  0  0  0  0
  189.7880  177.6970  139.8110 C   0  0  0  0  0  3  0  0  0  0  0  0
  187.6580  177.6860  144.1680 C   0  0  0  0  0  0  0  0  0  0  0  0
  182.8950  179.0070  143.0250 C   0  0  0  0  0  3  0  0  0  0  0  0
  185.2980  178.4400  142.8920 C   0  0  0  0  0  0  0  0  0  0  0  0
  184.0050  178.9880  140.7900 C   0  0  0  0  0  2  0  0  0  0  0  0
  182.8960  178.1630  140.2300 C   0  0  0  0  0  0  0  0  0  0  0  0
  180.8320  176.6670  139.1390 C   0  0  0  0  0  0  0  0  0  0  0  0
  183.0560  176.7860  140.0580 C   0  0  0  0  0  3  0  0  0  0  0  0
  181.6960  178.7640  139.8410 C   0  0  0  0  0  3  0  0  0  0  0  0
  180.6970  178.0110  139.3090 N   0  0  0  0  0  0  0  0  0  0  0  0
  179.7160  175.8780  138.5540 C   0  0  0  0  0  1  0  0  0  0  0  0
  182.0180  176.0300  139.5100 C   0  0  0  0  0  3  0  0  0  0  0  0
  1 20  1  0  0  0  0
  1 19  1  0  0  0  0
  2  7  1  0  0  0  0
  4 12  1  0  0  0  0
  5 18  1  0  0  0  0
  6  9  1  0  0  0  0
  7  4  1  0  0  0  0
  7  5  2  0  0  0  0
  9  4  2  0  0  0  0
 10 14  1  0  0  0  0
 10 15  2  0  0  0  0
 11  5  1  0  0  0  0
 11 20  2  0  0  0  0
 12  8  2  0  0  0  0
 13 15  1  0  0  0  0
 14  3  1  0  0  0  0
 16  6  1  0  0  0  0
 17  6  2  0  0  0  0
 17  2  1  0  0  0  0
 18  8  1  0  0  0  0
 18 14  2  0  0  0  0
 19 13  2  0  0  0  0
 20 10  1  0  0  0  0
 21  1  1  0  0  0  0
 22 21  1  0  0  0  0
 23 26  2  0  0  0  0
 23 28  1  0  0  0  0
 24 22  1  0  0  0  0
 25 22  2  0  0  0  0
 26 25  1  0  0  0  0
 27 23  1  0  0  0  0
 28 24  2  0  0  0  0
M  END
>  <MODEL>
8

>  <REMARK>
 VINA RESULT:      -9.4      3.039      5.305
  Name = 
  2 active torsions:
  status: ('A' for Active; 'I' for Inactive)
    1  A    between atoms: N_1  and  C_2
    2  A    between atoms: C_2  and  C_3
                            x       y       z     vdW  Elec       q    Type
                         _______ _______ _______ _____ _____    ______ ____

>  <TORSDO>
F 2

$$$$
=
 OpenBabel10262420503D

 28 32  0  0  0  0  0  0  0  0999 V2000
  190.1490  177.6620  140.7820 N   0  0  0  0  0  0  0  0  0  0  0  0
  185.2880  178.4970  141.2080 C   0  0  0  0  0  2  0  0  0  0  0  0
  189.3780  177.1620  145.6610 C   0  0  0  0  0  1  0  0  0  0  0  0
  184.7810  178.2810  143.5740 C   0  0  0  0  0  0  0  0  0  0  0  0
  187.0350  177.9660  142.7560 C   0  0  0  0  0  0  0  0  0  0  0  0
  183.0240  178.8210  141.9910 C   0  0  0  0  0  0  0  0  0  0  0  0
  185.7310  178.2400  142.5190 C   0  0  0  0  0  0  0  0  0  0  0  0
  186.5430  177.7290  145.2400 C   0  0  0  0  0  3  0  0  0  0  0  0
  183.4410  178.5700  143.2990 C   0  0  0  0  0  3  0  0  0  0  0  0
  189.7440  177.4200  143.1870 C   0  0  0  0  0  0  0  0  0  0  0  0
  187.9220  177.9360  141.7210 N   0  0  0  0  0  0  0  0  0  0  0  0
  185.1330  178.0480  144.8400 C   0  0  0  0  0  3  0  0  0  0  0  0
  191.9540  177.1530  142.2620 C   0  0  0  0  0  3  0  0  0  0  0  0
  188.8630  177.4350  144.2790 C   0  0  0  0  0  0  0  0  0  0  0  0
  191.0160  177.1730  143.3540 N   0  0  0  0  0  0  0  0  0  0  0  0
  181.6920  179.1070  141.7300 O   0  0  0  0  0  1  0  0  0  0  0  0
  183.9470  178.7840  140.9450 C   0  0  0  0  0  3  0  0  0  0  0  0
  187.4970  177.7100  144.0700 C   0  0  0  0  0  0  0  0  0  0  0  0
  191.5370  177.3900  141.0180 C   0  0  0  0  0  3  0  0  0  0  0  0
  189.2440  177.6760  141.8990 C   0  0  0  0  0  0  0  0  0  0  0  0
  189.6990  177.9620  139.4290 C   0  0  0  0  0  2  0  0  0  0  0  0
  189.6530  176.7170  138.6090 C   0  0  0  0  0  0  0  0  0  0  0  0
  189.5350  174.4350  137.0390 C   0  0  0  0  0  0  0  0  0  0  0  0
  190.8250  176.0140  138.3230 C   0  0  0  0  0  3  0  0  0  0  0  0
  188.4380  176.2590  138.0900 C   0  0  0  0  0  3  0  0  0  0  0  0
  188.4040  175.1360  137.3240 N   0  0  0  0  0  0  0  0  0  0  0  0
  189.4560  173.2120  136.1980 C   0  0  0  0  0  1  0  0  0  0  0  0
  190.7690  174.8640  137.5340 C   0  0  0  0  0  3  0  0  0  0  0  0
  1 19  1  0  0  0  0
  1 20  1  0  0  0  0
  2  7  1  0  0  0  0
  4 12  1  0  0  0  0
  5 18  1  0  0  0  0
  6  9  1  0  0  0  0
  7  5  2  0  0  0  0
  7  4  1  0  0  0  0
  9  4  2  0  0  0  0
 10 15  2  0  0  0  0
 10 14  1  0  0  0  0
 11 20  2  0  0  0  0
 11  5  1  0  0  0  0
 12  8  2  0  0  0  0
 13 15  1  0  0  0  0
 14  3  1  0  0  0  0
 16  6  1  0  0  0  0
 17  2  1  0  0  0  0
 17  6  2  0  0  0  0
 18 14  2  0  0  0  0
 18  8  1  0  0  0  0
 19 13  2  0  0  0  0
 20 10  1  0  0  0  0
 21  1  1  0  0  0  0
 22 21  1  0  0  0  0
 23 26  2  0  0  0  0
 23 28  1  0  0  0  0
 24 22  1  0  0  0  0
 25 22  2  0  0  0  0
 26 25  1  0  0  0  0
 27 23  1  0  0  0  0
 28 24  2  0  0  0  0
M  END
>  <MODEL>
9

>  <REMARK>
 VINA RESULT:      -9.4      3.063      5.267
  Name = 
  2 active torsions:
  status: ('A' for Active; 'I' for Inactive)
    1  A    between atoms: N_1  and  C_2
    2  A    between atoms: C_2  and  C_3
                            x       y       z     vdW  Elec       q    Type
                         _______ _______ _______ _____ _____    ______ ____

>  <TORSDO>
F 2

$$$$
