=
 OpenBabel10262420053D

 27 31  0  0  1  0  0  0  0  0999 V2000
  190.0610  178.2000  141.2020 N   0  0  0  0  0  2  0  0  0  0  0  0
  187.6430  177.8310  141.3750 C   0  0  0  0  0  0  0  0  0  0  0  0
  188.4520  176.9000  143.6920 C   0  0  0  0  0  2  0  0  0  0  0  0
  183.9210  179.0780  143.1500 C   0  0  0  0  0  2  0  0  0  0  0  0
  182.7430  179.2390  145.2400 N   0  0  0  0  0  2  0  0  0  0  0  0
  186.6200  178.4660  140.6580 C   0  0  0  0  0  3  0  0  0  0  0  0
  185.9480  177.7060  144.8180 C   0  0  0  0  0  2  0  0  0  0  0  0
  191.2040  176.5560  145.3220 C   0  0  0  0  0  2  0  0  0  0  0  0
  185.0900  178.7950  145.4460 C   0  0  0  0  0  2  0  0  0  0  0  0
  192.2030  177.5610  144.9950 N   0  0  0  0  0  2  0  0  0  0  0  0
  186.2270  177.9950  143.3640 C   0  0  0  0  0  0  0  0  0  0  0  0
  188.9300  177.4660  140.6460 C   0  0  1  0  0  3  0  0  0  0  0  0
  183.8390  178.9500  144.6450 C   0  0  0  0  0  0  0  0  0  0  0  0
  185.2370  178.6180  142.5750 C   0  0  0  0  0  0  0  0  0  0  0  0
  190.4670  177.9130  142.5340 C   0  0  0  0  0  0  0  0  0  0  0  0
  187.4460  177.5900  142.7710 C   0  0  0  0  0  0  0  0  0  0  0  0
  190.7680  175.8350  144.0570 C   0  0  0  0  0  2  0  0  0  0  0  0
  185.4640  178.8350  141.2570 N   0  0  0  0  0  0  0  0  0  0  0  0
  191.4840  178.7780  144.6610 C   0  0  0  0  0  2  0  0  0  0  0  0
  191.1760  178.8320  143.1970 C   0  0  0  0  0  3  0  0  0  0  0  0
  189.8640  176.6860  143.1620 C   0  0  1  0  0  3  0  0  0  0  0  0
  188.8590  177.8820  136.3620 C   0  0  0  0  0  3  0  0  0  0  0  0
  188.8860  177.5980  139.1490 C   0  0  0  0  0  0  0  0  0  0  0  0
  189.1370  178.8450  138.5670 C   0  0  0  0  0  3  0  0  0  0  0  0
  189.1210  178.9870  137.1760 C   0  0  0  0  0  3  0  0  0  0  0  0
  188.6130  176.6320  136.9390 C   0  0  0  0  0  3  0  0  0  0  0  0
  188.6290  176.4890  138.3300 C   0  0  0  0  0  3  0  0  0  0  0  0
  1 15  1  0  0  0  0
  2 16  1  0  0  0  0
  4 13  1  0  0  0  0
  6 18  1  0  0  0  0
  6  2  2  0  0  0  0
  7  9  1  0  0  0  0
 10  8  1  0  0  0  0
 11  7  1  0  0  0  0
 12 23  1  6  0  0  0
 12  1  1  0  0  0  0
 12  2  1  0  0  0  0
 13  5  2  0  0  0  0
 13  9  1  0  0  0  0
 14  4  1  0  0  0  0
 14 11  1  0  0  0  0
 15 21  1  0  0  0  0
 15 20  2  0  0  0  0
 16 11  2  0  0  0  0
 16  3  1  0  0  0  0
 17  8  1  0  0  0  0
 18 14  2  0  0  0  0
 19 10  1  0  0  0  0
 20 19  1  0  0  0  0
 21  3  1  1  0  0  0
 21 17  1  0  0  0  0
 22 26  2  0  0  0  0
 22 25  1  0  0  0  0
 24 23  1  0  0  0  0
 25 24  2  0  0  0  0
 26 27  1  0  0  0  0
 27 23  2  0  0  0  0
M  END
>  <MODEL>
1

>  <REMARK>
 VINA RESULT:      -8.4      0.000      0.000
  Name = 
  1 active torsions:
  status: ('A' for Active; 'I' for Inactive)
    1  A    between atoms: C_9  and  C_15
                            x       y       z     vdW  Elec       q    Type
                         _______ _______ _______ _____ _____    ______ ____

>  <TORSDO>
F 1

$$$$
=
 OpenBabel10262420053D

 27 31  0  0  1  0  0  0  0  0999 V2000
  187.0990  177.2420  143.2570 N   0  0  0  0  0  2  0  0  0  0  0  0
  186.6290  178.3620  141.1280 C   0  0  0  0  0  0  0  0  0  0  0  0
  189.2510  178.4710  141.1750 C   0  0  0  0  0  2  0  0  0  0  0  0
  186.6940  178.1090  136.8270 C   0  0  0  0  0  2  0  0  0  0  0  0
  188.1620  177.9320  134.9310 N   0  0  0  0  0  2  0  0  0  0  0  0
  185.4710  178.2700  140.3420 C   0  0  0  0  0  3  0  0  0  0  0  0
  189.2430  178.3450  138.3170 C   0  0  0  0  0  2  0  0  0  0  0  0
  191.6670  177.5260  143.0760 C   0  0  0  0  0  2  0  0  0  0  0  0
  189.2050  177.5070  137.0470 C   0  0  0  0  0  2  0  0  0  0  0  0
  191.3660  176.3320  143.8500 N   0  0  0  0  0  2  0  0  0  0  0  0
  187.9320  178.2830  139.0580 C   0  0  0  0  0  0  0  0  0  0  0  0
  186.4810  178.4120  142.6430 C   0  0  1  0  0  3  0  0  0  0  0  0
  188.0530  177.9500  136.2060 C   0  0  0  0  0  0  0  0  0  0  0  0
  186.7240  178.2050  138.3320 C   0  0  0  0  0  0  0  0  0  0  0  0
  188.5110  177.0970  143.1730 C   0  0  0  0  0  0  0  0  0  0  0  0
  187.8990  178.3650  140.4700 C   0  0  0  0  0  0  0  0  0  0  0  0
  190.6210  178.5940  143.3510 C   0  0  0  0  0  2  0  0  0  0  0  0
  185.5410  178.1980  138.9910 N   0  0  0  0  0  0  0  0  0  0  0  0
  190.4640  175.5250  143.0460 C   0  0  0  0  0  2  0  0  0  0  0  0
  189.0370  175.8780  143.3260 C   0  0  0  0  0  3  0  0  0  0  0  0
  189.2740  178.3000  142.6880 C   0  0  1  0  0  3  0  0  0  0  0  0
  182.4930  179.0300  144.1380 C   0  0  0  0  0  3  0  0  0  0  0  0
  185.0810  178.6110  143.1510 C   0  0  0  0  0  0  0  0  0  0  0  0
  184.8720  178.7880  144.5230 C   0  0  0  0  0  3  0  0  0  0  0  0
  183.5800  178.9950  145.0160 C   0  0  0  0  0  3  0  0  0  0  0  0
  182.6970  178.8600  142.7650 C   0  0  0  0  0  3  0  0  0  0  0  0
  183.9880  178.6530  142.2720 C   0  0  0  0  0  3  0  0  0  0  0  0
  2 12  1  0  0  0  0
  4 14  1  0  0  0  0
  5 13  2  0  0  0  0
  6  2  2  0  0  0  0
  7 11  1  0  0  0  0
  8 17  1  0  0  0  0
  8 10  1  0  0  0  0
  9  7  1  0  0  0  0
 11 16  2  0  0  0  0
 12 23  1  6  0  0  0
 12  1  1  0  0  0  0
 13  4  1  0  0  0  0
 13  9  1  0  0  0  0
 14 18  2  0  0  0  0
 14 11  1  0  0  0  0
 15  1  1  0  0  0  0
 15 20  2  0  0  0  0
 16  2  1  0  0  0  0
 16  3  1  0  0  0  0
 18  6  1  0  0  0  0
 19 20  1  0  0  0  0
 19 10  1  0  0  0  0
 21  3  1  6  0  0  0
 21 15  1  0  0  0  0
 21 17  1  0  0  0  0
 22 25  1  0  0  0  0
 23 24  1  0  0  0  0
 24 25  2  0  0  0  0
 26 22  2  0  0  0  0
 27 26  1  0  0  0  0
 27 23  2  0  0  0  0
M  END
>  <MODEL>
2

>  <REMARK>
 VINA RESULT:      -7.9      1.854      5.957
  Name = 
  1 active torsions:
  status: ('A' for Active; 'I' for Inactive)
    1  A    between atoms: C_9  and  C_15
                            x       y       z     vdW  Elec       q    Type
                         _______ _______ _______ _____ _____    ______ ____

>  <TORSDO>
F 1

$$$$
=
 OpenBabel10262420053D

 27 31  0  0  1  0  0  0  0  0999 V2000
  189.5000  176.7800  140.5250 N   0  0  0  0  0  2  0  0  0  0  0  0
  187.8140  178.0220  141.7980 C   0  0  0  0  0  0  0  0  0  0  0  0
  187.2810  178.8260  139.3570 C   0  0  0  0  0  2  0  0  0  0  0  0
  183.6560  178.4110  142.8570 C   0  0  0  0  0  2  0  0  0  0  0  0
  181.4790  178.9070  141.9630 N   0  0  0  0  0  2  0  0  0  0  0  0
  187.3120  177.7350  143.0750 C   0  0  0  0  0  3  0  0  0  0  0  0
  184.5380  179.1110  140.1180 C   0  0  0  0  0  2  0  0  0  0  0  0
  188.3410  178.3060  136.3650 C   0  0  0  0  0  2  0  0  0  0  0  0
  183.1660  178.4820  140.3130 C   0  0  0  0  0  2  0  0  0  0  0  0
  188.9000  176.9780  136.1680 N   0  0  0  0  0  2  0  0  0  0  0  0
  185.5300  178.5920  141.1280 C   0  0  0  0  0  0  0  0  0  0  0  0
  189.2990  177.8150  141.5330 C   0  0  1  0  0  3  0  0  0  0  0  0
  182.7210  178.7130  141.7200 C   0  0  0  0  0  0  0  0  0  0  0  0
  185.1000  178.2970  142.4390 C   0  0  0  0  0  0  0  0  0  0  0  0
  189.0670  177.0340  139.1950 C   0  0  0  0  0  0  0  0  0  0  0  0
  186.8980  178.4610  140.7900 C   0  0  0  0  0  0  0  0  0  0  0  0
  189.0640  179.0030  137.5070 C   0  0  0  0  0  2  0  0  0  0  0  0
  185.9970  177.8780  143.3640 N   0  0  0  0  0  0  0  0  0  0  0  0
  188.1740  176.0800  137.0510 C   0  0  0  0  0  2  0  0  0  0  0  0
  188.8400  175.9920  138.3880 C   0  0  0  0  0  3  0  0  0  0  0  0
  188.6800  178.4540  138.8830 C   0  0  1  0  0  3  0  0  0  0  0  0
  191.6810  177.1120  145.0480 C   0  0  0  0  0  3  0  0  0  0  0  0
  190.1440  177.5550  142.7480 C   0  0  0  0  0  0  0  0  0  0  0  0
  190.5040  178.6280  143.5710 C   0  0  0  0  0  3  0  0  0  0  0  0
  191.2720  178.4070  144.7180 C   0  0  0  0  0  3  0  0  0  0  0  0
  191.3190  176.0350  144.2320 C   0  0  0  0  0  3  0  0  0  0  0  0
  190.5510  176.2550  143.0860 C   0  0  0  0  0  3  0  0  0  0  0  0
  1 12  1  0  0  0  0
  2  6  1  0  0  0  0
  3 16  1  0  0  0  0
  6 18  2  0  0  0  0
  7  9  1  0  0  0  0
  7 11  1  0  0  0  0
  8 17  1  0  0  0  0
  9 13  1  0  0  0  0
 10  8  1  0  0  0  0
 10 19  1  0  0  0  0
 11 14  2  0  0  0  0
 12  2  1  0  0  0  0
 12 23  1  1  0  0  0
 13  5  2  0  0  0  0
 13  4  1  0  0  0  0
 14  4  1  0  0  0  0
 14 18  1  0  0  0  0
 15  1  1  0  0  0  0
 16 11  1  0  0  0  0
 16  2  2  0  0  0  0
 19 20  1  0  0  0  0
 20 15  2  0  0  0  0
 21 17  1  6  0  0  0
 21 15  1  0  0  0  0
 21  3  1  0  0  0  0
 23 27  2  0  0  0  0
 23 24  1  0  0  0  0
 24 25  2  0  0  0  0
 25 22  1  0  0  0  0
 26 22  2  0  0  0  0
 27 26  1  0  0  0  0
M  END
>  <MODEL>
3

>  <REMARK>
 VINA RESULT:      -7.8      1.695      5.413
  Name = 
  1 active torsions:
  status: ('A' for Active; 'I' for Inactive)
    1  A    between atoms: C_9  and  C_15
                            x       y       z     vdW  Elec       q    Type
                         _______ _______ _______ _____ _____    ______ ____

>  <TORSDO>
F 1

$$$$
=
 OpenBabel10262420053D

 27 31  0  0  1  0  0  0  0  0999 V2000
  189.3630  175.6420  137.5920 N   0  0  0  0  0  2  0  0  0  0  0  0
  189.9050  176.7600  139.7050 C   0  0  0  0  0  0  0  0  0  0  0  0
  187.7170  178.0370  139.0170 C   0  0  0  0  0  2  0  0  0  0  0  0
  188.9250  177.2770  143.8680 C   0  0  0  0  0  2  0  0  0  0  0  0
  187.2270  178.0990  145.3590 N   0  0  0  0  0  2  0  0  0  0  0  0
  190.7070  176.2840  140.7520 C   0  0  0  0  0  3  0  0  0  0  0  0
  187.1300  178.3940  141.7940 C   0  0  0  0  0  2  0  0  0  0  0  0
  185.5470  177.9910  136.6440 C   0  0  0  0  0  2  0  0  0  0  0  0
  186.5240  177.8510  143.0800 C   0  0  0  0  0  2  0  0  0  0  0  0
  185.3790  176.6810  136.0340 N   0  0  0  0  0  2  0  0  0  0  0  0
  188.3630  177.6220  141.3980 C   0  0  0  0  0  0  0  0  0  0  0  0
  190.3390  176.4870  138.2700 C   0  0  1  0  0  3  0  0  0  0  0  0
  187.5670  177.8550  144.1490 C   0  0  0  0  0  0  0  0  0  0  0  0
  189.2260  177.1270  142.3980 C   0  0  0  0  0  0  0  0  0  0  0  0
  188.0670  176.1690  137.3400 C   0  0  0  0  0  0  0  0  0  0  0  0
  188.6940  177.4470  140.0340 C   0  0  0  0  0  0  0  0  0  0  0  0
  187.0080  178.4070  136.5700 C   0  0  0  0  0  2  0  0  0  0  0  0
  190.3610  176.4760  142.0470 N   0  0  0  0  0  0  0  0  0  0  0  0
  185.6150  175.6980  137.0770 C   0  0  0  0  0  2  0  0  0  0  0  0
  187.0600  175.3140  137.1320 C   0  0  0  0  0  3  0  0  0  0  0  0
  187.8980  177.6480  137.5560 C   0  0  1  0  0  3  0  0  0  0  0  0
  194.3060  174.9030  137.7430 C   0  0  0  0  0  3  0  0  0  0  0  0
  191.7300  175.9430  138.1060 C   0  0  0  0  0  0  0  0  0  0  0  0
  191.9010  174.6440  137.6160 C   0  0  0  0  0  3  0  0  0  0  0  0
  193.1860  174.1240  137.4360 C   0  0  0  0  0  3  0  0  0  0  0  0
  194.1400  176.2040  138.2270 C   0  0  0  0  0  3  0  0  0  0  0  0
  192.8560  176.7250  138.4070 C   0  0  0  0  0  3  0  0  0  0  0  0
  1 12  1  0  0  0  0
  2 16  2  0  0  0  0
  2  6  1  0  0  0  0
  3 16  1  0  0  0  0
  4 13  1  0  0  0  0
  6 18  2  0  0  0  0
  7  9  1  0  0  0  0
  9 13  1  0  0  0  0
 10  8  1  0  0  0  0
 10 19  1  0  0  0  0
 11  7  1  0  0  0  0
 11 14  2  0  0  0  0
 12 23  1  1  0  0  0
 12  2  1  0  0  0  0
 13  5  2  0  0  0  0
 14  4  1  0  0  0  0
 15 21  1  0  0  0  0
 15  1  1  0  0  0  0
 16 11  1  0  0  0  0
 17  8  1  0  0  0  0
 18 14  1  0  0  0  0
 19 20  1  0  0  0  0
 20 15  2  0  0  0  0
 21 17  1  6  0  0  0
 21  3  1  0  0  0  0
 22 26  1  0  0  0  0
 23 27  1  0  0  0  0
 24 23  2  0  0  0  0
 25 24  1  0  0  0  0
 25 22  2  0  0  0  0
 26 27  2  0  0  0  0
M  END
>  <MODEL>
4

>  <REMARK>
 VINA RESULT:      -6.8      3.094      5.952
  Name = 
  1 active torsions:
  status: ('A' for Active; 'I' for Inactive)
    1  A    between atoms: C_9  and  C_15
                            x       y       z     vdW  Elec       q    Type
                         _______ _______ _______ _____ _____    ______ ____

>  <TORSDO>
F 1

$$$$
=
 OpenBabel10262420053D

 27 31  0  0  1  0  0  0  0  0999 V2000
  185.0840  177.4640  138.1490 N   0  0  0  0  0  2  0  0  0  0  0  0
  186.5290  178.2290  139.9750 C   0  0  0  0  0  0  0  0  0  0  0  0
  184.2600  179.3780  140.6260 C   0  0  0  0  0  2  0  0  0  0  0  0
  187.5720  177.8780  144.1410 C   0  0  0  0  0  2  0  0  0  0  0  0
  186.7440  178.2360  146.3700 N   0  0  0  0  0  2  0  0  0  0  0  0
  187.7260  177.6560  140.4270 C   0  0  0  0  0  3  0  0  0  0  0  0
  185.0140  179.1620  143.3780 C   0  0  0  0  0  2  0  0  0  0  0  0
  181.2410  179.5400  139.5280 C   0  0  0  0  0  2  0  0  0  0  0  0
  185.0720  178.3350  144.6540 C   0  0  0  0  0  2  0  0  0  0  0  0
  180.8210  178.3530  138.8010 N   0  0  0  0  0  2  0  0  0  0  0  0
  185.9320  178.6060  142.3190 C   0  0  0  0  0  0  0  0  0  0  0  0
  186.2550  178.2680  138.4770 C   0  0  1  0  0  3  0  0  0  0  0  0
  186.4910  178.2530  145.1150 C   0  0  0  0  0  0  0  0  0  0  0  0
  187.1630  178.0290  142.6970 C   0  0  0  0  0  0  0  0  0  0  0  0
  183.8130  177.8910  138.6220 C   0  0  0  0  0  0  0  0  0  0  0  0
  185.6000  178.7170  140.9480 C   0  0  0  0  0  0  0  0  0  0  0  0
  182.5000  180.1110  138.8960 C   0  0  0  0  0  2  0  0  0  0  0  0
  188.0140  177.5730  141.7470 N   0  0  0  0  0  0  0  0  0  0  0  0
  181.5190  177.2260  139.3970 C   0  0  0  0  0  2  0  0  0  0  0  0
  182.8300  176.9890  138.7150 C   0  0  0  0  0  3  0  0  0  0  0  0
  183.7510  179.2810  139.1940 C   0  0  1  0  0  3  0  0  0  0  0  0
  189.5470  177.2050  135.9170 C   0  0  0  0  0  3  0  0  0  0  0  0
  187.4190  177.9090  137.5970 C   0  0  0  0  0  0  0  0  0  0  0  0
  187.5370  176.5980  137.1240 C   0  0  0  0  0  3  0  0  0  0  0  0
  188.6000  176.2460  136.2870 C   0  0  0  0  0  3  0  0  0  0  0  0
  189.4310  178.5180  136.3830 C   0  0  0  0  0  3  0  0  0  0  0  0
  188.3680  178.8710  137.2190 C   0  0  0  0  0  3  0  0  0  0  0  0
  1 12  1  0  0  0  0
  1 15  1  0  0  0  0
  2  6  2  0  0  0  0
  2 16  1  0  0  0  0
  3 16  1  0  0  0  0
  4 13  1  0  0  0  0
  6 18  1  0  0  0  0
  7  9  1  0  0  0  0
  9 13  1  0  0  0  0
 10 19  1  0  0  0  0
 10  8  1  0  0  0  0
 11 14  1  0  0  0  0
 11  7  1  0  0  0  0
 12 23  1  6  0  0  0
 12  2  1  0  0  0  0
 13  5  2  0  0  0  0
 14  4  1  0  0  0  0
 15 20  2  0  0  0  0
 15 21  1  0  0  0  0
 16 11  2  0  0  0  0
 17  8  1  0  0  0  0
 18 14  2  0  0  0  0
 20 19  1  0  0  0  0
 21 17  1  1  0  0  0
 21  3  1  0  0  0  0
 22 25  2  0  0  0  0
 22 26  1  0  0  0  0
 24 23  2  0  0  0  0
 25 24  1  0  0  0  0
 26 27  2  0  0  0  0
 27 23  1  0  0  0  0
M  END
>  <MODEL>
5

>  <REMARK>
 VINA RESULT:      -6.7      2.703      5.951
  Name = 
  1 active torsions:
  status: ('A' for Active; 'I' for Inactive)
    1  A    between atoms: C_9  and  C_15
                            x       y       z     vdW  Elec       q    Type
                         _______ _______ _______ _____ _____    ______ ____

>  <TORSDO>
F 1

$$$$
=
 OpenBabel10262420053D

 27 31  0  0  1  0  0  0  0  0999 V2000
  182.8960  179.3760  140.5800 N   0  0  0  0  0  2  0  0  0  0  0  0
  185.0100  178.2410  140.0830 C   0  0  0  0  0  0  0  0  0  0  0  0
  183.5720  177.5410  138.0010 C   0  0  0  0  0  2  0  0  0  0  0  0
  188.5810  178.1570  137.6730 C   0  0  0  0  0  2  0  0  0  0  0  0
  189.3800  177.8570  135.4240 N   0  0  0  0  0  2  0  0  0  0  0  0
  186.2870  178.5360  140.5820 C   0  0  0  0  0  3  0  0  0  0  0  0
  185.9750  177.4560  136.4500 C   0  0  0  0  0  2  0  0  0  0  0  0
  180.6180  178.0480  136.8350 C   0  0  0  0  0  2  0  0  0  0  0  0
  187.0120  178.1870  135.6100 C   0  0  0  0  0  2  0  0  0  0  0  0
  180.0530  179.3320  137.2180 N   0  0  0  0  0  2  0  0  0  0  0  0
  186.0500  177.8700  137.8980 C   0  0  0  0  0  0  0  0  0  0  0  0
  183.8160  178.3360  141.0240 C   0  0  1  0  0  3  0  0  0  0  0  0
  188.3650  177.9570  136.1990 C   0  0  0  0  0  0  0  0  0  0  0  0
  187.3040  178.1670  138.4740 C   0  0  0  0  0  0  0  0  0  0  0  0
  182.2010  179.1900  139.3540 C   0  0  0  0  0  0  0  0  0  0  0  0
  184.8840  177.9010  138.6990 C   0  0  0  0  0  0  0  0  0  0  0  0
  181.0130  177.2690  138.0790 C   0  0  0  0  0  2  0  0  0  0  0  0
  187.3820  178.4910  139.7870 N   0  0  0  0  0  0  0  0  0  0  0  0
  181.1630  180.2630  137.3340 C   0  0  0  0  0  2  0  0  0  0  0  0
  181.7140  180.2650  138.7260 C   0  0  0  0  0  3  0  0  0  0  0  0
  182.2750  177.8130  138.7520 C   0  0  1  0  0  3  0  0  0  0  0  0
  184.7160  178.7770  145.2100 C   0  0  0  0  0  3  0  0  0  0  0  0
  184.1510  178.4990  142.4800 C   0  0  0  0  0  0  0  0  0  0  0  0
  183.1790  179.0010  143.3520 C   0  0  0  0  0  3  0  0  0  0  0  0
  183.4620  179.1420  144.7140 C   0  0  0  0  0  3  0  0  0  0  0  0
  185.6900  178.2700  144.3440 C   0  0  0  0  0  3  0  0  0  0  0  0
  185.4080  178.1280  142.9820 C   0  0  0  0  0  3  0  0  0  0  0  0
  1 12  1  0  0  0  0
  2  6  1  0  0  0  0
  2 12  1  0  0  0  0
  3 16  1  0  0  0  0
  4 14  1  0  0  0  0
  5 13  2  0  0  0  0
  7 11  1  0  0  0  0
  8 10  1  0  0  0  0
  8 17  1  0  0  0  0
  9 13  1  0  0  0  0
  9  7  1  0  0  0  0
 10 19  1  0  0  0  0
 11 14  2  0  0  0  0
 11 16  1  0  0  0  0
 12 23  1  1  0  0  0
 13  4  1  0  0  0  0
 14 18  1  0  0  0  0
 15  1  1  0  0  0  0
 16  2  2  0  0  0  0
 17 21  1  0  0  0  0
 18  6  2  0  0  0  0
 19 20  1  0  0  0  0
 20 15  2  0  0  0  0
 21  3  1  6  0  0  0
 21 15  1  0  0  0  0
 23 27  2  0  0  0  0
 23 24  1  0  0  0  0
 24 25  2  0  0  0  0
 25 22  1  0  0  0  0
 26 22  2  0  0  0  0
 27 26  1  0  0  0  0
M  END
>  <MODEL>
6

>  <REMARK>
 VINA RESULT:      -6.7      3.602      8.663
  Name = 
  1 active torsions:
  status: ('A' for Active; 'I' for Inactive)
    1  A    between atoms: C_9  and  C_15
                            x       y       z     vdW  Elec       q    Type
                         _______ _______ _______ _____ _____    ______ ____

>  <TORSDO>
F 1

$$$$
=
 OpenBabel10262420053D

 27 31  0  0  1  0  0  0  0  0999 V2000
  191.7240  177.3660  140.8530 N   0  0  0  0  0  2  0  0  0  0  0  0
  189.4880  177.1000  139.8830 C   0  0  0  0  0  0  0  0  0  0  0  0
  188.9390  176.9300  142.4440 C   0  0  0  0  0  2  0  0  0  0  0  0
  185.6360  178.8860  139.1530 C   0  0  0  0  0  2  0  0  0  0  0  0
  183.6560  179.7070  140.2440 N   0  0  0  0  0  2  0  0  0  0  0  0
  189.0470  177.4920  138.6120 C   0  0  0  0  0  3  0  0  0  0  0  0
  186.3750  178.0790  141.9050 C   0  0  0  0  0  2  0  0  0  0  0  0
  190.4940  177.0780  145.2560 C   0  0  0  0  0  2  0  0  0  0  0  0
  185.5170  179.3190  141.7050 C   0  0  0  0  0  2  0  0  0  0  0  0
  191.6810  177.9170  145.2210 N   0  0  0  0  0  2  0  0  0  0  0  0
  187.3500  177.8950  140.7710 C   0  0  0  0  0  0  0  0  0  0  0  0
  190.8850  176.5090  140.0230 C   0  0  1  0  0  3  0  0  0  0  0  0
  184.8380  179.2320  140.3780 C   0  0  0  0  0  0  0  0  0  0  0  0
  186.9700  178.2530  139.4590 C   0  0  0  0  0  0  0  0  0  0  0  0
  191.3990  177.5040  142.2300 C   0  0  0  0  0  0  0  0  0  0  0  0
  188.6180  177.3090  140.9990 C   0  0  0  0  0  0  0  0  0  0  0  0
  190.5940  176.0030  144.1860 C   0  0  0  0  0  2  0  0  0  0  0  0
  187.8240  178.0440  138.4290 N   0  0  0  0  0  0  0  0  0  0  0  0
  191.4190  178.9780  144.2630 C   0  0  0  0  0  2  0  0  0  0  0  0
  191.8530  178.5750  142.8880 C   0  0  0  0  0  3  0  0  0  0  0  0
  190.3750  176.5430  142.7710 C   0  0  1  0  0  3  0  0  0  0  0  0
  192.9190  175.5250  136.3590 C   0  0  0  0  0  3  0  0  0  0  0  0
  191.5750  176.1670  138.7320 C   0  0  0  0  0  0  0  0  0  0  0  0
  192.8120  176.7550  138.4430 C   0  0  0  0  0  3  0  0  0  0  0  0
  193.4820  176.4360  137.2580 C   0  0  0  0  0  3  0  0  0  0  0  0
  191.6870  174.9300  136.6460 C   0  0  0  0  0  3  0  0  0  0  0  0
  191.0160  175.2480  137.8310 C   0  0  0  0  0  3  0  0  0  0  0  0
  1 15  1  0  0  0  0
  2 12  1  0  0  0  0
  2 16  1  0  0  0  0
  4 14  1  0  0  0  0
  4 13  1  0  0  0  0
  5 13  2  0  0  0  0
  6  2  2  0  0  0  0
  9  7  1  0  0  0  0
 10  8  1  0  0  0  0
 11 16  2  0  0  0  0
 11  7  1  0  0  0  0
 12 23  1  6  0  0  0
 12  1  1  0  0  0  0
 13  9  1  0  0  0  0
 14 11  1  0  0  0  0
 15 21  1  0  0  0  0
 15 20  2  0  0  0  0
 16  3  1  0  0  0  0
 17  8  1  0  0  0  0
 18  6  1  0  0  0  0
 18 14  2  0  0  0  0
 19 10  1  0  0  0  0
 20 19  1  0  0  0  0
 21  3  1  1  0  0  0
 21 17  1  0  0  0  0
 22 26  2  0  0  0  0
 22 25  1  0  0  0  0
 24 23  1  0  0  0  0
 25 24  2  0  0  0  0
 26 27  1  0  0  0  0
 27 23  2  0  0  0  0
M  END
>  <MODEL>
7

>  <REMARK>
 VINA RESULT:      -6.5      2.236      3.063
  Name = 
  1 active torsions:
  status: ('A' for Active; 'I' for Inactive)
    1  A    between atoms: C_9  and  C_15
                            x       y       z     vdW  Elec       q    Type
                         _______ _______ _______ _____ _____    ______ ____

>  <TORSDO>
F 1

$$$$
=
 OpenBabel10262420053D

 27 31  0  0  1  0  0  0  0  0999 V2000
  188.7390  177.7580  139.4510 N   0  0  0  0  0  2  0  0  0  0  0  0
  190.8470  176.5560  139.1050 C   0  0  0  0  0  0  0  0  0  0  0  0
  189.4400  175.6820  137.0680 C   0  0  0  0  0  2  0  0  0  0  0  0
  194.4620  176.2050  136.7870 C   0  0  0  0  0  2  0  0  0  0  0  0
  195.3000  175.6870  134.5940 N   0  0  0  0  0  2  0  0  0  0  0  0
  192.1180  176.8820  139.6010 C   0  0  0  0  0  3  0  0  0  0  0  0
  191.8710  175.4240  135.5820 C   0  0  0  0  0  2  0  0  0  0  0  0
  186.5170  176.1120  135.8000 C   0  0  0  0  0  2  0  0  0  0  0  0
  192.9340  176.0610  134.6990 C   0  0  0  0  0  2  0  0  0  0  0  0
  185.9620  177.4330  136.0500 N   0  0  0  0  0  2  0  0  0  0  0  0
  191.9240  175.9700  136.9870 C   0  0  0  0  0  0  0  0  0  0  0  0
  189.6370  176.7530  140.0090 C   0  0  1  0  0  3  0  0  0  0  0  0
  194.2720  175.8710  135.3340 C   0  0  0  0  0  0  0  0  0  0  0  0
  193.1700  176.3050  137.5580 C   0  0  0  0  0  0  0  0  0  0  0  0
  188.0660  177.4660  138.2330 C   0  0  0  0  0  0  0  0  0  0  0  0
  190.7430  176.0900  137.7560 C   0  0  0  0  0  0  0  0  0  0  0  0
  186.8770  175.4480  137.1190 C   0  0  0  0  0  2  0  0  0  0  0  0
  193.2270  176.7500  138.8360 N   0  0  0  0  0  0  0  0  0  0  0  0
  187.0820  178.3580  136.1020 C   0  0  0  0  0  2  0  0  0  0  0  0
  187.6060  178.4840  137.4990 C   0  0  0  0  0  3  0  0  0  0  0  0
  188.1330  176.0380  137.7640 C   0  0  1  0  0  3  0  0  0  0  0  0
  190.4620  177.6230  144.1420 C   0  0  0  0  0  3  0  0  0  0  0  0
  189.9460  177.0470  141.4500 C   0  0  0  0  0  0  0  0  0  0  0  0
  189.6100  178.2980  141.9780 C   0  0  0  0  0  3  0  0  0  0  0  0
  189.8690  178.5870  143.3210 C   0  0  0  0  0  3  0  0  0  0  0  0
  190.7940  176.3690  143.6210 C   0  0  0  0  0  3  0  0  0  0  0  0
  190.5350  176.0800  142.2780 C   0  0  0  0  0  3  0  0  0  0  0  0
  1 12  1  0  0  0  0
  2  6  1  0  0  0  0
  2 12  1  0  0  0  0
  3 16  1  0  0  0  0
  4 14  1  0  0  0  0
  5 13  2  0  0  0  0
  7 11  1  0  0  0  0
  8 10  1  0  0  0  0
  8 17  1  0  0  0  0
  9 13  1  0  0  0  0
  9  7  1  0  0  0  0
 10 19  1  0  0  0  0
 11 14  2  0  0  0  0
 11 16  1  0  0  0  0
 12 23  1  1  0  0  0
 13  4  1  0  0  0  0
 14 18  1  0  0  0  0
 15  1  1  0  0  0  0
 16  2  2  0  0  0  0
 17 21  1  0  0  0  0
 18  6  2  0  0  0  0
 19 20  1  0  0  0  0
 20 15  2  0  0  0  0
 21  3  1  6  0  0  0
 21 15  1  0  0  0  0
 23 24  2  0  0  0  0
 23 27  1  0  0  0  0
 24 25  1  0  0  0  0
 25 22  2  0  0  0  0
 26 22  1  0  0  0  0
 27 26  2  0  0  0  0
M  END
>  <MODEL>
8

>  <REMARK>
 VINA RESULT:      -6.4      3.503      8.653
  Name = 
  1 active torsions:
  status: ('A' for Active; 'I' for Inactive)
    1  A    between atoms: C_9  and  C_15
                            x       y       z     vdW  Elec       q    Type
                         _______ _______ _______ _____ _____    ______ ____

>  <TORSDO>
F 1

$$$$
=
 OpenBabel10262420053D

 27 31  0  0  1  0  0  0  0  0999 V2000
  187.7810  177.4600  142.7770 N   0  0  0  0  0  2  0  0  0  0  0  0
  188.3430  177.8180  140.4180 C   0  0  0  0  0  0  0  0  0  0  0  0
  190.6840  178.1910  141.5450 C   0  0  0  0  0  2  0  0  0  0  0  0
  190.2650  176.2610  136.8900 C   0  0  0  0  0  2  0  0  0  0  0  0
  192.4030  175.6520  135.9720 N   0  0  0  0  0  2  0  0  0  0  0  0
  187.6420  177.3760  139.2870 C   0  0  0  0  0  3  0  0  0  0  0  0
  191.9180  177.1910  139.1660 C   0  0  0  0  0  2  0  0  0  0  0  0
  191.9780  178.1160  144.4890 C   0  0  0  0  0  2  0  0  0  0  0  0
  192.3950  176.0030  138.3440 C   0  0  0  0  0  2  0  0  0  0  0  0
  191.3110  177.1960  145.3950 N   0  0  0  0  0  2  0  0  0  0  0  0
  190.4130  177.2330  139.2510 C   0  0  0  0  0  0  0  0  0  0  0  0
  187.5520  178.3170  141.6200 C   0  0  1  0  0  3  0  0  0  0  0  0
  191.7490  176.0520  136.9980 C   0  0  0  0  0  0  0  0  0  0  0  0
  189.6410  176.8180  138.1450 C   0  0  0  0  0  0  0  0  0  0  0  0
  189.0790  177.4340  143.3560 C   0  0  0  0  0  0  0  0  0  0  0  0
  189.7720  177.7420  140.4050 C   0  0  0  0  0  0  0  0  0  0  0  0
  190.9720  179.1110  143.9330 C   0  0  0  0  0  2  0  0  0  0  0  0
  188.2890  176.9000  138.1980 N   0  0  0  0  0  0  0  0  0  0  0  0
  190.8120  176.0960  144.5870 C   0  0  0  0  0  2  0  0  0  0  0  0
  189.4250  176.3780  144.1000 C   0  0  0  0  0  3  0  0  0  0  0  0
  190.0360  178.4970  142.8890 C   0  0  1  0  0  3  0  0  0  0  0  0
  183.3370  178.9430  141.0110 C   0  0  0  0  0  3  0  0  0  0  0  0
  186.0820  178.5260  141.3870 C   0  0  0  0  0  0  0  0  0  0  0  0
  185.1830  178.2680  142.4270 C   0  0  0  0  0  3  0  0  0  0  0  0
  183.8130  178.4740  142.2390 C   0  0  0  0  0  3  0  0  0  0  0  0
  184.2330  179.2090  139.9700 C   0  0  0  0  0  3  0  0  0  0  0  0
  185.6020  179.0030  140.1570 C   0  0  0  0  0  3  0  0  0  0  0  0
  1 15  1  0  0  0  0
  2 12  1  0  0  0  0
  4 13  1  0  0  0  0
  4 14  1  0  0  0  0
  5 13  2  0  0  0  0
  6  2  2  0  0  0  0
  7 11  1  0  0  0  0
  8 10  1  0  0  0  0
  9  7  1  0  0  0  0
 11 16  2  0  0  0  0
 12 23  1  6  0  0  0
 12  1  1  0  0  0  0
 13  9  1  0  0  0  0
 14 18  2  0  0  0  0
 14 11  1  0  0  0  0
 15 20  2  0  0  0  0
 16  2  1  0  0  0  0
 16  3  1  0  0  0  0
 17  8  1  0  0  0  0
 18  6  1  0  0  0  0
 19 10  1  0  0  0  0
 20 19  1  0  0  0  0
 21  3  1  6  0  0  0
 21 15  1  0  0  0  0
 21 17  1  0  0  0  0
 22 25  1  0  0  0  0
 23 24  1  0  0  0  0
 25 24  2  0  0  0  0
 26 27  1  0  0  0  0
 26 22  2  0  0  0  0
 27 23  2  0  0  0  0
M  END
>  <MODEL>
9

>  <REMARK>
 VINA RESULT:      -6.2      2.170      5.998
  Name = 
  1 active torsions:
  status: ('A' for Active; 'I' for Inactive)
    1  A    between atoms: C_9  and  C_15
                            x       y       z     vdW  Elec       q    Type
                         _______ _______ _______ _____ _____    ______ ____

>  <TORSDO>
F 1

$$$$
