=
 OpenBabel10262419273D

 31 35  0  0  1  0  0  0  0  0999 V2000
  186.7040  178.2820  138.6980 C   0  0  2  0  0  3  0  0  0  0  0  0
  184.1210  178.8620  141.5070 C   0  0  2  0  0  3  0  0  0  0  0  0
  182.7700  178.2620  141.0290 C   0  0  1  0  0  3  0  0  0  0  0  0
  181.8890  176.3720  139.5570 C   0  0  0  0  0  2  0  0  0  0  0  0
  185.3600  178.3080  140.7900 C   0  0  1  0  0  3  0  0  0  0  0  0
  187.7800  178.8920  139.3730 O   0  0  0  0  0  0  0  0  0  0  0  0
  182.8510  176.7770  140.6850 C   0  0  0  0  0  2  0  0  0  0  0  0
  185.5590  178.7360  143.7550 C   0  0  1  0  0  3  0  0  0  0  0  0
  186.7360  178.6430  137.2950 N   0  0  0  0  0  1  0  0  0  0  0  0
  181.8620  179.6000  143.0120 C   0  0  0  0  0  2  0  0  0  0  0  0
  180.5950  177.1830  139.4590 C   0  0  0  0  0  2  0  0  0  0  0  0
  186.6750  178.1700  142.8640 C   0  0  0  0  0  2  0  0  0  0  0  0
  184.2450  178.9470  143.0230 C   0  0  0  0  0  0  0  0  0  0  0  0
  185.3740  178.7220  139.3190 C   0  0  0  0  0  2  0  0  0  0  0  0
  179.9260  177.2740  140.7520 N   0  0  0  0  0  2  0  0  0  0  0  0
  186.6380  178.7790  141.4770 C   0  0  1  0  0  3  0  0  0  0  0  0
  187.8380  178.3120  140.6550 C   0  0  0  0  0  2  0  0  0  0  0  0
  183.1680  179.3530  143.7150 C   0  0  0  0  0  3  0  0  0  0  0  0
  181.6250  178.4380  142.0510 C   0  0  1  0  0  3  0  0  0  0  0  0
  180.2840  178.5560  141.3480 C   0  0  0  0  0  2  0  0  0  0  0  0
  185.3610  177.8110  144.9540 C   0  0  0  0  0  2  0  0  0  0  0  0
  189.8470  177.0670  147.3850 C   0  0  2  0  0  3  0  0  0  0  0  0
  188.0140  176.8290  145.7410 C   0  0  0  0  0  2  0  0  0  0  0  0
  187.4340  177.2060  148.8300 O   0  0  0  0  0  1  0  0  0  0  0  0
  185.4760  179.1970  146.8820 O   0  0  0  0  0  0  0  0  0  0  0  0
  191.3490  177.1130  147.5570 C   0  0  0  0  0  1  0  0  0  0  0  0
  186.0520  178.3330  146.1740 C   0  0  0  0  0  0  0  0  0  0  0  0
  189.5230  176.9250  145.9050 C   0  0  0  0  0  2  0  0  0  0  0  0
  187.8710  178.1490  147.8920 C   0  0  2  0  0  3  0  0  0  0  0  0
  187.3460  177.8420  146.5550 N   0  0  0  0  0  0  0  0  0  0  0  0
  189.2830  178.2610  147.8890 O   0  0  0  0  0  0  0  0  0  0  0  0
  1  9  1  6  0  0  0
  1 14  1  0  0  0  0
  1  6  1  0  0  0  0
  2 13  1  1  0  0  0
  3  7  1  1  0  0  0
  3  2  1  0  0  0  0
  3 19  1  0  0  0  0
  4  7  1  0  0  0  0
  5 14  1  6  0  0  0
  5 16  1  0  0  0  0
  5  2  1  0  0  0  0
  6 17  1  0  0  0  0
  8 21  1  1  0  0  0
 10 18  1  0  0  0  0
 11  4  1  0  0  0  0
 11 15  1  0  0  0  0
 12  8  1  0  0  0  0
 13 18  2  0  0  0  0
 13  8  1  0  0  0  0
 15 20  1  0  0  0  0
 16 17  1  6  0  0  0
 16 12  1  0  0  0  0
 19 20  1  6  0  0  0
 19 10  1  0  0  0  0
 21 27  1  0  0  0  0
 22 26  1  6  0  0  0
 22 31  1  0  0  0  0
 23 28  1  0  0  0  0
 23 30  1  0  0  0  0
 27 30  1  0  0  0  0
 27 25  2  0  0  0  0
 28 22  1  0  0  0  0
 29 24  1  1  0  0  0
 30 29  1  0  0  0  0
 31 29  1  0  0  0  0
M  END
>  <MODEL>
1

>  <REMARK>
 VINA RESULT:      -8.9      0.000      0.000
  Name = 
  2 active torsions:
  status: ('A' for Active; 'I' for Inactive)
    1  A    between atoms: C_9  and  C_23
    2  A    between atoms: C_15  and  C_23
                            x       y       z     vdW  Elec       q    Type
                         _______ _______ _______ _____ _____    ______ ____

>  <TORSDO>
F 2

$$$$
=
 OpenBabel10262419273D

 31 35  0  0  1  0  0  0  0  0999 V2000
  188.8140  177.7240  137.4370 C   0  0  2  0  0  3  0  0  0  0  0  0
  185.2980  178.6030  138.7640 C   0  0  2  0  0  3  0  0  0  0  0  0
  184.2630  177.9080  137.8390 C   0  0  1  0  0  3  0  0  0  0  0  0
  184.0350  175.8130  136.3970 C   0  0  0  0  0  2  0  0  0  0  0  0
  186.7060  177.9930  138.7270 C   0  0  1  0  0  3  0  0  0  0  0  0
  189.5170  178.4490  138.4190 O   0  0  0  0  0  0  0  0  0  0  0  0
  184.4340  176.3930  137.7630 C   0  0  0  0  0  2  0  0  0  0  0  0
  185.6310  178.8210  141.4060 C   0  0  1  0  0  3  0  0  0  0  0  0
  189.4550  177.8940  136.1480 N   0  0  0  0  0  1  0  0  0  0  0  0
  182.6380  179.4740  139.0440 C   0  0  0  0  0  2  0  0  0  0  0  0
  182.9340  176.5670  135.6470 C   0  0  0  0  0  2  0  0  0  0  0  0
  187.0020  178.1720  141.1630 C   0  0  0  0  0  2  0  0  0  0  0  0
  184.7640  178.8950  140.1600 C   0  0  0  0  0  0  0  0  0  0  0  0
  187.3610  178.2060  137.3630 C   0  0  0  0  0  2  0  0  0  0  0  0
  181.7800  176.8120  136.5040 N   0  0  0  0  0  2  0  0  0  0  0  0
  187.5810  178.5880  139.8260 C   0  0  1  0  0  3  0  0  0  0  0  0
  189.0020  178.0480  139.6680 C   0  0  0  0  0  2  0  0  0  0  0  0
  183.5080  179.3600  140.2640 C   0  0  0  0  0  3  0  0  0  0  0  0
  182.7970  178.1870  138.2380 C   0  0  1  0  0  3  0  0  0  0  0  0
  181.8900  178.1720  137.0200 C   0  0  0  0  0  2  0  0  0  0  0  0
  184.9090  178.0600  142.5160 C   0  0  0  0  0  2  0  0  0  0  0  0
  187.2720  177.8920  147.0950 C   0  0  2  0  0  3  0  0  0  0  0  0
  186.5970  177.2920  144.7930 C   0  0  0  0  0  2  0  0  0  0  0  0
  184.4950  178.3150  146.9260 O   0  0  0  0  0  1  0  0  0  0  0  0
  184.1220  179.8270  143.8980 O   0  0  0  0  0  0  0  0  0  0  0  0
  188.4420  177.9870  148.0510 C   0  0  0  0  0  1  0  0  0  0  0  0
  184.8890  178.8370  143.7950 C   0  0  0  0  0  0  0  0  0  0  0  0
  187.7820  177.4340  145.7370 C   0  0  0  0  0  2  0  0  0  0  0  0
  185.4670  179.0400  146.2280 C   0  0  2  0  0  3  0  0  0  0  0  0
  185.7130  178.4500  144.9050 N   0  0  0  0  0  0  0  0  0  0  0  0
  186.6620  179.1610  146.9790 O   0  0  0  0  0  0  0  0  0  0  0  0
  1  9  1  6  0  0  0
  1  6  1  0  0  0  0
  2 13  1  1  0  0  0
  3  7  1  1  0  0  0
  3 19  1  0  0  0  0
  3  2  1  0  0  0  0
  4  7  1  0  0  0  0
  5 14  1  6  0  0  0
  5  2  1  0  0  0  0
  5 16  1  0  0  0  0
  6 17  1  0  0  0  0
  8 21  1  1  0  0  0
 10 18  1  0  0  0  0
 11  4  1  0  0  0  0
 11 15  1  0  0  0  0
 12  8  1  0  0  0  0
 13 18  2  0  0  0  0
 13  8  1  0  0  0  0
 14  1  1  0  0  0  0
 15 20  1  0  0  0  0
 16 17  1  6  0  0  0
 16 12  1  0  0  0  0
 19 20  1  6  0  0  0
 19 10  1  0  0  0  0
 21 27  1  0  0  0  0
 22 26  1  1  0  0  0
 23 30  1  0  0  0  0
 23 28  1  0  0  0  0
 27 25  2  0  0  0  0
 27 30  1  0  0  0  0
 28 22  1  0  0  0  0
 29 24  1  1  0  0  0
 29 31  1  0  0  0  0
 30 29  1  0  0  0  0
 31 22  1  0  0  0  0
M  END
>  <MODEL>
2

>  <REMARK>
 VINA RESULT:      -8.8      2.148      3.098
  Name = 
  2 active torsions:
  status: ('A' for Active; 'I' for Inactive)
    1  A    between atoms: C_9  and  C_23
    2  A    between atoms: C_15  and  C_23
                            x       y       z     vdW  Elec       q    Type
                         _______ _______ _______ _____ _____    ______ ____

>  <TORSDO>
F 2

$$$$
=
 OpenBabel10262419273D

 31 35  0  0  1  0  0  0  0  0999 V2000
  189.7750  177.4050  139.5230 C   0  0  2  0  0  3  0  0  0  0  0  0
  188.0100  177.2910  142.9530 C   0  0  2  0  0  3  0  0  0  0  0  0
  189.1050  177.4220  144.0470 C   0  0  1  0  0  3  0  0  0  0  0  0
  191.3890  178.5090  144.3970 C   0  0  0  0  0  2  0  0  0  0  0  0
  188.4180  177.8080  141.5670 C   0  0  1  0  0  3  0  0  0  0  0  0
  188.5990  177.2750  138.7590 O   0  0  0  0  0  0  0  0  0  0  0  0
  189.9380  178.6950  143.9250 C   0  0  0  0  0  2  0  0  0  0  0  0
  185.6350  178.4300  142.5060 C   0  0  1  0  0  3  0  0  0  0  0  0
  190.8360  176.6150  138.9310 N   0  0  0  0  0  1  0  0  0  0  0  0
  187.1970  176.6630  145.5720 C   0  0  0  0  0  2  0  0  0  0  0  0
  191.6030  177.4750  145.5040 C   0  0  0  0  0  2  0  0  0  0  0  0
  186.2400  178.8780  141.1660 C   0  0  0  0  0  2  0  0  0  0  0  0
  186.6300  177.7360  143.4210 C   0  0  0  0  0  0  0  0  0  0  0  0
  189.5240  176.9430  140.9630 C   0  0  0  0  0  2  0  0  0  0  0  0
  190.6800  177.6860  146.6140 N   0  0  0  0  0  2  0  0  0  0  0  0
  187.2160  177.8500  140.6300 C   0  0  1  0  0  3  0  0  0  0  0  0
  187.6950  178.2450  139.2340 C   0  0  0  0  0  2  0  0  0  0  0  0
  186.2440  177.3780  144.6560 C   0  0  0  0  0  3  0  0  0  0  0  0
  188.5450  177.3730  145.4850 C   0  0  1  0  0  3  0  0  0  0  0  0
  189.5590  176.7690  146.4420 C   0  0  0  0  0  2  0  0  0  0  0  0
  185.0210  179.6410  143.2050 C   0  0  0  0  0  2  0  0  0  0  0  0
  180.4460  178.2860  141.2500 C   0  0  2  0  0  3  0  0  0  0  0  0
  182.8270  178.9420  141.3820 C   0  0  0  0  0  2  0  0  0  0  0  0
  180.6300  180.2840  143.2240 O   0  0  0  0  0  1  0  0  0  0  0  0
  183.4290  179.4090  144.9550 O   0  0  0  0  0  0  0  0  0  0  0  0
  179.4550  177.3800  140.5520 C   0  0  0  0  0  1  0  0  0  0  0  0
  183.6470  179.3430  143.7200 C   0  0  0  0  0  0  0  0  0  0  0  0
  181.8410  177.9960  140.7150 C   0  0  0  0  0  2  0  0  0  0  0  0
  181.1950  179.0060  143.3110 C   0  0  2  0  0  3  0  0  0  0  0  0
  182.5800  179.0100  142.8200 N   0  0  0  0  0  0  0  0  0  0  0  0
  180.4020  178.0430  142.6400 O   0  0  0  0  0  0  0  0  0  0  0  0
  1  9  1  6  0  0  0
  1 14  1  0  0  0  0
  2 13  1  1  0  0  0
  2  3  1  0  0  0  0
  3  7  1  6  0  0  0
  3 19  1  0  0  0  0
  4 11  1  0  0  0  0
  5 14  1  6  0  0  0
  5  2  1  0  0  0  0
  6 17  1  0  0  0  0
  6  1  1  0  0  0  0
  7  4  1  0  0  0  0
  8 21  1  1  0  0  0
  8 13  1  0  0  0  0
 11 15  1  0  0  0  0
 12  8  1  0  0  0  0
 13 18  2  0  0  0  0
 16 17  1  6  0  0  0
 16 12  1  0  0  0  0
 16  5  1  0  0  0  0
 18 10  1  0  0  0  0
 19 10  1  6  0  0  0
 19 20  1  0  0  0  0
 20 15  1  0  0  0  0
 21 27  1  0  0  0  0
 22 26  1  6  0  0  0
 22 31  1  0  0  0  0
 23 30  1  0  0  0  0
 27 25  2  0  0  0  0
 28 22  1  0  0  0  0
 28 23  1  0  0  0  0
 29 24  1  6  0  0  0
 30 29  1  0  0  0  0
 30 27  1  0  0  0  0
 31 29  1  0  0  0  0
M  END
>  <MODEL>
3

>  <REMARK>
 VINA RESULT:      -8.6      2.510      7.324
  Name = 
  2 active torsions:
  status: ('A' for Active; 'I' for Inactive)
    1  A    between atoms: C_9  and  C_23
    2  A    between atoms: C_15  and  C_23
                            x       y       z     vdW  Elec       q    Type
                         _______ _______ _______ _____ _____    ______ ____

>  <TORSDO>
F 2

$$$$
=
 OpenBabel10262419273D

 31 35  0  0  1  0  0  0  0  0999 V2000
  187.0530  177.9370  147.2480 C   0  0  2  0  0  3  0  0  0  0  0  0
  187.1630  178.4300  143.4220 C   0  0  2  0  0  3  0  0  0  0  0  0
  188.3700  177.6160  142.8800 C   0  0  1  0  0  3  0  0  0  0  0  0
  189.6900  175.4970  143.4170 C   0  0  0  0  0  2  0  0  0  0  0  0
  186.6470  177.9800  144.7950 C   0  0  1  0  0  3  0  0  0  0  0  0
  185.9170  178.7430  147.4580 O   0  0  0  0  0  0  0  0  0  0  0  0
  188.3030  176.1290  143.2180 C   0  0  0  0  0  2  0  0  0  0  0  0
  184.5990  178.7050  142.7220 C   0  0  1  0  0  3  0  0  0  0  0  0
  188.0200  178.1660  148.3020 N   0  0  0  0  0  1  0  0  0  0  0  0
  187.9290  179.0020  140.7760 C   0  0  0  0  0  2  0  0  0  0  0  0
  190.8290  176.1180  142.6060 C   0  0  0  0  0  2  0  0  0  0  0  0
  184.2860  178.2110  144.1420 C   0  0  0  0  0  2  0  0  0  0  0  0
  186.0790  178.6730  142.3790 C   0  0  0  0  0  0  0  0  0  0  0  0
  187.6810  178.2530  145.8860 C   0  0  0  0  0  2  0  0  0  0  0  0
  190.4720  176.2410  141.1970 N   0  0  0  0  0  2  0  0  0  0  0  0
  185.3330  178.6770  145.1330 C   0  0  1  0  0  3  0  0  0  0  0  0
  184.9290  178.2980  146.5570 C   0  0  0  0  0  2  0  0  0  0  0  0
  186.4700  178.9960  141.1360 C   0  0  0  0  0  3  0  0  0  0  0  0
  188.5550  177.7340  141.3520 C   0  0  1  0  0  3  0  0  0  0  0  0
  190.0190  177.6080  140.9700 C   0  0  0  0  0  2  0  0  0  0  0  0
  183.7990  177.8780  141.7190 C   0  0  0  0  0  2  0  0  0  0  0  0
  181.6450  178.9340  137.1540 C   0  0  2  0  0  3  0  0  0  0  0  0
  183.2280  178.0630  138.8440 C   0  0  0  0  0  2  0  0  0  0  0  0
  181.9390  180.9430  139.1040 O   0  0  0  0  0  1  0  0  0  0  0  0
  181.8510  179.2040  142.0310 O   0  0  0  0  0  0  0  0  0  0  0  0
  180.9320  178.6200  135.8570 C   0  0  0  0  0  1  0  0  0  0  0  0
  182.6090  178.6290  141.2100 C   0  0  0  0  0  0  0  0  0  0  0  0
  182.4740  177.7260  137.5660 C   0  0  0  0  0  2  0  0  0  0  0  0
  181.3510  179.6900  139.3160 C   0  0  2  0  0  3  0  0  0  0  0  0
  182.3420  178.7210  139.8020 N   0  0  0  0  0  0  0  0  0  0  0  0
  180.6890  179.2260  138.1530 O   0  0  0  0  0  0  0  0  0  0  0  0
  1  6  1  0  0  0  0
  1  9  1  1  0  0  0
  2 13  1  6  0  0  0
  2  5  1  0  0  0  0
  3  7  1  6  0  0  0
  3  2  1  0  0  0  0
  5 16  1  0  0  0  0
  5 14  1  1  0  0  0
  7  4  1  0  0  0  0
  8 21  1  6  0  0  0
  8 12  1  0  0  0  0
 10 18  1  0  0  0  0
 11  4  1  0  0  0  0
 13  8  1  0  0  0  0
 14  1  1  0  0  0  0
 15 11  1  0  0  0  0
 16 12  1  6  0  0  0
 16 17  1  0  0  0  0
 17  6  1  0  0  0  0
 18 13  2  0  0  0  0
 19 10  1  1  0  0  0
 19  3  1  0  0  0  0
 20 15  1  0  0  0  0
 20 19  1  0  0  0  0
 22 26  1  6  0  0  0
 22 28  1  0  0  0  0
 22 31  1  0  0  0  0
 23 30  1  0  0  0  0
 27 21  1  0  0  0  0
 27 25  2  0  0  0  0
 28 23  1  0  0  0  0
 29 24  1  6  0  0  0
 29 30  1  0  0  0  0
 30 27  1  0  0  0  0
 31 29  1  0  0  0  0
M  END
>  <MODEL>
4

>  <REMARK>
 VINA RESULT:      -8.6      2.943      8.418
  Name = 
  2 active torsions:
  status: ('A' for Active; 'I' for Inactive)
    1  A    between atoms: C_9  and  C_23
    2  A    between atoms: C_15  and  C_23
                            x       y       z     vdW  Elec       q    Type
                         _______ _______ _______ _____ _____    ______ ____

>  <TORSDO>
F 2

$$$$
=
 OpenBabel10262419273D

 31 35  0  0  1  0  0  0  0  0999 V2000
  191.4040  177.1600  139.2700 C   0  0  2  0  0  3  0  0  0  0  0  0
  188.8330  177.1490  142.1490 C   0  0  2  0  0  3  0  0  0  0  0  0
  189.6130  177.3800  143.4720 C   0  0  1  0  0  3  0  0  0  0  0  0
  191.7040  178.5750  144.3180 C   0  0  0  0  0  2  0  0  0  0  0  0
  189.5640  177.6110  140.8810 C   0  0  1  0  0  3  0  0  0  0  0  0
  190.4620  176.9440  138.2440 O   0  0  0  0  0  0  0  0  0  0  0  0
  190.4150  178.6780  143.4870 C   0  0  0  0  0  2  0  0  0  0  0  0
  186.6190  178.1670  141.0540 C   0  0  1  0  0  3  0  0  0  0  0  0
  192.6000  176.3850  139.0110 N   0  0  0  0  0  1  0  0  0  0  0  0
  187.4020  176.6220  144.5130 C   0  0  0  0  0  2  0  0  0  0  0  0
  191.6590  177.6070  145.5030 C   0  0  0  0  0  2  0  0  0  0  0  0
  187.5300  178.5700  139.8840 C   0  0  0  0  0  2  0  0  0  0  0  0
  187.3680  177.5610  142.2280 C   0  0  0  0  0  0  0  0  0  0  0  0
  190.8090  176.7620  140.6260 C   0  0  0  0  0  2  0  0  0  0  0  0
  190.4810  177.8370  146.3320 N   0  0  0  0  0  2  0  0  0  0  0  0
  188.6370  177.5570  139.6720 C   0  0  1  0  0  3  0  0  0  0  0  0
  189.4420  177.9000  138.4200 C   0  0  0  0  0  2  0  0  0  0  0  0
  186.6930  177.2510  143.3470 C   0  0  0  0  0  3  0  0  0  0  0  0
  188.7100  177.3810  144.7250 C   0  0  1  0  0  3  0  0  0  0  0  0
  189.4650  176.8690  145.9390 C   0  0  0  0  0  2  0  0  0  0  0  0
  185.8160  179.3860  141.5030 C   0  0  0  0  0  2  0  0  0  0  0  0
  180.9390  178.5260  142.9370 C   0  0  2  0  0  3  0  0  0  0  0  0
  183.4030  178.7070  143.0330 C   0  0  0  0  0  2  0  0  0  0  0  0
  181.9250  177.4990  140.5080 O   0  0  0  0  0  1  0  0  0  0  0  0
  184.3580  179.7240  139.6560 O   0  0  0  0  0  0  0  0  0  0  0  0
  179.6530  178.7870  143.6920 C   0  0  0  0  0  1  0  0  0  0  0  0
  184.4600  179.4170  140.8710 C   0  0  0  0  0  0  0  0  0  0  0  0
  182.1110  179.0170  143.7730 C   0  0  0  0  0  2  0  0  0  0  0  0
  182.0210  178.8340  140.9210 C   0  0  2  0  0  3  0  0  0  0  0  0
  183.2870  179.0760  141.6250 N   0  0  0  0  0  0  0  0  0  0  0  0
  180.9040  179.2140  141.7040 O   0  0  0  0  0  0  0  0  0  0  0  0
  1  9  1  6  0  0  0
  1 14  1  0  0  0  0
  2 13  1  1  0  0  0
  2  3  1  0  0  0  0
  3  7  1  6  0  0  0
  3 19  1  0  0  0  0
  4 11  1  0  0  0  0
  5 14  1  6  0  0  0
  5  2  1  0  0  0  0
  6 17  1  0  0  0  0
  6  1  1  0  0  0  0
  7  4  1  0  0  0  0
  8 21  1  1  0  0  0
  8 13  1  0  0  0  0
 11 15  1  0  0  0  0
 12  8  1  0  0  0  0
 13 18  2  0  0  0  0
 16 17  1  6  0  0  0
 16 12  1  0  0  0  0
 16  5  1  0  0  0  0
 18 10  1  0  0  0  0
 19 10  1  6  0  0  0
 19 20  1  0  0  0  0
 20 15  1  0  0  0  0
 22 26  1  1  0  0  0
 22 28  1  0  0  0  0
 23 28  1  0  0  0  0
 25 27  2  0  0  0  0
 27 21  1  0  0  0  0
 27 30  1  0  0  0  0
 29 24  1  1  0  0  0
 29 30  1  0  0  0  0
 29 31  1  0  0  0  0
 30 23  1  0  0  0  0
 31 22  1  0  0  0  0
M  END
>  <MODEL>
5

>  <REMARK>
 VINA RESULT:      -8.4      3.494      7.545
  Name = 
  2 active torsions:
  status: ('A' for Active; 'I' for Inactive)
    1  A    between atoms: C_9  and  C_23
    2  A    between atoms: C_15  and  C_23
                            x       y       z     vdW  Elec       q    Type
                         _______ _______ _______ _____ _____    ______ ____

>  <TORSDO>
F 2

$$$$
=
 OpenBabel10262419273D

 31 35  0  0  1  0  0  0  0  0999 V2000
  187.5590  177.8750  147.3770 C   0  0  2  0  0  3  0  0  0  0  0  0
  187.2600  178.4060  143.5670 C   0  0  2  0  0  3  0  0  0  0  0  0
  188.3970  177.5920  142.8910 C   0  0  1  0  0  3  0  0  0  0  0  0
  189.7540  175.4610  143.2620 C   0  0  0  0  0  2  0  0  0  0  0  0
  186.8920  177.9450  144.9830 C   0  0  1  0  0  3  0  0  0  0  0  0
  186.4570  178.6850  147.7170 O   0  0  0  0  0  0  0  0  0  0  0  0
  188.3570  176.1020  143.2200 C   0  0  0  0  0  2  0  0  0  0  0  0
  184.6370  178.7010  143.1500 C   0  0  1  0  0  3  0  0  0  0  0  0
  188.6360  178.0890  148.3230 N   0  0  0  0  0  1  0  0  0  0  0  0
  187.7400  179.0010  140.8590 C   0  0  0  0  0  2  0  0  0  0  0  0
  190.8020  176.0850  142.3390 C   0  0  0  0  0  2  0  0  0  0  0  0
  184.4760  178.1940  144.5920 C   0  0  0  0  0  2  0  0  0  0  0  0
  186.0710  178.6640  142.6490 C   0  0  0  0  0  0  0  0  0  0  0  0
  188.0390  178.2020  145.9590 C   0  0  0  0  0  2  0  0  0  0  0  0
  190.2960  176.2230  140.9780 N   0  0  0  0  0  2  0  0  0  0  0  0
  185.6260  178.6450  145.4680 C   0  0  1  0  0  3  0  0  0  0  0  0
  185.3760  178.2540  146.9240 C   0  0  0  0  0  2  0  0  0  0  0  0
  186.3270  178.9980  141.3740 C   0  0  0  0  0  3  0  0  0  0  0  0
  188.4160  177.7240  141.3520 C   0  0  1  0  0  3  0  0  0  0  0  0
  189.8300  177.5950  140.8140 C   0  0  0  0  0  2  0  0  0  0  0  0
  183.7280  177.8870  142.2310 C   0  0  0  0  0  2  0  0  0  0  0  0
  180.1400  177.9050  138.5290 C   0  0  2  0  0  3  0  0  0  0  0  0
  182.1940  177.3440  139.7870 C   0  0  0  0  0  2  0  0  0  0  0  0
  181.1370  180.3200  139.5750 O   0  0  0  0  0  1  0  0  0  0  0  0
  182.0390  179.4780  142.7490 O   0  0  0  0  0  0  0  0  0  0  0  0
  179.0130  177.3370  137.6930 C   0  0  0  0  0  1  0  0  0  0  0  0
  182.4510  178.6100  141.9390 C   0  0  0  0  0  0  0  0  0  0  0  0
  181.0360  176.7640  138.9900 C   0  0  0  0  0  2  0  0  0  0  0  0
  180.6340  179.2570  140.3340 C   0  0  2  0  0  3  0  0  0  0  0  0
  181.7120  178.3440  140.7370 N   0  0  0  0  0  0  0  0  0  0  0  0
  179.5980  178.5760  139.6480 O   0  0  0  0  0  0  0  0  0  0  0  0
  1  6  1  0  0  0  0
  1  9  1  1  0  0  0
  2 13  1  6  0  0  0
  2  5  1  0  0  0  0
  3  7  1  6  0  0  0
  3  2  1  0  0  0  0
  5 16  1  0  0  0  0
  5 14  1  1  0  0  0
  7  4  1  0  0  0  0
  8 21  1  6  0  0  0
  8 12  1  0  0  0  0
 10 19  1  0  0  0  0
 10 18  1  0  0  0  0
 11  4  1  0  0  0  0
 13  8  1  0  0  0  0
 14  1  1  0  0  0  0
 15 11  1  0  0  0  0
 16 12  1  6  0  0  0
 16 17  1  0  0  0  0
 17  6  1  0  0  0  0
 18 13  2  0  0  0  0
 19 20  1  1  0  0  0
 19  3  1  0  0  0  0
 20 15  1  0  0  0  0
 22 26  1  6  0  0  0
 22 28  1  0  0  0  0
 22 31  1  0  0  0  0
 23 30  1  0  0  0  0
 27 21  1  0  0  0  0
 27 25  2  0  0  0  0
 28 23  1  0  0  0  0
 29 24  1  6  0  0  0
 29 30  1  0  0  0  0
 30 27  1  0  0  0  0
 31 29  1  0  0  0  0
M  END
>  <MODEL>
6

>  <REMARK>
 VINA RESULT:      -8.3      2.832      8.339
  Name = 
  2 active torsions:
  status: ('A' for Active; 'I' for Inactive)
    1  A    between atoms: C_9  and  C_23
    2  A    between atoms: C_15  and  C_23
                            x       y       z     vdW  Elec       q    Type
                         _______ _______ _______ _____ _____    ______ ____

>  <TORSDO>
F 2

$$$$
=
 OpenBabel10262419273D

 31 35  0  0  1  0  0  0  0  0999 V2000
  193.1760  176.3250  137.9810 C   0  0  2  0  0  3  0  0  0  0  0  0
  189.4690  177.2580  138.5130 C   0  0  2  0  0  3  0  0  0  0  0  0
  188.6350  176.4700  137.4660 C   0  0  1  0  0  3  0  0  0  0  0  0
  188.6930  174.2570  136.1930 C   0  0  0  0  0  2  0  0  0  0  0  0
  190.8560  176.6690  138.8060 C   0  0  1  0  0  3  0  0  0  0  0  0
  193.6740  177.1420  139.0160 O   0  0  0  0  0  0  0  0  0  0  0  0
  188.8160  174.9570  137.5560 C   0  0  0  0  0  2  0  0  0  0  0  0
  189.2760  177.7030  141.1400 C   0  0  1  0  0  3  0  0  0  0  0  0
  194.0580  176.3950  136.8340 N   0  0  0  0  0  1  0  0  0  0  0  0
  186.8070  178.1070  138.1890 C   0  0  0  0  0  2  0  0  0  0  0  0
  187.7620  174.9270  135.1800 C   0  0  0  0  0  2  0  0  0  0  0  0
  190.6670  177.0580  141.2280 C   0  0  0  0  0  2  0  0  0  0  0  0
  188.6710  177.6590  139.7470 C   0  0  0  0  0  0  0  0  0  0  0  0
  191.7670  176.7760  137.5830 C   0  0  0  0  0  2  0  0  0  0  0  0
  186.4620  175.2260  135.7700 N   0  0  0  0  0  2  0  0  0  0  0  0
  191.4990  177.3680  139.9990 C   0  0  1  0  0  3  0  0  0  0  0  0
  192.9220  176.8400  140.1690 C   0  0  0  0  0  2  0  0  0  0  0  0
  187.4200  178.1110  139.5610 C   0  0  0  0  0  3  0  0  0  0  0  0
  187.1200  176.7590  137.5450 C   0  0  1  0  0  3  0  0  0  0  0  0
  186.4700  176.6260  136.1780 C   0  0  0  0  0  2  0  0  0  0  0  0
  188.3490  177.0280  142.1480 C   0  0  0  0  0  2  0  0  0  0  0  0
  188.5990  177.8090  147.2390 C   0  0  2  0  0  3  0  0  0  0  0  0
  187.9430  178.0600  144.8670 C   0  0  0  0  0  2  0  0  0  0  0  0
  190.9460  177.5240  145.7110 O   0  0  0  0  0  1  0  0  0  0  0  0
  189.9500  175.5600  143.1140 O   0  0  0  0  0  0  0  0  0  0  0  0
  188.0900  177.8050  148.6640 C   0  0  0  0  0  1  0  0  0  0  0  0
  189.1090  176.4740  143.3110 C   0  0  0  0  0  0  0  0  0  0  0  0
  187.4220  178.0080  146.2950 C   0  0  0  0  0  2  0  0  0  0  0  0
  189.8610  176.6400  145.7000 C   0  0  2  0  0  3  0  0  0  0  0  0
  188.9100  176.9900  144.6360 N   0  0  0  0  0  0  0  0  0  0  0  0
  189.2320  176.5760  146.9670 O   0  0  0  0  0  0  0  0  0  0  0  0
  1  9  1  6  0  0  0
  1  6  1  0  0  0  0
  2  5  1  0  0  0  0
  2 13  1  1  0  0  0
  3 19  1  0  0  0  0
  3  7  1  1  0  0  0
  3  2  1  0  0  0  0
  4  7  1  0  0  0  0
  5 14  1  6  0  0  0
  5 16  1  0  0  0  0
  6 17  1  0  0  0  0
  8 12  1  0  0  0  0
  8 21  1  1  0  0  0
 10 18  1  0  0  0  0
 11 15  1  0  0  0  0
 11  4  1  0  0  0  0
 13  8  1  0  0  0  0
 14  1  1  0  0  0  0
 15 20  1  0  0  0  0
 16 17  1  1  0  0  0
 16 12  1  0  0  0  0
 18 13  2  0  0  0  0
 19 20  1  6  0  0  0
 19 10  1  0  0  0  0
 21 27  1  0  0  0  0
 22 26  1  1  0  0  0
 23 28  1  0  0  0  0
 25 27  2  0  0  0  0
 27 30  1  0  0  0  0
 28 22  1  0  0  0  0
 29 24  1  1  0  0  0
 29 31  1  0  0  0  0
 30 23  1  0  0  0  0
 30 29  1  0  0  0  0
 31 22  1  0  0  0  0
M  END
>  <MODEL>
7

>  <REMARK>
 VINA RESULT:      -7.9      4.069      5.863
  Name = 
  2 active torsions:
  status: ('A' for Active; 'I' for Inactive)
    1  A    between atoms: C_9  and  C_23
    2  A    between atoms: C_15  and  C_23
                            x       y       z     vdW  Elec       q    Type
                         _______ _______ _______ _____ _____    ______ ____

>  <TORSDO>
F 2

$$$$
=
 OpenBabel10262419273D

 31 35  0  0  1  0  0  0  0  0999 V2000
  186.8340  178.1620  147.1170 C   0  0  2  0  0  3  0  0  0  0  0  0
  187.1690  178.3850  143.2780 C   0  0  2  0  0  3  0  0  0  0  0  0
  188.3910  177.5190  142.8660 C   0  0  1  0  0  3  0  0  0  0  0  0
  189.6420  175.4260  143.6230 C   0  0  0  0  0  2  0  0  0  0  0  0
  186.5680  178.0390  144.6480 C   0  0  1  0  0  3  0  0  0  0  0  0
  185.7010  178.9960  147.2050 O   0  0  0  0  0  0  0  0  0  0  0  0
  188.2800  176.0610  143.3020 C   0  0  0  0  0  2  0  0  0  0  0  0
  184.6540  178.6420  142.4150 C   0  0  1  0  0  3  0  0  0  0  0  0
  187.7430  178.4520  148.2060 N   0  0  0  0  0  1  0  0  0  0  0  0
  188.0940  178.7590  140.6480 C   0  0  0  0  0  2  0  0  0  0  0  0
  190.8360  175.9740  142.8380 C   0  0  0  0  0  2  0  0  0  0  0  0
  184.2530  178.2530  143.8460 C   0  0  0  0  0  2  0  0  0  0  0  0
  186.1500  178.5670  142.1610 C   0  0  0  0  0  0  0  0  0  0  0  0
  187.5440  178.3740  145.7750 C   0  0  0  0  0  2  0  0  0  0  0  0
  190.5620  176.0020  141.4060 N   0  0  0  0  0  2  0  0  0  0  0  0
  185.2490  178.7750  144.8610 C   0  0  1  0  0  3  0  0  0  0  0  0
  184.7590  178.5010  146.2810 C   0  0  0  0  0  2  0  0  0  0  0  0
  186.6160  178.7970  140.9230 C   0  0  0  0  0  3  0  0  0  0  0  0
  188.6640  177.5270  141.3460 C   0  0  1  0  0  3  0  0  0  0  0  0
  190.1460  177.3560  141.0590 C   0  0  0  0  0  2  0  0  0  0  0  0
  183.8980  177.7570  141.4260 C   0  0  0  0  0  2  0  0  0  0  0  0
  180.3220  177.0580  137.7780 C   0  0  2  0  0  3  0  0  0  0  0  0
  181.8640  176.5950  139.6560 C   0  0  0  0  0  2  0  0  0  0  0  0
  182.7400  178.3720  137.1870 O   0  0  0  0  0  1  0  0  0  0  0  0
  183.6210  179.7570  140.1710 O   0  0  0  0  0  0  0  0  0  0  0  0
  178.9310  176.8090  137.2360 C   0  0  0  0  0  1  0  0  0  0  0  0
  183.2630  178.5640  140.3380 C   0  0  0  0  0  0  0  0  0  0  0  0
  180.4500  176.3840  139.1370 C   0  0  0  0  0  2  0  0  0  0  0  0
  181.8830  178.6930  138.2460 C   0  0  2  0  0  3  0  0  0  0  0  0
  182.2750  177.9840  139.4720 N   0  0  0  0  0  0  0  0  0  0  0  0
  180.5290  178.4490  137.9090 O   0  0  0  0  0  0  0  0  0  0  0  0
  1  6  1  0  0  0  0
  1  9  1  1  0  0  0
  2 13  1  6  0  0  0
  2  5  1  0  0  0  0
  3  2  1  0  0  0  0
  3  7  1  6  0  0  0
  5 16  1  0  0  0  0
  5 14  1  1  0  0  0
  7  4  1  0  0  0  0
  8 21  1  6  0  0  0
  8 12  1  0  0  0  0
 10 18  1  0  0  0  0
 11  4  1  0  0  0  0
 13  8  1  0  0  0  0
 14  1  1  0  0  0  0
 15 11  1  0  0  0  0
 16 12  1  6  0  0  0
 16 17  1  0  0  0  0
 17  6  1  0  0  0  0
 18 13  2  0  0  0  0
 19 10  1  1  0  0  0
 19  3  1  0  0  0  0
 20 19  1  0  0  0  0
 20 15  1  0  0  0  0
 22 26  1  1  0  0  0
 22 31  1  0  0  0  0
 22 28  1  0  0  0  0
 25 27  2  0  0  0  0
 27 21  1  0  0  0  0
 28 23  1  0  0  0  0
 29 24  1  6  0  0  0
 29 30  1  0  0  0  0
 30 23  1  0  0  0  0
 30 27  1  0  0  0  0
 31 29  1  0  0  0  0
M  END
>  <MODEL>
8

>  <REMARK>
 VINA RESULT:      -7.9      2.677      8.597
  Name = 
  2 active torsions:
  status: ('A' for Active; 'I' for Inactive)
    1  A    between atoms: C_9  and  C_23
    2  A    between atoms: C_15  and  C_23
                            x       y       z     vdW  Elec       q    Type
                         _______ _______ _______ _____ _____    ______ ____

>  <TORSDO>
F 2

$$$$
=
 OpenBabel10262419273D

 31 35  0  0  1  0  0  0  0  0999 V2000
  186.9260  177.9560  147.1630 C   0  0  2  0  0  3  0  0  0  0  0  0
  187.2870  178.3840  143.3440 C   0  0  2  0  0  3  0  0  0  0  0  0
  188.5000  177.5260  142.8910 C   0  0  1  0  0  3  0  0  0  0  0  0
  189.7200  175.3790  143.5390 C   0  0  0  0  0  2  0  0  0  0  0  0
  186.6740  177.9710  144.6890 C   0  0  1  0  0  3  0  0  0  0  0  0
  185.8030  178.7980  147.2900 O   0  0  0  0  0  0  0  0  0  0  0  0
  188.3670  176.0480  143.2460 C   0  0  0  0  0  2  0  0  0  0  0  0
  184.7800  178.7210  142.4830 C   0  0  1  0  0  3  0  0  0  0  0  0
  187.8320  178.1740  148.2720 N   0  0  0  0  0  1  0  0  0  0  0  0
  188.2320  178.8900  140.7430 C   0  0  0  0  0  2  0  0  0  0  0  0
  190.9250  175.9530  142.7920 C   0  0  0  0  0  2  0  0  0  0  0  0
  184.3660  178.2590  143.8880 C   0  0  0  0  0  2  0  0  0  0  0  0
  186.2770  178.6400  142.2330 C   0  0  0  0  0  0  0  0  0  0  0  0
  187.6460  178.2310  145.8390 C   0  0  0  0  0  2  0  0  0  0  0  0
  190.6600  176.0630  141.3620 N   0  0  0  0  0  2  0  0  0  0  0  0
  185.3630  178.7120  144.9350 C   0  0  1  0  0  3  0  0  0  0  0  0
  184.8600  178.3670  146.3360 C   0  0  0  0  0  2  0  0  0  0  0  0
  186.7530  178.9320  141.0120 C   0  0  0  0  0  3  0  0  0  0  0  0
  188.7820  177.6140  141.3750 C   0  0  1  0  0  3  0  0  0  0  0  0
  190.2630  177.4390  141.0870 C   0  0  0  0  0  2  0  0  0  0  0  0
  184.0190  177.9010  141.4430 C   0  0  0  0  0  2  0  0  0  0  0  0
  179.9520  180.5750  139.7420 C   0  0  2  0  0  3  0  0  0  0  0  0
  181.3670  179.1320  141.1680 C   0  0  0  0  0  2  0  0  0  0  0  0
  181.3770  178.8710  138.0130 O   0  0  0  0  0  1  0  0  0  0  0  0
  184.5160  178.8750  139.3320 O   0  0  0  0  0  0  0  0  0  0  0  0
  178.9320  181.6930  139.7480 C   0  0  0  0  0  1  0  0  0  0  0  0
  183.6650  178.7240  140.2440 C   0  0  0  0  0  0  0  0  0  0  0  0
  180.3800  180.2890  141.1740 C   0  0  0  0  0  2  0  0  0  0  0  0
  181.9450  179.8650  138.8180 C   0  0  2  0  0  3  0  0  0  0  0  0
  182.3630  179.3150  140.1150 N   0  0  0  0  0  0  0  0  0  0  0  0
  181.0700  180.9680  138.9730 O   0  0  0  0  0  0  0  0  0  0  0  0
  1  6  1  0  0  0  0
  1  9  1  1  0  0  0
  2 13  1  6  0  0  0
  2  5  1  0  0  0  0
  3  7  1  6  0  0  0
  3  2  1  0  0  0  0
  5 16  1  0  0  0  0
  5 14  1  1  0  0  0
  7  4  1  0  0  0  0
  8 21  1  6  0  0  0
  8 12  1  0  0  0  0
 10 18  1  0  0  0  0
 11  4  1  0  0  0  0
 13  8  1  0  0  0  0
 14  1  1  0  0  0  0
 15 11  1  0  0  0  0
 16 12  1  6  0  0  0
 16 17  1  0  0  0  0
 17  6  1  0  0  0  0
 18 13  2  0  0  0  0
 19 10  1  1  0  0  0
 19  3  1  0  0  0  0
 20 15  1  0  0  0  0
 20 19  1  0  0  0  0
 22 26  1  1  0  0  0
 22 28  1  0  0  0  0
 23 28  1  0  0  0  0
 25 27  2  0  0  0  0
 27 21  1  0  0  0  0
 29 24  1  6  0  0  0
 29 31  1  0  0  0  0
 29 30  1  0  0  0  0
 30 27  1  0  0  0  0
 30 23  1  0  0  0  0
 31 22  1  0  0  0  0
M  END
>  <MODEL>
9

>  <REMARK>
 VINA RESULT:      -7.7      2.803      8.465
  Name = 
  2 active torsions:
  status: ('A' for Active; 'I' for Inactive)
    1  A    between atoms: C_9  and  C_23
    2  A    between atoms: C_15  and  C_23
                            x       y       z     vdW  Elec       q    Type
                         _______ _______ _______ _____ _____    ______ ____

>  <TORSDO>
F 2

$$$$
