=
 OpenBabel10262423373D

 34 39  0  0  1  0  0  0  0  0999 V2000
  181.8210  177.3490  139.4620 C   0  0  1  0  0  3  0  0  0  0  0  0
  181.9790  179.0610  142.8750 C   0  0  0  0  0  0  0  0  0  0  0  0
  180.0100  179.0360  141.3670 C   0  0  1  0  0  3  0  0  0  0  0  0
  180.4350  175.8370  140.9020 C   0  0  0  0  0  2  0  0  0  0  0  0
  179.1650  176.5530  140.4900 C   0  0  0  0  0  2  0  0  0  0  0  0
  179.4330  178.9110  139.9840 C   0  0  0  0  0  2  0  0  0  0  0  0
  181.4380  175.9000  139.7560 C   0  0  0  0  0  2  0  0  0  0  0  0
  178.9460  177.9570  141.0750 C   0  0  2  0  0  3  0  0  0  0  0  0
  181.1300  179.6860  143.7860 O   0  0  0  0  0  1  0  0  0  0  0  0
  183.3390  178.8670  143.2000 C   0  0  0  0  0  0  0  0  0  0  0  0
  184.1760  178.2440  142.2730 C   0  0  0  0  0  3  0  0  0  0  0  0
  181.4610  178.6390  141.6280 C   0  0  0  0  0  0  0  0  0  0  0  0
  183.6810  177.8140  141.0490 C   0  0  0  0  0  3  0  0  0  0  0  0
  182.3410  178.0190  140.6990 C   0  0  0  0  0  0  0  0  0  0  0  0
  183.8060  176.4880  138.0170 C   0  0  1  0  0  3  0  0  0  0  0  0
  182.2930  176.0300  135.3030 C   0  0  0  0  0  2  0  0  0  0  0  0
  184.5620  172.9250  137.4830 C   0  0  0  0  0  2  0  0  0  0  0  0
  181.8260  177.9110  136.9820 C   0  0  1  0  0  3  0  0  0  0  0  0
  182.6870  177.5410  138.2090 C   0  0  1  0  0  3  0  0  0  0  0  0
  182.7290  172.7930  135.8190 C   0  0  0  0  0  0  0  0  0  0  0  0
  184.5480  174.3110  136.8650 C   0  0  2  0  0  3  0  0  0  0  0  0
  182.4190  171.7250  135.3110 O   0  0  0  0  0  0  0  0  0  0  0  0
  183.3730  175.1100  137.4490 C   0  0  2  0  0  3  0  0  0  0  0  0
  181.5580  179.2810  137.0170 O   0  0  0  0  0  1  0  0  0  0  0  0
  181.9320  178.2750  134.5940 O   0  0  0  0  0  1  0  0  0  0  0  0
  184.1950  173.0800  136.0210 C   0  0  1  0  0  3  0  0  0  0  0  0
  181.6330  173.7550  136.1890 C   0  0  2  0  0  3  0  0  0  0  0  0
  182.1400  175.1450  136.5400 C   0  0  2  0  0  3  0  0  0  0  0  0
  180.8110  173.1980  137.3370 C   0  0  0  0  0  1  0  0  0  0  0  0
  182.4660  177.5170  135.6380 C   0  0  2  0  0  3  0  0  0  0  0  0
  185.0030  177.1160  137.3110 C   0  0  0  0  0  1  0  0  0  0  0  0
  183.9190  179.3030  144.4940 C   0  0  0  0  0  0  0  0  0  0  0  0
  183.4090  178.8440  145.7020 O   0  0  0  0  0  1  0  0  0  0  0  0
  184.8930  180.1020  144.5110 O   0  0  0  0  0  0  0  0  0  0  0  0
  1  7  1  1  0  0  0
  1 14  1  0  0  0  0
  2 10  1  0  0  0  0
  2  9  1  0  0  0  0
  3  6  1  6  0  0  0
  3 12  1  0  0  0  0
  5  4  1  0  0  0  0
  5  8  1  0  0  0  0
  7  4  1  0  0  0  0
  8  6  1  6  0  0  0
  8  3  1  0  0  0  0
 10 32  1  0  0  0  0
 11 10  2  0  0  0  0
 12  2  2  0  0  0  0
 13 11  1  0  0  0  0
 14 13  2  0  0  0  0
 14 12  1  0  0  0  0
 15 31  1  6  0  0  0
 15 19  1  0  0  0  0
 16 30  1  0  0  0  0
 16 28  1  0  0  0  0
 18 24  1  6  0  0  0
 18 19  1  0  0  0  0
 19  1  1  1  0  0  0
 20 26  1  0  0  0  0
 20 27  1  0  0  0  0
 21 23  1  0  0  0  0
 21 17  1  1  0  0  0
 22 20  2  0  0  0  0
 23 15  1  0  0  0  0
 25 30  1  0  0  0  0
 26 21  1  0  0  0  0
 26 17  1  0  0  0  0
 27 28  1  0  0  0  0
 27 29  1  0  0  0  0
 28 23  1  0  0  0  0
 30 18  1  0  0  0  0
 32 34  2  0  0  0  0
 32 33  1  0  0  0  0
M  END
>  <MODEL>
1

>  <REMARK>
 VINA RESULT:      -6.4      0.000      0.000
  Name = 
  2 active torsions:
  status: ('A' for Active; 'I' for Inactive)
    1  A    between atoms: C_1  and  C_9
    2  A    between atoms: C_3  and  C_25
                            x       y       z     vdW  Elec       q    Type
                         _______ _______ _______ _____ _____    ______ ____

>  <TORSDO>
F 2

$$$$
=
 OpenBabel10262423373D

 34 39  0  0  1  0  0  0  0  0999 V2000
  184.5640  177.5030  137.2590 C   0  0  1  0  0  3  0  0  0  0  0  0
  187.8290  175.6990  136.4280 C   0  0  0  0  0  0  0  0  0  0  0  0
  185.7180  174.6030  137.1290 C   0  0  1  0  0  3  0  0  0  0  0  0
  184.0730  176.4750  135.0270 C   0  0  0  0  0  2  0  0  0  0  0  0
  183.4520  175.2600  135.6850 C   0  0  0  0  0  2  0  0  0  0  0  0
  184.3940  174.6660  137.8410 C   0  0  0  0  0  2  0  0  0  0  0  0
  183.8560  177.6910  135.9190 C   0  0  0  0  0  2  0  0  0  0  0  0
  184.4190  174.2760  136.3630 C   0  0  2  0  0  3  0  0  0  0  0  0
  188.3020  174.4040  136.2280 O   0  0  0  0  0  1  0  0  0  0  0  0
  188.6920  176.8000  136.2350 C   0  0  0  0  0  0  0  0  0  0  0  0
  188.2020  178.0910  136.4440 C   0  0  0  0  0  3  0  0  0  0  0  0
  186.4870  175.8880  136.8320 C   0  0  0  0  0  0  0  0  0  0  0  0
  186.8840  178.2940  136.8310 C   0  0  0  0  0  3  0  0  0  0  0  0
  186.0200  177.2140  137.0500 C   0  0  0  0  0  0  0  0  0  0  0  0
  182.8150  179.1410  138.2730 C   0  0  1  0  0  3  0  0  0  0  0  0
  182.8480  178.1370  141.2490 C   0  0  0  0  0  2  0  0  0  0  0  0
  179.2480  178.3360  138.6910 C   0  0  0  0  0  2  0  0  0  0  0  0
  184.8700  178.2330  139.6760 C   0  0  1  0  0  3  0  0  0  0  0  0
  184.2620  178.5880  138.3020 C   0  0  1  0  0  3  0  0  0  0  0  0
  179.7940  176.9930  140.7020 C   0  0  0  0  0  0  0  0  0  0  0  0
  180.4490  179.0540  139.2780 C   0  0  2  0  0  3  0  0  0  0  0  0
  178.9310  176.3480  141.2790 O   0  0  0  0  0  0  0  0  0  0  0  0
  181.7220  178.2640  138.9390 C   0  0  2  0  0  3  0  0  0  0  0  0
  186.2190  178.5960  139.6770 O   0  0  0  0  0  1  0  0  0  0  0  0
  184.9640  178.9480  141.9840 O   0  0  0  0  0  1  0  0  0  0  0  0
  179.4320  178.3650  140.1950 C   0  0  1  0  0  3  0  0  0  0  0  0
  181.1620  176.3840  140.5530 C   0  0  2  0  0  3  0  0  0  0  0  0
  182.2180  177.3740  140.0840 C   0  0  2  0  0  3  0  0  0  0  0  0
  181.1100  175.1970  139.6090 C   0  0  0  0  0  1  0  0  0  0  0  0
  184.1340  178.8800  140.8640 C   0  0  2  0  0  3  0  0  0  0  0  0
  182.8040  180.6040  138.7050 C   0  0  0  0  0  1  0  0  0  0  0  0
  190.1050  176.6400  135.8180 C   0  0  0  0  0  0  0  0  0  0  0  0
  191.1370  176.6490  136.7490 O   0  0  0  0  0  1  0  0  0  0  0  0
  190.3910  176.4920  134.5990 O   0  0  0  0  0  0  0  0  0  0  0  0
  1  7  1  6  0  0  0
  2 12  1  0  0  0  0
  3  6  1  1  0  0  0
  4  5  1  0  0  0  0
  4  7  1  0  0  0  0
  8  5  1  6  0  0  0
  8  3  1  0  0  0  0
  8  6  1  0  0  0  0
  9  2  1  0  0  0  0
 10  2  2  0  0  0  0
 10 11  1  0  0  0  0
 11 13  2  0  0  0  0
 12 14  2  0  0  0  0
 12  3  1  0  0  0  0
 13 14  1  0  0  0  0
 14  1  1  0  0  0  0
 15 19  1  0  0  0  0
 15 31  1  1  0  0  0
 15 23  1  0  0  0  0
 17 26  1  0  0  0  0
 18 24  1  6  0  0  0
 18 30  1  0  0  0  0
 19  1  1  6  0  0  0
 19 18  1  0  0  0  0
 20 22  2  0  0  0  0
 21 17  1  6  0  0  0
 21 26  1  0  0  0  0
 23 21  1  0  0  0  0
 23 28  1  0  0  0  0
 26 20  1  0  0  0  0
 27 20  1  0  0  0  0
 28 27  1  0  0  0  0
 28 16  1  0  0  0  0
 29 27  1  0  0  0  0
 30 16  1  0  0  0  0
 30 25  1  0  0  0  0
 32 10  1  0  0  0  0
 32 33  1  0  0  0  0
 34 32  2  0  0  0  0
M  END
>  <MODEL>
2

>  <REMARK>
 VINA RESULT:      -5.7      3.356      7.187
  Name = 
  2 active torsions:
  status: ('A' for Active; 'I' for Inactive)
    1  A    between atoms: C_1  and  C_9
    2  A    between atoms: C_3  and  C_25
                            x       y       z     vdW  Elec       q    Type
                         _______ _______ _______ _____ _____    ______ ____

>  <TORSDO>
F 2

$$$$
=
 OpenBabel10262423373D

 34 39  0  0  1  0  0  0  0  0999 V2000
  183.4590  176.6510  137.4440 C   0  0  1  0  0  3  0  0  0  0  0  0
  187.2730  176.5620  137.2310 C   0  0  0  0  0  0  0  0  0  0  0  0
  185.7550  174.6930  136.6380 C   0  0  1  0  0  3  0  0  0  0  0  0
  183.8770  176.7770  134.9760 C   0  0  0  0  0  2  0  0  0  0  0  0
  183.7340  175.2740  134.8420 C   0  0  0  0  0  2  0  0  0  0  0  0
  184.4290  173.9980  136.7850 C   0  0  0  0  0  2  0  0  0  0  0  0
  182.9970  177.2610  136.1220 C   0  0  0  0  0  2  0  0  0  0  0  0
  184.8890  174.4220  135.3890 C   0  0  2  0  0  3  0  0  0  0  0  0
  188.2870  175.7440  136.7360 O   0  0  0  0  0  1  0  0  0  0  0  0
  187.5950  177.8110  137.8040 C   0  0  0  0  0  0  0  0  0  0  0  0
  186.5670  178.6150  138.3010 C   0  0  0  0  0  3  0  0  0  0  0  0
  185.9330  176.1170  137.1600 C   0  0  0  0  0  0  0  0  0  0  0  0
  185.2450  178.1980  138.2280 C   0  0  0  0  0  3  0  0  0  0  0  0
  184.9080  176.9520  137.6850 C   0  0  0  0  0  0  0  0  0  0  0  0
  182.5480  178.3900  139.1530 C   0  0  1  0  0  3  0  0  0  0  0  0
  179.4830  178.1780  138.5010 C   0  0  0  0  0  2  0  0  0  0  0  0
  181.8490  181.9080  138.3270 C   0  0  0  0  0  2  0  0  0  0  0  0
  181.1630  176.2420  138.4570 C   0  0  1  0  0  3  0  0  0  0  0  0
  182.5330  176.9290  138.6370 C   0  0  1  0  0  3  0  0  0  0  0  0
  179.7290  181.2240  137.2370 C   0  0  0  0  0  0  0  0  0  0  0  0
  181.4140  180.6990  139.1320 C   0  0  2  0  0  3  0  0  0  0  0  0
  179.0370  182.0390  136.6460 O   0  0  0  0  0  0  0  0  0  0  0  0
  181.7280  179.4240  138.3360 C   0  0  2  0  0  3  0  0  0  0  0  0
  181.2760  174.9050  138.8460 O   0  0  0  0  0  1  0  0  0  0  0  0
  178.9600  176.0500  139.4370 O   0  0  0  0  0  1  0  0  0  0  0  0
  180.3710  181.6490  138.5340 C   0  0  1  0  0  3  0  0  0  0  0  0
  179.8810  179.8490  136.6450 C   0  0  2  0  0  3  0  0  0  0  0  0
  180.5160  178.8460  137.5960 C   0  0  2  0  0  3  0  0  0  0  0  0
  180.6780  179.9170  135.3550 C   0  0  0  0  0  1  0  0  0  0  0  0
  180.0190  176.9340  139.2210 C   0  0  2  0  0  3  0  0  0  0  0  0
  182.2860  178.4190  140.6550 C   0  0  0  0  0  1  0  0  0  0  0  0
  188.9890  178.3070  137.9030 C   0  0  0  0  0  0  0  0  0  0  0  0
  189.8980  177.7310  138.7820 O   0  0  0  0  0  1  0  0  0  0  0  0
  189.3700  179.2670  137.1800 O   0  0  0  0  0  0  0  0  0  0  0  0
  1  7  1  6  0  0  0
  1 14  1  0  0  0  0
  2 10  1  0  0  0  0
  3  6  1  1  0  0  0
  3 12  1  0  0  0  0
  4  7  1  0  0  0  0
  5  4  1  0  0  0  0
  8  5  1  1  0  0  0
  8  3  1  0  0  0  0
  8  6  1  0  0  0  0
  9  2  1  0  0  0  0
 10 32  1  0  0  0  0
 10 11  2  0  0  0  0
 12  2  2  0  0  0  0
 12 14  1  0  0  0  0
 13 11  1  0  0  0  0
 14 13  2  0  0  0  0
 15 31  1  1  0  0  0
 16 30  1  0  0  0  0
 17 26  1  0  0  0  0
 18 19  1  0  0  0  0
 18 24  1  1  0  0  0
 18 30  1  0  0  0  0
 19  1  1  6  0  0  0
 19 15  1  0  0  0  0
 20 26  1  0  0  0  0
 21 17  1  6  0  0  0
 22 20  2  0  0  0  0
 23 21  1  0  0  0  0
 23 15  1  0  0  0  0
 26 21  1  0  0  0  0
 27 20  1  0  0  0  0
 27 28  1  0  0  0  0
 28 23  1  0  0  0  0
 28 16  1  0  0  0  0
 29 27  1  0  0  0  0
 30 25  1  0  0  0  0
 32 33  1  0  0  0  0
 34 32  2  0  0  0  0
M  END
>  <MODEL>
3

>  <REMARK>
 VINA RESULT:      -5.6      3.290      6.875
  Name = 
  2 active torsions:
  status: ('A' for Active; 'I' for Inactive)
    1  A    between atoms: C_1  and  C_9
    2  A    between atoms: C_3  and  C_25
                            x       y       z     vdW  Elec       q    Type
                         _______ _______ _______ _____ _____    ______ ____

>  <TORSDO>
F 2

$$$$
=
 OpenBabel10262423373D

 34 39  0  0  1  0  0  0  0  0999 V2000
  183.0410  177.8700  138.4110 C   0  0  1  0  0  3  0  0  0  0  0  0
  180.5010  180.5460  139.4020 C   0  0  0  0  0  0  0  0  0  0  0  0
  181.3740  178.7690  140.8940 C   0  0  1  0  0  3  0  0  0  0  0  0
  184.3960  179.4090  139.8520 C   0  0  0  0  0  2  0  0  0  0  0  0
  184.1260  178.5570  141.0750 C   0  0  0  0  0  2  0  0  0  0  0  0
  181.9880  177.4080  141.0740 C   0  0  0  0  0  2  0  0  0  0  0  0
  184.4090  178.5180  138.6150 C   0  0  0  0  0  2  0  0  0  0  0  0
  182.7060  178.6240  141.6600 C   0  0  2  0  0  3  0  0  0  0  0  0
  179.8700  181.0360  140.5430 O   0  0  0  0  0  1  0  0  0  0  0  0
  180.2850  181.1730  138.1550 C   0  0  0  0  0  0  0  0  0  0  0  0
  180.9210  180.6660  137.0210 C   0  0  0  0  0  3  0  0  0  0  0  0
  181.3440  179.4160  139.5120 C   0  0  0  0  0  0  0  0  0  0  0  0
  181.7610  179.5640  137.1140 C   0  0  0  0  0  3  0  0  0  0  0  0
  181.9690  178.9150  138.3370 C   0  0  0  0  0  0  0  0  0  0  0  0
  183.7820  177.1730  136.0160 C   0  0  1  0  0  3  0  0  0  0  0  0
  185.2590  174.4880  136.7050 C   0  0  0  0  0  2  0  0  0  0  0  0
  187.0960  177.9100  134.5950 C   0  0  0  0  0  2  0  0  0  0  0  0
  183.1600  175.3880  137.8710 C   0  0  1  0  0  3  0  0  0  0  0  0
  182.9930  176.8120  137.2990 C   0  0  1  0  0  3  0  0  0  0  0  0
  188.0660  176.0420  135.9050 C   0  0  0  0  0  0  0  0  0  0  0  0
  185.9600  176.9090  134.6730 C   0  0  2  0  0  3  0  0  0  0  0  0
  189.2700  175.8350  135.9050 O   0  0  0  0  0  0  0  0  0  0  0  0
  185.3210  176.9800  136.0670 C   0  0  2  0  0  3  0  0  0  0  0  0
  181.9240  174.9490  138.3520 O   0  0  0  0  0  1  0  0  0  0  0  0
  183.4160  173.0710  137.2260 O   0  0  0  0  0  1  0  0  0  0  0  0
  187.4140  176.4290  134.6020 C   0  0  1  0  0  3  0  0  0  0  0  0
  187.3120  175.8800  137.1970 C   0  0  2  0  0  3  0  0  0  0  0  0
  185.8010  175.8810  137.0220 C   0  0  2  0  0  3  0  0  0  0  0  0
  187.7200  176.9600  138.1830 C   0  0  0  0  0  1  0  0  0  0  0  0
  183.7360  174.3790  136.8590 C   0  0  2  0  0  3  0  0  0  0  0  0
  183.1080  176.5570  134.7940 C   0  0  0  0  0  1  0  0  0  0  0  0
  179.4020  182.3550  138.0010 C   0  0  0  0  0  0  0  0  0  0  0  0
  179.0300  183.1250  139.0960 O   0  0  0  0  0  1  0  0  0  0  0  0
  178.9760  182.6790  136.8590 O   0  0  0  0  0  0  0  0  0  0  0  0
  1  7  1  6  0  0  0
  2 12  1  0  0  0  0
  2  9  1  0  0  0  0
  3  6  1  6  0  0  0
  3  8  1  0  0  0  0
  4  5  1  0  0  0  0
  5  8  1  0  0  0  0
  7  4  1  0  0  0  0
  8  6  1  6  0  0  0
 10  2  2  0  0  0  0
 11 13  2  0  0  0  0
 11 10  1  0  0  0  0
 12  3  1  0  0  0  0
 13 14  1  0  0  0  0
 14  1  1  0  0  0  0
 14 12  2  0  0  0  0
 15 31  1  6  0  0  0
 15 23  1  0  0  0  0
 15 19  1  0  0  0  0
 16 30  1  0  0  0  0
 16 28  1  0  0  0  0
 17 26  1  0  0  0  0
 18 24  1  6  0  0  0
 19 18  1  0  0  0  0
 19  1  1  1  0  0  0
 20 22  2  0  0  0  0
 20 27  1  0  0  0  0
 21 17  1  1  0  0  0
 21 23  1  0  0  0  0
 23 28  1  0  0  0  0
 26 21  1  0  0  0  0
 26 20  1  0  0  0  0
 27 29  1  0  0  0  0
 28 27  1  0  0  0  0
 30 25  1  0  0  0  0
 30 18  1  0  0  0  0
 32 10  1  0  0  0  0
 32 33  1  0  0  0  0
 34 32  2  0  0  0  0
M  END
>  <MODEL>
4

>  <REMARK>
 VINA RESULT:      -5.5      2.849      5.199
  Name = 
  2 active torsions:
  status: ('A' for Active; 'I' for Inactive)
    1  A    between atoms: C_1  and  C_9
    2  A    between atoms: C_3  and  C_25
                            x       y       z     vdW  Elec       q    Type
                         _______ _______ _______ _____ _____    ______ ____

>  <TORSDO>
F 2

$$$$
=
 OpenBabel10262423373D

 34 39  0  0  1  0  0  0  0  0999 V2000
  186.8500  177.5000  136.5200 C   0  0  1  0  0  3  0  0  0  0  0  0
  189.5720  176.4860  139.0030 C   0  0  0  0  0  0  0  0  0  0  0  0
  189.0900  175.3490  136.8520 C   0  0  1  0  0  3  0  0  0  0  0  0
  188.9490  178.2520  135.3750 C   0  0  0  0  0  2  0  0  0  0  0  0
  189.0320  176.9530  134.6000 C   0  0  0  0  0  2  0  0  0  0  0  0
  188.1280  175.0140  135.7460 C   0  0  0  0  0  2  0  0  0  0  0  0
  187.4860  178.5800  135.6450 C   0  0  0  0  0  2  0  0  0  0  0  0
  189.4470  175.7040  135.3930 C   0  0  2  0  0  3  0  0  0  0  0  0
  190.6610  175.6210  139.0850 O   0  0  0  0  0  1  0  0  0  0  0  0
  189.2980  177.3740  140.0660 C   0  0  0  0  0  0  0  0  0  0  0  0
  188.1980  178.2290  139.9690 C   0  0  0  0  0  3  0  0  0  0  0  0
  188.7480  176.4500  137.8540 C   0  0  0  0  0  0  0  0  0  0  0  0
  187.3870  178.2150  138.8420 C   0  0  0  0  0  3  0  0  0  0  0  0
  187.6290  177.3240  137.7890 C   0  0  0  0  0  0  0  0  0  0  0  0
  184.4740  176.7960  135.7270 C   0  0  1  0  0  3  0  0  0  0  0  0
  183.3750  175.6070  138.4180 C   0  0  0  0  0  2  0  0  0  0  0  0
  183.6100  173.4020  134.5940 C   0  0  0  0  0  2  0  0  0  0  0  0
  184.9440  177.6230  138.1980 C   0  0  1  0  0  3  0  0  0  0  0  0
  185.3320  177.6370  136.7040 C   0  0  1  0  0  3  0  0  0  0  0  0
  183.5170  172.6460  136.9540 C   0  0  0  0  0  0  0  0  0  0  0  0
  183.1350  174.6340  135.3390 C   0  0  2  0  0  3  0  0  0  0  0  0
  183.3380  171.4690  137.2280 O   0  0  0  0  0  0  0  0  0  0  0  0
  184.3300  175.2850  136.0500 C   0  0  2  0  0  3  0  0  0  0  0  0
  185.1310  178.9040  138.7220 O   0  0  0  0  0  1  0  0  0  0  0  0
  183.0440  177.5910  139.6950 O   0  0  0  0  0  1  0  0  0  0  0  0
  182.7270  173.2350  135.8130 C   0  0  1  0  0  3  0  0  0  0  0  0
  184.4980  173.4330  137.7810 C   0  0  2  0  0  3  0  0  0  0  0  0
  184.4280  174.9330  137.5390 C   0  0  2  0  0  3  0  0  0  0  0  0
  185.9110  172.9340  137.5370 C   0  0  0  0  0  1  0  0  0  0  0  0
  183.5070  177.1350  138.4590 C   0  0  2  0  0  3  0  0  0  0  0  0
  183.1580  177.5090  135.4360 C   0  0  0  0  0  1  0  0  0  0  0  0
  190.1340  177.4350  141.2890 C   0  0  0  0  0  0  0  0  0  0  0  0
  191.5180  177.5370  141.2110 O   0  0  0  0  0  0  0  0  0  0  0  0
  189.5920  177.3950  142.4260 O   0  0  0  0  0  1  0  0  0  0  0  0
  1  7  1  1  0  0  0
  1 14  1  0  0  0  0
  2  9  1  0  0  0  0
  2 10  1  0  0  0  0
  3  6  1  6  0  0  0
  3 12  1  0  0  0  0
  4  7  1  0  0  0  0
  5  4  1  0  0  0  0
  8  5  1  1  0  0  0
  8  6  1  0  0  0  0
  8  3  1  0  0  0  0
 10 32  1  0  0  0  0
 11 10  2  0  0  0  0
 12  2  2  0  0  0  0
 13 11  1  0  0  0  0
 14 12  1  0  0  0  0
 14 13  2  0  0  0  0
 15 31  1  1  0  0  0
 15 23  1  0  0  0  0
 15 19  1  0  0  0  0
 16 30  1  0  0  0  0
 17 26  1  0  0  0  0
 18 30  1  0  0  0  0
 18 24  1  6  0  0  0
 19  1  1  1  0  0  0
 19 18  1  0  0  0  0
 20 22  2  0  0  0  0
 20 27  1  0  0  0  0
 21 17  1  6  0  0  0
 21 26  1  0  0  0  0
 21 23  1  0  0  0  0
 23 28  1  0  0  0  0
 26 20  1  0  0  0  0
 28 27  1  0  0  0  0
 28 16  1  0  0  0  0
 29 27  1  0  0  0  0
 30 25  1  0  0  0  0
 32 34  1  0  0  0  0
 33 32  2  0  0  0  0
M  END
>  <MODEL>
5

>  <REMARK>
 VINA RESULT:      -5.4      3.779      6.539
  Name = 
  2 active torsions:
  status: ('A' for Active; 'I' for Inactive)
    1  A    between atoms: C_1  and  C_9
    2  A    between atoms: C_3  and  C_25
                            x       y       z     vdW  Elec       q    Type
                         _______ _______ _______ _____ _____    ______ ____

>  <TORSDO>
F 2

$$$$
=
 OpenBabel10262423373D

 34 39  0  0  1  0  0  0  0  0999 V2000
  181.4250  178.9270  140.8330 C   0  0  1  0  0  3  0  0  0  0  0  0
  183.3500  178.7770  144.1310 C   0  0  0  0  0  0  0  0  0  0  0  0
  181.0070  179.5460  143.8660 C   0  0  1  0  0  3  0  0  0  0  0  0
  180.3940  176.9540  141.9850 C   0  0  0  0  0  2  0  0  0  0  0  0
  179.2890  177.8210  142.5530 C   0  0  0  0  0  2  0  0  0  0  0  0
  179.9170  180.1210  143.0040 C   0  0  0  0  0  2  0  0  0  0  0  0
  180.8400  177.5280  140.6450 C   0  0  0  0  0  2  0  0  0  0  0  0
  179.6800  178.7760  143.6910 C   0  0  2  0  0  3  0  0  0  0  0  0
  183.1200  178.9140  145.4980 O   0  0  0  0  0  1  0  0  0  0  0  0
  184.6310  178.4070  143.6670 C   0  0  0  0  0  0  0  0  0  0  0  0
  184.8450  178.2800  142.2940 C   0  0  0  0  0  3  0  0  0  0  0  0
  182.2920  179.0250  143.2260 C   0  0  0  0  0  0  0  0  0  0  0  0
  183.8140  178.5090  141.3920 C   0  0  0  0  0  3  0  0  0  0  0  0
  182.5430  178.9000  141.8320 C   0  0  0  0  0  0  0  0  0  0  0  0
  183.2260  179.6310  139.0920 C   0  0  1  0  0  3  0  0  0  0  0  0
  181.9740  178.3360  136.5190 C   0  0  0  0  0  2  0  0  0  0  0  0
  186.0300  177.4840  138.0550 C   0  0  0  0  0  2  0  0  0  0  0  0
  180.6670  179.3980  138.4530 C   0  0  1  0  0  3  0  0  0  0  0  0
  181.7400  179.6700  139.5270 C   0  0  1  0  0  3  0  0  0  0  0  0
  184.4970  176.1990  136.5910 C   0  0  0  0  0  0  0  0  0  0  0  0
  185.0150  178.5210  137.6140 C   0  0  2  0  0  3  0  0  0  0  0  0
  184.8850  175.2060  135.9950 O   0  0  0  0  0  0  0  0  0  0  0  0
  183.7170  178.3260  138.4120 C   0  0  2  0  0  3  0  0  0  0  0  0
  179.5780  180.2420  138.6800 O   0  0  0  0  0  1  0  0  0  0  0  0
  180.1260  179.7880  136.1270 O   0  0  0  0  0  1  0  0  0  0  0  0
  185.4250  177.3850  136.6700 C   0  0  1  0  0  3  0  0  0  0  0  0
  183.1160  176.1820  137.1890 C   0  0  2  0  0  3  0  0  0  0  0  0
  182.6370  177.5500  137.6490 C   0  0  2  0  0  3  0  0  0  0  0  0
  183.0550  175.1970  138.3430 C   0  0  0  0  0  1  0  0  0  0  0  0
  181.1830  179.5550  137.0100 C   0  0  2  0  0  3  0  0  0  0  0  0
  183.5880  180.9100  138.3440 C   0  0  0  0  0  1  0  0  0  0  0  0
  185.7660  178.1460  144.5860 C   0  0  0  0  0  0  0  0  0  0  0  0
  186.0530  179.0070  145.6380 O   0  0  0  0  0  1  0  0  0  0  0  0
  186.4900  177.1280  144.4210 O   0  0  0  0  0  0  0  0  0  0  0  0
  1  7  1  6  0  0  0
  1 14  1  0  0  0  0
  2  9  1  0  0  0  0
  3  6  1  6  0  0  0
  4  5  1  0  0  0  0
  6  8  1  0  0  0  0
  7  4  1  0  0  0  0
  8  5  1  6  0  0  0
  8  3  1  0  0  0  0
 10  2  1  0  0  0  0
 10 32  1  0  0  0  0
 11 10  2  0  0  0  0
 12  3  1  0  0  0  0
 12  2  2  0  0  0  0
 13 14  2  0  0  0  0
 13 11  1  0  0  0  0
 14 12  1  0  0  0  0
 15 31  1  6  0  0  0
 15 19  1  0  0  0  0
 16 30  1  0  0  0  0
 16 28  1  0  0  0  0
 18 24  1  1  0  0  0
 18 19  1  0  0  0  0
 19  1  1  1  0  0  0
 20 26  1  0  0  0  0
 20 27  1  0  0  0  0
 21 17  1  1  0  0  0
 21 23  1  0  0  0  0
 22 20  2  0  0  0  0
 23 15  1  0  0  0  0
 25 30  1  0  0  0  0
 26 21  1  0  0  0  0
 26 17  1  0  0  0  0
 27 28  1  0  0  0  0
 27 29  1  0  0  0  0
 28 23  1  0  0  0  0
 30 18  1  0  0  0  0
 32 33  1  0  0  0  0
 34 32  2  0  0  0  0
M  END
>  <MODEL>
6

>  <REMARK>
 VINA RESULT:      -5.1      1.974      2.929
  Name = 
  2 active torsions:
  status: ('A' for Active; 'I' for Inactive)
    1  A    between atoms: C_1  and  C_9
    2  A    between atoms: C_3  and  C_25
                            x       y       z     vdW  Elec       q    Type
                         _______ _______ _______ _____ _____    ______ ____

>  <TORSDO>
F 2

$$$$
=
 OpenBabel10262423373D

 34 39  0  0  1  0  0  0  0  0999 V2000
  180.0290  178.1770  138.7440 C   0  0  1  0  0  3  0  0  0  0  0  0
  183.4600  179.7480  139.3440 C   0  0  0  0  0  0  0  0  0  0  0  0
  181.8730  180.3990  137.5540 C   0  0  1  0  0  3  0  0  0  0  0  0
  179.4490  180.4050  139.7350 C   0  0  0  0  0  2  0  0  0  0  0  0
  179.2990  181.0170  138.3570 C   0  0  0  0  0  2  0  0  0  0  0  0
  180.7250  180.0540  136.6450 C   0  0  0  0  0  2  0  0  0  0  0  0
  179.0750  178.9300  139.6700 C   0  0  0  0  0  2  0  0  0  0  0  0
  180.5950  181.2660  137.5700 C   0  0  2  0  0  3  0  0  0  0  0  0
  184.2190  180.8320  138.9090 O   0  0  0  0  0  1  0  0  0  0  0  0
  183.9510  178.9140  140.3730 C   0  0  0  0  0  0  0  0  0  0  0  0
  183.1790  177.8290  140.7930 C   0  0  0  0  0  3  0  0  0  0  0  0
  182.2080  179.4950  138.7380 C   0  0  0  0  0  0  0  0  0  0  0  0
  181.9430  177.5740  140.2150 C   0  0  0  0  0  3  0  0  0  0  0  0
  181.4500  178.3760  139.1790 C   0  0  0  0  0  0  0  0  0  0  0  0
  179.9610  176.2150  137.0360 C   0  0  1  0  0  3  0  0  0  0  0  0
  181.6090  174.0840  138.6500 C   0  0  0  0  0  2  0  0  0  0  0  0
  182.6280  175.5230  134.5970 C   0  0  0  0  0  2  0  0  0  0  0  0
  179.9920  175.8030  139.6520 C   0  0  1  0  0  3  0  0  0  0  0  0
  179.6340  176.7200  138.4640 C   0  0  1  0  0  3  0  0  0  0  0  0
  183.9890  174.4840  136.3900 C   0  0  0  0  0  0  0  0  0  0  0  0
  181.5880  174.9210  135.5230 C   0  0  2  0  0  3  0  0  0  0  0  0
  185.1300  174.1050  136.1710 O   0  0  0  0  0  0  0  0  0  0  0  0
  181.4350  175.8190  136.7580 C   0  0  2  0  0  3  0  0  0  0  0  0
  178.9840  175.8990  140.6140 O   0  0  0  0  0  1  0  0  0  0  0  0
  180.0490  173.4870  140.3490 O   0  0  0  0  0  1  0  0  0  0  0  0
  182.9460  174.2360  135.3300 C   0  0  1  0  0  3  0  0  0  0  0  0
  183.6960  175.1530  137.7050 C   0  0  2  0  0  3  0  0  0  0  0  0
  182.2100  175.3200  137.9830 C   0  0  2  0  0  3  0  0  0  0  0  0
  184.3910  176.5020  137.7750 C   0  0  0  0  0  1  0  0  0  0  0  0
  180.2200  174.3330  139.2520 C   0  0  2  0  0  3  0  0  0  0  0  0
  178.9330  175.1760  136.5990 C   0  0  0  0  0  1  0  0  0  0  0  0
  185.2620  179.1440  141.0270 C   0  0  0  0  0  0  0  0  0  0  0  0
  186.4470  178.7310  140.4300 O   0  0  0  0  0  0  0  0  0  0  0  0
  185.3160  179.7260  142.1440 O   0  0  0  0  0  1  0  0  0  0  0  0
  1 14  1  0  0  0  0
  1  7  1  1  0  0  0
  2 10  1  0  0  0  0
  3  6  1  6  0  0  0
  3  8  1  0  0  0  0
  3 12  1  0  0  0  0
  5  4  1  0  0  0  0
  7  4  1  0  0  0  0
  8  6  1  6  0  0  0
  8  5  1  0  0  0  0
  9  2  1  0  0  0  0
 10 11  2  0  0  0  0
 10 32  1  0  0  0  0
 12 14  1  0  0  0  0
 12  2  2  0  0  0  0
 13 11  1  0  0  0  0
 14 13  2  0  0  0  0
 15 31  1  1  0  0  0
 15 19  1  0  0  0  0
 16 30  1  0  0  0  0
 17 26  1  0  0  0  0
 18 24  1  1  0  0  0
 19  1  1  1  0  0  0
 19 18  1  0  0  0  0
 20 27  1  0  0  0  0
 21 17  1  6  0  0  0
 21 23  1  0  0  0  0
 22 20  2  0  0  0  0
 23 15  1  0  0  0  0
 23 28  1  0  0  0  0
 26 21  1  0  0  0  0
 26 20  1  0  0  0  0
 27 29  1  0  0  0  0
 27 28  1  0  0  0  0
 28 16  1  0  0  0  0
 30 18  1  0  0  0  0
 30 25  1  0  0  0  0
 32 34  1  0  0  0  0
 33 32  2  0  0  0  0
M  END
>  <MODEL>
7

>  <REMARK>
 VINA RESULT:      -5.1      2.473      4.091
  Name = 
  2 active torsions:
  status: ('A' for Active; 'I' for Inactive)
    1  A    between atoms: C_1  and  C_9
    2  A    between atoms: C_3  and  C_25
                            x       y       z     vdW  Elec       q    Type
                         _______ _______ _______ _____ _____    ______ ____

>  <TORSDO>
F 2

$$$$
=
 OpenBabel10262423373D

 34 39  0  0  1  0  0  0  0  0999 V2000
  184.0090  176.4640  136.9270 C   0  0  1  0  0  3  0  0  0  0  0  0
  186.9000  174.2100  135.8500 C   0  0  0  0  0  0  0  0  0  0  0  0
  186.3690  176.4310  134.8820 C   0  0  1  0  0  3  0  0  0  0  0  0
  186.0070  177.6310  137.8920 C   0  0  0  0  0  2  0  0  0  0  0  0
  186.1160  178.5230  136.6730 C   0  0  0  0  0  2  0  0  0  0  0  0
  185.3710  177.5180  134.5940 C   0  0  0  0  0  2  0  0  0  0  0  0
  184.5440  177.2650  138.1130 C   0  0  0  0  0  2  0  0  0  0  0  0
  186.6330  177.8660  135.3840 C   0  0  2  0  0  3  0  0  0  0  0  0
  188.0350  174.2560  135.0430 O   0  0  0  0  0  1  0  0  0  0  0  0
  186.6350  173.0600  136.6250 C   0  0  0  0  0  0  0  0  0  0  0  0
  185.4900  173.0280  137.4230 C   0  0  0  0  0  3  0  0  0  0  0  0
  186.0230  175.3190  135.8700 C   0  0  0  0  0  0  0  0  0  0  0  0
  184.6240  174.1140  137.4630 C   0  0  0  0  0  3  0  0  0  0  0  0
  184.8580  175.2530  136.6840 C   0  0  0  0  0  0  0  0  0  0  0  0
  181.8530  176.2620  138.3700 C   0  0  1  0  0  3  0  0  0  0  0  0
  180.1080  178.4750  136.9840 C   0  0  0  0  0  2  0  0  0  0  0  0
  181.1250  178.3880  141.2850 C   0  0  0  0  0  2  0  0  0  0  0  0
  181.7730  176.9210  135.8060 C   0  0  1  0  0  3  0  0  0  0  0  0
  182.4970  176.1990  136.9630 C   0  0  1  0  0  3  0  0  0  0  0  0
  180.4540  180.2290  139.7660 C   0  0  0  0  0  0  0  0  0  0  0  0
  180.5450  177.6610  140.0870 C   0  0  2  0  0  3  0  0  0  0  0  0
  180.1630  181.3310  140.2060 O   0  0  0  0  0  0  0  0  0  0  0  0
  181.5700  177.6750  138.9440 C   0  0  2  0  0  3  0  0  0  0  0  0
  181.8900  176.1460  134.6500 O   0  0  0  0  0  1  0  0  0  0  0  0
  179.5780  177.4150  134.9170 O   0  0  0  0  0  1  0  0  0  0  0  0
  179.9760  179.0160  140.5230 C   0  0  1  0  0  3  0  0  0  0  0  0
  181.2500  180.1540  138.4910 C   0  0  2  0  0  3  0  0  0  0  0  0
  181.3040  178.7570  137.8910 C   0  0  2  0  0  3  0  0  0  0  0  0
  182.6570  180.6760  138.7180 C   0  0  0  0  0  1  0  0  0  0  0  0
  180.2940  177.2330  136.1020 C   0  0  2  0  0  3  0  0  0  0  0  0
  180.6730  175.2990  138.4500 C   0  0  0  0  0  1  0  0  0  0  0  0
  187.5270  171.8750  136.6230 C   0  0  0  0  0  0  0  0  0  0  0  0
  187.5280  170.9750  135.5650 O   0  0  0  0  0  0  0  0  0  0  0  0
  188.3050  171.6710  137.5940 O   0  0  0  0  0  1  0  0  0  0  0  0
  1  7  1  1  0  0  0
  2 12  2  0  0  0  0
  2 10  1  0  0  0  0
  3  6  1  6  0  0  0
  3  8  1  0  0  0  0
  3 12  1  0  0  0  0
  4  7  1  0  0  0  0
  5  4  1  0  0  0  0
  8  6  1  6  0  0  0
  8  5  1  0  0  0  0
  9  2  1  0  0  0  0
 10 11  2  0  0  0  0
 11 13  1  0  0  0  0
 12 14  1  0  0  0  0
 14  1  1  0  0  0  0
 14 13  2  0  0  0  0
 15 31  1  6  0  0  0
 15 23  1  0  0  0  0
 16 28  1  0  0  0  0
 18 24  1  6  0  0  0
 18 30  1  0  0  0  0
 18 19  1  0  0  0  0
 19  1  1  1  0  0  0
 19 15  1  0  0  0  0
 20 22  2  0  0  0  0
 20 26  1  0  0  0  0
 21 26  1  0  0  0  0
 21 17  1  1  0  0  0
 23 21  1  0  0  0  0
 25 30  1  0  0  0  0
 26 17  1  0  0  0  0
 27 29  1  0  0  0  0
 27 20  1  0  0  0  0
 28 27  1  0  0  0  0
 28 23  1  0  0  0  0
 30 16  1  0  0  0  0
 32 10  1  0  0  0  0
 32 34  1  0  0  0  0
 33 32  2  0  0  0  0
M  END
>  <MODEL>
8

>  <REMARK>
 VINA RESULT:      -4.8      2.680      7.500
  Name = 
  2 active torsions:
  status: ('A' for Active; 'I' for Inactive)
    1  A    between atoms: C_1  and  C_9
    2  A    between atoms: C_3  and  C_25
                            x       y       z     vdW  Elec       q    Type
                         _______ _______ _______ _____ _____    ______ ____

>  <TORSDO>
F 2

$$$$
=
 OpenBabel10262423373D

 34 39  0  0  1  0  0  0  0  0999 V2000
  183.1130  175.0440  136.1850 C   0  0  1  0  0  3  0  0  0  0  0  0
  186.9260  175.2820  136.2830 C   0  0  0  0  0  0  0  0  0  0  0  0
  185.5650  173.5200  137.3760 C   0  0  1  0  0  3  0  0  0  0  0  0
  183.8210  173.2010  134.6400 C   0  0  0  0  0  2  0  0  0  0  0  0
  183.7550  172.1880  135.7650 C   0  0  0  0  0  2  0  0  0  0  0  0
  184.2600  173.0660  137.9700 C   0  0  0  0  0  2  0  0  0  0  0  0
  182.7900  174.2950  134.8930 C   0  0  0  0  0  2  0  0  0  0  0  0
  184.8680  172.2600  136.8220 C   0  0  2  0  0  3  0  0  0  0  0  0
  188.0240  174.5260  136.6890 O   0  0  0  0  0  1  0  0  0  0  0  0
  187.1260  176.5170  135.6290 C   0  0  0  0  0  0  0  0  0  0  0  0
  186.0140  177.2640  135.2350 C   0  0  0  0  0  3  0  0  0  0  0  0
  185.6220  174.8000  136.5460 C   0  0  0  0  0  0  0  0  0  0  0  0
  184.7270  176.7990  135.4750 C   0  0  0  0  0  3  0  0  0  0  0  0
  184.5090  175.5890  136.1430 C   0  0  0  0  0  0  0  0  0  0  0  0
  181.8600  176.1790  138.1630 C   0  0  1  0  0  3  0  0  0  0  0  0
  182.5370  179.1810  137.5340 C   0  0  0  0  0  2  0  0  0  0  0  0
  183.4650  177.1280  141.3370 C   0  0  0  0  0  2  0  0  0  0  0  0
  182.1030  177.3450  135.7970 C   0  0  1  0  0  3  0  0  0  0  0  0
  182.0390  176.0470  136.6300 C   0  0  1  0  0  3  0  0  0  0  0  0
  184.4370  179.1270  140.2400 C   0  0  0  0  0  0  0  0  0  0  0  0
  182.4240  177.4990  140.2980 C   0  0  2  0  0  3  0  0  0  0  0  0
  185.2140  179.8550  140.8390 O   0  0  0  0  0  0  0  0  0  0  0  0
  182.9090  177.0410  138.9140 C   0  0  2  0  0  3  0  0  0  0  0  0
  181.4240  177.1400  134.5940 O   0  0  0  0  0  1  0  0  0  0  0  0
  181.1690  179.5690  135.6220 O   0  0  0  0  0  1  0  0  0  0  0  0
  183.2490  178.5870  140.9940 C   0  0  1  0  0  3  0  0  0  0  0  0
  184.7050  178.8330  138.7890 C   0  0  2  0  0  3  0  0  0  0  0  0
  183.5380  178.1630  138.0800 C   0  0  2  0  0  3  0  0  0  0  0  0
  185.9550  177.9830  138.6470 C   0  0  0  0  0  1  0  0  0  0  0  0
  181.5440  178.5780  136.5310 C   0  0  2  0  0  3  0  0  0  0  0  0
  180.4100  176.5150  138.4950 C   0  0  0  0  0  1  0  0  0  0  0  0
  188.4760  177.0580  135.3440 C   0  0  0  0  0  0  0  0  0  0  0  0
  188.9010  178.2630  135.8910 O   0  0  0  0  0  1  0  0  0  0  0  0
  189.2650  176.4220  134.5940 O   0  0  0  0  0  0  0  0  0  0  0  0
  1  7  1  6  0  0  0
  2 12  1  0  0  0  0
  2  9  1  0  0  0  0
  3  6  1  1  0  0  0
  4  7  1  0  0  0  0
  4  5  1  0  0  0  0
  8  5  1  6  0  0  0
  8  3  1  0  0  0  0
  8  6  1  0  0  0  0
 10  2  2  0  0  0  0
 11 13  2  0  0  0  0
 11 10  1  0  0  0  0
 12  3  1  0  0  0  0
 13 14  1  0  0  0  0
 14  1  1  0  0  0  0
 14 12  2  0  0  0  0
 15 31  1  6  0  0  0
 15 23  1  0  0  0  0
 16 28  1  0  0  0  0
 18 24  1  6  0  0  0
 18 30  1  0  0  0  0
 18 19  1  0  0  0  0
 19  1  1  1  0  0  0
 19 15  1  0  0  0  0
 20 22  2  0  0  0  0
 20 26  1  0  0  0  0
 21 26  1  0  0  0  0
 21 17  1  1  0  0  0
 23 21  1  0  0  0  0
 25 30  1  0  0  0  0
 26 17  1  0  0  0  0
 27 20  1  0  0  0  0
 28 27  1  0  0  0  0
 28 23  1  0  0  0  0
 29 27  1  0  0  0  0
 30 16  1  0  0  0  0
 32 10  1  0  0  0  0
 32 33  1  0  0  0  0
 34 32  2  0  0  0  0
M  END
>  <MODEL>
9

>  <REMARK>
 VINA RESULT:      -4.4      2.680      7.027
  Name = 
  2 active torsions:
  status: ('A' for Active; 'I' for Inactive)
    1  A    between atoms: C_1  and  C_9
    2  A    between atoms: C_3  and  C_25
                            x       y       z     vdW  Elec       q    Type
                         _______ _______ _______ _____ _____    ______ ____

>  <TORSDO>
F 2

$$$$
