=
 OpenBabel10262420513D

 28 31  0  0  1  0  0  0  0  0999 V2000
  190.7090  176.6850  142.7530 C   0  0  2  0  0  0  0  0  0  0  0  0
  189.5180  177.6960  144.5400 C   0  0  1  0  0  3  0  0  0  0  0  0
  190.2410  175.3190  143.1860 C   0  0  0  0  0  2  0  0  0  0  0  0
  191.6300  178.8390  143.5900 C   0  0  0  0  0  2  0  0  0  0  0  0
  190.6060  178.7750  144.7560 C   0  0  0  0  0  2  0  0  0  0  0  0
  192.0040  177.4440  143.0310 C   0  0  0  0  0  2  0  0  0  0  0  0
  190.2750  176.4130  144.2230 C   0  0  1  0  0  3  0  0  0  0  0  0
  189.7110  177.3810  141.7740 C   0  0  2  0  0  3  0  0  0  0  0  0
  188.4630  176.7460  141.7140 O   0  0  0  0  0  1  0  0  0  0  0  0
  190.2860  177.5440  140.3680 C   0  0  0  0  0  2  0  0  0  0  0  0
  189.9800  176.5490  138.1040 C   0  0  0  0  0  1  0  0  0  0  0  0
  189.2720  177.1870  139.2850 C   0  0  2  0  0  3  0  0  0  0  0  0
  188.4910  178.3790  138.8310 C   0  0  0  0  0  0  0  0  0  0  0  0
  187.1710  178.5200  139.2360 O   0  0  0  0  0  1  0  0  0  0  0  0
  188.9990  179.2380  138.0600 O   0  0  0  0  0  0  0  0  0  0  0  0
  189.2430  176.9250  146.9340 C   0  0  0  0  0  1  0  0  0  0  0  0
  188.6810  177.5380  145.7320 N   0  0  0  0  0  0  0  0  0  0  0  0
  184.5650  178.2840  142.0160 C   0  0  0  0  0  1  0  0  0  0  0  0
  184.6030  178.6640  145.6570 C   0  0  0  0  0  0  0  0  0  0  0  0
  186.6030  178.0080  144.4660 C   0  0  0  0  0  3  0  0  0  0  0  0
  183.1740  178.9070  144.1000 C   0  0  0  0  0  0  0  0  0  0  0  0
  185.2610  178.3810  144.4880 C   0  0  0  0  0  0  0  0  0  0  0  0
  186.5980  178.2170  146.9020 C   0  0  0  0  0  3  0  0  0  0  0  0
  183.3130  178.9930  145.4440 N   0  0  0  0  0  0  0  0  0  0  0  0
  185.2440  178.5900  146.8900 C   0  0  0  0  0  3  0  0  0  0  0  0
  181.9450  179.1590  143.4300 N   0  0  0  0  0  1  0  0  0  0  0  0
  184.3520  178.5280  143.4720 C   0  0  0  0  0  0  0  0  0  0  0  0
  187.2920  177.9240  145.6980 C   0  0  1  0  0  3  0  0  0  0  0  0
  1  8  1  6  0  0  0
  1  6  1  0  0  0  0
  1  3  1  0  0  0  0
  1  7  1  0  0  0  0
  2  5  1  0  0  0  0
  2 17  1  1  0  0  0
  4  5  1  0  0  0  0
  6  4  1  0  0  0  0
  7  3  1  6  0  0  0
  7  2  1  0  0  0  0
  8  9  1  6  0  0  0
 10  8  1  0  0  0  0
 12 11  1  6  0  0  0
 12 10  1  0  0  0  0
 13 14  1  0  0  0  0
 13 12  1  0  0  0  0
 15 13  2  0  0  0  0
 17 16  1  0  0  0  0
 18 27  1  0  0  0  0
 19 25  1  0  0  0  0
 20 22  2  0  0  0  0
 20 28  1  0  0  0  0
 21 24  1  0  0  0  0
 22 19  1  0  0  0  0
 24 19  2  0  0  0  0
 25 23  2  0  0  0  0
 26 21  1  0  0  0  0
 27 21  2  0  0  0  0
 27 22  1  0  0  0  0
 28 17  1  1  0  0  0
 28 23  1  0  0  0  0
M  END
>  <MODEL>
1

>  <REMARK>
 VINA RESULT:      -9.4      0.000      0.000
  Name = 
  6 active torsions:
  status: ('A' for Active; 'I' for Inactive)
    1  A    between atoms: C_1  and  C_2
    2  A    between atoms: C_2  and  C_3
    3  A    between atoms: C_3  and  C_11
    4  A    between atoms: C_6  and  C_11
    5  A    between atoms: C_16  and  N_20
    6  A    between atoms: N_20  and  C_25
                            x       y       z     vdW  Elec       q    Type
                         _______ _______ _______ _____ _____    ______ ____

>  <TORSDO>
F 6

$$$$
=
 OpenBabel10262420513D

 28 31  0  0  1  0  0  0  0  0999 V2000
  189.2370  176.6680  143.6420 C   0  0  2  0  0  0  0  0  0  0  0  0
  188.9110  177.7390  141.5500 C   0  0  1  0  0  3  0  0  0  0  0  0
  190.1120  175.6240  142.9960 C   0  0  0  0  0  2  0  0  0  0  0  0
  187.1050  177.9250  143.3860 C   0  0  0  0  0  2  0  0  0  0  0  0
  187.4480  178.1170  141.8840 C   0  0  0  0  0  2  0  0  0  0  0  0
  187.7530  176.6590  144.0020 C   0  0  0  0  0  2  0  0  0  0  0  0
  189.1130  176.3440  142.1250 C   0  0  1  0  0  3  0  0  0  0  0  0
  190.0380  177.9290  144.0960 C   0  0  2  0  0  3  0  0  0  0  0  0
  191.3880  177.8900  143.7190 O   0  0  0  0  0  1  0  0  0  0  0  0
  189.9190  178.1930  145.5950 C   0  0  0  0  0  2  0  0  0  0  0  0
  189.0540  177.0260  147.6210 C   0  0  0  0  0  1  0  0  0  0  0  0
  189.9640  176.9050  146.4130 C   0  0  2  0  0  3  0  0  0  0  0  0
  191.3530  176.5650  146.8500 C   0  0  0  0  0  0  0  0  0  0  0  0
  191.8510  177.1180  148.0220 O   0  0  0  0  0  1  0  0  0  0  0  0
  192.0910  175.8140  146.1560 O   0  0  0  0  0  0  0  0  0  0  0  0
  188.0570  178.1010  139.1970 C   0  0  0  0  0  1  0  0  0  0  0  0
  189.1500  177.7570  140.1040 N   0  0  0  0  0  0  0  0  0  0  0  0
  191.3590  175.5910  135.4430 C   0  0  0  0  0  1  0  0  0  0  0  0
  192.9350  176.6480  138.5730 C   0  0  0  0  0  0  0  0  0  0  0  0
  190.5390  176.8140  138.2830 C   0  0  0  0  0  3  0  0  0  0  0  0
  193.5850  175.8080  136.7310 C   0  0  0  0  0  0  0  0  0  0  0  0
  191.8050  176.4640  137.8180 C   0  0  0  0  0  0  0  0  0  0  0  0
  191.6130  177.5620  140.3480 C   0  0  0  0  0  3  0  0  0  0  0  0
  194.0470  176.2490  137.9240 N   0  0  0  0  0  0  0  0  0  0  0  0
  192.8760  177.1990  139.8500 C   0  0  0  0  0  3  0  0  0  0  0  0
  194.4370  175.3040  135.7090 N   0  0  0  0  0  1  0  0  0  0  0  0
  192.2080  175.9270  136.6220 C   0  0  0  0  0  0  0  0  0  0  0  0
  190.4360  177.3740  139.5770 C   0  0  1  0  0  3  0  0  0  0  0  0
  1  6  1  0  0  0  0
  1  8  1  1  0  0  0
  2 17  1  6  0  0  0
  2  5  1  0  0  0  0
  2  7  1  0  0  0  0
  3  1  1  0  0  0  0
  4  6  1  0  0  0  0
  5  4  1  0  0  0  0
  7  3  1  6  0  0  0
  7  1  1  0  0  0  0
  8  9  1  1  0  0  0
  8 10  1  0  0  0  0
 10 12  1  0  0  0  0
 12 13  1  0  0  0  0
 12 11  1  1  0  0  0
 13 14  1  0  0  0  0
 15 13  2  0  0  0  0
 16 17  1  0  0  0  0
 18 27  1  0  0  0  0
 19 25  1  0  0  0  0
 20 28  1  0  0  0  0
 21 24  1  0  0  0  0
 22 20  2  0  0  0  0
 22 19  1  0  0  0  0
 24 19  2  0  0  0  0
 25 23  2  0  0  0  0
 26 21  1  0  0  0  0
 27 21  2  0  0  0  0
 27 22  1  0  0  0  0
 28 17  1  6  0  0  0
 28 23  1  0  0  0  0
M  END
>  <MODEL>
2

>  <REMARK>
 VINA RESULT:      -8.2      3.960      8.273
  Name = 
  6 active torsions:
  status: ('A' for Active; 'I' for Inactive)
    1  A    between atoms: C_1  and  C_2
    2  A    between atoms: C_2  and  C_3
    3  A    between atoms: C_3  and  C_11
    4  A    between atoms: C_6  and  C_11
    5  A    between atoms: C_16  and  N_20
    6  A    between atoms: N_20  and  C_25
                            x       y       z     vdW  Elec       q    Type
                         _______ _______ _______ _____ _____    ______ ____

>  <TORSDO>
F 6

$$$$
=
 OpenBabel10262420513D

 28 31  0  0  1  0  0  0  0  0999 V2000
  190.5340  177.9710  144.8280 C   0  0  2  0  0  0  0  0  0  0  0  0
  190.7250  177.1040  142.6280 C   0  0  1  0  0  3  0  0  0  0  0  0
  190.5840  179.3820  144.2990 C   0  0  0  0  0  2  0  0  0  0  0  0
  191.5900  175.7260  144.6340 C   0  0  0  0  0  2  0  0  0  0  0  0
  191.5910  175.9070  143.0920 C   0  0  0  0  0  2  0  0  0  0  0  0
  191.6240  177.0700  145.4050 C   0  0  0  0  0  2  0  0  0  0  0  0
  191.1950  178.2920  143.4560 C   0  0  1  0  0  3  0  0  0  0  0  0
  189.0840  177.3920  144.8660 C   0  0  2  0  0  3  0  0  0  0  0  0
  188.1420  178.2240  144.2450 O   0  0  0  0  0  1  0  0  0  0  0  0
  188.6270  177.0460  146.2820 C   0  0  0  0  0  2  0  0  0  0  0  0
  188.4380  178.2190  148.4720 C   0  0  0  0  0  1  0  0  0  0  0  0
  188.0380  178.2510  147.0090 C   0  0  2  0  0  3  0  0  0  0  0  0
  186.5480  178.3070  146.8870 C   0  0  0  0  0  0  0  0  0  0  0  0
  185.8680  179.4160  147.3740 O   0  0  0  0  0  1  0  0  0  0  0  0
  185.8970  177.3530  146.3830 O   0  0  0  0  0  0  0  0  0  0  0  0
  192.2350  177.4270  140.6240 C   0  0  0  0  0  1  0  0  0  0  0  0
  190.8910  177.3570  141.1940 N   0  0  0  0  0  0  0  0  0  0  0  0
  185.5700  179.0120  141.6860 C   0  0  0  0  0  1  0  0  0  0  0  0
  187.5240  178.0760  138.7350 C   0  0  0  0  0  0  0  0  0  0  0  0
  188.5160  178.0120  140.9400 C   0  0  0  0  0  3  0  0  0  0  0  0
  185.5300  178.7080  139.1230 C   0  0  0  0  0  0  0  0  0  0  0  0
  187.4330  178.2390  140.0940 C   0  0  0  0  0  0  0  0  0  0  0  0
  189.8210  177.4390  138.9550 C   0  0  0  0  0  3  0  0  0  0  0  0
  186.3620  178.3590  138.1130 N   0  0  0  0  0  0  0  0  0  0  0  0
  188.7110  177.6760  138.1280 C   0  0  0  0  0  3  0  0  0  0  0  0
  184.1810  179.1060  138.9120 N   0  0  0  0  0  1  0  0  0  0  0  0
  186.1530  178.6520  140.3610 C   0  0  0  0  0  0  0  0  0  0  0  0
  189.7380  177.6010  140.3630 C   0  0  1  0  0  3  0  0  0  0  0  0
  1  8  1  6  0  0  0
  1  6  1  0  0  0  0
  2 17  1  6  0  0  0
  2  5  1  0  0  0  0
  2  7  1  0  0  0  0
  3  1  1  0  0  0  0
  4  6  1  0  0  0  0
  5  4  1  0  0  0  0
  7  3  1  6  0  0  0
  7  1  1  0  0  0  0
  8  9  1  1  0  0  0
  8 10  1  0  0  0  0
 10 12  1  0  0  0  0
 12 11  1  1  0  0  0
 13 12  1  0  0  0  0
 13 14  1  0  0  0  0
 15 13  2  0  0  0  0
 16 17  1  0  0  0  0
 19 22  1  0  0  0  0
 21 27  2  0  0  0  0
 22 27  1  0  0  0  0
 22 20  2  0  0  0  0
 23 28  1  0  0  0  0
 24 19  2  0  0  0  0
 24 21  1  0  0  0  0
 25 19  1  0  0  0  0
 25 23  2  0  0  0  0
 26 21  1  0  0  0  0
 27 18  1  0  0  0  0
 28 20  1  0  0  0  0
 28 17  1  6  0  0  0
M  END
>  <MODEL>
3

>  <REMARK>
 VINA RESULT:      -8.0      2.854      6.029
  Name = 
  6 active torsions:
  status: ('A' for Active; 'I' for Inactive)
    1  A    between atoms: C_1  and  C_2
    2  A    between atoms: C_2  and  C_3
    3  A    between atoms: C_3  and  C_11
    4  A    between atoms: C_6  and  C_11
    5  A    between atoms: C_16  and  N_20
    6  A    between atoms: N_20  and  C_25
                            x       y       z     vdW  Elec       q    Type
                         _______ _______ _______ _____ _____    ______ ____

>  <TORSDO>
F 6

$$$$
=
 OpenBabel10262420513D

 28 31  0  0  1  0  0  0  0  0999 V2000
  184.0780  178.5520  138.4420 C   0  0  2  0  0  0  0  0  0  0  0  0
  183.4200  177.9910  140.6520 C   0  0  1  0  0  3  0  0  0  0  0  0
  183.9680  180.0220  138.7600 C   0  0  0  0  0  2  0  0  0  0  0  0
  182.9330  176.3590  138.7100 C   0  0  0  0  0  2  0  0  0  0  0  0
  182.6280  176.7470  140.1830 C   0  0  0  0  0  2  0  0  0  0  0  0
  183.0980  177.5860  137.7790 C   0  0  0  0  0  2  0  0  0  0  0  0
  183.1640  179.0590  139.5970 C   0  0  1  0  0  3  0  0  0  0  0  0
  185.4860  177.9670  138.7770 C   0  0  2  0  0  3  0  0  0  0  0  0
  186.3310  178.8900  139.4090 O   0  0  0  0  0  1  0  0  0  0  0  0
  186.1800  177.3720  137.5540 C   0  0  0  0  0  2  0  0  0  0  0  0
  186.7690  178.1760  135.2690 C   0  0  0  0  0  1  0  0  0  0  0  0
  186.9460  178.4230  136.7560 C   0  0  2  0  0  3  0  0  0  0  0  0
  188.4010  178.4420  137.1020 C   0  0  0  0  0  0  0  0  0  0  0  0
  188.9970  179.6430  137.4640 O   0  0  0  0  0  1  0  0  0  0  0  0
  189.1020  177.3970  137.0350 O   0  0  0  0  0  0  0  0  0  0  0  0
  181.6240  178.9640  142.1450 C   0  0  0  0  0  1  0  0  0  0  0  0
  182.9770  178.4370  141.9760 N   0  0  0  0  0  0  0  0  0  0  0  0
  188.2280  176.8980  143.1410 C   0  0  0  0  0  1  0  0  0  0  0  0
  185.6460  178.3970  145.2590 C   0  0  0  0  0  0  0  0  0  0  0  0
  185.1930  177.8880  142.9380 C   0  0  0  0  0  3  0  0  0  0  0  0
  187.6540  177.7430  145.5120 C   0  0  0  0  0  0  0  0  0  0  0  0
  186.0390  177.8950  144.0450 C   0  0  0  0  0  0  0  0  0  0  0  0
  183.4970  178.9360  144.3520 C   0  0  0  0  0  3  0  0  0  0  0  0
  186.6250  178.3130  146.1820 N   0  0  0  0  0  2  0  0  0  0  0  0
  184.3740  178.9290  145.4490 C   0  0  0  0  0  3  0  0  0  0  0  0
  188.9170  177.4790  146.1100 N   0  0  0  0  0  1  0  0  0  0  0  0
  187.3360  177.4730  144.1890 C   0  0  0  0  0  0  0  0  0  0  0  0
  183.8910  178.4170  143.0910 C   0  0  0  0  0  0  0  0  0  0  0  0
  1  3  1  0  0  0  0
  1  8  1  1  0  0  0
  1  7  1  0  0  0  0
  2 17  1  1  0  0  0
  4  5  1  0  0  0  0
  5  2  1  0  0  0  0
  6  1  1  0  0  0  0
  6  4  1  0  0  0  0
  7  3  1  1  0  0  0
  7  2  1  0  0  0  0
  8  9  1  6  0  0  0
 10  8  1  0  0  0  0
 12 11  1  6  0  0  0
 12 13  1  0  0  0  0
 12 10  1  0  0  0  0
 13 14  1  0  0  0  0
 15 13  2  0  0  0  0
 17 16  1  0  0  0  0
 17 28  1  0  0  0  0
 18 27  1  0  0  0  0
 19 25  1  0  0  0  0
 19 24  1  0  0  0  0
 20 28  2  0  0  0  0
 20 22  1  0  0  0  0
 21 26  1  0  0  0  0
 21 24  1  0  0  0  0
 22 27  1  0  0  0  0
 22 19  2  0  0  0  0
 23 25  2  0  0  0  0
 27 21  2  0  0  0  0
 28 23  1  0  0  0  0
M  END
>  <MODEL>
4

>  <REMARK>
 VINA RESULT:      -7.7      2.379      5.959
  Name = 
  6 active torsions:
  status: ('A' for Active; 'I' for Inactive)
    1  A    between atoms: C_1  and  C_2
    2  A    between atoms: C_2  and  C_3
    3  A    between atoms: C_3  and  C_11
    4  A    between atoms: C_6  and  C_11
    5  A    between atoms: C_16  and  N_20
    6  A    between atoms: N_20  and  C_25
                            x       y       z     vdW  Elec       q    Type
                         _______ _______ _______ _____ _____    ______ ____

>  <TORSDO>
F 6

$$$$
=
 OpenBabel10262420513D

 28 31  0  0  1  0  0  0  0  0999 V2000
  190.4900  178.0180  144.7250 C   0  0  2  0  0  0  0  0  0  0  0  0
  190.8300  177.1240  142.5530 C   0  0  1  0  0  3  0  0  0  0  0  0
  190.5560  179.4230  144.1790 C   0  0  0  0  0  2  0  0  0  0  0  0
  191.5830  175.7850  144.6300 C   0  0  0  0  0  2  0  0  0  0  0  0
  191.6790  175.9450  143.0880 C   0  0  0  0  0  2  0  0  0  0  0  0
  191.5520  177.1400  145.3810 C   0  0  0  0  0  2  0  0  0  0  0  0
  191.2320  178.3290  143.3920 C   0  0  1  0  0  3  0  0  0  0  0  0
  189.0480  177.4220  144.6800 C   0  0  2  0  0  3  0  0  0  0  0  0
  188.1310  178.2460  144.0130 O   0  0  0  0  0  1  0  0  0  0  0  0
  188.5190  177.0600  146.0660 C   0  0  0  0  0  2  0  0  0  0  0  0
  188.5480  178.1710  148.2970 C   0  0  0  0  0  1  0  0  0  0  0  0
  188.0840  178.2900  146.8570 C   0  0  2  0  0  3  0  0  0  0  0  0
  186.6030  178.4920  146.8120 C   0  0  0  0  0  0  0  0  0  0  0  0
  185.8080  177.5540  146.1670 O   0  0  0  0  0  0  0  0  0  0  0  0
  186.0680  179.5160  147.3170 O   0  0  0  0  0  1  0  0  0  0  0  0
  192.4590  177.4550  140.6460 C   0  0  0  0  0  1  0  0  0  0  0  0
  191.0830  177.3590  141.1290 N   0  0  0  0  0  0  0  0  0  0  0  0
  189.8620  176.6980  135.7100 C   0  0  0  0  0  1  0  0  0  0  0  0
  187.8330  177.9540  138.4850 C   0  0  0  0  0  0  0  0  0  0  0  0
  190.1230  177.2640  138.8470 C   0  0  0  0  0  3  0  0  0  0  0  0
  187.5610  177.6440  136.3990 C   0  0  0  0  0  0  0  0  0  0  0  0
  189.0270  177.4740  138.0120 C   0  0  0  0  0  0  0  0  0  0  0  0
  188.7390  178.0570  140.6990 C   0  0  0  0  0  3  0  0  0  0  0  0
  186.9120  178.0700  137.5080 N   0  0  0  0  0  0  0  0  0  0  0  0
  187.6520  178.2570  139.8320 C   0  0  0  0  0  3  0  0  0  0  0  0
  186.9470  177.5820  135.1170 N   0  0  0  0  0  1  0  0  0  0  0  0
  188.8680  177.2630  136.6670 C   0  0  0  0  0  0  0  0  0  0  0  0
  189.9810  177.5620  140.2210 C   0  0  1  0  0  3  0  0  0  0  0  0
  1  8  1  6  0  0  0
  1  6  1  0  0  0  0
  2 17  1  6  0  0  0
  2  5  1  0  0  0  0
  2  7  1  0  0  0  0
  3  1  1  0  0  0  0
  4  6  1  0  0  0  0
  5  4  1  0  0  0  0
  7  3  1  6  0  0  0
  7  1  1  0  0  0  0
  8  9  1  1  0  0  0
  8 10  1  0  0  0  0
 10 12  1  0  0  0  0
 12 11  1  1  0  0  0
 13 12  1  0  0  0  0
 13 15  1  0  0  0  0
 14 13  2  0  0  0  0
 16 17  1  0  0  0  0
 18 27  1  0  0  0  0
 19 25  1  0  0  0  0
 20 28  1  0  0  0  0
 21 27  2  0  0  0  0
 21 24  1  0  0  0  0
 22 19  1  0  0  0  0
 22 20  2  0  0  0  0
 24 19  2  0  0  0  0
 25 23  2  0  0  0  0
 26 21  1  0  0  0  0
 27 22  1  0  0  0  0
 28 23  1  0  0  0  0
 28 17  1  1  0  0  0
M  END
>  <MODEL>
5

>  <REMARK>
 VINA RESULT:      -7.6      3.377      6.723
  Name = 
  6 active torsions:
  status: ('A' for Active; 'I' for Inactive)
    1  A    between atoms: C_1  and  C_2
    2  A    between atoms: C_2  and  C_3
    3  A    between atoms: C_3  and  C_11
    4  A    between atoms: C_6  and  C_11
    5  A    between atoms: C_16  and  N_20
    6  A    between atoms: N_20  and  C_25
                            x       y       z     vdW  Elec       q    Type
                         _______ _______ _______ _____ _____    ______ ____

>  <TORSDO>
F 6

$$$$
=
 OpenBabel10262420513D

 28 31  0  0  1  0  0  0  0  0999 V2000
  187.9450  177.0650  144.2550 C   0  0  2  0  0  0  0  0  0  0  0  0
  186.9170  178.3990  142.5830 C   0  0  1  0  0  3  0  0  0  0  0  0
  188.3570  176.0480  143.2210 C   0  0  0  0  0  2  0  0  0  0  0  0
  186.0490  178.4860  145.0140 C   0  0  0  0  0  2  0  0  0  0  0  0
  185.7700  178.8330  143.5260 C   0  0  0  0  0  2  0  0  0  0  0  0
  186.7450  177.1150  145.1990 C   0  0  0  0  0  2  0  0  0  0  0  0
  187.1780  176.9340  142.9070 C   0  0  1  0  0  3  0  0  0  0  0  0
  188.9970  178.2050  144.4330 C   0  0  2  0  0  3  0  0  0  0  0  0
  190.0790  178.1000  143.5480 O   0  0  0  0  0  1  0  0  0  0  0  0
  189.5020  178.3180  145.8700 C   0  0  0  0  0  2  0  0  0  0  0  0
  189.1710  176.8050  147.8230 C   0  0  0  0  0  1  0  0  0  0  0  0
  189.8430  176.9570  146.4710 C   0  0  2  0  0  3  0  0  0  0  0  0
  191.3190  176.7560  146.6070 C   0  0  0  0  0  0  0  0  0  0  0  0
  192.0290  176.2040  145.5490 O   0  0  0  0  0  0  0  0  0  0  0  0
  191.9220  177.0450  147.6750 O   0  0  0  0  0  1  0  0  0  0  0  0
  185.1910  179.0020  140.8350 C   0  0  0  0  0  1  0  0  0  0  0  0
  186.5460  178.5740  141.1760 N   0  0  0  0  0  0  0  0  0  0  0  0
  186.6200  177.5210  135.6820 C   0  0  0  0  0  1  0  0  0  0  0  0
  189.3380  177.6670  138.1290 C   0  0  0  0  0  0  0  0  0  0  0  0
  187.0470  178.0380  138.8100 C   0  0  0  0  0  3  0  0  0  0  0  0
  189.1640  177.2800  136.0450 C   0  0  0  0  0  0  0  0  0  0  0  0
  188.0000  177.7430  137.8380 C   0  0  0  0  0  0  0  0  0  0  0  0
  188.8790  178.1820  140.4220 C   0  0  0  0  0  3  0  0  0  0  0  0
  190.0780  177.3800  137.0390 N   0  0  0  0  0  0  0  0  0  0  0  0
  189.8160  177.8830  139.4190 C   0  0  0  0  0  3  0  0  0  0  0  0
  189.5150  176.9990  134.6960 N   0  0  0  0  0  1  0  0  0  0  0  0
  187.8710  177.5010  136.4940 C   0  0  0  0  0  0  0  0  0  0  0  0
  187.4910  178.2620  140.1330 C   0  0  1  0  0  3  0  0  0  0  0  0
  1  8  1  1  0  0  0
  1  6  1  0  0  0  0
  2 17  1  6  0  0  0
  2  7  1  0  0  0  0
  2  5  1  0  0  0  0
  3  1  1  0  0  0  0
  4  6  1  0  0  0  0
  5  4  1  0  0  0  0
  7  3  1  6  0  0  0
  7  1  1  0  0  0  0
  8  9  1  6  0  0  0
  8 10  1  0  0  0  0
 10 12  1  0  0  0  0
 12 13  1  0  0  0  0
 12 11  1  1  0  0  0
 13 15  1  0  0  0  0
 14 13  2  0  0  0  0
 16 17  1  0  0  0  0
 18 27  1  0  0  0  0
 19 25  1  0  0  0  0
 20 28  1  0  0  0  0
 21 27  2  0  0  0  0
 21 24  1  0  0  0  0
 22 19  1  0  0  0  0
 22 20  2  0  0  0  0
 24 19  2  0  0  0  0
 25 23  2  0  0  0  0
 26 21  1  0  0  0  0
 27 22  1  0  0  0  0
 28 23  1  0  0  0  0
 28 17  1  6  0  0  0
M  END
>  <MODEL>
6

>  <REMARK>
 VINA RESULT:      -7.5      3.665      7.171
  Name = 
  6 active torsions:
  status: ('A' for Active; 'I' for Inactive)
    1  A    between atoms: C_1  and  C_2
    2  A    between atoms: C_2  and  C_3
    3  A    between atoms: C_3  and  C_11
    4  A    between atoms: C_6  and  C_11
    5  A    between atoms: C_16  and  N_20
    6  A    between atoms: N_20  and  C_25
                            x       y       z     vdW  Elec       q    Type
                         _______ _______ _______ _____ _____    ______ ____

>  <TORSDO>
F 6

$$$$
=
 OpenBabel10262420513D

 28 31  0  0  1  0  0  0  0  0999 V2000
  188.9470  176.5130  137.1540 C   0  0  2  0  0  0  0  0  0  0  0  0
  189.2580  177.5200  139.2790 C   0  0  1  0  0  3  0  0  0  0  0  0
  189.8680  175.3800  137.5320 C   0  0  0  0  0  2  0  0  0  0  0  0
  188.6850  178.9860  137.2310 C   0  0  0  0  0  2  0  0  0  0  0  0
  189.2060  178.9520  138.6940 C   0  0  0  0  0  2  0  0  0  0  0  0
  189.1990  177.8020  136.3750 C   0  0  0  0  0  2  0  0  0  0  0  0
  190.0270  176.6910  138.2600 C   0  0  1  0  0  3  0  0  0  0  0  0
  187.4640  176.2460  137.5640 C   0  0  2  0  0  3  0  0  0  0  0  0
  187.0670  174.9170  137.3620 O   0  0  0  0  0  1  0  0  0  0  0  0
  186.4850  177.1970  136.8780 C   0  0  0  0  0  2  0  0  0  0  0  0
  184.0530  176.9980  136.3730 C   0  0  0  0  0  1  0  0  0  0  0  0
  185.0850  177.1170  137.4790 C   0  0  2  0  0  3  0  0  0  0  0  0
  184.7760  178.2970  138.3440 C   0  0  0  0  0  0  0  0  0  0  0  0
  183.4810  178.7980  138.3720 O   0  0  0  0  0  0  0  0  0  0  0  0
  185.6760  178.8660  139.0180 O   0  0  0  0  0  1  0  0  0  0  0  0
  191.3730  177.3570  140.6590 C   0  0  0  0  0  1  0  0  0  0  0  0
  189.9200  177.5030  140.5870 N   0  0  0  0  0  0  0  0  0  0  0  0
  190.6180  177.1270  146.1250 C   0  0  0  0  0  1  0  0  0  0  0  0
  187.6050  177.6920  144.1240 C   0  0  0  0  0  0  0  0  0  0  0  0
  189.7540  177.3830  143.0550 C   0  0  0  0  0  3  0  0  0  0  0  0
  188.0660  177.5090  146.1920 C   0  0  0  0  0  0  0  0  0  0  0  0
  188.9540  177.4540  144.1940 C   0  0  0  0  0  0  0  0  0  0  0  0
  187.7410  177.8110  141.7360 C   0  0  0  0  0  3  0  0  0  0  0  0
  187.0340  177.7290  145.3440 N   0  0  0  0  0  2  0  0  0  0  0  0
  186.9620  177.8770  142.9030 C   0  0  0  0  0  3  0  0  0  0  0  0
  187.9140  177.4810  147.6060 N   0  0  0  0  0  1  0  0  0  0  0  0
  189.2690  177.3380  145.5240 C   0  0  0  0  0  0  0  0  0  0  0  0
  189.1380  177.5630  141.7960 C   0  0  0  0  0  0  0  0  0  0  0  0
  1  3  1  0  0  0  0
  1  8  1  1  0  0  0
  1  7  1  0  0  0  0
  2 17  1  1  0  0  0
  4  5  1  0  0  0  0
  5  2  1  0  0  0  0
  6  1  1  0  0  0  0
  6  4  1  0  0  0  0
  7  3  1  1  0  0  0
  7  2  1  0  0  0  0
  8  9  1  6  0  0  0
 10 12  1  0  0  0  0
 10  8  1  0  0  0  0
 12 11  1  6  0  0  0
 12 13  1  0  0  0  0
 13 14  2  0  0  0  0
 13 15  1  0  0  0  0
 17 16  1  0  0  0  0
 17 28  1  0  0  0  0
 19 22  2  0  0  0  0
 19 24  1  0  0  0  0
 20 22  1  0  0  0  0
 21 26  1  0  0  0  0
 22 27  1  0  0  0  0
 23 28  1  0  0  0  0
 23 25  2  0  0  0  0
 24 21  1  0  0  0  0
 25 19  1  0  0  0  0
 27 18  1  0  0  0  0
 27 21  2  0  0  0  0
 28 20  2  0  0  0  0
M  END
>  <MODEL>
7

>  <REMARK>
 VINA RESULT:      -7.2      2.517      5.375
  Name = 
  6 active torsions:
  status: ('A' for Active; 'I' for Inactive)
    1  A    between atoms: C_1  and  C_2
    2  A    between atoms: C_2  and  C_3
    3  A    between atoms: C_3  and  C_11
    4  A    between atoms: C_6  and  C_11
    5  A    between atoms: C_16  and  N_20
    6  A    between atoms: N_20  and  C_25
                            x       y       z     vdW  Elec       q    Type
                         _______ _______ _______ _____ _____    ______ ____

>  <TORSDO>
F 6

$$$$
=
 OpenBabel10262420513D

 28 31  0  0  1  0  0  0  0  0999 V2000
  189.2280  176.4500  137.2660 C   0  0  2  0  0  0  0  0  0  0  0  0
  188.8310  177.4570  139.3780 C   0  0  1  0  0  3  0  0  0  0  0  0
  189.9640  175.3110  137.9240 C   0  0  0  0  0  2  0  0  0  0  0  0
  188.9760  178.9260  137.2580 C   0  0  0  0  0  2  0  0  0  0  0  0
  188.9860  178.8880  138.8100 C   0  0  0  0  0  2  0  0  0  0  0  0
  189.7330  177.7370  136.6160 C   0  0  0  0  0  2  0  0  0  0  0  0
  189.8860  176.6210  138.6670 C   0  0  1  0  0  3  0  0  0  0  0  0
  187.6910  176.1960  137.1640 C   0  0  2  0  0  3  0  0  0  0  0  0
  187.3420  174.8500  137.3380 O   0  0  0  0  0  1  0  0  0  0  0  0
  187.0920  176.7310  135.8650 C   0  0  0  0  0  2  0  0  0  0  0  0
  185.5630  177.7270  137.5620 C   0  0  0  0  0  1  0  0  0  0  0  0
  185.7480  177.4170  136.0880 C   0  0  2  0  0  3  0  0  0  0  0  0
  184.6050  176.5890  135.5910 C   0  0  0  0  0  0  0  0  0  0  0  0
  184.8600  175.3400  135.0410 O   0  0  0  0  0  0  0  0  0  0  0  0
  183.4210  177.0200  135.6310 O   0  0  0  0  0  1  0  0  0  0  0  0
  190.3050  176.9940  141.3800 C   0  0  0  0  0  1  0  0  0  0  0  0
  189.0250  177.4350  140.8300 N   0  0  0  0  0  0  0  0  0  0  0  0
  187.8020  177.3950  146.2890 C   0  0  0  0  0  1  0  0  0  0  0  0
  185.8280  178.4720  143.4000 C   0  0  0  0  0  0  0  0  0  0  0  0
  188.0550  177.5750  143.1050 C   0  0  0  0  0  3  0  0  0  0  0  0
  185.5430  178.3690  145.5050 C   0  0  0  0  0  0  0  0  0  0  0  0
  186.9790  177.9320  143.9150 C   0  0  0  0  0  0  0  0  0  0  0  0
  186.7440  178.3460  141.1920 C   0  0  0  0  0  3  0  0  0  0  0  0
  184.9250  178.7490  144.3620 N   0  0  0  0  0  2  0  0  0  0  0  0
  185.6760  178.6950  142.0350 C   0  0  0  0  0  3  0  0  0  0  0  0
  184.9470  178.5020  146.7900 N   0  0  0  0  0  1  0  0  0  0  0  0
  186.8140  177.8630  145.2740 C   0  0  0  0  0  0  0  0  0  0  0  0
  187.9390  177.7830  141.7120 C   0  0  0  0  0  0  0  0  0  0  0  0
  1  8  1  1  0  0  0
  1  3  1  0  0  0  0
  1  7  1  0  0  0  0
  2 17  1  1  0  0  0
  4  5  1  0  0  0  0
  5  2  1  0  0  0  0
  6  4  1  0  0  0  0
  6  1  1  0  0  0  0
  7  3  1  1  0  0  0
  7  2  1  0  0  0  0
  8  9  1  6  0  0  0
 10 12  1  0  0  0  0
 10  8  1  0  0  0  0
 12 11  1  1  0  0  0
 13 15  1  0  0  0  0
 13 12  1  0  0  0  0
 14 13  2  0  0  0  0
 17 16  1  0  0  0  0
 17 28  1  0  0  0  0
 19 22  2  0  0  0  0
 19 24  1  0  0  0  0
 20 22  1  0  0  0  0
 21 26  1  0  0  0  0
 22 27  1  0  0  0  0
 23 28  1  0  0  0  0
 23 25  2  0  0  0  0
 24 21  1  0  0  0  0
 25 19  1  0  0  0  0
 27 21  2  0  0  0  0
 27 18  1  0  0  0  0
 28 20  2  0  0  0  0
M  END
>  <MODEL>
8

>  <REMARK>
 VINA RESULT:      -7.2      2.784      4.980
  Name = 
  6 active torsions:
  status: ('A' for Active; 'I' for Inactive)
    1  A    between atoms: C_1  and  C_2
    2  A    between atoms: C_2  and  C_3
    3  A    between atoms: C_3  and  C_11
    4  A    between atoms: C_6  and  C_11
    5  A    between atoms: C_16  and  N_20
    6  A    between atoms: N_20  and  C_25
                            x       y       z     vdW  Elec       q    Type
                         _______ _______ _______ _____ _____    ______ ____

>  <TORSDO>
F 6

$$$$
=
 OpenBabel10262420513D

 28 31  0  0  1  0  0  0  0  0999 V2000
  190.2400  177.7330  144.1800 C   0  0  2  0  0  0  0  0  0  0  0  0
  188.9650  177.4820  142.1950 C   0  0  1  0  0  3  0  0  0  0  0  0
  190.2020  179.2340  144.0400 C   0  0  0  0  0  2  0  0  0  0  0  0
  190.5980  175.6180  142.9210 C   0  0  0  0  0  2  0  0  0  0  0  0
  189.7270  176.2030  141.7750 C   0  0  0  0  0  2  0  0  0  0  0  0
  191.2950  176.7080  143.7730 C   0  0  0  0  0  2  0  0  0  0  0  0
  190.0170  178.4060  142.7940 C   0  0  1  0  0  3  0  0  0  0  0  0
  189.0150  177.1700  144.9670 C   0  0  2  0  0  3  0  0  0  0  0  0
  188.0340  178.1380  145.2260 O   0  0  0  0  0  1  0  0  0  0  0  0
  189.4200  176.4730  146.2640 C   0  0  0  0  0  2  0  0  0  0  0  0
  191.4220  176.7480  147.7230 C   0  0  0  0  0  1  0  0  0  0  0  0
  190.1530  177.4100  147.2190 C   0  0  2  0  0  3  0  0  0  0  0  0
  189.2960  177.8200  148.3740 C   0  0  0  0  0  0  0  0  0  0  0  0
  187.9960  177.3380  148.4590 O   0  0  0  0  0  0  0  0  0  0  0  0
  189.7190  178.6210  149.2500 O   0  0  0  0  0  1  0  0  0  0  0  0
  189.0990  178.5620  139.9110 C   0  0  0  0  0  1  0  0  0  0  0  0
  188.3010  178.1070  141.0480 N   0  0  0  0  0  0  0  0  0  0  0  0
  184.1470  178.7120  144.7460 C   0  0  0  0  0  1  0  0  0  0  0  0
  184.1230  178.7780  141.0860 C   0  0  0  0  0  0  0  0  0  0  0  0
  186.1820  178.3990  142.2980 C   0  0  0  0  0  3  0  0  0  0  0  0
  182.6810  178.9710  142.6370 C   0  0  0  0  0  0  0  0  0  0  0  0
  184.8070  178.6230  142.2640 C   0  0  1  0  0  3  0  0  0  0  0  0
  186.1580  178.4970  139.8550 C   0  0  0  0  0  3  0  0  0  0  0  0
  182.8080  178.9930  141.2890 N   0  0  0  0  0  0  0  0  0  0  0  0
  184.7710  178.7210  139.8550 C   0  0  0  0  0  3  0  0  0  0  0  0
  181.4400  179.1770  143.3010 N   0  0  0  0  0  1  0  0  0  0  0  0
  183.8910  178.7500  143.2770 C   0  0  0  0  0  0  0  0  0  0  0  0
  186.8770  178.3330  141.0690 C   0  0  0  0  0  0  0  0  0  0  0  0
  1  8  1  1  0  0  0
  2 17  1  6  0  0  0
  2  7  1  0  0  0  0
  3  1  1  0  0  0  0
  4  6  1  0  0  0  0
  5  2  1  0  0  0  0
  5  4  1  0  0  0  0
  6  1  1  0  0  0  0
  7  3  1  1  0  0  0
  7  1  1  0  0  0  0
  8  9  1  1  0  0  0
  8 10  1  0  0  0  0
 10 12  1  0  0  0  0
 12 11  1  1  0  0  0
 12 13  1  0  0  0  0
 13 14  2  0  0  0  0
 13 15  1  0  0  0  0
 16 17  1  0  0  0  0
 17 28  1  0  0  0  0
 19 24  2  0  0  0  0
 19 22  1  0  0  0  0
 21 27  2  0  0  0  0
 21 26  1  0  0  0  0
 22 20  1  1  0  0  0
 22 27  1  0  0  0  0
 23 28  1  0  0  0  0
 24 21  1  0  0  0  0
 25 23  2  0  0  0  0
 25 19  1  0  0  0  0
 27 18  1  0  0  0  0
 28 20  2  0  0  0  0
M  END
>  <MODEL>
9

>  <REMARK>
 VINA RESULT:      -7.2      2.645      5.484
  Name = 
  6 active torsions:
  status: ('A' for Active; 'I' for Inactive)
    1  A    between atoms: C_1  and  C_2
    2  A    between atoms: C_2  and  C_3
    3  A    between atoms: C_3  and  C_11
    4  A    between atoms: C_6  and  C_11
    5  A    between atoms: C_16  and  N_20
    6  A    between atoms: N_20  and  C_25
                            x       y       z     vdW  Elec       q    Type
                         _______ _______ _______ _____ _____    ______ ____

>  <TORSDO>
F 6

$$$$
