=
 OpenBabel10262421363D

 32 36  0  0  0  0  0  0  0  0999 V2000
  188.4040  177.5400  137.4330 N   0  0  0  0  0  0  0  0  0  0  0  0
  188.4520  177.7740  142.5330 C   0  0  0  0  0  0  0  0  0  0  0  0
  183.9690  179.3940  143.5680 N   0  0  0  0  0  2  0  0  0  0  0  0
  183.9310  178.5830  144.7800 C   0  0  0  0  0  2  0  0  0  0  0  0
  190.0120  177.3280  144.4410 C   0  0  0  0  0  0  0  0  0  0  0  0
  190.2110  177.2390  145.8270 C   0  0  0  0  0  0  0  0  0  0  0  0
  189.1280  177.6640  140.1970 C   0  0  0  0  0  0  0  0  0  0  0  0
  186.8790  178.2140  140.7650 N   0  0  0  0  0  0  0  0  0  0  0  0
  187.4590  178.1710  138.3630 C   0  0  0  0  0  2  0  0  0  0  0  0
  184.7280  178.6570  142.5610 C   0  0  0  0  0  2  0  0  0  0  0  0
  187.1470  178.1190  142.0980 C   0  0  0  0  0  0  0  0  0  0  0  0
  186.1320  178.3650  143.0310 C   0  0  0  0  0  0  0  0  0  0  0  0
  187.6850  177.9060  144.8520 C   0  0  0  0  0  0  0  0  0  0  0  0
  189.7940  177.8630  137.7920 C   0  0  0  0  0  2  0  0  0  0  0  0
  187.8190  177.9820  139.8140 C   0  0  0  0  0  0  0  0  0  0  0  0
  190.1770  177.3420  139.1800 C   0  0  0  0  0  2  0  0  0  0  0  0
  185.3160  178.5560  145.4170 C   0  0  0  0  0  2  0  0  0  0  0  0
  186.3950  178.2410  144.4090 C   0  0  0  0  0  0  0  0  0  0  0  0
  187.9270  177.8140  146.1870 N   0  0  0  0  0  0  0  0  0  0  0  0
  189.4260  177.5470  141.5510 C   0  0  0  0  0  3  0  0  0  0  0  0
  191.0930  177.0780  143.5980 O   0  0  0  0  0  1  0  0  0  0  0  0
  188.7320  177.6650  143.9240 C   0  0  0  0  0  0  0  0  0  0  0  0
  189.1450  177.4930  146.6950 C   0  0  0  0  0  0  0  0  0  0  0  0
  189.3380  177.4150  148.0770 O   0  0  0  0  0  0  0  0  0  0  0  0
  188.6170  178.2330  148.9860 C   0  0  0  0  0  1  0  0  0  0  0  0
  191.6500  175.4170  146.6770 C   0  0  0  0  0  1  0  0  0  0  0  0
  191.5630  176.9020  146.3770 C   0  0  0  0  0  2  0  0  0  0  0  0
  188.1900  176.0950  137.4210 C   0  0  0  0  0  2  0  0  0  0  0  0
  189.1190  175.4420  136.4160 C   0  0  0  0  0  2  0  0  0  0  0  0
  189.6350  174.1600  136.9660 C   0  0  0  0  0  0  0  0  0  0  0  0
  188.9110  172.9880  136.7930 O   0  0  0  0  0  0  0  0  0  0  0  0
  190.7110  174.1430  137.6180 O   0  0  0  0  0  1  0  0  0  0  0  0
  1 14  1  0  0  0  0
  1  9  1  0  0  0  0
  2 22  1  0  0  0  0
  3  4  1  0  0  0  0
  4 17  1  0  0  0  0
  5  6  2  0  0  0  0
  6 27  1  0  0  0  0
  6 23  1  0  0  0  0
  7 20  1  0  0  0  0
  8 11  2  0  0  0  0
  9 15  1  0  0  0  0
 10 12  1  0  0  0  0
 10  3  1  0  0  0  0
 11  2  1  0  0  0  0
 11 12  1  0  0  0  0
 12 18  2  0  0  0  0
 13 19  1  0  0  0  0
 14 16  1  0  0  0  0
 15  7  2  0  0  0  0
 15  8  1  0  0  0  0
 16  7  1  0  0  0  0
 18 13  1  0  0  0  0
 18 17  1  0  0  0  0
 19 23  2  0  0  0  0
 20  2  2  0  0  0  0
 21  5  1  0  0  0  0
 22  5  1  0  0  0  0
 22 13  2  0  0  0  0
 23 24  1  0  0  0  0
 24 25  1  0  0  0  0
 27 26  1  0  0  0  0
 28  1  1  0  0  0  0
 29 30  1  0  0  0  0
 29 28  1  0  0  0  0
 30 32  1  0  0  0  0
 31 30  2  0  0  0  0
M  END
>  <MODEL>
1

>  <REMARK>
 VINA RESULT:      -9.2      0.000      0.000
  Name = 
  5 active torsions:
  status: ('A' for Active; 'I' for Inactive)
    1  A    between atoms: C_1  and  C_10
    2  A    between atoms: N_2  and  C_24
    3  A    between atoms: C_7  and  C_22
    4  A    between atoms: C_10  and  C_24
    5  A    between atoms: O_11  and  C_32
                            x       y       z     vdW  Elec       q    Type
                         _______ _______ _______ _____ _____    ______ ____

>  <TORSDO>
F 5

$$$$
=
 OpenBabel10262421363D

 32 36  0  0  0  0  0  0  0  0999 V2000
  188.3960  177.5240  137.3010 N   0  0  0  0  0  0  0  0  0  0  0  0
  188.4520  177.7960  142.3990 C   0  0  0  0  0  0  0  0  0  0  0  0
  183.9480  179.3560  143.4330 N   0  0  0  0  0  2  0  0  0  0  0  0
  183.9250  178.5540  144.6500 C   0  0  0  0  0  2  0  0  0  0  0  0
  190.0240  177.3870  144.3050 C   0  0  0  0  0  0  0  0  0  0  0  0
  190.2280  177.3120  145.6920 C   0  0  0  0  0  0  0  0  0  0  0  0
  189.1250  177.6790  140.0610 C   0  0  0  0  0  0  0  0  0  0  0  0
  186.8690  178.1990  140.6310 N   0  0  0  0  0  0  0  0  0  0  0  0
  187.4430  178.1480  138.2280 C   0  0  0  0  0  2  0  0  0  0  0  0
  184.7160  178.6240  142.4290 C   0  0  0  0  0  2  0  0  0  0  0  0
  187.1420  178.1180  141.9650 C   0  0  0  0  0  0  0  0  0  0  0  0
  186.1250  178.3560  142.8980 C   0  0  0  0  0  0  0  0  0  0  0  0
  187.6900  177.9330  144.7180 C   0  0  0  0  0  0  0  0  0  0  0  0
  189.7820  177.8700  137.6530 C   0  0  0  0  0  2  0  0  0  0  0  0
  187.8100  177.9750  139.6790 C   0  0  0  0  0  0  0  0  0  0  0  0
  190.1760  177.3650  139.0450 C   0  0  0  0  0  2  0  0  0  0  0  0
  185.3120  178.5530  145.2850 C   0  0  0  0  0  2  0  0  0  0  0  0
  186.3940  178.2460  144.2760 C   0  0  0  0  0  0  0  0  0  0  0  0
  187.9360  177.8540  146.0540 N   0  0  0  0  0  0  0  0  0  0  0  0
  189.4280  177.5760  141.4160 C   0  0  0  0  0  3  0  0  0  0  0  0
  191.1060  177.1470  143.4620 O   0  0  0  0  0  1  0  0  0  0  0  0
  188.7370  177.7010  143.7890 C   0  0  0  0  0  0  0  0  0  0  0  0
  189.1600  177.5560  146.5610 C   0  0  0  0  0  0  0  0  0  0  0  0
  189.3570  177.4900  147.9430 O   0  0  0  0  0  0  0  0  0  0  0  0
  188.3800  177.9470  148.8660 C   0  0  0  0  0  1  0  0  0  0  0  0
  191.7210  175.5060  146.4830 C   0  0  0  0  0  1  0  0  0  0  0  0
  191.5850  176.9980  146.2410 C   0  0  0  0  0  2  0  0  0  0  0  0
  188.2030  176.0760  137.2990 C   0  0  0  0  0  2  0  0  0  0  0  0
  187.0850  175.7040  136.3440 C   0  0  0  0  0  2  0  0  0  0  0  0
  186.1060  174.8230  137.0340 C   0  0  0  0  0  0  0  0  0  0  0  0
  184.8420  175.3020  137.3520 O   0  0  0  0  0  0  0  0  0  0  0  0
  186.4330  173.6530  137.3610 O   0  0  0  0  0  1  0  0  0  0  0  0
  1 14  1  0  0  0  0
  1  9  1  0  0  0  0
  2 22  1  0  0  0  0
  3  4  1  0  0  0  0
  4 17  1  0  0  0  0
  5  6  2  0  0  0  0
  6 27  1  0  0  0  0
  6 23  1  0  0  0  0
  7 20  1  0  0  0  0
  8 11  2  0  0  0  0
  9 15  1  0  0  0  0
 10 12  1  0  0  0  0
 10  3  1  0  0  0  0
 11  2  1  0  0  0  0
 11 12  1  0  0  0  0
 12 18  2  0  0  0  0
 13 19  1  0  0  0  0
 14 16  1  0  0  0  0
 15  7  2  0  0  0  0
 15  8  1  0  0  0  0
 16  7  1  0  0  0  0
 18 13  1  0  0  0  0
 18 17  1  0  0  0  0
 19 23  2  0  0  0  0
 20  2  2  0  0  0  0
 21  5  1  0  0  0  0
 22  5  1  0  0  0  0
 22 13  2  0  0  0  0
 23 24  1  0  0  0  0
 24 25  1  0  0  0  0
 27 26  1  0  0  0  0
 28  1  1  0  0  0  0
 29 30  1  0  0  0  0
 29 28  1  0  0  0  0
 30 31  2  0  0  0  0
 30 32  1  0  0  0  0
M  END
>  <MODEL>
2

>  <REMARK>
 VINA RESULT:      -8.9      1.097      1.354
  Name = 
  5 active torsions:
  status: ('A' for Active; 'I' for Inactive)
    1  A    between atoms: C_1  and  C_10
    2  A    between atoms: N_2  and  C_24
    3  A    between atoms: C_7  and  C_22
    4  A    between atoms: C_10  and  C_24
    5  A    between atoms: O_11  and  C_32
                            x       y       z     vdW  Elec       q    Type
                         _______ _______ _______ _____ _____    ______ ____

>  <TORSDO>
F 5

$$$$
=
 OpenBabel10262421363D

 32 36  0  0  0  0  0  0  0  0999 V2000
  180.2800  178.9250  141.9830 N   0  0  0  0  0  0  0  0  0  0  0  0
  185.3540  178.4660  142.3140 C   0  0  0  0  0  0  0  0  0  0  0  0
  186.1160  178.5020  147.1310 N   0  0  0  0  0  2  0  0  0  0  0  0
  187.2200  177.5600  146.9870 C   0  0  0  0  0  2  0  0  0  0  0  0
  187.3450  178.2560  140.8080 C   0  0  0  0  0  0  0  0  0  0  0  0
  188.7250  178.0430  140.6740 C   0  0  0  0  0  0  0  0  0  0  0  0
  183.0980  178.8840  141.4990 C   0  0  0  0  0  0  0  0  0  0  0  0
  183.5000  178.6480  143.8370 N   0  0  0  0  0  0  0  0  0  0  0  0
  181.1770  179.1090  143.1310 C   0  0  0  0  0  2  0  0  0  0  0  0
  185.1130  178.1730  146.1220 C   0  0  0  0  0  2  0  0  0  0  0  0
  184.8340  178.4570  143.6320 C   0  0  0  0  0  0  0  0  0  0  0  0
  185.6840  178.2560  144.7270 C   0  0  0  0  0  0  0  0  0  0  0  0
  187.5860  178.0430  143.2190 C   0  0  0  0  0  0  0  0  0  0  0  0
  180.8070  179.6000  140.7870 C   0  0  0  0  0  2  0  0  0  0  0  0
  182.6260  178.8420  142.8170 C   0  0  0  0  0  0  0  0  0  0  0  0
  182.1610  179.0350  140.3430 C   0  0  0  0  0  2  0  0  0  0  0  0
  187.9850  177.8660  145.7030 C   0  0  0  0  0  2  0  0  0  0  0  0
  187.0580  178.0310  144.5210 C   0  0  0  0  0  0  0  0  0  0  0  0
  188.9210  177.8470  143.0410 N   0  0  0  0  0  0  0  0  0  0  0  0
  184.4540  178.6790  141.2600 C   0  0  0  0  0  3  0  0  0  0  0  0
  186.5900  178.4600  139.6550 O   0  0  0  0  0  1  0  0  0  0  0  0
  186.7450  178.2580  142.0970 C   0  0  0  0  0  0  0  0  0  0  0  0
  189.5070  177.8430  141.8160 C   0  0  0  0  0  0  0  0  0  0  0  0
  190.8840  177.6390  141.6910 O   0  0  0  0  0  0  0  0  0  0  0  0
  191.6780  177.1740  142.7720 C   0  0  0  0  0  1  0  0  0  0  0  0
  189.3380  176.6670  138.7130 C   0  0  0  0  0  1  0  0  0  0  0  0
  189.3640  178.0570  139.3200 C   0  0  0  0  0  2  0  0  0  0  0  0
  180.0860  177.4990  141.7350 C   0  0  0  0  0  2  0  0  0  0  0  0
  179.0110  177.2970  140.6840 C   0  0  0  0  0  2  0  0  0  0  0  0
  179.4050  176.1950  139.7660 C   0  0  0  0  0  0  0  0  0  0  0  0
  179.1060  174.8790  140.0920 O   0  0  0  0  0  1  0  0  0  0  0  0
  180.0410  176.4510  138.7110 O   0  0  0  0  0  0  0  0  0  0  0  0
  1  9  1  0  0  0  0
  2 11  1  0  0  0  0
  4  3  1  0  0  0  0
  5 22  1  0  0  0  0
  6  5  2  0  0  0  0
  6 23  1  0  0  0  0
  7 15  1  0  0  0  0
 10  3  1  0  0  0  0
 11  8  1  0  0  0  0
 11 12  2  0  0  0  0
 12 10  1  0  0  0  0
 13 18  2  0  0  0  0
 14  1  1  0  0  0  0
 15  9  1  0  0  0  0
 15  8  2  0  0  0  0
 16 14  1  0  0  0  0
 16  7  1  0  0  0  0
 17  4  1  0  0  0  0
 18 12  1  0  0  0  0
 18 17  1  0  0  0  0
 19 13  1  0  0  0  0
 20  7  2  0  0  0  0
 20  2  1  0  0  0  0
 21  5  1  0  0  0  0
 22  2  2  0  0  0  0
 22 13  1  0  0  0  0
 23 19  2  0  0  0  0
 24 23  1  0  0  0  0
 24 25  1  0  0  0  0
 26 27  1  0  0  0  0
 27  6  1  0  0  0  0
 28  1  1  0  0  0  0
 29 28  1  0  0  0  0
 30 31  1  0  0  0  0
 30 29  1  0  0  0  0
 32 30  2  0  0  0  0
M  END
>  <MODEL>
3

>  <REMARK>
 VINA RESULT:      -8.4      3.763      6.669
  Name = 
  5 active torsions:
  status: ('A' for Active; 'I' for Inactive)
    1  A    between atoms: C_1  and  C_10
    2  A    between atoms: N_2  and  C_24
    3  A    between atoms: C_7  and  C_22
    4  A    between atoms: C_10  and  C_24
    5  A    between atoms: O_11  and  C_32
                            x       y       z     vdW  Elec       q    Type
                         _______ _______ _______ _____ _____    ______ ____

>  <TORSDO>
F 5

$$$$
=
 OpenBabel10262421363D

 32 36  0  0  0  0  0  0  0  0999 V2000
  181.7610  179.8370  138.4180 N   0  0  0  0  0  0  0  0  0  0  0  0
  185.3900  178.4200  141.7190 C   0  0  0  0  0  0  0  0  0  0  0  0
  189.1470  177.3750  138.7890 N   0  0  0  0  0  2  0  0  0  0  0  0
  190.0900  177.8770  139.7810 C   0  0  0  0  0  2  0  0  0  0  0  0
  185.7100  178.1440  144.1870 C   0  0  0  0  0  0  0  0  0  0  0  0
  186.5750  177.8740  145.2580 C   0  0  0  0  0  0  0  0  0  0  0  0
  183.2450  178.9560  140.6980 C   0  0  0  0  0  0  0  0  0  0  0  0
  185.1790  178.6720  139.3340 N   0  0  0  0  0  0  0  0  0  0  0  0
  183.0510  179.1740  138.1840 C   0  0  0  0  0  2  0  0  0  0  0  0
  187.9360  178.1880  138.8710 C   0  0  0  0  0  2  0  0  0  0  0  0
  185.9600  178.4080  140.4210 C   0  0  0  0  0  0  0  0  0  0  0  0
  187.3200  178.1250  140.2480 C   0  0  0  0  0  0  0  0  0  0  0  0
  187.5830  177.8830  142.6580 C   0  0  0  0  0  0  0  0  0  0  0  0
  181.0410  179.2130  139.5390 C   0  0  0  0  0  2  0  0  0  0  0  0
  183.8570  178.9580  139.4380 C   0  0  0  0  0  0  0  0  0  0  0  0
  181.8050  179.3250  140.8620 C   0  0  0  0  0  2  0  0  0  0  0  0
  189.5940  177.5230  141.1790 C   0  0  0  0  0  2  0  0  0  0  0  0
  188.1380  177.8790  141.3670 C   0  0  0  0  0  0  0  0  0  0  0  0
  188.3830  177.6200  143.7260 N   0  0  0  0  0  0  0  0  0  0  0  0
  184.0210  178.7040  141.8260 C   0  0  0  0  0  3  0  0  0  0  0  0
  184.3690  178.3990  144.4670 O   0  0  0  0  0  1  0  0  0  0  0  0
  186.2040  178.1550  142.8550 C   0  0  0  0  0  0  0  0  0  0  0  0
  187.9240  177.6060  145.0040 C   0  0  0  0  0  0  0  0  0  0  0  0
  188.7910  177.3280  146.0650 O   0  0  0  0  0  0  0  0  0  0  0  0
  190.1940  177.2130  145.8810 C   0  0  0  0  0  1  0  0  0  0  0  0
  186.0650  179.2410  147.2540 C   0  0  0  0  0  1  0  0  0  0  0  0
  186.0560  177.8440  146.6620 C   0  0  0  0  0  2  0  0  0  0  0  0
  181.9790  181.2600  138.6650 C   0  0  0  0  0  2  0  0  0  0  0  0
  180.7130  182.0390  138.3610 C   0  0  0  0  0  2  0  0  0  0  0  0
  180.9250  182.8970  137.1650 C   0  0  0  0  0  0  0  0  0  0  0  0
  180.6320  182.4080  135.8980 O   0  0  0  0  0  0  0  0  0  0  0  0
  181.4020  184.0540  137.2960 O   0  0  0  0  0  1  0  0  0  0  0  0
  1 28  1  0  0  0  0
  1 14  1  0  0  0  0
  2 20  2  0  0  0  0
  2 22  1  0  0  0  0
  3 10  1  0  0  0  0
  3  4  1  0  0  0  0
  4 17  1  0  0  0  0
  5 21  1  0  0  0  0
  5  6  2  0  0  0  0
  6 27  1  0  0  0  0
  7 16  1  0  0  0  0
  7 20  1  0  0  0  0
  8 15  1  0  0  0  0
  8 11  2  0  0  0  0
  9  1  1  0  0  0  0
  9 15  1  0  0  0  0
 10 12  1  0  0  0  0
 11  2  1  0  0  0  0
 12 11  1  0  0  0  0
 12 18  2  0  0  0  0
 13 22  2  0  0  0  0
 13 19  1  0  0  0  0
 14 16  1  0  0  0  0
 15  7  2  0  0  0  0
 17 18  1  0  0  0  0
 18 13  1  0  0  0  0
 19 23  2  0  0  0  0
 22  5  1  0  0  0  0
 23  6  1  0  0  0  0
 23 24  1  0  0  0  0
 25 24  1  0  0  0  0
 27 26  1  0  0  0  0
 29 28  1  0  0  0  0
 30 32  1  0  0  0  0
 30 29  1  0  0  0  0
 31 30  2  0  0  0  0
M  END
>  <MODEL>
4

>  <REMARK>
 VINA RESULT:      -8.0      4.515      6.644
  Name = 
  5 active torsions:
  status: ('A' for Active; 'I' for Inactive)
    1  A    between atoms: C_1  and  C_10
    2  A    between atoms: N_2  and  C_24
    3  A    between atoms: C_7  and  C_22
    4  A    between atoms: C_10  and  C_24
    5  A    between atoms: O_11  and  C_32
                            x       y       z     vdW  Elec       q    Type
                         _______ _______ _______ _____ _____    ______ ____

>  <TORSDO>
F 5

$$$$
=
 OpenBabel10262421363D

 32 36  0  0  0  0  0  0  0  0999 V2000
  189.9580  177.4320  146.8530 N   0  0  0  0  0  0  0  0  0  0  0  0
  186.0120  178.3490  143.7450 C   0  0  0  0  0  0  0  0  0  0  0  0
  188.1450  178.6280  139.3680 N   0  0  0  0  0  2  0  0  0  0  0  0
  186.9820  178.0140  138.7360 C   0  0  0  0  0  2  0  0  0  0  0  0
  183.5310  178.6650  143.8690 C   0  0  0  0  0  0  0  0  0  0  0  0
  182.3110  178.8280  143.1940 C   0  0  0  0  0  0  0  0  0  0  0  0
  187.4340  178.1410  145.7110 C   0  0  0  0  0  0  0  0  0  0  0  0
  188.3890  178.0410  143.5290 N   0  0  0  0  0  0  0  0  0  0  0  0
  189.9360  177.8580  145.4480 C   0  0  0  0  0  2  0  0  0  0  0  0
  188.2990  178.0340  140.6930 C   0  0  0  0  0  2  0  0  0  0  0  0
  187.1710  178.2120  142.9410 C   0  0  0  0  0  0  0  0  0  0  0  0
  187.0730  178.2550  141.5450 C   0  0  0  0  0  0  0  0  0  0  0  0
  184.6600  178.5460  141.7180 C   0  0  0  0  0  0  0  0  0  0  0  0
  189.0060  178.2130  147.6580 C   0  0  0  0  0  2  0  0  0  0  0  0
  188.5480  177.9860  144.8760 C   0  0  0  0  0  0  0  0  0  0  0  0
  187.5570  178.0260  147.1970 C   0  0  0  0  0  2  0  0  0  0  0  0
  185.7130  178.5030  139.4260 C   0  0  0  0  0  2  0  0  0  0  0  0
  185.8150  178.4040  140.9310 C   0  0  0  0  0  0  0  0  0  0  0  0
  183.4550  178.7120  141.1070 N   0  0  0  0  0  0  0  0  0  0  0  0
  186.1770  178.3040  145.1370 C   0  0  0  0  0  3  0  0  0  0  0  0
  183.5210  178.6510  145.2620 O   0  0  0  0  0  1  0  0  0  0  0  0
  184.7380  178.5180  143.1340 C   0  0  0  0  0  0  0  0  0  0  0  0
  182.2940  178.8540  141.7960 C   0  0  0  0  0  0  0  0  0  0  0  0
  181.0840  179.0250  141.1170 O   0  0  0  0  0  0  0  0  0  0  0  0
  180.5510  178.0240  140.2630 C   0  0  0  0  0  1  0  0  0  0  0  0
  180.2590  177.7000  143.9860 C   0  0  0  0  0  1  0  0  0  0  0  0
  181.0380  179.0010  143.9630 C   0  0  0  0  0  2  0  0  0  0  0  0
  189.6640  176.0030  146.9360 C   0  0  0  0  0  2  0  0  0  0  0  0
  190.6800  175.3170  147.8310 C   0  0  0  0  0  2  0  0  0  0  0  0
  192.0560  175.6310  147.3620 C   0  0  0  0  0  0  0  0  0  0  0  0
  192.9170  176.3610  148.1710 O   0  0  0  0  0  1  0  0  0  0  0  0
  192.4310  175.2640  146.2180 O   0  0  0  0  0  0  0  0  0  0  0  0
  1 28  1  0  0  0  0
  1 14  1  0  0  0  0
  2 20  2  0  0  0  0
  3 10  1  0  0  0  0
  4  3  1  0  0  0  0
  4 17  1  0  0  0  0
  5 21  1  0  0  0  0
  6  5  2  0  0  0  0
  6 27  1  0  0  0  0
  7 16  1  0  0  0  0
  8 15  1  0  0  0  0
  9  1  1  0  0  0  0
 10 12  1  0  0  0  0
 11  8  2  0  0  0  0
 11  2  1  0  0  0  0
 12 11  1  0  0  0  0
 13 22  2  0  0  0  0
 15  9  1  0  0  0  0
 15  7  2  0  0  0  0
 16 14  1  0  0  0  0
 17 18  1  0  0  0  0
 18 12  2  0  0  0  0
 18 13  1  0  0  0  0
 19 13  1  0  0  0  0
 19 23  2  0  0  0  0
 20  7  1  0  0  0  0
 22  2  1  0  0  0  0
 22  5  1  0  0  0  0
 23  6  1  0  0  0  0
 24 23  1  0  0  0  0
 25 24  1  0  0  0  0
 27 26  1  0  0  0  0
 28 29  1  0  0  0  0
 30 29  1  0  0  0  0
 30 31  1  0  0  0  0
 32 30  2  0  0  0  0
M  END
>  <MODEL>
5

>  <REMARK>
 VINA RESULT:      -7.7      3.139      7.914
  Name = 
  5 active torsions:
  status: ('A' for Active; 'I' for Inactive)
    1  A    between atoms: C_1  and  C_10
    2  A    between atoms: N_2  and  C_24
    3  A    between atoms: C_7  and  C_22
    4  A    between atoms: C_10  and  C_24
    5  A    between atoms: O_11  and  C_32
                            x       y       z     vdW  Elec       q    Type
                         _______ _______ _______ _____ _____    ______ ____

>  <TORSDO>
F 5

$$$$
=
 OpenBabel10262421363D

 32 36  0  0  0  0  0  0  0  0999 V2000
  191.5820  177.7420  144.2520 N   0  0  0  0  0  0  0  0  0  0  0  0
  188.9730  177.6070  139.8650 C   0  0  0  0  0  0  0  0  0  0  0  0
  192.3150  176.0240  136.6850 N   0  0  0  0  0  2  0  0  0  0  0  0
  191.2970  175.2840  135.9480 C   0  0  0  0  0  2  0  0  0  0  0  0
  186.6700  178.0960  139.0090 C   0  0  0  0  0  0  0  0  0  0  0  0
  185.7570  178.0560  137.9440 C   0  0  0  0  0  0  0  0  0  0  0  0
  189.6870  178.0990  142.1410 C   0  0  0  0  0  0  0  0  0  0  0  0
  191.2070  177.0970  140.6020 N   0  0  0  0  0  0  0  0  0  0  0  0
  192.0550  177.5860  142.8710 C   0  0  0  0  0  2  0  0  0  0  0  0
  191.9580  175.9880  138.1010 C   0  0  0  0  0  2  0  0  0  0  0  0
  190.2710  177.0980  139.6100 C   0  0  0  0  0  0  0  0  0  0  0  0
  190.5980  176.5980  138.3440 C   0  0  0  0  0  0  0  0  0  0  0  0
  188.3410  177.0770  137.5640 C   0  0  0  0  0  0  0  0  0  0  0  0
  190.5990  178.8310  144.3540 C   0  0  0  0  0  2  0  0  0  0  0  0
  190.9480  177.5630  141.8500 C   0  0  0  0  0  0  0  0  0  0  0  0
  189.3420  178.5670  143.5190 C   0  0  0  0  0  2  0  0  0  0  0  0
  189.9950  176.0790  135.9430 C   0  0  0  0  0  2  0  0  0  0  0  0
  189.6280  176.5700  137.3240 C   0  0  0  0  0  0  0  0  0  0  0  0
  187.4230  177.0640  136.5590 N   0  0  0  0  0  0  0  0  0  0  0  0
  188.7080  178.1000  141.1510 C   0  0  0  0  0  3  0  0  0  0  0  0
  186.2480  178.6280  140.2250 O   0  0  0  0  0  1  0  0  0  0  0  0
  187.9910  177.6010  138.8350 C   0  0  0  0  0  0  0  0  0  0  0  0
  186.1580  177.5340  136.7110 C   0  0  0  0  0  0  0  0  0  0  0  0
  185.2570  177.4980  135.6430 O   0  0  0  0  0  0  0  0  0  0  0  0
  184.6780  176.2860  135.1850 C   0  0  0  0  0  1  0  0  0  0  0  0
  183.4390  177.4930  138.5920 C   0  0  0  0  0  1  0  0  0  0  0  0
  184.3700  178.5920  138.1170 C   0  0  0  0  0  2  0  0  0  0  0  0
  191.0150  176.4800  144.7220 C   0  0  0  0  0  2  0  0  0  0  0  0
  191.7630  176.0030  145.9520 C   0  0  0  0  0  2  0  0  0  0  0  0
  191.2040  176.6560  147.1660 C   0  0  0  0  0  0  0  0  0  0  0  0
  192.0550  177.1280  148.1560 O   0  0  0  0  0  1  0  0  0  0  0  0
  189.9580  176.7510  147.3120 O   0  0  0  0  0  0  0  0  0  0  0  0
  1 14  1  0  0  0  0
  1 28  1  0  0  0  0
  2 20  1  0  0  0  0
  3 10  1  0  0  0  0
  4  3  1  0  0  0  0
  5 21  1  0  0  0  0
  6 27  1  0  0  0  0
  6  5  2  0  0  0  0
  7 16  1  0  0  0  0
  8 15  2  0  0  0  0
  9  1  1  0  0  0  0
 10 12  1  0  0  0  0
 11  2  1  0  0  0  0
 11  8  1  0  0  0  0
 12 11  2  0  0  0  0
 13 22  1  0  0  0  0
 15  7  1  0  0  0  0
 15  9  1  0  0  0  0
 16 14  1  0  0  0  0
 17  4  1  0  0  0  0
 17 18  1  0  0  0  0
 18 13  2  0  0  0  0
 18 12  1  0  0  0  0
 19 23  2  0  0  0  0
 19 13  1  0  0  0  0
 20  7  2  0  0  0  0
 22  5  1  0  0  0  0
 22  2  2  0  0  0  0
 23  6  1  0  0  0  0
 24 23  1  0  0  0  0
 25 24  1  0  0  0  0
 27 26  1  0  0  0  0
 28 29  1  0  0  0  0
 29 30  1  0  0  0  0
 30 32  2  0  0  0  0
 30 31  1  0  0  0  0
M  END
>  <MODEL>
6

>  <REMARK>
 VINA RESULT:      -7.4      3.214      8.696
  Name = 
  5 active torsions:
  status: ('A' for Active; 'I' for Inactive)
    1  A    between atoms: C_1  and  C_10
    2  A    between atoms: N_2  and  C_24
    3  A    between atoms: C_7  and  C_22
    4  A    between atoms: C_10  and  C_24
    5  A    between atoms: O_11  and  C_32
                            x       y       z     vdW  Elec       q    Type
                         _______ _______ _______ _____ _____    ______ ____

>  <TORSDO>
F 5

$$$$
=
 OpenBabel10262421363D

 32 36  0  0  0  0  0  0  0  0999 V2000
  188.1840  177.8880  135.7670 N   0  0  0  0  0  0  0  0  0  0  0  0
  187.0380  178.0970  140.7380 C   0  0  0  0  0  0  0  0  0  0  0  0
  182.3880  179.5690  140.7000 N   0  0  0  0  0  2  0  0  0  0  0  0
  182.0960  178.7510  141.8710 C   0  0  0  0  0  2  0  0  0  0  0  0
  188.1270  177.6900  142.9570 C   0  0  0  0  0  0  0  0  0  0  0  0
  188.0010  177.6010  144.3510 C   0  0  0  0  0  0  0  0  0  0  0  0
  188.2420  178.0200  138.6220 C   0  0  0  0  0  0  0  0  0  0  0  0
  185.9060  178.4960  138.6520 N   0  0  0  0  0  0  0  0  0  0  0  0
  187.0290  178.4840  136.4500 C   0  0  0  0  0  2  0  0  0  0  0  0
  183.3840  178.8620  139.8980 C   0  0  0  0  0  2  0  0  0  0  0  0
  185.8600  178.4020  140.0110 C   0  0  0  0  0  0  0  0  0  0  0  0
  184.6490  178.6120  140.6820 C   0  0  0  0  0  0  0  0  0  0  0  0
  185.7510  178.1920  142.8140 C   0  0  0  0  0  0  0  0  0  0  0  0
  189.4410  178.2530  136.4380 C   0  0  0  0  0  2  0  0  0  0  0  0
  187.0480  178.2990  137.9450 C   0  0  0  0  0  0  0  0  0  0  0  0
  189.5080  177.7370  137.8790 C   0  0  0  0  0  2  0  0  0  0  0  0
  183.2950  178.7650  142.8130 C   0  0  0  0  0  2  0  0  0  0  0  0
  184.5890  178.4890  142.0830 C   0  0  0  0  0  0  0  0  0  0  0  0
  185.6790  178.1010  144.1700 N   0  0  0  0  0  0  0  0  0  0  0  0
  188.2210  177.9050  140.0100 C   0  0  0  0  0  3  0  0  0  0  0  0
  189.3810  177.4790  142.3890 O   0  0  0  0  0  1  0  0  0  0  0  0
  186.9910  177.9890  142.1560 C   0  0  0  0  0  0  0  0  0  0  0  0
  186.7550  177.8160  144.9470 C   0  0  0  0  0  0  0  0  0  0  0  0
  186.6240  177.7370  146.3370 O   0  0  0  0  0  0  0  0  0  0  0  0
  185.7950  178.6280  147.0680 C   0  0  0  0  0  1  0  0  0  0  0  0
  190.1810  178.4580  145.1440 C   0  0  0  0  0  1  0  0  0  0  0  0
  189.1980  177.3030  145.2010 C   0  0  0  0  0  2  0  0  0  0  0  0
  188.0240  176.4370  135.7080 C   0  0  0  0  0  2  0  0  0  0  0  0
  186.6770  176.0890  135.1040 C   0  0  0  0  0  2  0  0  0  0  0  0
  186.0260  175.0210  135.9080 C   0  0  0  0  0  0  0  0  0  0  0  0
  186.4270  174.7950  137.2180 O   0  0  0  0  0  1  0  0  0  0  0  0
  185.1340  174.2990  135.3920 O   0  0  0  0  0  0  0  0  0  0  0  0
  1 14  1  0  0  0  0
  1  9  1  0  0  0  0
  2 22  1  0  0  0  0
  3  4  1  0  0  0  0
  4 17  1  0  0  0  0
  5  6  2  0  0  0  0
  6 23  1  0  0  0  0
  6 27  1  0  0  0  0
  7 20  1  0  0  0  0
  8 11  2  0  0  0  0
  9 15  1  0  0  0  0
 10 12  1  0  0  0  0
 10  3  1  0  0  0  0
 11 12  1  0  0  0  0
 11  2  1  0  0  0  0
 12 18  2  0  0  0  0
 13 19  1  0  0  0  0
 14 16  1  0  0  0  0
 15  7  2  0  0  0  0
 15  8  1  0  0  0  0
 16  7  1  0  0  0  0
 18 17  1  0  0  0  0
 18 13  1  0  0  0  0
 19 23  2  0  0  0  0
 20  2  2  0  0  0  0
 21  5  1  0  0  0  0
 22 13  2  0  0  0  0
 22  5  1  0  0  0  0
 23 24  1  0  0  0  0
 24 25  1  0  0  0  0
 26 27  1  0  0  0  0
 28  1  1  0  0  0  0
 29 28  1  0  0  0  0
 29 30  1  0  0  0  0
 30 31  1  0  0  0  0
 32 30  2  0  0  0  0
M  END
>  <MODEL>
7

>  <REMARK>
 VINA RESULT:      -7.4      2.039      2.870
  Name = 
  5 active torsions:
  status: ('A' for Active; 'I' for Inactive)
    1  A    between atoms: C_1  and  C_10
    2  A    between atoms: N_2  and  C_24
    3  A    between atoms: C_7  and  C_22
    4  A    between atoms: C_10  and  C_24
    5  A    between atoms: O_11  and  C_32
                            x       y       z     vdW  Elec       q    Type
                         _______ _______ _______ _____ _____    ______ ____

>  <TORSDO>
F 5

$$$$
=
 OpenBabel10262421363D

 32 36  0  0  0  0  0  0  0  0999 V2000
  182.0300  179.1300  139.7410 N   0  0  0  0  0  0  0  0  0  0  0  0
  186.3420  178.1310  142.2870 C   0  0  0  0  0  0  0  0  0  0  0  0
  185.0750  179.0050  146.9150 N   0  0  0  0  0  2  0  0  0  0  0  0
  185.9390  177.9260  147.3790 C   0  0  0  0  0  2  0  0  0  0  0  0
  188.6910  177.3940  141.8280 C   0  0  0  0  0  0  0  0  0  0  0  0
  189.9380  176.9940  142.3310 C   0  0  0  0  0  0  0  0  0  0  0  0
  184.7370  178.6540  140.5320 C   0  0  0  0  0  0  0  0  0  0  0  0
  184.1020  178.8270  142.8230 N   0  0  0  0  0  0  0  0  0  0  0  0
  182.4010  179.4220  141.1320 C   0  0  0  0  0  2  0  0  0  0  0  0
  184.5250  178.6110  145.6200 C   0  0  0  0  0  2  0  0  0  0  0  0
  185.3400  178.4400  143.2410 C   0  0  0  0  0  0  0  0  0  0  0  0
  185.6170  178.3540  144.6110 C   0  0  0  0  0  0  0  0  0  0  0  0
  187.8880  177.6240  144.1120 C   0  0  0  0  0  0  0  0  0  0  0  0
  183.1160  179.4920  138.8180 C   0  0  0  0  0  2  0  0  0  0  0  0
  183.7720  178.9260  141.5100 C   0  0  0  0  0  0  0  0  0  0  0  0
  184.3970  178.6920  139.0760 C   0  0  0  0  0  2  0  0  0  0  0  0
  187.2020  177.8830  146.5250 C   0  0  0  0  0  2  0  0  0  0  0  0
  186.8860  177.9280  145.0480 C   0  0  0  0  0  0  0  0  0  0  0  0
  189.1150  177.2370  144.5540 N   0  0  0  0  0  0  0  0  0  0  0  0
  186.0060  178.2440  140.9300 C   0  0  0  0  0  3  0  0  0  0  0  0
  188.5240  177.4620  140.4460 O   0  0  0  0  0  1  0  0  0  0  0  0
  187.6330  177.7180  142.7190 C   0  0  0  0  0  0  0  0  0  0  0  0
  190.1350  176.9250  143.7130 C   0  0  0  0  0  0  0  0  0  0  0  0
  191.3780  176.5350  144.2220 O   0  0  0  0  0  0  0  0  0  0  0  0
  191.6730  176.5860  145.6100 C   0  0  0  0  0  1  0  0  0  0  0  0
  191.9640  177.8760  141.2200 C   0  0  0  0  0  1  0  0  0  0  0  0
  191.0620  176.6690  141.3960 C   0  0  0  0  0  2  0  0  0  0  0  0
  181.6830  177.7170  139.6130 C   0  0  0  0  0  2  0  0  0  0  0  0
  180.1760  177.5500  139.6340 C   0  0  0  0  0  2  0  0  0  0  0  0
  179.7620  176.5800  138.5850 C   0  0  0  0  0  0  0  0  0  0  0  0
  180.0220  176.8490  137.2480 O   0  0  0  0  0  0  0  0  0  0  0  0
  179.1450  175.5310  138.9050 O   0  0  0  0  0  1  0  0  0  0  0  0
  1  9  1  0  0  0  0
  2 22  2  0  0  0  0
  2 11  1  0  0  0  0
  3  4  1  0  0  0  0
  5  6  2  0  0  0  0
  5 22  1  0  0  0  0
  6 23  1  0  0  0  0
  7 20  2  0  0  0  0
  7 15  1  0  0  0  0
  8 11  1  0  0  0  0
  9 15  1  0  0  0  0
 10  3  1  0  0  0  0
 11 12  2  0  0  0  0
 12 18  1  0  0  0  0
 12 10  1  0  0  0  0
 13 19  1  0  0  0  0
 13 18  2  0  0  0  0
 14 16  1  0  0  0  0
 14  1  1  0  0  0  0
 15  8  2  0  0  0  0
 16  7  1  0  0  0  0
 17  4  1  0  0  0  0
 18 17  1  0  0  0  0
 20  2  1  0  0  0  0
 21  5  1  0  0  0  0
 22 13  1  0  0  0  0
 23 24  1  0  0  0  0
 23 19  2  0  0  0  0
 24 25  1  0  0  0  0
 26 27  1  0  0  0  0
 27  6  1  0  0  0  0
 28 29  1  0  0  0  0
 28  1  1  0  0  0  0
 30 32  1  0  0  0  0
 30 29  1  0  0  0  0
 31 30  2  0  0  0  0
M  END
>  <MODEL>
8

>  <REMARK>
 VINA RESULT:      -7.2      3.606      5.378
  Name = 
  5 active torsions:
  status: ('A' for Active; 'I' for Inactive)
    1  A    between atoms: C_1  and  C_10
    2  A    between atoms: N_2  and  C_24
    3  A    between atoms: C_7  and  C_22
    4  A    between atoms: C_10  and  C_24
    5  A    between atoms: O_11  and  C_32
                            x       y       z     vdW  Elec       q    Type
                         _______ _______ _______ _____ _____    ______ ____

>  <TORSDO>
F 5

$$$$
=
 OpenBabel10262421363D

 32 36  0  0  0  0  0  0  0  0999 V2000
  193.2360  175.4120  136.2230 N   0  0  0  0  0  0  0  0  0  0  0  0
  189.4510  177.1760  139.1610 C   0  0  0  0  0  0  0  0  0  0  0  0
  191.4250  177.0700  143.6200 N   0  0  0  0  0  2  0  0  0  0  0  0
  190.6970  178.2760  143.9960 C   0  0  0  0  0  2  0  0  0  0  0  0
  187.0930  177.9900  138.9360 C   0  0  0  0  0  0  0  0  0  0  0  0
  185.9650  178.5670  139.5380 C   0  0  0  0  0  0  0  0  0  0  0  0
  190.7210  176.2240  137.3140 C   0  0  0  0  0  0  0  0  0  0  0  0
  191.7170  176.4250  139.4700 N   0  0  0  0  0  0  0  0  0  0  0  0
  193.0870  175.4070  137.6840 C   0  0  0  0  0  2  0  0  0  0  0  0
  191.7700  177.1790  142.2050 C   0  0  0  0  0  2  0  0  0  0  0  0
  190.5820  176.9730  139.9910 C   0  0  0  0  0  0  0  0  0  0  0  0
  190.5390  177.3280  141.3450 C   0  0  0  0  0  0  0  0  0  0  0  0
  188.2520  178.1220  141.0710 C   0  0  0  0  0  0  0  0  0  0  0  0
  191.9970  174.9700  135.5640 C   0  0  0  0  0  2  0  0  0  0  0  0
  191.8200  176.0650  138.1660 C   0  0  0  0  0  0  0  0  0  0  0  0
  190.8130  175.8970  135.8580 C   0  0  0  0  0  2  0  0  0  0  0  0
  189.3140  178.2570  143.3540 C   0  0  0  0  0  2  0  0  0  0  0  0
  189.3800  177.9200  141.8830 C   0  0  0  0  0  0  0  0  0  0  0  0
  187.1320  178.6730  141.6130 N   0  0  0  0  0  0  0  0  0  0  0  0
  189.5540  176.7940  137.8160 C   0  0  0  0  0  3  0  0  0  0  0  0
  187.0270  177.6600  137.5840 O   0  0  0  0  0  1  0  0  0  0  0  0
  188.2690  177.7570  139.7000 C   0  0  0  0  0  0  0  0  0  0  0  0
  186.0020  178.9020  140.8950 C   0  0  0  0  0  0  0  0  0  0  0  0
  184.8790  179.4690  141.5050 O   0  0  0  0  0  0  0  0  0  0  0  0
  184.2870  178.9070  142.6660 C   0  0  0  0  0  1  0  0  0  0  0  0
  183.7910  177.6030  138.8600 C   0  0  0  0  0  1  0  0  0  0  0  0
  184.7180  178.7990  138.7430 C   0  0  0  0  0  2  0  0  0  0  0  0
  193.6180  176.7490  135.7730 C   0  0  0  0  0  2  0  0  0  0  0  0
  194.7520  176.6530  134.7700 C   0  0  0  0  0  2  0  0  0  0  0  0
  195.9150  177.4470  135.2470 C   0  0  0  0  0  0  0  0  0  0  0  0
  197.0630  176.8020  135.6880 O   0  0  0  0  0  1  0  0  0  0  0  0
  195.8480  178.7030  135.2830 O   0  0  0  0  0  0  0  0  0  0  0  0
  1  9  1  0  0  0  0
  2 22  2  0  0  0  0
  2 11  1  0  0  0  0
  3  4  1  0  0  0  0
  5  6  2  0  0  0  0
  5 22  1  0  0  0  0
  6 23  1  0  0  0  0
  7 20  2  0  0  0  0
  7 15  1  0  0  0  0
  8 11  1  0  0  0  0
  9 15  1  0  0  0  0
 10  3  1  0  0  0  0
 11 12  2  0  0  0  0
 12 18  1  0  0  0  0
 12 10  1  0  0  0  0
 13 19  1  0  0  0  0
 13 18  2  0  0  0  0
 14 16  1  0  0  0  0
 14  1  1  0  0  0  0
 15  8  2  0  0  0  0
 16  7  1  0  0  0  0
 17  4  1  0  0  0  0
 18 17  1  0  0  0  0
 20  2  1  0  0  0  0
 21  5  1  0  0  0  0
 22 13  1  0  0  0  0
 23 24  1  0  0  0  0
 23 19  2  0  0  0  0
 24 25  1  0  0  0  0
 27 26  1  0  0  0  0
 27  6  1  0  0  0  0
 28  1  1  0  0  0  0
 29 30  1  0  0  0  0
 29 28  1  0  0  0  0
 30 32  2  0  0  0  0
 30 31  1  0  0  0  0
M  END
>  <MODEL>
9

>  <REMARK>
 VINA RESULT:      -7.2      3.637      6.372
  Name = 
  5 active torsions:
  status: ('A' for Active; 'I' for Inactive)
    1  A    between atoms: C_1  and  C_10
    2  A    between atoms: N_2  and  C_24
    3  A    between atoms: C_7  and  C_22
    4  A    between atoms: C_10  and  C_24
    5  A    between atoms: O_11  and  C_32
                            x       y       z     vdW  Elec       q    Type
                         _______ _______ _______ _____ _____    ______ ____

>  <TORSDO>
F 5

$$$$
