=
 OpenBabel10262422533D

 37 40  0  0  1  0  0  0  0  0999 V2000
  183.0480  178.8880  140.5100 C   0  0  1  0  0  0  0  0  0  0  0  0
  181.5890  179.0590  140.0040 C   0  0  2  0  0  3  0  0  0  0  0  0
  181.0710  175.3350  139.9300 N   0  0  0  0  0  1  0  0  0  0  0  0
  180.8010  177.7480  140.1350 C   0  0  2  0  0  3  0  0  0  0  0  0
  181.3890  176.5960  139.2800 C   0  0  1  0  0  0  0  0  0  0  0  0
  183.5390  177.4240  140.3620 C   0  0  0  0  0  2  0  0  0  0  0  0
  182.9180  176.7190  139.1580 C   0  0  0  0  0  2  0  0  0  0  0  0
  179.2990  177.9570  139.9750 C   0  0  0  0  0  1  0  0  0  0  0  0
  183.8910  179.7190  139.7650 O   0  0  0  0  0  1  0  0  0  0  0  0
  183.0490  179.3770  141.9830 C   0  0  2  0  0  3  0  0  0  0  0  0
  184.3190  179.3040  142.7830 C   0  0  1  0  0  3  0  0  0  0  0  0
  183.3040  178.3330  142.8980 O   0  0  0  0  0  0  0  0  0  0  0  0
  185.5350  178.7070  142.0780 C   0  0  1  0  0  3  0  0  0  0  0  0
  186.1990  179.7000  141.3570 O   0  0  0  0  0  1  0  0  0  0  0  0
  186.7890  177.2900  145.4660 C   0  0  0  0  0  2  0  0  0  0  0  0
  187.8730  177.7260  142.5990 C   0  0  0  0  0  2  0  0  0  0  0  0
  186.0440  177.9410  144.3300 C   0  0  0  0  0  3  0  0  0  0  0  0
  188.3910  176.4300  143.2050 C   0  0  0  0  0  2  0  0  0  0  0  0
  188.8140  177.5450  146.8760 C   0  0  0  0  0  1  0  0  0  0  0  0
  189.0570  176.6820  144.5610 C   0  0  0  0  0  2  0  0  0  0  0  0
  188.2710  177.6350  145.4650 C   0  0  1  0  0  3  0  0  0  0  0  0
  186.4730  178.0710  143.0580 C   0  0  0  0  0  0  0  0  0  0  0  0
  180.8490  180.7270  138.7440 C   0  0  0  0  0  1  0  0  0  0  0  0
  181.5490  179.5210  138.6820 O   0  0  0  0  0  0  0  0  0  0  0  0
  180.7960  176.6020  137.8670 C   0  0  0  0  0  2  0  0  0  0  0  0
  180.3270  175.3340  137.5100 O   0  0  0  0  0  0  0  0  0  0  0  0
  181.0260  175.0160  136.3440 C   0  0  0  0  0  2  0  0  0  0  0  0
  181.0680  173.5660  136.1740 N   0  0  0  0  0  0  0  0  0  0  0  0
  183.1680  173.7440  134.7430 C   0  0  0  0  0  2  0  0  0  0  0  0
  182.4400  173.1080  135.9140 C   0  0  2  0  0  0  0  0  0  0  0  0
  183.6260  171.3620  134.6500 N   0  0  0  0  0  1  0  0  0  0  0  0
  182.5640  172.3530  134.5960 C   0  0  2  0  0  3  0  0  0  0  0  0
  183.1900  172.5630  136.9790 O   0  0  0  0  0  0  0  0  0  0  0  0
  185.3840  173.2540  137.5900 C   0  0  0  0  0  1  0  0  0  0  0  0
  183.9140  173.6130  137.5590 C   0  0  0  0  0  2  0  0  0  0  0  0
  180.4630  172.8730  137.3220 C   0  0  0  0  0  2  0  0  0  0  0  0
  179.8970  171.4960  136.9790 C   0  0  0  0  0  1  0  0  0  0  0  0
  1  9  1  6  0  0  0
  1 10  1  0  0  0  0
  2 24  1  6  0  0  0
  2  4  1  0  0  0  0
  2  1  1  0  0  0  0
  4  8  1  6  0  0  0
  5  3  1  1  0  0  0
  5  4  1  0  0  0  0
  6  1  1  0  0  0  0
  7  5  1  0  0  0  0
  7  6  1  0  0  0  0
 10 11  1  0  0  0  0
 10 12  1  1  0  0  0
 11 13  1  6  0  0  0
 11 12  1  0  0  0  0
 13 14  1  1  0  0  0
 13 22  1  0  0  0  0
 16 22  1  0  0  0  0
 16 18  1  0  0  0  0
 17 15  1  0  0  0  0
 18 20  1  0  0  0  0
 20 21  1  0  0  0  0
 21 15  1  0  0  0  0
 21 19  1  1  0  0  0
 22 17  2  0  0  0  0
 24 23  1  0  0  0  0
 25  5  1  0  0  0  0
 26 25  1  0  0  0  0
 27 26  1  0  0  0  0
 28 27  1  0  0  0  0
 28 36  1  0  0  0  0
 29 30  1  0  0  0  0
 30 28  1  0  0  0  0
 30 33  1  1  0  0  0
 32 31  1  1  0  0  0
 32 29  1  0  0  0  0
 32 30  1  0  0  0  0
 33 35  1  0  0  0  0
 35 34  1  0  0  0  0
 37 36  1  0  0  0  0
M  END
>  <MODEL>
1

>  <REMARK>
 VINA RESULT:      -5.9      0.000      0.000
  Name = 
  12 active torsions:
  status: ('A' for Active; 'I' for Inactive)
    1  A    between atoms: C_1  and  C_20
    2  A    between atoms: C_3  and  C_21
    3  A    between atoms: C_3  and  C_30
    4  A    between atoms: C_5  and  O_23
    5  A    between atoms: C_6  and  O_8
    6  A    between atoms: C_6  and  N_31
    7  A    between atoms: C_7  and  O_27
    8  A    between atoms: C_7  and  N_31
    9  A    between atoms: O_8  and  C_19
   10  A    between atoms: C_10  and  C_26
   11  A    between atoms: C_10  and  O_27
   12  A    between atoms: C_14  and  N_31
                            x       y       z     vdW  Elec       q    Type
                         _______ _______ _______ _____ _____    ______ ____

>  <TORSDO>
F 12

$$$$
=
 OpenBabel10262422533D

 37 40  0  0  1  0  0  0  0  0999 V2000
  190.0840  176.8970  140.3810 C   0  0  1  0  0  0  0  0  0  0  0  0
  190.5500  176.5980  138.9290 C   0  0  2  0  0  3  0  0  0  0  0  0
  188.0080  178.9790  137.5120 N   0  0  0  0  0  1  0  0  0  0  0  0
  189.9950  177.6350  137.9440 C   0  0  2  0  0  3  0  0  0  0  0  0
  188.4460  177.6400  137.8740 C   0  0  1  0  0  0  0  0  0  0  0  0
  188.7290  177.6500  140.4040 C   0  0  0  0  0  2  0  0  0  0  0  0
  187.8270  177.2660  139.2320 C   0  0  0  0  0  2  0  0  0  0  0  0
  190.6940  177.5800  136.5900 C   0  0  0  0  0  1  0  0  0  0  0  0
  189.9360  175.6900  141.0720 O   0  0  0  0  0  1  0  0  0  0  0  0
  191.2330  177.7060  141.0400 C   0  0  2  0  0  3  0  0  0  0  0  0
  191.6630  177.3670  142.4390 C   0  0  1  0  0  3  0  0  0  0  0  0
  190.7980  178.4440  142.1620 O   0  0  0  0  0  0  0  0  0  0  0  0
  190.8950  176.2470  143.1370 C   0  0  1  0  0  3  0  0  0  0  0  0
  191.7900  175.3710  143.7530 O   0  0  0  0  0  1  0  0  0  0  0  0
  189.6920  178.0130  146.3750 C   0  0  0  0  0  2  0  0  0  0  0  0
  188.4520  176.5780  143.9270 C   0  0  0  0  0  2  0  0  0  0  0  0
  190.4570  177.3560  145.2560 C   0  0  0  0  0  3  0  0  0  0  0  0
  187.6110  177.7670  144.3680 C   0  0  0  0  0  2  0  0  0  0  0  0
  188.0760  177.5200  148.1910 C   0  0  0  0  0  1  0  0  0  0  0  0
  187.2530  177.6700  145.8540 C   0  0  0  0  0  2  0  0  0  0  0  0
  188.4270  177.2520  146.7430 C   0  0  1  0  0  3  0  0  0  0  0  0
  189.9340  176.7940  144.1480 C   0  0  0  0  0  0  0  0  0  0  0  0
  191.3630  174.7600  137.9890 C   0  0  0  0  0  1  0  0  0  0  0  0
  190.1940  175.3040  138.5260 O   0  0  0  0  0  0  0  0  0  0  0  0
  187.9410  176.6410  136.8280 C   0  0  0  0  0  2  0  0  0  0  0  0
  187.0420  175.7290  137.3920 O   0  0  0  0  0  0  0  0  0  0  0  0
  185.8780  175.8660  136.6320 C   0  0  0  0  0  2  0  0  0  0  0  0
  184.7240  175.4340  137.4150 N   0  0  0  0  0  0  0  0  0  0  0  0
  184.0840  177.8260  138.0100 C   0  0  0  0  0  2  0  0  0  0  0  0
  183.6880  176.4750  137.4410 C   0  0  2  0  0  0  0  0  0  0  0  0
  181.8910  177.2970  138.9090 N   0  0  0  0  0  1  0  0  0  0  0  0
  183.2750  176.8530  138.8600 C   0  0  2  0  0  3  0  0  0  0  0  0
  182.6230  176.4020  136.5160 O   0  0  0  0  0  0  0  0  0  0  0  0
  181.6800  178.1670  135.2280 C   0  0  0  0  0  1  0  0  0  0  0  0
  182.9020  177.3100  135.4880 C   0  0  0  0  0  2  0  0  0  0  0  0
  184.2010  174.1460  136.9340 C   0  0  0  0  0  2  0  0  0  0  0  0
  184.7820  172.9360  137.6620 C   0  0  0  0  0  1  0  0  0  0  0  0
  1  6  1  0  0  0  0
  1 10  1  0  0  0  0
  1  9  1  1  0  0  0
  2 24  1  6  0  0  0
  2  1  1  0  0  0  0
  4  8  1  6  0  0  0
  4  2  1  0  0  0  0
  5  3  1  6  0  0  0
  5  4  1  0  0  0  0
  5  7  1  0  0  0  0
  7  6  1  0  0  0  0
 10 12  1  1  0  0  0
 10 11  1  0  0  0  0
 11 13  1  1  0  0  0
 12 11  1  0  0  0  0
 13 14  1  1  0  0  0
 13 22  1  0  0  0  0
 15 21  1  0  0  0  0
 16 22  1  0  0  0  0
 16 18  1  0  0  0  0
 17 15  1  0  0  0  0
 18 20  1  0  0  0  0
 20 21  1  0  0  0  0
 21 19  1  1  0  0  0
 22 17  2  0  0  0  0
 23 24  1  0  0  0  0
 25 26  1  0  0  0  0
 25  5  1  0  0  0  0
 27 26  1  0  0  0  0
 27 28  1  0  0  0  0
 28 30  1  0  0  0  0
 29 32  1  0  0  0  0
 30 33  1  6  0  0  0
 30 29  1  0  0  0  0
 30 32  1  0  0  0  0
 32 31  1  6  0  0  0
 34 35  1  0  0  0  0
 35 33  1  0  0  0  0
 36 28  1  0  0  0  0
 36 37  1  0  0  0  0
M  END
>  <MODEL>
2

>  <REMARK>
 VINA RESULT:      -5.9      3.867      6.524
  Name = 
  12 active torsions:
  status: ('A' for Active; 'I' for Inactive)
    1  A    between atoms: C_1  and  C_20
    2  A    between atoms: C_3  and  C_21
    3  A    between atoms: C_3  and  C_30
    4  A    between atoms: C_5  and  O_23
    5  A    between atoms: C_6  and  O_8
    6  A    between atoms: C_6  and  N_31
    7  A    between atoms: C_7  and  O_27
    8  A    between atoms: C_7  and  N_31
    9  A    between atoms: O_8  and  C_19
   10  A    between atoms: C_10  and  C_26
   11  A    between atoms: C_10  and  O_27
   12  A    between atoms: C_14  and  N_31
                            x       y       z     vdW  Elec       q    Type
                         _______ _______ _______ _____ _____    ______ ____

>  <TORSDO>
F 12

$$$$
=
 OpenBabel10262422533D

 37 40  0  0  1  0  0  0  0  0999 V2000
  189.7270  175.5170  136.5460 C   0  0  1  0  0  0  0  0  0  0  0  0
  188.2200  175.8940  136.5380 C   0  0  2  0  0  3  0  0  0  0  0  0
  189.0090  179.4880  137.3130 N   0  0  0  0  0  1  0  0  0  0  0  0
  188.0300  177.4160  136.4840 C   0  0  2  0  0  3  0  0  0  0  0  0
  188.6190  178.1460  137.7180 C   0  0  1  0  0  0  0  0  0  0  0  0
  190.5960  176.6400  137.1680 C   0  0  0  0  0  2  0  0  0  0  0  0
  189.8580  177.4120  138.2600 C   0  0  0  0  0  2  0  0  0  0  0  0
  186.5990  177.8090  136.1340 C   0  0  0  0  0  1  0  0  0  0  0  0
  189.9030  174.3500  137.2950 O   0  0  0  0  0  1  0  0  0  0  0  0
  190.1000  175.2170  135.0690 C   0  0  2  0  0  3  0  0  0  0  0  0
  191.4690  174.6880  134.7470 C   0  0  1  0  0  3  0  0  0  0  0  0
  191.1360  176.0490  134.5940 O   0  0  0  0  0  0  0  0  0  0  0  0
  192.4260  174.5150  135.9240 C   0  0  1  0  0  3  0  0  0  0  0  0
  192.4850  173.1700  136.2930 O   0  0  0  0  0  1  0  0  0  0  0  0
  196.0710  174.4140  134.5940 C   0  0  0  0  0  2  0  0  0  0  0  0
  194.1660  176.4320  135.9690 C   0  0  0  0  0  2  0  0  0  0  0  0
  194.6660  174.1280  135.0560 C   0  0  0  0  0  3  0  0  0  0  0  0
  195.0530  177.1100  134.9350 C   0  0  0  0  0  2  0  0  0  0  0  0
  198.3040  175.0910  135.4340 C   0  0  0  0  0  1  0  0  0  0  0  0
  196.5330  176.8130  135.1980 C   0  0  0  0  0  2  0  0  0  0  0  0
  196.8160  175.3480  135.5370 C   0  0  1  0  0  3  0  0  0  0  0  0
  193.7980  175.0140  135.5870 C   0  0  0  0  0  0  0  0  0  0  0  0
  186.6130  174.4720  137.0990 C   0  0  0  0  0  1  0  0  0  0  0  0
  187.5450  175.3580  137.6430 O   0  0  0  0  0  0  0  0  0  0  0  0
  187.5870  178.2380  138.8470 C   0  0  0  0  0  2  0  0  0  0  0  0
  188.1280  177.8090  140.0640 O   0  0  0  0  0  0  0  0  0  0  0  0
  187.5510  178.6470  141.0200 C   0  0  0  0  0  2  0  0  0  0  0  0
  187.0860  177.8540  142.1550 N   0  0  0  0  0  0  0  0  0  0  0  0
  188.4880  176.0900  143.3420 C   0  0  0  0  0  2  0  0  0  0  0  0
  188.1920  177.5550  143.0750 C   0  0  2  0  0  0  0  0  0  0  0  0
  188.5940  177.2330  145.4820 N   0  0  0  0  0  1  0  0  0  0  0  0
  187.7140  176.9080  144.3700 C   0  0  2  0  0  3  0  0  0  0  0  0
  189.2220  178.5070  143.2360 O   0  0  0  0  0  0  0  0  0  0  0  0
  191.5570  178.4320  143.6910 C   0  0  0  0  0  1  0  0  0  0  0  0
  190.4200  177.8940  142.8480 C   0  0  0  0  0  2  0  0  0  0  0  0
  185.9590  178.5060  142.8400 C   0  0  0  0  0  2  0  0  0  0  0  0
  184.6470  178.4420  142.0600 C   0  0  0  0  0  1  0  0  0  0  0  0
  1  6  1  0  0  0  0
  1  9  1  1  0  0  0
  2  1  1  0  0  0  0
  2 24  1  1  0  0  0
  4  8  1  1  0  0  0
  4  2  1  0  0  0  0
  4  5  1  0  0  0  0
  5  3  1  6  0  0  0
  5  7  1  0  0  0  0
  5 25  1  0  0  0  0
  6  7  1  0  0  0  0
 10 12  1  6  0  0  0
 10  1  1  0  0  0  0
 11 10  1  0  0  0  0
 11 13  1  1  0  0  0
 12 11  1  0  0  0  0
 13 14  1  6  0  0  0
 15 17  1  0  0  0  0
 15 21  1  0  0  0  0
 17 22  2  0  0  0  0
 18 20  1  0  0  0  0
 18 16  1  0  0  0  0
 20 21  1  0  0  0  0
 21 19  1  6  0  0  0
 22 13  1  0  0  0  0
 22 16  1  0  0  0  0
 23 24  1  0  0  0  0
 25 26  1  0  0  0  0
 26 27  1  0  0  0  0
 27 28  1  0  0  0  0
 28 36  1  0  0  0  0
 28 30  1  0  0  0  0
 29 32  1  0  0  0  0
 30 33  1  1  0  0  0
 30 29  1  0  0  0  0
 30 32  1  0  0  0  0
 32 31  1  1  0  0  0
 35 33  1  0  0  0  0
 35 34  1  0  0  0  0
 37 36  1  0  0  0  0
M  END
>  <MODEL>
3

>  <REMARK>
 VINA RESULT:      -5.9      6.891     10.253
  Name = 
  12 active torsions:
  status: ('A' for Active; 'I' for Inactive)
    1  A    between atoms: C_1  and  C_20
    2  A    between atoms: C_3  and  C_21
    3  A    between atoms: C_3  and  C_30
    4  A    between atoms: C_5  and  O_23
    5  A    between atoms: C_6  and  O_8
    6  A    between atoms: C_6  and  N_31
    7  A    between atoms: C_7  and  O_27
    8  A    between atoms: C_7  and  N_31
    9  A    between atoms: O_8  and  C_19
   10  A    between atoms: C_10  and  C_26
   11  A    between atoms: C_10  and  O_27
   12  A    between atoms: C_14  and  N_31
                            x       y       z     vdW  Elec       q    Type
                         _______ _______ _______ _____ _____    ______ ____

>  <TORSDO>
F 12

$$$$
=
 OpenBabel10262422533D

 37 40  0  0  1  0  0  0  0  0999 V2000
  189.7310  175.5870  136.5230 C   0  0  1  0  0  0  0  0  0  0  0  0
  188.2310  175.9940  136.5500 C   0  0  2  0  0  3  0  0  0  0  0  0
  189.0990  179.5120  137.5570 N   0  0  0  0  0  1  0  0  0  0  0  0
  188.0730  177.5200  136.5990 C   0  0  2  0  0  3  0  0  0  0  0  0
  188.6840  178.1540  137.8740 C   0  0  1  0  0  0  0  0  0  0  0  0
  190.6260  176.6480  137.2130 C   0  0  0  0  0  2  0  0  0  0  0  0
  189.9100  177.3600  138.3580 C   0  0  0  0  0  2  0  0  0  0  0  0
  186.6490  177.9640  136.2850 C   0  0  0  0  0  1  0  0  0  0  0  0
  189.8870  174.3690  137.1910 O   0  0  0  0  0  1  0  0  0  0  0  0
  190.0900  175.3780  135.0270 C   0  0  2  0  0  3  0  0  0  0  0  0
  191.4300  174.8030  134.6640 C   0  0  1  0  0  3  0  0  0  0  0  0
  191.1690  176.1880  134.6130 O   0  0  0  0  0  0  0  0  0  0  0  0
  192.3750  174.4930  135.8230 C   0  0  1  0  0  3  0  0  0  0  0  0
  192.3840  173.1190  136.0710 O   0  0  0  0  0  1  0  0  0  0  0  0
  196.0520  174.3450  134.5940 C   0  0  0  0  0  2  0  0  0  0  0  0
  194.1480  176.3740  135.9530 C   0  0  0  0  0  2  0  0  0  0  0  0
  194.6300  174.0790  135.0100 C   0  0  0  0  0  3  0  0  0  0  0  0
  195.0770  177.0540  134.9570 C   0  0  0  0  0  2  0  0  0  0  0  0
  198.2740  174.9620  135.5080 C   0  0  0  0  0  1  0  0  0  0  0  0
  196.5430  176.7230  135.2560 C   0  0  0  0  0  2  0  0  0  0  0  0
  196.7880  175.2460  135.5740 C   0  0  1  0  0  3  0  0  0  0  0  0
  193.7650  174.9710  135.5330 C   0  0  0  0  0  0  0  0  0  0  0  0
  186.6640  174.4990  137.0280 C   0  0  0  0  0  1  0  0  0  0  0  0
  187.5510  175.3990  137.6210 O   0  0  0  0  0  0  0  0  0  0  0  0
  187.6590  178.1920  139.0130 C   0  0  0  0  0  2  0  0  0  0  0  0
  188.2150  178.7350  140.1770 O   0  0  0  0  0  0  0  0  0  0  0  0
  187.9440  177.7920  141.1700 C   0  0  0  0  0  2  0  0  0  0  0  0
  188.9900  177.8330  142.1890 N   0  0  0  0  0  0  0  0  0  0  0  0
  187.5740  176.3790  143.7270 C   0  0  0  0  0  2  0  0  0  0  0  0
  188.4260  177.6200  143.5280 C   0  0  2  0  0  0  0  0  0  0  0  0
  186.4260  178.2080  144.8360 N   0  0  0  0  0  1  0  0  0  0  0  0
  186.9060  177.7370  143.5470 C   0  0  2  0  0  3  0  0  0  0  0  0
  189.0760  178.1960  144.6420 O   0  0  0  0  0  0  0  0  0  0  0  0
  189.4250  177.2480  146.7970 C   0  0  0  0  0  1  0  0  0  0  0  0
  189.7370  177.1630  145.3180 C   0  0  0  0  0  2  0  0  0  0  0  0
  190.0700  176.8820  141.8870 C   0  0  0  0  0  2  0  0  0  0  0  0
  191.4650  177.5040  141.9260 C   0  0  0  0  0  1  0  0  0  0  0  0
  1  2  1  0  0  0  0
  1  9  1  1  0  0  0
  1  6  1  0  0  0  0
  2  4  1  0  0  0  0
  2 24  1  1  0  0  0
  4  8  1  1  0  0  0
  4  5  1  0  0  0  0
  5  3  1  6  0  0  0
  5  7  1  0  0  0  0
  5 25  1  0  0  0  0
  6  7  1  0  0  0  0
 10 12  1  6  0  0  0
 10  1  1  0  0  0  0
 11 10  1  0  0  0  0
 11 13  1  1  0  0  0
 12 11  1  0  0  0  0
 13 14  1  6  0  0  0
 15 17  1  0  0  0  0
 15 21  1  0  0  0  0
 17 22  2  0  0  0  0
 18 20  1  0  0  0  0
 18 16  1  0  0  0  0
 20 21  1  0  0  0  0
 21 19  1  6  0  0  0
 22 13  1  0  0  0  0
 22 16  1  0  0  0  0
 23 24  1  0  0  0  0
 25 26  1  0  0  0  0
 26 27  1  0  0  0  0
 27 28  1  0  0  0  0
 28 30  1  0  0  0  0
 30 32  1  0  0  0  0
 30 29  1  0  0  0  0
 30 33  1  1  0  0  0
 32 29  1  0  0  0  0
 32 31  1  1  0  0  0
 33 35  1  0  0  0  0
 35 34  1  0  0  0  0
 36 37  1  0  0  0  0
 36 28  1  0  0  0  0
M  END
>  <MODEL>
4

>  <REMARK>
 VINA RESULT:      -5.8      6.883     10.506
  Name = 
  12 active torsions:
  status: ('A' for Active; 'I' for Inactive)
    1  A    between atoms: C_1  and  C_20
    2  A    between atoms: C_3  and  C_21
    3  A    between atoms: C_3  and  C_30
    4  A    between atoms: C_5  and  O_23
    5  A    between atoms: C_6  and  O_8
    6  A    between atoms: C_6  and  N_31
    7  A    between atoms: C_7  and  O_27
    8  A    between atoms: C_7  and  N_31
    9  A    between atoms: O_8  and  C_19
   10  A    between atoms: C_10  and  C_26
   11  A    between atoms: C_10  and  O_27
   12  A    between atoms: C_14  and  N_31
                            x       y       z     vdW  Elec       q    Type
                         _______ _______ _______ _____ _____    ______ ____

>  <TORSDO>
F 12

$$$$
=
 OpenBabel10262422533D

 37 40  0  0  1  0  0  0  0  0999 V2000
  189.8490  175.6770  136.5440 C   0  0  1  0  0  0  0  0  0  0  0  0
  188.3500  176.0820  136.6160 C   0  0  2  0  0  3  0  0  0  0  0  0
  189.2390  179.5640  137.7230 N   0  0  0  0  0  1  0  0  0  0  0  0
  188.1930  177.6050  136.7200 C   0  0  2  0  0  3  0  0  0  0  0  0
  188.8300  178.1960  138.0030 C   0  0  1  0  0  0  0  0  0  0  0  0
  190.7580  176.7150  137.2500 C   0  0  0  0  0  2  0  0  0  0  0  0
  190.0660  177.3870  138.4340 C   0  0  0  0  0  2  0  0  0  0  0  0
  186.7630  178.0590  136.4510 C   0  0  0  0  0  1  0  0  0  0  0  0
  190.0180  174.4360  137.1680 O   0  0  0  0  0  1  0  0  0  0  0  0
  190.1760  175.5190  135.0340 C   0  0  2  0  0  3  0  0  0  0  0  0
  191.4910  174.9190  134.6250 C   0  0  1  0  0  3  0  0  0  0  0  0
  191.2740  176.3110  134.6350 O   0  0  0  0  0  0  0  0  0  0  0  0
  192.4450  174.5320  135.7530 C   0  0  1  0  0  3  0  0  0  0  0  0
  192.4170  173.1490  135.9440 O   0  0  0  0  0  1  0  0  0  0  0  0
  196.1400  174.2820  134.5940 C   0  0  0  0  0  2  0  0  0  0  0  0
  194.2350  176.4010  135.8050 C   0  0  0  0  0  2  0  0  0  0  0  0
  194.7080  174.0520  135.0020 C   0  0  0  0  0  3  0  0  0  0  0  0
  195.1860  177.0150  134.7880 C   0  0  0  0  0  2  0  0  0  0  0  0
  198.3520  174.9290  135.5080 C   0  0  0  0  0  1  0  0  0  0  0  0
  196.6440  176.6890  135.1280 C   0  0  0  0  0  2  0  0  0  0  0  0
  196.8690  175.2300  135.5340 C   0  0  1  0  0  3  0  0  0  0  0  0
  193.8440  174.9800  135.4600 C   0  0  0  0  0  0  0  0  0  0  0  0
  186.7310  174.6380  137.0770 C   0  0  0  0  0  1  0  0  0  0  0  0
  187.6920  175.4510  137.6800 O   0  0  0  0  0  0  0  0  0  0  0  0
  187.8300  178.1940  139.1640 C   0  0  0  0  0  2  0  0  0  0  0  0
  188.2610  177.3630  140.2030 O   0  0  0  0  0  0  0  0  0  0  0  0
  188.0430  178.1070  141.3630 C   0  0  0  0  0  2  0  0  0  0  0  0
  187.8400  177.2070  142.4960 N   0  0  0  0  0  0  0  0  0  0  0  0
  190.0850  178.2470  143.1020 C   0  0  0  0  0  2  0  0  0  0  0  0
  189.0050  177.2190  143.3900 C   0  0  2  0  0  0  0  0  0  0  0  0
  191.2160  176.1580  143.6030 N   0  0  0  0  0  1  0  0  0  0  0  0
  190.2880  176.7960  142.6830 C   0  0  2  0  0  3  0  0  0  0  0  0
  188.8630  176.7180  144.7030 O   0  0  0  0  0  0  0  0  0  0  0  0
  187.8320  177.8150  146.5470 C   0  0  0  0  0  1  0  0  0  0  0  0
  188.9960  177.8040  145.5780 C   0  0  0  0  0  2  0  0  0  0  0  0
  186.5920  177.5180  143.2110 C   0  0  0  0  0  2  0  0  0  0  0  0
  185.7010  178.5220  142.4830 C   0  0  0  0  0  1  0  0  0  0  0  0
  1  2  1  0  0  0  0
  1  9  1  1  0  0  0
  1  6  1  0  0  0  0
  2  4  1  0  0  0  0
  2 24  1  1  0  0  0
  4  8  1  1  0  0  0
  4  5  1  0  0  0  0
  5  3  1  6  0  0  0
  5  7  1  0  0  0  0
  5 25  1  0  0  0  0
  6  7  1  0  0  0  0
 10 12  1  6  0  0  0
 10  1  1  0  0  0  0
 11 12  1  0  0  0  0
 11 10  1  0  0  0  0
 11 13  1  1  0  0  0
 13 14  1  6  0  0  0
 15 17  1  0  0  0  0
 15 21  1  0  0  0  0
 17 22  2  0  0  0  0
 18 20  1  0  0  0  0
 18 16  1  0  0  0  0
 20 21  1  0  0  0  0
 21 19  1  6  0  0  0
 22 13  1  0  0  0  0
 22 16  1  0  0  0  0
 23 24  1  0  0  0  0
 25 26  1  0  0  0  0
 26 27  1  0  0  0  0
 27 28  1  0  0  0  0
 28 36  1  0  0  0  0
 28 30  1  0  0  0  0
 29 30  1  0  0  0  0
 30 33  1  1  0  0  0
 32 29  1  0  0  0  0
 32 30  1  0  0  0  0
 32 31  1  1  0  0  0
 33 35  1  0  0  0  0
 35 34  1  0  0  0  0
 37 36  1  0  0  0  0
M  END
>  <MODEL>
5

>  <REMARK>
 VINA RESULT:      -5.8      7.023     10.416
  Name = 
  12 active torsions:
  status: ('A' for Active; 'I' for Inactive)
    1  A    between atoms: C_1  and  C_20
    2  A    between atoms: C_3  and  C_21
    3  A    between atoms: C_3  and  C_30
    4  A    between atoms: C_5  and  O_23
    5  A    between atoms: C_6  and  O_8
    6  A    between atoms: C_6  and  N_31
    7  A    between atoms: C_7  and  O_27
    8  A    between atoms: C_7  and  N_31
    9  A    between atoms: O_8  and  C_19
   10  A    between atoms: C_10  and  C_26
   11  A    between atoms: C_10  and  O_27
   12  A    between atoms: C_14  and  N_31
                            x       y       z     vdW  Elec       q    Type
                         _______ _______ _______ _____ _____    ______ ____

>  <TORSDO>
F 12

$$$$
=
 OpenBabel10262422533D

 37 40  0  0  1  0  0  0  0  0999 V2000
  189.6980  176.9790  140.1330 C   0  0  1  0  0  0  0  0  0  0  0  0
  190.1250  176.5810  138.6930 C   0  0  2  0  0  3  0  0  0  0  0  0
  188.2330  179.4770  137.2200 N   0  0  0  0  0  1  0  0  0  0  0  0
  189.8480  177.7170  137.6990 C   0  0  2  0  0  3  0  0  0  0  0  0
  188.3440  178.0740  137.5860 C   0  0  1  0  0  0  0  0  0  0  0  0
  188.5500  178.0220  140.1230 C   0  0  0  0  0  2  0  0  0  0  0  0
  187.6180  177.8520  138.9250 C   0  0  0  0  0  2  0  0  0  0  0  0
  190.5540  177.5030  136.3650 C   0  0  0  0  0  1  0  0  0  0  0  0
  189.2600  175.8390  140.8130 O   0  0  0  0  0  1  0  0  0  0  0  0
  190.9820  177.5060  140.8290 C   0  0  2  0  0  3  0  0  0  0  0  0
  191.3260  177.0170  142.2070 C   0  0  1  0  0  3  0  0  0  0  0  0
  190.6970  178.2590  141.9880 O   0  0  0  0  0  0  0  0  0  0  0  0
  190.3430  176.0400  142.8490 C   0  0  1  0  0  3  0  0  0  0  0  0
  191.0280  174.9180  143.3180 O   0  0  0  0  0  1  0  0  0  0  0  0
  189.7720  177.8540  146.2310 C   0  0  0  0  0  2  0  0  0  0  0  0
  188.0760  176.6940  143.9140 C   0  0  0  0  0  2  0  0  0  0  0  0
  190.3050  177.1310  145.0230 C   0  0  0  0  0  3  0  0  0  0  0  0
  187.4720  177.9770  144.4660 C   0  0  0  0  0  2  0  0  0  0  0  0
  188.3080  177.5400  148.2090 C   0  0  0  0  0  1  0  0  0  0  0  0
  187.2670  177.8840  145.9820 C   0  0  0  0  0  2  0  0  0  0  0  0
  188.4560  177.2710  146.7260 C   0  0  1  0  0  3  0  0  0  0  0  0
  189.5890  176.6870  143.9710 C   0  0  0  0  0  0  0  0  0  0  0  0
  190.4980  174.6640  137.6400 C   0  0  0  0  0  1  0  0  0  0  0  0
  189.4950  175.4020  138.2720 O   0  0  0  0  0  0  0  0  0  0  0  0
  187.6540  177.2160  136.5210 C   0  0  0  0  0  2  0  0  0  0  0  0
  186.4400  176.7050  136.9900 O   0  0  0  0  0  0  0  0  0  0  0  0
  185.5000  177.0970  136.0350 C   0  0  0  0  0  2  0  0  0  0  0  0
  184.1510  176.9010  136.5600 N   0  0  0  0  0  0  0  0  0  0  0  0
  183.7640  175.0810  134.8220 C   0  0  0  0  0  2  0  0  0  0  0  0
  183.6640  175.5480  136.2630 C   0  0  2  0  0  0  0  0  0  0  0  0
  181.5790  174.4020  135.6330 N   0  0  0  0  0  1  0  0  0  0  0  0
  182.4250  175.5550  135.3740 C   0  0  2  0  0  3  0  0  0  0  0  0
  183.6410  174.5880  137.2990 O   0  0  0  0  0  0  0  0  0  0  0  0
  184.1920  172.2740  137.2200 C   0  0  0  0  0  1  0  0  0  0  0  0
  184.6930  173.6950  137.0610 C   0  0  0  0  0  2  0  0  0  0  0  0
  184.0850  177.2090  137.9970 C   0  0  0  0  0  2  0  0  0  0  0  0
  183.1830  178.3960  138.3300 C   0  0  0  0  0  1  0  0  0  0  0  0
  1  9  1  1  0  0  0
  1 10  1  0  0  0  0
  2 24  1  6  0  0  0
  2  1  1  0  0  0  0
  4  8  1  6  0  0  0
  4  2  1  0  0  0  0
  5  3  1  6  0  0  0
  5  4  1  0  0  0  0
  5  7  1  0  0  0  0
  6  1  1  0  0  0  0
  7  6  1  0  0  0  0
 10 12  1  1  0  0  0
 10 11  1  0  0  0  0
 11 13  1  1  0  0  0
 12 11  1  0  0  0  0
 13 14  1  1  0  0  0
 13 22  1  0  0  0  0
 15 21  1  0  0  0  0
 16 22  1  0  0  0  0
 16 18  1  0  0  0  0
 17 15  1  0  0  0  0
 18 20  1  0  0  0  0
 20 21  1  0  0  0  0
 21 19  1  1  0  0  0
 22 17  2  0  0  0  0
 23 24  1  0  0  0  0
 25 26  1  0  0  0  0
 25  5  1  0  0  0  0
 27 28  1  0  0  0  0
 27 26  1  0  0  0  0
 28 36  1  0  0  0  0
 29 32  1  0  0  0  0
 29 30  1  0  0  0  0
 30 28  1  0  0  0  0
 30 33  1  1  0  0  0
 32 31  1  1  0  0  0
 32 30  1  0  0  0  0
 35 34  1  0  0  0  0
 35 33  1  0  0  0  0
 36 37  1  0  0  0  0
M  END
>  <MODEL>
6

>  <REMARK>
 VINA RESULT:      -5.7      3.807      6.104
  Name = 
  12 active torsions:
  status: ('A' for Active; 'I' for Inactive)
    1  A    between atoms: C_1  and  C_20
    2  A    between atoms: C_3  and  C_21
    3  A    between atoms: C_3  and  C_30
    4  A    between atoms: C_5  and  O_23
    5  A    between atoms: C_6  and  O_8
    6  A    between atoms: C_6  and  N_31
    7  A    between atoms: C_7  and  O_27
    8  A    between atoms: C_7  and  N_31
    9  A    between atoms: O_8  and  C_19
   10  A    between atoms: C_10  and  C_26
   11  A    between atoms: C_10  and  O_27
   12  A    between atoms: C_14  and  N_31
                            x       y       z     vdW  Elec       q    Type
                         _______ _______ _______ _____ _____    ______ ____

>  <TORSDO>
F 12

$$$$
=
 OpenBabel10262422533D

 37 40  0  0  1  0  0  0  0  0999 V2000
  182.7950  178.6540  140.7520 C   0  0  1  0  0  0  0  0  0  0  0  0
  181.3050  178.8460  140.3530 C   0  0  2  0  0  3  0  0  0  0  0  0
  180.7380  175.1290  140.2860 N   0  0  0  0  0  1  0  0  0  0  0  0
  180.5130  177.5430  140.5280 C   0  0  2  0  0  3  0  0  0  0  0  0
  181.0250  176.3920  139.6250 C   0  0  1  0  0  0  0  0  0  0  0  0
  183.2570  177.1860  140.5580 C   0  0  0  0  0  2  0  0  0  0  0  0
  182.5430  176.4990  139.3960 C   0  0  0  0  0  2  0  0  0  0  0  0
  179.0070  177.7710  140.4770 C   0  0  0  0  0  1  0  0  0  0  0  0
  183.5930  179.4820  139.9560 O   0  0  0  0  0  1  0  0  0  0  0  0
  182.9060  179.1300  142.2260 C   0  0  2  0  0  3  0  0  0  0  0  0
  184.2440  179.1080  142.9080 C   0  0  1  0  0  3  0  0  0  0  0  0
  183.2890  178.0900  143.1000 O   0  0  0  0  0  0  0  0  0  0  0  0
  185.4180  178.5730  142.0900 C   0  0  1  0  0  3  0  0  0  0  0  0
  185.9430  179.5920  141.2930 O   0  0  0  0  0  1  0  0  0  0  0  0
  187.0950  177.3010  145.3500 C   0  0  0  0  0  2  0  0  0  0  0  0
  187.8510  177.7390  142.3790 C   0  0  0  0  0  2  0  0  0  0  0  0
  186.2010  177.8840  144.2880 C   0  0  0  0  0  3  0  0  0  0  0  0
  188.5050  176.4880  142.9470 C   0  0  0  0  0  2  0  0  0  0  0  0
  189.2360  177.7010  146.5370 C   0  0  0  0  0  1  0  0  0  0  0  0
  189.2910  176.8060  144.2230 C   0  0  0  0  0  2  0  0  0  0  0  0
  188.5460  177.7300  145.1900 C   0  0  1  0  0  3  0  0  0  0  0  0
  186.4880  178.0120  142.9770 C   0  0  0  0  0  0  0  0  0  0  0  0
  180.7410  180.6400  139.1760 C   0  0  0  0  0  1  0  0  0  0  0  0
  181.1770  179.3200  139.0400 O   0  0  0  0  0  0  0  0  0  0  0  0
  180.3340  176.4180  138.2580 C   0  0  0  0  0  2  0  0  0  0  0  0
  179.6920  175.2030  137.9920 O   0  0  0  0  0  0  0  0  0  0  0  0
  179.8990  174.9870  136.6280 C   0  0  0  0  0  2  0  0  0  0  0  0
  181.2430  174.4570  136.4110 N   0  0  0  0  0  0  0  0  0  0  0  0
  180.7760  172.2430  137.5820 C   0  0  0  0  0  2  0  0  0  0  0  0
  181.2220  172.9900  136.3360 C   0  0  2  0  0  0  0  0  0  0  0  0
  182.7170  171.0720  136.7140 N   0  0  0  0  0  1  0  0  0  0  0  0
  182.2600  172.3440  137.2480 C   0  0  2  0  0  3  0  0  0  0  0  0
  181.0790  172.3730  135.0740 O   0  0  0  0  0  0  0  0  0  0  0  0
  179.7650  170.4450  134.6060 C   0  0  0  0  0  1  0  0  0  0  0  0
  179.7600  171.9110  134.9840 C   0  0  0  0  0  2  0  0  0  0  0  0
  181.8730  175.0610  135.2270 C   0  0  0  0  0  2  0  0  0  0  0  0
  183.2140  175.7310  135.5200 C   0  0  0  0  0  1  0  0  0  0  0  0
  1  9  1  6  0  0  0
  1 10  1  0  0  0  0
  2 24  1  6  0  0  0
  2  4  1  0  0  0  0
  2  1  1  0  0  0  0
  4  8  1  6  0  0  0
  5  3  1  1  0  0  0
  5  4  1  0  0  0  0
  6  1  1  0  0  0  0
  7  5  1  0  0  0  0
  7  6  1  0  0  0  0
 10 11  1  0  0  0  0
 10 12  1  1  0  0  0
 11 13  1  6  0  0  0
 11 12  1  0  0  0  0
 13 14  1  1  0  0  0
 13 22  1  0  0  0  0
 16 18  1  0  0  0  0
 16 22  1  0  0  0  0
 17 15  1  0  0  0  0
 18 20  1  0  0  0  0
 20 21  1  0  0  0  0
 21 15  1  0  0  0  0
 21 19  1  1  0  0  0
 22 17  2  0  0  0  0
 24 23  1  0  0  0  0
 25  5  1  0  0  0  0
 26 25  1  0  0  0  0
 27 26  1  0  0  0  0
 28 27  1  0  0  0  0
 30 33  1  6  0  0  0
 30 28  1  0  0  0  0
 30 32  1  0  0  0  0
 30 29  1  0  0  0  0
 32 31  1  6  0  0  0
 32 29  1  0  0  0  0
 34 35  1  0  0  0  0
 35 33  1  0  0  0  0
 36 37  1  0  0  0  0
 36 28  1  0  0  0  0
M  END
>  <MODEL>
7

>  <REMARK>
 VINA RESULT:      -5.6      1.147      2.098
  Name = 
  12 active torsions:
  status: ('A' for Active; 'I' for Inactive)
    1  A    between atoms: C_1  and  C_20
    2  A    between atoms: C_3  and  C_21
    3  A    between atoms: C_3  and  C_30
    4  A    between atoms: C_5  and  O_23
    5  A    between atoms: C_6  and  O_8
    6  A    between atoms: C_6  and  N_31
    7  A    between atoms: C_7  and  O_27
    8  A    between atoms: C_7  and  N_31
    9  A    between atoms: O_8  and  C_19
   10  A    between atoms: C_10  and  C_26
   11  A    between atoms: C_10  and  O_27
   12  A    between atoms: C_14  and  N_31
                            x       y       z     vdW  Elec       q    Type
                         _______ _______ _______ _____ _____    ______ ____

>  <TORSDO>
F 12

$$$$
=
 OpenBabel10262422533D

 37 40  0  0  1  0  0  0  0  0999 V2000
  190.0810  177.1920  141.3320 C   0  0  1  0  0  0  0  0  0  0  0  0
  190.4150  177.3910  139.8270 C   0  0  2  0  0  3  0  0  0  0  0  0
  186.9450  178.6570  139.1210 N   0  0  0  0  0  1  0  0  0  0  0  0
  189.3470  178.2470  139.1320 C   0  0  2  0  0  3  0  0  0  0  0  0
  187.9400  177.5960  139.1480 C   0  0  1  0  0  0  0  0  0  0  0  0
  188.5550  177.2700  141.5970 C   0  0  0  0  0  2  0  0  0  0  0  0
  187.7320  176.7530  140.4190 C   0  0  0  0  0  2  0  0  0  0  0  0
  189.8040  178.7440  137.7660 C   0  0  0  0  0  1  0  0  0  0  0  0
  190.5420  175.9370  141.7410 O   0  0  0  0  0  1  0  0  0  0  0  0
  190.8800  178.2830  142.0950 C   0  0  2  0  0  3  0  0  0  0  0  0
  191.1910  178.0860  143.5510 C   0  0  1  0  0  3  0  0  0  0  0  0
  190.1200  178.8930  143.1160 O   0  0  0  0  0  0  0  0  0  0  0  0
  190.6540  176.8100  144.1960 C   0  0  1  0  0  3  0  0  0  0  0  0
  191.6830  176.1540  144.8740 O   0  0  0  0  0  1  0  0  0  0  0  0
  186.9970  177.1360  145.4510 C   0  0  0  0  0  2  0  0  0  0  0  0
  189.8590  177.6880  146.4980 C   0  0  0  0  0  2  0  0  0  0  0  0
  188.2730  176.9460  144.6740 C   0  0  0  0  0  3  0  0  0  0  0  0
  188.9480  177.1630  147.5980 C   0  0  0  0  0  2  0  0  0  0  0  0
  185.6400  178.8740  146.5870 C   0  0  0  0  0  1  0  0  0  0  0  0
  187.6760  178.0080  147.7130 C   0  0  0  0  0  2  0  0  0  0  0  0
  187.0440  178.3540  146.3620 C   0  0  1  0  0  3  0  0  0  0  0  0
  189.5280  177.1100  145.1380 C   0  0  0  0  0  0  0  0  0  0  0  0
  191.8210  176.2390  138.5570 C   0  0  0  0  0  1  0  0  0  0  0  0
  190.5660  176.1670  139.1630 O   0  0  0  0  0  0  0  0  0  0  0  0
  187.7430  176.6840  137.9330 C   0  0  0  0  0  2  0  0  0  0  0  0
  186.6300  177.0760  137.1810 O   0  0  0  0  0  0  0  0  0  0  0  0
  185.7780  175.9700  137.2130 C   0  0  0  0  0  2  0  0  0  0  0  0
  185.9020  175.2160  135.9670 N   0  0  0  0  0  0  0  0  0  0  0  0
  186.5030  173.1940  137.3940 C   0  0  0  0  0  2  0  0  0  0  0  0
  185.7520  173.7750  136.2090 C   0  0  2  0  0  0  0  0  0  0  0  0
  186.7910  171.6450  135.5470 N   0  0  0  0  0  1  0  0  0  0  0  0
  187.0500  173.0070  135.9830 C   0  0  2  0  0  3  0  0  0  0  0  0
  184.5900  173.1220  135.7410 O   0  0  0  0  0  0  0  0  0  0  0  0
  183.2610  171.4790  136.8350 C   0  0  0  0  0  1  0  0  0  0  0  0
  183.7590  172.9090  136.8480 C   0  0  0  0  0  2  0  0  0  0  0  0
  184.9610  175.7060  134.9480 C   0  0  0  0  0  2  0  0  0  0  0  0
  183.7510  176.4350  135.5290 C   0  0  0  0  0  1  0  0  0  0  0  0
  1  6  1  0  0  0  0
  1  9  1  1  0  0  0
  1 10  1  0  0  0  0
  2 24  1  6  0  0  0
  2  1  1  0  0  0  0
  4  8  1  6  0  0  0
  4  5  1  0  0  0  0
  4  2  1  0  0  0  0
  5  3  1  6  0  0  0
  5  7  1  0  0  0  0
  7  6  1  0  0  0  0
 10 12  1  1  0  0  0
 10 11  1  0  0  0  0
 11 13  1  1  0  0  0
 12 11  1  0  0  0  0
 13 14  1  1  0  0  0
 13 22  1  0  0  0  0
 15 21  1  0  0  0  0
 16 18  1  0  0  0  0
 17 22  2  0  0  0  0
 17 15  1  0  0  0  0
 18 20  1  0  0  0  0
 21 19  1  1  0  0  0
 21 20  1  0  0  0  0
 22 16  1  0  0  0  0
 23 24  1  0  0  0  0
 25  5  1  0  0  0  0
 26 27  1  0  0  0  0
 26 25  1  0  0  0  0
 28 30  1  0  0  0  0
 28 27  1  0  0  0  0
 30 33  1  6  0  0  0
 30 29  1  0  0  0  0
 32 31  1  6  0  0  0
 32 30  1  0  0  0  0
 32 29  1  0  0  0  0
 33 35  1  0  0  0  0
 34 35  1  0  0  0  0
 36 37  1  0  0  0  0
 36 28  1  0  0  0  0
M  END
>  <MODEL>
8

>  <REMARK>
 VINA RESULT:      -5.5      3.954      6.131
  Name = 
  12 active torsions:
  status: ('A' for Active; 'I' for Inactive)
    1  A    between atoms: C_1  and  C_20
    2  A    between atoms: C_3  and  C_21
    3  A    between atoms: C_3  and  C_30
    4  A    between atoms: C_5  and  O_23
    5  A    between atoms: C_6  and  O_8
    6  A    between atoms: C_6  and  N_31
    7  A    between atoms: C_7  and  O_27
    8  A    between atoms: C_7  and  N_31
    9  A    between atoms: O_8  and  C_19
   10  A    between atoms: C_10  and  C_26
   11  A    between atoms: C_10  and  O_27
   12  A    between atoms: C_14  and  N_31
                            x       y       z     vdW  Elec       q    Type
                         _______ _______ _______ _____ _____    ______ ____

>  <TORSDO>
F 12

$$$$
=
 OpenBabel10262422533D

 37 40  0  0  1  0  0  0  0  0999 V2000
  189.9250  175.5940  136.5900 C   0  0  1  0  0  0  0  0  0  0  0  0
  188.4230  175.9890  136.6650 C   0  0  2  0  0  3  0  0  0  0  0  0
  189.2850  179.4220  137.9360 N   0  0  0  0  0  1  0  0  0  0  0  0
  188.2580  177.5050  136.8360 C   0  0  2  0  0  3  0  0  0  0  0  0
  188.8800  178.0410  138.1510 C   0  0  1  0  0  0  0  0  0  0  0  0
  190.8230  176.6040  137.3510 C   0  0  0  0  0  2  0  0  0  0  0  0
  190.1150  177.2190  138.5570 C   0  0  0  0  0  2  0  0  0  0  0  0
  186.8280  177.9640  136.5740 C   0  0  0  0  0  1  0  0  0  0  0  0
  190.0950  174.3280  137.1590 O   0  0  0  0  0  1  0  0  0  0  0  0
  190.2670  175.5060  135.0780 C   0  0  2  0  0  3  0  0  0  0  0  0
  191.1900  174.4230  134.5940 C   0  0  1  0  0  3  0  0  0  0  0  0
  191.6350  175.7410  134.8210 O   0  0  0  0  0  0  0  0  0  0  0  0
  191.7630  173.4900  135.6580 C   0  0  1  0  0  3  0  0  0  0  0  0
  191.5220  172.1620  135.3030 O   0  0  0  0  0  1  0  0  0  0  0  0
  195.5430  173.4910  134.7830 C   0  0  0  0  0  2  0  0  0  0  0  0
  193.7230  174.2430  137.1720 C   0  0  0  0  0  2  0  0  0  0  0  0
  194.0480  173.3210  134.8410 C   0  0  0  0  0  3  0  0  0  0  0  0
  194.8900  175.2090  137.0280 C   0  0  0  0  0  2  0  0  0  0  0  0
  197.6380  172.7510  135.8860 C   0  0  0  0  0  1  0  0  0  0  0  0
  196.2260  174.4600  137.0030 C   0  0  0  0  0  2  0  0  0  0  0  0
  196.2150  173.2100  136.1190 C   0  0  1  0  0  3  0  0  0  0  0  0
  193.2330  173.7120  135.8420 C   0  0  0  0  0  0  0  0  0  0  0  0
  186.7880  174.5400  137.0480 C   0  0  0  0  0  1  0  0  0  0  0  0
  187.7590  175.3070  137.6940 O   0  0  0  0  0  0  0  0  0  0  0  0
  187.8680  177.9830  139.3000 C   0  0  0  0  0  2  0  0  0  0  0  0
  188.3750  177.2580  140.3840 O   0  0  0  0  0  0  0  0  0  0  0  0
  188.2200  178.1090  141.4800 C   0  0  0  0  0  2  0  0  0  0  0  0
  187.9290  177.3240  142.6770 N   0  0  0  0  0  0  0  0  0  0  0  0
  190.2310  178.2370  143.2720 C   0  0  0  0  0  2  0  0  0  0  0  0
  189.0970  177.2700  143.5650 C   0  0  2  0  0  0  0  0  0  0  0  0
  191.2470  176.0880  143.7660 N   0  0  0  0  0  1  0  0  0  0  0  0
  190.3510  176.7770  142.8510 C   0  0  2  0  0  3  0  0  0  0  0  0
  188.9340  176.7760  144.8790 O   0  0  0  0  0  0  0  0  0  0  0  0
  189.4180  177.3860  147.1280 C   0  0  0  0  0  1  0  0  0  0  0  0
  189.0250  177.8700  145.7480 C   0  0  0  0  0  2  0  0  0  0  0  0
  186.7320  177.8260  143.3700 C   0  0  0  0  0  2  0  0  0  0  0  0
  185.6090  178.2500  142.4250 C   0  0  0  0  0  1  0  0  0  0  0  0
  1  2  1  0  0  0  0
  1  9  1  1  0  0  0
  1  6  1  0  0  0  0
  2  4  1  0  0  0  0
  2 24  1  1  0  0  0
  4  8  1  1  0  0  0
  4  5  1  0  0  0  0
  5  3  1  6  0  0  0
  5  7  1  0  0  0  0
  5 25  1  0  0  0  0
  6  7  1  0  0  0  0
 10 12  1  1  0  0  0
 10  1  1  0  0  0  0
 11 12  1  0  0  0  0
 11 10  1  0  0  0  0
 11 13  1  1  0  0  0
 13 14  1  6  0  0  0
 13 22  1  0  0  0  0
 15 17  1  0  0  0  0
 15 21  1  0  0  0  0
 17 22  2  0  0  0  0
 18 16  1  0  0  0  0
 20 18  1  0  0  0  0
 21 19  1  6  0  0  0
 21 20  1  0  0  0  0
 22 16  1  0  0  0  0
 23 24  1  0  0  0  0
 25 26  1  0  0  0  0
 26 27  1  0  0  0  0
 27 28  1  0  0  0  0
 28 36  1  0  0  0  0
 28 30  1  0  0  0  0
 29 30  1  0  0  0  0
 30 33  1  1  0  0  0
 32 29  1  0  0  0  0
 32 30  1  0  0  0  0
 32 31  1  1  0  0  0
 33 35  1  0  0  0  0
 35 34  1  0  0  0  0
 37 36  1  0  0  0  0
M  END
>  <MODEL>
9

>  <REMARK>
 VINA RESULT:      -5.4      6.693     10.376
  Name = 
  12 active torsions:
  status: ('A' for Active; 'I' for Inactive)
    1  A    between atoms: C_1  and  C_20
    2  A    between atoms: C_3  and  C_21
    3  A    between atoms: C_3  and  C_30
    4  A    between atoms: C_5  and  O_23
    5  A    between atoms: C_6  and  O_8
    6  A    between atoms: C_6  and  N_31
    7  A    between atoms: C_7  and  O_27
    8  A    between atoms: C_7  and  N_31
    9  A    between atoms: O_8  and  C_19
   10  A    between atoms: C_10  and  C_26
   11  A    between atoms: C_10  and  O_27
   12  A    between atoms: C_14  and  N_31
                            x       y       z     vdW  Elec       q    Type
                         _______ _______ _______ _____ _____    ______ ____

>  <TORSDO>
F 12

$$$$
