=
 OpenBabel10252414483D

 34 38  0  0  1  0  0  0  0  0999 V2000
  187.2920  177.8630  137.7540 C   0  0  0  0  0  0  0  0  0  0  0  0
  188.5500  177.9100  139.9020 C   0  0  0  0  0  0  0  0  0  0  0  0
  189.4410  176.6650  137.8630 C   0  0  0  0  0  0  0  0  0  0  0  0
  191.6400  174.6150  137.1750 C   0  0  0  0  0  3  0  0  0  0  0  0
  187.7570  178.7080  140.4680 O   0  0  0  0  0  0  0  0  0  0  0  0
  190.8000  177.0070  139.8180 N   0  0  0  0  0  2  0  0  0  0  0  0
  188.3640  177.4860  138.4890 C   0  0  2  0  0  3  0  0  0  0  0  0
  191.7700  175.7600  137.8670 C   0  0  0  0  0  0  0  0  0  0  0  0
  189.2230  176.0720  136.4980 C   0  0  0  0  0  0  0  0  0  0  0  0
  187.1930  177.4830  136.3250 C   0  0  0  0  0  3  0  0  0  0  0  0
  189.6820  177.3430  140.6910 C   0  0  0  0  0  2  0  0  0  0  0  0
  190.3740  173.9370  136.8280 C   0  0  0  0  0  3  0  0  0  0  0  0
  189.2200  174.5620  136.5620 C   0  0  0  0  0  0  0  0  0  0  0  0
  190.6180  176.4720  138.4990 C   0  0  0  0  0  0  0  0  0  0  0  0
  188.0790  176.6810  135.7370 C   0  0  0  0  0  3  0  0  0  0  0  0
  185.8860  172.9060  137.3000 C   0  0  0  0  0  0  0  0  0  0  0  0
  185.6890  172.1510  136.1410 C   0  0  0  0  0  3  0  0  0  0  0  0
  187.9880  173.7460  136.4090 C   0  0  0  0  0  0  0  0  0  0  0  0
  186.6400  172.1840  135.1180 C   0  0  0  0  0  3  0  0  0  0  0  0
  187.0320  173.6950  137.4350 C   0  0  0  0  0  3  0  0  0  0  0  0
  187.7850  172.9740  135.2530 C   0  0  0  0  0  3  0  0  0  0  0  0
  184.9680  172.8710  138.2950 F   0  0  0  0  0  0  0  0  0  0  0  0
  184.9090  178.2360  138.3110 C   0  0  0  0  0  1  0  0  0  0  0  0
  186.2740  178.6290  138.3330 O   0  0  0  0  0  0  0  0  0  0  0  0
  193.1020  176.2320  138.0840 N   0  0  0  0  0  2  0  0  0  0  0  0
  194.8940  175.4560  136.8080 C   0  0  0  0  0  3  0  0  0  0  0  0
  194.2210  175.4110  137.9100 N   0  0  0  0  0  0  0  0  0  0  0  0
  197.1780  176.6710  135.9520 O   0  0  0  0  0  1  0  0  0  0  0  0
  196.0900  174.5780  136.6180 C   0  0  1  0  0  3  0  0  0  0  0  0
  197.3120  175.2800  135.9580 C   0  0  2  0  0  3  0  0  0  0  0  0
  198.5800  173.5340  136.7080 C   0  0  0  0  0  2  0  0  0  0  0  0
  197.4120  172.9920  137.5540 C   0  0  0  0  0  2  0  0  0  0  0  0
  196.4660  174.0000  137.8430 O   0  0  0  0  0  0  0  0  0  0  0  0
  198.5130  174.9390  136.6180 O   0  0  0  0  0  0  0  0  0  0  0  0
  1 24  1  0  0  0  0
  2  5  2  0  0  0  0
  2 11  1  0  0  0  0
  3  7  1  0  0  0  0
  3 14  2  0  0  0  0
  4  8  2  0  0  0  0
  6 11  1  0  0  0  0
  7  1  1  6  0  0  0
  7  2  1  0  0  0  0
  8 25  1  0  0  0  0
  8 14  1  0  0  0  0
  9 13  1  0  0  0  0
  9  3  1  0  0  0  0
 10  1  2  0  0  0  0
 12  4  1  0  0  0  0
 13 12  2  0  0  0  0
 14  6  1  0  0  0  0
 15 10  1  0  0  0  0
 15  9  2  0  0  0  0
 16 20  1  0  0  0  0
 16 22  1  0  0  0  0
 17 16  2  0  0  0  0
 18 13  1  0  0  0  0
 18 20  2  0  0  0  0
 19 21  2  0  0  0  0
 19 17  1  0  0  0  0
 21 18  1  0  0  0  0
 23 24  1  0  0  0  0
 26 27  2  0  0  0  0
 27 25  1  0  0  0  0
 29 26  1  1  0  0  0
 29 33  1  0  0  0  0
 30 28  1  1  0  0  0
 30 34  1  0  0  0  0
 30 29  1  0  0  0  0
 31 32  1  0  0  0  0
 32 33  1  0  0  0  0
 34 31  1  0  0  0  0
M  END
>  <MODEL>
1

>  <REMARK>
 VINA RESULT:      -7.3      0.000      0.000
  Name = 
  5 active torsions:
  status: ('A' for Active; 'I' for Inactive)
    1  A    between atoms: C_1  and  O_19
    2  A    between atoms: C_3  and  C_13
    3  A    between atoms: C_12  and  C_28
    4  A    between atoms: N_17  and  N_29
    5  A    between atoms: C_18  and  N_29
                            x       y       z     vdW  Elec       q    Type
                         _______ _______ _______ _____ _____    ______ ____

>  <TORSDO>
F 5

$$$$
=
 OpenBabel10252414483D

 34 38  0  0  1  0  0  0  0  0999 V2000
  180.9240  178.9000  142.1090 C   0  0  0  0  0  0  0  0  0  0  0  0
  183.2480  178.6650  142.9700 C   0  0  0  0  0  0  0  0  0  0  0  0
  182.7160  178.4300  140.4870 C   0  0  0  0  0  0  0  0  0  0  0  0
  184.0860  177.4490  137.9040 C   0  0  0  0  0  3  0  0  0  0  0  0
  182.9510  178.9760  144.1530 O   0  0  0  0  0  0  0  0  0  0  0  0
  184.9840  178.5510  141.2790 N   0  0  0  0  0  2  0  0  0  0  0  0
  182.2360  178.6580  141.8810 C   0  0  2  0  0  3  0  0  0  0  0  0
  184.5700  178.3110  138.8140 C   0  0  0  0  0  0  0  0  0  0  0  0
  181.7170  178.2460  139.3790 C   0  0  0  0  0  0  0  0  0  0  0  0
  179.9670  178.9640  140.9790 C   0  0  0  0  0  3  0  0  0  0  0  0
  184.6500  178.2530  142.6660 C   0  0  0  0  0  2  0  0  0  0  0  0
  182.9160  176.5620  138.0680 C   0  0  0  0  0  3  0  0  0  0  0  0
  181.8250  176.8610  138.7830 C   0  0  0  0  0  0  0  0  0  0  0  0
  184.0390  178.4160  140.2080 C   0  0  0  0  0  0  0  0  0  0  0  0
  180.3220  178.6850  139.7260 C   0  0  0  0  0  3  0  0  0  0  0  0
  179.6830  174.2330  140.4900 C   0  0  0  0  0  0  0  0  0  0  0  0
  178.9310  173.7490  139.4170 C   0  0  0  0  0  3  0  0  0  0  0  0
  180.8090  175.8010  139.0080 C   0  0  0  0  0  0  0  0  0  0  0  0
  179.1170  174.2810  138.1380 C   0  0  0  0  0  3  0  0  0  0  0  0
  180.6210  175.2490  140.2840 C   0  0  0  0  0  3  0  0  0  0  0  0
  180.0540  175.2990  137.9340 C   0  0  0  0  0  3  0  0  0  0  0  0
  179.5080  173.7150  141.7290 F   0  0  0  0  0  0  0  0  0  0  0  0
  179.1610  179.6050  143.6980 C   0  0  0  0  0  1  0  0  0  0  0  0
  180.4620  179.1100  143.4140 O   0  0  0  0  0  0  0  0  0  0  0  0
  185.7190  179.0720  138.4330 N   0  0  0  0  0  2  0  0  0  0  0  0
  187.7890  178.1250  138.9390 C   0  0  0  0  0  3  0  0  0  0  0  0
  186.9190  178.4660  138.0480 N   0  0  0  0  0  0  0  0  0  0  0  0
  189.5140  177.4620  140.9420 O   0  0  0  0  0  1  0  0  0  0  0  0
  189.0740  177.4780  138.5300 C   0  0  1  0  0  3  0  0  0  0  0  0
  190.1000  177.2850  139.6850 C   0  0  2  0  0  3  0  0  0  0  0  0
  191.1820  175.8010  138.3270 C   0  0  0  0  0  2  0  0  0  0  0  0
  190.0280  175.8250  137.3060 C   0  0  0  0  0  2  0  0  0  0  0  0
  188.8180  176.2490  137.8980 O   0  0  0  0  0  0  0  0  0  0  0  0
  190.6900  176.0030  139.6310 O   0  0  0  0  0  0  0  0  0  0  0  0
  1 24  1  0  0  0  0
  2  5  2  0  0  0  0
  4 12  1  0  0  0  0
  4  8  2  0  0  0  0
  6 11  1  0  0  0  0
  7  3  1  6  0  0  0
  7  1  1  0  0  0  0
  7  2  1  0  0  0  0
  8 14  1  0  0  0  0
  9 15  2  0  0  0  0
  9  3  1  0  0  0  0
 10  1  2  0  0  0  0
 11  2  1  0  0  0  0
 12 13  2  0  0  0  0
 13 18  1  0  0  0  0
 13  9  1  0  0  0  0
 14  3  2  0  0  0  0
 14  6  1  0  0  0  0
 15 10  1  0  0  0  0
 16 22  1  0  0  0  0
 17 16  2  0  0  0  0
 18 20  2  0  0  0  0
 19 17  1  0  0  0  0
 20 16  1  0  0  0  0
 21 19  2  0  0  0  0
 21 18  1  0  0  0  0
 24 23  1  0  0  0  0
 25  8  1  0  0  0  0
 27 25  1  0  0  0  0
 27 26  2  0  0  0  0
 29 26  1  1  0  0  0
 29 30  1  0  0  0  0
 30 28  1  1  0  0  0
 31 34  1  0  0  0  0
 32 33  1  0  0  0  0
 32 31  1  0  0  0  0
 33 29  1  0  0  0  0
 34 30  1  0  0  0  0
M  END
>  <MODEL>
2

>  <REMARK>
 VINA RESULT:      -7.2      4.740      7.734
  Name = 
  5 active torsions:
  status: ('A' for Active; 'I' for Inactive)
    1  A    between atoms: C_1  and  O_19
    2  A    between atoms: C_3  and  C_13
    3  A    between atoms: C_12  and  C_28
    4  A    between atoms: N_17  and  N_29
    5  A    between atoms: C_18  and  N_29
                            x       y       z     vdW  Elec       q    Type
                         _______ _______ _______ _____ _____    ______ ____

>  <TORSDO>
F 5

$$$$
=
 OpenBabel10252414483D

 34 38  0  0  1  0  0  0  0  0999 V2000
  185.5250  178.4860  144.3600 C   0  0  0  0  0  0  0  0  0  0  0  0
  187.4150  176.8850  144.1130 C   0  0  0  0  0  0  0  0  0  0  0  0
  186.5990  178.2950  142.1520 C   0  0  0  0  0  0  0  0  0  0  0  0
  186.9470  178.4330  139.0910 C   0  0  0  0  0  3  0  0  0  0  0  0
  187.4550  176.5840  145.3360 O   0  0  0  0  0  0  0  0  0  0  0  0
  188.6300  177.0130  142.0170 N   0  0  0  0  0  2  0  0  0  0  0  0
  186.4620  177.8940  143.5820 C   0  0  0  0  0  0  0  0  0  0  0  0
  187.9100  178.3620  140.0250 C   0  0  0  0  0  0  0  0  0  0  0  0
  185.5570  179.1810  141.5270 C   0  0  1  0  0  3  0  0  0  0  0  0
  184.6520  179.5470  143.8030 C   0  0  0  0  0  3  0  0  0  0  0  0
  188.3260  176.1740  143.1690 C   0  0  0  0  0  2  0  0  0  0  0  0
  185.5060  178.1800  139.2930 C   0  0  0  0  0  3  0  0  0  0  0  0
  184.8320  178.4560  140.4160 C   0  0  0  0  0  0  0  0  0  0  0  0
  187.6640  177.8920  141.4230 C   0  0  0  0  0  0  0  0  0  0  0  0
  184.6710  179.8850  142.5150 C   0  0  0  0  0  3  0  0  0  0  0  0
  181.6920  176.3640  140.0000 C   0  0  0  0  0  0  0  0  0  0  0  0
  180.7610  177.1150  140.7220 C   0  0  0  0  0  3  0  0  0  0  0  0
  183.4300  177.9800  140.5400 C   0  0  0  0  0  0  0  0  0  0  0  0
  181.1560  178.3000  141.3480 C   0  0  0  0  0  3  0  0  0  0  0  0
  183.0170  176.7980  139.9050 C   0  0  0  0  0  3  0  0  0  0  0  0
  182.4830  178.7320  141.2540 C   0  0  0  0  0  3  0  0  0  0  0  0
  181.3100  175.2180  139.3880 F   0  0  0  0  0  0  0  0  0  0  0  0
  185.6870  178.9900  146.7780 C   0  0  0  0  0  1  0  0  0  0  0  0
  185.3840  178.1140  145.7020 O   0  0  0  0  0  0  0  0  0  0  0  0
  189.2440  178.6510  139.5980 N   0  0  0  0  0  2  0  0  0  0  0  0
  190.8050  177.0090  139.0450 C   0  0  0  0  0  3  0  0  0  0  0  0
  189.9130  177.8590  138.6590 N   0  0  0  0  0  0  0  0  0  0  0  0
  193.5260  176.9770  139.1970 O   0  0  0  0  0  1  0  0  0  0  0  0
  191.5230  176.1620  138.0420 C   0  0  1  0  0  3  0  0  0  0  0  0
  193.0720  176.3170  138.0520 C   0  0  2  0  0  3  0  0  0  0  0  0
  193.1640  174.3670  136.8660 C   0  0  0  0  0  2  0  0  0  0  0  0
  191.6600  174.1120  137.0820 C   0  0  0  0  0  2  0  0  0  0  0  0
  191.1700  174.8110  138.2070 O   0  0  0  0  0  0  0  0  0  0  0  0
  193.7100  175.0600  137.9640 O   0  0  0  0  0  0  0  0  0  0  0  0
  1 24  1  0  0  0  0
  2  5  2  0  0  0  0
  3  7  1  0  0  0  0
  4 12  1  0  0  0  0
  4  8  2  0  0  0  0
  6 11  1  0  0  0  0
  7  2  1  0  0  0  0
  7  1  2  0  0  0  0
  8 14  1  0  0  0  0
  9  3  1  0  0  0  0
  9 15  1  1  0  0  0
 10  1  1  0  0  0  0
 11  2  1  0  0  0  0
 12 13  2  0  0  0  0
 13 18  1  0  0  0  0
 13  9  1  0  0  0  0
 14  6  1  0  0  0  0
 14  3  2  0  0  0  0
 15 10  2  0  0  0  0
 16 17  1  0  0  0  0
 17 19  2  0  0  0  0
 18 21  2  0  0  0  0
 20 16  2  0  0  0  0
 20 18  1  0  0  0  0
 21 19  1  0  0  0  0
 22 16  1  0  0  0  0
 24 23  1  0  0  0  0
 25  8  1  0  0  0  0
 27 26  2  0  0  0  0
 27 25  1  0  0  0  0
 29 30  1  0  0  0  0
 29 33  1  0  0  0  0
 29 26  1  1  0  0  0
 30 28  1  1  0  0  0
 31 32  1  0  0  0  0
 31 34  1  0  0  0  0
 32 33  1  0  0  0  0
 34 30  1  0  0  0  0
M  END
>  <MODEL>
3

>  <REMARK>
 VINA RESULT:      -6.9      3.747      6.298
  Name = 
  5 active torsions:
  status: ('A' for Active; 'I' for Inactive)
    1  A    between atoms: C_1  and  O_19
    2  A    between atoms: C_3  and  C_13
    3  A    between atoms: C_12  and  C_28
    4  A    between atoms: N_17  and  N_29
    5  A    between atoms: C_18  and  N_29
                            x       y       z     vdW  Elec       q    Type
                         _______ _______ _______ _____ _____    ______ ____

>  <TORSDO>
F 5

$$$$
=
 OpenBabel10252414483D

 34 38  0  0  1  0  0  0  0  0999 V2000
  190.8030  174.3420  136.2710 C   0  0  0  0  0  0  0  0  0  0  0  0
  192.8090  175.6590  136.9300 C   0  0  0  0  0  0  0  0  0  0  0  0
  190.6120  175.8470  138.2100 C   0  0  0  0  0  0  0  0  0  0  0  0
  189.3130  177.6680  140.3330 C   0  0  0  0  0  3  0  0  0  0  0  0
  193.5710  175.1150  136.0870 O   0  0  0  0  0  0  0  0  0  0  0  0
  192.6380  176.8420  139.0410 N   0  0  0  0  0  2  0  0  0  0  0  0
  191.3870  175.2550  137.0810 C   0  0  2  0  0  3  0  0  0  0  0  0
  190.5260  177.0920  140.3760 C   0  0  0  0  0  0  0  0  0  0  0  0
  189.1320  175.6010  138.3040 C   0  0  0  0  0  0  0  0  0  0  0  0
  189.4060  173.9100  136.5140 C   0  0  0  0  0  3  0  0  0  0  0  0
  193.3450  176.7720  137.7680 C   0  0  0  0  0  2  0  0  0  0  0  0
  188.4400  177.7920  139.1480 C   0  0  0  0  0  3  0  0  0  0  0  0
  188.3620  176.8930  138.1590 C   0  0  0  0  0  0  0  0  0  0  0  0
  191.2330  176.5780  139.1620 C   0  0  0  0  0  0  0  0  0  0  0  0
  188.6400  174.4650  137.4510 C   0  0  0  0  0  3  0  0  0  0  0  0
  185.4400  177.4860  135.8100 C   0  0  0  0  0  0  0  0  0  0  0  0
  186.1010  177.8300  134.6270 C   0  0  0  0  0  3  0  0  0  0  0  0
  187.5780  177.2380  136.9450 C   0  0  0  0  0  0  0  0  0  0  0  0
  187.4970  177.8720  134.5960 C   0  0  0  0  0  3  0  0  0  0  0  0
  186.1760  177.1870  136.9600 C   0  0  0  0  0  3  0  0  0  0  0  0
  188.2320  177.5740  135.7470 C   0  0  0  0  0  3  0  0  0  0  0  0
  184.0870  177.4390  135.8410 F   0  0  0  0  0  0  0  0  0  0  0  0
  191.4820  172.3970  134.8970 C   0  0  0  0  0  1  0  0  0  0  0  0
  191.5190  173.7830  135.2050 O   0  0  0  0  0  0  0  0  0  0  0  0
  191.1930  177.0870  141.6410 N   0  0  0  0  0  2  0  0  0  0  0  0
  190.2920  177.5470  143.7420 C   0  0  0  0  0  3  0  0  0  0  0  0
  190.5530  176.6840  142.8170 N   0  0  0  0  0  0  0  0  0  0  0  0
  191.8700  177.2380  145.9420 O   0  0  0  0  0  1  0  0  0  0  0  0
  189.6090  177.1180  145.0020 C   0  0  1  0  0  3  0  0  0  0  0  0
  190.5710  176.7800  146.1790 C   0  0  2  0  0  3  0  0  0  0  0  0
  188.7600  176.9460  147.5610 C   0  0  0  0  0  2  0  0  0  0  0  0
  187.8880  177.5140  146.4240 C   0  0  0  0  0  2  0  0  0  0  0  0
  188.6750  178.0900  145.4020 O   0  0  0  0  0  0  0  0  0  0  0  0
  190.1040  177.3320  147.3920 O   0  0  0  0  0  0  0  0  0  0  0  0
  1 10  2  0  0  0  0
  2  7  1  0  0  0  0
  2 11  1  0  0  0  0
  3  9  1  0  0  0  0
  3 14  2  0  0  0  0
  4  8  2  0  0  0  0
  5  2  2  0  0  0  0
  6 14  1  0  0  0  0
  7  1  1  1  0  0  0
  7  3  1  0  0  0  0
  8 25  1  0  0  0  0
 10 15  1  0  0  0  0
 11  6  1  0  0  0  0
 12  4  1  0  0  0  0
 13  9  1  0  0  0  0
 13 12  2  0  0  0  0
 14  8  1  0  0  0  0
 15  9  2  0  0  0  0
 16 22  1  0  0  0  0
 16 20  1  0  0  0  0
 17 16  2  0  0  0  0
 18 20  2  0  0  0  0
 18 13  1  0  0  0  0
 19 17  1  0  0  0  0
 19 21  2  0  0  0  0
 21 18  1  0  0  0  0
 23 24  1  0  0  0  0
 24  1  1  0  0  0  0
 25 27  1  0  0  0  0
 27 26  2  0  0  0  0
 29 26  1  6  0  0  0
 29 33  1  0  0  0  0
 29 30  1  0  0  0  0
 30 28  1  6  0  0  0
 30 34  1  0  0  0  0
 32 31  1  0  0  0  0
 33 32  1  0  0  0  0
 34 31  1  0  0  0  0
M  END
>  <MODEL>
4

>  <REMARK>
 VINA RESULT:      -6.8      3.404      7.386
  Name = 
  5 active torsions:
  status: ('A' for Active; 'I' for Inactive)
    1  A    between atoms: C_1  and  O_19
    2  A    between atoms: C_3  and  C_13
    3  A    between atoms: C_12  and  C_28
    4  A    between atoms: N_17  and  N_29
    5  A    between atoms: C_18  and  N_29
                            x       y       z     vdW  Elec       q    Type
                         _______ _______ _______ _____ _____    ______ ____

>  <TORSDO>
F 5

$$$$
=
 OpenBabel10252414483D

 34 38  0  0  1  0  0  0  0  0999 V2000
  191.7660  175.6420  138.2950 C   0  0  0  0  0  0  0  0  0  0  0  0
  189.7540  174.5260  137.3450 C   0  0  0  0  0  0  0  0  0  0  0  0
  189.5760  176.7150  138.6390 C   0  0  0  0  0  0  0  0  0  0  0  0
  187.3980  178.4810  139.9230 C   0  0  0  0  0  3  0  0  0  0  0  0
  190.4060  173.6230  136.7570 O   0  0  0  0  0  0  0  0  0  0  0  0
  187.7020  175.8170  137.4290 N   0  0  0  0  0  2  0  0  0  0  0  0
  190.4250  175.6080  138.1120 C   0  0  0  0  0  0  0  0  0  0  0  0
  187.4190  177.9770  138.6780 C   0  0  0  0  0  0  0  0  0  0  0  0
  190.1800  177.7390  139.5600 C   0  0  1  0  0  3  0  0  0  0  0  0
  192.3960  176.7860  138.9950 C   0  0  0  0  0  3  0  0  0  0  0  0
  188.2630  174.4780  137.3040 C   0  0  0  0  0  2  0  0  0  0  0  0
  188.2670  178.0810  141.0490 C   0  0  0  0  0  3  0  0  0  0  0  0
  189.5380  177.6780  140.9260 C   0  0  0  0  0  0  0  0  0  0  0  0
  188.2790  176.8220  138.2740 C   0  0  0  0  0  0  0  0  0  0  0  0
  191.6830  177.7590  139.5610 C   0  0  0  0  0  3  0  0  0  0  0  0
  191.5420  177.4750  144.1440 C   0  0  0  0  0  0  0  0  0  0  0  0
  191.5910  176.0940  144.3530 C   0  0  0  0  0  3  0  0  0  0  0  0
  190.2290  177.1330  142.1230 C   0  0  0  0  0  0  0  0  0  0  0  0
  190.9680  175.2290  143.4480 C   0  0  0  0  0  3  0  0  0  0  0  0
  190.8690  177.9900  143.0330 C   0  0  0  0  0  3  0  0  0  0  0  0
  190.2950  175.7460  142.3370 C   0  0  0  0  0  3  0  0  0  0  0  0
  192.1490  178.3140  145.0160 F   0  0  0  0  0  0  0  0  0  0  0  0
  193.9420  174.7860  137.4820 C   0  0  0  0  0  1  0  0  0  0  0  0
  192.5710  174.6060  137.8090 O   0  0  0  0  0  0  0  0  0  0  0  0
  186.4800  178.5210  137.7470 N   0  0  0  0  0  2  0  0  0  0  0  0
  184.2130  178.1690  138.1700 C   0  0  0  0  0  3  0  0  0  0  0  0
  185.2190  178.9800  138.1430 N   0  0  0  0  0  0  0  0  0  0  0  0
  183.4050  177.5000  140.6840 O   0  0  0  0  0  1  0  0  0  0  0  0
  182.8640  178.6560  138.5910 C   0  0  1  0  0  3  0  0  0  0  0  0
  182.3710  178.0990  139.9590 C   0  0  2  0  0  3  0  0  0  0  0  0
  180.8260  179.7810  139.9620 C   0  0  0  0  0  2  0  0  0  0  0  0
  181.4870  180.4510  138.7410 C   0  0  0  0  0  2  0  0  0  0  0  0
  182.8370  180.0620  138.6020 O   0  0  0  0  0  0  0  0  0  0  0  0
  181.7920  179.1200  140.7450 O   0  0  0  0  0  0  0  0  0  0  0  0
  1 10  1  0  0  0  0
  2  7  1  0  0  0  0
  3  9  1  0  0  0  0
  4 12  1  0  0  0  0
  5  2  2  0  0  0  0
  6 14  1  0  0  0  0
  7  1  2  0  0  0  0
  7  3  1  0  0  0  0
  8  4  2  0  0  0  0
  9 15  1  1  0  0  0
  9 13  1  0  0  0  0
 10 15  2  0  0  0  0
 11  2  1  0  0  0  0
 11  6  1  0  0  0  0
 13 12  2  0  0  0  0
 13 18  1  0  0  0  0
 14  3  2  0  0  0  0
 14  8  1  0  0  0  0
 16 17  1  0  0  0  0
 16 22  1  0  0  0  0
 18 21  2  0  0  0  0
 18 20  1  0  0  0  0
 19 17  2  0  0  0  0
 20 16  2  0  0  0  0
 21 19  1  0  0  0  0
 23 24  1  0  0  0  0
 24  1  1  0  0  0  0
 25 27  1  0  0  0  0
 25  8  1  0  0  0  0
 27 26  2  0  0  0  0
 29 26  1  1  0  0  0
 29 33  1  0  0  0  0
 29 30  1  0  0  0  0
 30 28  1  1  0  0  0
 30 34  1  0  0  0  0
 31 34  1  0  0  0  0
 32 31  1  0  0  0  0
 33 32  1  0  0  0  0
M  END
>  <MODEL>
5

>  <REMARK>
 VINA RESULT:      -6.8      3.681      9.788
  Name = 
  5 active torsions:
  status: ('A' for Active; 'I' for Inactive)
    1  A    between atoms: C_1  and  O_19
    2  A    between atoms: C_3  and  C_13
    3  A    between atoms: C_12  and  C_28
    4  A    between atoms: N_17  and  N_29
    5  A    between atoms: C_18  and  N_29
                            x       y       z     vdW  Elec       q    Type
                         _______ _______ _______ _____ _____    ______ ____

>  <TORSDO>
F 5

$$$$
=
 OpenBabel10252414483D

 34 38  0  0  1  0  0  0  0  0999 V2000
  186.7820  177.3670  145.7450 C   0  0  0  0  0  0  0  0  0  0  0  0
  185.2170  179.2970  145.6030 C   0  0  0  0  0  0  0  0  0  0  0  0
  186.0820  178.1260  143.5090 C   0  0  0  0  0  0  0  0  0  0  0  0
  186.1640  178.5840  140.4610 C   0  0  0  0  0  3  0  0  0  0  0  0
  185.0480  179.3840  146.8480 O   0  0  0  0  0  0  0  0  0  0  0  0
  184.3140  179.7530  143.3970 N   0  0  0  0  0  2  0  0  0  0  0  0
  186.0700  178.2410  144.9970 C   0  0  0  0  0  0  0  0  0  0  0  0
  185.0980  178.6630  141.2760 C   0  0  0  0  0  0  0  0  0  0  0  0
  187.0540  177.1900  142.8460 C   0  0  1  0  0  3  0  0  0  0  0  0
  187.5530  176.2800  145.0950 C   0  0  0  0  0  3  0  0  0  0  0  0
  184.5730  180.3120  144.7180 C   0  0  0  0  0  2  0  0  0  0  0  0
  187.5820  178.5370  140.8710 C   0  0  0  0  0  3  0  0  0  0  0  0
  188.0350  177.9550  141.9880 C   0  0  0  0  0  0  0  0  0  0  0  0
  185.2090  178.8320  142.7570 C   0  0  0  0  0  0  0  0  0  0  0  0
  187.6680  176.1790  143.7720 C   0  0  0  0  0  3  0  0  0  0  0  0
  191.8230  177.7050  141.9720 C   0  0  0  0  0  0  0  0  0  0  0  0
  192.1550  178.4530  143.1050 C   0  0  0  0  0  3  0  0  0  0  0  0
  189.4610  178.1450  142.3600 C   0  0  0  0  0  0  0  0  0  0  0  0
  191.1450  179.0430  143.8710 C   0  0  0  0  0  3  0  0  0  0  0  0
  190.4840  177.5480  141.6060 C   0  0  0  0  0  3  0  0  0  0  0  0
  189.8060  178.8860  143.5030 C   0  0  0  0  0  3  0  0  0  0  0  0
  192.7990  177.1290  141.2320 F   0  0  0  0  0  0  0  0  0  0  0  0
  187.9740  177.6120  147.9010 C   0  0  0  0  0  1  0  0  0  0  0  0
  186.7820  177.4690  147.1410 O   0  0  0  0  0  0  0  0  0  0  0  0
  183.8120  178.6950  140.6520 N   0  0  0  0  0  2  0  0  0  0  0  0
  182.2710  179.7580  139.2600 C   0  0  0  0  0  3  0  0  0  0  0  0
  183.4960  179.6140  139.6450 N   0  0  0  0  0  0  0  0  0  0  0  0
  180.6710  178.8530  137.2490 O   0  0  0  0  0  1  0  0  0  0  0  0
  181.9300  180.7370  138.1820 C   0  0  1  0  0  3  0  0  0  0  0  0
  181.1690  180.1280  136.9690 C   0  0  2  0  0  3  0  0  0  0  0  0
  180.6020  182.2650  136.3930 C   0  0  0  0  0  2  0  0  0  0  0  0
  181.1500  182.8160  137.7240 C   0  0  0  0  0  2  0  0  0  0  0  0
  181.2050  181.8150  138.7190 O   0  0  0  0  0  0  0  0  0  0  0  0
  180.1010  180.9600  136.5690 O   0  0  0  0  0  0  0  0  0  0  0  0
  1 24  1  0  0  0  0
  2  5  2  0  0  0  0
  3  7  1  0  0  0  0
  4 12  1  0  0  0  0
  4  8  2  0  0  0  0
  6 11  1  0  0  0  0
  7  2  1  0  0  0  0
  7  1  2  0  0  0  0
  8 14  1  0  0  0  0
  9  3  1  0  0  0  0
  9 15  1  1  0  0  0
 10  1  1  0  0  0  0
 11  2  1  0  0  0  0
 12 13  2  0  0  0  0
 13 18  1  0  0  0  0
 13  9  1  0  0  0  0
 14  6  1  0  0  0  0
 14  3  2  0  0  0  0
 15 10  2  0  0  0  0
 16 17  1  0  0  0  0
 17 19  2  0  0  0  0
 18 21  2  0  0  0  0
 20 16  2  0  0  0  0
 20 18  1  0  0  0  0
 21 19  1  0  0  0  0
 22 16  1  0  0  0  0
 24 23  1  0  0  0  0
 25  8  1  0  0  0  0
 26 27  2  0  0  0  0
 27 25  1  0  0  0  0
 29 33  1  0  0  0  0
 29 26  1  1  0  0  0
 30 28  1  1  0  0  0
 30 29  1  0  0  0  0
 31 34  1  0  0  0  0
 31 32  1  0  0  0  0
 32 33  1  0  0  0  0
 34 30  1  0  0  0  0
M  END
>  <MODEL>
6

>  <REMARK>
 VINA RESULT:      -6.7      7.710     11.249
  Name = 
  5 active torsions:
  status: ('A' for Active; 'I' for Inactive)
    1  A    between atoms: C_1  and  O_19
    2  A    between atoms: C_3  and  C_13
    3  A    between atoms: C_12  and  C_28
    4  A    between atoms: N_17  and  N_29
    5  A    between atoms: C_18  and  N_29
                            x       y       z     vdW  Elec       q    Type
                         _______ _______ _______ _____ _____    ______ ____

>  <TORSDO>
F 5

$$$$
=
 OpenBabel10252414483D

 34 38  0  0  1  0  0  0  0  0999 V2000
  186.7010  177.3580  145.5740 C   0  0  0  0  0  0  0  0  0  0  0  0
  185.1580  179.3010  145.3760 C   0  0  0  0  0  0  0  0  0  0  0  0
  186.1130  178.1430  143.3150 C   0  0  0  0  0  0  0  0  0  0  0  0
  186.3420  178.6280  140.2790 C   0  0  0  0  0  3  0  0  0  0  0  0
  184.9300  179.3780  146.6120 O   0  0  0  0  0  0  0  0  0  0  0  0
  184.3640  179.7830  143.1350 N   0  0  0  0  0  2  0  0  0  0  0  0
  186.0320  178.2450  144.8020 C   0  0  0  0  0  0  0  0  0  0  0  0
  185.2400  178.7070  141.0430 C   0  0  0  0  0  0  0  0  0  0  0  0
  187.1090  177.2060  142.6900 C   0  0  1  0  0  3  0  0  0  0  0  0
  187.4940  176.2710  144.9520 C   0  0  0  0  0  3  0  0  0  0  0  0
  184.5640  180.3290  144.4720 C   0  0  0  0  0  2  0  0  0  0  0  0
  187.7400  178.5670  140.7550 C   0  0  0  0  0  3  0  0  0  0  0  0
  188.1350  177.9710  141.8870 C   0  0  0  0  0  0  0  0  0  0  0  0
  185.2810  178.8620  142.5290 C   0  0  0  0  0  0  0  0  0  0  0  0
  187.6720  176.1820  143.6350 C   0  0  0  0  0  3  0  0  0  0  0  0
  191.9180  177.6990  142.0440 C   0  0  0  0  0  0  0  0  0  0  0  0
  192.2000  178.4290  143.2020 C   0  0  0  0  0  3  0  0  0  0  0  0
  189.5430  178.1470  142.3280 C   0  0  0  0  0  0  0  0  0  0  0  0
  191.1600  179.0130  143.9290 C   0  0  0  0  0  3  0  0  0  0  0  0
  190.5960  177.5550  141.6140 C   0  0  0  0  0  3  0  0  0  0  0  0
  189.8380  178.8700  143.4960 C   0  0  0  0  0  3  0  0  0  0  0  0
  192.9240  177.1280  141.3410 F   0  0  0  0  0  0  0  0  0  0  0  0
  187.7720  177.7280  147.7760 C   0  0  0  0  0  1  0  0  0  0  0  0
  186.6360  177.4480  146.9700 O   0  0  0  0  0  0  0  0  0  0  0  0
  183.9850  178.7550  140.3590 N   0  0  0  0  0  2  0  0  0  0  0  0
  182.4890  176.9730  140.1910 C   0  0  0  0  0  3  0  0  0  0  0  0
  183.4650  177.6480  139.6800 N   0  0  0  0  0  0  0  0  0  0  0  0
  179.8370  176.4620  140.5470 O   0  0  0  0  0  1  0  0  0  0  0  0
  181.9320  175.7880  139.4690 C   0  0  1  0  0  3  0  0  0  0  0  0
  180.4640  175.4310  139.8430 C   0  0  2  0  0  3  0  0  0  0  0  0
  180.4040  174.1660  137.9420 C   0  0  0  0  0  2  0  0  0  0  0  0
  181.7600  174.7270  137.4720 C   0  0  0  0  0  2  0  0  0  0  0  0
  182.0480  175.9690  138.0790 O   0  0  0  0  0  0  0  0  0  0  0  0
  179.7040  175.1310  138.6920 O   0  0  0  0  0  0  0  0  0  0  0  0
  1 24  1  0  0  0  0
  2  5  2  0  0  0  0
  3  7  1  0  0  0  0
  4 12  1  0  0  0  0
  4  8  2  0  0  0  0
  6 11  1  0  0  0  0
  7  2  1  0  0  0  0
  7  1  2  0  0  0  0
  8 14  1  0  0  0  0
  9  3  1  0  0  0  0
  9 15  1  1  0  0  0
 10  1  1  0  0  0  0
 11  2  1  0  0  0  0
 12 13  2  0  0  0  0
 13 18  1  0  0  0  0
 13  9  1  0  0  0  0
 14  6  1  0  0  0  0
 14  3  2  0  0  0  0
 15 10  2  0  0  0  0
 16 17  1  0  0  0  0
 17 19  2  0  0  0  0
 18 21  2  0  0  0  0
 20 16  2  0  0  0  0
 20 18  1  0  0  0  0
 21 19  1  0  0  0  0
 22 16  1  0  0  0  0
 24 23  1  0  0  0  0
 25  8  1  0  0  0  0
 27 26  2  0  0  0  0
 27 25  1  0  0  0  0
 29 30  1  0  0  0  0
 29 26  1  1  0  0  0
 30 28  1  6  0  0  0
 31 34  1  0  0  0  0
 32 31  1  0  0  0  0
 32 33  1  0  0  0  0
 33 29  1  0  0  0  0
 34 30  1  0  0  0  0
M  END
>  <MODEL>
7

>  <REMARK>
 VINA RESULT:      -6.6      7.426     10.822
  Name = 
  5 active torsions:
  status: ('A' for Active; 'I' for Inactive)
    1  A    between atoms: C_1  and  O_19
    2  A    between atoms: C_3  and  C_13
    3  A    between atoms: C_12  and  C_28
    4  A    between atoms: N_17  and  N_29
    5  A    between atoms: C_18  and  N_29
                            x       y       z     vdW  Elec       q    Type
                         _______ _______ _______ _____ _____    ______ ____

>  <TORSDO>
F 5

$$$$
=
 OpenBabel10252414483D

 34 38  0  0  1  0  0  0  0  0999 V2000
  182.8400  177.6710  136.4360 C   0  0  0  0  0  0  0  0  0  0  0  0
  183.2630  178.5080  138.7420 C   0  0  0  0  0  0  0  0  0  0  0  0
  185.1300  177.5070  137.3240 C   0  0  0  0  0  0  0  0  0  0  0  0
  188.0230  176.4980  137.6760 C   0  0  0  0  0  3  0  0  0  0  0  0
  182.1000  178.9650  138.9000 O   0  0  0  0  0  0  0  0  0  0  0  0
  185.5940  178.6270  139.4020 N   0  0  0  0  0  2  0  0  0  0  0  0
  183.6910  177.8740  137.4680 C   0  0  2  0  0  3  0  0  0  0  0  0
  187.5060  177.6690  138.0860 C   0  0  0  0  0  0  0  0  0  0  0  0
  185.5780  176.7130  136.1290 C   0  0  0  0  0  0  0  0  0  0  0  0
  183.3340  177.1100  135.1560 C   0  0  0  0  0  3  0  0  0  0  0  0
  184.2200  178.5710  139.8850 C   0  0  0  0  0  2  0  0  0  0  0  0
  187.2670  175.3150  137.2170 C   0  0  0  0  0  3  0  0  0  0  0  0
  186.1080  175.3610  136.5490 C   0  0  0  0  0  0  0  0  0  0  0  0
  186.0380  177.9060  138.2430 C   0  0  0  0  0  0  0  0  0  0  0  0
  184.5860  176.6860  134.9990 C   0  0  0  0  0  3  0  0  0  0  0  0
  183.5560  172.5690  136.8630 C   0  0  0  0  0  0  0  0  0  0  0  0
  184.0200  171.6610  135.9070 C   0  0  0  0  0  3  0  0  0  0  0  0
  185.3720  174.0920  136.3130 C   0  0  0  0  0  0  0  0  0  0  0  0
  185.1610  171.9600  135.1580 C   0  0  0  0  0  3  0  0  0  0  0  0
  184.2320  173.7750  137.0670 C   0  0  0  0  0  3  0  0  0  0  0  0
  185.8360  173.1670  135.3630 C   0  0  0  0  0  3  0  0  0  0  0  0
  182.4530  172.2800  137.5930 F   0  0  0  0  0  0  0  0  0  0  0  0
  180.8000  178.8030  135.6070 C   0  0  0  0  0  1  0  0  0  0  0  0
  181.4860  178.0070  136.5620 O   0  0  0  0  0  0  0  0  0  0  0  0
  188.4350  178.6780  138.4870 N   0  0  0  0  0  2  0  0  0  0  0  0
  188.7250  177.9710  140.6900 C   0  0  0  0  0  3  0  0  0  0  0  0
  189.2080  178.5600  139.6470 N   0  0  0  0  0  0  0  0  0  0  0  0
  187.3650  177.6260  143.0260 O   0  0  0  0  0  1  0  0  0  0  0  0
  189.5480  177.8440  141.9320 C   0  0  1  0  0  3  0  0  0  0  0  0
  188.7280  177.8320  143.2560 C   0  0  2  0  0  3  0  0  0  0  0  0
  190.5930  176.9940  144.2740 C   0  0  0  0  0  2  0  0  0  0  0  0
  191.2950  176.7870  142.9180 C   0  0  0  0  0  2  0  0  0  0  0  0
  190.3660  176.7030  141.8580 O   0  0  0  0  0  0  0  0  0  0  0  0
  189.2000  176.8350  144.1370 O   0  0  0  0  0  0  0  0  0  0  0  0
  1 24  1  0  0  0  0
  2  5  2  0  0  0  0
  2 11  1  0  0  0  0
  3  7  1  0  0  0  0
  3 14  2  0  0  0  0
  4  8  2  0  0  0  0
  6 11  1  0  0  0  0
  7  1  1  6  0  0  0
  7  2  1  0  0  0  0
  8 14  1  0  0  0  0
  8 25  1  0  0  0  0
  9 13  1  0  0  0  0
  9  3  1  0  0  0  0
 10  1  2  0  0  0  0
 12  4  1  0  0  0  0
 13 12  2  0  0  0  0
 14  6  1  0  0  0  0
 15 10  1  0  0  0  0
 15  9  2  0  0  0  0
 16 20  1  0  0  0  0
 16 22  1  0  0  0  0
 17 16  2  0  0  0  0
 18 13  1  0  0  0  0
 18 20  2  0  0  0  0
 19 21  2  0  0  0  0
 19 17  1  0  0  0  0
 21 18  1  0  0  0  0
 23 24  1  0  0  0  0
 25 27  1  0  0  0  0
 27 26  2  0  0  0  0
 29 26  1  6  0  0  0
 29 30  1  0  0  0  0
 30 28  1  6  0  0  0
 30 34  1  0  0  0  0
 32 31  1  0  0  0  0
 33 29  1  0  0  0  0
 33 32  1  0  0  0  0
 34 31  1  0  0  0  0
M  END
>  <MODEL>
8

>  <REMARK>
 VINA RESULT:      -6.6      4.887      6.217
  Name = 
  5 active torsions:
  status: ('A' for Active; 'I' for Inactive)
    1  A    between atoms: C_1  and  O_19
    2  A    between atoms: C_3  and  C_13
    3  A    between atoms: C_12  and  C_28
    4  A    between atoms: N_17  and  N_29
    5  A    between atoms: C_18  and  N_29
                            x       y       z     vdW  Elec       q    Type
                         _______ _______ _______ _____ _____    ______ ____

>  <TORSDO>
F 5

$$$$
=
 OpenBabel10252414483D

 34 38  0  0  1  0  0  0  0  0999 V2000
  189.3820  176.6490  137.4990 C   0  0  0  0  0  0  0  0  0  0  0  0
  187.2980  175.4070  136.9440 C   0  0  0  0  0  0  0  0  0  0  0  0
  187.2530  177.5050  138.3920 C   0  0  0  0  0  0  0  0  0  0  0  0
  185.2950  179.0050  140.2440 C   0  0  0  0  0  3  0  0  0  0  0  0
  187.8650  174.5960  136.1650 O   0  0  0  0  0  0  0  0  0  0  0  0
  185.2260  176.5060  137.5680 N   0  0  0  0  0  2  0  0  0  0  0  0
  188.0420  176.5050  137.6150 C   0  0  0  0  0  0  0  0  0  0  0  0
  185.0720  178.5670  138.9930 C   0  0  0  0  0  0  0  0  0  0  0  0
  187.9710  178.5310  139.2240 C   0  0  1  0  0  3  0  0  0  0  0  0
  190.0670  177.8080  138.1200 C   0  0  0  0  0  3  0  0  0  0  0  0
  185.8440  175.2300  137.2300 C   0  0  0  0  0  2  0  0  0  0  0  0
  186.4240  178.6270  141.1190 C   0  0  0  0  0  3  0  0  0  0  0  0
  187.6610  178.3450  140.6920 C   0  0  0  0  0  0  0  0  0  0  0  0
  185.9030  177.5150  138.3310 C   0  0  0  0  0  0  0  0  0  0  0  0
  189.4290  178.6830  138.8940 C   0  0  0  0  0  3  0  0  0  0  0  0
  190.0570  178.0960  143.6250 C   0  0  0  0  0  0  0  0  0  0  0  0
  190.5510  176.7980  143.4690 C   0  0  0  0  0  3  0  0  0  0  0  0
  188.6440  177.8040  141.6660 C   0  0  0  0  0  0  0  0  0  0  0  0
  190.1010  176.0030  142.4120 C   0  0  0  0  0  3  0  0  0  0  0  0
  189.1130  178.5970  142.7240 C   0  0  0  0  0  3  0  0  0  0  0  0
  189.1550  176.5040  141.5130 C   0  0  0  0  0  3  0  0  0  0  0  0
  190.4960  178.8710  144.6450 F   0  0  0  0  0  0  0  0  0  0  0  0
  191.1140  174.8830  137.3820 C   0  0  0  0  0  1  0  0  0  0  0  0
  190.1320  175.7130  136.7770 O   0  0  0  0  0  0  0  0  0  0  0  0
  183.9090  179.0730  138.3330 N   0  0  0  0  0  2  0  0  0  0  0  0
  181.9130  178.8150  139.5110 C   0  0  0  0  0  3  0  0  0  0  0  0
  182.8220  179.6010  139.0380 N   0  0  0  0  0  0  0  0  0  0  0  0
  182.0710  178.7470  142.2310 O   0  0  0  0  0  1  0  0  0  0  0  0
  180.7490  179.3760  140.2650 C   0  0  1  0  0  3  0  0  0  0  0  0
  180.8040  179.1510  141.8040 C   0  0  2  0  0  3  0  0  0  0  0  0
  179.2070  180.7750  141.9860 C   0  0  0  0  0  2  0  0  0  0  0  0
  179.3500  181.1450  140.4970 C   0  0  0  0  0  2  0  0  0  0  0  0
  180.6010  180.7450  139.9790 O   0  0  0  0  0  0  0  0  0  0  0  0
  180.4370  180.3230  142.5020 O   0  0  0  0  0  0  0  0  0  0  0  0
  1  7  2  0  0  0  0
  1 10  1  0  0  0  0
  2 11  1  0  0  0  0
  2  7  1  0  0  0  0
  3  9  1  0  0  0  0
  4 12  1  0  0  0  0
  5  2  2  0  0  0  0
  6 14  1  0  0  0  0
  7  3  1  0  0  0  0
  8  4  2  0  0  0  0
  9 15  1  1  0  0  0
  9 13  1  0  0  0  0
 10 15  2  0  0  0  0
 11  6  1  0  0  0  0
 13 12  2  0  0  0  0
 13 18  1  0  0  0  0
 14  3  2  0  0  0  0
 14  8  1  0  0  0  0
 16 22  1  0  0  0  0
 17 16  1  0  0  0  0
 18 20  1  0  0  0  0
 19 17  2  0  0  0  0
 20 16  2  0  0  0  0
 21 18  2  0  0  0  0
 21 19  1  0  0  0  0
 24 23  1  0  0  0  0
 24  1  1  0  0  0  0
 25  8  1  0  0  0  0
 25 27  1  0  0  0  0
 27 26  2  0  0  0  0
 29 26  1  6  0  0  0
 29 30  1  0  0  0  0
 30 28  1  1  0  0  0
 30 34  1  0  0  0  0
 31 34  1  0  0  0  0
 32 31  1  0  0  0  0
 33 29  1  0  0  0  0
 33 32  1  0  0  0  0
M  END
>  <MODEL>
9

>  <REMARK>
 VINA RESULT:      -6.6      4.721     10.648
  Name = 
  5 active torsions:
  status: ('A' for Active; 'I' for Inactive)
    1  A    between atoms: C_1  and  O_19
    2  A    between atoms: C_3  and  C_13
    3  A    between atoms: C_12  and  C_28
    4  A    between atoms: N_17  and  N_29
    5  A    between atoms: C_18  and  N_29
                            x       y       z     vdW  Elec       q    Type
                         _______ _______ _______ _____ _____    ______ ____

>  <TORSDO>
F 5

$$$$
