=
 OpenBabel10262420063D

 27 32  0  0  1  0  0  0  0  0999 V2000
  190.0930  178.7100  141.8410 C   0  0  0  0  0  2  0  0  0  0  0  0
  187.6320  178.3500  141.4080 C   0  0  0  0  0  0  0  0  0  0  0  0
  187.8530  177.5820  143.7490 O   0  0  0  0  0  0  0  0  0  0  0  0
  183.4980  179.1840  141.9020 C   0  0  0  0  0  3  0  0  0  0  0  0
  183.0580  178.8970  143.1540 C   0  0  0  0  0  0  0  0  0  0  0  0
  186.8420  178.8420  140.4140 N   0  0  0  0  0  0  0  0  0  0  0  0
  185.1720  178.0580  144.2210 C   0  0  0  0  0  3  0  0  0  0  0  0
  191.2530  176.9560  145.0200 C   0  0  0  0  0  0  0  0  0  0  0  0
  183.8500  178.3640  144.2520 C   0  0  0  0  0  0  0  0  0  0  0  0
  191.9100  176.0240  145.5510 O   0  0  0  0  0  0  0  0  0  0  0  0
  185.7170  178.3370  142.9110 C   0  0  0  0  0  0  0  0  0  0  0  0
  189.0070  178.0450  141.1060 N   0  0  0  0  0  0  0  0  0  0  0  0
  182.4850  178.6410  144.4080 C   0  0  0  0  0  2  0  0  0  0  0  0
  184.9020  178.8800  141.8010 C   0  0  0  0  0  0  0  0  0  0  0  0
  189.8460  178.7640  143.2820 N   0  0  2  0  0  0  0  0  0  0  0  0
  187.0810  178.0870  142.6870 C   0  0  0  0  0  0  0  0  0  0  0  0
  189.7720  176.9820  145.0810 C   0  0  0  0  0  2  0  0  0  0  0  0
  185.5240  179.1100  140.5800 C   0  0  0  0  0  3  0  0  0  0  0  0
  191.9110  178.0110  144.3330 N   0  0  0  0  0  2  0  0  0  0  0  0
  191.1120  179.1620  143.9260 C   0  0  0  0  0  2  0  0  0  0  0  0
  189.2690  177.4740  143.7240 C   0  0  1  0  0  3  0  0  0  0  0  0
  189.9980  175.5980  137.7650 C   0  0  0  0  0  3  0  0  0  0  0  0
  189.3390  177.2040  139.9800 C   0  0  0  0  0  0  0  0  0  0  0  0
  190.6200  176.6330  139.8620 C   0  0  0  0  0  3  0  0  0  0  0  0
  190.9460  175.8330  138.7630 C   0  0  0  0  0  3  0  0  0  0  0  0
  188.7250  176.1640  137.8640 C   0  0  0  0  0  3  0  0  0  0  0  0
  188.3990  176.9640  138.9630 C   0  0  0  0  0  3  0  0  0  0  0  0
  2 16  1  0  0  0  0
  4  5  2  0  0  0  0
  5  9  1  0  0  0  0
  5 13  1  0  0  0  0
  6 18  1  0  0  0  0
  6  2  2  0  0  0  0
  7  9  2  0  0  0  0
  8 17  1  0  0  0  0
  8 10  2  0  0  0  0
  9 13  1  0  0  0  0
 11  7  1  0  0  0  0
 12  2  1  0  0  0  0
 12  1  1  0  0  0  0
 14  4  1  0  0  0  0
 14 11  1  0  0  0  0
 15  1  1  6  0  0  0
 15 21  1  0  0  0  0
 15 20  1  0  0  0  0
 16 11  2  0  0  0  0
 16  3  1  0  0  0  0
 18 14  2  0  0  0  0
 19  8  1  0  0  0  0
 20 19  1  0  0  0  0
 21  3  1  0  0  0  0
 21 17  1  1  0  0  0
 22 26  2  0  0  0  0
 22 25  1  0  0  0  0
 23 12  1  0  0  0  0
 24 23  1  0  0  0  0
 25 24  2  0  0  0  0
 26 27  1  0  0  0  0
 27 23  2  0  0  0  0
M  END
>  <MODEL>
1

>  <REMARK>
 VINA RESULT:      -8.3      0.000      0.000
  Name = 
  1 active torsions:
  status: ('A' for Active; 'I' for Inactive)
    1  A    between atoms: C_9  and  N_15
                            x       y       z     vdW  Elec       q    Type
                         _______ _______ _______ _____ _____    ______ ____

>  <TORSDO>
F 1

$$$$
=
 OpenBabel10262420063D

 27 32  0  0  1  0  0  0  0  0999 V2000
  181.6410  178.6680  140.9540 C   0  0  0  0  0  2  0  0  0  0  0  0
  183.8780  178.2550  139.8590 C   0  0  0  0  0  0  0  0  0  0  0  0
  182.6000  176.2500  139.1750 O   0  0  0  0  0  0  0  0  0  0  0  0
  186.5090  177.9070  136.5450 C   0  0  0  0  0  3  0  0  0  0  0  0
  186.2160  176.8370  135.7610 C   0  0  0  0  0  0  0  0  0  0  0  0
  184.9030  179.1190  139.6220 N   0  0  0  0  0  0  0  0  0  0  0  0
  184.2380  175.8810  136.9810 C   0  0  0  0  0  3  0  0  0  0  0  0
  179.4590  175.5420  140.9660 C   0  0  0  0  0  0  0  0  0  0  0  0
  185.1410  175.8790  135.9670 C   0  0  0  0  0  0  0  0  0  0  0  0
  178.9310  174.6060  141.6190 O   0  0  0  0  0  0  0  0  0  0  0  0
  184.4880  176.9970  137.8660 C   0  0  0  0  0  0  0  0  0  0  0  0
  183.0890  178.4350  141.0520 N   0  0  0  0  0  0  0  0  0  0  0  0
  186.0140  175.7690  134.8750 C   0  0  0  0  0  2  0  0  0  0  0  0
  185.5830  177.9670  137.6460 C   0  0  0  0  0  0  0  0  0  0  0  0
  180.9910  177.7750  139.9950 N   0  0  2  0  0  0  0  0  0  0  0  0
  183.6470  177.1690  138.9780 C   0  0  0  0  0  0  0  0  0  0  0  0
  180.5490  175.2800  139.9960 C   0  0  0  0  0  2  0  0  0  0  0  0
  185.7360  179.0040  138.5590 C   0  0  0  0  0  3  0  0  0  0  0  0
  179.0350  176.8860  141.1450 N   0  0  0  0  0  2  0  0  0  0  0  0
  179.5360  177.8900  140.2120 C   0  0  0  0  0  2  0  0  0  0  0  0
  181.5630  176.4160  140.1320 C   0  0  1  0  0  3  0  0  0  0  0  0
  184.9630  178.7180  144.8650 C   0  0  0  0  0  3  0  0  0  0  0  0
  183.7290  178.5430  142.3410 C   0  0  0  0  0  0  0  0  0  0  0  0
  185.0750  178.1690  142.5100 C   0  0  0  0  0  3  0  0  0  0  0  0
  185.6880  178.2580  143.7630 C   0  0  0  0  0  3  0  0  0  0  0  0
  183.6240  179.0850  144.7150 C   0  0  0  0  0  3  0  0  0  0  0  0
  183.0110  178.9960  143.4620 C   0  0  0  0  0  3  0  0  0  0  0  0
  1 12  1  0  0  0  0
  2 12  1  0  0  0  0
  3 21  1  0  0  0  0
  4 14  1  0  0  0  0
  5  9  1  0  0  0  0
  5  4  2  0  0  0  0
  6  2  1  0  0  0  0
  7 11  1  0  0  0  0
  8 19  1  0  0  0  0
  8 10  2  0  0  0  0
  9  7  2  0  0  0  0
 11 16  1  0  0  0  0
 12 23  1  0  0  0  0
 13  5  1  0  0  0  0
 13  9  1  0  0  0  0
 14 11  2  0  0  0  0
 14 18  1  0  0  0  0
 15 21  1  0  0  0  0
 15 20  1  1  0  0  0
 15  1  1  0  0  0  0
 16  3  1  0  0  0  0
 16  2  2  0  0  0  0
 17  8  1  0  0  0  0
 18  6  2  0  0  0  0
 20 19  1  0  0  0  0
 21 17  1  6  0  0  0
 23 24  2  0  0  0  0
 23 27  1  0  0  0  0
 24 25  1  0  0  0  0
 25 22  2  0  0  0  0
 26 22  1  0  0  0  0
 27 26  2  0  0  0  0
M  END
>  <MODEL>
2

>  <REMARK>
 VINA RESULT:      -7.6      4.594      8.425
  Name = 
  1 active torsions:
  status: ('A' for Active; 'I' for Inactive)
    1  A    between atoms: C_9  and  N_15
                            x       y       z     vdW  Elec       q    Type
                         _______ _______ _______ _____ _____    ______ ____

>  <TORSDO>
F 1

$$$$
=
 OpenBabel10262420063D

 27 32  0  0  1  0  0  0  0  0999 V2000
  188.6150  178.2630  138.9430 C   0  0  0  0  0  2  0  0  0  0  0  0
  190.6990  176.8430  139.0410 C   0  0  0  0  0  0  0  0  0  0  0  0
  189.3350  175.6280  137.3720 O   0  0  0  0  0  0  0  0  0  0  0  0
  194.3130  175.2400  137.4920 C   0  0  0  0  0  3  0  0  0  0  0  0
  194.1010  174.4030  136.4440 C   0  0  0  0  0  0  0  0  0  0  0  0
  191.9280  177.1340  139.5500 N   0  0  0  0  0  0  0  0  0  0  0  0
  191.5960  174.4910  136.2640 C   0  0  0  0  0  3  0  0  0  0  0  0
  185.7590  176.4850  137.1490 C   0  0  0  0  0  0  0  0  0  0  0  0
  192.8160  174.0480  135.8620 C   0  0  0  0  0  0  0  0  0  0  0  0
  184.6410  175.9130  137.2190 O   0  0  0  0  0  0  0  0  0  0  0  0
  191.7390  175.3920  137.3850 C   0  0  0  0  0  0  0  0  0  0  0  0
  189.5370  177.3950  139.6900 N   0  0  0  0  0  0  0  0  0  0  0  0
  194.0130  173.5220  135.3570 C   0  0  0  0  0  2  0  0  0  0  0  0
  193.0530  175.7470  137.9690 C   0  0  0  0  0  0  0  0  0  0  0  0
  188.3050  177.7420  137.6120 N   0  0  2  0  0  0  0  0  0  0  0  0
  190.5800  175.9600  137.9380 C   0  0  0  0  0  0  0  0  0  0  0  0
  186.9900  175.7270  136.8180 C   0  0  0  0  0  2  0  0  0  0  0  0
  193.0770  176.6220  139.0480 C   0  0  0  0  0  3  0  0  0  0  0  0
  185.8820  177.8780  137.3990 N   0  0  0  0  0  2  0  0  0  0  0  0
  187.1590  178.5160  137.0980 C   0  0  0  0  0  2  0  0  0  0  0  0
  188.1130  176.2760  137.6970 C   0  0  1  0  0  3  0  0  0  0  0  0
  188.9500  176.8870  143.8760 C   0  0  0  0  0  3  0  0  0  0  0  0
  189.3470  177.2330  141.1120 C   0  0  0  0  0  0  0  0  0  0  0  0
  190.1810  176.3780  141.8560 C   0  0  0  0  0  3  0  0  0  0  0  0
  189.9850  176.2080  143.2290 C   0  0  0  0  0  3  0  0  0  0  0  0
  188.1100  177.7340  143.1500 C   0  0  0  0  0  3  0  0  0  0  0  0
  188.3060  177.9030  141.7770 C   0  0  0  0  0  3  0  0  0  0  0  0
  1 12  1  0  0  0  0
  2  6  1  0  0  0  0
  2 12  1  0  0  0  0
  3 21  1  0  0  0  0
  3 16  1  0  0  0  0
  4 14  1  0  0  0  0
  5  4  2  0  0  0  0
  7 11  1  0  0  0  0
  8 10  2  0  0  0  0
  8 19  1  0  0  0  0
  9  7  2  0  0  0  0
  9  5  1  0  0  0  0
 11 16  1  0  0  0  0
 11 14  2  0  0  0  0
 12 23  1  0  0  0  0
 13  9  1  0  0  0  0
 13  5  1  0  0  0  0
 14 18  1  0  0  0  0
 15 20  1  1  0  0  0
 15 21  1  0  0  0  0
 15  1  1  0  0  0  0
 16  2  2  0  0  0  0
 17  8  1  0  0  0  0
 18  6  2  0  0  0  0
 20 19  1  0  0  0  0
 21 17  1  6  0  0  0
 23 27  2  0  0  0  0
 23 24  1  0  0  0  0
 24 25  2  0  0  0  0
 25 22  1  0  0  0  0
 26 22  2  0  0  0  0
 27 26  1  0  0  0  0
M  END
>  <MODEL>
3

>  <REMARK>
 VINA RESULT:      -7.3      3.574      8.312
  Name = 
  1 active torsions:
  status: ('A' for Active; 'I' for Inactive)
    1  A    between atoms: C_9  and  N_15
                            x       y       z     vdW  Elec       q    Type
                         _______ _______ _______ _____ _____    ______ ____

>  <TORSDO>
F 1

$$$$
=
 OpenBabel10262420063D

 27 32  0  0  1  0  0  0  0  0999 V2000
  187.0340  179.0380  140.0560 C   0  0  0  0  0  2  0  0  0  0  0  0
  185.9360  178.5940  142.2850 C   0  0  0  0  0  0  0  0  0  0  0  0
  188.0060  177.2490  142.4620 O   0  0  0  0  0  0  0  0  0  0  0  0
  185.5830  178.9020  146.5050 C   0  0  0  0  0  3  0  0  0  0  0  0
  186.5820  178.2530  147.1570 C   0  0  0  0  0  0  0  0  0  0  0  0
  184.9270  179.2630  142.9060 N   0  0  0  0  0  0  0  0  0  0  0  0
  187.9040  177.3470  145.2220 C   0  0  0  0  0  3  0  0  0  0  0  0
  189.8860  176.6050  139.3610 C   0  0  0  0  0  0  0  0  0  0  0  0
  187.6810  177.5170  146.5500 C   0  0  0  0  0  0  0  0  0  0  0  0
  190.3230  175.6260  138.7030 O   0  0  0  0  0  0  0  0  0  0  0  0
  186.8740  178.0120  144.4560 C   0  0  0  0  0  0  0  0  0  0  0  0
  185.9180  178.5010  140.8480 N   0  0  0  0  0  0  0  0  0  0  0  0
  187.5580  177.6220  147.9430 C   0  0  0  0  0  2  0  0  0  0  0  0
  185.7610  178.7590  145.0840 C   0  0  0  0  0  0  0  0  0  0  0  0
  188.3400  178.6830  140.6120 N   0  0  2  0  0  0  0  0  0  0  0  0
  186.9390  177.9510  143.0540 C   0  0  0  0  0  0  0  0  0  0  0  0
  189.5850  176.4850  140.8070 C   0  0  0  0  0  2  0  0  0  0  0  0
  184.8230  179.3610  144.2540 C   0  0  0  0  0  3  0  0  0  0  0  0
  189.6540  177.8580  138.7340 N   0  0  0  0  0  2  0  0  0  0  0  0
  189.3510  179.0030  139.5870 C   0  0  0  0  0  2  0  0  0  0  0  0
  188.3050  177.2760  141.0740 C   0  0  1  0  0  3  0  0  0  0  0  0
  182.4290  177.1320  138.8260 C   0  0  0  0  0  3  0  0  0  0  0  0
  184.7400  178.0250  140.1610 C   0  0  0  0  0  0  0  0  0  0  0  0
  184.6460  178.1010  138.7590 C   0  0  0  0  0  3  0  0  0  0  0  0
  183.4990  177.6550  138.0960 C   0  0  0  0  0  3  0  0  0  0  0  0
  182.5050  177.0570  140.2190 C   0  0  0  0  0  3  0  0  0  0  0  0
  183.6520  177.5030  140.8810 C   0  0  0  0  0  3  0  0  0  0  0  0
  1 15  1  0  0  0  0
  1 12  1  0  0  0  0
  2  6  2  0  0  0  0
  2 16  1  0  0  0  0
  3 16  1  0  0  0  0
  4  5  2  0  0  0  0
  5 13  1  0  0  0  0
  6 18  1  0  0  0  0
  7  9  2  0  0  0  0
  8 17  1  0  0  0  0
  9  5  1  0  0  0  0
  9 13  1  0  0  0  0
 10  8  2  0  0  0  0
 11 14  1  0  0  0  0
 11  7  1  0  0  0  0
 12  2  1  0  0  0  0
 14  4  1  0  0  0  0
 15 20  1  6  0  0  0
 15 21  1  0  0  0  0
 16 11  2  0  0  0  0
 18 14  2  0  0  0  0
 19  8  1  0  0  0  0
 19 20  1  0  0  0  0
 21 17  1  1  0  0  0
 21  3  1  0  0  0  0
 22 26  1  0  0  0  0
 23 12  1  0  0  0  0
 23 27  1  0  0  0  0
 24 23  2  0  0  0  0
 25 24  1  0  0  0  0
 25 22  2  0  0  0  0
 26 27  2  0  0  0  0
M  END
>  <MODEL>
4

>  <REMARK>
 VINA RESULT:      -7.3      2.431      4.797
  Name = 
  1 active torsions:
  status: ('A' for Active; 'I' for Inactive)
    1  A    between atoms: C_9  and  N_15
                            x       y       z     vdW  Elec       q    Type
                         _______ _______ _______ _____ _____    ______ ____

>  <TORSDO>
F 1

$$$$
=
 OpenBabel10262420063D

 27 32  0  0  1  0  0  0  0  0999 V2000
  181.8290  177.0530  140.2240 C   0  0  0  0  0  2  0  0  0  0  0  0
  181.1850  179.4930  140.1800 C   0  0  0  0  0  0  0  0  0  0  0  0
  182.2610  179.2120  137.9700 O   0  0  0  0  0  0  0  0  0  0  0  0
  178.9310  182.8310  138.8380 C   0  0  0  0  0  3  0  0  0  0  0  0
  179.1830  183.1390  137.5400 C   0  0  0  0  0  0  0  0  0  0  0  0
  180.3150  180.1780  140.9720 N   0  0  0  0  0  0  0  0  0  0  0  0
  180.8770  181.3770  136.9550 C   0  0  0  0  0  3  0  0  0  0  0  0
  184.2660  176.1700  137.4290 C   0  0  0  0  0  0  0  0  0  0  0  0
  180.1040  182.4510  136.6480 C   0  0  0  0  0  0  0  0  0  0  0  0
  185.4340  175.8530  137.0850 O   0  0  0  0  0  0  0  0  0  0  0  0
  180.6640  180.9890  138.3310 C   0  0  0  0  0  0  0  0  0  0  0  0
  181.9440  178.4160  140.7630 N   0  0  0  0  0  0  0  0  0  0  0  0
  179.3570  183.5540  136.2120 C   0  0  0  0  0  2  0  0  0  0  0  0
  179.7230  181.6950  139.2290 C   0  0  0  0  0  0  0  0  0  0  0  0
  181.8640  177.0210  138.7620 N   0  0  2  0  0  0  0  0  0  0  0  0
  181.3770  179.8870  138.8320 C   0  0  0  0  0  0  0  0  0  0  0  0
  183.6950  177.4910  137.0750 C   0  0  0  0  0  2  0  0  0  0  0  0
  179.5950  181.2400  140.5360 C   0  0  0  0  0  3  0  0  0  0  0  0
  183.4590  175.2740  138.1790 N   0  0  0  0  0  2  0  0  0  0  0  0
  182.0510  175.6130  138.3620 C   0  0  0  0  0  2  0  0  0  0  0  0
  182.8880  177.9760  138.2790 C   0  0  1  0  0  3  0  0  0  0  0  0
  184.1810  178.9990  144.3380 C   0  0  0  0  0  3  0  0  0  0  0  0
  182.7030  178.6270  141.9730 C   0  0  0  0  0  0  0  0  0  0  0  0
  184.1100  178.6160  141.9500 C   0  0  0  0  0  3  0  0  0  0  0  0
  184.8440  178.8040  143.1250 C   0  0  0  0  0  3  0  0  0  0  0  0
  182.7850  179.0050  144.3790 C   0  0  0  0  0  3  0  0  0  0  0  0
  182.0510  178.8180  143.2040 C   0  0  0  0  0  3  0  0  0  0  0  0
  1 12  1  0  0  0  0
  2 12  1  0  0  0  0
  2  6  1  0  0  0  0
  3 21  1  0  0  0  0
  3 16  1  0  0  0  0
  4 14  1  0  0  0  0
  5  4  2  0  0  0  0
  7 11  1  0  0  0  0
  8 19  1  0  0  0  0
  9  7  2  0  0  0  0
  9  5  1  0  0  0  0
 10  8  2  0  0  0  0
 11 16  1  0  0  0  0
 11 14  2  0  0  0  0
 12 23  1  0  0  0  0
 13  9  1  0  0  0  0
 13  5  1  0  0  0  0
 14 18  1  0  0  0  0
 15 20  1  1  0  0  0
 15  1  1  0  0  0  0
 16  2  2  0  0  0  0
 17  8  1  0  0  0  0
 18  6  2  0  0  0  0
 19 20  1  0  0  0  0
 21 17  1  6  0  0  0
 21 15  1  0  0  0  0
 22 26  1  0  0  0  0
 23 27  1  0  0  0  0
 24 23  2  0  0  0  0
 24 25  1  0  0  0  0
 25 22  2  0  0  0  0
 27 26  2  0  0  0  0
M  END
>  <MODEL>
5

>  <REMARK>
 VINA RESULT:      -7.1      5.497      8.541
  Name = 
  1 active torsions:
  status: ('A' for Active; 'I' for Inactive)
    1  A    between atoms: C_9  and  N_15
                            x       y       z     vdW  Elec       q    Type
                         _______ _______ _______ _____ _____    ______ ____

>  <TORSDO>
F 1

$$$$
=
 OpenBabel10262420063D

 27 32  0  0  1  0  0  0  0  0999 V2000
  186.7740  179.0000  137.8870 C   0  0  0  0  0  2  0  0  0  0  0  0
  185.7980  178.4060  140.1380 C   0  0  0  0  0  0  0  0  0  0  0  0
  188.0470  177.3830  140.2750 O   0  0  0  0  0  0  0  0  0  0  0  0
  185.4860  178.6720  144.3640 C   0  0  0  0  0  3  0  0  0  0  0  0
  186.5830  178.1810  144.9970 C   0  0  0  0  0  0  0  0  0  0  0  0
  184.7120  178.9200  140.7790 N   0  0  0  0  0  0  0  0  0  0  0  0
  187.9860  177.4740  143.0350 C   0  0  0  0  0  3  0  0  0  0  0  0
  189.9400  177.0140  137.1360 C   0  0  0  0  0  0  0  0  0  0  0  0
  187.7660  177.6140  144.3680 C   0  0  0  0  0  0  0  0  0  0  0  0
  190.5050  176.1080  136.4710 O   0  0  0  0  0  0  0  0  0  0  0  0
  186.8540  177.9760  142.2900 C   0  0  0  0  0  0  0  0  0  0  0  0
  185.7650  178.3060  138.7010 N   0  0  0  0  0  0  0  0  0  0  0  0
  187.6560  177.7040  145.7630 C   0  0  0  0  0  2  0  0  0  0  0  0
  185.6550  178.5530  142.9400 C   0  0  0  0  0  0  0  0  0  0  0  0
  188.1280  178.8440  138.4180 N   0  0  2  0  0  0  0  0  0  0  0  0
  186.9000  177.9210  140.8870 C   0  0  0  0  0  0  0  0  0  0  0  0
  189.6890  176.8550  138.5890 C   0  0  0  0  0  2  0  0  0  0  0  0
  184.6220  179.0060  142.1280 C   0  0  0  0  0  3  0  0  0  0  0  0
  189.5130  178.2170  136.5140 N   0  0  0  0  0  2  0  0  0  0  0  0
  189.0610  179.3070  137.3720 C   0  0  0  0  0  2  0  0  0  0  0  0
  188.3110  177.4490  138.8810 C   0  0  1  0  0  3  0  0  0  0  0  0
  182.5110  176.4130  136.7110 C   0  0  0  0  0  3  0  0  0  0  0  0
  184.6580  177.6580  138.0380 C   0  0  0  0  0  0  0  0  0  0  0  0
  184.8130  176.3870  137.4570 C   0  0  0  0  0  3  0  0  0  0  0  0
  183.7460  175.7680  136.8000 C   0  0  0  0  0  3  0  0  0  0  0  0
  182.3430  177.6790  137.2770 C   0  0  0  0  0  3  0  0  0  0  0  0
  183.4110  178.2980  137.9340 C   0  0  0  0  0  3  0  0  0  0  0  0
  1 15  1  0  0  0  0
  1 12  1  0  0  0  0
  2  6  2  0  0  0  0
  2 16  1  0  0  0  0
  3 16  1  0  0  0  0
  4  5  2  0  0  0  0
  5 13  1  0  0  0  0
  6 18  1  0  0  0  0
  7  9  2  0  0  0  0
  8 17  1  0  0  0  0
  9  5  1  0  0  0  0
  9 13  1  0  0  0  0
 10  8  2  0  0  0  0
 11 14  1  0  0  0  0
 11  7  1  0  0  0  0
 12  2  1  0  0  0  0
 14  4  1  0  0  0  0
 15 20  1  6  0  0  0
 15 21  1  0  0  0  0
 16 11  2  0  0  0  0
 18 14  2  0  0  0  0
 19  8  1  0  0  0  0
 19 20  1  0  0  0  0
 21 17  1  1  0  0  0
 21  3  1  0  0  0  0
 22 25  2  0  0  0  0
 22 26  1  0  0  0  0
 23 12  1  0  0  0  0
 24 23  2  0  0  0  0
 25 24  1  0  0  0  0
 26 27  2  0  0  0  0
 27 23  1  0  0  0  0
M  END
>  <MODEL>
6

>  <REMARK>
 VINA RESULT:      -7.1      3.124      5.314
  Name = 
  1 active torsions:
  status: ('A' for Active; 'I' for Inactive)
    1  A    between atoms: C_9  and  N_15
                            x       y       z     vdW  Elec       q    Type
                         _______ _______ _______ _____ _____    ______ ____

>  <TORSDO>
F 1

$$$$
=
 OpenBabel10262420063D

 27 32  0  0  1  0  0  0  0  0999 V2000
  189.5310  177.1910  136.6410 C   0  0  0  0  0  2  0  0  0  0  0  0
  188.7250  177.3450  139.0280 C   0  0  0  0  0  0  0  0  0  0  0  0
  190.6130  175.7600  139.2310 O   0  0  0  0  0  0  0  0  0  0  0  0
  189.0360  178.4890  143.1050 C   0  0  0  0  0  3  0  0  0  0  0  0
  190.0310  177.8300  143.7530 C   0  0  0  0  0  0  0  0  0  0  0  0
  187.9090  178.2640  139.6130 N   0  0  0  0  0  0  0  0  0  0  0  0
  190.9300  176.3880  141.9030 C   0  0  0  0  0  3  0  0  0  0  0  0
  191.9230  174.2680  136.1280 C   0  0  0  0  0  0  0  0  0  0  0  0
  190.9280  176.8360  143.1850 C   0  0  0  0  0  0  0  0  0  0  0  0
  192.1330  173.1280  135.6390 O   0  0  0  0  0  0  0  0  0  0  0  0
  189.8910  177.0450  141.1440 C   0  0  0  0  0  0  0  0  0  0  0  0
  188.4840  176.9880  137.6530 N   0  0  0  0  0  0  0  0  0  0  0  0
  191.0240  177.2180  144.5300 C   0  0  0  0  0  2  0  0  0  0  0  0
  188.9840  178.0570  141.7330 C   0  0  0  0  0  0  0  0  0  0  0  0
  190.8490  176.7530  137.0990 N   0  0  2  0  0  0  0  0  0  0  0  0
  189.7420  176.7130  139.7880 C   0  0  0  0  0  0  0  0  0  0  0  0
  191.8250  174.4680  137.5930 C   0  0  0  0  0  2  0  0  0  0  0  0
  188.0170  178.6280  140.9140 C   0  0  0  0  0  3  0  0  0  0  0  0
  191.7600  175.4020  135.2880 N   0  0  0  0  0  2  0  0  0  0  0  0
  191.7310  176.7180  135.9170 C   0  0  0  0  0  2  0  0  0  0  0  0
  190.7070  175.4800  137.8420 C   0  0  1  0  0  3  0  0  0  0  0  0
  184.6180  175.7680  136.3500 C   0  0  0  0  0  3  0  0  0  0  0  0
  187.1690  176.5750  137.2240 C   0  0  0  0  0  0  0  0  0  0  0  0
  186.8080  175.2150  137.2190 C   0  0  0  0  0  3  0  0  0  0  0  0
  185.5410  174.8150  136.7870 C   0  0  0  0  0  3  0  0  0  0  0  0
  184.9630  177.1210  136.3430 C   0  0  0  0  0  3  0  0  0  0  0  0
  186.2310  177.5220  136.7750 C   0  0  0  0  0  3  0  0  0  0  0  0
  1 15  1  0  0  0  0
  1 12  1  0  0  0  0
  2  6  2  0  0  0  0
  2 16  1  0  0  0  0
  3 16  1  0  0  0  0
  4  5  2  0  0  0  0
  5 13  1  0  0  0  0
  6 18  1  0  0  0  0
  7  9  2  0  0  0  0
  8 17  1  0  0  0  0
  9  5  1  0  0  0  0
  9 13  1  0  0  0  0
 10  8  2  0  0  0  0
 11 14  1  0  0  0  0
 11  7  1  0  0  0  0
 12  2  1  0  0  0  0
 14  4  1  0  0  0  0
 15 20  1  6  0  0  0
 15 21  1  0  0  0  0
 16 11  2  0  0  0  0
 18 14  2  0  0  0  0
 19 20  1  0  0  0  0
 19  8  1  0  0  0  0
 21 17  1  1  0  0  0
 21  3  1  0  0  0  0
 22 25  1  0  0  0  0
 23 12  1  0  0  0  0
 24 23  1  0  0  0  0
 25 24  2  0  0  0  0
 26 22  2  0  0  0  0
 26 27  1  0  0  0  0
 27 23  2  0  0  0  0
M  END
>  <MODEL>
7

>  <REMARK>
 VINA RESULT:      -7.0      3.473      6.182
  Name = 
  1 active torsions:
  status: ('A' for Active; 'I' for Inactive)
    1  A    between atoms: C_9  and  N_15
                            x       y       z     vdW  Elec       q    Type
                         _______ _______ _______ _____ _____    ______ ____

>  <TORSDO>
F 1

$$$$
=
 OpenBabel10262420063D

 27 32  0  0  1  0  0  0  0  0999 V2000
  188.8380  175.9060  138.3600 C   0  0  0  0  0  2  0  0  0  0  0  0
  188.6540  176.9860  140.6340 C   0  0  0  0  0  0  0  0  0  0  0  0
  187.0930  178.3600  139.2910 O   0  0  0  0  0  0  0  0  0  0  0  0
  186.6610  177.9710  144.2510 C   0  0  0  0  0  3  0  0  0  0  0  0
  185.6090  178.8060  144.0530 C   0  0  0  0  0  0  0  0  0  0  0  0
  189.0390  176.5190  141.8530 N   0  0  0  0  0  0  0  0  0  0  0  0
  185.7030  179.1040  141.5600 C   0  0  0  0  0  3  0  0  0  0  0  0
  187.2920  178.0640  135.6250 C   0  0  0  0  0  0  0  0  0  0  0  0
  185.1550  179.3420  142.7790 C   0  0  0  0  0  0  0  0  0  0  0  0
  187.4580  178.8050  134.6210 O   0  0  0  0  0  0  0  0  0  0  0  0
  186.8380  178.2190  141.6890 C   0  0  0  0  0  0  0  0  0  0  0  0
  189.4450  176.6370  139.4820 N   0  0  0  0  0  0  0  0  0  0  0  0
  184.5020  179.6640  143.9770 C   0  0  0  0  0  2  0  0  0  0  0  0
  187.2900  177.6780  142.9910 C   0  0  0  0  0  0  0  0  0  0  0  0
  187.5280  176.4380  137.9850 N   0  0  2  0  0  0  0  0  0  0  0  0
  187.5350  177.8510  140.5270 C   0  0  0  0  0  0  0  0  0  0  0  0
  186.7990  178.6130  136.9100 C   0  0  0  0  0  2  0  0  0  0  0  0
  188.3950  176.8340  143.0030 C   0  0  0  0  0  3  0  0  0  0  0  0
  187.5830  176.6750  135.5610 N   0  0  0  0  0  2  0  0  0  0  0  0
  187.1720  175.8400  136.6840 C   0  0  0  0  0  2  0  0  0  0  0  0
  187.5740  177.9170  138.0300 C   0  0  1  0  0  3  0  0  0  0  0  0
  193.6570  177.2600  139.4950 C   0  0  0  0  0  3  0  0  0  0  0  0
  190.8720  176.8600  139.4800 C   0  0  0  0  0  0  0  0  0  0  0  0
  191.6640  176.4340  138.3990 C   0  0  0  0  0  3  0  0  0  0  0  0
  193.0480  176.6350  138.4050 C   0  0  0  0  0  3  0  0  0  0  0  0
  192.8850  177.6820  140.5790 C   0  0  0  0  0  3  0  0  0  0  0  0
  191.5020  177.4810  140.5730 C   0  0  0  0  0  3  0  0  0  0  0  0
  1 12  1  0  0  0  0
  2  6  1  0  0  0  0
  3 16  1  0  0  0  0
  5  4  1  0  0  0  0
  6 18  2  0  0  0  0
  7 11  2  0  0  0  0
  7  9  1  0  0  0  0
  8 17  1  0  0  0  0
  9 13  1  0  0  0  0
  9  5  2  0  0  0  0
 10  8  2  0  0  0  0
 11 14  1  0  0  0  0
 12  2  1  0  0  0  0
 13  5  1  0  0  0  0
 14 18  1  0  0  0  0
 14  4  2  0  0  0  0
 15 20  1  6  0  0  0
 15 21  1  0  0  0  0
 15  1  1  0  0  0  0
 16  2  2  0  0  0  0
 16 11  1  0  0  0  0
 19  8  1  0  0  0  0
 19 20  1  0  0  0  0
 21 17  1  6  0  0  0
 21  3  1  0  0  0  0
 22 26  1  0  0  0  0
 23 12  1  0  0  0  0
 23 27  1  0  0  0  0
 24 25  1  0  0  0  0
 24 23  2  0  0  0  0
 25 22  2  0  0  0  0
 27 26  2  0  0  0  0
M  END
>  <MODEL>
8

>  <REMARK>
 VINA RESULT:      -6.8      2.844      5.419
  Name = 
  1 active torsions:
  status: ('A' for Active; 'I' for Inactive)
    1  A    between atoms: C_9  and  N_15
                            x       y       z     vdW  Elec       q    Type
                         _______ _______ _______ _____ _____    ______ ____

>  <TORSDO>
F 1

$$$$
=
 OpenBabel10262420063D

 27 32  0  0  1  0  0  0  0  0999 V2000
  184.9040  179.5150  140.3780 C   0  0  0  0  0  2  0  0  0  0  0  0
  187.0150  178.3010  139.7120 C   0  0  0  0  0  0  0  0  0  0  0  0
  185.3300  177.2280  138.2520 O   0  0  0  0  0  0  0  0  0  0  0  0
  190.1810  177.3020  137.0650 C   0  0  0  0  0  3  0  0  0  0  0  0
  189.7480  176.6170  135.9760 C   0  0  0  0  0  0  0  0  0  0  0  0
  188.3160  178.6280  139.9430 N   0  0  0  0  0  0  0  0  0  0  0  0
  187.2820  176.4920  136.4400 C   0  0  0  0  0  3  0  0  0  0  0  0
  181.7790  177.7650  139.0730 C   0  0  0  0  0  0  0  0  0  0  0  0
  188.3760  176.2340  135.6790 C   0  0  0  0  0  0  0  0  0  0  0  0
  180.7500  177.0850  139.3190 O   0  0  0  0  0  0  0  0  0  0  0  0
  187.6640  177.2230  137.6280 C   0  0  0  0  0  0  0  0  0  0  0  0
  186.0340  178.6360  140.7130 N   0  0  0  0  0  0  0  0  0  0  0  0
  189.4270  175.9070  134.8100 C   0  0  0  0  0  2  0  0  0  0  0  0
  189.0630  177.6090  137.9190 C   0  0  0  0  0  0  0  0  0  0  0  0
  184.2860  179.1740  139.0970 N   0  0  2  0  0  0  0  0  0  0  0  0
  186.6600  177.5870  138.5400 C   0  0  0  0  0  0  0  0  0  0  0  0
  182.9190  177.1860  138.3230 C   0  0  0  0  0  2  0  0  0  0  0  0
  189.3210  178.3100  139.0910 C   0  0  0  0  0  3  0  0  0  0  0  0
  181.8880  179.1090  139.5180 N   0  0  0  0  0  2  0  0  0  0  0  0
  183.0070  179.9040  139.0230 C   0  0  0  0  0  2  0  0  0  0  0  0
  184.2020  177.7000  138.9750 C   0  0  1  0  0  3  0  0  0  0  0  0
  186.6330  177.5110  144.7760 C   0  0  0  0  0  3  0  0  0  0  0  0
  186.2300  178.2430  142.0890 C   0  0  0  0  0  0  0  0  0  0  0  0
  185.3070  178.6190  143.0820 C   0  0  0  0  0  3  0  0  0  0  0  0
  185.5060  178.2530  144.4160 C   0  0  0  0  0  3  0  0  0  0  0  0
  187.5620  177.1370  143.8030 C   0  0  0  0  0  3  0  0  0  0  0  0
  187.3630  177.5030  142.4690 C   0  0  0  0  0  3  0  0  0  0  0  0
  1 12  1  0  0  0  0
  2  6  1  0  0  0  0
  2 12  1  0  0  0  0
  3 16  1  0  0  0  0
  3 21  1  0  0  0  0
  4 14  1  0  0  0  0
  5  4  2  0  0  0  0
  7 11  1  0  0  0  0
  8 10  2  0  0  0  0
  8 19  1  0  0  0  0
  9  5  1  0  0  0  0
  9  7  2  0  0  0  0
 11 14  2  0  0  0  0
 11 16  1  0  0  0  0
 12 23  1  0  0  0  0
 13  9  1  0  0  0  0
 13  5  1  0  0  0  0
 14 18  1  0  0  0  0
 15 20  1  1  0  0  0
 15  1  1  0  0  0  0
 16  2  2  0  0  0  0
 17  8  1  0  0  0  0
 18  6  2  0  0  0  0
 20 19  1  0  0  0  0
 21 17  1  6  0  0  0
 21 15  1  0  0  0  0
 23 27  2  0  0  0  0
 23 24  1  0  0  0  0
 24 25  2  0  0  0  0
 25 22  1  0  0  0  0
 26 22  2  0  0  0  0
 27 26  1  0  0  0  0
M  END
>  <MODEL>
9

>  <REMARK>
 VINA RESULT:      -6.8      3.225      7.712
  Name = 
  1 active torsions:
  status: ('A' for Active; 'I' for Inactive)
    1  A    between atoms: C_9  and  N_15
                            x       y       z     vdW  Elec       q    Type
                         _______ _______ _______ _____ _____    ______ ____

>  <TORSDO>
F 1

$$$$
