=
 OpenBabel10262421433D

 30 35  0  0  1  0  0  0  0  0999 V2000
  187.2300  177.7890  140.7680 C   0  0  1  0  0  3  0  0  0  0  0  0
  189.7070  178.4210  139.7700 C   0  0  1  0  0  3  0  0  0  0  0  0
  190.2280  177.8560  144.2110 N   0  0  0  0  0  2  0  0  0  0  0  0
  186.4320  177.5960  142.1250 C   0  0  2  0  0  3  0  0  0  0  0  0
  186.4300  178.5250  139.6970 C   0  0  0  0  0  2  0  0  0  0  0  0
  182.8800  179.1000  141.6720 S   0  0  0  0  0  0  0  0  0  0  0  0
  185.1210  177.9110  144.9210 C   0  0  1  0  0  3  0  0  0  0  0  0
  184.6540  179.0830  141.3520 C   0  0  0  0  0  0  0  0  0  0  0  0
  183.7000  178.6600  138.8800 S   0  0  0  0  0  0  0  0  0  0  0  0
  186.5170  177.6010  145.4770 C   0  0  2  0  0  3  0  0  0  0  0  0
  189.0530  177.2250  144.9120 C   0  0  1  0  0  3  0  0  0  0  0  0
  185.0140  178.8510  140.0790 C   0  0  0  0  0  0  0  0  0  0  0  0
  185.6600  178.8890  142.4700 C   0  0  1  0  0  3  0  0  0  0  0  0
  190.7980  177.4040  139.7750 N   0  0  0  0  0  2  0  0  0  0  0  0
  186.6910  178.5010  146.6790 C   0  0  0  0  0  2  0  0  0  0  0  0
  184.3080  178.2230  146.1400 C   0  0  0  0  0  2  0  0  0  0  0  0
  182.8660  176.6730  140.5160 N   0  0  0  0  0  1  0  0  0  0  0  0
  189.1180  178.5970  138.3800 C   0  0  0  0  0  1  0  0  0  0  0  0
  190.3190  178.2490  142.8280 C   0  0  0  0  0  0  0  0  0  0  0  0
  191.6350  177.1900  140.9320 C   0  0  0  0  0  3  0  0  0  0  0  0
  182.5720  178.0670  140.1950 C   0  0  1  0  0  3  0  0  0  0  0  0
  188.6870  178.3080  140.9100 C   0  0  2  0  0  3  0  0  0  0  0  0
  187.1550  176.8060  143.2500 C   0  0  0  0  0  2  0  0  0  0  0  0
  189.2120  177.3730  146.2910 O   0  0  0  0  0  1  0  0  0  0  0  0
  187.6360  177.6790  144.4290 C   0  0  1  0  0  3  0  0  0  0  0  0
  185.2840  178.7790  147.1750 C   0  0  0  0  0  2  0  0  0  0  0  0
  185.1990  180.4400  144.4060 C   0  0  0  0  0  1  0  0  0  0  0  0
  191.1820  177.6790  142.0420 C   0  0  0  0  0  0  0  0  0  0  0  0
  189.0600  178.5300  142.1700 C   0  0  0  0  0  2  0  0  0  0  0  0
  185.0080  179.0390  143.8710 C   0  0  2  0  0  3  0  0  0  0  0  0
  1  5  1  6  0  0  0
  1 22  1  0  0  0  0
  1  4  1  0  0  0  0
  2 18  1  6  0  0  0
  2 14  1  0  0  0  0
  2 22  1  0  0  0  0
  3 11  1  0  0  0  0
  4 13  1  0  0  0  0
  4 23  1  1  0  0  0
  5 12  1  0  0  0  0
  7 10  1  0  0  0  0
  7 16  1  1  0  0  0
  8  6  1  0  0  0  0
  9 12  1  0  0  0  0
  9 21  1  0  0  0  0
 10 15  1  1  0  0  0
 11 24  1  1  0  0  0
 12  8  2  0  0  0  0
 13  8  1  6  0  0  0
 13 30  1  0  0  0  0
 14 20  1  0  0  0  0
 15 26  1  0  0  0  0
 16 26  1  0  0  0  0
 19  3  1  0  0  0  0
 20 28  2  0  0  0  0
 21 17  1  1  0  0  0
 21  6  1  0  0  0  0
 22 29  1  1  0  0  0
 25 23  1  6  0  0  0
 25 11  1  0  0  0  0
 25 10  1  0  0  0  0
 28 19  2  0  0  0  0
 29 19  1  0  0  0  0
 30 27  1  1  0  0  0
 30  7  1  0  0  0  0
M  END
>  <MODEL>
1

>  <REMARK>
 VINA RESULT:      -7.9      0.000      0.000
  Name = 
  0 active torsions:
  status: ('A' for Active; 'I' for Inactive)
                            x       y       z     vdW  Elec       q    Type
                         _______ _______ _______ _____ _____    ______ ____

>  <TORSDO>
F 0

$$$$
=
 OpenBabel10262421433D

 30 35  0  0  1  0  0  0  0  0999 V2000
  186.1870  177.8470  144.4890 C   0  0  1  0  0  3  0  0  0  0  0  0
  184.0860  179.2540  143.4230 C   0  0  1  0  0  3  0  0  0  0  0  0
  186.8730  178.3400  140.0020 N   0  0  0  0  0  2  0  0  0  0  0  0
  187.6280  177.2810  144.1420 C   0  0  2  0  0  3  0  0  0  0  0  0
  186.0960  178.4510  145.8870 C   0  0  0  0  0  2  0  0  0  0  0  0
  189.9100  177.7820  147.2450 S   0  0  0  0  0  0  0  0  0  0  0  0
  190.5830  176.8900  143.2760 C   0  0  1  0  0  3  0  0  0  0  0  0
  188.5680  178.2960  146.1550 C   0  0  0  0  0  0  0  0  0  0  0  0
  187.2280  177.9170  148.4500 S   0  0  0  0  0  0  0  0  0  0  0  0
  190.0400  176.9180  141.8420 C   0  0  2  0  0  3  0  0  0  0  0  0
  187.9470  177.3300  140.3120 C   0  0  1  0  0  3  0  0  0  0  0  0
  187.3450  178.3240  146.7120 C   0  0  0  0  0  0  0  0  0  0  0  0
  188.7120  178.2600  144.6470 C   0  0  1  0  0  3  0  0  0  0  0  0
  183.1360  178.5870  142.4870 N   0  0  0  0  0  2  0  0  0  0  0  0
  191.0600  177.6830  141.0300 C   0  0  0  0  0  2  0  0  0  0  0  0
  192.0690  176.8190  143.0990 C   0  0  0  0  0  2  0  0  0  0  0  0
  188.4100  175.5990  147.7080 N   0  0  0  0  0  1  0  0  0  0  0  0
  183.4780  179.4210  144.8060 C   0  0  0  0  0  1  0  0  0  0  0  0
  185.9070  178.9020  140.9110 C   0  0  0  0  0  0  0  0  0  0  0  0
  183.4080  178.4800  141.0740 C   0  0  0  0  0  3  0  0  0  0  0  0
  188.7350  176.8840  148.3200 C   0  0  1  0  0  3  0  0  0  0  0  0
  185.5270  178.7300  143.3940 C   0  0  2  0  0  3  0  0  0  0  0  0
  187.7910  176.5980  142.7570 C   0  0  0  0  0  2  0  0  0  0  0  0
  188.9020  177.3540  139.2930 O   0  0  0  0  0  1  0  0  0  0  0  0
  188.5960  177.4250  141.7320 C   0  0  1  0  0  3  0  0  0  0  0  0
  192.3740  177.4990  141.7660 C   0  0  0  0  0  2  0  0  0  0  0  0
  190.8420  179.3840  143.8950 C   0  0  0  0  0  1  0  0  0  0  0  0
  184.6380  178.6900  140.7290 C   0  0  0  0  0  0  0  0  0  0  0  0
  186.2810  178.8970  142.3090 C   0  0  0  0  0  2  0  0  0  0  0  0
  190.1880  178.0570  144.2090 C   0  0  2  0  0  3  0  0  0  0  0  0
  1  5  1  1  0  0  0
  2 18  1  1  0  0  0
  3 11  1  0  0  0  0
  3 19  1  0  0  0  0
  4 23  1  6  0  0  0
  4  1  1  0  0  0  0
  4 13  1  0  0  0  0
  5 12  1  0  0  0  0
  6 21  1  0  0  0  0
  7 16  1  6  0  0  0
  7 30  1  0  0  0  0
  8 12  2  0  0  0  0
  8  6  1  0  0  0  0
 10 15  1  6  0  0  0
 10  7  1  0  0  0  0
 11 24  1  6  0  0  0
 11 25  1  0  0  0  0
 12  9  1  0  0  0  0
 13  8  1  1  0  0  0
 14  2  1  0  0  0  0
 15 26  1  0  0  0  0
 19 29  1  0  0  0  0
 20 14  1  0  0  0  0
 21 17  1  6  0  0  0
 21  9  1  0  0  0  0
 22 29  1  6  0  0  0
 22  2  1  0  0  0  0
 22  1  1  0  0  0  0
 25 10  1  0  0  0  0
 25 23  1  1  0  0  0
 26 16  1  0  0  0  0
 28 19  2  0  0  0  0
 28 20  2  0  0  0  0
 30 27  1  6  0  0  0
 30 13  1  0  0  0  0
M  END
>  <MODEL>
2

>  <REMARK>
 VINA RESULT:      -7.5      3.186      6.639
  Name = 
  0 active torsions:
  status: ('A' for Active; 'I' for Inactive)
                            x       y       z     vdW  Elec       q    Type
                         _______ _______ _______ _____ _____    ______ ____

>  <TORSDO>
F 0

$$$$
=
 OpenBabel10262421433D

 30 35  0  0  1  0  0  0  0  0999 V2000
  182.5390  178.9920  140.5650 C   0  0  1  0  0  3  0  0  0  0  0  0
  182.5010  178.6570  143.2880 C   0  0  1  0  0  3  0  0  0  0  0  0
  186.7970  178.1990  142.0070 N   0  0  0  0  0  2  0  0  0  0  0  0
  183.4760  178.8530  139.2930 C   0  0  2  0  0  3  0  0  0  0  0  0
  181.1130  178.5050  140.3210 C   0  0  0  0  0  2  0  0  0  0  0  0
  181.3560  177.4200  136.3710 S   0  0  0  0  0  0  0  0  0  0  0  0
  185.3950  177.8780  137.0560 C   0  0  1  0  0  3  0  0  0  0  0  0
  181.7770  177.5470  138.1200 C   0  0  0  0  0  0  0  0  0  0  0  0
  179.2710  178.5060  138.1430 S   0  0  0  0  0  0  0  0  0  0  0  0
  186.5090  178.0800  138.0910 C   0  0  2  0  0  3  0  0  0  0  0  0
  187.0860  178.6280  140.5920 C   0  0  1  0  0  3  0  0  0  0  0  0
  180.8270  178.0720  138.9110 C   0  0  0  0  0  0  0  0  0  0  0  0
  183.2160  177.4990  138.5940 C   0  0  1  0  0  3  0  0  0  0  0  0
  183.1450  179.6680  144.1770 N   0  0  0  0  0  2  0  0  0  0  0  0
  187.4720  176.9320  137.8890 C   0  0  0  0  0  2  0  0  0  0  0  0
  186.1000  177.2780  135.8790 C   0  0  0  0  0  2  0  0  0  0  0  0
  180.8070  180.0470  136.5350 N   0  0  0  0  0  1  0  0  0  0  0  0
  180.9870  178.7920  143.2980 C   0  0  0  0  0  1  0  0  0  0  0  0
  185.5160  178.1350  142.6620 C   0  0  0  0  0  0  0  0  0  0  0  0
  184.5550  179.6280  144.4790 C   0  0  0  0  0  3  0  0  0  0  0  0
  180.1210  178.7580  136.5400 C   0  0  1  0  0  3  0  0  0  0  0  0
  183.1390  178.4840  141.9050 C   0  0  2  0  0  3  0  0  0  0  0  0
  184.9300  179.3780  139.4400 C   0  0  0  0  0  2  0  0  0  0  0  0
  188.3540  178.1700  140.2280 O   0  0  0  0  0  1  0  0  0  0  0  0
  186.0000  178.2680  139.5260 C   0  0  1  0  0  3  0  0  0  0  0  0
  187.3010  176.5190  136.4390 C   0  0  0  0  0  2  0  0  0  0  0  0
  184.4520  175.5360  137.6010 C   0  0  0  0  0  1  0  0  0  0  0  0
  185.2700  178.8880  143.6920 C   0  0  0  0  0  0  0  0  0  0  0  0
  184.3700  177.9870  141.7900 C   0  0  0  0  0  2  0  0  0  0  0  0
  184.1810  177.0190  137.4770 C   0  0  2  0  0  3  0  0  0  0  0  0
  1  5  1  6  0  0  0
  1 22  1  0  0  0  0
  2 18  1  6  0  0  0
  2 14  1  0  0  0  0
  3 19  1  0  0  0  0
  4 23  1  1  0  0  0
  4  1  1  0  0  0  0
  6 21  1  0  0  0  0
  6  8  1  0  0  0  0
  7 16  1  6  0  0  0
  7 30  1  0  0  0  0
  7 10  1  0  0  0  0
  8 12  2  0  0  0  0
  9 12  1  0  0  0  0
 10 15  1  1  0  0  0
 10 25  1  0  0  0  0
 11 24  1  6  0  0  0
 11  3  1  0  0  0  0
 12  5  1  0  0  0  0
 13  8  1  6  0  0  0
 13  4  1  0  0  0  0
 14 20  1  0  0  0  0
 16 26  1  0  0  0  0
 19 28  2  0  0  0  0
 21 17  1  1  0  0  0
 21  9  1  0  0  0  0
 22 29  1  1  0  0  0
 22  2  1  0  0  0  0
 25 23  1  6  0  0  0
 25 11  1  0  0  0  0
 26 15  1  0  0  0  0
 28 20  2  0  0  0  0
 29 19  1  0  0  0  0
 30 27  1  1  0  0  0
 30 13  1  0  0  0  0
M  END
>  <MODEL>
3

>  <REMARK>
 VINA RESULT:      -6.8      3.096      6.687
  Name = 
  0 active torsions:
  status: ('A' for Active; 'I' for Inactive)
                            x       y       z     vdW  Elec       q    Type
                         _______ _______ _______ _____ _____    ______ ____

>  <TORSDO>
F 0

$$$$
=
 OpenBabel10262421433D

 30 35  0  0  1  0  0  0  0  0999 V2000
  186.7270  178.4600  141.7240 C   0  0  1  0  0  3  0  0  0  0  0  0
  187.4080  177.3650  144.1460 C   0  0  1  0  0  3  0  0  0  0  0  0
  190.9680  176.7920  141.4430 N   0  0  0  0  0  2  0  0  0  0  0  0
  187.2100  178.5830  140.2180 C   0  0  2  0  0  3  0  0  0  0  0  0
  185.2240  178.2350  141.8590 C   0  0  0  0  0  2  0  0  0  0  0  0
  184.0940  178.3070  137.9150 S   0  0  0  0  0  0  0  0  0  0  0  0
  188.1650  178.0720  137.3090 C   0  0  1  0  0  3  0  0  0  0  0  0
  185.0180  177.8770  139.4030 C   0  0  0  0  0  0  0  0  0  0  0  0
  182.8730  179.0760  140.4810 S   0  0  0  0  0  0  0  0  0  0  0  0
  189.5470  177.8370  137.9320 C   0  0  2  0  0  3  0  0  0  0  0  0
  190.9180  177.5720  140.1550 C   0  0  1  0  0  3  0  0  0  0  0  0
  184.4630  178.2610  140.5640 C   0  0  0  0  0  0  0  0  0  0  0  0
  186.4920  177.5270  139.3480 C   0  0  1  0  0  3  0  0  0  0  0  0
  188.4710  177.9950  144.9810 N   0  0  0  0  0  2  0  0  0  0  0  0
  190.1580  176.6910  137.1590 C   0  0  0  0  0  2  0  0  0  0  0  0
  188.3650  177.7570  135.8580 C   0  0  0  0  0  2  0  0  0  0  0  0
  184.1600  180.8230  138.8640 N   0  0  0  0  0  1  0  0  0  0  0  0
  186.0210  177.6680  144.6890 C   0  0  0  0  0  1  0  0  0  0  0  0
  189.9440  176.6940  142.4510 C   0  0  0  0  0  0  0  0  0  0  0  0
  189.8700  177.7050  144.7800 C   0  0  0  0  0  3  0  0  0  0  0  0
  183.2580  179.6760  138.7930 C   0  0  1  0  0  3  0  0  0  0  0  0
  187.5720  177.5220  142.6290 C   0  0  2  0  0  3  0  0  0  0  0  0
  188.7200  178.8690  139.9940 C   0  0  0  0  0  2  0  0  0  0  0  0
  191.9080  177.0930  139.2940 O   0  0  0  0  0  1  0  0  0  0  0  0
  189.5210  177.6630  139.4560 C   0  0  1  0  0  3  0  0  0  0  0  0
  189.4970  176.7340  135.7940 C   0  0  0  0  0  2  0  0  0  0  0  0
  186.9660  175.8000  137.5700 C   0  0  0  0  0  1  0  0  0  0  0  0
  190.1630  177.1440  143.6510 C   0  0  0  0  0  0  0  0  0  0  0  0
  188.5910  176.9380  141.9990 C   0  0  0  0  0  2  0  0  0  0  0  0
  186.9760  177.2770  137.8940 C   0  0  2  0  0  3  0  0  0  0  0  0
  1  5  1  6  0  0  0
  1 22  1  0  0  0  0
  2 18  1  1  0  0  0
  2 14  1  0  0  0  0
  3 19  1  0  0  0  0
  4 23  1  1  0  0  0
  4  1  1  0  0  0  0
  6 21  1  0  0  0  0
  6  8  1  0  0  0  0
  7 16  1  6  0  0  0
  7 30  1  0  0  0  0
  7 10  1  0  0  0  0
  8 12  2  0  0  0  0
  9 12  1  0  0  0  0
 10 15  1  6  0  0  0
 10 25  1  0  0  0  0
 11 24  1  6  0  0  0
 11  3  1  0  0  0  0
 12  5  1  0  0  0  0
 13  8  1  6  0  0  0
 13  4  1  0  0  0  0
 19 28  2  0  0  0  0
 20 14  1  0  0  0  0
 21 17  1  1  0  0  0
 21  9  1  0  0  0  0
 22 29  1  1  0  0  0
 22  2  1  0  0  0  0
 25 23  1  1  0  0  0
 25 11  1  0  0  0  0
 26 16  1  0  0  0  0
 26 15  1  0  0  0  0
 28 20  2  0  0  0  0
 29 19  1  0  0  0  0
 30 27  1  1  0  0  0
 30 13  1  0  0  0  0
M  END
>  <MODEL>
4

>  <REMARK>
 VINA RESULT:      -6.7      2.289      5.726
  Name = 
  0 active torsions:
  status: ('A' for Active; 'I' for Inactive)
                            x       y       z     vdW  Elec       q    Type
                         _______ _______ _______ _____ _____    ______ ____

>  <TORSDO>
F 0

$$$$
=
 OpenBabel10262421433D

 30 35  0  0  1  0  0  0  0  0999 V2000
  184.3330  177.3820  138.3320 C   0  0  1  0  0  3  0  0  0  0  0  0
  186.9060  178.3270  138.4520 C   0  0  1  0  0  3  0  0  0  0  0  0
  185.0110  179.2790  142.4290 N   0  0  0  0  0  2  0  0  0  0  0  0
  182.9490  177.3970  139.1070 C   0  0  2  0  0  3  0  0  0  0  0  0
  184.1780  177.5210  136.8200 C   0  0  0  0  0  2  0  0  0  0  0  0
  180.0910  177.6860  136.4920 S   0  0  0  0  0  0  0  0  0  0  0  0
  180.3280  178.1710  140.5790 C   0  0  1  0  0  3  0  0  0  0  0  0
  181.7580  178.0500  137.0770 C   0  0  0  0  0  0  0  0  0  0  0  0
  182.3070  176.6670  134.8440 S   0  0  0  0  0  0  0  0  0  0  0  0
  181.2290  178.4280  141.7940 C   0  0  2  0  0  3  0  0  0  0  0  0
  183.6930  178.5960  142.6830 C   0  0  1  0  0  3  0  0  0  0  0  0
  182.7580  177.5530  136.3310 C   0  0  0  0  0  0  0  0  0  0  0  0
  182.0210  178.4770  138.5070 C   0  0  1  0  0  3  0  0  0  0  0  0
  187.8960  177.6910  139.3690 N   0  0  0  0  0  2  0  0  0  0  0  0
  180.6670  179.6590  142.4690 C   0  0  0  0  0  2  0  0  0  0  0  0
  178.9690  178.6030  141.0390 C   0  0  0  0  0  2  0  0  0  0  0  0
  180.8730  175.1130  136.5320 N   0  0  0  0  0  1  0  0  0  0  0  0
  187.1400  177.9140  137.0090 C   0  0  0  0  0  1  0  0  0  0  0  0
  185.7990  179.2490  141.2230 C   0  0  0  0  0  0  0  0  0  0  0  0
  187.9970  178.0650  140.7590 C   0  0  0  0  0  3  0  0  0  0  0  0
  180.6960  176.2150  135.5900 C   0  0  1  0  0  3  0  0  0  0  0  0
  185.4460  178.2910  138.9210 C   0  0  2  0  0  3  0  0  0  0  0  0
  183.0140  177.2050  140.6470 C   0  0  0  0  0  2  0  0  0  0  0  0
  183.0790  179.1870  143.7890 O   0  0  0  0  0  1  0  0  0  0  0  0
  182.7240  178.4860  141.4590 C   0  0  1  0  0  3  0  0  0  0  0  0
  179.1970  179.6840  142.0930 C   0  0  0  0  0  2  0  0  0  0  0  0
  180.4860  180.3530  139.2090 C   0  0  0  0  0  1  0  0  0  0  0  0
  186.9870  178.7240  141.2310 C   0  0  0  0  0  0  0  0  0  0  0  0
  185.0710  178.9720  140.0030 C   0  0  0  0  0  2  0  0  0  0  0  0
  180.7120  178.8590  139.2500 C   0  0  2  0  0  3  0  0  0  0  0  0
  1  5  1  6  0  0  0
  1 22  1  0  0  0  0
  1  4  1  0  0  0  0
  2 18  1  6  0  0  0
  2 22  1  0  0  0  0
  2 14  1  0  0  0  0
  3 11  1  0  0  0  0
  4 23  1  1  0  0  0
  6  8  1  0  0  0  0
  7 16  1  1  0  0  0
  7 10  1  0  0  0  0
  9 21  1  0  0  0  0
  9 12  1  0  0  0  0
 10 15  1  6  0  0  0
 11 24  1  1  0  0  0
 12  5  1  0  0  0  0
 12  8  2  0  0  0  0
 13  8  1  6  0  0  0
 13  4  1  0  0  0  0
 13 30  1  0  0  0  0
 14 20  1  0  0  0  0
 16 26  1  0  0  0  0
 19 28  2  0  0  0  0
 19  3  1  0  0  0  0
 20 28  2  0  0  0  0
 21  6  1  0  0  0  0
 21 17  1  1  0  0  0
 22 29  1  1  0  0  0
 25 23  1  1  0  0  0
 25 10  1  0  0  0  0
 25 11  1  0  0  0  0
 26 15  1  0  0  0  0
 29 19  1  0  0  0  0
 30 27  1  1  0  0  0
 30  7  1  0  0  0  0
M  END
>  <MODEL>
5

>  <REMARK>
 VINA RESULT:      -6.7      3.409      5.397
  Name = 
  0 active torsions:
  status: ('A' for Active; 'I' for Inactive)
                            x       y       z     vdW  Elec       q    Type
                         _______ _______ _______ _____ _____    ______ ____

>  <TORSDO>
F 0

$$$$
=
 OpenBabel10262421433D

 30 35  0  0  1  0  0  0  0  0999 V2000
  189.0870  178.1400  140.2520 C   0  0  1  0  0  3  0  0  0  0  0  0
  188.9300  177.0910  137.7210 C   0  0  1  0  0  3  0  0  0  0  0  0
  184.7540  178.3720  138.8320 N   0  0  0  0  0  2  0  0  0  0  0  0
  188.1950  178.6490  141.4610 C   0  0  2  0  0  3  0  0  0  0  0  0
  190.2900  177.3130  140.6970 C   0  0  0  0  0  2  0  0  0  0  0  0
  189.8400  177.4610  144.7730 S   0  0  0  0  0  0  0  0  0  0  0  0
  186.1380  178.9670  143.7630 C   0  0  1  0  0  3  0  0  0  0  0  0
  189.4250  177.2400  143.0310 C   0  0  0  0  0  0  0  0  0  0  0  0
  192.1050  177.3180  142.8980 S   0  0  0  0  0  0  0  0  0  0  0  0
  185.1130  179.2240  142.6500 C   0  0  2  0  0  3  0  0  0  0  0  0
  184.6620  179.2330  140.0640 C   0  0  1  0  0  3  0  0  0  0  0  0
  190.4680  177.2070  142.1850 C   0  0  0  0  0  0  0  0  0  0  0  0
  188.0320  177.5230  142.5060 C   0  0  1  0  0  3  0  0  0  0  0  0
  188.6140  177.9760  136.5620 N   0  0  0  0  0  2  0  0  0  0  0  0
  183.8420  178.5370  143.0930 C   0  0  0  0  0  2  0  0  0  0  0  0
  185.3150  178.9590  145.0150 C   0  0  0  0  0  2  0  0  0  0  0  0
  191.1910  179.6360  143.9520 N   0  0  0  0  0  1  0  0  0  0  0  0
  190.4070  176.7350  137.7610 C   0  0  0  0  0  1  0  0  0  0  0  0
  185.9270  177.7340  138.2910 C   0  0  0  0  0  0  0  0  0  0  0  0
  187.2550  178.3030  136.2020 C   0  0  0  0  0  3  0  0  0  0  0  0
  191.4310  178.2450  144.3260 C   0  0  1  0  0  3  0  0  0  0  0  0
  188.3140  177.5070  139.0620 C   0  0  2  0  0  3  0  0  0  0  0  0
  186.9800  179.5460  141.0970 C   0  0  0  0  0  2  0  0  0  0  0  0
  183.3260  179.3140  140.4640 O   0  0  0  0  0  1  0  0  0  0  0  0
  185.6100  178.8490  141.2480 C   0  0  1  0  0  3  0  0  0  0  0  0
  183.9180  178.4960  144.6080 C   0  0  0  0  0  2  0  0  0  0  0  0
  186.2670  176.3920  143.9100 C   0  0  0  0  0  1  0  0  0  0  0  0
  186.3670  178.0660  137.1140 C   0  0  0  0  0  0  0  0  0  0  0  0
  186.9930  177.4730  139.2350 C   0  0  0  0  0  2  0  0  0  0  0  0
  187.0000  177.6890  143.6540 C   0  0  2  0  0  3  0  0  0  0  0  0
  1  5  1  1  0  0  0
  1  4  1  0  0  0  0
  2 18  1  1  0  0  0
  2 22  1  0  0  0  0
  3 11  1  0  0  0  0
  4 23  1  6  0  0  0
  4 13  1  0  0  0  0
  5 12  1  0  0  0  0
  7 16  1  1  0  0  0
  8  6  1  0  0  0  0
  9 21  1  0  0  0  0
 10 15  1  1  0  0  0
 10  7  1  0  0  0  0
 11 24  1  1  0  0  0
 11 25  1  0  0  0  0
 12  9  1  0  0  0  0
 12  8  2  0  0  0  0
 13  8  1  1  0  0  0
 13 30  1  0  0  0  0
 14  2  1  0  0  0  0
 15 26  1  0  0  0  0
 19  3  1  0  0  0  0
 19 29  1  0  0  0  0
 20 14  1  0  0  0  0
 20 28  2  0  0  0  0
 21 17  1  6  0  0  0
 21  6  1  0  0  0  0
 22 29  1  6  0  0  0
 22  1  1  0  0  0  0
 25 23  1  6  0  0  0
 25 10  1  0  0  0  0
 26 16  1  0  0  0  0
 28 19  2  0  0  0  0
 30  7  1  0  0  0  0
 30 27  1  6  0  0  0
M  END
>  <MODEL>
6

>  <REMARK>
 VINA RESULT:      -6.6      3.192      5.442
  Name = 
  0 active torsions:
  status: ('A' for Active; 'I' for Inactive)
                            x       y       z     vdW  Elec       q    Type
                         _______ _______ _______ _____ _____    ______ ____

>  <TORSDO>
F 0

$$$$
=
 OpenBabel10262421433D

 30 35  0  0  1  0  0  0  0  0999 V2000
  183.8750  178.9050  143.6680 C   0  0  1  0  0  3  0  0  0  0  0  0
  185.6130  177.8870  145.5320 C   0  0  1  0  0  3  0  0  0  0  0  0
  187.7600  177.7360  141.5720 N   0  0  0  0  0  2  0  0  0  0  0  0
  183.6700  179.0870  142.1060 C   0  0  2  0  0  3  0  0  0  0  0  0
  182.5980  178.5080  144.4020 C   0  0  0  0  0  2  0  0  0  0  0  0
  179.9250  178.4620  141.2890 S   0  0  0  0  0  0  0  0  0  0  0  0
  183.3720  178.6990  139.0400 C   0  0  1  0  0  3  0  0  0  0  0  0
  181.4240  178.1360  142.2370 C   0  0  0  0  0  0  0  0  0  0  0  0
  179.8130  179.0770  144.1660 S   0  0  0  0  0  0  0  0  0  0  0  0
  184.9040  178.6220  139.0230 C   0  0  2  0  0  3  0  0  0  0  0  0
  187.0960  178.5100  140.4610 C   0  0  1  0  0  3  0  0  0  0  0  0
  181.3680  178.4500  143.5410 C   0  0  0  0  0  0  0  0  0  0  0  0
  182.7680  177.9580  141.5580 C   0  0  1  0  0  3  0  0  0  0  0  0
  186.8570  178.6330  145.8830 N   0  0  0  0  0  2  0  0  0  0  0  0
  185.2510  177.5560  138.0090 C   0  0  0  0  0  2  0  0  0  0  0  0
  182.9800  178.4130  137.6230 C   0  0  0  0  0  2  0  0  0  0  0  0
  180.1200  180.9650  142.2520 N   0  0  0  0  0  1  0  0  0  0  0  0
  184.5570  178.0270  146.6150 C   0  0  0  0  0  1  0  0  0  0  0  0
  187.2660  177.5180  142.9070 C   0  0  0  0  0  0  0  0  0  0  0  0
  188.0660  178.5060  145.1060 C   0  0  0  0  0  3  0  0  0  0  0  0
  179.3950  179.7230  142.5030 C   0  0  1  0  0  3  0  0  0  0  0  0
  185.1130  178.0670  144.0930 C   0  0  2  0  0  3  0  0  0  0  0  0
  184.9110  179.5450  141.2910 C   0  0  0  0  0  2  0  0  0  0  0  0
  187.6800  178.1500  139.2450 O   0  0  0  0  0  1  0  0  0  0  0  0
  185.5340  178.4420  140.4100 C   0  0  1  0  0  3  0  0  0  0  0  0
  184.0810  177.5270  137.0440 C   0  0  0  0  0  2  0  0  0  0  0  0
  182.6320  176.3030  139.6580 C   0  0  0  0  0  1  0  0  0  0  0  0
  187.9170  177.9860  143.9300 C   0  0  0  0  0  0  0  0  0  0  0  0
  185.8300  177.6060  143.0690 C   0  0  0  0  0  2  0  0  0  0  0  0
  182.6250  177.7700  140.0240 C   0  0  2  0  0  3  0  0  0  0  0  0
  1 22  1  0  0  0  0
  1  5  1  6  0  0  0
  2 14  1  0  0  0  0
  2 18  1  1  0  0  0
  3 19  1  0  0  0  0
  4 23  1  6  0  0  0
  4  1  1  0  0  0  0
  6  8  1  0  0  0  0
  6 21  1  0  0  0  0
  7 16  1  6  0  0  0
  7 30  1  0  0  0  0
  8 12  2  0  0  0  0
 10 15  1  6  0  0  0
 10  7  1  0  0  0  0
 10 25  1  0  0  0  0
 11 24  1  6  0  0  0
 11  3  1  0  0  0  0
 12  9  1  0  0  0  0
 12  5  1  0  0  0  0
 13  4  1  0  0  0  0
 13  8  1  6  0  0  0
 19 29  1  0  0  0  0
 19 28  2  0  0  0  0
 20 14  1  0  0  0  0
 21 17  1  6  0  0  0
 21  9  1  0  0  0  0
 22 29  1  6  0  0  0
 22  2  1  0  0  0  0
 25 11  1  0  0  0  0
 25 23  1  1  0  0  0
 26 16  1  0  0  0  0
 26 15  1  0  0  0  0
 28 20  2  0  0  0  0
 30 27  1  1  0  0  0
 30 13  1  0  0  0  0
M  END
>  <MODEL>
7

>  <REMARK>
 VINA RESULT:      -6.3      2.722      5.882
  Name = 
  0 active torsions:
  status: ('A' for Active; 'I' for Inactive)
                            x       y       z     vdW  Elec       q    Type
                         _______ _______ _______ _____ _____    ______ ____

>  <TORSDO>
F 0

$$$$
=
 OpenBabel10262421433D

 30 35  0  0  1  0  0  0  0  0999 V2000
  184.0750  179.1420  141.8470 C   0  0  1  0  0  3  0  0  0  0  0  0
  184.3270  178.2360  144.4250 C   0  0  1  0  0  3  0  0  0  0  0  0
  188.1910  177.2270  142.3360 N   0  0  0  0  0  2  0  0  0  0  0  0
  184.7750  179.1000  140.4240 C   0  0  2  0  0  3  0  0  0  0  0  0
  182.5560  179.0110  141.7760 C   0  0  0  0  0  2  0  0  0  0  0  0
  182.0090  178.7860  137.7150 S   0  0  0  0  0  0  0  0  0  0  0  0
  186.1000  178.2750  137.7410 C   0  0  1  0  0  3  0  0  0  0  0  0
  182.6800  178.4430  139.3540 C   0  0  0  0  0  0  0  0  0  0  0  0
  180.4880  179.8500  140.0000 S   0  0  0  0  0  0  0  0  0  0  0  0
  187.3600  178.0230  138.5790 C   0  0  2  0  0  3  0  0  0  0  0  0
  188.3780  177.8880  140.9940 C   0  0  1  0  0  3  0  0  0  0  0  0
  181.9920  178.9600  140.3850 C   0  0  0  0  0  0  0  0  0  0  0  0
  184.1200  178.0100  139.5470 C   0  0  1  0  0  3  0  0  0  0  0  0
  185.3000  178.8810  145.3540 N   0  0  0  0  0  2  0  0  0  0  0  0
  187.9960  176.7800  138.0020 C   0  0  0  0  0  2  0  0  0  0  0  0
  186.4830  177.8180  136.3660 C   0  0  0  0  0  2  0  0  0  0  0  0
  182.1070  181.3690  138.4530 N   0  0  0  0  0  1  0  0  0  0  0  0
  182.9010  178.6620  144.7300 C   0  0  0  0  0  1  0  0  0  0  0  0
  187.0290  177.2770  143.1860 C   0  0  0  0  0  0  0  0  0  0  0  0
  186.6910  178.4990  145.3870 C   0  0  0  0  0  3  0  0  0  0  0  0
  181.1500  180.2720  138.3440 C   0  0  1  0  0  3  0  0  0  0  0  0
  184.7170  178.2460  142.9420 C   0  0  2  0  0  3  0  0  0  0  0  0
  186.3170  179.2820  140.4030 C   0  0  0  0  0  2  0  0  0  0  0  0
  189.4460  177.2790  140.3320 O   0  0  0  0  0  1  0  0  0  0  0  0
  187.1040  177.9910  140.0920 C   0  0  1  0  0  3  0  0  0  0  0  0
  187.5420  176.7340  136.5550 C   0  0  0  0  0  2  0  0  0  0  0  0
  184.7260  176.1050  138.0070 C   0  0  0  0  0  1  0  0  0  0  0  0
  187.1040  177.8210  144.3630 C   0  0  0  0  0  0  0  0  0  0  0  0
  185.7740  177.5520  142.5200 C   0  0  0  0  0  2  0  0  0  0  0  0
  184.7890  177.6030  138.2060 C   0  0  2  0  0  3  0  0  0  0  0  0
  1  5  1  6  0  0  0
  1 22  1  0  0  0  0
  2 18  1  6  0  0  0
  2 14  1  0  0  0  0
  3 19  1  0  0  0  0
  4 23  1  1  0  0  0
  4  1  1  0  0  0  0
  6 21  1  0  0  0  0
  6  8  1  0  0  0  0
  7 16  1  6  0  0  0
  7 30  1  0  0  0  0
  7 10  1  0  0  0  0
  8 12  2  0  0  0  0
  9 12  1  0  0  0  0
 10 15  1  6  0  0  0
 10 25  1  0  0  0  0
 11 24  1  6  0  0  0
 11  3  1  0  0  0  0
 12  5  1  0  0  0  0
 13  8  1  6  0  0  0
 13  4  1  0  0  0  0
 14 20  1  0  0  0  0
 16 26  1  0  0  0  0
 19 28  2  0  0  0  0
 21 17  1  1  0  0  0
 21  9  1  0  0  0  0
 22 29  1  1  0  0  0
 22  2  1  0  0  0  0
 25 23  1  1  0  0  0
 25 11  1  0  0  0  0
 26 15  1  0  0  0  0
 28 20  2  0  0  0  0
 29 19  1  0  0  0  0
 30 27  1  1  0  0  0
 30 13  1  0  0  0  0
M  END
>  <MODEL>
8

>  <REMARK>
 VINA RESULT:      -6.3      2.504      5.868
  Name = 
  0 active torsions:
  status: ('A' for Active; 'I' for Inactive)
                            x       y       z     vdW  Elec       q    Type
                         _______ _______ _______ _____ _____    ______ ____

>  <TORSDO>
F 0

$$$$
=
 OpenBabel10262421433D

 30 35  0  0  1  0  0  0  0  0999 V2000
  183.5550  174.8560  137.7500 C   0  0  1  0  0  3  0  0  0  0  0  0
  185.9660  174.6010  136.4650 C   0  0  1  0  0  3  0  0  0  0  0  0
  185.7590  178.8490  137.9570 N   0  0  0  0  0  2  0  0  0  0  0  0
  182.5820  175.9270  138.3980 C   0  0  2  0  0  3  0  0  0  0  0  0
  182.8240  173.7890  136.9400 C   0  0  0  0  0  2  0  0  0  0  0  0
  178.9310  174.9570  137.4960 S   0  0  0  0  0  0  0  0  0  0  0  0
  180.7330  178.3490  138.9920 C   0  0  1  0  0  3  0  0  0  0  0  0
  180.6910  175.0610  137.1170 C   0  0  0  0  0  0  0  0  0  0  0  0
  180.3390  172.4010  137.1110 S   0  0  0  0  0  0  0  0  0  0  0  0
  182.0330  179.1440  139.1670 C   0  0  2  0  0  3  0  0  0  0  0  0
  184.6480  179.1230  138.9360 C   0  0  1  0  0  3  0  0  0  0  0  0
  181.3260  173.8860  136.9740 C   0  0  0  0  0  0  0  0  0  0  0  0
  181.4860  176.3240  137.3840 C   0  0  1  0  0  3  0  0  0  0  0  0
  187.2390  174.6650  137.2410 N   0  0  0  0  0  2  0  0  0  0  0  0
  181.7690  180.5030  138.5600 C   0  0  0  0  0  2  0  0  0  0  0  0
  179.6570  179.3820  139.1280 C   0  0  0  0  0  2  0  0  0  0  0  0
  179.6850  173.3870  139.5440 N   0  0  0  0  0  1  0  0  0  0  0  0
  185.6240  173.1720  136.0760 C   0  0  0  0  0  1  0  0  0  0  0  0
  186.0160  177.6260  137.2390 C   0  0  0  0  0  0  0  0  0  0  0  0
  187.8700  175.9210  137.5670 C   0  0  0  0  0  3  0  0  0  0  0  0
  179.1480  173.2790  138.1900 C   0  0  1  0  0  3  0  0  0  0  0  0
  184.8030  175.4290  137.0250 C   0  0  2  0  0  3  0  0  0  0  0  0
  183.2410  177.0170  139.2870 C   0  0  0  0  0  2  0  0  0  0  0  0
  184.5080  180.5040  139.0910 O   0  0  0  0  0  1  0  0  0  0  0  0
  183.2810  178.4200  138.6440 C   0  0  1  0  0  3  0  0  0  0  0  0
  180.2690  180.7020  138.6650 C   0  0  0  0  0  2  0  0  0  0  0  0
  180.3310  178.3600  136.4420 C   0  0  0  0  0  1  0  0  0  0  0  0
  187.1180  176.9680  137.4430 C   0  0  0  0  0  0  0  0  0  0  0  0
  184.8730  176.7600  137.0430 C   0  0  0  0  0  2  0  0  0  0  0  0
  180.5660  177.5370  137.6880 C   0  0  2  0  0  3  0  0  0  0  0  0
  1  5  1  6  0  0  0
  1  4  1  0  0  0  0
  2 18  1  1  0  0  0
  2 22  1  0  0  0  0
  2 14  1  0  0  0  0
  3 11  1  0  0  0  0
  4 23  1  6  0  0  0
  5 12  1  0  0  0  0
  6 21  1  0  0  0  0
  7 16  1  6  0  0  0
  7 10  1  0  0  0  0
  8  6  1  0  0  0  0
  9 21  1  0  0  0  0
 10 15  1  6  0  0  0
 11 24  1  6  0  0  0
 12  9  1  0  0  0  0
 12  8  2  0  0  0  0
 13  8  1  1  0  0  0
 13 30  1  0  0  0  0
 13  4  1  0  0  0  0
 14 20  1  0  0  0  0
 15 26  1  0  0  0  0
 19 28  2  0  0  0  0
 19  3  1  0  0  0  0
 21 17  1  1  0  0  0
 22 29  1  1  0  0  0
 22  1  1  0  0  0  0
 25 11  1  0  0  0  0
 25 10  1  0  0  0  0
 25 23  1  1  0  0  0
 26 16  1  0  0  0  0
 28 20  2  0  0  0  0
 29 19  1  0  0  0  0
 30 27  1  6  0  0  0
 30  7  1  0  0  0  0
M  END
>  <MODEL>
9

>  <REMARK>
 VINA RESULT:      -6.1      5.635      7.198
  Name = 
  0 active torsions:
  status: ('A' for Active; 'I' for Inactive)
                            x       y       z     vdW  Elec       q    Type
                         _______ _______ _______ _____ _____    ______ ____

>  <TORSDO>
F 0

$$$$
