=
 OpenBabel10262422023D

 30 32  0  0  1  0  0  0  0  0999 V2000
  190.5410  175.7720  143.1080 C   0  0  0  0  0  0  0  0  0  0  0  0
  189.3500  178.8030  144.4570 C   0  0  0  0  0  2  0  0  0  0  0  0
  188.3880  178.5160  141.7340 C   0  0  0  0  0  1  0  0  0  0  0  0
  188.5430  177.5950  143.9530 C   0  0  2  0  0  3  0  0  0  0  0  0
  191.1880  176.0900  144.3510 N   0  0  0  0  0  2  0  0  0  0  0  0
  190.3340  174.5610  142.8270 O   0  0  0  0  0  0  0  0  0  0  0  0
  190.8550  178.6340  144.2630 C   0  0  0  0  0  2  0  0  0  0  0  0
  191.3660  177.3940  144.9270 C   0  0  0  0  0  0  0  0  0  0  0  0
  188.6870  177.3100  142.5080 N   0  0  0  0  0  0  0  0  0  0  0  0
  191.9530  177.4980  146.0340 O   0  0  0  0  0  0  0  0  0  0  0  0
  190.0490  176.8550  142.1710 C   0  0  2  0  0  3  0  0  0  0  0  0
  186.6570  177.4930  145.5870 C   0  0  0  0  0  3  0  0  0  0  0  0
  187.0990  177.7200  144.3450 C   0  0  0  0  0  3  0  0  0  0  0  0
  187.5650  177.1000  146.7070 C   0  0  0  0  0  2  0  0  0  0  0  0
  187.7680  178.2770  147.6380 C   0  0  0  0  0  3  0  0  0  0  0  0
  189.1710  178.2170  148.2070 C   0  0  0  0  0  2  0  0  0  0  0  0
  187.9950  177.7630  149.0440 C   0  0  0  0  0  2  0  0  0  0  0  0
  190.1140  176.3870  140.7130 C   0  0  0  0  0  2  0  0  0  0  0  0
  190.5950  177.4930  139.7780 C   0  0  0  0  0  2  0  0  0  0  0  0
  189.9920  177.3780  138.3750 C   0  0  2  0  0  0  0  0  0  0  0  0
  190.4630  176.8330  135.8540 C   0  0  0  0  0  1  0  0  0  0  0  0
  189.4770  175.9960  138.0130 C   0  0  0  0  0  2  0  0  0  0  0  0
  190.7140  176.5440  137.3250 C   0  0  2  0  0  0  0  0  0  0  0  0
  189.1470  178.4580  137.8680 N   0  0  0  0  0  2  0  0  0  0  0  0
  187.8290  178.1970  138.2670 N   0  0  0  0  0  2  0  0  0  0  0  0
  186.7060  177.5630  135.9580 S   0  0  0  0  0  0  0  0  0  0  0  0
  186.7570  178.4000  137.3570 C   0  0  0  0  0  3  0  0  0  0  0  0
  191.9550  175.7560  137.7140 C   0  0  0  0  0  2  0  0  0  0  0  0
  193.1010  176.4590  137.3500 O   0  0  0  0  0  0  0  0  0  0  0  0
  193.7460  176.6490  138.4810 O   0  0  0  0  0  1  0  0  0  0  0  0
  1  5  1  0  0  0  0
  3  9  1  0  0  0  0
  4 13  1  6  0  0  0
  4  2  1  0  0  0  0
  5  8  1  0  0  0  0
  6  1  2  0  0  0  0
  7  2  1  0  0  0  0
  7  8  1  0  0  0  0
  8 10  2  0  0  0  0
  9  4  1  0  0  0  0
 11 18  1  6  0  0  0
 11  9  1  0  0  0  0
 11  1  1  0  0  0  0
 12 14  1  0  0  0  0
 13 12  2  0  0  0  0
 14 15  1  0  0  0  0
 15 16  1  0  0  0  0
 15 17  1  0  0  0  0
 16 17  1  0  0  0  0
 19 18  1  0  0  0  0
 20 19  1  1  0  0  0
 22 20  1  0  0  0  0
 23 21  1  6  0  0  0
 23 28  1  0  0  0  0
 23 22  1  0  0  0  0
 23 20  1  0  0  0  0
 24 25  1  0  0  0  0
 24 20  1  0  0  0  0
 26 27  2  0  0  0  0
 27 25  1  0  0  0  0
 29 28  1  0  0  0  0
 29 30  1  0  0  0  0
M  END
>  <MODEL>
1

>  <REMARK>
 VINA RESULT:      -6.4      0.000      0.000
  Name = 
  11 active torsions:
  status: ('A' for Active; 'I' for Inactive)
    1  A    between atoms: C_1  and  C_4
    2  A    between atoms: C_1  and  C_22
    3  A    between atoms: C_4  and  N_5
    4  A    between atoms: N_5  and  N_21
    5  A    between atoms: C_10  and  C_25
    6  A    between atoms: C_11  and  C_24
    7  A    between atoms: C_12  and  C_27
    8  A    between atoms: O_13  and  C_27
    9  A    between atoms: C_15  and  C_25
   10  A    between atoms: C_17  and  N_21
   11  A    between atoms: C_22  and  C_29
                            x       y       z     vdW  Elec       q    Type
                         _______ _______ _______ _____ _____    ______ ____

>  <TORSDO>
F 11

$$$$
=
 OpenBabel10262422023D

 30 32  0  0  1  0  0  0  0  0999 V2000
  184.3180  178.7140  139.6820 C   0  0  0  0  0  0  0  0  0  0  0  0
  181.0830  177.4070  140.1880 C   0  0  0  0  0  2  0  0  0  0  0  0
  181.9770  178.7320  142.6110 C   0  0  0  0  0  1  0  0  0  0  0  0
  181.5460  178.8720  140.2460 C   0  0  2  0  0  3  0  0  0  0  0  0
  183.9290  177.8330  138.6160 N   0  0  0  0  0  2  0  0  0  0  0  0
  185.0530  179.7020  139.4130 O   0  0  0  0  0  0  0  0  0  0  0  0
  182.2320  176.4320  139.9380 C   0  0  0  0  0  2  0  0  0  0  0  0
  182.9770  176.7590  138.6820 C   0  0  0  0  0  0  0  0  0  0  0  0
  182.5140  179.1780  141.3230 N   0  0  0  0  0  0  0  0  0  0  0  0
  182.7450  176.0840  137.6480 O   0  0  0  0  0  0  0  0  0  0  0  0
  183.8140  178.5180  141.0970 C   0  0  2  0  0  3  0  0  0  0  0  0
  180.2960  180.9290  139.5780 C   0  0  0  0  0  3  0  0  0  0  0  0
  180.3660  179.8000  140.2920 C   0  0  0  0  0  3  0  0  0  0  0  0
  181.3880  181.3700  138.6570 C   0  0  0  0  0  2  0  0  0  0  0  0
  180.7900  182.0380  137.4370 C   0  0  0  0  0  3  0  0  0  0  0  0
  181.2710  183.4730  137.3780 C   0  0  0  0  0  2  0  0  0  0  0  0
  179.8800  183.1610  137.8850 C   0  0  0  0  0  2  0  0  0  0  0  0
  184.8470  179.0020  142.1180 C   0  0  0  0  0  2  0  0  0  0  0  0
  185.3180  177.8770  143.0350 C   0  0  0  0  0  2  0  0  0  0  0  0
  186.8430  177.8360  143.1780 C   0  0  2  0  0  0  0  0  0  0  0  0
  188.8730  178.1540  144.8050 C   0  0  0  0  0  1  0  0  0  0  0  0
  187.4070  176.4940  143.6100 C   0  0  0  0  0  2  0  0  0  0  0  0
  187.4510  177.6740  144.5640 C   0  0  2  0  0  0  0  0  0  0  0  0
  187.6740  178.5180  142.1870 N   0  0  0  0  0  2  0  0  0  0  0  0
  188.1390  177.5550  141.2810 N   0  0  0  0  0  2  0  0  0  0  0  0
  188.0750  177.7930  138.6480 S   0  0  0  0  0  0  0  0  0  0  0  0
  188.8090  177.9600  140.0940 C   0  0  0  0  0  3  0  0  0  0  0  0
  186.5430  177.4480  145.7620 C   0  0  0  0  0  2  0  0  0  0  0  0
  186.3160  178.6520  146.4240 O   0  0  0  0  0  0  0  0  0  0  0  0
  185.0270  178.6470  146.6890 O   0  0  0  0  0  1  0  0  0  0  0  0
  1 11  1  0  0  0  0
  2  4  1  0  0  0  0
  4 13  1  1  0  0  0
  4  9  1  0  0  0  0
  5  8  1  0  0  0  0
  5  1  1  0  0  0  0
  6  1  2  0  0  0  0
  7  2  1  0  0  0  0
  8  7  1  0  0  0  0
  9  3  1  0  0  0  0
 10  8  2  0  0  0  0
 11  9  1  0  0  0  0
 11 18  1  1  0  0  0
 12 13  2  0  0  0  0
 14 12  1  0  0  0  0
 15 17  1  0  0  0  0
 15 14  1  0  0  0  0
 16 15  1  0  0  0  0
 16 17  1  0  0  0  0
 18 19  1  0  0  0  0
 20 19  1  6  0  0  0
 20 22  1  0  0  0  0
 20 23  1  0  0  0  0
 22 23  1  0  0  0  0
 23 21  1  1  0  0  0
 23 28  1  0  0  0  0
 24 20  1  0  0  0  0
 25 24  1  0  0  0  0
 26 27  2  0  0  0  0
 27 25  1  0  0  0  0
 28 29  1  0  0  0  0
 29 30  1  0  0  0  0
M  END
>  <MODEL>
2

>  <REMARK>
 VINA RESULT:      -6.3      5.279      9.038
  Name = 
  11 active torsions:
  status: ('A' for Active; 'I' for Inactive)
    1  A    between atoms: C_1  and  C_4
    2  A    between atoms: C_1  and  C_22
    3  A    between atoms: C_4  and  N_5
    4  A    between atoms: N_5  and  N_21
    5  A    between atoms: C_10  and  C_25
    6  A    between atoms: C_11  and  C_24
    7  A    between atoms: C_12  and  C_27
    8  A    between atoms: O_13  and  C_27
    9  A    between atoms: C_15  and  C_25
   10  A    between atoms: C_17  and  N_21
   11  A    between atoms: C_22  and  C_29
                            x       y       z     vdW  Elec       q    Type
                         _______ _______ _______ _____ _____    ______ ____

>  <TORSDO>
F 11

$$$$
=
 OpenBabel10262422023D

 30 32  0  0  1  0  0  0  0  0999 V2000
  190.5930  175.7790  143.1730 C   0  0  0  0  0  0  0  0  0  0  0  0
  189.3960  178.8030  144.5330 C   0  0  0  0  0  2  0  0  0  0  0  0
  188.4870  178.5550  141.7880 C   0  0  0  0  0  1  0  0  0  0  0  0
  188.5910  177.6070  143.9980 C   0  0  2  0  0  3  0  0  0  0  0  0
  191.2160  176.0780  144.4320 N   0  0  0  0  0  2  0  0  0  0  0  0
  190.3830  174.5730  142.8730 O   0  0  0  0  0  0  0  0  0  0  0  0
  190.9030  178.6250  144.3670 C   0  0  0  0  0  2  0  0  0  0  0  0
  191.3920  177.3730  145.0270 C   0  0  0  0  0  0  0  0  0  0  0  0
  188.7620  177.3370  142.5530 N   0  0  0  0  0  0  0  0  0  0  0  0
  191.9560  177.4600  146.1470 O   0  0  0  0  0  0  0  0  0  0  0  0
  190.1280  176.8760  142.2380 C   0  0  2  0  0  3  0  0  0  0  0  0
  186.6730  177.5140  145.5950 C   0  0  0  0  0  3  0  0  0  0  0  0
  187.1400  177.7380  144.3620 C   0  0  0  0  0  3  0  0  0  0  0  0
  187.5580  177.1180  146.7330 C   0  0  0  0  0  2  0  0  0  0  0  0
  187.7540  178.2970  147.6630 C   0  0  0  0  0  3  0  0  0  0  0  0
  189.1470  178.2310  148.2520 C   0  0  0  0  0  2  0  0  0  0  0  0
  187.9570  177.7860  149.0740 C   0  0  0  0  0  2  0  0  0  0  0  0
  190.2190  176.4250  140.7770 C   0  0  0  0  0  2  0  0  0  0  0  0
  189.9960  177.5810  139.8060 C   0  0  0  0  0  2  0  0  0  0  0  0
  189.7330  177.1020  138.3750 C   0  0  2  0  0  0  0  0  0  0  0  0
  187.9080  176.4080  136.6260 C   0  0  0  0  0  1  0  0  0  0  0  0
  189.5020  178.2110  137.3630 C   0  0  0  0  0  2  0  0  0  0  0  0
  188.3510  177.3060  137.7680 C   0  0  2  0  0  0  0  0  0  0  0  0
  190.5110  175.9860  137.8390 N   0  0  0  0  0  2  0  0  0  0  0  0
  191.7150  176.5020  137.3390 N   0  0  0  0  0  2  0  0  0  0  0  0
  193.8860  175.0220  137.6370 S   0  0  0  0  0  0  0  0  0  0  0  0
  192.9300  176.2800  138.0410 C   0  0  0  0  0  3  0  0  0  0  0  0
  187.2960  178.0750  138.5470 C   0  0  0  0  0  2  0  0  0  0  0  0
  186.3890  178.6640  137.6680 O   0  0  0  0  0  0  0  0  0  0  0  0
  185.2100  178.2600  138.0890 O   0  0  0  0  0  1  0  0  0  0  0  0
  1  5  1  0  0  0  0
  3  9  1  0  0  0  0
  4 13  1  6  0  0  0
  4  2  1  0  0  0  0
  5  8  1  0  0  0  0
  6  1  2  0  0  0  0
  7  2  1  0  0  0  0
  7  8  1  0  0  0  0
  8 10  2  0  0  0  0
  9  4  1  0  0  0  0
 11 18  1  6  0  0  0
 11  9  1  0  0  0  0
 11  1  1  0  0  0  0
 12 14  1  0  0  0  0
 13 12  2  0  0  0  0
 14 15  1  0  0  0  0
 15 16  1  0  0  0  0
 15 17  1  0  0  0  0
 16 17  1  0  0  0  0
 19 18  1  0  0  0  0
 20 19  1  1  0  0  0
 22 23  1  0  0  0  0
 22 20  1  0  0  0  0
 23 21  1  6  0  0  0
 23 20  1  0  0  0  0
 23 28  1  0  0  0  0
 24 20  1  0  0  0  0
 25 24  1  0  0  0  0
 25 27  1  0  0  0  0
 26 27  2  0  0  0  0
 29 30  1  0  0  0  0
 29 28  1  0  0  0  0
M  END
>  <MODEL>
3

>  <REMARK>
 VINA RESULT:      -6.1      2.616      3.182
  Name = 
  11 active torsions:
  status: ('A' for Active; 'I' for Inactive)
    1  A    between atoms: C_1  and  C_4
    2  A    between atoms: C_1  and  C_22
    3  A    between atoms: C_4  and  N_5
    4  A    between atoms: N_5  and  N_21
    5  A    between atoms: C_10  and  C_25
    6  A    between atoms: C_11  and  C_24
    7  A    between atoms: C_12  and  C_27
    8  A    between atoms: O_13  and  C_27
    9  A    between atoms: C_15  and  C_25
   10  A    between atoms: C_17  and  N_21
   11  A    between atoms: C_22  and  C_29
                            x       y       z     vdW  Elec       q    Type
                         _______ _______ _______ _____ _____    ______ ____

>  <TORSDO>
F 11

$$$$
=
 OpenBabel10262422023D

 30 32  0  0  1  0  0  0  0  0999 V2000
  191.9140  177.0370  139.5340 C   0  0  0  0  0  0  0  0  0  0  0  0
  189.1050  176.4810  137.4770 C   0  0  0  0  0  2  0  0  0  0  0  0
  188.2630  177.8000  139.9210 C   0  0  0  0  0  1  0  0  0  0  0  0
  189.6800  177.8180  137.9750 C   0  0  2  0  0  3  0  0  0  0  0  0
  192.2250  176.1660  138.4350 N   0  0  0  0  0  2  0  0  0  0  0  0
  192.8050  177.8230  139.9530 O   0  0  0  0  0  0  0  0  0  0  0  0
  189.8520  175.2700  138.0320 C   0  0  0  0  0  2  0  0  0  0  0  0
  191.3140  175.3240  137.7110 C   0  0  0  0  0  0  0  0  0  0  0  0
  189.6310  178.0090  139.4410 N   0  0  0  0  0  0  0  0  0  0  0  0
  191.7510  174.6220  136.7640 O   0  0  0  0  0  0  0  0  0  0  0  0
  190.5300  177.0760  140.1480 C   0  0  2  0  0  3  0  0  0  0  0  0
  187.8990  178.8650  136.5710 C   0  0  0  0  0  3  0  0  0  0  0  0
  189.0460  178.9710  137.2510 C   0  0  0  0  0  3  0  0  0  0  0  0
  187.1340  177.5840  136.4730 C   0  0  0  0  0  2  0  0  0  0  0  0
  185.7590  177.7620  137.0800 C   0  0  0  0  0  3  0  0  0  0  0  0
  185.1400  176.3980  137.3020 C   0  0  0  0  0  2  0  0  0  0  0  0
  184.7200  177.2350  136.1130 C   0  0  0  0  0  2  0  0  0  0  0  0
  190.6010  177.4230  141.6380 C   0  0  0  0  0  2  0  0  0  0  0  0
  190.0800  176.2900  142.5160 C   0  0  0  0  0  2  0  0  0  0  0  0
  189.2710  176.8000  143.7130 C   0  0  2  0  0  0  0  0  0  0  0  0
  189.1660  177.0070  146.3240 C   0  0  0  0  0  1  0  0  0  0  0  0
  189.6130  178.2110  144.1600 C   0  0  0  0  0  2  0  0  0  0  0  0
  189.9800  177.0300  145.0410 C   0  0  2  0  0  0  0  0  0  0  0  0
  187.8420  176.5020  143.7900 N   0  0  0  0  0  2  0  0  0  0  0  0
  187.1440  177.6090  143.2890 N   0  0  0  0  0  2  0  0  0  0  0  0
  185.7870  178.5010  145.3760 S   0  0  0  0  0  0  0  0  0  0  0  0
  185.8820  177.9630  143.8400 C   0  0  0  0  0  3  0  0  0  0  0  0
  191.4880  176.8560  145.1280 C   0  0  0  0  0  2  0  0  0  0  0  0
  191.8930  176.8560  146.4610 O   0  0  0  0  0  0  0  0  0  0  0  0
  192.3190  175.6300  146.6770 O   0  0  0  0  0  1  0  0  0  0  0  0
  1  6  2  0  0  0  0
  1 11  1  0  0  0  0
  2  4  1  0  0  0  0
  2  7  1  0  0  0  0
  4 13  1  6  0  0  0
  4  9  1  0  0  0  0
  5  1  1  0  0  0  0
  8  7  1  0  0  0  0
  8  5  1  0  0  0  0
  9  3  1  0  0  0  0
  9 11  1  0  0  0  0
 10  8  2  0  0  0  0
 11 18  1  1  0  0  0
 12 13  2  0  0  0  0
 14 12  1  0  0  0  0
 14 15  1  0  0  0  0
 15 16  1  0  0  0  0
 17 15  1  0  0  0  0
 17 16  1  0  0  0  0
 18 19  1  0  0  0  0
 20 19  1  6  0  0  0
 20 24  1  0  0  0  0
 20 22  1  0  0  0  0
 20 23  1  0  0  0  0
 22 23  1  0  0  0  0
 23 28  1  0  0  0  0
 23 21  1  1  0  0  0
 25 24  1  0  0  0  0
 25 27  1  0  0  0  0
 27 26  2  0  0  0  0
 28 29  1  0  0  0  0
 29 30  1  0  0  0  0
M  END
>  <MODEL>
4

>  <REMARK>
 VINA RESULT:      -5.9      2.524      7.602
  Name = 
  11 active torsions:
  status: ('A' for Active; 'I' for Inactive)
    1  A    between atoms: C_1  and  C_4
    2  A    between atoms: C_1  and  C_22
    3  A    between atoms: C_4  and  N_5
    4  A    between atoms: N_5  and  N_21
    5  A    between atoms: C_10  and  C_25
    6  A    between atoms: C_11  and  C_24
    7  A    between atoms: C_12  and  C_27
    8  A    between atoms: O_13  and  C_27
    9  A    between atoms: C_15  and  C_25
   10  A    between atoms: C_17  and  N_21
   11  A    between atoms: C_22  and  C_29
                            x       y       z     vdW  Elec       q    Type
                         _______ _______ _______ _____ _____    ______ ____

>  <TORSDO>
F 11

$$$$
=
 OpenBabel10262422023D

 30 32  0  0  1  0  0  0  0  0999 V2000
  188.2810  178.5090  141.3220 C   0  0  0  0  0  0  0  0  0  0  0  0
  188.8350  176.7280  144.3130 C   0  0  0  0  0  2  0  0  0  0  0  0
  191.0460  176.2640  142.4920 C   0  0  0  0  0  1  0  0  0  0  0  0
  189.6870  177.8480  143.6920 C   0  0  2  0  0  3  0  0  0  0  0  0
  187.1110  178.4930  142.1540 N   0  0  0  0  0  2  0  0  0  0  0  0
  188.5070  179.5280  140.6150 O   0  0  0  0  0  0  0  0  0  0  0  0
  187.6420  176.3380  143.4430 C   0  0  0  0  0  2  0  0  0  0  0  0
  186.7630  177.5120  143.1430 C   0  0  0  0  0  0  0  0  0  0  0  0
  190.2930  177.5150  142.3840 N   0  0  0  0  0  0  0  0  0  0  0  0
  185.6970  177.6510  143.7950 O   0  0  0  0  0  0  0  0  0  0  0  0
  189.2740  177.3650  141.3270 C   0  0  2  0  0  3  0  0  0  0  0  0
  190.6620  178.0810  145.9790 C   0  0  0  0  0  3  0  0  0  0  0  0
  190.7210  178.3320  144.6670 C   0  0  0  0  0  3  0  0  0  0  0  0
  189.5590  177.2840  146.5990 C   0  0  0  0  0  2  0  0  0  0  0  0
  188.9530  178.0580  147.7500 C   0  0  0  0  0  3  0  0  0  0  0  0
  187.9520  177.1730  148.4640 C   0  0  0  0  0  2  0  0  0  0  0  0
  187.4700  178.2360  147.5010 C   0  0  0  0  0  2  0  0  0  0  0  0
  189.9390  177.2120  139.9560 C   0  0  0  0  0  2  0  0  0  0  0  0
  189.0130  176.5510  138.9400 C   0  0  0  0  0  2  0  0  0  0  0  0
  189.1950  177.1140  137.5270 C   0  0  2  0  0  0  0  0  0  0  0  0
  188.0230  177.6500  135.2440 C   0  0  0  0  0  1  0  0  0  0  0  0
  188.9220  178.6020  137.3940 C   0  0  0  0  0  2  0  0  0  0  0  0
  187.9710  177.6000  136.7620 C   0  0  2  0  0  0  0  0  0  0  0  0
  190.3220  176.6590  136.7140 N   0  0  0  0  0  2  0  0  0  0  0  0
  190.5960  175.3300  137.0640 N   0  0  0  0  0  0  0  0  0  0  0  0
  193.0240  176.0910  137.7830 S   0  0  0  0  0  1  0  0  0  0  0  0
  191.9140  174.9490  137.4330 C   0  0  0  0  0  3  0  0  0  0  0  0
  186.6150  177.6220  137.4490 C   0  0  0  0  0  2  0  0  0  0  0  0
  186.2430  178.9340  137.7310 O   0  0  0  0  0  0  0  0  0  0  0  0
  185.7070  178.8750  138.9320 O   0  0  0  0  0  1  0  0  0  0  0  0
  1 11  1  0  0  0  0
  1  5  1  0  0  0  0
  4  2  1  0  0  0  0
  4 13  1  1  0  0  0
  5  8  1  0  0  0  0
  6  1  2  0  0  0  0
  7  2  1  0  0  0  0
  8  7  1  0  0  0  0
  8 10  2  0  0  0  0
  9  3  1  0  0  0  0
  9  4  1  0  0  0  0
 11 18  1  6  0  0  0
 11  9  1  0  0  0  0
 12 14  1  0  0  0  0
 13 12  2  0  0  0  0
 14 15  1  0  0  0  0
 15 16  1  0  0  0  0
 17 15  1  0  0  0  0
 17 16  1  0  0  0  0
 19 18  1  0  0  0  0
 20 19  1  1  0  0  0
 22 20  1  0  0  0  0
 23 21  1  6  0  0  0
 23 22  1  0  0  0  0
 23 28  1  0  0  0  0
 23 20  1  0  0  0  0
 24 25  1  0  0  0  0
 24 20  1  0  0  0  0
 25 27  2  0  0  0  0
 27 26  1  0  0  0  0
 28 29  1  0  0  0  0
 29 30  1  0  0  0  0
M  END
>  <MODEL>
5

>  <REMARK>
 VINA RESULT:      -5.9      3.042      4.153
  Name = 
  11 active torsions:
  status: ('A' for Active; 'I' for Inactive)
    1  A    between atoms: C_1  and  C_4
    2  A    between atoms: C_1  and  C_22
    3  A    between atoms: C_4  and  N_5
    4  A    between atoms: N_5  and  N_21
    5  A    between atoms: C_10  and  C_25
    6  A    between atoms: C_11  and  C_24
    7  A    between atoms: C_12  and  C_27
    8  A    between atoms: O_13  and  C_27
    9  A    between atoms: C_15  and  C_25
   10  A    between atoms: C_17  and  N_21
   11  A    between atoms: C_22  and  C_29
                            x       y       z     vdW  Elec       q    Type
                         _______ _______ _______ _____ _____    ______ ____

>  <TORSDO>
F 11

$$$$
=
 OpenBabel10262422023D

 30 32  0  0  1  0  0  0  0  0999 V2000
  189.7430  176.0240  142.7310 C   0  0  0  0  0  0  0  0  0  0  0  0
  191.5840  176.9520  145.5910 C   0  0  0  0  0  2  0  0  0  0  0  0
  190.6930  179.3390  144.2030 C   0  0  0  0  0  1  0  0  0  0  0  0
  190.1140  177.2540  145.2570 C   0  0  2  0  0  3  0  0  0  0  0  0
  190.4220  174.9000  143.3130 N   0  0  0  0  0  2  0  0  0  0  0  0
  188.6240  175.8370  142.1830 O   0  0  0  0  0  0  0  0  0  0  0  0
  192.3050  176.2040  144.4710 C   0  0  0  0  0  2  0  0  0  0  0  0
  191.6110  174.9260  144.1180 C   0  0  0  0  0  0  0  0  0  0  0  0
  189.9090  178.1100  144.0680 N   0  0  0  0  0  0  0  0  0  0  0  0
  192.0750  173.8440  144.5580 O   0  0  0  0  0  0  0  0  0  0  0  0
  190.3090  177.4260  142.8230 C   0  0  2  0  0  3  0  0  0  0  0  0
  188.0660  177.8560  146.5550 C   0  0  0  0  0  3  0  0  0  0  0  0
  189.3990  177.8050  146.4580 C   0  0  0  0  0  3  0  0  0  0  0  0
  187.1590  177.3580  145.4760 C   0  0  0  0  0  2  0  0  0  0  0  0
  185.7240  177.7010  145.8150 C   0  0  0  0  0  3  0  0  0  0  0  0
  185.1570  178.5780  144.7180 C   0  0  0  0  0  2  0  0  0  0  0  0
  185.6090  179.1960  146.0230 C   0  0  0  0  0  2  0  0  0  0  0  0
  189.9090  178.2580  141.6010 C   0  0  0  0  0  2  0  0  0  0  0  0
  190.4450  177.6630  140.3020 C   0  0  0  0  0  2  0  0  0  0  0  0
  189.4570  177.8040  139.1400 C   0  0  2  0  0  0  0  0  0  0  0  0
  189.1640  177.7950  136.5350 C   0  0  0  0  0  1  0  0  0  0  0  0
  188.8350  176.5020  138.6690 C   0  0  0  0  0  2  0  0  0  0  0  0
  189.8280  177.2300  137.7790 C   0  0  2  0  0  0  0  0  0  0  0  0
  188.5200  178.9270  139.1300 N   0  0  0  0  0  2  0  0  0  0  0  0
  187.2420  178.4230  139.4110 N   0  0  0  0  0  2  0  0  0  0  0  0
  185.0170  178.9460  140.7400 S   0  0  0  0  0  0  0  0  0  0  0  0
  186.6270  178.7020  140.6610 C   0  0  0  0  0  3  0  0  0  0  0  0
  191.1140  176.4340  137.6250 C   0  0  0  0  0  2  0  0  0  0  0  0
  190.8780  175.0880  137.8930 O   0  0  0  0  0  0  0  0  0  0  0  0
  192.0770  174.5530  137.9840 O   0  0  0  0  0  1  0  0  0  0  0  0
  1 11  1  0  0  0  0
  1  5  1  0  0  0  0
  4  2  1  0  0  0  0
  4 13  1  1  0  0  0
  5  8  1  0  0  0  0
  6  1  2  0  0  0  0
  7  2  1  0  0  0  0
  8  7  1  0  0  0  0
  8 10  2  0  0  0  0
  9  3  1  0  0  0  0
  9  4  1  0  0  0  0
 11 18  1  6  0  0  0
 11  9  1  0  0  0  0
 13 12  2  0  0  0  0
 14 15  1  0  0  0  0
 14 12  1  0  0  0  0
 15 17  1  0  0  0  0
 16 15  1  0  0  0  0
 16 17  1  0  0  0  0
 19 18  1  0  0  0  0
 20 19  1  1  0  0  0
 22 20  1  0  0  0  0
 23 21  1  6  0  0  0
 23 22  1  0  0  0  0
 23 20  1  0  0  0  0
 24 20  1  0  0  0  0
 24 25  1  0  0  0  0
 25 27  1  0  0  0  0
 27 26  2  0  0  0  0
 28 23  1  0  0  0  0
 28 29  1  0  0  0  0
 29 30  1  0  0  0  0
M  END
>  <MODEL>
6

>  <REMARK>
 VINA RESULT:      -5.7      1.936      2.634
  Name = 
  11 active torsions:
  status: ('A' for Active; 'I' for Inactive)
    1  A    between atoms: C_1  and  C_4
    2  A    between atoms: C_1  and  C_22
    3  A    between atoms: C_4  and  N_5
    4  A    between atoms: N_5  and  N_21
    5  A    between atoms: C_10  and  C_25
    6  A    between atoms: C_11  and  C_24
    7  A    between atoms: C_12  and  C_27
    8  A    between atoms: O_13  and  C_27
    9  A    between atoms: C_15  and  C_25
   10  A    between atoms: C_17  and  N_21
   11  A    between atoms: C_22  and  C_29
                            x       y       z     vdW  Elec       q    Type
                         _______ _______ _______ _____ _____    ______ ____

>  <TORSDO>
F 11

$$$$
=
 OpenBabel10262422023D

 30 32  0  0  1  0  0  0  0  0999 V2000
  183.6390  179.7170  139.1080 C   0  0  0  0  0  0  0  0  0  0  0  0
  180.2150  179.6620  139.9430 C   0  0  0  0  0  2  0  0  0  0  0  0
  181.2990  176.9780  140.1490 C   0  0  0  0  0  1  0  0  0  0  0  0
  181.4220  179.2870  140.8190 C   0  0  2  0  0  3  0  0  0  0  0  0
  182.9930  180.9570  138.7800 N   0  0  0  0  0  2  0  0  0  0  0  0
  184.8420  179.7420  139.4850 O   0  0  0  0  0  0  0  0  0  0  0  0
  180.6110  180.0380  138.5170 C   0  0  0  0  0  2  0  0  0  0  0  0
  181.6010  181.1600  138.4910 C   0  0  0  0  0  0  0  0  0  0  0  0
  182.1960  178.1190  140.3450 N   0  0  0  0  0  0  0  0  0  0  0  0
  181.1940  182.3200  138.2270 O   0  0  0  0  0  0  0  0  0  0  0  0
  182.8920  178.4000  139.0740 C   0  0  2  0  0  3  0  0  0  0  0  0
  181.8810  178.9830  143.2550 C   0  0  0  0  0  3  0  0  0  0  0  0
  181.0070  179.1230  142.2530 C   0  0  0  0  0  3  0  0  0  0  0  0
  183.3610  178.9850  143.0410 C   0  0  0  0  0  2  0  0  0  0  0  0
  184.0520  179.5730  144.2530 C   0  0  0  0  0  3  0  0  0  0  0  0
  185.1360  178.6190  144.7100 C   0  0  0  0  0  2  0  0  0  0  0  0
  183.8150  178.6690  145.4440 C   0  0  0  0  0  2  0  0  0  0  0  0
  183.8310  177.2470  138.7090 C   0  0  0  0  0  2  0  0  0  0  0  0
  184.2730  177.3060  137.2500 C   0  0  0  0  0  2  0  0  0  0  0  0
  185.7560  176.9670  137.0710 C   0  0  2  0  0  0  0  0  0  0  0  0
  187.5090  175.0540  136.7030 C   0  0  0  0  0  1  0  0  0  0  0  0
  186.2360  176.9410  135.6310 C   0  0  0  0  0  2  0  0  0  0  0  0
  186.1390  175.6460  136.4190 C   0  0  2  0  0  0  0  0  0  0  0  0
  186.7370  177.5370  137.9940 N   0  0  0  0  0  2  0  0  0  0  0  0
  187.3470  178.6250  137.3560 N   0  0  0  0  0  0  0  0  0  0  0  0
  189.6220  177.9420  138.5190 S   0  0  0  0  0  1  0  0  0  0  0  0
  188.7550  178.7980  137.4340 C   0  0  0  0  0  3  0  0  0  0  0  0
  185.0530  174.7420  135.8590 C   0  0  0  0  0  2  0  0  0  0  0  0
  185.0500  173.5240  136.5360 O   0  0  0  0  0  0  0  0  0  0  0  0
  184.4180  173.7740  137.6630 O   0  0  0  0  0  1  0  0  0  0  0  0
  1  6  2  0  0  0  0
  2  4  1  0  0  0  0
  3  9  1  0  0  0  0
  4 13  1  1  0  0  0
  5  1  1  0  0  0  0
  7  2  1  0  0  0  0
  8  7  1  0  0  0  0
  8  5  1  0  0  0  0
  9  4  1  0  0  0  0
 10  8  2  0  0  0  0
 11 18  1  1  0  0  0
 11  1  1  0  0  0  0
 11  9  1  0  0  0  0
 13 12  2  0  0  0  0
 14 12  1  0  0  0  0
 14 15  1  0  0  0  0
 15 16  1  0  0  0  0
 15 17  1  0  0  0  0
 16 17  1  0  0  0  0
 19 18  1  0  0  0  0
 20 19  1  1  0  0  0
 20 24  1  0  0  0  0
 22 23  1  0  0  0  0
 22 20  1  0  0  0  0
 23 21  1  1  0  0  0
 23 20  1  0  0  0  0
 25 27  2  0  0  0  0
 25 24  1  0  0  0  0
 27 26  1  0  0  0  0
 28 23  1  0  0  0  0
 28 29  1  0  0  0  0
 29 30  1  0  0  0  0
M  END
>  <MODEL>
7

>  <REMARK>
 VINA RESULT:      -5.7      5.397      7.531
  Name = 
  11 active torsions:
  status: ('A' for Active; 'I' for Inactive)
    1  A    between atoms: C_1  and  C_4
    2  A    between atoms: C_1  and  C_22
    3  A    between atoms: C_4  and  N_5
    4  A    between atoms: N_5  and  N_21
    5  A    between atoms: C_10  and  C_25
    6  A    between atoms: C_11  and  C_24
    7  A    between atoms: C_12  and  C_27
    8  A    between atoms: O_13  and  C_27
    9  A    between atoms: C_15  and  C_25
   10  A    between atoms: C_17  and  N_21
   11  A    between atoms: C_22  and  C_29
                            x       y       z     vdW  Elec       q    Type
                         _______ _______ _______ _____ _____    ______ ____

>  <TORSDO>
F 11

$$$$
=
 OpenBabel10262422023D

 30 32  0  0  1  0  0  0  0  0999 V2000
  183.7270  179.6910  139.0280 C   0  0  0  0  0  0  0  0  0  0  0  0
  180.3150  179.4480  139.8810 C   0  0  0  0  0  2  0  0  0  0  0  0
  181.5140  176.8050  139.9410 C   0  0  0  0  0  1  0  0  0  0  0  0
  181.5440  179.0800  140.7290 C   0  0  2  0  0  3  0  0  0  0  0  0
  183.0260  180.9180  138.7680 N   0  0  0  0  0  2  0  0  0  0  0  0
  184.9300  179.7490  139.3980 O   0  0  0  0  0  0  0  0  0  0  0  0
  180.6830  179.9120  138.4730 C   0  0  0  0  0  2  0  0  0  0  0  0
  181.6250  181.0760  138.4990 C   0  0  0  0  0  0  0  0  0  0  0  0
  182.3640  177.9720  140.1900 N   0  0  0  0  0  0  0  0  0  0  0  0
  181.1660  182.2290  138.2980 O   0  0  0  0  0  0  0  0  0  0  0  0
  183.0360  178.3470  138.9310 C   0  0  2  0  0  3  0  0  0  0  0  0
  182.0300  178.7810  143.1610 C   0  0  0  0  0  3  0  0  0  0  0  0
  181.1490  178.8250  142.1550 C   0  0  0  0  0  3  0  0  0  0  0  0
  183.4960  178.9920  142.9590 C   0  0  0  0  0  2  0  0  0  0  0  0
  184.1090  179.5670  144.2180 C   0  0  0  0  0  3  0  0  0  0  0  0
  185.1940  178.6320  144.7070 C   0  0  0  0  0  2  0  0  0  0  0  0
  183.8360  178.6290  145.3740 C   0  0  0  0  0  2  0  0  0  0  0  0
  184.0200  177.2550  138.5010 C   0  0  0  0  0  2  0  0  0  0  0  0
  184.2620  177.2620  136.9950 C   0  0  0  0  0  2  0  0  0  0  0  0
  185.4440  176.3770  136.5860 C   0  0  2  0  0  0  0  0  0  0  0  0
  187.7520  176.2850  135.3460 C   0  0  0  0  0  1  0  0  0  0  0  0
  186.5930  176.3480  137.5790 C   0  0  0  0  0  2  0  0  0  0  0  0
  186.7730  177.0330  136.2360 C   0  0  2  0  0  0  0  0  0  0  0  0
  185.1860  175.0780  135.9670 N   0  0  0  0  0  2  0  0  0  0  0  0
  184.2090  174.4240  136.7310 N   0  0  0  0  0  2  0  0  0  0  0  0
  183.8040  171.8130  136.8430 S   0  0  0  0  0  0  0  0  0  0  0  0
  184.5110  173.1870  137.3630 C   0  0  0  0  0  3  0  0  0  0  0  0
  186.9360  178.5350  136.4020 C   0  0  0  0  0  2  0  0  0  0  0  0
  187.5970  178.8150  137.5960 O   0  0  0  0  0  0  0  0  0  0  0  0
  188.6770  179.4720  137.2300 O   0  0  0  0  0  1  0  0  0  0  0  0
  1  6  2  0  0  0  0
  2  4  1  0  0  0  0
  3  9  1  0  0  0  0
  4 13  1  1  0  0  0
  5  1  1  0  0  0  0
  7  8  1  0  0  0  0
  7  2  1  0  0  0  0
  8  5  1  0  0  0  0
  9  4  1  0  0  0  0
 10  8  2  0  0  0  0
 11 18  1  1  0  0  0
 11  1  1  0  0  0  0
 11  9  1  0  0  0  0
 13 12  2  0  0  0  0
 14 12  1  0  0  0  0
 14 15  1  0  0  0  0
 15 16  1  0  0  0  0
 15 17  1  0  0  0  0
 16 17  1  0  0  0  0
 19 18  1  0  0  0  0
 20 19  1  1  0  0  0
 20 22  1  0  0  0  0
 23 21  1  6  0  0  0
 23 28  1  0  0  0  0
 23 20  1  0  0  0  0
 23 22  1  0  0  0  0
 24 20  1  0  0  0  0
 24 25  1  0  0  0  0
 25 27  1  0  0  0  0
 26 27  2  0  0  0  0
 28 29  1  0  0  0  0
 30 29  1  0  0  0  0
M  END
>  <MODEL>
8

>  <REMARK>
 VINA RESULT:      -5.6      5.381      7.441
  Name = 
  11 active torsions:
  status: ('A' for Active; 'I' for Inactive)
    1  A    between atoms: C_1  and  C_4
    2  A    between atoms: C_1  and  C_22
    3  A    between atoms: C_4  and  N_5
    4  A    between atoms: N_5  and  N_21
    5  A    between atoms: C_10  and  C_25
    6  A    between atoms: C_11  and  C_24
    7  A    between atoms: C_12  and  C_27
    8  A    between atoms: O_13  and  C_27
    9  A    between atoms: C_15  and  C_25
   10  A    between atoms: C_17  and  N_21
   11  A    between atoms: C_22  and  C_29
                            x       y       z     vdW  Elec       q    Type
                         _______ _______ _______ _____ _____    ______ ____

>  <TORSDO>
F 11

$$$$
=
 OpenBabel10262422023D

 30 32  0  0  1  0  0  0  0  0999 V2000
  184.1050  179.1630  139.3800 C   0  0  0  0  0  0  0  0  0  0  0  0
  181.5300  177.1040  140.6290 C   0  0  0  0  0  2  0  0  0  0  0  0
  182.9820  178.2840  142.8480 C   0  0  0  0  0  1  0  0  0  0  0  0
  181.7260  178.6180  140.8210 C   0  0  2  0  0  3  0  0  0  0  0  0
  183.5200  178.3570  138.3440 N   0  0  0  0  0  2  0  0  0  0  0  0
  184.5170  180.3170  139.0880 O   0  0  0  0  0  0  0  0  0  0  0  0
  182.6640  176.4540  139.8400 C   0  0  0  0  0  2  0  0  0  0  0  0
  182.8510  177.0960  138.5010 C   0  0  0  0  0  0  0  0  0  0  0  0
  182.9450  178.9970  141.5690 N   0  0  0  0  0  0  0  0  0  0  0  0
  182.3860  176.5200  137.4840 O   0  0  0  0  0  0  0  0  0  0  0  0
  184.1740  178.6830  140.8140 C   0  0  2  0  0  3  0  0  0  0  0  0
  179.6460  179.9950  140.7210 C   0  0  0  0  0  3  0  0  0  0  0  0
  180.4990  179.2410  141.4210 C   0  0  0  0  0  3  0  0  0  0  0  0
  179.8310  180.2840  139.2660 C   0  0  0  0  0  2  0  0  0  0  0  0
  180.1840  181.7430  139.0740 C   0  0  0  0  0  3  0  0  0  0  0  0
  180.1850  182.0570  137.5920 C   0  0  0  0  0  2  0  0  0  0  0  0
  181.4940  181.8400  138.3200 C   0  0  0  0  0  2  0  0  0  0  0  0
  185.4030  179.2570  141.5260 C   0  0  0  0  0  2  0  0  0  0  0  0
  186.6940  178.5760  141.0800 C   0  0  0  0  0  2  0  0  0  0  0  0
  187.3890  177.8320  142.2240 C   0  0  2  0  0  0  0  0  0  0  0  0
  189.1160  175.9640  142.8560 C   0  0  0  0  0  1  0  0  0  0  0  0
  188.7070  178.4400  142.6730 C   0  0  0  0  0  2  0  0  0  0  0  0
  188.6990  177.1070  141.9460 C   0  0  2  0  0  0  0  0  0  0  0  0
  186.5890  177.3110  143.3310 N   0  0  0  0  0  2  0  0  0  0  0  0
  186.8270  178.1190  144.4510 N   0  0  0  0  0  2  0  0  0  0  0  0
  185.9860  178.6600  146.9000 S   0  0  0  0  0  0  0  0  0  0  0  0
  185.7490  178.5010  145.2940 C   0  0  0  0  0  3  0  0  0  0  0  0
  189.3470  177.2250  140.5750 C   0  0  0  0  0  2  0  0  0  0  0  0
  190.7320  177.1310  140.6920 O   0  0  0  0  0  0  0  0  0  0  0  0
  191.1510  176.8900  139.4680 O   0  0  0  0  0  1  0  0  0  0  0  0
  1 11  1  0  0  0  0
  2  4  1  0  0  0  0
  4 13  1  1  0  0  0
  4  9  1  0  0  0  0
  5  8  1  0  0  0  0
  5  1  1  0  0  0  0
  6  1  2  0  0  0  0
  7  2  1  0  0  0  0
  8  7  1  0  0  0  0
  9  3  1  0  0  0  0
 10  8  2  0  0  0  0
 11 18  1  1  0  0  0
 11  9  1  0  0  0  0
 12 13  2  0  0  0  0
 14 12  1  0  0  0  0
 15 14  1  0  0  0  0
 16 17  1  0  0  0  0
 16 15  1  0  0  0  0
 17 15  1  0  0  0  0
 19 18  1  0  0  0  0
 20 19  1  6  0  0  0
 20 22  1  0  0  0  0
 20 24  1  0  0  0  0
 23 20  1  0  0  0  0
 23 22  1  0  0  0  0
 23 21  1  1  0  0  0
 24 25  1  0  0  0  0
 25 27  1  0  0  0  0
 27 26  2  0  0  0  0
 28 29  1  0  0  0  0
 28 23  1  0  0  0  0
 30 29  1  0  0  0  0
M  END
>  <MODEL>
9

>  <REMARK>
 VINA RESULT:      -5.5      5.499      8.419
  Name = 
  11 active torsions:
  status: ('A' for Active; 'I' for Inactive)
    1  A    between atoms: C_1  and  C_4
    2  A    between atoms: C_1  and  C_22
    3  A    between atoms: C_4  and  N_5
    4  A    between atoms: N_5  and  N_21
    5  A    between atoms: C_10  and  C_25
    6  A    between atoms: C_11  and  C_24
    7  A    between atoms: C_12  and  C_27
    8  A    between atoms: O_13  and  C_27
    9  A    between atoms: C_15  and  C_25
   10  A    between atoms: C_17  and  N_21
   11  A    between atoms: C_22  and  C_29
                            x       y       z     vdW  Elec       q    Type
                         _______ _______ _______ _____ _____    ______ ____

>  <TORSDO>
F 11

$$$$
