=
 OpenBabel10262422533D

 37 39  0  0  1  0  0  0  0  0999 V2000
  184.5560  176.8030  137.5930 C   0  0  2  0  0  3  0  0  0  0  0  0
  181.2590  177.4930  138.0880 C   0  0  0  0  0  0  0  0  0  0  0  0
  181.9870  179.4820  139.3560 N   0  0  0  0  0  0  0  0  0  0  0  0
  181.3880  173.6510  136.4050 C   0  0  0  0  0  3  0  0  0  0  0  0
  184.3200  178.5940  139.3740 C   0  0  1  0  0  3  0  0  0  0  0  0
  182.4730  175.3680  137.6880 N   0  0  0  0  0  0  0  0  0  0  0  0
  180.1730  174.4720  136.3540 C   0  0  0  0  0  3  0  0  0  0  0  0
  183.6760  175.8170  138.3980 C   0  0  0  0  0  2  0  0  0  0  0  0
  180.0720  175.5750  137.0840 C   0  0  0  0  0  3  0  0  0  0  0  0
  183.3570  179.7040  139.8290 C   0  0  0  0  0  2  0  0  0  0  0  0
  181.1680  175.9920  138.0300 C   0  0  2  0  0  3  0  0  0  0  0  0
  184.2180  178.2710  137.8790 C   0  0  0  0  0  2  0  0  0  0  0  0
  182.4800  174.0620  137.0610 C   0  0  0  0  0  0  0  0  0  0  0  0
  181.4630  178.1710  139.3390 N   0  0  0  0  0  0  0  0  0  0  0  0
  181.1980  178.1590  137.0190 O   0  0  0  0  0  0  0  0  0  0  0  0
  179.9500  180.8370  139.7340 C   0  0  0  0  0  3  0  0  0  0  0  0
  181.1480  180.6100  139.0300 C   0  0  0  0  0  0  0  0  0  0  0  0
  181.5080  181.4900  137.9900 C   0  0  0  0  0  3  0  0  0  0  0  0
  181.0280  183.4000  136.6440 F   0  0  0  0  0  0  0  0  0  0  0  0
  179.4860  182.7730  138.3610 C   0  0  0  0  0  3  0  0  0  0  0  0
  180.6820  182.5700  137.6620 C   0  0  0  0  0  0  0  0  0  0  0  0
  179.1220  181.9080  139.3990 C   0  0  0  0  0  3  0  0  0  0  0  0
  183.6820  173.1410  137.1330 C   0  0  0  0  0  0  0  0  0  0  0  0
  183.2710  171.8330  137.2700 F   0  0  0  0  0  0  0  0  0  0  0  0
  184.4230  173.2730  135.9800 F   0  0  0  0  0  0  0  0  0  0  0  0
  184.4880  173.4550  138.2120 F   0  0  0  0  0  0  0  0  0  0  0  0
  185.6630  178.9880  141.1870 C   0  0  0  0  0  1  0  0  0  0  0  0
  185.6530  178.8070  139.7970 O   0  0  0  0  0  0  0  0  0  0  0  0
  184.6310  176.5070  136.0840 C   0  0  2  0  0  3  0  0  0  0  0  0
  186.9210  175.6030  136.5930 C   0  0  0  0  0  1  0  0  0  0  0  0
  186.6510  177.5920  135.2920 O   0  0  0  0  0  1  0  0  0  0  0  0
  186.0700  176.3520  135.5830 C   0  0  2  0  0  3  0  0  0  0  0  0
  183.9590  177.4910  135.3430 O   0  0  0  0  0  0  0  0  0  0  0  0
  183.0020  176.8040  134.5940 C   0  0  0  0  0  1  0  0  0  0  0  0
  181.3300  177.4480  140.5990 C   0  0  0  0  0  2  0  0  0  0  0  0
  179.7370  178.1930  142.3080 C   0  0  0  0  0  2  0  0  0  0  0  0
  179.9370  177.5830  141.1350 C   0  0  0  0  0  3  0  0  0  0  0  0
  1 29  1  6  0  0  0
  1 12  1  0  0  0  0
  1  8  1  0  0  0  0
  2 14  1  0  0  0  0
  3 10  1  0  0  0  0
  4 13  2  0  0  0  0
  5 28  1  6  0  0  0
  5 10  1  0  0  0  0
  6 11  1  0  0  0  0
  6  8  1  0  0  0  0
  7  4  1  0  0  0  0
  7  9  2  0  0  0  0
 11  9  1  6  0  0  0
 11  2  1  0  0  0  0
 12  5  1  0  0  0  0
 13 23  1  0  0  0  0
 13  6  1  0  0  0  0
 14  3  1  0  0  0  0
 14 35  1  0  0  0  0
 15  2  2  0  0  0  0
 17  3  1  0  0  0  0
 17 16  2  0  0  0  0
 18 17  1  0  0  0  0
 19 21  1  0  0  0  0
 20 22  2  0  0  0  0
 21 18  2  0  0  0  0
 21 20  1  0  0  0  0
 22 16  1  0  0  0  0
 23 24  1  0  0  0  0
 23 26  1  0  0  0  0
 25 23  1  0  0  0  0
 28 27  1  0  0  0  0
 29 33  1  6  0  0  0
 31 32  1  0  0  0  0
 32 29  1  0  0  0  0
 32 30  1  1  0  0  0
 34 33  1  0  0  0  0
 35 37  1  0  0  0  0
 37 36  2  0  0  0  0
M  END
>  <MODEL>
1

>  <REMARK>
 VINA RESULT:      -4.8      0.000      0.000
  Name = 
  8 active torsions:
  status: ('A' for Active; 'I' for Inactive)
    1  A    between atoms: C_1  and  C_5
    2  A    between atoms: C_3  and  C_30
    3  A    between atoms: C_5  and  O_11
    4  A    between atoms: C_5  and  C_23
    5  A    between atoms: C_6  and  N_7
    6  A    between atoms: C_10  and  O_33
    7  A    between atoms: C_14  and  N_31
    8  A    between atoms: C_14  and  C_37
                            x       y       z     vdW  Elec       q    Type
                         _______ _______ _______ _____ _____    ______ ____

>  <TORSDO>
F 8

$$$$
=
 OpenBabel10262422533D

 37 39  0  0  1  0  0  0  0  0999 V2000
  180.8820  179.2360  138.3600 C   0  0  2  0  0  3  0  0  0  0  0  0
  183.8600  177.7390  139.0550 C   0  0  0  0  0  0  0  0  0  0  0  0
  183.9190  177.0260  136.6930 N   0  0  0  0  0  0  0  0  0  0  0  0
  182.2750  178.9180  142.7580 C   0  0  0  0  0  3  0  0  0  0  0  0
  181.5260  177.6950  136.4500 C   0  0  1  0  0  3  0  0  0  0  0  0
  181.8990  178.2810  140.4730 N   0  0  0  0  0  0  0  0  0  0  0  0
  183.7070  178.6500  142.5860 C   0  0  0  0  0  3  0  0  0  0  0  0
  180.9400  178.0740  139.3820 C   0  0  0  0  0  2  0  0  0  0  0  0
  184.1560  178.0590  141.4860 C   0  0  0  0  0  3  0  0  0  0  0  0
  182.7660  177.0710  135.7880 C   0  0  0  0  0  2  0  0  0  0  0  0
  183.2140  177.5920  140.4070 C   0  0  2  0  0  3  0  0  0  0  0  0
  181.8160  179.0210  137.1630 C   0  0  0  0  0  2  0  0  0  0  0  0
  181.4040  178.7210  141.7610 C   0  0  0  0  0  0  0  0  0  0  0  0
  183.7190  176.7160  138.0560 N   0  0  0  0  0  0  0  0  0  0  0  0
  184.4970  178.7930  138.7850 O   0  0  0  0  0  0  0  0  0  0  0  0
  185.6910  176.3770  135.0910 C   0  0  0  0  0  3  0  0  0  0  0  0
  185.2540  177.1760  136.1650 C   0  0  0  0  0  0  0  0  0  0  0  0
  186.1430  178.1120  136.7280 C   0  0  0  0  0  3  0  0  0  0  0  0
  188.3000  179.1300  136.7930 F   0  0  0  0  0  0  0  0  0  0  0  0
  187.8680  177.4270  135.1710 C   0  0  0  0  0  3  0  0  0  0  0  0
  187.4430  178.2390  136.2290 C   0  0  0  0  0  0  0  0  0  0  0  0
  186.9910  176.4980  134.6000 C   0  0  0  0  0  3  0  0  0  0  0  0
  179.9290  178.9540  142.0210 C   0  0  0  0  0  0  0  0  0  0  0  0
  179.1940  178.6420  140.8980 F   0  0  0  0  0  0  0  0  0  0  0  0
  179.5230  178.1630  143.0720 F   0  0  0  0  0  0  0  0  0  0  0  0
  179.6810  180.2760  142.3440 F   0  0  0  0  0  0  0  0  0  0  0  0
  180.6020  178.8450  134.6980 C   0  0  0  0  0  1  0  0  0  0  0  0
  180.4120  177.7740  135.5820 O   0  0  0  0  0  0  0  0  0  0  0  0
  181.0400  180.6380  138.9770 C   0  0  2  0  0  3  0  0  0  0  0  0
  179.0360  181.8730  139.8580 C   0  0  0  0  0  1  0  0  0  0  0  0
  179.0690  181.0340  137.6190 O   0  0  0  0  0  1  0  0  0  0  0  0
  179.8750  181.5700  138.6300 C   0  0  2  0  0  3  0  0  0  0  0  0
  182.2600  181.2200  138.6020 O   0  0  0  0  0  0  0  0  0  0  0  0
  181.9440  182.5160  138.1900 C   0  0  0  0  0  1  0  0  0  0  0  0
  183.1690  175.4110  138.4100 C   0  0  0  0  0  2  0  0  0  0  0  0
  183.4440  173.4560  136.9560 C   0  0  0  0  0  2  0  0  0  0  0  0
  184.0010  174.3160  137.8150 C   0  0  0  0  0  3  0  0  0  0  0  0
  1 29  1  1  0  0  0
  1  8  1  0  0  0  0
  2 11  1  0  0  0  0
  3 14  1  0  0  0  0
  5 28  1  6  0  0  0
  5 12  1  0  0  0  0
  6 13  1  0  0  0  0
  7  4  1  0  0  0  0
  8  6  1  0  0  0  0
  9  7  2  0  0  0  0
 10  5  1  0  0  0  0
 10  3  1  0  0  0  0
 11  6  1  0  0  0  0
 11  9  1  1  0  0  0
 12  1  1  0  0  0  0
 13 23  1  0  0  0  0
 13  4  2  0  0  0  0
 14 35  1  0  0  0  0
 14  2  1  0  0  0  0
 15  2  2  0  0  0  0
 16 17  1  0  0  0  0
 17  3  1  0  0  0  0
 17 18  2  0  0  0  0
 20 21  2  0  0  0  0
 21 18  1  0  0  0  0
 21 19  1  0  0  0  0
 22 16  2  0  0  0  0
 22 20  1  0  0  0  0
 23 26  1  0  0  0  0
 23 25  1  0  0  0  0
 24 23  1  0  0  0  0
 27 28  1  0  0  0  0
 29 33  1  6  0  0  0
 31 32  1  0  0  0  0
 32 29  1  0  0  0  0
 32 30  1  1  0  0  0
 34 33  1  0  0  0  0
 36 37  2  0  0  0  0
 37 35  1  0  0  0  0
M  END
>  <MODEL>
2

>  <REMARK>
 VINA RESULT:      -4.0      2.977      7.025
  Name = 
  8 active torsions:
  status: ('A' for Active; 'I' for Inactive)
    1  A    between atoms: C_1  and  C_5
    2  A    between atoms: C_3  and  C_30
    3  A    between atoms: C_5  and  O_11
    4  A    between atoms: C_5  and  C_23
    5  A    between atoms: C_6  and  N_7
    6  A    between atoms: C_10  and  O_33
    7  A    between atoms: C_14  and  N_31
    8  A    between atoms: C_14  and  C_37
                            x       y       z     vdW  Elec       q    Type
                         _______ _______ _______ _____ _____    ______ ____

>  <TORSDO>
F 8

$$$$
=
 OpenBabel10262422533D

 37 39  0  0  1  0  0  0  0  0999 V2000
  185.2110  176.8960  136.5190 C   0  0  2  0  0  3  0  0  0  0  0  0
  183.9800  178.1020  139.4550 C   0  0  0  0  0  0  0  0  0  0  0  0
  181.7430  178.0200  138.4150 N   0  0  0  0  0  0  0  0  0  0  0  0
  188.1570  178.3820  139.7580 C   0  0  0  0  0  3  0  0  0  0  0  0
  182.8110  177.6510  136.1890 C   0  0  1  0  0  3  0  0  0  0  0  0
  186.1990  178.3140  138.3680 N   0  0  0  0  0  0  0  0  0  0  0  0
  187.2990  178.3800  140.9480 C   0  0  0  0  0  3  0  0  0  0  0  0
  185.6360  178.2990  137.0130 C   0  0  0  0  0  2  0  0  0  0  0  0
  185.9850  178.5250  140.8340 C   0  0  0  0  0  3  0  0  0  0  0  0
  181.5060  177.8540  136.9780 C   0  0  0  0  0  2  0  0  0  0  0  0
  185.3360  178.7560  139.4930 C   0  0  2  0  0  3  0  0  0  0  0  0
  183.7340  176.5900  136.7990 C   0  0  0  0  0  2  0  0  0  0  0  0
  187.6380  178.3760  138.5240 C   0  0  0  0  0  0  0  0  0  0  0  0
  182.8580  178.7680  138.8530 N   0  0  0  0  0  0  0  0  0  0  0  0
  183.8410  176.9390  139.9200 O   0  0  0  0  0  0  0  0  0  0  0  0
  180.1020  178.4140  140.2260 C   0  0  0  0  0  3  0  0  0  0  0  0
  180.7750  177.5270  139.3650 C   0  0  0  0  0  0  0  0  0  0  0  0
  180.5020  176.1470  139.4540 C   0  0  0  0  0  3  0  0  0  0  0  0
  179.3410  174.3350  140.4830 F   0  0  0  0  0  0  0  0  0  0  0  0
  178.9310  176.5630  141.2510 C   0  0  0  0  0  3  0  0  0  0  0  0
  179.5800  175.6690  140.3900 C   0  0  0  0  0  0  0  0  0  0  0  0
  179.1900  177.9350  141.1660 C   0  0  0  0  0  3  0  0  0  0  0  0
  188.5750  178.4450  137.3350 C   0  0  0  0  0  0  0  0  0  0  0  0
  187.8530  178.4740  136.1620 F   0  0  0  0  0  0  0  0  0  0  0  0
  189.3450  179.5830  137.4300 F   0  0  0  0  0  0  0  0  0  0  0  0
  189.4160  177.3480  137.2970 F   0  0  0  0  0  0  0  0  0  0  0  0
  182.1110  176.1630  134.5950 C   0  0  0  0  0  1  0  0  0  0  0  0
  182.6000  177.4600  134.8040 O   0  0  0  0  0  0  0  0  0  0  0  0
  186.1380  175.7510  136.9690 C   0  0  2  0  0  3  0  0  0  0  0  0
  188.3420  174.8320  136.1860 C   0  0  0  0  0  1  0  0  0  0  0  0
  186.8600  175.9230  134.6590 O   0  0  0  0  0  1  0  0  0  0  0  0
  186.9020  175.1160  135.8030 C   0  0  2  0  0  3  0  0  0  0  0  0
  185.4240  174.7730  137.6760 O   0  0  0  0  0  0  0  0  0  0  0  0
  185.2460  173.7190  136.7780 C   0  0  0  0  0  1  0  0  0  0  0  0
  182.9430  180.1810  138.4990 C   0  0  0  0  0  2  0  0  0  0  0  0
  181.2740  181.9110  138.0130 C   0  0  0  0  0  2  0  0  0  0  0  0
  181.6360  180.8650  138.7630 C   0  0  0  0  0  3  0  0  0  0  0  0
  1 12  1  0  0  0  0
  1 29  1  1  0  0  0
  1  8  1  0  0  0  0
  2 11  1  0  0  0  0
  2 15  2  0  0  0  0
  3 14  1  0  0  0  0
  3 17  1  0  0  0  0
  4  7  1  0  0  0  0
  5 28  1  6  0  0  0
  5 12  1  0  0  0  0
  5 10  1  0  0  0  0
  6 13  1  0  0  0  0
  6 11  1  0  0  0  0
  8  6  1  0  0  0  0
  9  7  2  0  0  0  0
 10  3  1  0  0  0  0
 11  9  1  1  0  0  0
 13  4  2  0  0  0  0
 14  2  1  0  0  0  0
 16 22  1  0  0  0  0
 17 18  1  0  0  0  0
 17 16  2  0  0  0  0
 18 21  2  0  0  0  0
 21 19  1  0  0  0  0
 21 20  1  0  0  0  0
 22 20  2  0  0  0  0
 23 25  1  0  0  0  0
 23 13  1  0  0  0  0
 24 23  1  0  0  0  0
 26 23  1  0  0  0  0
 27 28  1  0  0  0  0
 29 33  1  6  0  0  0
 31 32  1  0  0  0  0
 32 30  1  1  0  0  0
 32 29  1  0  0  0  0
 34 33  1  0  0  0  0
 35 37  1  0  0  0  0
 35 14  1  0  0  0  0
 36 37  2  0  0  0  0
M  END
>  <MODEL>
3

>  <REMARK>
 VINA RESULT:      -3.3      2.813      5.476
  Name = 
  8 active torsions:
  status: ('A' for Active; 'I' for Inactive)
    1  A    between atoms: C_1  and  C_5
    2  A    between atoms: C_3  and  C_30
    3  A    between atoms: C_5  and  O_11
    4  A    between atoms: C_5  and  C_23
    5  A    between atoms: C_6  and  N_7
    6  A    between atoms: C_10  and  O_33
    7  A    between atoms: C_14  and  N_31
    8  A    between atoms: C_14  and  C_37
                            x       y       z     vdW  Elec       q    Type
                         _______ _______ _______ _____ _____    ______ ____

>  <TORSDO>
F 8

$$$$
=
 OpenBabel10262422533D

 37 39  0  0  1  0  0  0  0  0999 V2000
  184.5040  178.7720  139.9510 C   0  0  2  0  0  3  0  0  0  0  0  0
  184.5110  176.9320  137.0860 C   0  0  0  0  0  0  0  0  0  0  0  0
  186.9020  176.4910  137.5140 N   0  0  0  0  0  0  0  0  0  0  0  0
  180.8100  178.9080  137.1730 C   0  0  0  0  0  3  0  0  0  0  0  0
  186.8950  178.2650  139.2710 C   0  0  1  0  0  3  0  0  0  0  0  0
  183.1180  178.8430  137.8330 N   0  0  0  0  0  0  0  0  0  0  0  0
  181.0200  177.7060  136.3590 C   0  0  0  0  0  3  0  0  0  0  0  0
  184.2120  179.4580  138.5940 C   0  0  0  0  0  2  0  0  0  0  0  0
  182.2420  177.2310  136.1580 C   0  0  0  0  0  3  0  0  0  0  0  0
  187.7170  177.2320  138.4820 C   0  0  0  0  0  2  0  0  0  0  0  0
  183.4560  177.9360  136.7060 C   0  0  2  0  0  3  0  0  0  0  0  0
  185.5940  177.6980  139.8510 C   0  0  0  0  0  2  0  0  0  0  0  0
  181.8120  179.4700  137.8590 C   0  0  0  0  0  0  0  0  0  0  0  0
  185.8960  177.1710  136.7910 N   0  0  0  0  0  0  0  0  0  0  0  0
  184.1760  175.8880  137.7100 O   0  0  0  0  0  0  0  0  0  0  0  0
  188.5310  174.7240  136.9230 C   0  0  0  0  0  3  0  0  0  0  0  0
  187.2110  175.1130  137.2190 C   0  0  0  0  0  0  0  0  0  0  0  0
  186.1920  174.1400  137.2070 C   0  0  0  0  0  3  0  0  0  0  0  0
  185.4970  171.8830  136.8700 F   0  0  0  0  0  0  0  0  0  0  0  0
  187.8060  172.4410  136.5910 C   0  0  0  0  0  3  0  0  0  0  0  0
  186.4910  172.8090  136.8990 C   0  0  0  0  0  0  0  0  0  0  0  0
  188.8260  173.3990  136.6060 C   0  0  0  0  0  3  0  0  0  0  0  0
  181.5480  180.7470  138.6300 C   0  0  0  0  0  0  0  0  0  0  0  0
  180.5620  181.4820  138.0080 F   0  0  0  0  0  0  0  0  0  0  0  0
  181.1480  180.4300  139.9100 F   0  0  0  0  0  0  0  0  0  0  0  0
  182.6850  181.5300  138.7070 F   0  0  0  0  0  0  0  0  0  0  0  0
  188.7580  178.1810  140.6000 C   0  0  0  0  0  1  0  0  0  0  0  0
  187.6600  178.9690  140.2300 O   0  0  0  0  0  0  0  0  0  0  0  0
  183.2540  178.2640  140.6930 C   0  0  2  0  0  3  0  0  0  0  0  0
  182.0120  179.0030  142.7490 C   0  0  0  0  0  1  0  0  0  0  0  0
  184.3660  179.3730  142.5420 O   0  0  0  0  0  1  0  0  0  0  0  0
  183.3330  178.4890  142.2060 C   0  0  2  0  0  3  0  0  0  0  0  0
  183.0160  176.9100  140.4120 O   0  0  0  0  0  0  0  0  0  0  0  0
  181.6430  176.8130  140.1790 C   0  0  0  0  0  1  0  0  0  0  0  0
  186.2830  178.2580  135.8970 C   0  0  0  0  0  2  0  0  0  0  0  0
  188.2320  177.5380  134.5950 C   0  0  0  0  0  2  0  0  0  0  0  0
  186.9070  177.7110  134.6490 C   0  0  0  0  0  3  0  0  0  0  0  0
  1 29  1  6  0  0  0
  2 15  2  0  0  0  0
  3 10  1  0  0  0  0
  4 13  2  0  0  0  0
  5 12  1  0  0  0  0
  5 28  1  1  0  0  0
  6 13  1  0  0  0  0
  6  8  1  0  0  0  0
  7  4  1  0  0  0  0
  8  1  1  0  0  0  0
  9  7  2  0  0  0  0
 10  5  1  0  0  0  0
 11  9  1  1  0  0  0
 11  2  1  0  0  0  0
 11  6  1  0  0  0  0
 12  1  1  0  0  0  0
 13 23  1  0  0  0  0
 14  2  1  0  0  0  0
 14  3  1  0  0  0  0
 16 17  1  0  0  0  0
 17  3  1  0  0  0  0
 18 17  2  0  0  0  0
 19 21  1  0  0  0  0
 20 22  1  0  0  0  0
 20 21  2  0  0  0  0
 21 18  1  0  0  0  0
 22 16  2  0  0  0  0
 23 26  1  0  0  0  0
 23 25  1  0  0  0  0
 24 23  1  0  0  0  0
 28 27  1  0  0  0  0
 29 33  1  1  0  0  0
 29 32  1  0  0  0  0
 32 31  1  0  0  0  0
 32 30  1  6  0  0  0
 34 33  1  0  0  0  0
 35 14  1  0  0  0  0
 36 37  2  0  0  0  0
 37 35  1  0  0  0  0
M  END
>  <MODEL>
4

>  <REMARK>
 VINA RESULT:      -3.0      2.444      7.406
  Name = 
  8 active torsions:
  status: ('A' for Active; 'I' for Inactive)
    1  A    between atoms: C_1  and  C_5
    2  A    between atoms: C_3  and  C_30
    3  A    between atoms: C_5  and  O_11
    4  A    between atoms: C_5  and  C_23
    5  A    between atoms: C_6  and  N_7
    6  A    between atoms: C_10  and  O_33
    7  A    between atoms: C_14  and  N_31
    8  A    between atoms: C_14  and  C_37
                            x       y       z     vdW  Elec       q    Type
                         _______ _______ _______ _____ _____    ______ ____

>  <TORSDO>
F 8

$$$$
=
 OpenBabel10262422533D

 37 39  0  0  1  0  0  0  0  0999 V2000
  183.0820  178.1720  137.4380 C   0  0  2  0  0  3  0  0  0  0  0  0
  181.1150  175.3930  137.4130 C   0  0  0  0  0  0  0  0  0  0  0  0
  182.4850  174.5830  135.5260 N   0  0  0  0  0  0  0  0  0  0  0  0
  179.2630  178.0890  140.0420 C   0  0  0  0  0  3  0  0  0  0  0  0
  183.4950  176.8560  135.3080 C   0  0  1  0  0  3  0  0  0  0  0  0
  180.6940  177.7230  138.1490 N   0  0  0  0  0  0  0  0  0  0  0  0
  178.9840  176.6490  140.0960 C   0  0  0  0  0  3  0  0  0  0  0  0
  181.5720  178.3000  137.1240 C   0  0  0  0  0  2  0  0  0  0  0  0
  179.3900  175.8460  139.1210 C   0  0  0  0  0  3  0  0  0  0  0  0
  183.4070  175.4230  134.7550 C   0  0  0  0  0  2  0  0  0  0  0  0
  180.0960  176.3860  137.9040 C   0  0  2  0  0  3  0  0  0  0  0  0
  183.7110  176.9140  136.8240 C   0  0  0  0  0  2  0  0  0  0  0  0
  180.0580  178.6110  139.1010 C   0  0  0  0  0  0  0  0  0  0  0  0
  181.2790  175.1390  136.0080 N   0  0  0  0  0  0  0  0  0  0  0  0
  181.8610  174.8090  138.2450 O   0  0  0  0  0  0  0  0  0  0  0  0
  181.6960  172.2560  135.8280 C   0  0  0  0  0  3  0  0  0  0  0  0
  182.7540  173.1740  135.6790 C   0  0  0  0  0  0  0  0  0  0  0  0
  184.0800  172.6990  135.7000 C   0  0  0  0  0  3  0  0  0  0  0  0
  185.6210  170.8900  135.9120 F   0  0  0  0  0  0  0  0  0  0  0  0
  183.2760  170.4370  136.0340 C   0  0  0  0  0  3  0  0  0  0  0  0
  184.3380  171.3350  135.8720 C   0  0  0  0  0  0  0  0  0  0  0  0
  181.9550  170.8980  136.0090 C   0  0  0  0  0  3  0  0  0  0  0  0
  180.2560  180.1130  139.0590 C   0  0  0  0  0  0  0  0  0  0  0  0
  180.4700  180.5280  137.7630 F   0  0  0  0  0  0  0  0  0  0  0  0
  179.1330  180.7320  139.5620 F   0  0  0  0  0  0  0  0  0  0  0  0
  181.3460  180.4950  139.8200 F   0  0  0  0  0  0  0  0  0  0  0  0
  185.6860  177.1180  134.6960 C   0  0  0  0  0  1  0  0  0  0  0  0
  184.4030  177.6730  134.5940 O   0  0  0  0  0  0  0  0  0  0  0  0
  183.4420  178.3350  138.9260 C   0  0  2  0  0  3  0  0  0  0  0  0
  185.9540  178.2770  138.8610 C   0  0  0  0  0  1  0  0  0  0  0  0
  184.8020  179.6660  140.4300 O   0  0  0  0  0  1  0  0  0  0  0  0
  184.7320  179.1330  139.1370 C   0  0  2  0  0  3  0  0  0  0  0  0
  183.5300  177.0880  139.5640 O   0  0  0  0  0  0  0  0  0  0  0  0
  182.8790  177.2500  140.7890 C   0  0  0  0  0  1  0  0  0  0  0  0
  180.2990  175.6390  135.0490 C   0  0  0  0  0  2  0  0  0  0  0  0
  178.9310  173.7440  135.7880 C   0  0  0  0  0  2  0  0  0  0  0  0
  179.2230  174.6220  134.8230 C   0  0  0  0  0  3  0  0  0  0  0  0
  1 29  1  1  0  0  0
  2 11  1  0  0  0  0
  2 15  2  0  0  0  0
  3 17  1  0  0  0  0
  3 14  1  0  0  0  0
  4  7  1  0  0  0  0
  5 28  1  6  0  0  0
  5 12  1  0  0  0  0
  6 13  1  0  0  0  0
  8  1  1  0  0  0  0
  8  6  1  0  0  0  0
  9  7  2  0  0  0  0
 10  5  1  0  0  0  0
 10  3  1  0  0  0  0
 11  6  1  0  0  0  0
 11  9  1  1  0  0  0
 12  1  1  0  0  0  0
 13  4  2  0  0  0  0
 14  2  1  0  0  0  0
 16 22  1  0  0  0  0
 17 18  1  0  0  0  0
 17 16  2  0  0  0  0
 18 21  2  0  0  0  0
 21 19  1  0  0  0  0
 21 20  1  0  0  0  0
 22 20  2  0  0  0  0
 23 13  1  0  0  0  0
 23 25  1  0  0  0  0
 23 26  1  0  0  0  0
 24 23  1  0  0  0  0
 28 27  1  0  0  0  0
 29 32  1  0  0  0  0
 29 33  1  6  0  0  0
 32 30  1  1  0  0  0
 32 31  1  0  0  0  0
 33 34  1  0  0  0  0
 35 14  1  0  0  0  0
 37 35  1  0  0  0  0
 37 36  2  0  0  0  0
M  END
>  <MODEL>
5

>  <REMARK>
 VINA RESULT:      -2.9      2.079      7.006
  Name = 
  8 active torsions:
  status: ('A' for Active; 'I' for Inactive)
    1  A    between atoms: C_1  and  C_5
    2  A    between atoms: C_3  and  C_30
    3  A    between atoms: C_5  and  O_11
    4  A    between atoms: C_5  and  C_23
    5  A    between atoms: C_6  and  N_7
    6  A    between atoms: C_10  and  O_33
    7  A    between atoms: C_14  and  N_31
    8  A    between atoms: C_14  and  C_37
                            x       y       z     vdW  Elec       q    Type
                         _______ _______ _______ _____ _____    ______ ____

>  <TORSDO>
F 8

$$$$
=
 OpenBabel10262422533D

 37 39  0  0  1  0  0  0  0  0999 V2000
  181.3270  179.2030  139.4640 C   0  0  2  0  0  3  0  0  0  0  0  0
  181.3270  177.4620  136.5390 C   0  0  0  0  0  0  0  0  0  0  0  0
  182.7510  175.7920  137.6680 N   0  0  0  0  0  0  0  0  0  0  0  0
  179.5690  181.1730  135.6680 C   0  0  0  0  0  3  0  0  0  0  0  0
  183.1030  177.3930  139.5510 C   0  0  1  0  0  3  0  0  0  0  0  0
  181.0550  179.8760  137.0390 N   0  0  0  0  0  0  0  0  0  0  0  0
  179.3550  180.0010  134.8110 C   0  0  0  0  0  3  0  0  0  0  0  0
  181.9560  179.8290  138.1960 C   0  0  0  0  0  2  0  0  0  0  0  0
  180.0930  178.9090  134.9630 C   0  0  0  0  0  3  0  0  0  0  0  0
  183.4370  176.0200  138.9440 C   0  0  0  0  0  2  0  0  0  0  0  0
  181.2100  178.8530  135.9730 C   0  0  2  0  0  3  0  0  0  0  0  0
  181.6010  177.6990  139.5830 C   0  0  0  0  0  2  0  0  0  0  0  0
  180.3980  181.1270  136.7180 C   0  0  0  0  0  0  0  0  0  0  0  0
  182.6130  176.8610  136.7540 N   0  0  0  0  0  0  0  0  0  0  0  0
  180.2810  176.8370  136.8650 O   0  0  0  0  0  0  0  0  0  0  0  0
  180.9740  174.1770  137.0660 C   0  0  0  0  0  3  0  0  0  0  0  0
  182.3330  174.4600  137.3040 C   0  0  0  0  0  0  0  0  0  0  0  0
  183.2770  173.4190  137.2000 C   0  0  0  0  0  3  0  0  0  0  0  0
  183.7820  171.1240  136.7930 F   0  0  0  0  0  0  0  0  0  0  0  0
  181.5100  171.8560  136.6520 C   0  0  0  0  0  3  0  0  0  0  0  0
  182.8660  172.1240  136.8700 C   0  0  0  0  0  0  0  0  0  0  0  0
  180.5650  172.8830  136.7470 C   0  0  0  0  0  3  0  0  0  0  0  0
  180.6270  182.3880  137.5270 C   0  0  0  0  0  0  0  0  0  0  0  0
  181.1860  183.3660  136.7330 F   0  0  0  0  0  0  0  0  0  0  0  0
  179.4230  182.8310  138.0260 F   0  0  0  0  0  0  0  0  0  0  0  0
  181.4830  182.1530  138.5870 F   0  0  0  0  0  0  0  0  0  0  0  0
  184.7450  178.5740  140.6260 C   0  0  0  0  0  1  0  0  0  0  0  0
  183.7330  177.6190  140.7970 O   0  0  0  0  0  0  0  0  0  0  0  0
  179.8390  179.5410  139.6730 C   0  0  2  0  0  3  0  0  0  0  0  0
  178.9320  181.5160  140.9350 C   0  0  0  0  0  1  0  0  0  0  0  0
  180.7190  180.2060  141.8340 O   0  0  0  0  0  1  0  0  0  0  0  0
  179.5580  180.1390  141.0550 C   0  0  2  0  0  3  0  0  0  0  0  0
  179.0300  178.4160  139.4530 O   0  0  0  0  0  0  0  0  0  0  0  0
  178.9320  177.7800  140.6920 C   0  0  0  0  0  1  0  0  0  0  0  0
  183.8160  177.4720  136.1980 C   0  0  0  0  0  2  0  0  0  0  0  0
  185.8650  176.1270  136.1400 C   0  0  0  0  0  2  0  0  0  0  0  0
  184.6920  176.4290  135.5740 C   0  0  0  0  0  3  0  0  0  0  0  0
  1 12  1  0  0  0  0
  1 29  1  6  0  0  0
  2 14  1  0  0  0  0
  2 15  2  0  0  0  0
  3 10  1  0  0  0  0
  4 13  2  0  0  0  0
  5 12  1  0  0  0  0
  5 28  1  1  0  0  0
  6  8  1  0  0  0  0
  7  9  2  0  0  0  0
  7  4  1  0  0  0  0
  8  1  1  0  0  0  0
 10  5  1  0  0  0  0
 11  9  1  6  0  0  0
 11  2  1  0  0  0  0
 11  6  1  0  0  0  0
 13  6  1  0  0  0  0
 13 23  1  0  0  0  0
 14  3  1  0  0  0  0
 16 17  1  0  0  0  0
 17  3  1  0  0  0  0
 18 17  2  0  0  0  0
 19 21  1  0  0  0  0
 20 22  1  0  0  0  0
 20 21  2  0  0  0  0
 21 18  1  0  0  0  0
 22 16  2  0  0  0  0
 23 25  1  0  0  0  0
 23 26  1  0  0  0  0
 24 23  1  0  0  0  0
 27 28  1  0  0  0  0
 29 33  1  1  0  0  0
 29 32  1  0  0  0  0
 32 30  1  6  0  0  0
 32 31  1  0  0  0  0
 33 34  1  0  0  0  0
 35 14  1  0  0  0  0
 37 36  2  0  0  0  0
 37 35  1  0  0  0  0
M  END
>  <MODEL>
6

>  <REMARK>
 VINA RESULT:      -2.8      1.977      7.328
  Name = 
  8 active torsions:
  status: ('A' for Active; 'I' for Inactive)
    1  A    between atoms: C_1  and  C_5
    2  A    between atoms: C_3  and  C_30
    3  A    between atoms: C_5  and  O_11
    4  A    between atoms: C_5  and  C_23
    5  A    between atoms: C_6  and  N_7
    6  A    between atoms: C_10  and  O_33
    7  A    between atoms: C_14  and  N_31
    8  A    between atoms: C_14  and  C_37
                            x       y       z     vdW  Elec       q    Type
                         _______ _______ _______ _____ _____    ______ ____

>  <TORSDO>
F 8

$$$$
=
 OpenBabel10262422533D

 37 39  0  0  1  0  0  0  0  0999 V2000
  183.0070  178.2540  138.9870 C   0  0  2  0  0  3  0  0  0  0  0  0
  183.8190  176.1990  136.3970 C   0  0  0  0  0  0  0  0  0  0  0  0
  186.1460  176.2800  137.2150 N   0  0  0  0  0  0  0  0  0  0  0  0
  179.8580  177.4050  135.7100 C   0  0  0  0  0  3  0  0  0  0  0  0
  185.5300  178.1700  138.7260 C   0  0  1  0  0  3  0  0  0  0  0  0
  181.9990  177.8570  136.7000 N   0  0  0  0  0  0  0  0  0  0  0  0
  180.4130  176.1990  135.0850 C   0  0  0  0  0  3  0  0  0  0  0  0
  182.8230  178.7430  137.5310 C   0  0  0  0  0  2  0  0  0  0  0  0
  181.7170  175.9590  135.1220 C   0  0  0  0  0  3  0  0  0  0  0  0
  186.6430  177.2520  138.1940 C   0  0  0  0  0  2  0  0  0  0  0  0
  182.6770  176.9370  135.7500 C   0  0  2  0  0  3  0  0  0  0  0  0
  184.2750  177.4120  139.1760 C   0  0  0  0  0  2  0  0  0  0  0  0
  180.6150  178.2130  136.4610 C   0  0  0  0  0  0  0  0  0  0  0  0
  185.1670  176.6790  136.2780 N   0  0  0  0  0  0  0  0  0  0  0  0
  183.5800  175.1710  137.0870 O   0  0  0  0  0  0  0  0  0  0  0  0
  185.9520  173.8130  137.2760 C   0  0  0  0  0  3  0  0  0  0  0  0
  186.7430  174.9690  137.1360 C   0  0  0  0  0  0  0  0  0  0  0  0
  188.1310  174.8280  136.9360 C   0  0  0  0  0  3  0  0  0  0  0  0
  190.0520  173.4330  136.7100 F   0  0  0  0  0  0  0  0  0  0  0  0
  187.9120  172.4180  137.0390 C   0  0  0  0  0  3  0  0  0  0  0  0
  188.7100  173.5570  136.8820 C   0  0  0  0  0  0  0  0  0  0  0  0
  186.5320  172.5460  137.2330 C   0  0  0  0  0  3  0  0  0  0  0  0
  180.0010  179.4780  137.0260 C   0  0  0  0  0  0  0  0  0  0  0  0
  179.5410  179.2530  138.3050 F   0  0  0  0  0  0  0  0  0  0  0  0
  180.9520  180.4740  137.0460 F   0  0  0  0  0  0  0  0  0  0  0  0
  178.9350  179.9040  136.2540 F   0  0  0  0  0  0  0  0  0  0  0  0
  186.0690  178.4480  140.9340 C   0  0  0  0  0  1  0  0  0  0  0  0
  185.9860  179.0950  139.6940 O   0  0  0  0  0  0  0  0  0  0  0  0
  181.7650  177.5790  139.5970 C   0  0  2  0  0  3  0  0  0  0  0  0
  179.9030  177.7930  141.2720 C   0  0  0  0  0  1  0  0  0  0  0  0
  181.3150  179.6550  140.7670 O   0  0  0  0  0  1  0  0  0  0  0  0
  181.2940  178.2610  140.8860 C   0  0  2  0  0  3  0  0  0  0  0  0
  181.9930  176.2130  139.8230 O   0  0  0  0  0  0  0  0  0  0  0  0
  180.9730  175.5470  139.1390 C   0  0  0  0  0  1  0  0  0  0  0  0
  185.4920  177.7350  135.3250 C   0  0  0  0  0  2  0  0  0  0  0  0
  187.8020  178.2440  134.6760 C   0  0  0  0  0  2  0  0  0  0  0  0
  186.7600  177.4090  134.5960 C   0  0  0  0  0  3  0  0  0  0  0  0
  1 12  1  0  0  0  0
  1 29  1  6  0  0  0
  2 15  2  0  0  0  0
  3 10  1  0  0  0  0
  4 13  2  0  0  0  0
  5 12  1  0  0  0  0
  5 28  1  1  0  0  0
  6  8  1  0  0  0  0
  7  9  2  0  0  0  0
  7  4  1  0  0  0  0
  8  1  1  0  0  0  0
 10  5  1  0  0  0  0
 11  9  1  1  0  0  0
 11  2  1  0  0  0  0
 11  6  1  0  0  0  0
 13  6  1  0  0  0  0
 13 23  1  0  0  0  0
 14  2  1  0  0  0  0
 14  3  1  0  0  0  0
 17  3  1  0  0  0  0
 17 16  2  0  0  0  0
 18 17  1  0  0  0  0
 19 21  1  0  0  0  0
 20 22  2  0  0  0  0
 21 18  2  0  0  0  0
 21 20  1  0  0  0  0
 22 16  1  0  0  0  0
 23 25  1  0  0  0  0
 23 24  1  0  0  0  0
 26 23  1  0  0  0  0
 28 27  1  0  0  0  0
 29 33  1  1  0  0  0
 29 32  1  0  0  0  0
 31 32  1  0  0  0  0
 32 30  1  6  0  0  0
 34 33  1  0  0  0  0
 35 14  1  0  0  0  0
 37 36  2  0  0  0  0
 37 35  1  0  0  0  0
M  END
>  <MODEL>
7

>  <REMARK>
 VINA RESULT:      -2.4      2.842      7.130
  Name = 
  8 active torsions:
  status: ('A' for Active; 'I' for Inactive)
    1  A    between atoms: C_1  and  C_5
    2  A    between atoms: C_3  and  C_30
    3  A    between atoms: C_5  and  O_11
    4  A    between atoms: C_5  and  C_23
    5  A    between atoms: C_6  and  N_7
    6  A    between atoms: C_10  and  O_33
    7  A    between atoms: C_14  and  N_31
    8  A    between atoms: C_14  and  C_37
                            x       y       z     vdW  Elec       q    Type
                         _______ _______ _______ _____ _____    ______ ____

>  <TORSDO>
F 8

$$$$
=
 OpenBabel10262422533D

 37 39  0  0  1  0  0  0  0  0999 V2000
  183.8140  179.0100  139.4090 C   0  0  2  0  0  3  0  0  0  0  0  0
  182.3080  176.4230  137.7870 C   0  0  0  0  0  0  0  0  0  0  0  0
  184.5070  175.9270  136.7800 N   0  0  0  0  0  0  0  0  0  0  0  0
  179.2070  178.6410  139.5400 C   0  0  0  0  0  3  0  0  0  0  0  0
  185.3560  178.1290  137.5960 C   0  0  1  0  0  3  0  0  0  0  0  0
  181.4380  178.5780  138.6520 N   0  0  0  0  0  0  0  0  0  0  0  0
  179.0200  177.2410  139.1420 C   0  0  0  0  0  3  0  0  0  0  0  0
  182.6900  179.2940  138.3840 C   0  0  0  0  0  2  0  0  0  0  0  0
  179.9210  176.6280  138.3850 C   0  0  0  0  0  3  0  0  0  0  0  0
  185.6500  176.8460  136.8000 C   0  0  0  0  0  2  0  0  0  0  0  0
  181.1310  177.3580  137.8610 C   0  0  2  0  0  3  0  0  0  0  0  0
  184.7390  177.8660  138.9750 C   0  0  0  0  0  2  0  0  0  0  0  0
  180.3490  179.2920  139.2860 C   0  0  0  0  0  0  0  0  0  0  0  0
  183.2000  176.4490  136.6600 N   0  0  0  0  0  0  0  0  0  0  0  0
  182.5360  175.6370  138.7460 O   0  0  0  0  0  0  0  0  0  0  0  0
  183.7250  173.6270  136.3070 C   0  0  0  0  0  3  0  0  0  0  0  0
  184.7310  174.5020  136.7590 C   0  0  0  0  0  0  0  0  0  0  0  0
  185.9540  173.9660  137.2080 C   0  0  0  0  0  3  0  0  0  0  0  0
  187.3350  172.0750  137.6620 F   0  0  0  0  0  0  0  0  0  0  0  0
  185.1440  171.7250  136.7700 C   0  0  0  0  0  3  0  0  0  0  0  0
  186.1600  172.5830  137.2080 C   0  0  0  0  0  0  0  0  0  0  0  0
  183.9280  172.2470  136.3180 C   0  0  0  0  0  3  0  0  0  0  0  0
  180.4570  180.7560  139.6630 C   0  0  0  0  0  0  0  0  0  0  0  0
  180.4290  180.8980  141.0330 F   0  0  0  0  0  0  0  0  0  0  0  0
  181.6390  181.2640  139.1710 F   0  0  0  0  0  0  0  0  0  0  0  0
  179.4100  181.4880  139.1330 F   0  0  0  0  0  0  0  0  0  0  0  0
  187.6150  178.2790  137.9360 C   0  0  0  0  0  1  0  0  0  0  0  0
  186.4570  179.0150  137.6500 O   0  0  0  0  0  0  0  0  0  0  0  0
  183.3290  178.8450  140.8610 C   0  0  2  0  0  3  0  0  0  0  0  0
  183.9720  179.3290  143.2420 C   0  0  0  0  0  1  0  0  0  0  0  0
  185.5010  179.7500  141.4510 O   0  0  0  0  0  1  0  0  0  0  0  0
  184.4750  178.8980  141.8760 C   0  0  2  0  0  3  0  0  0  0  0  0
  182.5920  177.6610  141.0160 O   0  0  0  0  0  0  0  0  0  0  0  0
  181.6320  177.9440  141.9890 C   0  0  0  0  0  1  0  0  0  0  0  0
  182.8450  177.1940  135.4560 C   0  0  0  0  0  2  0  0  0  0  0  0
  181.3440  175.4570  134.5940 C   0  0  0  0  0  2  0  0  0  0  0  0
  181.5170  176.7390  134.9330 C   0  0  0  0  0  3  0  0  0  0  0  0
  1 29  1  1  0  0  0
  2 11  1  0  0  0  0
  2 15  2  0  0  0  0
  3 10  1  0  0  0  0
  5 28  1  1  0  0  0
  5 12  1  0  0  0  0
  6 13  1  0  0  0  0
  7  4  1  0  0  0  0
  8  6  1  0  0  0  0
  8  1  1  0  0  0  0
  9  7  2  0  0  0  0
 10  5  1  0  0  0  0
 11  9  1  1  0  0  0
 11  6  1  0  0  0  0
 12  1  1  0  0  0  0
 13  4  2  0  0  0  0
 13 23  1  0  0  0  0
 14  3  1  0  0  0  0
 14  2  1  0  0  0  0
 16 22  2  0  0  0  0
 16 17  1  0  0  0  0
 17  3  1  0  0  0  0
 17 18  2  0  0  0  0
 20 21  2  0  0  0  0
 21 18  1  0  0  0  0
 21 19  1  0  0  0  0
 22 20  1  0  0  0  0
 23 24  1  0  0  0  0
 25 23  1  0  0  0  0
 26 23  1  0  0  0  0
 28 27  1  0  0  0  0
 29 33  1  6  0  0  0
 29 32  1  0  0  0  0
 31 32  1  0  0  0  0
 32 30  1  1  0  0  0
 33 34  1  0  0  0  0
 35 14  1  0  0  0  0
 36 37  2  0  0  0  0
 37 35  1  0  0  0  0
M  END
>  <MODEL>
8

>  <REMARK>
 VINA RESULT:      -2.3      2.170      6.972
  Name = 
  8 active torsions:
  status: ('A' for Active; 'I' for Inactive)
    1  A    between atoms: C_1  and  C_5
    2  A    between atoms: C_3  and  C_30
    3  A    between atoms: C_5  and  O_11
    4  A    between atoms: C_5  and  C_23
    5  A    between atoms: C_6  and  N_7
    6  A    between atoms: C_10  and  O_33
    7  A    between atoms: C_14  and  N_31
    8  A    between atoms: C_14  and  C_37
                            x       y       z     vdW  Elec       q    Type
                         _______ _______ _______ _____ _____    ______ ____

>  <TORSDO>
F 8

$$$$
=
 OpenBabel10262422533D

 37 39  0  0  1  0  0  0  0  0999 V2000
  182.1980  178.6640  138.5830 C   0  0  2  0  0  3  0  0  0  0  0  0
  182.3220  176.6580  135.8350 C   0  0  0  0  0  0  0  0  0  0  0  0
  184.5620  175.9530  136.5960 N   0  0  0  0  0  0  0  0  0  0  0  0
  178.9310  179.0800  135.3380 C   0  0  0  0  0  3  0  0  0  0  0  0
  184.5680  177.8220  138.2500 C   0  0  1  0  0  3  0  0  0  0  0  0
  181.1090  178.7710  136.3000 N   0  0  0  0  0  0  0  0  0  0  0  0
  179.0810  177.8120  134.6160 C   0  0  0  0  0  3  0  0  0  0  0  0
  182.1700  179.2930  137.1690 C   0  0  0  0  0  2  0  0  0  0  0  0
  180.2470  177.1770  134.6010 C   0  0  0  0  0  3  0  0  0  0  0  0
  185.3400  176.6470  137.6270 C   0  0  0  0  0  2  0  0  0  0  0  0
  181.4640  177.7600  135.2710 C   0  0  2  0  0  3  0  0  0  0  0  0
  183.1420  177.4590  138.6790 C   0  0  0  0  0  2  0  0  0  0  0  0
  179.9040  179.5560  136.1240 C   0  0  0  0  0  0  0  0  0  0  0  0
  183.7530  176.7050  135.7150 N   0  0  0  0  0  0  0  0  0  0  0  0
  181.7770  175.7060  136.4570 O   0  0  0  0  0  0  0  0  0  0  0  0
  185.6780  174.0320  135.5040 C   0  0  0  0  0  3  0  0  0  0  0  0
  184.7220  174.5310  136.4100 C   0  0  0  0  0  0  0  0  0  0  0  0
  183.9110  173.6230  137.1190 C   0  0  0  0  0  3  0  0  0  0  0  0
  183.2520  171.3800  137.5930 F   0  0  0  0  0  0  0  0  0  0  0  0
  184.9970  171.7660  136.0050 C   0  0  0  0  0  3  0  0  0  0  0  0
  184.0530  172.2460  136.9200 C   0  0  0  0  0  0  0  0  0  0  0  0
  185.8110  172.6590  135.2990 C   0  0  0  0  0  3  0  0  0  0  0  0
  179.7150  180.9030  136.7920 C   0  0  0  0  0  0  0  0  0  0  0  0
  180.9390  181.4690  137.0750 F   0  0  0  0  0  0  0  0  0  0  0  0
  179.0070  181.7310  135.9490 F   0  0  0  0  0  0  0  0  0  0  0  0
  179.0130  180.7790  137.9770 F   0  0  0  0  0  0  0  0  0  0  0  0
  184.6640  178.2480  140.4990 C   0  0  0  0  0  1  0  0  0  0  0  0
  185.2920  178.4860  139.2690 O   0  0  0  0  0  0  0  0  0  0  0  0
  180.8090  178.3630  139.1760 C   0  0  2  0  0  3  0  0  0  0  0  0
  180.1710  180.2600  140.6980 C   0  0  0  0  0  1  0  0  0  0  0  0
  181.8840  178.7120  141.3230 O   0  0  0  0  0  1  0  0  0  0  0  0
  180.6740  178.8290  140.6300 C   0  0  2  0  0  3  0  0  0  0  0  0
  180.4990  176.9990  139.0700 O   0  0  0  0  0  0  0  0  0  0  0  0
  179.1660  176.8870  139.4670 C   0  0  0  0  0  1  0  0  0  0  0  0
  184.3870  177.6760  134.8300 C   0  0  0  0  0  2  0  0  0  0  0  0
  186.7290  178.3930  134.7030 C   0  0  0  0  0  2  0  0  0  0  0  0
  185.8510  177.3840  134.6970 C   0  0  0  0  0  3  0  0  0  0  0  0
  1 12  1  0  0  0  0
  1 29  1  6  0  0  0
  2 15  2  0  0  0  0
  3 10  1  0  0  0  0
  4 13  2  0  0  0  0
  5 12  1  0  0  0  0
  5 28  1  1  0  0  0
  6  8  1  0  0  0  0
  7  4  1  0  0  0  0
  8  1  1  0  0  0  0
  9  7  2  0  0  0  0
 10  5  1  0  0  0  0
 11  9  1  1  0  0  0
 11  2  1  0  0  0  0
 11  6  1  0  0  0  0
 13  6  1  0  0  0  0
 13 23  1  0  0  0  0
 14  2  1  0  0  0  0
 14  3  1  0  0  0  0
 16 17  1  0  0  0  0
 17  3  1  0  0  0  0
 17 18  2  0  0  0  0
 20 21  2  0  0  0  0
 21 18  1  0  0  0  0
 21 19  1  0  0  0  0
 22 16  2  0  0  0  0
 22 20  1  0  0  0  0
 23 24  1  0  0  0  0
 23 26  1  0  0  0  0
 25 23  1  0  0  0  0
 28 27  1  0  0  0  0
 29 33  1  1  0  0  0
 29 32  1  0  0  0  0
 32 30  1  6  0  0  0
 32 31  1  0  0  0  0
 33 34  1  0  0  0  0
 35 14  1  0  0  0  0
 37 36  2  0  0  0  0
 37 35  1  0  0  0  0
M  END
>  <MODEL>
9

>  <REMARK>
 VINA RESULT:      -1.9      2.251      7.192
  Name = 
  8 active torsions:
  status: ('A' for Active; 'I' for Inactive)
    1  A    between atoms: C_1  and  C_5
    2  A    between atoms: C_3  and  C_30
    3  A    between atoms: C_5  and  O_11
    4  A    between atoms: C_5  and  C_23
    5  A    between atoms: C_6  and  N_7
    6  A    between atoms: C_10  and  O_33
    7  A    between atoms: C_14  and  N_31
    8  A    between atoms: C_14  and  C_37
                            x       y       z     vdW  Elec       q    Type
                         _______ _______ _______ _____ _____    ______ ____

>  <TORSDO>
F 8

$$$$
