=
 OpenBabel10262421143D

 32 37  0  0  1  0  0  0  0  0999 V2000
  185.9540  178.5810  139.5890 C   0  0  0  0  0  0  0  0  0  0  0  0
  186.9750  178.5050  141.8600 C   0  0  2  0  0  3  0  0  0  0  0  0
  186.0210  178.4600  138.2340 N   0  0  0  0  0  0  0  0  0  0  0  0
  187.0980  178.3780  140.3680 C   0  0  0  0  0  0  0  0  0  0  0  0
  188.0760  177.7890  142.6980 C   0  0  1  0  0  3  0  0  0  0  0  0
  184.1860  178.9220  145.7720 C   0  0  0  0  0  3  0  0  0  0  0  0
  185.5200  178.2170  142.2700 C   0  0  2  0  0  3  0  0  0  0  0  0
  186.2690  177.6930  145.9400 C   0  0  0  0  0  3  0  0  0  0  0  0
  186.3770  177.6840  144.5480 C   0  0  0  0  0  0  0  0  0  0  0  0
  188.3000  178.0240  139.7510 C   0  0  0  0  0  0  0  0  0  0  0  0
  187.5180  176.9740  143.8780 C   0  0  0  0  0  2  0  0  0  0  0  0
  189.5010  177.7230  140.5890 C   0  0  0  0  0  2  0  0  0  0  0  0
  188.3560  177.9320  138.3590 C   0  0  0  0  0  3  0  0  0  0  0  0
  184.6890  179.1340  141.5910 O   0  0  0  0  0  0  0  0  0  0  0  0
  184.6970  178.7580  140.2740 N   0  0  0  0  0  0  0  0  0  0  0  0
  185.3850  178.2960  143.7610 C   0  0  0  0  0  0  0  0  0  0  0  0
  189.0800  176.9750  141.8590 C   0  0  1  0  0  3  0  0  0  0  0  0
  187.1950  178.1600  137.6100 C   0  0  0  0  0  3  0  0  0  0  0  0
  185.1770  178.3170  146.5530 C   0  0  0  0  0  3  0  0  0  0  0  0
  184.2850  178.9070  144.3780 C   0  0  0  0  0  3  0  0  0  0  0  0
  180.9540  178.9050  140.0110 C   0  0  1  0  0  3  0  0  0  0  0  0
  180.6660  176.3260  137.2740 O   0  0  0  0  0  1  0  0  0  0  0  0
  180.0890  179.9440  140.3570 O   0  0  0  0  0  1  0  0  0  0  0  0
  182.0800  176.2250  139.2010 C   0  0  0  0  0  2  0  0  0  0  0  0
  183.4550  178.3460  139.6310 C   0  0  1  0  0  3  0  0  0  0  0  0
  180.3730  178.1080  138.8360 C   0  0  0  0  0  2  0  0  0  0  0  0
  183.0160  176.9750  140.1610 C   0  0  0  0  0  2  0  0  0  0  0  0
  182.3840  179.4380  139.8020 C   0  0  1  0  0  3  0  0  0  0  0  0
  182.4610  180.4290  138.6510 C   0  0  0  0  0  1  0  0  0  0  0  0
  181.3490  177.1190  138.1940 C   0  0  2  0  0  3  0  0  0  0  0  0
  190.3130  176.5920  142.6740 C   0  0  0  0  0  2  0  0  0  0  0  0
  190.3880  175.2070  142.8400 O   0  0  0  0  0  1  0  0  0  0  0  0
  1 15  1  0  0  0  0
  1  4  1  0  0  0  0
  2  4  1  6  0  0  0
  2  7  1  0  0  0  0
  2  5  1  0  0  0  0
  3  1  2  0  0  0  0
  5 11  1  1  0  0  0
  6 19  1  0  0  0  0
  7 14  1  6  0  0  0
  7 16  1  0  0  0  0
  8 19  2  0  0  0  0
  9  8  1  0  0  0  0
 10  4  2  0  0  0  0
 10 12  1  0  0  0  0
 11  9  1  0  0  0  0
 12 17  1  0  0  0  0
 13 10  1  0  0  0  0
 15 14  1  0  0  0  0
 16 20  1  0  0  0  0
 16  9  2  0  0  0  0
 17 31  1  1  0  0  0
 17  5  1  0  0  0  0
 18  3  1  0  0  0  0
 18 13  2  0  0  0  0
 20  6  2  0  0  0  0
 21 23  1  6  0  0  0
 24 27  1  0  0  0  0
 25 28  1  0  0  0  0
 25 27  1  1  0  0  0
 25 15  1  0  0  0  0
 26 21  1  0  0  0  0
 28 29  1  6  0  0  0
 28 21  1  0  0  0  0
 30 22  1  6  0  0  0
 30 26  1  0  0  0  0
 30 24  1  0  0  0  0
 31 32  1  0  0  0  0
M  END
>  <MODEL>
1

>  <REMARK>
 VINA RESULT:     -10.6      0.000      0.000
  Name = 
  2 active torsions:
  status: ('A' for Active; 'I' for Inactive)
    1  A    between atoms: C_13  and  C_29
    2  A    between atoms: C_16  and  N_27
                            x       y       z     vdW  Elec       q    Type
                         _______ _______ _______ _____ _____    ______ ____

>  <TORSDO>
F 2

$$$$
=
 OpenBabel10262421143D

 32 37  0  0  1  0  0  0  0  0999 V2000
  186.0790  178.7970  139.6250 C   0  0  0  0  0  0  0  0  0  0  0  0
  187.1110  178.4620  141.8680 C   0  0  2  0  0  3  0  0  0  0  0  0
  186.1110  178.7390  138.2650 N   0  0  0  0  0  0  0  0  0  0  0  0
  187.1940  178.3980  140.3690 C   0  0  0  0  0  0  0  0  0  0  0  0
  188.1130  177.5590  142.6460 C   0  0  1  0  0  3  0  0  0  0  0  0
  184.4580  179.0520  145.8530 C   0  0  0  0  0  3  0  0  0  0  0  0
  185.6350  178.3550  142.2930 C   0  0  2  0  0  3  0  0  0  0  0  0
  186.3530  177.5410  145.9160 C   0  0  0  0  0  3  0  0  0  0  0  0
  186.4400  177.5910  144.5230 C   0  0  0  0  0  0  0  0  0  0  0  0
  188.3280  177.9160  139.7110 C   0  0  0  0  0  0  0  0  0  0  0  0
  187.4630  176.7670  143.7960 C   0  0  0  0  0  2  0  0  0  0  0  0
  189.4870  177.4090  140.5080 C   0  0  0  0  0  2  0  0  0  0  0  0
  188.3520  177.8900  138.3150 C   0  0  0  0  0  3  0  0  0  0  0  0
  184.9300  179.4120  141.6780 O   0  0  0  0  0  0  0  0  0  0  0  0
  184.8680  179.1080  140.3430 N   0  0  0  0  0  0  0  0  0  0  0  0
  185.5320  178.3740  143.7880 C   0  0  0  0  0  0  0  0  0  0  0  0
  188.9830  176.6600  141.7470 C   0  0  1  0  0  3  0  0  0  0  0  0
  187.2240  178.3150  137.6030 C   0  0  0  0  0  3  0  0  0  0  0  0
  185.3660  178.2770  146.5810 C   0  0  0  0  0  3  0  0  0  0  0  0
  184.5350  179.0960  144.4580 C   0  0  0  0  0  3  0  0  0  0  0  0
  182.7650  177.5670  137.6410 C   0  0  1  0  0  3  0  0  0  0  0  0
  179.5510  179.2630  138.6500 O   0  0  0  0  0  1  0  0  0  0  0  0
  182.9680  176.3770  136.9410 O   0  0  0  0  0  1  0  0  0  0  0  0
  181.7260  180.2520  138.5430 C   0  0  0  0  0  2  0  0  0  0  0  0
  183.5720  178.9050  139.7070 C   0  0  1  0  0  3  0  0  0  0  0  0
  181.2630  177.8460  137.7750 C   0  0  0  0  0  2  0  0  0  0  0  0
  183.2330  180.1000  138.8080 C   0  0  0  0  0  2  0  0  0  0  0  0
  183.5530  177.5570  138.9640 C   0  0  1  0  0  3  0  0  0  0  0  0
  183.0860  176.4520  139.8990 C   0  0  0  0  0  1  0  0  0  0  0  0
  180.9100  178.9710  138.7500 C   0  0  2  0  0  3  0  0  0  0  0  0
  190.1620  176.0700  142.5170 C   0  0  0  0  0  2  0  0  0  0  0  0
  191.2440  176.9540  142.5230 O   0  0  0  0  0  1  0  0  0  0  0  0
  1 15  1  0  0  0  0
  1  4  1  0  0  0  0
  2  4  1  6  0  0  0
  2  7  1  0  0  0  0
  2  5  1  0  0  0  0
  3  1  2  0  0  0  0
  5 11  1  1  0  0  0
  6 19  1  0  0  0  0
  7 14  1  6  0  0  0
  7 16  1  0  0  0  0
  8 19  2  0  0  0  0
  9  8  1  0  0  0  0
 10  4  2  0  0  0  0
 10 12  1  0  0  0  0
 11  9  1  0  0  0  0
 12 17  1  0  0  0  0
 13 10  1  0  0  0  0
 15 14  1  0  0  0  0
 16 20  1  0  0  0  0
 16  9  2  0  0  0  0
 17 31  1  1  0  0  0
 17  5  1  0  0  0  0
 18  3  1  0  0  0  0
 18 13  2  0  0  0  0
 20  6  2  0  0  0  0
 21 23  1  1  0  0  0
 21 26  1  0  0  0  0
 21 28  1  0  0  0  0
 24 30  1  0  0  0  0
 24 27  1  0  0  0  0
 25 27  1  6  0  0  0
 25 15  1  0  0  0  0
 26 30  1  0  0  0  0
 28 25  1  0  0  0  0
 28 29  1  1  0  0  0
 30 22  1  6  0  0  0
 31 32  1  0  0  0  0
M  END
>  <MODEL>
2

>  <REMARK>
 VINA RESULT:      -9.6      0.836      1.925
  Name = 
  2 active torsions:
  status: ('A' for Active; 'I' for Inactive)
    1  A    between atoms: C_13  and  C_29
    2  A    between atoms: C_16  and  N_27
                            x       y       z     vdW  Elec       q    Type
                         _______ _______ _______ _____ _____    ______ ____

>  <TORSDO>
F 2

$$$$
=
 OpenBabel10262421143D

 32 37  0  0  1  0  0  0  0  0999 V2000
  187.4390  178.6060  140.9700 C   0  0  0  0  0  0  0  0  0  0  0  0
  188.6360  177.8620  138.9170 C   0  0  2  0  0  3  0  0  0  0  0  0
  186.3090  178.9580  141.6440 N   0  0  0  0  0  0  0  0  0  0  0  0
  187.3680  178.2610  139.6170 C   0  0  0  0  0  0  0  0  0  0  0  0
  188.4630  177.0120  137.6230 C   0  0  1  0  0  3  0  0  0  0  0  0
  193.3010  176.6600  139.1490 C   0  0  0  0  0  3  0  0  0  0  0  0
  189.6320  177.3150  139.9550 C   0  0  2  0  0  3  0  0  0  0  0  0
  191.9120  175.6500  137.4380 C   0  0  0  0  0  3  0  0  0  0  0  0
  190.7690  176.1250  138.0850 C   0  0  0  0  0  0  0  0  0  0  0  0
  186.1310  178.2530  138.9690 C   0  0  0  0  0  0  0  0  0  0  0  0
  189.4040  175.7960  137.5540 C   0  0  0  0  0  2  0  0  0  0  0  0
  186.0430  177.8010  137.5460 C   0  0  0  0  0  2  0  0  0  0  0  0
  184.9870  178.6440  139.6680 C   0  0  0  0  0  3  0  0  0  0  0  0
  189.8540  178.3240  140.9160 O   0  0  0  0  0  0  0  0  0  0  0  0
  188.6980  178.4200  141.6470 N   0  0  0  0  0  0  0  0  0  0  0  0
  190.8900  176.8710  139.2710 C   0  0  0  0  0  0  0  0  0  0  0  0
  187.0030  176.6300  137.3080 C   0  0  1  0  0  3  0  0  0  0  0  0
  185.0990  179.0010  141.0180 C   0  0  0  0  0  3  0  0  0  0  0  0
  193.1790  175.9240  137.9660 C   0  0  0  0  0  3  0  0  0  0  0  0
  192.1600  177.1280  139.8060 C   0  0  0  0  0  3  0  0  0  0  0  0
  190.3300  176.8310  144.6330 C   0  0  1  0  0  3  0  0  0  0  0  0
  187.6170  177.7570  147.0830 O   0  0  0  0  0  1  0  0  0  0  0  0
  191.6800  176.5560  144.8530 O   0  0  0  0  0  1  0  0  0  0  0  0
  187.3230  176.9310  144.8580 C   0  0  0  0  0  2  0  0  0  0  0  0
  188.7210  178.1340  143.0770 C   0  0  1  0  0  3  0  0  0  0  0  0
  189.6310  177.1280  145.9660 C   0  0  0  0  0  2  0  0  0  0  0  0
  187.7910  176.9570  143.3940 C   0  0  0  0  0  2  0  0  0  0  0  0
  190.1690  177.9140  143.5490 C   0  0  1  0  0  3  0  0  0  0  0  0
  190.7880  179.2380  143.9680 C   0  0  0  0  0  1  0  0  0  0  0  0
  188.2210  177.7060  145.8290 C   0  0  2  0  0  3  0  0  0  0  0  0
  186.8540  176.1130  135.8800 C   0  0  0  0  0  2  0  0  0  0  0  0
  187.2320  177.0900  134.9560 O   0  0  0  0  0  1  0  0  0  0  0  0
  1  3  1  0  0  0  0
  1 15  1  0  0  0  0
  2  4  1  1  0  0  0
  2  7  1  0  0  0  0
  4  1  2  0  0  0  0
  5 11  1  1  0  0  0
  5  2  1  0  0  0  0
  6 20  1  0  0  0  0
  7 16  1  6  0  0  0
  7 14  1  0  0  0  0
  8 19  1  0  0  0  0
  8  9  2  0  0  0  0
  9 16  1  0  0  0  0
 10  4  1  0  0  0  0
 10 13  2  0  0  0  0
 11  9  1  0  0  0  0
 12 10  1  0  0  0  0
 13 18  1  0  0  0  0
 14 15  1  0  0  0  0
 16 20  2  0  0  0  0
 17 31  1  6  0  0  0
 17 12  1  0  0  0  0
 17  5  1  0  0  0  0
 18  3  2  0  0  0  0
 19  6  2  0  0  0  0
 21 23  1  1  0  0  0
 21 26  1  0  0  0  0
 24 30  1  0  0  0  0
 25 15  1  6  0  0  0
 25 27  1  0  0  0  0
 25 28  1  0  0  0  0
 27 24  1  0  0  0  0
 28 29  1  1  0  0  0
 28 21  1  0  0  0  0
 30 26  1  0  0  0  0
 30 22  1  1  0  0  0
 32 31  1  0  0  0  0
M  END
>  <MODEL>
3

>  <REMARK>
 VINA RESULT:      -9.3      3.302      7.805
  Name = 
  2 active torsions:
  status: ('A' for Active; 'I' for Inactive)
    1  A    between atoms: C_13  and  C_29
    2  A    between atoms: C_16  and  N_27
                            x       y       z     vdW  Elec       q    Type
                         _______ _______ _______ _____ _____    ______ ____

>  <TORSDO>
F 2

$$$$
=
 OpenBabel10262421143D

 32 37  0  0  1  0  0  0  0  0999 V2000
  190.1570  177.7840  139.9320 C   0  0  0  0  0  0  0  0  0  0  0  0
  189.0990  178.2340  142.1420 C   0  0  2  0  0  3  0  0  0  0  0  0
  191.2180  177.4300  139.1540 N   0  0  0  0  0  0  0  0  0  0  0  0
  190.2990  177.8560  141.3210 C   0  0  0  0  0  0  0  0  0  0  0  0
  189.1360  177.8110  143.6400 C   0  0  1  0  0  3  0  0  0  0  0  0
  184.3500  179.0270  142.4240 C   0  0  0  0  0  3  0  0  0  0  0  0
  187.8230  177.8610  141.3660 C   0  0  2  0  0  3  0  0  0  0  0  0
  185.5010  178.0940  144.3420 C   0  0  0  0  0  3  0  0  0  0  0  0
  186.6240  177.8470  143.5490 C   0  0  0  0  0  0  0  0  0  0  0  0
  191.5260  177.5370  141.9080 C   0  0  0  0  0  0  0  0  0  0  0  0
  187.8280  177.1630  144.1290 C   0  0  0  0  0  2  0  0  0  0  0  0
  191.6550  177.5290  143.3970 C   0  0  0  0  0  2  0  0  0  0  0  0
  192.6100  177.2030  141.0930 C   0  0  0  0  0  3  0  0  0  0  0  0
  187.8540  178.5400  140.1290 O   0  0  0  0  0  0  0  0  0  0  0  0
  188.8320  177.9370  139.3830 N   0  0  0  0  0  0  0  0  0  0  0  0
  186.6130  178.1910  142.1860 C   0  0  0  0  0  0  0  0  0  0  0  0
  190.3730  176.9780  144.0310 C   0  0  1  0  0  3  0  0  0  0  0  0
  192.4350  177.1590  139.7040 C   0  0  0  0  0  3  0  0  0  0  0  0
  184.3660  178.6900  143.7810 C   0  0  0  0  0  3  0  0  0  0  0  0
  185.4680  178.7730  141.6240 C   0  0  0  0  0  3  0  0  0  0  0  0
  186.2500  176.7340  136.9360 C   0  0  1  0  0  3  0  0  0  0  0  0
  188.6940  175.0720  134.5940 O   0  0  0  0  0  1  0  0  0  0  0  0
  184.9730  177.2390  136.6880 O   0  0  0  0  0  1  0  0  0  0  0  0
  188.7150  174.9950  136.9850 C   0  0  0  0  0  2  0  0  0  0  0  0
  188.4830  177.2780  138.1300 C   0  0  1  0  0  3  0  0  0  0  0  0
  186.8310  176.1250  135.6550 C   0  0  0  0  0  2  0  0  0  0  0  0
  188.5210  175.7550  138.3070 C   0  0  0  0  0  2  0  0  0  0  0  0
  187.1290  177.7990  137.6170 C   0  0  1  0  0  3  0  0  0  0  0  0
  187.3410  179.0170  136.7300 C   0  0  0  0  0  1  0  0  0  0  0  0
  188.3220  175.7850  135.7320 C   0  0  2  0  0  3  0  0  0  0  0  0
  190.5340  176.8920  145.5470 C   0  0  0  0  0  2  0  0  0  0  0  0
  191.8500  177.1730  145.9230 O   0  0  0  0  0  1  0  0  0  0  0  0
  1  4  1  0  0  0  0
  2  4  1  6  0  0  0
  2  5  1  0  0  0  0
  3 18  1  0  0  0  0
  3  1  2  0  0  0  0
  4 10  2  0  0  0  0
  5 17  1  0  0  0  0
  5 11  1  6  0  0  0
  6 19  1  0  0  0  0
  7 14  1  6  0  0  0
  7  2  1  0  0  0  0
  7 16  1  0  0  0  0
  9 11  1  0  0  0  0
  9  8  1  0  0  0  0
 10 12  1  0  0  0  0
 12 17  1  0  0  0  0
 13 10  1  0  0  0  0
 15  1  1  0  0  0  0
 15 14  1  0  0  0  0
 16  9  2  0  0  0  0
 17 31  1  1  0  0  0
 18 13  2  0  0  0  0
 19  8  2  0  0  0  0
 20 16  1  0  0  0  0
 20  6  2  0  0  0  0
 21 23  1  6  0  0  0
 21 28  1  0  0  0  0
 24 27  1  0  0  0  0
 25 27  1  1  0  0  0
 25 15  1  0  0  0  0
 26 30  1  0  0  0  0
 26 21  1  0  0  0  0
 28 29  1  6  0  0  0
 28 25  1  0  0  0  0
 30 22  1  6  0  0  0
 30 24  1  0  0  0  0
 31 32  1  0  0  0  0
M  END
>  <MODEL>
4

>  <REMARK>
 VINA RESULT:      -9.1      3.047      4.688
  Name = 
  2 active torsions:
  status: ('A' for Active; 'I' for Inactive)
    1  A    between atoms: C_13  and  C_29
    2  A    between atoms: C_16  and  N_27
                            x       y       z     vdW  Elec       q    Type
                         _______ _______ _______ _____ _____    ______ ____

>  <TORSDO>
F 2

$$$$
=
 OpenBabel10262421143D

 32 37  0  0  1  0  0  0  0  0999 V2000
  181.0710  179.1800  140.8760 C   0  0  0  0  0  0  0  0  0  0  0  0
  183.3530  178.4050  141.5070 C   0  0  2  0  0  3  0  0  0  0  0  0
  179.8060  179.5790  141.1870 N   0  0  0  0  0  0  0  0  0  0  0  0
  181.9620  178.8220  141.8930 C   0  0  0  0  0  0  0  0  0  0  0  0
  184.4330  178.5180  142.6220 C   0  0  1  0  0  3  0  0  0  0  0  0
  186.7850  178.0250  138.1400 C   0  0  0  0  0  3  0  0  0  0  0  0
  183.7100  179.0430  140.1520 C   0  0  2  0  0  3  0  0  0  0  0  0
  187.4350  178.4480  140.4370 C   0  0  0  0  0  3  0  0  0  0  0  0
  186.1070  178.7390  140.7590 C   0  0  0  0  0  0  0  0  0  0  0  0
  181.5570  178.9020  143.2270 C   0  0  0  0  0  0  0  0  0  0  0  0
  185.7410  179.1770  142.1480 C   0  0  0  0  0  2  0  0  0  0  0  0
  182.5350  178.6020  144.3170 C   0  0  0  0  0  2  0  0  0  0  0  0
  180.2470  179.2860  143.5250 C   0  0  0  0  0  3  0  0  0  0  0  0
  182.7500  178.6220  139.2080 O   0  0  0  0  0  0  0  0  0  0  0  0
  181.5840  179.2650  139.5310 N   0  0  0  0  0  0  0  0  0  0  0  0
  185.1110  178.6730  139.7690 C   0  0  0  0  0  0  0  0  0  0  0  0
  183.9210  179.1350  143.9380 C   0  0  1  0  0  3  0  0  0  0  0  0
  179.3780  179.6190  142.4800 C   0  0  0  0  0  3  0  0  0  0  0  0
  187.7730  178.0850  139.1290 C   0  0  0  0  0  3  0  0  0  0  0  0
  185.4570  178.3250  138.4560 C   0  0  0  0  0  3  0  0  0  0  0  0
  180.9050  180.3260  135.9930 C   0  0  1  0  0  3  0  0  0  0  0  0
  179.1030  183.5140  136.8940 O   0  0  0  0  0  1  0  0  0  0  0  0
  180.8170  179.5410  134.8430 O   0  0  0  0  0  1  0  0  0  0  0  0
  181.0990  182.6590  137.8970 C   0  0  0  0  0  2  0  0  0  0  0  0
  180.9800  180.1890  138.5790 C   0  0  1  0  0  3  0  0  0  0  0  0
  179.9870  181.5470  135.8670 C   0  0  0  0  0  2  0  0  0  0  0  0
  181.8660  181.4300  138.4130 C   0  0  0  0  0  2  0  0  0  0  0  0
  180.6880  179.4660  137.2520 C   0  0  1  0  0  3  0  0  0  0  0  0
  179.2980  178.8490  137.2890 C   0  0  0  0  0  1  0  0  0  0  0  0
  179.7920  182.3330  137.1650 C   0  0  2  0  0  3  0  0  0  0  0  0
  184.9020  178.9050  145.0850 C   0  0  0  0  0  2  0  0  0  0  0  0
  184.2440  178.9480  146.3170 O   0  0  0  0  0  1  0  0  0  0  0  0
  1  3  2  0  0  0  0
  1  4  1  0  0  0  0
  2  4  1  1  0  0  0
  2  5  1  0  0  0  0
  3 18  1  0  0  0  0
  4 10  2  0  0  0  0
  5 11  1  6  0  0  0
  5 17  1  0  0  0  0
  6 20  2  0  0  0  0
  6 19  1  0  0  0  0
  7 14  1  6  0  0  0
  7  2  1  0  0  0  0
  8  9  1  0  0  0  0
  9 11  1  0  0  0  0
 10 13  1  0  0  0  0
 10 12  1  0  0  0  0
 14 15  1  0  0  0  0
 15  1  1  0  0  0  0
 16  7  1  0  0  0  0
 16  9  2  0  0  0  0
 17 12  1  0  0  0  0
 17 31  1  1  0  0  0
 18 13  2  0  0  0  0
 19  8  2  0  0  0  0
 20 16  1  0  0  0  0
 21 23  1  6  0  0  0
 21 28  1  0  0  0  0
 24 27  1  0  0  0  0
 25 27  1  6  0  0  0
 25 15  1  0  0  0  0
 26 21  1  0  0  0  0
 26 30  1  0  0  0  0
 28 29  1  1  0  0  0
 28 25  1  0  0  0  0
 30 22  1  6  0  0  0
 30 24  1  0  0  0  0
 31 32  1  0  0  0  0
M  END
>  <MODEL>
5

>  <REMARK>
 VINA RESULT:      -8.9      2.661      5.860
  Name = 
  2 active torsions:
  status: ('A' for Active; 'I' for Inactive)
    1  A    between atoms: C_13  and  C_29
    2  A    between atoms: C_16  and  N_27
                            x       y       z     vdW  Elec       q    Type
                         _______ _______ _______ _____ _____    ______ ____

>  <TORSDO>
F 2

$$$$
=
 OpenBabel10262421143D

 32 37  0  0  1  0  0  0  0  0999 V2000
  188.2880  178.3860  140.8580 C   0  0  0  0  0  0  0  0  0  0  0  0
  188.9160  177.5490  138.5980 C   0  0  2  0  0  3  0  0  0  0  0  0
  187.3800  178.8570  141.7590 N   0  0  0  0  0  0  0  0  0  0  0  0
  187.8870  178.0820  139.5540 C   0  0  0  0  0  0  0  0  0  0  0  0
  188.3670  176.7550  137.3760 C   0  0  1  0  0  3  0  0  0  0  0  0
  193.3410  175.7940  137.8230 C   0  0  0  0  0  3  0  0  0  0  0  0
  190.0390  176.8650  139.3990 C   0  0  2  0  0  3  0  0  0  0  0  0
  191.5050  174.9950  136.4560 C   0  0  0  0  0  3  0  0  0  0  0  0
  190.5940  175.5880  137.3330 C   0  0  0  0  0  0  0  0  0  0  0  0
  186.5480  178.2360  139.1880 C   0  0  0  0  0  0  0  0  0  0  0  0
  189.1160  175.4370  137.1110 C   0  0  0  0  0  2  0  0  0  0  0  0
  186.1020  177.8290  137.8200 C   0  0  0  0  0  2  0  0  0  0  0  0
  185.6370  178.7460  140.1170 C   0  0  0  0  0  3  0  0  0  0  0  0
  190.5820  177.8190  140.2850 O   0  0  0  0  0  0  0  0  0  0  0  0
  189.6310  178.0370  141.2480 N   0  0  0  0  0  0  0  0  0  0  0  0
  191.0560  176.2890  138.4620 C   0  0  0  0  0  0  0  0  0  0  0  0
  186.8390  176.5570  137.3860 C   0  0  1  0  0  3  0  0  0  0  0  0
  186.0790  179.0570  141.4080 C   0  0  0  0  0  3  0  0  0  0  0  0
  192.8790  175.1040  136.6970 C   0  0  0  0  0  3  0  0  0  0  0  0
  192.4330  176.3810  138.7080 C   0  0  0  0  0  3  0  0  0  0  0  0
  188.5520  177.7770  144.8360 C   0  0  1  0  0  3  0  0  0  0  0  0
  191.9380  176.8000  146.1780 O   0  0  0  0  0  1  0  0  0  0  0  0
  187.2790  177.5380  145.3550 O   0  0  0  0  0  1  0  0  0  0  0  0
  191.4720  178.4790  144.5400 C   0  0  0  0  0  2  0  0  0  0  0  0
  189.9260  177.7190  142.6400 C   0  0  1  0  0  3  0  0  0  0  0  0
  189.6190  177.2000  145.7740 C   0  0  0  0  0  2  0  0  0  0  0  0
  190.6530  178.8930  143.3060 C   0  0  0  0  0  2  0  0  0  0  0  0
  188.6370  177.3040  143.3720 C   0  0  1  0  0  3  0  0  0  0  0  0
  188.4230  175.8040  143.2440 C   0  0  0  0  0  1  0  0  0  0  0  0
  191.0300  177.1600  145.1850 C   0  0  2  0  0  3  0  0  0  0  0  0
  186.3240  176.0930  136.0260 C   0  0  0  0  0  2  0  0  0  0  0  0
  186.1550  177.1770  135.1630 O   0  0  0  0  0  1  0  0  0  0  0  0
  1 15  1  0  0  0  0
  1  3  1  0  0  0  0
  2  7  1  0  0  0  0
  2  4  1  1  0  0  0
  4  1  2  0  0  0  0
  5 11  1  1  0  0  0
  5 17  1  0  0  0  0
  5  2  1  0  0  0  0
  6 20  1  0  0  0  0
  7 16  1  6  0  0  0
  7 14  1  0  0  0  0
  8 19  1  0  0  0  0
  8  9  2  0  0  0  0
  9 16  1  0  0  0  0
 10  4  1  0  0  0  0
 10 13  2  0  0  0  0
 11  9  1  0  0  0  0
 12 10  1  0  0  0  0
 13 18  1  0  0  0  0
 14 15  1  0  0  0  0
 16 20  2  0  0  0  0
 17 31  1  6  0  0  0
 17 12  1  0  0  0  0
 18  3  2  0  0  0  0
 19  6  2  0  0  0  0
 21 23  1  1  0  0  0
 21 26  1  0  0  0  0
 24 30  1  0  0  0  0
 25 15  1  6  0  0  0
 25 27  1  0  0  0  0
 25 28  1  0  0  0  0
 27 24  1  0  0  0  0
 28 29  1  1  0  0  0
 28 21  1  0  0  0  0
 30 26  1  0  0  0  0
 30 22  1  1  0  0  0
 32 31  1  0  0  0  0
M  END
>  <MODEL>
6

>  <REMARK>
 VINA RESULT:      -8.2      3.465      8.195
  Name = 
  2 active torsions:
  status: ('A' for Active; 'I' for Inactive)
    1  A    between atoms: C_13  and  C_29
    2  A    between atoms: C_16  and  N_27
                            x       y       z     vdW  Elec       q    Type
                         _______ _______ _______ _____ _____    ______ ____

>  <TORSDO>
F 2

$$$$
=
 OpenBabel10262421143D

 32 37  0  0  1  0  0  0  0  0999 V2000
  190.0210  178.1160  141.4610 C   0  0  0  0  0  0  0  0  0  0  0  0
  187.8250  178.5730  142.5450 C   0  0  2  0  0  3  0  0  0  0  0  0
  191.3350  177.7610  141.5070 N   0  0  0  0  0  0  0  0  0  0  0  0
  189.2760  178.1940  142.6420 C   0  0  0  0  0  0  0  0  0  0  0  0
  186.9280  178.1550  143.7480 C   0  0  1  0  0  3  0  0  0  0  0  0
  183.9160  179.3590  139.8310 C   0  0  0  0  0  3  0  0  0  0  0  0
  187.3000  178.1940  141.1480 C   0  0  2  0  0  3  0  0  0  0  0  0
  183.6360  178.4340  142.0550 C   0  0  0  0  0  3  0  0  0  0  0  0
  185.0080  178.1860  142.1250 C   0  0  0  0  0  0  0  0  0  0  0  0
  189.8780  177.8780  143.8620 C   0  0  0  0  0  0  0  0  0  0  0  0
  185.5970  177.5060  143.3280 C   0  0  0  0  0  2  0  0  0  0  0  0
  189.0590  177.8770  145.1140 C   0  0  0  0  0  2  0  0  0  0  0  0
  191.2330  177.5430  143.8920 C   0  0  0  0  0  3  0  0  0  0  0  0
  188.0880  178.8690  140.1920 O   0  0  0  0  0  0  0  0  0  0  0  0
  189.3180  178.2650  140.2120 N   0  0  0  0  0  0  0  0  0  0  0  0
  185.8420  178.5260  141.0450 C   0  0  0  0  0  0  0  0  0  0  0  0
  187.6590  177.3260  144.8230 C   0  0  1  0  0  3  0  0  0  0  0  0
  191.9530  177.4950  142.6920 C   0  0  0  0  0  3  0  0  0  0  0  0
  183.0900  179.0260  140.9100 C   0  0  0  0  0  3  0  0  0  0  0  0
  185.2890  179.1030  139.8930 C   0  0  0  0  0  3  0  0  0  0  0  0
  188.6900  176.4940  136.9600 C   0  0  1  0  0  3  0  0  0  0  0  0
  192.3130  175.7430  136.2330 O   0  0  0  0  0  1  0  0  0  0  0  0
  187.6080  176.6180  136.0880 O   0  0  0  0  0  1  0  0  0  0  0  0
  191.2010  175.5490  138.3410 C   0  0  0  0  0  2  0  0  0  0  0  0
  189.8170  177.6010  139.0130 C   0  0  1  0  0  3  0  0  0  0  0  0
  189.9610  176.1500  136.1740 C   0  0  0  0  0  2  0  0  0  0  0  0
  190.1900  176.1480  139.3320 C   0  0  0  0  0  2  0  0  0  0  0  0
  188.7940  177.7320  137.8710 C   0  0  1  0  0  3  0  0  0  0  0  0
  189.0560  179.0030  137.0790 C   0  0  0  0  0  1  0  0  0  0  0  0
  191.2560  176.2560  136.9820 C   0  0  2  0  0  3  0  0  0  0  0  0
  186.8500  177.2450  146.1150 C   0  0  0  0  0  2  0  0  0  0  0  0
  187.6290  177.6190  147.2130 O   0  0  0  0  0  1  0  0  0  0  0  0
  1  3  2  0  0  0  0
  1  4  1  0  0  0  0
  2  4  1  1  0  0  0
  2  5  1  0  0  0  0
  3 18  1  0  0  0  0
  4 10  2  0  0  0  0
  5 11  1  6  0  0  0
  5 17  1  0  0  0  0
  6 20  2  0  0  0  0
  6 19  1  0  0  0  0
  7 14  1  6  0  0  0
  7  2  1  0  0  0  0
  8  9  1  0  0  0  0
  9 11  1  0  0  0  0
 10 13  1  0  0  0  0
 10 12  1  0  0  0  0
 14 15  1  0  0  0  0
 15  1  1  0  0  0  0
 16  7  1  0  0  0  0
 16  9  2  0  0  0  0
 17 12  1  0  0  0  0
 17 31  1  1  0  0  0
 18 13  2  0  0  0  0
 19  8  2  0  0  0  0
 20 16  1  0  0  0  0
 21 23  1  6  0  0  0
 21 28  1  0  0  0  0
 24 27  1  0  0  0  0
 25 27  1  1  0  0  0
 25 15  1  0  0  0  0
 26 21  1  0  0  0  0
 26 30  1  0  0  0  0
 28 29  1  6  0  0  0
 28 25  1  0  0  0  0
 30 22  1  6  0  0  0
 30 24  1  0  0  0  0
 31 32  1  0  0  0  0
M  END
>  <MODEL>
7

>  <REMARK>
 VINA RESULT:      -8.1      2.987      6.175
  Name = 
  2 active torsions:
  status: ('A' for Active; 'I' for Inactive)
    1  A    between atoms: C_13  and  C_29
    2  A    between atoms: C_16  and  N_27
                            x       y       z     vdW  Elec       q    Type
                         _______ _______ _______ _____ _____    ______ ____

>  <TORSDO>
F 2

$$$$
=
 OpenBabel10262421143D

 32 37  0  0  1  0  0  0  0  0999 V2000
  185.3520  178.8370  142.1160 C   0  0  0  0  0  0  0  0  0  0  0  0
  185.2340  178.7190  139.6300 C   0  0  2  0  0  3  0  0  0  0  0  0
  184.7740  178.8450  143.3490 N   0  0  0  0  0  0  0  0  0  0  0  0
  184.5550  178.7420  140.9700 C   0  0  0  0  0  0  0  0  0  0  0  0
  184.4110  178.1070  138.4580 C   0  0  1  0  0  3  0  0  0  0  0  0
  189.2880  178.3700  137.0400 C   0  0  0  0  0  3  0  0  0  0  0  0
  186.6660  178.1810  139.8030 C   0  0  2  0  0  3  0  0  0  0  0  0
  187.2330  177.4590  136.1330 C   0  0  0  0  0  3  0  0  0  0  0  0
  186.6240  177.5870  137.3840 C   0  0  0  0  0  0  0  0  0  0  0  0
  183.1690  178.6280  141.0990 C   0  0  0  0  0  0  0  0  0  0  0  0
  185.2130  177.1180  137.5930 C   0  0  0  0  0  2  0  0  0  0  0  0
  182.3250  178.4390  139.8800 C   0  0  0  0  0  2  0  0  0  0  0  0
  182.5930  178.6660  142.3710 C   0  0  0  0  0  3  0  0  0  0  0  0
  187.3360  179.0170  140.7210 O   0  0  0  0  0  0  0  0  0  0  0  0
  186.7820  178.7630  141.9480 N   0  0  0  0  0  0  0  0  0  0  0  0
  187.3480  178.1100  138.4700 C   0  0  0  0  0  0  0  0  0  0  0  0
  183.0460  177.5290  138.8790 C   0  0  1  0  0  3  0  0  0  0  0  0
  183.4210  178.7820  143.4940 C   0  0  0  0  0  3  0  0  0  0  0  0
  188.5630  177.8560  135.9600 C   0  0  0  0  0  3  0  0  0  0  0  0
  188.6860  178.4910  138.2960 C   0  0  0  0  0  3  0  0  0  0  0  0
  189.3200  176.2840  143.1810 C   0  0  1  0  0  3  0  0  0  0  0  0
  189.2530  177.4290  146.7730 O   0  0  0  0  0  1  0  0  0  0  0  0
  190.3240  175.6280  142.4680 O   0  0  0  0  0  1  0  0  0  0  0  0
  187.3730  177.1290  145.3250 C   0  0  0  0  0  2  0  0  0  0  0  0
  187.6130  178.2260  143.0190 C   0  0  1  0  0  3  0  0  0  0  0  0
  189.7660  176.5070  144.6310 C   0  0  0  0  0  2  0  0  0  0  0  0
  186.7840  177.2970  143.9150 C   0  0  0  0  0  2  0  0  0  0  0  0
  188.8640  177.5500  142.4300 C   0  0  1  0  0  3  0  0  0  0  0  0
  189.9870  178.5650  142.2870 C   0  0  0  0  0  1  0  0  0  0  0  0
  188.8680  177.4500  145.4340 C   0  0  2  0  0  3  0  0  0  0  0  0
  182.1500  177.2670  137.6710 C   0  0  0  0  0  2  0  0  0  0  0  0
  181.8780  175.9030  137.5410 O   0  0  0  0  0  1  0  0  0  0  0  0
  1  3  1  0  0  0  0
  2  7  1  0  0  0  0
  2  4  1  1  0  0  0
  3 18  2  0  0  0  0
  4 10  1  0  0  0  0
  4  1  2  0  0  0  0
  5 11  1  1  0  0  0
  5 17  1  0  0  0  0
  5  2  1  0  0  0  0
  6 20  1  0  0  0  0
  7 16  1  6  0  0  0
  7 14  1  0  0  0  0
  8  9  2  0  0  0  0
  9 11  1  0  0  0  0
  9 16  1  0  0  0  0
 10 13  2  0  0  0  0
 12 10  1  0  0  0  0
 13 18  1  0  0  0  0
 14 15  1  0  0  0  0
 15  1  1  0  0  0  0
 17 31  1  6  0  0  0
 17 12  1  0  0  0  0
 19  8  1  0  0  0  0
 19  6  2  0  0  0  0
 20 16  2  0  0  0  0
 21 23  1  6  0  0  0
 21 26  1  0  0  0  0
 24 30  1  0  0  0  0
 25 15  1  6  0  0  0
 25 27  1  0  0  0  0
 26 30  1  0  0  0  0
 27 24  1  0  0  0  0
 28 29  1  1  0  0  0
 28 25  1  0  0  0  0
 28 21  1  0  0  0  0
 30 22  1  1  0  0  0
 32 31  1  0  0  0  0
M  END
>  <MODEL>
8

>  <REMARK>
 VINA RESULT:      -7.8      1.889      7.692
  Name = 
  2 active torsions:
  status: ('A' for Active; 'I' for Inactive)
    1  A    between atoms: C_13  and  C_29
    2  A    between atoms: C_16  and  N_27
                            x       y       z     vdW  Elec       q    Type
                         _______ _______ _______ _____ _____    ______ ____

>  <TORSDO>
F 2

$$$$
=
 OpenBabel10262421143D

 32 37  0  0  1  0  0  0  0  0999 V2000
  189.7990  177.8490  139.4450 C   0  0  0  0  0  0  0  0  0  0  0  0
  189.0370  178.1640  141.7950 C   0  0  2  0  0  3  0  0  0  0  0  0
  190.7410  177.5160  138.5190 N   0  0  0  0  0  0  0  0  0  0  0  0
  190.1110  177.8050  140.8070 C   0  0  0  0  0  0  0  0  0  0  0  0
  189.2320  177.6220  143.2420 C   0  0  1  0  0  3  0  0  0  0  0  0
  184.4020  179.1240  142.7170 C   0  0  0  0  0  3  0  0  0  0  0  0
  187.6600  177.9060  141.1570 C   0  0  2  0  0  3  0  0  0  0  0  0
  185.7250  177.9940  144.4050 C   0  0  0  0  0  3  0  0  0  0  0  0
  186.7320  177.7660  143.4640 C   0  0  0  0  0  0  0  0  0  0  0  0
  191.3810  177.3900  141.2130 C   0  0  0  0  0  0  0  0  0  0  0  0
  187.9610  176.9900  143.8390 C   0  0  0  0  0  2  0  0  0  0  0  0
  191.6870  177.2590  142.6710 C   0  0  0  0  0  2  0  0  0  0  0  0
  192.3420  177.0780  140.2490 C   0  0  0  0  0  3  0  0  0  0  0  0
  187.5770  178.6800  139.9800 O   0  0  0  0  0  0  0  0  0  0  0  0
  188.4280  178.0990  139.0760 N   0  0  0  0  0  0  0  0  0  0  0  0
  186.5750  178.2190  142.1420 C   0  0  0  0  0  0  0  0  0  0  0  0
  190.4630  176.7110  143.4150 C   0  0  1  0  0  3  0  0  0  0  0  0
  192.0000  177.1530  138.8930 C   0  0  0  0  0  3  0  0  0  0  0  0
  184.5630  178.6790  144.0340 C   0  0  0  0  0  3  0  0  0  0  0  0
  185.4020  178.8890  141.7690 C   0  0  0  0  0  3  0  0  0  0  0  0
  188.9340  176.2520  135.8450 C   0  0  1  0  0  3  0  0  0  0  0  0
  185.4060  176.7080  134.5940 O   0  0  0  0  0  1  0  0  0  0  0  0
  189.8750  175.2710  135.5330 O   0  0  0  0  0  1  0  0  0  0  0  0
  186.7730  178.3510  135.6670 C   0  0  0  0  0  2  0  0  0  0  0  0
  187.9000  177.5570  137.8300 C   0  0  1  0  0  3  0  0  0  0  0  0
  187.6470  176.0170  135.0450 C   0  0  0  0  0  2  0  0  0  0  0  0
  187.7900  178.6650  136.7760 C   0  0  0  0  0  2  0  0  0  0  0  0
  188.7510  176.3590  137.3710 C   0  0  1  0  0  3  0  0  0  0  0  0
  188.2090  175.0720  137.9730 C   0  0  0  0  0  1  0  0  0  0  0  0
  186.4530  176.8610  135.4990 C   0  0  2  0  0  3  0  0  0  0  0  0
  190.8000  176.4970  144.8890 C   0  0  0  0  0  2  0  0  0  0  0  0
  191.6860  177.4780  145.3430 O   0  0  0  0  0  1  0  0  0  0  0  0
  1  4  1  0  0  0  0
  2  4  1  6  0  0  0
  2  5  1  0  0  0  0
  3 18  1  0  0  0  0
  3  1  2  0  0  0  0
  4 10  2  0  0  0  0
  5 17  1  0  0  0  0
  5 11  1  6  0  0  0
  6 19  1  0  0  0  0
  7 14  1  6  0  0  0
  7  2  1  0  0  0  0
  7 16  1  0  0  0  0
  9 11  1  0  0  0  0
  9  8  1  0  0  0  0
 10 12  1  0  0  0  0
 12 17  1  0  0  0  0
 13 10  1  0  0  0  0
 15  1  1  0  0  0  0
 15 14  1  0  0  0  0
 16  9  2  0  0  0  0
 17 31  1  1  0  0  0
 18 13  2  0  0  0  0
 19  8  2  0  0  0  0
 20 16  1  0  0  0  0
 20  6  2  0  0  0  0
 21 23  1  1  0  0  0
 21 28  1  0  0  0  0
 24 27  1  0  0  0  0
 25 27  1  6  0  0  0
 25 15  1  0  0  0  0
 26 30  1  0  0  0  0
 26 21  1  0  0  0  0
 28 25  1  0  0  0  0
 28 29  1  6  0  0  0
 30 22  1  6  0  0  0
 30 24  1  0  0  0  0
 31 32  1  0  0  0  0
M  END
>  <MODEL>
9

>  <REMARK>
 VINA RESULT:      -7.6      3.186      4.973
  Name = 
  2 active torsions:
  status: ('A' for Active; 'I' for Inactive)
    1  A    between atoms: C_13  and  C_29
    2  A    between atoms: C_16  and  N_27
                            x       y       z     vdW  Elec       q    Type
                         _______ _______ _______ _____ _____    ______ ____

>  <TORSDO>
F 2

$$$$
