=
 OpenBabel10262421093D

 32 37  0  0  1  0  0  0  0  0999 V2000
  185.9560  178.4860  139.3650 C   0  0  0  0  0  0  0  0  0  0  0  0
  187.4400  178.6180  141.3960 C   0  0  2  0  0  3  0  0  0  0  0  0
  185.8130  178.2710  137.9850 C   0  0  0  0  0  3  0  0  0  0  0  0
  187.2080  178.3000  139.9540 C   0  0  0  0  0  0  0  0  0  0  0  0
  188.1200  177.4070  142.0440 C   0  0  2  0  0  3  0  0  0  0  0  0
  185.0970  178.7840  145.8520 C   0  0  0  0  0  2  0  0  0  0  0  0
  186.1420  179.0470  142.1130 C   0  0  1  0  0  3  0  0  0  0  0  0
  187.2340  177.5240  145.5230 C   0  0  0  0  0  2  0  0  0  0  0  0
  187.0750  177.6200  144.0100 C   0  0  2  0  0  3  0  0  0  0  0  0
  190.5470  176.5320  141.9040 N   0  0  0  0  0  2  0  0  0  0  0  0
  188.2570  177.7110  139.2420 C   0  0  0  0  0  0  0  0  0  0  0  0
  188.3450  177.6680  143.4040 O   0  0  0  0  0  0  0  0  0  0  0  0
  189.4020  177.2220  139.9640 N   0  0  0  0  0  0  0  0  0  0  0  0
  188.1120  177.4790  137.8710 C   0  0  0  0  0  3  0  0  0  0  0  0
  185.0200  178.3780  141.5770 O   0  0  0  0  0  0  0  0  0  0  0  0
  190.5660  176.2180  143.2200 O   0  0  0  0  0  1  0  0  0  0  0  0
  184.8170  178.9030  140.2780 C   0  0  2  0  0  3  0  0  0  0  0  0
  186.2680  178.8820  143.6390 C   0  0  2  0  0  3  0  0  0  0  0  0
  189.3970  177.0970  141.2670 C   0  0  0  0  0  0  0  0  0  0  0  0
  186.8980  177.7850  137.2390 C   0  0  0  0  0  3  0  0  0  0  0  0
  185.8650  177.5130  146.1970 C   0  0  0  0  0  2  0  0  0  0  0  0
  184.9100  178.8970  144.3420 C   0  0  0  0  0  2  0  0  0  0  0  0
  181.4220  178.9790  138.5600 C   0  0  0  0  0  0  0  0  0  0  0  0
  180.6210  179.8690  137.8540 O   0  0  0  0  0  1  0  0  0  0  0  0
  183.4700  178.4810  139.7630 C   0  0  0  0  0  0  0  0  0  0  0  0
  180.9770  177.6730  138.7770 C   0  0  0  0  0  3  0  0  0  0  0  0
  183.0170  177.1690  139.9710 C   0  0  0  0  0  3  0  0  0  0  0  0
  182.6690  179.3860  139.0490 C   0  0  0  0  0  0  0  0  0  0  0  0
  183.1080  180.6880  138.8270 O   0  0  0  0  0  1  0  0  0  0  0  0
  181.7730  176.7590  139.4840 C   0  0  0  0  0  0  0  0  0  0  0  0
  180.0350  175.1220  140.1280 C   0  0  0  0  0  1  0  0  0  0  0  0
  181.3550  175.4460  139.7150 O   0  0  0  0  0  0  0  0  0  0  0  0
  1  4  1  0  0  0  0
  1 17  1  0  0  0  0
  2  4  1  6  0  0  0
  2  5  1  0  0  0  0
  2  7  1  0  0  0  0
  3  1  2  0  0  0  0
  5 19  1  6  0  0  0
  5 12  1  0  0  0  0
  6 21  1  0  0  0  0
  7 15  1  6  0  0  0
  7 18  1  0  0  0  0
  8 21  1  0  0  0  0
  9  8  1  1  0  0  0
 10 16  1  0  0  0  0
 11  4  2  0  0  0  0
 11 13  1  0  0  0  0
 12  9  1  0  0  0  0
 13 19  2  0  0  0  0
 14 11  1  0  0  0  0
 17 25  1  6  0  0  0
 17 15  1  0  0  0  0
 18  9  1  0  0  0  0
 18 22  1  1  0  0  0
 19 10  1  0  0  0  0
 20 14  2  0  0  0  0
 20  3  1  0  0  0  0
 22  6  1  0  0  0  0
 23 26  2  0  0  0  0
 23 28  1  0  0  0  0
 24 23  1  0  0  0  0
 25 27  1  0  0  0  0
 26 30  1  0  0  0  0
 28 25  2  0  0  0  0
 29 28  1  0  0  0  0
 30 32  1  0  0  0  0
 30 27  2  0  0  0  0
 32 31  1  0  0  0  0
M  END
>  <MODEL>
1

>  <REMARK>
 VINA RESULT:      -8.9      0.000      0.000
  Name = 
  2 active torsions:
  status: ('A' for Active; 'I' for Inactive)
    1  A    between atoms: O_15  and  C_26
    2  A    between atoms: C_16  and  C_27
                            x       y       z     vdW  Elec       q    Type
                         _______ _______ _______ _____ _____    ______ ____

>  <TORSDO>
F 2

$$$$
=
 OpenBabel10262421093D

 32 37  0  0  1  0  0  0  0  0999 V2000
  184.7920  178.4240  139.8660 C   0  0  0  0  0  0  0  0  0  0  0  0
  186.5990  178.8760  141.5610 C   0  0  2  0  0  3  0  0  0  0  0  0
  184.4170  178.1900  138.5330 C   0  0  0  0  0  3  0  0  0  0  0  0
  186.1490  178.5220  140.1810 C   0  0  0  0  0  0  0  0  0  0  0  0
  187.6480  177.8450  141.9950 C   0  0  2  0  0  3  0  0  0  0  0  0
  185.2540  178.4820  146.3990 C   0  0  0  0  0  2  0  0  0  0  0  0
  185.4160  178.9960  142.5460 C   0  0  1  0  0  3  0  0  0  0  0  0
  187.5000  177.7390  145.5830 C   0  0  0  0  0  2  0  0  0  0  0  0
  187.0130  177.8050  144.1390 C   0  0  2  0  0  3  0  0  0  0  0  0
  190.1250  177.5420  141.3250 N   0  0  0  0  0  2  0  0  0  0  0  0
  187.1300  178.1890  139.2430 C   0  0  0  0  0  0  0  0  0  0  0  0
  188.0870  178.1430  143.2940 O   0  0  0  0  0  0  0  0  0  0  0  0
  188.4800  177.9680  139.6940 N   0  0  0  0  0  0  0  0  0  0  0  0
  186.7590  177.9380  137.9180 C   0  0  0  0  0  3  0  0  0  0  0  0
  184.3820  178.0950  142.2120 O   0  0  0  0  0  0  0  0  0  0  0  0
  190.4850  177.2320  142.5930 O   0  0  0  0  0  1  0  0  0  0  0  0
  183.8050  178.5680  141.0090 C   0  0  2  0  0  3  0  0  0  0  0  0
  185.8900  178.8550  144.0050 C   0  0  2  0  0  3  0  0  0  0  0  0
  188.7730  177.8360  140.9630 C   0  0  0  0  0  0  0  0  0  0  0  0
  185.4030  177.9670  137.5600 C   0  0  0  0  0  3  0  0  0  0  0  0
  186.3370  177.4150  146.5160 C   0  0  0  0  0  2  0  0  0  0  0  0
  184.7370  178.5590  144.9660 C   0  0  0  0  0  2  0  0  0  0  0  0
  180.1150  177.6390  141.1060 C   0  0  0  0  0  0  0  0  0  0  0  0
  178.9380  178.0710  141.7070 O   0  0  0  0  0  1  0  0  0  0  0  0
  182.5070  177.8550  140.7530 C   0  0  0  0  0  0  0  0  0  0  0  0
  180.0870  176.5420  140.2430 C   0  0  0  0  0  3  0  0  0  0  0  0
  182.4670  176.7550  139.8840 C   0  0  0  0  0  3  0  0  0  0  0  0
  181.3220  178.3000  141.3630 C   0  0  0  0  0  0  0  0  0  0  0  0
  181.3430  179.3950  142.2210 O   0  0  0  0  0  1  0  0  0  0  0  0
  181.2640  176.0930  139.6260 C   0  0  0  0  0  0  0  0  0  0  0  0
  182.1490  174.9040  137.6460 C   0  0  0  0  0  1  0  0  0  0  0  0
  181.2670  175.0000  138.7560 O   0  0  0  0  0  0  0  0  0  0  0  0
  1  4  1  0  0  0  0
  1 17  1  0  0  0  0
  2  4  1  6  0  0  0
  2  5  1  0  0  0  0
  2  7  1  0  0  0  0
  3  1  2  0  0  0  0
  5 19  1  6  0  0  0
  5 12  1  0  0  0  0
  6 21  1  0  0  0  0
  7 15  1  6  0  0  0
  7 18  1  0  0  0  0
  8 21  1  0  0  0  0
  9  8  1  1  0  0  0
 10 16  1  0  0  0  0
 11 13  1  0  0  0  0
 11  4  2  0  0  0  0
 12  9  1  0  0  0  0
 13 19  2  0  0  0  0
 14 11  1  0  0  0  0
 17 25  1  6  0  0  0
 17 15  1  0  0  0  0
 18  9  1  0  0  0  0
 18 22  1  1  0  0  0
 19 10  1  0  0  0  0
 20 14  2  0  0  0  0
 20  3  1  0  0  0  0
 22  6  1  0  0  0  0
 23 28  1  0  0  0  0
 23 24  1  0  0  0  0
 25 28  2  0  0  0  0
 26 23  2  0  0  0  0
 27 25  1  0  0  0  0
 28 29  1  0  0  0  0
 30 27  2  0  0  0  0
 30 26  1  0  0  0  0
 31 32  1  0  0  0  0
 32 30  1  0  0  0  0
M  END
>  <MODEL>
2

>  <REMARK>
 VINA RESULT:      -8.6      1.517      1.751
  Name = 
  2 active torsions:
  status: ('A' for Active; 'I' for Inactive)
    1  A    between atoms: O_15  and  C_26
    2  A    between atoms: C_16  and  C_27
                            x       y       z     vdW  Elec       q    Type
                         _______ _______ _______ _____ _____    ______ ____

>  <TORSDO>
F 2

$$$$
=
 OpenBabel10262421093D

 32 37  0  0  1  0  0  0  0  0999 V2000
  189.9640  177.8630  140.9310 C   0  0  0  0  0  0  0  0  0  0  0  0
  188.1050  178.6540  142.4350 C   0  0  2  0  0  3  0  0  0  0  0  0
  191.2750  177.3820  140.7810 C   0  0  0  0  0  3  0  0  0  0  0  0
  189.4520  178.0450  142.2180 C   0  0  0  0  0  0  0  0  0  0  0  0
  187.3220  177.7420  143.3860 C   0  0  2  0  0  3  0  0  0  0  0  0
  183.5670  179.1210  140.2980 C   0  0  0  0  0  2  0  0  0  0  0  0
  187.3680  178.9270  141.1060 C   0  0  1  0  0  3  0  0  0  0  0  0
  183.8510  178.2880  142.6420 C   0  0  0  0  0  2  0  0  0  0  0  0
  185.3420  178.0800  142.4030 C   0  0  2  0  0  3  0  0  0  0  0  0
  187.5050  177.3740  145.9370 N   0  0  0  0  0  2  0  0  0  0  0  0
  190.1380  177.5670  143.3380 C   0  0  0  0  0  0  0  0  0  0  0  0
  186.0450  178.2800  143.6060 O   0  0  0  0  0  0  0  0  0  0  0  0
  189.4370  177.4600  144.5910 N   0  0  0  0  0  0  0  0  0  0  0  0
  191.4370  177.0720  143.1910 C   0  0  0  0  0  3  0  0  0  0  0  0
  187.6980  177.9580  140.1330 O   0  0  0  0  0  0  0  0  0  0  0  0
  186.1610  177.3080  146.0780 O   0  0  0  0  0  1  0  0  0  0  0  0
  189.0460  178.1920  139.7680 C   0  0  2  0  0  3  0  0  0  0  0  0
  185.8510  179.0640  141.3280 C   0  0  2  0  0  3  0  0  0  0  0  0
  188.1340  177.5690  144.6670 C   0  0  0  0  0  0  0  0  0  0  0  0
  192.0140  177.0060  141.9130 C   0  0  0  0  0  3  0  0  0  0  0  0
  183.0790  178.1150  141.3370 C   0  0  0  0  0  2  0  0  0  0  0  0
  185.0560  178.9240  140.0290 C   0  0  0  0  0  2  0  0  0  0  0  0
  189.5380  177.2790  136.1060 C   0  0  0  0  0  0  0  0  0  0  0  0
  189.3730  177.8500  134.8500 O   0  0  0  0  0  1  0  0  0  0  0  0
  189.3780  177.4170  138.5240 C   0  0  0  0  0  0  0  0  0  0  0  0
  190.0330  175.9780  136.2130 C   0  0  0  0  0  3  0  0  0  0  0  0
  189.8820  176.1110  138.6220 C   0  0  0  0  0  3  0  0  0  0  0  0
  189.2110  178.0030  137.2590 C   0  0  0  0  0  0  0  0  0  0  0  0
  188.7210  179.3010  137.1460 O   0  0  0  0  0  1  0  0  0  0  0  0
  190.2080  175.3860  137.4730 C   0  0  0  0  0  0  0  0  0  0  0  0
  191.2930  173.3720  136.5340 C   0  0  0  0  0  1  0  0  0  0  0  0
  190.7040  174.0870  137.6110 O   0  0  0  0  0  0  0  0  0  0  0  0
  1  4  1  0  0  0  0
  2  4  1  6  0  0  0
  2  5  1  0  0  0  0
  3  1  2  0  0  0  0
  3 20  1  0  0  0  0
  4 11  2  0  0  0  0
  5 12  1  1  0  0  0
  5 19  1  0  0  0  0
  6 21  1  0  0  0  0
  7 15  1  6  0  0  0
  7 18  1  0  0  0  0
  7  2  1  0  0  0  0
  9  8  1  1  0  0  0
  9 12  1  0  0  0  0
 10 16  1  0  0  0  0
 11 13  1  0  0  0  0
 13 19  2  0  0  0  0
 14 11  1  0  0  0  0
 17 25  1  6  0  0  0
 17 15  1  0  0  0  0
 17  1  1  0  0  0  0
 18 22  1  6  0  0  0
 18  9  1  0  0  0  0
 19 10  1  0  0  0  0
 20 14  2  0  0  0  0
 21  8  1  0  0  0  0
 22  6  1  0  0  0  0
 23 26  2  0  0  0  0
 23 28  1  0  0  0  0
 24 23  1  0  0  0  0
 25 27  1  0  0  0  0
 26 30  1  0  0  0  0
 28 25  2  0  0  0  0
 29 28  1  0  0  0  0
 30 32  1  0  0  0  0
 30 27  2  0  0  0  0
 31 32  1  0  0  0  0
M  END
>  <MODEL>
3

>  <REMARK>
 VINA RESULT:      -8.5      3.054      6.028
  Name = 
  2 active torsions:
  status: ('A' for Active; 'I' for Inactive)
    1  A    between atoms: O_15  and  C_26
    2  A    between atoms: C_16  and  C_27
                            x       y       z     vdW  Elec       q    Type
                         _______ _______ _______ _____ _____    ______ ____

>  <TORSDO>
F 2

$$$$
=
 OpenBabel10262421093D

 32 37  0  0  1  0  0  0  0  0999 V2000
  185.9700  178.8140  140.4290 C   0  0  0  0  0  0  0  0  0  0  0  0
  188.4350  178.3050  140.3360 C   0  0  2  0  0  3  0  0  0  0  0  0
  184.7390  178.9560  139.7680 C   0  0  0  0  0  3  0  0  0  0  0  0
  187.0800  178.3700  139.7070 C   0  0  0  0  0  0  0  0  0  0  0  0
  189.0150  176.9130  140.0610 C   0  0  2  0  0  3  0  0  0  0  0  0
  190.7260  177.6020  144.7660 C   0  0  0  0  0  2  0  0  0  0  0  0
  188.3990  178.6670  141.8360 C   0  0  1  0  0  3  0  0  0  0  0  0
  191.3210  176.2610  142.7370 C   0  0  0  0  0  2  0  0  0  0  0  0
  190.0560  176.7380  142.0330 C   0  0  2  0  0  3  0  0  0  0  0  0
  190.0190  175.8710  137.9200 N   0  0  0  0  0  2  0  0  0  0  0  0
  186.9420  177.8760  138.4080 C   0  0  0  0  0  0  0  0  0  0  0  0
  190.2860  176.8120  140.6470 O   0  0  0  0  0  0  0  0  0  0  0  0
  188.0230  177.1190  137.8310 N   0  0  0  0  0  0  0  0  0  0  0  0
  185.7140  178.0000  137.7510 C   0  0  0  0  0  3  0  0  0  0  0  0
  187.1840  178.2590  142.4290 O   0  0  0  0  0  0  0  0  0  0  0  0
  190.9950  175.2450  138.6180 O   0  0  0  0  0  1  0  0  0  0  0  0
  186.1740  179.1020  141.9050 C   0  0  2  0  0  3  0  0  0  0  0  0
  189.6390  178.1240  142.5700 C   0  0  2  0  0  3  0  0  0  0  0  0
  189.0230  176.6810  138.5520 C   0  0  0  0  0  0  0  0  0  0  0  0
  184.6200  178.5660  138.4240 C   0  0  0  0  0  3  0  0  0  0  0  0
  191.1000  176.2170  144.2470 C   0  0  0  0  0  2  0  0  0  0  0  0
  189.4520  178.0960  144.0880 C   0  0  0  0  0  2  0  0  0  0  0  0
  183.7860  178.8220  144.8560 C   0  0  0  0  0  0  0  0  0  0  0  0
  183.8280  178.8220  146.2450 O   0  0  0  0  0  1  0  0  0  0  0  0
  184.9150  178.9480  142.7100 C   0  0  0  0  0  0  0  0  0  0  0  0
  182.5590  178.6950  144.2030 C   0  0  0  0  0  3  0  0  0  0  0  0
  183.6760  178.8250  142.0630 C   0  0  0  0  0  3  0  0  0  0  0  0
  184.9660  178.9500  144.1140 C   0  0  0  0  0  0  0  0  0  0  0  0
  186.1870  179.0800  144.7710 O   0  0  0  0  0  1  0  0  0  0  0  0
  182.4960  178.6960  142.8000 C   0  0  0  0  0  0  0  0  0  0  0  0
  181.1040  179.0210  140.7820 C   0  0  0  0  0  1  0  0  0  0  0  0
  181.2830  178.5740  142.1190 O   0  0  0  0  0  0  0  0  0  0  0  0
  1 17  1  0  0  0  0
  2  4  1  1  0  0  0
  2  7  1  0  0  0  0
  3  1  1  0  0  0  0
  4  1  2  0  0  0  0
  5 19  1  6  0  0  0
  5  2  1  0  0  0  0
  5 12  1  0  0  0  0
  7 15  1  1  0  0  0
  7 18  1  0  0  0  0
  8 21  1  0  0  0  0
  9 18  1  0  0  0  0
  9  8  1  1  0  0  0
 10 19  1  0  0  0  0
 10 16  1  0  0  0  0
 11  4  1  0  0  0  0
 12  9  1  0  0  0  0
 13 11  1  0  0  0  0
 13 19  2  0  0  0  0
 14 11  2  0  0  0  0
 14 20  1  0  0  0  0
 17 15  1  0  0  0  0
 17 25  1  1  0  0  0
 18 22  1  1  0  0  0
 20  3  2  0  0  0  0
 21  6  1  0  0  0  0
 22  6  1  0  0  0  0
 23 24  1  0  0  0  0
 25 28  1  0  0  0  0
 26 23  1  0  0  0  0
 27 25  2  0  0  0  0
 27 30  1  0  0  0  0
 28 29  1  0  0  0  0
 28 23  2  0  0  0  0
 30 26  2  0  0  0  0
 31 32  1  0  0  0  0
 32 30  1  0  0  0  0
M  END
>  <MODEL>
4

>  <REMARK>
 VINA RESULT:      -8.4      2.346      4.166
  Name = 
  2 active torsions:
  status: ('A' for Active; 'I' for Inactive)
    1  A    between atoms: O_15  and  C_26
    2  A    between atoms: C_16  and  C_27
                            x       y       z     vdW  Elec       q    Type
                         _______ _______ _______ _____ _____    ______ ____

>  <TORSDO>
F 2

$$$$
=
 OpenBabel10262421093D

 32 37  0  0  1  0  0  0  0  0999 V2000
  186.4380  178.3510  139.0720 C   0  0  0  0  0  0  0  0  0  0  0  0
  187.4750  178.6280  141.3500 C   0  0  2  0  0  3  0  0  0  0  0  0
  186.5820  178.0550  137.7070 C   0  0  0  0  0  3  0  0  0  0  0  0
  187.5450  178.2230  139.9130 C   0  0  0  0  0  0  0  0  0  0  0  0
  188.0180  177.4700  142.1940 C   0  0  2  0  0  3  0  0  0  0  0  0
  184.2700  179.0030  145.2180 C   0  0  0  0  0  2  0  0  0  0  0  0
  186.0540  179.0710  141.7620 C   0  0  1  0  0  3  0  0  0  0  0  0
  186.4390  177.7670  145.4070 C   0  0  0  0  0  2  0  0  0  0  0  0
  186.5920  177.7740  143.8900 C   0  0  2  0  0  3  0  0  0  0  0  0
  190.4290  176.6370  142.6040 N   0  0  0  0  0  2  0  0  0  0  0  0
  188.7220  177.6160  139.4660 C   0  0  0  0  0  0  0  0  0  0  0  0
  187.9580  177.8130  143.5530 O   0  0  0  0  0  0  0  0  0  0  0  0
  189.6990  177.1920  140.4340 N   0  0  0  0  0  0  0  0  0  0  0  0
  188.8620  177.3030  138.1110 C   0  0  0  0  0  3  0  0  0  0  0  0
  185.0710  178.3510  141.0490 O   0  0  0  0  0  0  0  0  0  0  0  0
  190.1810  176.3980  143.9130 O   0  0  0  0  0  1  0  0  0  0  0  0
  185.1340  178.7970  139.7070 C   0  0  2  0  0  3  0  0  0  0  0  0
  185.8680  178.9970  143.2880 C   0  0  2  0  0  3  0  0  0  0  0  0
  189.4290  177.1410  141.7140 C   0  0  0  0  0  0  0  0  0  0  0  0
  187.8000  177.5490  137.2270 C   0  0  0  0  0  3  0  0  0  0  0  0
  184.9610  177.7680  145.7890 C   0  0  0  0  0  2  0  0  0  0  0  0
  184.3950  179.0250  143.6980 C   0  0  0  0  0  2  0  0  0  0  0  0
  181.8310  178.7820  137.8150 C   0  0  0  0  0  0  0  0  0  0  0  0
  180.8590  179.6800  137.3920 O   0  0  0  0  0  1  0  0  0  0  0  0
  183.9240  178.3190  138.9550 C   0  0  0  0  0  0  0  0  0  0  0  0
  181.6900  177.4240  137.5230 C   0  0  0  0  0  3  0  0  0  0  0  0
  183.7760  176.9570  138.6520 C   0  0  0  0  0  3  0  0  0  0  0  0
  182.9480  179.2340  138.5290 C   0  0  0  0  0  0  0  0  0  0  0  0
  183.0840  180.5900  138.8140 O   0  0  0  0  0  1  0  0  0  0  0  0
  182.6630  176.5020  137.9400 C   0  0  0  0  0  0  0  0  0  0  0  0
  183.6750  174.2710  137.6020 C   0  0  0  0  0  1  0  0  0  0  0  0
  182.5500  175.1380  137.6610 O   0  0  0  0  0  0  0  0  0  0  0  0
  1 17  1  0  0  0  0
  1  4  1  0  0  0  0
  2  4  1  6  0  0  0
  2  7  1  0  0  0  0
  2  5  1  0  0  0  0
  3  1  2  0  0  0  0
  5 19  1  6  0  0  0
  5 12  1  0  0  0  0
  6 21  1  0  0  0  0
  7 15  1  6  0  0  0
  7 18  1  0  0  0  0
  8 21  1  0  0  0  0
  9  8  1  1  0  0  0
 10 16  1  0  0  0  0
 11  4  2  0  0  0  0
 11 13  1  0  0  0  0
 12  9  1  0  0  0  0
 13 19  2  0  0  0  0
 14 11  1  0  0  0  0
 17 25  1  6  0  0  0
 17 15  1  0  0  0  0
 18 22  1  6  0  0  0
 18  9  1  0  0  0  0
 19 10  1  0  0  0  0
 20  3  1  0  0  0  0
 20 14  2  0  0  0  0
 22  6  1  0  0  0  0
 23 28  1  0  0  0  0
 24 23  1  0  0  0  0
 26 23  2  0  0  0  0
 26 30  1  0  0  0  0
 27 25  1  0  0  0  0
 28 29  1  0  0  0  0
 28 25  2  0  0  0  0
 30 27  2  0  0  0  0
 31 32  1  0  0  0  0
 32 30  1  0  0  0  0
M  END
>  <MODEL>
5

>  <REMARK>
 VINA RESULT:      -8.2      1.098      1.200
  Name = 
  2 active torsions:
  status: ('A' for Active; 'I' for Inactive)
    1  A    between atoms: O_15  and  C_26
    2  A    between atoms: C_16  and  C_27
                            x       y       z     vdW  Elec       q    Type
                         _______ _______ _______ _____ _____    ______ ____

>  <TORSDO>
F 2

$$$$
=
 OpenBabel10262421093D

 32 37  0  0  1  0  0  0  0  0999 V2000
  187.1840  178.5610  140.7720 C   0  0  0  0  0  0  0  0  0  0  0  0
  187.8890  177.9800  138.4250 C   0  0  2  0  0  3  0  0  0  0  0  0
  186.1910  179.0020  141.6620 C   0  0  0  0  0  3  0  0  0  0  0  0
  186.8480  178.3440  139.4340 C   0  0  0  0  0  0  0  0  0  0  0  0
  187.3930  176.7490  137.6590 C   0  0  2  0  0  3  0  0  0  0  0  0
  192.3060  175.6050  137.9560 C   0  0  0  0  0  2  0  0  0  0  0  0
  189.2790  177.7810  139.0680 C   0  0  1  0  0  3  0  0  0  0  0  0
  190.3410  175.0500  136.5080 C   0  0  0  0  0  2  0  0  0  0  0  0
  189.4150  175.8190  137.4440 C   0  0  2  0  0  3  0  0  0  0  0  0
  185.5970  176.4900  135.8190 N   0  0  0  0  0  2  0  0  0  0  0  0
  185.5150  178.3580  139.0170 C   0  0  0  0  0  0  0  0  0  0  0  0
  188.3520  176.3720  136.7070 O   0  0  0  0  0  0  0  0  0  0  0  0
  185.1800  177.7980  137.7330 N   0  0  0  0  0  0  0  0  0  0  0  0
  184.5200  178.7790  139.9050 C   0  0  0  0  0  3  0  0  0  0  0  0
  189.1650  177.2580  140.3740 O   0  0  0  0  0  0  0  0  0  0  0  0
  186.3520  175.6000  135.1330 O   0  0  0  0  0  1  0  0  0  0  0  0
  188.6210  178.2890  141.1780 C   0  0  2  0  0  3  0  0  0  0  0  0
  190.1960  176.9420  138.1600 C   0  0  2  0  0  3  0  0  0  0  0  0
  186.0310  177.0740  137.0510 C   0  0  0  0  0  0  0  0  0  0  0  0
  184.8650  179.1270  141.2200 C   0  0  0  0  0  3  0  0  0  0  0  0
  191.5230  174.4790  137.2870 C   0  0  0  0  0  2  0  0  0  0  0  0
  191.4050  176.3820  138.9120 C   0  0  0  0  0  2  0  0  0  0  0  0
  190.1490  177.5470  144.5840 C   0  0  0  0  0  0  0  0  0  0  0  0
  191.4010  177.4840  145.1830 O   0  0  0  0  0  1  0  0  0  0  0  0
  188.7600  177.9280  142.6300 C   0  0  0  0  0  0  0  0  0  0  0  0
  189.0070  177.2900  145.3450 C   0  0  0  0  0  3  0  0  0  0  0  0
  187.6180  177.6730  143.4040 C   0  0  0  0  0  3  0  0  0  0  0  0
  190.0300  177.8690  143.2270 C   0  0  0  0  0  0  0  0  0  0  0  0
  191.1720  178.1280  142.4740 O   0  0  0  0  0  1  0  0  0  0  0  0
  187.7330  177.3510  144.7590 C   0  0  0  0  0  0  0  0  0  0  0  0
  186.0920  177.9890  146.4960 C   0  0  0  0  0  1  0  0  0  0  0  0
  186.5730  177.1010  145.4960 O   0  0  0  0  0  0  0  0  0  0  0  0
  1 17  1  0  0  0  0
  1  3  1  0  0  0  0
  2  7  1  0  0  0  0
  2  4  1  1  0  0  0
  4  1  2  0  0  0  0
  5 12  1  6  0  0  0
  5  2  1  0  0  0  0
  6 22  1  0  0  0  0
  7 15  1  1  0  0  0
  8 21  1  0  0  0  0
  9  8  1  6  0  0  0
  9 18  1  0  0  0  0
 10 19  1  0  0  0  0
 11  4  1  0  0  0  0
 11 14  2  0  0  0  0
 12  9  1  0  0  0  0
 13 11  1  0  0  0  0
 14 20  1  0  0  0  0
 15 17  1  0  0  0  0
 16 10  1  0  0  0  0
 17 25  1  1  0  0  0
 18 22  1  1  0  0  0
 18  7  1  0  0  0  0
 19  5  1  0  0  0  0
 19 13  2  0  0  0  0
 20  3  2  0  0  0  0
 21  6  1  0  0  0  0
 23 24  1  0  0  0  0
 23 26  1  0  0  0  0
 25 28  1  0  0  0  0
 25 27  2  0  0  0  0
 27 30  1  0  0  0  0
 28 23  2  0  0  0  0
 29 28  1  0  0  0  0
 30 26  2  0  0  0  0
 30 32  1  0  0  0  0
 32 31  1  0  0  0  0
M  END
>  <MODEL>
6

>  <REMARK>
 VINA RESULT:      -8.2      3.366      7.409
  Name = 
  2 active torsions:
  status: ('A' for Active; 'I' for Inactive)
    1  A    between atoms: O_15  and  C_26
    2  A    between atoms: C_16  and  C_27
                            x       y       z     vdW  Elec       q    Type
                         _______ _______ _______ _____ _____    ______ ____

>  <TORSDO>
F 2

$$$$
=
 OpenBabel10262421093D

 32 37  0  0  1  0  0  0  0  0999 V2000
  184.9710  178.9470  142.8780 C   0  0  0  0  0  0  0  0  0  0  0  0
  183.6480  179.0710  140.7380 C   0  0  2  0  0  3  0  0  0  0  0  0
  185.0060  178.9930  144.2810 C   0  0  0  0  0  3  0  0  0  0  0  0
  183.7360  179.0070  142.2290 C   0  0  0  0  0  0  0  0  0  0  0  0
  182.6580  177.9960  140.2770 C   0  0  2  0  0  3  0  0  0  0  0  0
  186.0550  177.6300  136.5540 C   0  0  0  0  0  2  0  0  0  0  0  0
  185.0340  178.9520  140.0680 C   0  0  1  0  0  3  0  0  0  0  0  0
  183.6320  177.1280  136.9300 C   0  0  0  0  0  2  0  0  0  0  0  0
  183.7710  177.4880  138.4050 C   0  0  2  0  0  3  0  0  0  0  0  0
  180.0770  177.8980  140.3680 N   0  0  0  0  0  2  0  0  0  0  0  0
  182.5410  178.9030  142.9460 C   0  0  0  0  0  0  0  0  0  0  0  0
  182.5580  178.0210  138.8780 O   0  0  0  0  0  0  0  0  0  0  0  0
  181.3220  178.6210  142.2330 N   0  0  0  0  0  0  0  0  0  0  0  0
  182.5720  178.9300  144.3440 C   0  0  0  0  0  3  0  0  0  0  0  0
  185.8920  178.1190  140.8180 O   0  0  0  0  0  0  0  0  0  0  0  0
  180.0020  177.3340  139.1400 O   0  0  0  0  0  1  0  0  0  0  0  0
  186.2060  178.8230  142.0060 C   0  0  2  0  0  3  0  0  0  0  0  0
  184.9060  178.5170  138.5970 C   0  0  2  0  0  3  0  0  0  0  0  0
  181.3250  178.2310  140.9830 C   0  0  0  0  0  0  0  0  0  0  0  0
  183.8060  179.0030  145.0090 C   0  0  0  0  0  3  0  0  0  0  0  0
  184.9540  176.5870  136.3920 C   0  0  0  0  0  2  0  0  0  0  0  0
  186.2260  177.9970  138.0250 C   0  0  0  0  0  2  0  0  0  0  0  0
  189.6200  177.2860  142.6890 C   0  0  0  0  0  0  0  0  0  0  0  0
  190.8100  177.0290  142.0190 O   0  0  0  0  0  1  0  0  0  0  0  0
  187.3520  178.1510  142.7070 C   0  0  0  0  0  0  0  0  0  0  0  0
  189.4950  176.9310  144.0340 C   0  0  0  0  0  3  0  0  0  0  0  0
  187.2380  177.7960  144.0600 C   0  0  0  0  0  3  0  0  0  0  0  0
  188.5520  177.8980  142.0230 C   0  0  0  0  0  0  0  0  0  0  0  0
  188.6840  178.2530  140.6830 O   0  0  0  0  0  1  0  0  0  0  0  0
  188.3020  177.1840  144.7280 C   0  0  0  0  0  0  0  0  0  0  0  0
  189.1370  177.1280  147.0550 C   0  0  0  0  0  1  0  0  0  0  0  0
  188.1490  176.8430  146.0740 O   0  0  0  0  0  0  0  0  0  0  0  0
  1  3  1  0  0  0  0
  2  4  1  1  0  0  0
  3 20  2  0  0  0  0
  4  1  2  0  0  0  0
  4 11  1  0  0  0  0
  5 12  1  6  0  0  0
  5  2  1  0  0  0  0
  5 19  1  0  0  0  0
  6 22  1  0  0  0  0
  7  2  1  0  0  0  0
  7 15  1  1  0  0  0
  9  8  1  6  0  0  0
  9 18  1  0  0  0  0
  9 12  1  0  0  0  0
 10 19  1  0  0  0  0
 11 14  2  0  0  0  0
 13 11  1  0  0  0  0
 14 20  1  0  0  0  0
 15 17  1  0  0  0  0
 16 10  1  0  0  0  0
 17 25  1  1  0  0  0
 17  1  1  0  0  0  0
 18 22  1  1  0  0  0
 18  7  1  0  0  0  0
 19 13  2  0  0  0  0
 21  6  1  0  0  0  0
 21  8  1  0  0  0  0
 23 26  1  0  0  0  0
 24 23  1  0  0  0  0
 25 27  2  0  0  0  0
 26 30  2  0  0  0  0
 27 30  1  0  0  0  0
 28 23  2  0  0  0  0
 28 25  1  0  0  0  0
 29 28  1  0  0  0  0
 30 32  1  0  0  0  0
 32 31  1  0  0  0  0
M  END
>  <MODEL>
7

>  <REMARK>
 VINA RESULT:      -8.0      2.853      7.713
  Name = 
  2 active torsions:
  status: ('A' for Active; 'I' for Inactive)
    1  A    between atoms: O_15  and  C_26
    2  A    between atoms: C_16  and  C_27
                            x       y       z     vdW  Elec       q    Type
                         _______ _______ _______ _____ _____    ______ ____

>  <TORSDO>
F 2

$$$$
=
 OpenBabel10262421093D

 32 37  0  0  1  0  0  0  0  0999 V2000
  187.3230  178.2010  139.9790 C   0  0  0  0  0  0  0  0  0  0  0  0
  185.2250  179.2070  140.9430 C   0  0  2  0  0  3  0  0  0  0  0  0
  188.6340  177.7310  140.1640 C   0  0  0  0  0  3  0  0  0  0  0  0
  186.5820  178.5990  141.0940 C   0  0  0  0  0  0  0  0  0  0  0  0
  184.2680  178.4630  141.8810 C   0  0  2  0  0  3  0  0  0  0  0  0
  181.1720  179.1790  137.9520 C   0  0  0  0  0  2  0  0  0  0  0  0
  184.7530  179.2200  139.4730 C   0  0  1  0  0  3  0  0  0  0  0  0
  181.0030  178.7870  140.4180 C   0  0  0  0  0  2  0  0  0  0  0  0
  182.5110  178.5740  140.5030 C   0  0  2  0  0  3  0  0  0  0  0  0
  183.9670  178.5640  144.4460 N   0  0  0  0  0  2  0  0  0  0  0  0
  187.0410  178.3470  142.3900 C   0  0  0  0  0  0  0  0  0  0  0  0
  182.9790  179.0030  141.7590 O   0  0  0  0  0  0  0  0  0  0  0  0
  186.1170  178.4500  143.4890 N   0  0  0  0  0  0  0  0  0  0  0  0
  188.3390  177.8620  142.5780 C   0  0  0  0  0  3  0  0  0  0  0  0
  185.2480  178.1000  138.7700 O   0  0  0  0  0  0  0  0  0  0  0  0
  182.6190  178.4930  144.3440 O   0  0  0  0  0  1  0  0  0  0  0  0
  186.6430  178.2950  138.6260 C   0  0  2  0  0  3  0  0  0  0  0  0
  183.2220  179.3600  139.3810 C   0  0  2  0  0  3  0  0  0  0  0  0
  184.8250  178.5410  143.3010 C   0  0  0  0  0  0  0  0  0  0  0  0
  189.1440  177.5810  141.4630 C   0  0  0  0  0  3  0  0  0  0  0  0
  180.4870  178.3660  139.0460 C   0  0  0  0  0  2  0  0  0  0  0  0
  182.6830  178.9710  138.0040 C   0  0  0  0  0  2  0  0  0  0  0  0
  188.7630  176.7680  135.8590 C   0  0  0  0  0  0  0  0  0  0  0  0
  189.8050  177.1280  135.0130 O   0  0  0  0  0  1  0  0  0  0  0  0
  187.1920  177.3170  137.6260 C   0  0  0  0  0  0  0  0  0  0  0  0
  188.2340  175.4780  135.7900 C   0  0  0  0  0  3  0  0  0  0  0  0
  186.6710  176.0170  137.5530 C   0  0  0  0  0  3  0  0  0  0  0  0
  188.2470  177.6900  136.7770 C   0  0  0  0  0  0  0  0  0  0  0  0
  188.7810  178.9740  136.8430 O   0  0  0  0  0  1  0  0  0  0  0  0
  187.1830  175.0940  136.6380 C   0  0  0  0  0  0  0  0  0  0  0  0
  185.7540  173.3160  137.5930 C   0  0  0  0  0  1  0  0  0  0  0  0
  186.6350  173.8100  136.5930 O   0  0  0  0  0  0  0  0  0  0  0  0
  1  3  2  0  0  0  0
  1  4  1  0  0  0  0
  2  4  1  6  0  0  0
  2  5  1  0  0  0  0
  3 20  1  0  0  0  0
  4 11  2  0  0  0  0
  5 12  1  1  0  0  0
  5 19  1  0  0  0  0
  6 22  1  0  0  0  0
  6 21  1  0  0  0  0
  7 15  1  1  0  0  0
  7  2  1  0  0  0  0
  9  8  1  1  0  0  0
  9 12  1  0  0  0  0
 11 14  1  0  0  0  0
 11 13  1  0  0  0  0
 16 10  1  0  0  0  0
 17 25  1  6  0  0  0
 17 15  1  0  0  0  0
 17  1  1  0  0  0  0
 18 22  1  6  0  0  0
 18  7  1  0  0  0  0
 18  9  1  0  0  0  0
 19 13  2  0  0  0  0
 19 10  1  0  0  0  0
 20 14  2  0  0  0  0
 21  8  1  0  0  0  0
 23 28  1  0  0  0  0
 24 23  1  0  0  0  0
 26 23  2  0  0  0  0
 26 30  1  0  0  0  0
 27 25  1  0  0  0  0
 28 29  1  0  0  0  0
 28 25  2  0  0  0  0
 30 27  2  0  0  0  0
 32 30  1  0  0  0  0
 32 31  1  0  0  0  0
M  END
>  <MODEL>
8

>  <REMARK>
 VINA RESULT:      -7.5      3.128      5.951
  Name = 
  2 active torsions:
  status: ('A' for Active; 'I' for Inactive)
    1  A    between atoms: O_15  and  C_26
    2  A    between atoms: C_16  and  C_27
                            x       y       z     vdW  Elec       q    Type
                         _______ _______ _______ _____ _____    ______ ____

>  <TORSDO>
F 2

$$$$
=
 OpenBabel10262421093D

 32 37  0  0  1  0  0  0  0  0999 V2000
  185.6450  178.6790  139.2370 C   0  0  0  0  0  0  0  0  0  0  0  0
  186.8710  178.8130  141.4330 C   0  0  2  0  0  3  0  0  0  0  0  0
  185.6650  178.4320  137.8550 C   0  0  0  0  0  3  0  0  0  0  0  0
  186.8070  178.4640  139.9810 C   0  0  0  0  0  0  0  0  0  0  0  0
  187.4200  177.5960  142.1870 C   0  0  2  0  0  3  0  0  0  0  0  0
  184.0030  179.1770  145.5580 C   0  0  0  0  0  2  0  0  0  0  0  0
  185.5110  179.3050  141.9740 C   0  0  1  0  0  3  0  0  0  0  0  0
  186.1160  177.8350  145.5260 C   0  0  0  0  0  2  0  0  0  0  0  0
  186.1490  177.8970  144.0020 C   0  0  2  0  0  3  0  0  0  0  0  0
  189.8110  176.6350  142.3690 N   0  0  0  0  0  2  0  0  0  0  0  0
  187.9130  177.8210  139.4180 C   0  0  0  0  0  0  0  0  0  0  0  0
  187.4840  177.8850  143.5580 O   0  0  0  0  0  0  0  0  0  0  0  0
  188.9410  177.3130  140.2880 N   0  0  0  0  0  0  0  0  0  0  0  0
  187.9300  177.5580  138.0450 C   0  0  0  0  0  3  0  0  0  0  0  0
  184.4390  178.6610  141.3170 O   0  0  0  0  0  0  0  0  0  0  0  0
  189.6550  176.3550  143.6840 O   0  0  0  0  0  1  0  0  0  0  0  0
  184.4190  179.1580  139.9920 C   0  0  2  0  0  3  0  0  0  0  0  0
  185.4420  179.1760  143.5070 C   0  0  2  0  0  3  0  0  0  0  0  0
  188.7710  177.2220  141.5820 C   0  0  0  0  0  0  0  0  0  0  0  0
  186.8150  177.8900  137.2600 C   0  0  0  0  0  3  0  0  0  0  0  0
  184.6750  177.8890  146.0250 C   0  0  0  0  0  2  0  0  0  0  0  0
  184.0090  179.2560  144.0340 C   0  0  0  0  0  2  0  0  0  0  0  0
  181.4270  177.1110  138.8320 C   0  0  0  0  0  0  0  0  0  0  0  0
  180.9300  175.8190  138.9460 O   0  0  0  0  0  1  0  0  0  0  0  0
  183.1310  178.7690  139.3220 C   0  0  0  0  0  0  0  0  0  0  0  0
  180.7120  178.0620  138.1010 C   0  0  0  0  0  3  0  0  0  0  0  0
  182.4030  179.7190  138.5900 C   0  0  0  0  0  3  0  0  0  0  0  0
  182.6360  177.4610  139.4460 C   0  0  0  0  0  0  0  0  0  0  0  0
  183.3410  176.5090  140.1760 O   0  0  0  0  0  1  0  0  0  0  0  0
  181.1970  179.3740  137.9750 C   0  0  0  0  0  0  0  0  0  0  0  0
  180.8540  181.7240  137.2860 C   0  0  0  0  0  1  0  0  0  0  0  0
  180.5030  180.3470  137.2530 O   0  0  0  0  0  0  0  0  0  0  0  0
  1  4  1  0  0  0  0
  1 17  1  0  0  0  0
  2  4  1  6  0  0  0
  2  7  1  0  0  0  0
  2  5  1  0  0  0  0
  3  1  2  0  0  0  0
  5 19  1  6  0  0  0
  5 12  1  0  0  0  0
  6 21  1  0  0  0  0
  7 15  1  6  0  0  0
  7 18  1  0  0  0  0
  8 21  1  0  0  0  0
  9  8  1  1  0  0  0
 10 16  1  0  0  0  0
 11  4  2  0  0  0  0
 11 13  1  0  0  0  0
 12  9  1  0  0  0  0
 13 19  2  0  0  0  0
 14 11  1  0  0  0  0
 17 25  1  6  0  0  0
 17 15  1  0  0  0  0
 18  9  1  0  0  0  0
 18 22  1  6  0  0  0
 19 10  1  0  0  0  0
 20  3  1  0  0  0  0
 20 14  2  0  0  0  0
 22  6  1  0  0  0  0
 23 24  1  0  0  0  0
 23 28  1  0  0  0  0
 25 28  2  0  0  0  0
 26 23  2  0  0  0  0
 27 25  1  0  0  0  0
 28 29  1  0  0  0  0
 30 26  1  0  0  0  0
 30 27  2  0  0  0  0
 32 31  1  0  0  0  0
 32 30  1  0  0  0  0
M  END
>  <MODEL>
9

>  <REMARK>
 VINA RESULT:      -7.4      1.024      2.238
  Name = 
  2 active torsions:
  status: ('A' for Active; 'I' for Inactive)
    1  A    between atoms: O_15  and  C_26
    2  A    between atoms: C_16  and  C_27
                            x       y       z     vdW  Elec       q    Type
                         _______ _______ _______ _____ _____    ______ ____

>  <TORSDO>
F 2

$$$$
