=
 OpenBabel10262419173D

 34 39  0  0  1  0  0  0  0  0999 V2000
  189.9910  177.1680  146.6150 C   0  0  0  0  0  0  0  0  0  0  0  0
  191.4470  175.8920  145.1530 C   0  0  0  0  0  0  0  0  0  0  0  0
  189.4790  177.1950  144.2230 C   0  0  0  0  0  0  0  0  0  0  0  0
  188.8960  177.5790  141.8750 C   0  0  0  0  0  0  0  0  0  0  0  0
  190.8530  176.9200  147.6840 C   0  0  0  0  0  3  0  0  0  0  0  0
  192.3030  175.6600  146.2320 C   0  0  0  0  0  3  0  0  0  0  0  0
  191.2140  177.2130  142.4410 C   0  0  0  0  0  3  0  0  0  0  0  0
  190.3340  176.7690  145.2940 C   0  0  0  0  0  0  0  0  0  0  0  0
  191.5640  177.3180  141.0940 C   0  0  0  0  0  3  0  0  0  0  0  0
  189.2470  177.6680  140.5250 C   0  0  0  0  0  3  0  0  0  0  0  0
  192.0260  176.1960  147.4870 C   0  0  0  0  0  3  0  0  0  0  0  0
  188.1770  177.6640  144.5560 C   0  0  0  0  0  0  0  0  0  0  0  0
  188.7940  177.7470  146.8680 N   0  0  0  0  0  0  0  0  0  0  0  0
  191.6630  175.1480  144.0000 O   0  0  0  0  0  1  0  0  0  0  0  0
  187.6210  177.8480  142.2380 N   0  0  0  0  0  0  0  0  0  0  0  0
  187.2250  177.9110  143.5350 C   0  0  0  0  0  0  0  0  0  0  0  0
  190.5820  177.5240  140.1250 C   0  0  0  0  0  0  0  0  0  0  0  0
  189.8720  177.2820  142.8550 C   0  0  0  0  0  0  0  0  0  0  0  0
  187.8840  177.9600  145.8910 C   0  0  0  0  0  3  0  0  0  0  0  0
  183.5490  178.6300  142.9700 C   0  0  0  0  0  0  0  0  0  0  0  0
  183.0970  178.8550  144.2720 C   0  0  0  0  0  3  0  0  0  0  0  0
  185.8060  178.2670  143.8050 C   0  0  0  0  0  0  0  0  0  0  0  0
  183.9900  178.7790  145.3430 C   0  0  0  0  0  3  0  0  0  0  0  0
  184.8960  178.3320  142.7390 C   0  0  0  0  0  3  0  0  0  0  0  0
  185.3350  178.4820  145.1110 C   0  0  0  0  0  3  0  0  0  0  0  0
  182.6620  178.6980  141.9040 O   0  0  0  0  0  1  0  0  0  0  0  0
  190.9590  177.6020  138.7830 O   0  0  0  0  0  0  0  0  0  0  0  0
  190.3050  176.8630  137.7580 C   0  0  0  0  0  2  0  0  0  0  0  0
  189.3880  179.1190  137.2030 F   0  0  0  0  0  0  0  0  0  0  0  0
  187.2270  175.4480  137.1240 O   0  0  0  0  0  1  0  0  0  0  0  0
  187.5760  177.1010  137.0640 P   0  0  2  0  0  0  0  0  0  0  0  0
  188.8780  177.2980  135.7550 C   0  0  0  0  0  2  0  0  0  0  0  0
  189.2970  177.7480  137.0540 C   0  0  2  0  0  0  0  0  0  0  0  0
  186.4260  177.9950  136.6650 O   0  0  0  0  0  0  0  0  0  0  0  0
  1 13  1  0  0  0  0
  1  5  2  0  0  0  0
  2  8  2  0  0  0  0
  2  6  1  0  0  0  0
  3 12  1  0  0  0  0
  3  8  1  0  0  0  0
  4 15  2  0  0  0  0
  4 18  1  0  0  0  0
  6 11  2  0  0  0  0
  7 18  1  0  0  0  0
  8  1  1  0  0  0  0
  9  7  2  0  0  0  0
 10  4  1  0  0  0  0
 11  5  1  0  0  0  0
 12 19  1  0  0  0  0
 14  2  1  0  0  0  0
 15 16  1  0  0  0  0
 16 22  1  0  0  0  0
 16 12  2  0  0  0  0
 17 10  2  0  0  0  0
 17  9  1  0  0  0  0
 18  3  2  0  0  0  0
 19 13  2  0  0  0  0
 20 21  1  0  0  0  0
 21 23  2  0  0  0  0
 22 25  2  0  0  0  0
 24 20  2  0  0  0  0
 24 22  1  0  0  0  0
 25 23  1  0  0  0  0
 26 20  1  0  0  0  0
 27 17  1  0  0  0  0
 28 27  1  0  0  0  0
 31 34  2  1  0  0  0
 31 30  1  0  0  0  0
 32 33  1  0  0  0  0
 32 31  1  0  0  0  0
 33 31  1  0  0  0  0
 33 29  1  1  0  0  0
 33 28  1  0  0  0  0
M  END
>  <MODEL>
1

>  <REMARK>
 VINA RESULT:     -11.2      0.000      0.000
  Name = 
  4 active torsions:
  status: ('A' for Active; 'I' for Inactive)
    1  A    between atoms: O_3  and  C_13
    2  A    between atoms: O_3  and  C_29
    3  A    between atoms: C_12  and  C_28
    4  A    between atoms: C_13  and  C_33
                            x       y       z     vdW  Elec       q    Type
                         _______ _______ _______ _____ _____    ______ ____

>  <TORSDO>
F 4

$$$$
=
 OpenBabel10262419173D

 34 39  0  0  1  0  0  0  0  0999 V2000
  189.8070  177.2660  146.5070 C   0  0  0  0  0  0  0  0  0  0  0  0
  191.3110  175.9890  145.0940 C   0  0  0  0  0  0  0  0  0  0  0  0
  189.3520  177.2620  144.1040 C   0  0  0  0  0  0  0  0  0  0  0  0
  188.8220  177.6140  141.7380 C   0  0  0  0  0  0  0  0  0  0  0  0
  190.6460  177.0380  147.5990 C   0  0  0  0  0  3  0  0  0  0  0  0
  192.1430  175.7780  146.1970 C   0  0  0  0  0  3  0  0  0  0  0  0
  191.1280  177.2780  142.3640 C   0  0  0  0  0  3  0  0  0  0  0  0
  190.1860  176.8560  145.1990 C   0  0  0  0  0  0  0  0  0  0  0  0
  191.5100  177.3730  141.0240 C   0  0  0  0  0  3  0  0  0  0  0  0
  189.2030  177.6920  140.3960 C   0  0  0  0  0  3  0  0  0  0  0  0
  191.8300  176.3250  147.4380 C   0  0  0  0  0  3  0  0  0  0  0  0
  188.0370  177.7210  144.4000 C   0  0  0  0  0  0  0  0  0  0  0  0
  188.5980  177.8340  146.7260 N   0  0  0  0  0  0  0  0  0  0  0  0
  191.5610  175.2350  143.9560 O   0  0  0  0  0  1  0  0  0  0  0  0
  187.5360  177.8730  142.0690 N   0  0  0  0  0  0  0  0  0  0  0  0
  187.1080  177.9470  143.3550 C   0  0  0  0  0  0  0  0  0  0  0  0
  190.5490  177.5580  140.0300 C   0  0  0  0  0  0  0  0  0  0  0  0
  189.7770  177.3370  142.7450 C   0  0  0  0  0  0  0  0  0  0  0  0
  187.7090  178.0270  145.7250 C   0  0  0  0  0  3  0  0  0  0  0  0
  183.4340  178.5980  142.6990 C   0  0  0  0  0  0  0  0  0  0  0  0
  182.9540  178.8540  143.9850 C   0  0  0  0  0  3  0  0  0  0  0  0
  185.6800  178.2910  143.5870 C   0  0  0  0  0  0  0  0  0  0  0  0
  183.8270  178.8220  145.0740 C   0  0  0  0  0  3  0  0  0  0  0  0
  184.7890  178.3120  142.5030 C   0  0  0  0  0  3  0  0  0  0  0  0
  185.1800  178.5360  144.8770 C   0  0  0  0  0  3  0  0  0  0  0  0
  182.5680  178.6240  141.6150 O   0  0  0  0  0  1  0  0  0  0  0  0
  190.9570  177.6250  138.6970 O   0  0  0  0  0  0  0  0  0  0  0  0
  190.2220  177.0240  137.6380 C   0  0  0  0  0  2  0  0  0  0  0  0
  190.0600  174.5350  137.7620 F   0  0  0  0  0  0  0  0  0  0  0  0
  193.6480  176.7940  137.3490 O   0  0  0  0  0  0  0  0  0  0  0  0
  192.5950  175.4910  137.5690 P   0  0  2  0  0  0  0  0  0  0  0  0
  191.4620  175.4990  136.0960 C   0  0  0  0  0  2  0  0  0  0  0  0
  190.7750  175.6430  137.3500 C   0  0  2  0  0  0  0  0  0  0  0  0
  193.2440  174.1270  137.6030 O   0  0  0  0  0  1  0  0  0  0  0  0
  1 13  1  0  0  0  0
  1  5  2  0  0  0  0
  2  8  2  0  0  0  0
  2  6  1  0  0  0  0
  3 12  1  0  0  0  0
  3  8  1  0  0  0  0
  4 15  2  0  0  0  0
  4 18  1  0  0  0  0
  6 11  2  0  0  0  0
  7 18  1  0  0  0  0
  8  1  1  0  0  0  0
  9  7  2  0  0  0  0
 10  4  1  0  0  0  0
 11  5  1  0  0  0  0
 12 19  1  0  0  0  0
 14  2  1  0  0  0  0
 15 16  1  0  0  0  0
 16 22  1  0  0  0  0
 16 12  2  0  0  0  0
 17 10  2  0  0  0  0
 17  9  1  0  0  0  0
 18  3  2  0  0  0  0
 19 13  2  0  0  0  0
 20 21  1  0  0  0  0
 21 23  2  0  0  0  0
 22 25  2  0  0  0  0
 24 20  2  0  0  0  0
 24 22  1  0  0  0  0
 25 23  1  0  0  0  0
 26 20  1  0  0  0  0
 27 17  1  0  0  0  0
 28 27  1  0  0  0  0
 31 30  2  1  0  0  0
 31 34  1  0  0  0  0
 32 33  1  0  0  0  0
 32 31  1  0  0  0  0
 33 31  1  0  0  0  0
 33 28  1  0  0  0  0
 33 29  1  1  0  0  0
M  END
>  <MODEL>
2

>  <REMARK>
 VINA RESULT:     -11.1      1.751      2.258
  Name = 
  4 active torsions:
  status: ('A' for Active; 'I' for Inactive)
    1  A    between atoms: O_3  and  C_13
    2  A    between atoms: O_3  and  C_29
    3  A    between atoms: C_12  and  C_28
    4  A    between atoms: C_13  and  C_33
                            x       y       z     vdW  Elec       q    Type
                         _______ _______ _______ _____ _____    ______ ____

>  <TORSDO>
F 4

$$$$
=
 OpenBabel10262419173D

 34 39  0  0  1  0  0  0  0  0999 V2000
  185.7650  178.5170  146.1540 C   0  0  0  0  0  0  0  0  0  0  0  0
  187.5090  177.3430  144.9430 C   0  0  0  0  0  0  0  0  0  0  0  0
  185.5070  178.3200  143.7290 C   0  0  0  0  0  0  0  0  0  0  0  0
  185.1310  178.4680  141.3130 C   0  0  0  0  0  0  0  0  0  0  0  0
  186.5350  178.4530  147.3160 C   0  0  0  0  0  3  0  0  0  0  0  0
  188.2700  177.2950  146.1140 C   0  0  0  0  0  3  0  0  0  0  0  0
  187.4030  178.4400  142.1250 C   0  0  0  0  0  3  0  0  0  0  0  0
  186.2900  178.0780  144.9070 C   0  0  0  0  0  0  0  0  0  0  0  0
  187.8770  178.5000  140.8140 C   0  0  0  0  0  3  0  0  0  0  0  0
  185.6070  178.5120  140.0000 C   0  0  0  0  0  3  0  0  0  0  0  0
  187.8000  177.8730  147.2900 C   0  0  0  0  0  3  0  0  0  0  0  0
  184.1300  178.6390  143.8980 C   0  0  0  0  0  0  0  0  0  0  0  0
  184.4870  178.9530  146.2450 N   0  0  0  0  0  0  0  0  0  0  0  0
  187.9320  176.5580  143.8780 O   0  0  0  0  0  1  0  0  0  0  0  0
  183.8020  178.5960  141.5310 N   0  0  0  0  0  0  0  0  0  0  0  0
  183.2670  178.6940  142.7750 C   0  0  0  0  0  0  0  0  0  0  0  0
  186.9840  178.5130  139.7420 C   0  0  0  0  0  0  0  0  0  0  0  0
  186.0270  178.3640  142.4020 C   0  0  0  0  0  0  0  0  0  0  0  0
  183.6650  178.9830  145.1720 C   0  0  0  0  0  3  0  0  0  0  0  0
  179.6850  179.4710  141.8180 C   0  0  0  0  0  0  0  0  0  0  0  0
  179.0020  179.1770  143.0000 C   0  0  0  0  0  3  0  0  0  0  0  0
  181.7960  178.8830  142.8790 C   0  0  0  0  0  0  0  0  0  0  0  0
  179.7060  178.7280  144.1190 C   0  0  0  0  0  3  0  0  0  0  0  0
  181.0740  179.3190  141.7570 C   0  0  0  0  0  3  0  0  0  0  0  0
  181.0940  178.5770  144.0570 C   0  0  0  0  0  3  0  0  0  0  0  0
  178.9860  179.9120  140.7020 O   0  0  0  0  0  1  0  0  0  0  0  0
  187.4870  178.5500  138.4400 O   0  0  0  0  0  0  0  0  0  0  0  0
  188.8360  178.2220  138.1300 C   0  0  0  0  0  2  0  0  0  0  0  0
  187.7970  175.9830  137.7510 F   0  0  0  0  0  0  0  0  0  0  0  0
  191.9600  176.7670  138.2140 O   0  0  0  0  0  1  0  0  0  0  0  0
  190.4970  175.9370  138.0500 P   0  0  2  0  0  0  0  0  0  0  0  0
  189.7260  176.5680  136.4820 C   0  0  0  0  0  2  0  0  0  0  0  0
  188.9160  176.7870  137.6490 C   0  0  2  0  0  0  0  0  0  0  0  0
  190.6120  174.4380  137.8980 O   0  0  0  0  0  0  0  0  0  0  0  0
  1 13  1  0  0  0  0
  1  5  2  0  0  0  0
  2  6  1  0  0  0  0
  3 12  1  0  0  0  0
  3  8  1  0  0  0  0
  4 15  2  0  0  0  0
  4 18  1  0  0  0  0
  6 11  2  0  0  0  0
  7 18  1  0  0  0  0
  8  2  2  0  0  0  0
  8  1  1  0  0  0  0
  9  7  2  0  0  0  0
 10  4  1  0  0  0  0
 11  5  1  0  0  0  0
 12 19  1  0  0  0  0
 14  2  1  0  0  0  0
 15 16  1  0  0  0  0
 16 22  1  0  0  0  0
 16 12  2  0  0  0  0
 17 10  2  0  0  0  0
 17  9  1  0  0  0  0
 18  3  2  0  0  0  0
 19 13  2  0  0  0  0
 20 21  1  0  0  0  0
 21 23  2  0  0  0  0
 22 25  2  0  0  0  0
 24 20  2  0  0  0  0
 24 22  1  0  0  0  0
 25 23  1  0  0  0  0
 26 20  1  0  0  0  0
 27 17  1  0  0  0  0
 28 27  1  0  0  0  0
 31 34  2  1  0  0  0
 31 30  1  0  0  0  0
 32 33  1  0  0  0  0
 32 31  1  0  0  0  0
 33 29  1  1  0  0  0
 33 31  1  0  0  0  0
 33 28  1  0  0  0  0
M  END
>  <MODEL>
3

>  <REMARK>
 VINA RESULT:     -11.1      2.688      4.045
  Name = 
  4 active torsions:
  status: ('A' for Active; 'I' for Inactive)
    1  A    between atoms: O_3  and  C_13
    2  A    between atoms: O_3  and  C_29
    3  A    between atoms: C_12  and  C_28
    4  A    between atoms: C_13  and  C_33
                            x       y       z     vdW  Elec       q    Type
                         _______ _______ _______ _____ _____    ______ ____

>  <TORSDO>
F 4

$$$$
=
 OpenBabel10262419173D

 34 39  0  0  1  0  0  0  0  0999 V2000
  188.5490  177.1580  146.1070 C   0  0  0  0  0  0  0  0  0  0  0  0
  186.8160  178.5830  147.0310 C   0  0  0  0  0  0  0  0  0  0  0  0
  186.8950  178.0650  144.5490 C   0  0  0  0  0  0  0  0  0  0  0  0
  185.2450  178.6410  142.8330 C   0  0  0  0  0  0  0  0  0  0  0  0
  188.9840  176.8560  147.3980 C   0  0  0  0  0  3  0  0  0  0  0  0
  187.2600  178.2640  148.3170 C   0  0  0  0  0  3  0  0  0  0  0  0
  184.4910  178.3630  145.1090 C   0  0  0  0  0  3  0  0  0  0  0  0
  187.3710  177.9270  145.8960 C   0  0  0  0  0  0  0  0  0  0  0  0
  183.1870  178.6760  144.7200 C   0  0  0  0  0  3  0  0  0  0  0  0
  183.9420  178.9690  142.4480 C   0  0  0  0  0  3  0  0  0  0  0  0
  188.3200  177.3810  148.5040 C   0  0  0  0  0  3  0  0  0  0  0  0
  187.7920  177.7500  143.4890 C   0  0  0  0  0  0  0  0  0  0  0  0
  189.3020  176.7520  145.0580 N   0  0  0  0  0  0  0  0  0  0  0  0
  185.9140  179.6320  146.9130 O   0  0  0  0  0  1  0  0  0  0  0  0
  186.1910  178.4950  141.8780 N   0  0  0  0  0  0  0  0  0  0  0  0
  187.4450  178.0520  142.1490 C   0  0  0  0  0  0  0  0  0  0  0  0
  182.9080  179.0030  143.3930 C   0  0  0  0  0  0  0  0  0  0  0  0
  185.5550  178.3950  144.1910 C   0  0  0  0  0  0  0  0  0  0  0  0
  188.9740  177.0630  143.7830 C   0  0  0  0  0  3  0  0  0  0  0  0
  189.0550  178.5150  138.7510 C   0  0  0  0  0  0  0  0  0  0  0  0
  190.1610  177.6660  138.8390 C   0  0  0  0  0  3  0  0  0  0  0  0
  188.3790  177.8850  141.0030 C   0  0  0  0  0  0  0  0  0  0  0  0
  190.3860  176.9330  140.0060 C   0  0  0  0  0  3  0  0  0  0  0  0
  188.1730  178.6280  139.8300 C   0  0  0  0  0  3  0  0  0  0  0  0
  189.5030  177.0460  141.0830 C   0  0  0  0  0  3  0  0  0  0  0  0
  188.8340  179.2500  137.5940 O   0  0  0  0  0  1  0  0  0  0  0  0
  181.5990  179.3340  143.0370 O   0  0  0  0  0  0  0  0  0  0  0  0
  180.6190  178.3540  142.7190 C   0  0  0  0  0  2  0  0  0  0  0  0
  181.2340  177.2830  140.5480 F   0  0  0  0  0  0  0  0  0  0  0  0
  179.6800  181.2190  141.0470 O   0  0  0  0  0  1  0  0  0  0  0  0
  180.3500  179.8420  140.3310 P   0  0  2  0  0  0  0  0  0  0  0  0
  179.1660  178.4560  140.6890 C   0  0  0  0  0  2  0  0  0  0  0  0
  180.4850  178.2350  141.2140 C   0  0  2  0  0  0  0  0  0  0  0  0
  180.5030  179.8980  138.8290 O   0  0  0  0  0  0  0  0  0  0  0  0
  1  5  2  0  0  0  0
  2  6  1  0  0  0  0
  3  8  1  0  0  0  0
  4 18  1  0  0  0  0
  5 11  1  0  0  0  0
  6 11  2  0  0  0  0
  8  1  1  0  0  0  0
  8  2  2  0  0  0  0
  9  7  1  0  0  0  0
 10  4  2  0  0  0  0
 10 17  1  0  0  0  0
 12 19  1  0  0  0  0
 12  3  2  0  0  0  0
 13  1  1  0  0  0  0
 14  2  1  0  0  0  0
 15 16  2  0  0  0  0
 15  4  1  0  0  0  0
 16 12  1  0  0  0  0
 17  9  2  0  0  0  0
 18  3  1  0  0  0  0
 18  7  2  0  0  0  0
 19 13  2  0  0  0  0
 20 21  2  0  0  0  0
 20 24  1  0  0  0  0
 21 23  1  0  0  0  0
 22 25  1  0  0  0  0
 22 16  1  0  0  0  0
 23 25  2  0  0  0  0
 24 22  2  0  0  0  0
 26 20  1  0  0  0  0
 27 17  1  0  0  0  0
 28 27  1  0  0  0  0
 31 34  2  6  0  0  0
 31 32  1  0  0  0  0
 31 30  1  0  0  0  0
 31 33  1  0  0  0  0
 32 33  1  0  0  0  0
 33 29  1  6  0  0  0
 33 28  1  0  0  0  0
M  END
>  <MODEL>
4

>  <REMARK>
 VINA RESULT:     -11.0      3.123      6.734
  Name = 
  4 active torsions:
  status: ('A' for Active; 'I' for Inactive)
    1  A    between atoms: O_3  and  C_13
    2  A    between atoms: O_3  and  C_29
    3  A    between atoms: C_12  and  C_28
    4  A    between atoms: C_13  and  C_33
                            x       y       z     vdW  Elec       q    Type
                         _______ _______ _______ _____ _____    ______ ____

>  <TORSDO>
F 4

$$$$
=
 OpenBabel10262419173D

 34 39  0  0  1  0  0  0  0  0999 V2000
  186.9490  178.5030  147.1410 C   0  0  0  0  0  0  0  0  0  0  0  0
  188.8720  177.2060  146.4290 C   0  0  0  0  0  0  0  0  0  0  0  0
  187.1820  178.0680  144.7450 C   0  0  0  0  0  0  0  0  0  0  0  0
  187.3060  177.9790  142.3000 C   0  0  0  0  0  0  0  0  0  0  0  0
  187.4660  178.5510  148.4360 C   0  0  0  0  0  3  0  0  0  0  0  0
  189.3780  177.2700  147.7300 C   0  0  0  0  0  3  0  0  0  0  0  0
  189.3660  178.0190  143.5570 C   0  0  0  0  0  3  0  0  0  0  0  0
  187.7040  177.9400  146.0750 C   0  0  0  0  0  0  0  0  0  0  0  0
  190.0970  177.9460  142.3700 C   0  0  0  0  0  3  0  0  0  0  0  0
  188.0390  177.8900  141.1130 C   0  0  0  0  0  3  0  0  0  0  0  0
  188.6950  177.9650  148.7240 C   0  0  0  0  0  3  0  0  0  0  0  0
  185.8070  178.4100  144.5980 C   0  0  0  0  0  0  0  0  0  0  0  0
  185.6900  178.9530  146.9280 N   0  0  0  0  0  0  0  0  0  0  0  0
  189.4820  176.3180  145.5530 O   0  0  0  0  0  1  0  0  0  0  0  0
  185.9640  178.1340  142.2290 N   0  0  0  0  0  0  0  0  0  0  0  0
  185.1920  178.3580  143.3230 C   0  0  0  0  0  0  0  0  0  0  0  0
  189.4390  177.8580  141.1430 C   0  0  0  0  0  0  0  0  0  0  0  0
  187.9610  177.9780  143.5540 C   0  0  0  0  0  0  0  0  0  0  0  0
  185.1040  178.8800  145.7120 C   0  0  0  0  0  3  0  0  0  0  0  0
  181.8530  178.7190  141.5700 C   0  0  0  0  0  0  0  0  0  0  0  0
  180.9770  178.8670  142.6480 C   0  0  0  0  0  3  0  0  0  0  0  0
  183.7350  178.5640  143.1070 C   0  0  0  0  0  0  0  0  0  0  0  0
  181.4710  178.8550  143.9540 C   0  0  0  0  0  3  0  0  0  0  0  0
  183.2230  178.5620  141.8000 C   0  0  0  0  0  3  0  0  0  0  0  0
  182.8410  178.6990  144.1820 C   0  0  0  0  0  3  0  0  0  0  0  0
  181.3630  178.7240  140.2710 O   0  0  0  0  0  1  0  0  0  0  0  0
  190.1960  177.7630  139.9730 O   0  0  0  0  0  0  0  0  0  0  0  0
  189.8280  176.9210  138.8880 C   0  0  0  0  0  2  0  0  0  0  0  0
  189.3600  179.1310  137.8230 F   0  0  0  0  0  0  0  0  0  0  0  0
  187.1280  175.5480  137.2430 O   0  0  0  0  0  1  0  0  0  0  0  0
  187.5940  177.1720  137.1760 P   0  0  2  0  0  0  0  0  0  0  0  0
  189.3070  177.1800  136.4580 C   0  0  0  0  0  2  0  0  0  0  0  0
  189.2310  177.7560  137.7730 C   0  0  2  0  0  0  0  0  0  0  0  0
  186.7510  178.0540  136.2850 O   0  0  0  0  0  0  0  0  0  0  0  0
  1  5  2  0  0  0  0
  2  6  1  0  0  0  0
  3  8  1  0  0  0  0
  4 18  1  0  0  0  0
  5 11  1  0  0  0  0
  6 11  2  0  0  0  0
  8  2  2  0  0  0  0
  8  1  1  0  0  0  0
  9  7  2  0  0  0  0
 10 17  2  0  0  0  0
 10  4  1  0  0  0  0
 12  3  1  0  0  0  0
 12 19  1  0  0  0  0
 13  1  1  0  0  0  0
 14  2  1  0  0  0  0
 15  4  2  0  0  0  0
 15 16  1  0  0  0  0
 16 12  2  0  0  0  0
 17  9  1  0  0  0  0
 18  7  1  0  0  0  0
 18  3  2  0  0  0  0
 19 13  2  0  0  0  0
 20 24  2  0  0  0  0
 20 21  1  0  0  0  0
 21 23  2  0  0  0  0
 22 16  1  0  0  0  0
 22 25  2  0  0  0  0
 23 25  1  0  0  0  0
 24 22  1  0  0  0  0
 26 20  1  0  0  0  0
 27 17  1  0  0  0  0
 28 27  1  0  0  0  0
 31 34  2  6  0  0  0
 31 30  1  0  0  0  0
 31 33  1  0  0  0  0
 32 31  1  0  0  0  0
 32 33  1  0  0  0  0
 33 29  1  1  0  0  0
 33 28  1  0  0  0  0
M  END
>  <MODEL>
5

>  <REMARK>
 VINA RESULT:     -10.9      1.605      2.358
  Name = 
  4 active torsions:
  status: ('A' for Active; 'I' for Inactive)
    1  A    between atoms: O_3  and  C_13
    2  A    between atoms: O_3  and  C_29
    3  A    between atoms: C_12  and  C_28
    4  A    between atoms: C_13  and  C_33
                            x       y       z     vdW  Elec       q    Type
                         _______ _______ _______ _____ _____    ______ ____

>  <TORSDO>
F 4

$$$$
=
 OpenBabel10262419173D

 34 39  0  0  1  0  0  0  0  0999 V2000
  182.5520  178.7140  141.4180 C   0  0  0  0  0  0  0  0  0  0  0  0
  183.4360  179.7260  139.3980 C   0  0  0  0  0  0  0  0  0  0  0  0
  184.9830  178.7350  141.1470 C   0  0  0  0  0  0  0  0  0  0  0  0
  187.4080  178.4160  141.0110 C   0  0  0  0  0  0  0  0  0  0  0  0
  181.2580  178.8380  140.9100 C   0  0  0  0  0  3  0  0  0  0  0  0
  182.1340  179.8350  138.9010 C   0  0  0  0  0  3  0  0  0  0  0  0
  186.1310  178.4220  138.9630 C   0  0  0  0  0  3  0  0  0  0  0  0
  183.6830  179.0360  140.6190 C   0  0  0  0  0  0  0  0  0  0  0  0
  187.3020  178.2440  138.2270 C   0  0  0  0  0  3  0  0  0  0  0  0
  188.5820  178.2540  140.2710 C   0  0  0  0  0  3  0  0  0  0  0  0
  181.0510  179.3670  139.6390 C   0  0  0  0  0  3  0  0  0  0  0  0
  185.0930  178.4800  142.5440 C   0  0  0  0  0  0  0  0  0  0  0  0
  182.7080  178.3340  142.7080 N   0  0  0  0  0  0  0  0  0  0  0  0
  184.4340  180.4110  138.7190 O   0  0  0  0  0  1  0  0  0  0  0  0
  187.4730  178.3550  142.3610 N   0  0  0  0  0  0  0  0  0  0  0  0
  186.3690  178.3720  143.1510 C   0  0  0  0  0  0  0  0  0  0  0  0
  188.5380  178.1820  138.8720 C   0  0  0  0  0  0  0  0  0  0  0  0
  186.1610  178.5690  140.3610 C   0  0  0  0  0  0  0  0  0  0  0  0
  183.9280  178.2530  143.2850 C   0  0  0  0  0  3  0  0  0  0  0  0
  187.9420  177.4860  146.4810 C   0  0  0  0  0  0  0  0  0  0  0  0
  187.0400  178.0540  147.3850 C   0  0  0  0  0  3  0  0  0  0  0  0
  186.5700  178.2460  144.6190 C   0  0  0  0  0  0  0  0  0  0  0  0
  185.9100  178.7250  146.9130 C   0  0  0  0  0  3  0  0  0  0  0  0
  187.7100  177.5880  145.1060 C   0  0  0  0  0  3  0  0  0  0  0  0
  185.6800  178.8250  145.5380 C   0  0  0  0  0  3  0  0  0  0  0  0
  189.0690  176.8240  146.9470 O   0  0  0  0  0  1  0  0  0  0  0  0
  189.6950  178.0270  138.1080 O   0  0  0  0  0  0  0  0  0  0  0  0
  190.0380  176.8020  137.4730 C   0  0  0  0  0  2  0  0  0  0  0  0
  191.0970  176.1750  139.6450 F   0  0  0  0  0  0  0  0  0  0  0  0
  193.0580  176.3770  135.8690 O   0  0  0  0  0  0  0  0  0  0  0  0
  192.8020  176.2190  137.5320 P   0  0  2  0  0  0  0  0  0  0  0  0
  191.5690  174.8440  137.7280 C   0  0  0  0  0  2  0  0  0  0  0  0
  191.1210  176.0990  138.2660 C   0  0  2  0  0  0  0  0  0  0  0  0
  194.0150  175.8270  138.3430 O   0  0  0  0  0  1  0  0  0  0  0  0
  1 13  1  0  0  0  0
  2  8  1  0  0  0  0
  3 12  1  0  0  0  0
  4 15  2  0  0  0  0
  5  1  1  0  0  0  0
  6  2  2  0  0  0  0
  6 11  1  0  0  0  0
  7 18  1  0  0  0  0
  8  3  1  0  0  0  0
  8  1  2  0  0  0  0
  9 17  1  0  0  0  0
  9  7  2  0  0  0  0
 10  4  1  0  0  0  0
 11  5  2  0  0  0  0
 12 16  2  0  0  0  0
 12 19  1  0  0  0  0
 13 19  2  0  0  0  0
 14  2  1  0  0  0  0
 15 16  1  0  0  0  0
 16 22  1  0  0  0  0
 17 10  2  0  0  0  0
 18  4  1  0  0  0  0
 18  3  2  0  0  0  0
 20 26  1  0  0  0  0
 20 21  1  0  0  0  0
 22 24  1  0  0  0  0
 22 25  2  0  0  0  0
 23 21  2  0  0  0  0
 24 20  2  0  0  0  0
 25 23  1  0  0  0  0
 27 17  1  0  0  0  0
 28 27  1  0  0  0  0
 28 33  1  0  0  0  0
 31 30  2  6  0  0  0
 31 32  1  0  0  0  0
 31 33  1  0  0  0  0
 31 34  1  0  0  0  0
 32 33  1  0  0  0  0
 33 29  1  1  0  0  0
M  END
>  <MODEL>
6

>  <REMARK>
 VINA RESULT:      -9.9      2.827      6.492
  Name = 
  4 active torsions:
  status: ('A' for Active; 'I' for Inactive)
    1  A    between atoms: O_3  and  C_13
    2  A    between atoms: O_3  and  C_29
    3  A    between atoms: C_12  and  C_28
    4  A    between atoms: C_13  and  C_33
                            x       y       z     vdW  Elec       q    Type
                         _______ _______ _______ _____ _____    ______ ____

>  <TORSDO>
F 4

$$$$
=
 OpenBabel10262419173D

 34 39  0  0  1  0  0  0  0  0999 V2000
  184.8680  178.6980  144.8040 C   0  0  0  0  0  0  0  0  0  0  0  0
  186.9550  177.4910  144.5330 C   0  0  0  0  0  0  0  0  0  0  0  0
  185.6530  178.3200  142.5190 C   0  0  0  0  0  0  0  0  0  0  0  0
  186.3290  178.2830  140.1650 C   0  0  0  0  0  0  0  0  0  0  0  0
  185.0770  178.7400  146.1840 C   0  0  0  0  0  3  0  0  0  0  0  0
  187.1520  177.5500  145.9150 C   0  0  0  0  0  3  0  0  0  0  0  0
  188.0490  178.3790  141.8550 C   0  0  0  0  0  3  0  0  0  0  0  0
  185.8670  178.1860  143.9320 C   0  0  0  0  0  0  0  0  0  0  0  0
  189.0310  178.3580  140.8640 C   0  0  0  0  0  3  0  0  0  0  0  0
  187.3140  178.2460  139.1740 C   0  0  0  0  0  3  0  0  0  0  0  0
  186.2330  178.1970  146.7360 C   0  0  0  0  0  3  0  0  0  0  0  0
  184.3340  178.6110  142.0680 C   0  0  0  0  0  0  0  0  0  0  0  0
  183.6720  179.1030  144.3170 N   0  0  0  0  0  0  0  0  0  0  0  0
  187.7840  176.6450  143.8080 O   0  0  0  0  0  1  0  0  0  0  0  0
  185.0320  178.3880  139.7940 N   0  0  0  0  0  0  0  0  0  0  0  0
  184.0250  178.5600  140.6870 C   0  0  0  0  0  0  0  0  0  0  0  0
  188.6720  178.2690  139.5190 C   0  0  0  0  0  0  0  0  0  0  0  0
  186.6840  178.2840  141.5340 C   0  0  0  0  0  0  0  0  0  0  0  0
  183.3780  179.0310  142.9990 C   0  0  0  0  0  3  0  0  0  0  0  0
  181.0910  179.8970  138.6980 C   0  0  0  0  0  0  0  0  0  0  0  0
  180.0780  178.9960  139.0390 C   0  0  0  0  0  3  0  0  0  0  0  0
  182.6460  178.7130  140.1490 C   0  0  0  0  0  0  0  0  0  0  0  0
  180.3450  177.9500  139.9250 C   0  0  0  0  0  3  0  0  0  0  0  0
  182.3690  179.7510  139.2460 C   0  0  0  0  0  3  0  0  0  0  0  0
  181.6230  177.8070  140.4720 C   0  0  0  0  0  3  0  0  0  0  0  0
  180.8290  180.9340  137.8130 O   0  0  0  0  0  1  0  0  0  0  0  0
  189.6760  178.2260  138.5500 O   0  0  0  0  0  0  0  0  0  0  0  0
  189.4020  178.0280  137.1680 C   0  0  0  0  0  2  0  0  0  0  0  0
  188.2970  175.8190  136.7990 F   0  0  0  0  0  0  0  0  0  0  0  0
  192.3490  176.4290  137.9670 O   0  0  0  0  0  1  0  0  0  0  0  0
  190.8860  175.6630  137.6040 P   0  0  2  0  0  0  0  0  0  0  0  0
  190.4610  176.1750  135.8700 C   0  0  0  0  0  2  0  0  0  0  0  0
  189.4690  176.5500  136.8400 C   0  0  2  0  0  0  0  0  0  0  0  0
  190.9230  174.1530  137.6100 O   0  0  0  0  0  0  0  0  0  0  0  0
  1  5  2  0  0  0  0
  2  6  1  0  0  0  0
  3  8  1  0  0  0  0
  4 18  1  0  0  0  0
  5 11  1  0  0  0  0
  6 11  2  0  0  0  0
  8  2  2  0  0  0  0
  8  1  1  0  0  0  0
  9  7  2  0  0  0  0
 10 17  2  0  0  0  0
 10  4  1  0  0  0  0
 12  3  1  0  0  0  0
 12 19  1  0  0  0  0
 13  1  1  0  0  0  0
 14  2  1  0  0  0  0
 15  4  2  0  0  0  0
 15 16  1  0  0  0  0
 16 12  2  0  0  0  0
 17  9  1  0  0  0  0
 18  7  1  0  0  0  0
 18  3  2  0  0  0  0
 19 13  2  0  0  0  0
 20 21  2  0  0  0  0
 20 24  1  0  0  0  0
 21 23  1  0  0  0  0
 22 25  1  0  0  0  0
 22 16  1  0  0  0  0
 23 25  2  0  0  0  0
 24 22  2  0  0  0  0
 26 20  1  0  0  0  0
 27 17  1  0  0  0  0
 28 27  1  0  0  0  0
 31 34  2  1  0  0  0
 31 30  1  0  0  0  0
 32 33  1  0  0  0  0
 32 31  1  0  0  0  0
 33 29  1  6  0  0  0
 33 28  1  0  0  0  0
 33 31  1  0  0  0  0
M  END
>  <MODEL>
7

>  <REMARK>
 VINA RESULT:      -9.7      3.018      4.547
  Name = 
  4 active torsions:
  status: ('A' for Active; 'I' for Inactive)
    1  A    between atoms: O_3  and  C_13
    2  A    between atoms: O_3  and  C_29
    3  A    between atoms: C_12  and  C_28
    4  A    between atoms: C_13  and  C_33
                            x       y       z     vdW  Elec       q    Type
                         _______ _______ _______ _____ _____    ______ ____

>  <TORSDO>
F 4

$$$$
=
 OpenBabel10262419173D

 34 39  0  0  1  0  0  0  0  0999 V2000
  191.4280  177.4790  141.1500 C   0  0  0  0  0  0  0  0  0  0  0  0
  189.9050  176.8560  139.3660 C   0  0  0  0  0  0  0  0  0  0  0  0
  189.0320  177.6040  141.6270 C   0  0  0  0  0  0  0  0  0  0  0  0
  186.7120  178.0400  142.2800 C   0  0  0  0  0  0  0  0  0  0  0  0
  192.5000  177.3890  140.2600 C   0  0  0  0  0  3  0  0  0  0  0  0
  190.9890  176.7780  138.4880 C   0  0  0  0  0  3  0  0  0  0  0  0
  187.3290  178.3240  139.9650 C   0  0  0  0  0  3  0  0  0  0  0  0
  190.0880  177.3410  140.6920 C   0  0  0  0  0  0  0  0  0  0  0  0
  186.0130  178.6700  139.6510 C   0  0  0  0  0  3  0  0  0  0  0  0
  185.3910  178.3720  141.9630 C   0  0  0  0  0  3  0  0  0  0  0  0
  192.2780  177.0720  138.9230 C   0  0  0  0  0  3  0  0  0  0  0  0
  189.3580  177.6260  143.0130 C   0  0  0  0  0  0  0  0  0  0  0  0
  191.6900  177.6450  142.4670 N   0  0  0  0  0  0  0  0  0  0  0  0
  188.6950  176.3360  138.9280 O   0  0  0  0  0  1  0  0  0  0  0  0
  187.0500  177.8780  143.5800 N   0  0  0  0  0  0  0  0  0  0  0  0
  188.3300  177.6840  143.9870 C   0  0  0  0  0  0  0  0  0  0  0  0
  185.0320  178.6740  140.6430 C   0  0  0  0  0  0  0  0  0  0  0  0
  187.6950  177.9460  141.2680 C   0  0  0  0  0  0  0  0  0  0  0  0
  190.7040  177.6780  143.3920 C   0  0  0  0  0  3  0  0  0  0  0  0
  190.1240  177.1250  147.2760 C   0  0  0  0  0  0  0  0  0  0  0  0
  189.1220  177.4220  148.2040 C   0  0  0  0  0  3  0  0  0  0  0  0
  188.5790  177.5700  145.4490 C   0  0  0  0  0  0  0  0  0  0  0  0
  187.8530  177.8020  147.7610 C   0  0  0  0  0  3  0  0  0  0  0  0
  189.8540  177.2050  145.9070 C   0  0  0  0  0  3  0  0  0  0  0  0
  187.5850  177.8800  146.3920 C   0  0  0  0  0  3  0  0  0  0  0  0
  191.3880  176.7530  147.7140 O   0  0  0  0  0  1  0  0  0  0  0  0
  183.7190  179.0020  140.2960 O   0  0  0  0  0  0  0  0  0  0  0  0
  182.6370  178.0900  140.4430 C   0  0  0  0  0  2  0  0  0  0  0  0
  182.0790  178.8820  142.7450 F   0  0  0  0  0  0  0  0  0  0  0  0
  179.3290  177.2830  139.9100 O   0  0  0  0  0  0  0  0  0  0  0  0
  179.9700  177.8840  141.3540 P   0  0  2  0  0  0  0  0  0  0  0  0
  180.6740  179.5520  140.9430 C   0  0  0  0  0  2  0  0  0  0  0  0
  181.6480  178.6290  141.4560 C   0  0  2  0  0  0  0  0  0  0  0  0
  178.9740  178.1010  142.4680 O   0  0  0  0  0  1  0  0  0  0  0  0
  1 13  1  0  0  0  0
  2  8  1  0  0  0  0
  3 12  1  0  0  0  0
  4 15  2  0  0  0  0
  5  1  1  0  0  0  0
  6 11  1  0  0  0  0
  6  2  2  0  0  0  0
  7 18  1  0  0  0  0
  8  1  2  0  0  0  0
  8  3  1  0  0  0  0
  9  7  2  0  0  0  0
  9 17  1  0  0  0  0
 10  4  1  0  0  0  0
 11  5  2  0  0  0  0
 12 19  1  0  0  0  0
 12 16  2  0  0  0  0
 13 19  2  0  0  0  0
 14  2  1  0  0  0  0
 15 16  1  0  0  0  0
 16 22  1  0  0  0  0
 17 10  2  0  0  0  0
 18  3  2  0  0  0  0
 18  4  1  0  0  0  0
 20 26  1  0  0  0  0
 20 21  1  0  0  0  0
 22 24  1  0  0  0  0
 22 25  2  0  0  0  0
 23 21  2  0  0  0  0
 24 20  2  0  0  0  0
 25 23  1  0  0  0  0
 27 28  1  0  0  0  0
 27 17  1  0  0  0  0
 28 33  1  0  0  0  0
 31 30  2  6  0  0  0
 31 33  1  0  0  0  0
 31 34  1  0  0  0  0
 32 31  1  0  0  0  0
 32 33  1  0  0  0  0
 33 29  1  1  0  0  0
M  END
>  <MODEL>
8

>  <REMARK>
 VINA RESULT:      -9.6      3.015      6.487
  Name = 
  4 active torsions:
  status: ('A' for Active; 'I' for Inactive)
    1  A    between atoms: O_3  and  C_13
    2  A    between atoms: O_3  and  C_29
    3  A    between atoms: C_12  and  C_28
    4  A    between atoms: C_13  and  C_33
                            x       y       z     vdW  Elec       q    Type
                         _______ _______ _______ _____ _____    ______ ____

>  <TORSDO>
F 4

$$$$
=
 OpenBabel10262419173D

 34 39  0  0  1  0  0  0  0  0999 V2000
  185.7530  177.9190  144.0720 C   0  0  0  0  0  0  0  0  0  0  0  0
  185.8530  179.0700  141.9380 C   0  0  0  0  0  0  0  0  0  0  0  0
  187.8600  177.8040  142.8350 C   0  0  0  0  0  0  0  0  0  0  0  0
  189.9810  177.3380  141.7010 C   0  0  0  0  0  0  0  0  0  0  0  0
  184.3840  178.1810  144.1450 C   0  0  0  0  0  3  0  0  0  0  0  0
  184.4800  179.3170  142.0240 C   0  0  0  0  0  3  0  0  0  0  0  0
  187.9980  177.6390  140.3570 C   0  0  0  0  0  3  0  0  0  0  0  0
  186.4960  178.2450  142.9040 C   0  0  0  0  0  0  0  0  0  0  0  0
  188.7520  177.4590  139.1970 C   0  0  0  0  0  3  0  0  0  0  0  0
  190.7370  177.1740  140.5370 C   0  0  0  0  0  3  0  0  0  0  0  0
  183.7410  178.8490  143.1070 C   0  0  0  0  0  3  0  0  0  0  0  0
  188.4930  177.4010  144.0450 C   0  0  0  0  0  0  0  0  0  0  0  0
  186.3730  177.3990  145.1580 N   0  0  0  0  0  0  0  0  0  0  0  0
  186.5610  179.7520  140.9580 O   0  0  0  0  0  1  0  0  0  0  0  0
  190.5740  177.1350  142.8990 N   0  0  0  0  0  0  0  0  0  0  0  0
  189.8870  177.1460  144.0700 C   0  0  0  0  0  0  0  0  0  0  0  0
  190.1290  177.2480  139.2770 C   0  0  0  0  0  0  0  0  0  0  0  0
  188.6010  177.6410  141.6270 C   0  0  0  0  0  0  0  0  0  0  0  0
  187.7060  177.1780  145.1800 C   0  0  0  0  0  3  0  0  0  0  0  0
  190.9590  177.2250  147.7020 C   0  0  0  0  0  0  0  0  0  0  0  0
  191.9940  176.2870  147.7170 C   0  0  0  0  0  3  0  0  0  0  0  0
  190.6460  176.8580  145.3170 C   0  0  0  0  0  0  0  0  0  0  0  0
  192.3520  175.6260  146.5400 C   0  0  0  0  0  3  0  0  0  0  0  0
  190.2850  177.5040  146.5090 C   0  0  0  0  0  3  0  0  0  0  0  0
  191.6780  175.9060  145.3490 C   0  0  0  0  0  3  0  0  0  0  0  0
  190.5970  177.8790  148.8720 O   0  0  0  0  0  1  0  0  0  0  0  0
  190.8610  177.0950  138.0980 O   0  0  0  0  0  0  0  0  0  0  0  0
  191.3970  175.8440  137.6850 C   0  0  0  0  0  2  0  0  0  0  0  0
  193.5060  176.6140  138.7780 F   0  0  0  0  0  0  0  0  0  0  0  0
  193.0940  175.3800  134.7210 O   0  0  0  0  0  0  0  0  0  0  0  0
  193.7610  176.0010  136.1450 P   0  0  2  0  0  0  0  0  0  0  0  0
  193.5810  174.6610  137.4180 C   0  0  0  0  0  2  0  0  0  0  0  0
  192.9090  175.8820  137.7700 C   0  0  2  0  0  0  0  0  0  0  0  0
  195.2320  176.3390  136.0810 O   0  0  0  0  0  1  0  0  0  0  0  0
  1  5  1  0  0  0  0
  1 13  1  0  0  0  0
  2  6  2  0  0  0  0
  2  8  1  0  0  0  0
  3  8  1  0  0  0  0
  3 12  1  0  0  0  0
  4 15  2  0  0  0  0
  6 11  1  0  0  0  0
  7 18  1  0  0  0  0
  8  1  2  0  0  0  0
  9 17  1  0  0  0  0
  9  7  2  0  0  0  0
 10  4  1  0  0  0  0
 11  5  2  0  0  0  0
 12 16  2  0  0  0  0
 12 19  1  0  0  0  0
 13 19  2  0  0  0  0
 14  2  1  0  0  0  0
 15 16  1  0  0  0  0
 16 22  1  0  0  0  0
 17 10  2  0  0  0  0
 18  4  1  0  0  0  0
 18  3  2  0  0  0  0
 20 21  1  0  0  0  0
 20 26  1  0  0  0  0
 22 25  2  0  0  0  0
 22 24  1  0  0  0  0
 23 21  2  0  0  0  0
 24 20  2  0  0  0  0
 25 23  1  0  0  0  0
 27 17  1  0  0  0  0
 28 33  1  0  0  0  0
 28 27  1  0  0  0  0
 31 30  2  6  0  0  0
 31 32  1  0  0  0  0
 31 33  1  0  0  0  0
 32 33  1  0  0  0  0
 33 29  1  1  0  0  0
 34 31  1  0  0  0  0
M  END
>  <MODEL>
9

>  <REMARK>
 VINA RESULT:      -9.4      2.602      5.926
  Name = 
  4 active torsions:
  status: ('A' for Active; 'I' for Inactive)
    1  A    between atoms: O_3  and  C_13
    2  A    between atoms: O_3  and  C_29
    3  A    between atoms: C_12  and  C_28
    4  A    between atoms: C_13  and  C_33
                            x       y       z     vdW  Elec       q    Type
                         _______ _______ _______ _____ _____    ______ ____

>  <TORSDO>
F 4

$$$$
