=
 OpenBabel10262420073D

 27 29  0  0  1  0  0  0  0  0999 V2000
  187.3140  176.0980  143.7640 C   0  0  0  0  0  1  0  0  0  0  0  0
  188.0210  177.3990  144.1820 C   0  0  2  0  0  0  0  0  0  0  0  0
  191.5470  178.4230  143.0520 C   0  0  0  0  0  3  0  0  0  0  0  0
  191.8330  177.4470  142.0970 C   0  0  0  0  0  3  0  0  0  0  0  0
  189.3740  177.3960  143.4750 C   0  0  0  0  0  0  0  0  0  0  0  0
  190.0740  179.3950  144.6310 F   0  0  0  0  0  0  0  0  0  0  0  0
  190.8940  176.4550  141.8120 C   0  0  0  0  0  3  0  0  0  0  0  0
  189.6740  176.4350  142.4900 C   0  0  0  0  0  3  0  0  0  0  0  0
  190.3260  178.4080  143.7330 C   0  0  0  0  0  0  0  0  0  0  0  0
  188.5650  177.7180  148.4790 C   0  0  0  0  0  3  0  0  0  0  0  0
  188.2080  177.4690  145.7010 C   0  0  0  0  0  0  0  0  0  0  0  0
  187.2440  178.1180  146.4910 C   0  0  0  0  0  3  0  0  0  0  0  0
  187.4180  178.2360  147.8730 C   0  0  0  0  0  3  0  0  0  0  0  0
  189.5400  177.0860  147.7040 C   0  0  0  0  0  3  0  0  0  0  0  0
  189.3660  176.9680  146.3230 C   0  0  0  0  0  3  0  0  0  0  0  0
  187.2930  178.5320  143.7260 O   0  0  0  0  0  0  0  0  0  0  0  0
  186.5020  178.1970  142.6080 C   0  0  0  0  0  2  0  0  0  0  0  0
  183.3540  178.8610  144.5840 C   0  0  0  0  0  3  0  0  0  0  0  0
  181.1050  179.2330  143.9110 F   0  0  0  0  0  0  0  0  0  0  0  0
  182.7640  178.8470  142.2340 C   0  0  0  0  0  0  0  0  0  0  0  0
  181.7970  178.9710  141.2410 O   0  0  0  0  0  1  0  0  0  0  0  0
  184.1040  178.5920  141.8950 C   0  0  0  0  0  0  0  0  0  0  0  0
  182.3940  178.9830  143.5780 C   0  0  0  0  0  0  0  0  0  0  0  0
  185.0650  178.4540  142.9170 C   0  0  0  0  0  0  0  0  0  0  0  0
  184.6850  178.5990  144.2540 C   0  0  0  0  0  3  0  0  0  0  0  0
  184.7930  179.6810  139.9100 O   0  0  0  0  0  1  0  0  0  0  0  0
  184.4870  178.4340  140.4560 C   0  0  0  0  0  2  0  0  0  0  0  0
  2  1  1  6  0  0  0
  2 11  1  0  0  0  0
  3  9  1  0  0  0  0
  4  3  2  0  0  0  0
  5  9  2  0  0  0  0
  5  2  1  0  0  0  0
  7  4  1  0  0  0  0
  7  8  2  0  0  0  0
  8  5  1  0  0  0  0
  9  6  1  0  0  0  0
 11 15  2  0  0  0  0
 11 12  1  0  0  0  0
 12 13  2  0  0  0  0
 13 10  1  0  0  0  0
 14 10  2  0  0  0  0
 15 14  1  0  0  0  0
 16  2  1  0  0  0  0
 17 24  1  0  0  0  0
 17 16  1  0  0  0  0
 20 23  1  0  0  0  0
 21 20  1  0  0  0  0
 22 20  2  0  0  0  0
 22 24  1  0  0  0  0
 23 19  1  0  0  0  0
 23 18  2  0  0  0  0
 24 25  2  0  0  0  0
 25 18  1  0  0  0  0
 26 27  1  0  0  0  0
 27 22  1  0  0  0  0
M  END
>  <MODEL>
1

>  <REMARK>
 VINA RESULT:      -8.6      0.000      0.000
  Name = 
  6 active torsions:
  status: ('A' for Active; 'I' for Inactive)
    1  A    between atoms: O_2  and  C_6
    2  A    between atoms: O_2  and  C_15
    3  A    between atoms: C_6  and  C_17
    4  A    between atoms: C_9  and  C_15
    5  A    between atoms: C_14  and  C_19
    6  A    between atoms: C_15  and  C_18
                            x       y       z     vdW  Elec       q    Type
                         _______ _______ _______ _____ _____    ______ ____

>  <TORSDO>
F 6

$$$$
=
 OpenBabel10262420073D

 27 29  0  0  1  0  0  0  0  0999 V2000
  190.0240  178.8550  144.3440 C   0  0  0  0  0  1  0  0  0  0  0  0
  189.9720  177.4230  143.7820 C   0  0  2  0  0  0  0  0  0  0  0  0
  192.1050  174.5120  145.1000 C   0  0  0  0  0  3  0  0  0  0  0  0
  192.4940  174.9900  146.3510 C   0  0  0  0  0  3  0  0  0  0  0  0
  190.8860  176.5830  144.6690 C   0  0  0  0  0  0  0  0  0  0  0  0
  190.9180  174.7780  143.0680 F   0  0  0  0  0  0  0  0  0  0  0  0
  192.0730  176.2500  146.7770 C   0  0  0  0  0  3  0  0  0  0  0  0
  191.2710  177.0340  145.9470 C   0  0  0  0  0  3  0  0  0  0  0  0
  191.3010  175.2930  144.2640 C   0  0  0  0  0  0  0  0  0  0  0  0
  191.2990  177.1770  139.6530 C   0  0  0  0  0  3  0  0  0  0  0  0
  190.4470  177.3790  142.3260 C   0  0  0  0  0  0  0  0  0  0  0  0
  189.5380  177.0430  141.3080 C   0  0  0  0  0  3  0  0  0  0  0  0
  189.9600  176.9490  139.9790 C   0  0  0  0  0  3  0  0  0  0  0  0
  192.2170  177.4950  140.6570 C   0  0  0  0  0  3  0  0  0  0  0  0
  191.7950  177.5890  141.9860 C   0  0  0  0  0  3  0  0  0  0  0  0
  188.6570  176.8930  143.8840 O   0  0  0  0  0  0  0  0  0  0  0  0
  187.9290  177.5630  144.8880 C   0  0  0  0  0  2  0  0  0  0  0  0
  185.1530  178.2920  142.4360 C   0  0  0  0  0  3  0  0  0  0  0  0
  182.9020  178.9910  142.7450 F   0  0  0  0  0  0  0  0  0  0  0  0
  184.2850  178.6650  144.6670 C   0  0  0  0  0  0  0  0  0  0  0  0
  183.2280  179.0270  145.4960 O   0  0  0  0  0  1  0  0  0  0  0  0
  185.5300  178.3090  145.2150 C   0  0  0  0  0  0  0  0  0  0  0  0
  184.1000  178.6530  143.2790 C   0  0  0  0  0  0  0  0  0  0  0  0
  186.5930  177.9620  144.3560 C   0  0  0  0  0  0  0  0  0  0  0  0
  186.3940  177.9460  142.9720 C   0  0  0  0  0  3  0  0  0  0  0  0
  185.8840  179.6560  147.1290 O   0  0  0  0  0  1  0  0  0  0  0  0
  185.7230  178.3380  146.7000 C   0  0  0  0  0  2  0  0  0  0  0  0
  2 16  1  0  0  0  0
  2  1  1  1  0  0  0
  2  5  1  0  0  0  0
  3  4  1  0  0  0  0
  4  7  2  0  0  0  0
  5  8  2  0  0  0  0
  6  9  1  0  0  0  0
  8  7  1  0  0  0  0
  9  5  1  0  0  0  0
  9  3  2  0  0  0  0
 10 13  2  0  0  0  0
 10 14  1  0  0  0  0
 11  2  1  0  0  0  0
 12 11  2  0  0  0  0
 13 12  1  0  0  0  0
 14 15  2  0  0  0  0
 15 11  1  0  0  0  0
 16 17  1  0  0  0  0
 18 25  2  0  0  0  0
 18 23  1  0  0  0  0
 19 23  1  0  0  0  0
 20 22  1  0  0  0  0
 20 21  1  0  0  0  0
 22 27  1  0  0  0  0
 23 20  2  0  0  0  0
 24 17  1  0  0  0  0
 24 22  2  0  0  0  0
 25 24  1  0  0  0  0
 27 26  1  0  0  0  0
M  END
>  <MODEL>
2

>  <REMARK>
 VINA RESULT:      -8.1      2.322      4.735
  Name = 
  6 active torsions:
  status: ('A' for Active; 'I' for Inactive)
    1  A    between atoms: O_2  and  C_6
    2  A    between atoms: O_2  and  C_15
    3  A    between atoms: C_6  and  C_17
    4  A    between atoms: C_9  and  C_15
    5  A    between atoms: C_14  and  C_19
    6  A    between atoms: C_15  and  C_18
                            x       y       z     vdW  Elec       q    Type
                         _______ _______ _______ _____ _____    ______ ____

>  <TORSDO>
F 6

$$$$
=
 OpenBabel10262420073D

 27 29  0  0  1  0  0  0  0  0999 V2000
  187.7110  176.0600  143.5590 C   0  0  0  0  0  1  0  0  0  0  0  0
  187.5990  177.5330  143.9920 C   0  0  2  0  0  0  0  0  0  0  0  0
  189.9120  177.2590  147.0480 C   0  0  0  0  0  3  0  0  0  0  0  0
  189.0540  177.6200  148.0860 C   0  0  0  0  0  3  0  0  0  0  0  0
  188.1200  177.5970  145.4260 C   0  0  0  0  0  0  0  0  0  0  0  0
  190.3120  176.8490  144.7500 F   0  0  0  0  0  0  0  0  0  0  0  0
  187.7280  177.9530  147.8090 C   0  0  0  0  0  3  0  0  0  0  0  0
  187.2640  177.9340  146.4930 C   0  0  0  0  0  3  0  0  0  0  0  0
  189.4540  177.2380  145.7270 C   0  0  0  0  0  0  0  0  0  0  0  0
  183.5270  179.0200  143.7220 C   0  0  0  0  0  3  0  0  0  0  0  0
  186.1510  178.0260  143.9240 C   0  0  0  0  0  0  0  0  0  0  0  0
  185.4410  177.9330  142.7150 C   0  0  0  0  0  3  0  0  0  0  0  0
  184.1350  178.4210  142.6160 C   0  0  0  0  0  3  0  0  0  0  0  0
  184.2270  179.1360  144.9260 C   0  0  0  0  0  3  0  0  0  0  0  0
  185.5330  178.6480  145.0240 C   0  0  0  0  0  3  0  0  0  0  0  0
  188.4350  178.3550  143.1880 O   0  0  0  0  0  0  0  0  0  0  0  0
  188.1970  178.1160  141.8190 C   0  0  0  0  0  2  0  0  0  0  0  0
  191.8740  177.4300  141.3050 C   0  0  0  0  0  3  0  0  0  0  0  0
  193.1340  176.8910  139.3630 F   0  0  0  0  0  0  0  0  0  0  0  0
  190.7790  177.2420  139.1530 C   0  0  0  0  0  0  0  0  0  0  0  0
  190.8580  176.9950  137.7860 O   0  0  0  0  0  1  0  0  0  0  0  0
  189.5430  177.5430  139.7510 C   0  0  0  0  0  0  0  0  0  0  0  0
  191.9400  177.1850  139.9330 C   0  0  0  0  0  0  0  0  0  0  0  0
  189.4870  177.8050  141.1350 C   0  0  0  0  0  0  0  0  0  0  0  0
  190.6520  177.7370  141.9040 C   0  0  0  0  0  3  0  0  0  0  0  0
  188.2010  178.8840  138.3360 O   0  0  0  0  0  1  0  0  0  0  0  0
  188.3080  177.6160  138.9060 C   0  0  0  0  0  2  0  0  0  0  0  0
  2  1  1  6  0  0  0
  2  5  1  0  0  0  0
  3  4  1  0  0  0  0
  5  9  1  0  0  0  0
  5  8  2  0  0  0  0
  6  9  1  0  0  0  0
  7  4  2  0  0  0  0
  8  7  1  0  0  0  0
  9  3  2  0  0  0  0
 10 14  1  0  0  0  0
 11  2  1  0  0  0  0
 11 15  1  0  0  0  0
 12 11  2  0  0  0  0
 13 12  1  0  0  0  0
 13 10  2  0  0  0  0
 14 15  2  0  0  0  0
 16  2  1  0  0  0  0
 17 16  1  0  0  0  0
 18 25  1  0  0  0  0
 19 23  1  0  0  0  0
 20 22  2  0  0  0  0
 20 23  1  0  0  0  0
 21 20  1  0  0  0  0
 22 24  1  0  0  0  0
 23 18  2  0  0  0  0
 24 17  1  0  0  0  0
 24 25  2  0  0  0  0
 26 27  1  0  0  0  0
 27 22  1  0  0  0  0
M  END
>  <MODEL>
3

>  <REMARK>
 VINA RESULT:      -7.8      2.667      6.096
  Name = 
  6 active torsions:
  status: ('A' for Active; 'I' for Inactive)
    1  A    between atoms: O_2  and  C_6
    2  A    between atoms: O_2  and  C_15
    3  A    between atoms: C_6  and  C_17
    4  A    between atoms: C_9  and  C_15
    5  A    between atoms: C_14  and  C_19
    6  A    between atoms: C_15  and  C_18
                            x       y       z     vdW  Elec       q    Type
                         _______ _______ _______ _____ _____    ______ ____

>  <TORSDO>
F 6

$$$$
=
 OpenBabel10262420073D

 27 29  0  0  1  0  0  0  0  0999 V2000
  188.8060  179.3130  141.5930 C   0  0  0  0  0  1  0  0  0  0  0  0
  189.1070  177.8080  141.7090 C   0  0  2  0  0  0  0  0  0  0  0  0
  191.2740  176.2480  144.4720 C   0  0  0  0  0  3  0  0  0  0  0  0
  191.8080  177.3800  145.0860 C   0  0  0  0  0  3  0  0  0  0  0  0
  190.0830  177.6570  142.8730 C   0  0  0  0  0  0  0  0  0  0  0  0
  189.8870  175.2520  142.8300 F   0  0  0  0  0  0  0  0  0  0  0  0
  191.4750  178.6510  144.6150 C   0  0  0  0  0  3  0  0  0  0  0  0
  190.6150  178.7860  143.5240 C   0  0  0  0  0  3  0  0  0  0  0  0
  190.4110  176.3780  143.3790 C   0  0  0  0  0  0  0  0  0  0  0  0
  190.8950  176.3700  138.0210 C   0  0  0  0  0  3  0  0  0  0  0  0
  189.7220  177.2620  140.4170 C   0  0  0  0  0  0  0  0  0  0  0  0
  191.1190  177.2010  140.2830 C   0  0  0  0  0  3  0  0  0  0  0  0
  191.7020  176.7510  139.0950 C   0  0  0  0  0  3  0  0  0  0  0  0
  189.5040  176.4410  138.1330 C   0  0  0  0  0  3  0  0  0  0  0  0
  188.9210  176.8910  139.3210 C   0  0  0  0  0  3  0  0  0  0  0  0
  187.9260  177.0860  142.0330 O   0  0  0  0  0  0  0  0  0  0  0  0
  186.8150  177.9520  142.0930 C   0  0  0  0  0  2  0  0  0  0  0  0
  186.6780  177.5540  145.8450 C   0  0  0  0  0  3  0  0  0  0  0  0
  185.0540  178.2060  147.4540 F   0  0  0  0  0  0  0  0  0  0  0  0
  184.6590  178.6980  145.1480 C   0  0  0  0  0  0  0  0  0  0  0  0
  183.4460  179.2930  145.4770 O   0  0  0  0  0  1  0  0  0  0  0  0
  185.0860  178.6440  143.8100 C   0  0  0  0  0  0  0  0  0  0  0  0
  185.4580  178.1540  146.1610 C   0  0  0  0  0  0  0  0  0  0  0  0
  186.3120  178.0220  143.4960 C   0  0  0  0  0  0  0  0  0  0  0  0
  187.1040  177.4900  144.5170 C   0  0  0  0  0  3  0  0  0  0  0  0
  183.3270  178.2430  142.2780 O   0  0  0  0  0  1  0  0  0  0  0  0
  184.2180  179.2160  142.7310 C   0  0  0  0  0  2  0  0  0  0  0  0
  2  1  1  6  0  0  0
  2 16  1  0  0  0  0
  2  5  1  0  0  0  0
  3  4  1  0  0  0  0
  5  9  1  0  0  0  0
  5  8  2  0  0  0  0
  6  9  1  0  0  0  0
  7  4  2  0  0  0  0
  8  7  1  0  0  0  0
  9  3  2  0  0  0  0
 10 14  2  0  0  0  0
 10 13  1  0  0  0  0
 11  2  1  0  0  0  0
 12 11  1  0  0  0  0
 13 12  2  0  0  0  0
 14 15  1  0  0  0  0
 15 11  2  0  0  0  0
 16 17  1  0  0  0  0
 17 24  1  0  0  0  0
 18 23  1  0  0  0  0
 20 21  1  0  0  0  0
 20 23  2  0  0  0  0
 22 20  1  0  0  0  0
 23 19  1  0  0  0  0
 24 22  2  0  0  0  0
 24 25  1  0  0  0  0
 25 18  2  0  0  0  0
 26 27  1  0  0  0  0
 27 22  1  0  0  0  0
M  END
>  <MODEL>
4

>  <REMARK>
 VINA RESULT:      -7.8      2.491      4.926
  Name = 
  6 active torsions:
  status: ('A' for Active; 'I' for Inactive)
    1  A    between atoms: O_2  and  C_6
    2  A    between atoms: O_2  and  C_15
    3  A    between atoms: C_6  and  C_17
    4  A    between atoms: C_9  and  C_15
    5  A    between atoms: C_14  and  C_19
    6  A    between atoms: C_15  and  C_18
                            x       y       z     vdW  Elec       q    Type
                         _______ _______ _______ _____ _____    ______ ____

>  <TORSDO>
F 6

$$$$
=
 OpenBabel10262420073D

 27 29  0  0  1  0  0  0  0  0999 V2000
  184.5570  179.4450  139.7240 C   0  0  0  0  0  1  0  0  0  0  0  0
  183.5260  178.3900  140.1660 C   0  0  2  0  0  0  0  0  0  0  0  0
  182.6590  175.2220  138.1720 C   0  0  0  0  0  3  0  0  0  0  0  0
  183.5110  175.3370  137.0730 C   0  0  0  0  0  3  0  0  0  0  0  0
  183.4960  177.3360  139.0620 C   0  0  0  0  0  0  0  0  0  0  0  0
  181.8310  176.0400  140.2350 F   0  0  0  0  0  0  0  0  0  0  0  0
  184.3680  176.4330  136.9680 C   0  0  0  0  0  3  0  0  0  0  0  0
  184.3650  177.4170  137.9570 C   0  0  0  0  0  3  0  0  0  0  0  0
  182.6520  176.2060  139.1660 C   0  0  0  0  0  0  0  0  0  0  0  0
  179.6440  180.2630  140.6940 C   0  0  0  0  0  3  0  0  0  0  0  0
  182.1390  179.0120  140.3540 C   0  0  0  0  0  0  0  0  0  0  0  0
  181.5600  179.7500  139.3080 C   0  0  0  0  0  3  0  0  0  0  0  0
  180.3170  180.3660  139.4750 C   0  0  0  0  0  3  0  0  0  0  0  0
  180.2150  179.5470  141.7490 C   0  0  0  0  0  3  0  0  0  0  0  0
  181.4580  178.9310  141.5830 C   0  0  0  0  0  3  0  0  0  0  0  0
  183.9450  177.7540  141.3660 O   0  0  0  0  0  0  0  0  0  0  0  0
  185.2080  178.2350  141.7680 C   0  0  0  0  0  2  0  0  0  0  0  0
  184.1490  178.7140  145.3600 C   0  0  0  0  0  3  0  0  0  0  0  0
  185.3040  178.3990  147.4130 F   0  0  0  0  0  0  0  0  0  0  0  0
  186.4480  177.9500  145.3630 C   0  0  0  0  0  0  0  0  0  0  0  0
  187.5910  177.5940  146.0710 O   0  0  0  0  0  1  0  0  0  0  0  0
  186.4370  177.9010  143.9580 C   0  0  0  0  0  0  0  0  0  0  0  0
  185.3020  178.3540  146.0590 C   0  0  0  0  0  0  0  0  0  0  0  0
  185.2740  178.2820  143.2580 C   0  0  0  0  0  0  0  0  0  0  0  0
  184.1340  178.6770  143.9650 C   0  0  0  0  0  3  0  0  0  0  0  0
  187.7690  176.0890  143.2190 O   0  0  0  0  0  1  0  0  0  0  0  0
  187.6720  177.4810  143.2210 C   0  0  0  0  0  2  0  0  0  0  0  0
  2  1  1  6  0  0  0
  2 11  1  0  0  0  0
  2 16  1  0  0  0  0
  3  9  1  0  0  0  0
  4  3  2  0  0  0  0
  5  9  2  0  0  0  0
  5  2  1  0  0  0  0
  7  4  1  0  0  0  0
  7  8  2  0  0  0  0
  8  5  1  0  0  0  0
  9  6  1  0  0  0  0
 10 14  1  0  0  0  0
 11 15  1  0  0  0  0
 12 13  1  0  0  0  0
 12 11  2  0  0  0  0
 13 10  2  0  0  0  0
 15 14  2  0  0  0  0
 16 17  1  0  0  0  0
 17 24  1  0  0  0  0
 18 23  1  0  0  0  0
 20 23  2  0  0  0  0
 20 21  1  0  0  0  0
 22 20  1  0  0  0  0
 23 19  1  0  0  0  0
 24 22  2  0  0  0  0
 24 25  1  0  0  0  0
 25 18  2  0  0  0  0
 26 27  1  0  0  0  0
 27 22  1  0  0  0  0
M  END
>  <MODEL>
5

>  <REMARK>
 VINA RESULT:      -7.2      2.860      7.436
  Name = 
  6 active torsions:
  status: ('A' for Active; 'I' for Inactive)
    1  A    between atoms: O_2  and  C_6
    2  A    between atoms: O_2  and  C_15
    3  A    between atoms: C_6  and  C_17
    4  A    between atoms: C_9  and  C_15
    5  A    between atoms: C_14  and  C_19
    6  A    between atoms: C_15  and  C_18
                            x       y       z     vdW  Elec       q    Type
                         _______ _______ _______ _____ _____    ______ ____

>  <TORSDO>
F 6

$$$$
=
 OpenBabel10262420073D

 27 29  0  0  1  0  0  0  0  0999 V2000
  188.3970  175.8260  143.2180 C   0  0  0  0  0  1  0  0  0  0  0  0
  188.4820  177.2240  143.8590 C   0  0  2  0  0  0  0  0  0  0  0  0
  191.6620  176.3810  145.8440 C   0  0  0  0  0  3  0  0  0  0  0  0
  191.3170  176.8080  147.1270 C   0  0  0  0  0  3  0  0  0  0  0  0
  189.4910  177.1090  144.9990 C   0  0  0  0  0  0  0  0  0  0  0  0
  191.1210  176.0620  143.5600 F   0  0  0  0  0  0  0  0  0  0  0  0
  190.0600  177.3680  147.3590 C   0  0  0  0  0  3  0  0  0  0  0  0
  189.1550  177.5100  146.3070 C   0  0  0  0  0  3  0  0  0  0  0  0
  190.7590  176.5210  144.7860 C   0  0  0  0  0  0  0  0  0  0  0  0
  184.6490  178.6280  145.3400 C   0  0  0  0  0  3  0  0  0  0  0  0
  187.1200  177.6780  144.3890 C   0  0  0  0  0  0  0  0  0  0  0  0
  186.1870  178.2540  143.5100 C   0  0  0  0  0  3  0  0  0  0  0  0
  184.9570  178.7190  143.9810 C   0  0  0  0  0  3  0  0  0  0  0  0
  185.5730  178.0740  146.2300 C   0  0  0  0  0  3  0  0  0  0  0  0
  186.8030  177.6080  145.7580 C   0  0  0  0  0  3  0  0  0  0  0  0
  188.9850  178.1710  142.9250 O   0  0  0  0  0  0  0  0  0  0  0  0
  189.6760  177.5210  141.8820 C   0  0  0  0  0  2  0  0  0  0  0  0
  186.9720  178.5080  139.4390 C   0  0  0  0  0  3  0  0  0  0  0  0
  186.9050  178.5210  137.0620 F   0  0  0  0  0  0  0  0  0  0  0  0
  188.8980  177.7860  138.1580 C   0  0  0  0  0  0  0  0  0  0  0  0
  189.4990  177.5560  136.9250 O   0  0  0  0  0  1  0  0  0  0  0  0
  189.6010  177.5350  139.3500 C   0  0  0  0  0  0  0  0  0  0  0  0
  187.5860  178.2730  138.2070 C   0  0  0  0  0  0  0  0  0  0  0  0
  188.9680  177.7590  140.5900 C   0  0  0  0  0  0  0  0  0  0  0  0
  187.6610  178.2530  140.6250 C   0  0  0  0  0  3  0  0  0  0  0  0
  190.9680  175.6280  139.0380 O   0  0  0  0  0  1  0  0  0  0  0  0
  190.9980  177.0000  139.2880 C   0  0  0  0  0  2  0  0  0  0  0  0
  2  1  1  6  0  0  0
  2 11  1  0  0  0  0
  2  5  1  0  0  0  0
  3  4  1  0  0  0  0
  4  7  2  0  0  0  0
  5  8  2  0  0  0  0
  6  9  1  0  0  0  0
  8  7  1  0  0  0  0
  9  5  1  0  0  0  0
  9  3  2  0  0  0  0
 10 14  1  0  0  0  0
 11 15  1  0  0  0  0
 12 13  1  0  0  0  0
 12 11  2  0  0  0  0
 13 10  2  0  0  0  0
 15 14  2  0  0  0  0
 16  2  1  0  0  0  0
 17 16  1  0  0  0  0
 18 25  1  0  0  0  0
 19 23  1  0  0  0  0
 20 23  1  0  0  0  0
 20 22  2  0  0  0  0
 21 20  1  0  0  0  0
 22 24  1  0  0  0  0
 23 18  2  0  0  0  0
 24 25  2  0  0  0  0
 24 17  1  0  0  0  0
 26 27  1  0  0  0  0
 27 22  1  0  0  0  0
M  END
>  <MODEL>
6

>  <REMARK>
 VINA RESULT:      -7.2      3.098      5.109
  Name = 
  6 active torsions:
  status: ('A' for Active; 'I' for Inactive)
    1  A    between atoms: O_2  and  C_6
    2  A    between atoms: O_2  and  C_15
    3  A    between atoms: C_6  and  C_17
    4  A    between atoms: C_9  and  C_15
    5  A    between atoms: C_14  and  C_19
    6  A    between atoms: C_15  and  C_18
                            x       y       z     vdW  Elec       q    Type
                         _______ _______ _______ _____ _____    ______ ____

>  <TORSDO>
F 6

$$$$
=
 OpenBabel10262420073D

 27 29  0  0  1  0  0  0  0  0999 V2000
  190.5130  179.0670  144.3440 C   0  0  0  0  0  1  0  0  0  0  0  0
  190.0290  177.6110  144.4680 C   0  0  2  0  0  0  0  0  0  0  0  0
  186.2280  177.1170  144.7380 C   0  0  0  0  0  3  0  0  0  0  0  0
  185.9210  177.8910  145.8570 C   0  0  0  0  0  3  0  0  0  0  0  0
  188.5910  177.6810  144.9760 C   0  0  0  0  0  0  0  0  0  0  0  0
  187.8010  176.2780  143.1790 F   0  0  0  0  0  0  0  0  0  0  0  0
  186.9330  178.5750  146.5300 C   0  0  0  0  0  3  0  0  0  0  0  0
  188.2540  178.4770  146.0890 C   0  0  0  0  0  3  0  0  0  0  0  0
  187.5490  177.0150  144.2910 C   0  0  0  0  0  0  0  0  0  0  0  0
  192.4380  175.2520  147.2050 C   0  0  0  0  0  3  0  0  0  0  0  0
  190.9040  176.8130  145.4400 C   0  0  0  0  0  0  0  0  0  0  0  0
  191.6600  175.7280  144.9640 C   0  0  0  0  0  3  0  0  0  0  0  0
  192.4280  174.9570  145.8410 C   0  0  0  0  0  3  0  0  0  0  0  0
  191.6780  176.3170  147.6960 C   0  0  0  0  0  3  0  0  0  0  0  0
  190.9100  177.0880  146.8190 C   0  0  0  0  0  3  0  0  0  0  0  0
  190.0110  176.9800  143.1940 O   0  0  0  0  0  0  0  0  0  0  0  0
  190.6270  177.7990  142.2260 C   0  0  0  0  0  2  0  0  0  0  0  0
  190.2040  176.2930  138.7900 C   0  0  0  0  0  3  0  0  0  0  0  0
  188.5160  176.5540  137.1370 F   0  0  0  0  0  0  0  0  0  0  0  0
  188.3190  177.7600  139.1910 C   0  0  0  0  0  0  0  0  0  0  0  0
  187.1270  178.3260  138.7510 O   0  0  0  0  0  1  0  0  0  0  0  0
  188.8310  178.0770  140.4620 C   0  0  0  0  0  0  0  0  0  0  0  0
  189.0070  176.8670  138.3610 C   0  0  0  0  0  0  0  0  0  0  0  0
  190.0490  177.5050  140.8820 C   0  0  0  0  0  0  0  0  0  0  0  0
  190.7220  176.6090  140.0470 C   0  0  0  0  0  3  0  0  0  0  0  0
  186.7800  178.6150  141.5140 O   0  0  0  0  0  1  0  0  0  0  0  0
  188.0960  179.0450  141.3380 C   0  0  0  0  0  2  0  0  0  0  0  0
  2  1  1  6  0  0  0
  2  5  1  0  0  0  0
  2 11  1  0  0  0  0
  3  4  1  0  0  0  0
  4  7  2  0  0  0  0
  5  8  2  0  0  0  0
  6  9  1  0  0  0  0
  8  7  1  0  0  0  0
  9  3  2  0  0  0  0
  9  5  1  0  0  0  0
 10 14  1  0  0  0  0
 11 15  1  0  0  0  0
 12 11  2  0  0  0  0
 12 13  1  0  0  0  0
 13 10  2  0  0  0  0
 15 14  2  0  0  0  0
 16  2  1  0  0  0  0
 17 16  1  0  0  0  0
 18 25  1  0  0  0  0
 19 23  1  0  0  0  0
 20 22  2  0  0  0  0
 21 20  1  0  0  0  0
 22 24  1  0  0  0  0
 22 27  1  0  0  0  0
 23 18  2  0  0  0  0
 23 20  1  0  0  0  0
 24 17  1  0  0  0  0
 25 24  2  0  0  0  0
 27 26  1  0  0  0  0
M  END
>  <MODEL>
7

>  <REMARK>
 VINA RESULT:      -7.2      2.920      5.483
  Name = 
  6 active torsions:
  status: ('A' for Active; 'I' for Inactive)
    1  A    between atoms: O_2  and  C_6
    2  A    between atoms: O_2  and  C_15
    3  A    between atoms: C_6  and  C_17
    4  A    between atoms: C_9  and  C_15
    5  A    between atoms: C_14  and  C_19
    6  A    between atoms: C_15  and  C_18
                            x       y       z     vdW  Elec       q    Type
                         _______ _______ _______ _____ _____    ______ ____

>  <TORSDO>
F 6

$$$$
=
 OpenBabel10262420073D

 27 29  0  0  1  0  0  0  0  0999 V2000
  183.9670  179.6680  139.3580 C   0  0  0  0  0  1  0  0  0  0  0  0
  183.3110  178.3720  139.8680 C   0  0  2  0  0  0  0  0  0  0  0  0
  183.3870  175.0130  138.0030 C   0  0  0  0  0  3  0  0  0  0  0  0
  184.2590  175.2920  136.9510 C   0  0  0  0  0  3  0  0  0  0  0  0
  183.6170  177.3000  138.8240 C   0  0  0  0  0  0  0  0  0  0  0  0
  182.2420  175.6790  139.9670 F   0  0  0  0  0  0  0  0  0  0  0  0
  184.8270  176.5620  136.8360 C   0  0  0  0  0  3  0  0  0  0  0  0
  184.5140  177.5520  137.7680 C   0  0  0  0  0  3  0  0  0  0  0  0
  183.0700  176.0020  138.9400 C   0  0  0  0  0  0  0  0  0  0  0  0
  179.0360  178.9750  140.3380 C   0  0  0  0  0  3  0  0  0  0  0  0
  181.7980  178.5420  140.0370 C   0  0  0  0  0  0  0  0  0  0  0  0
  181.0300  179.0300  138.9670 C   0  0  0  0  0  3  0  0  0  0  0  0
  179.6560  179.2390  139.1150 C   0  0  0  0  0  3  0  0  0  0  0  0
  179.7900  178.5050  141.4160 C   0  0  0  0  0  3  0  0  0  0  0  0
  181.1640  178.2960  141.2680 C   0  0  0  0  0  3  0  0  0  0  0  0
  183.8990  177.9630  141.0970 O   0  0  0  0  0  0  0  0  0  0  0  0
  184.7240  178.9820  141.6140 C   0  0  0  0  0  2  0  0  0  0  0  0
  187.1140  177.4480  144.1020 C   0  0  0  0  0  3  0  0  0  0  0  0
  187.0670  177.3100  146.4740 F   0  0  0  0  0  0  0  0  0  0  0  0
  185.2690  178.4070  145.3440 C   0  0  0  0  0  0  0  0  0  0  0  0
  184.6540  178.6690  146.5640 O   0  0  0  0  0  1  0  0  0  0  0  0
  184.6750  178.8320  144.1430 C   0  0  0  0  0  0  0  0  0  0  0  0
  186.4880  177.7180  145.3190 C   0  0  0  0  0  0  0  0  0  0  0  0
  185.3060  178.5410  142.9160 C   0  0  0  0  0  0  0  0  0  0  0  0
  186.5260  177.8600  142.9040 C   0  0  0  0  0  3  0  0  0  0  0  0
  182.3240  178.6390  144.3290 O   0  0  0  0  0  1  0  0  0  0  0  0
  183.3640  179.5550  144.1780 C   0  0  0  0  0  2  0  0  0  0  0  0
  2  1  1  6  0  0  0
  2 11  1  0  0  0  0
  2 16  1  0  0  0  0
  3  9  1  0  0  0  0
  4  3  2  0  0  0  0
  5  9  2  0  0  0  0
  5  2  1  0  0  0  0
  7  4  1  0  0  0  0
  7  8  2  0  0  0  0
  8  5  1  0  0  0  0
  9  6  1  0  0  0  0
 10 14  1  0  0  0  0
 11 15  1  0  0  0  0
 12 13  1  0  0  0  0
 12 11  2  0  0  0  0
 13 10  2  0  0  0  0
 15 14  2  0  0  0  0
 16 17  1  0  0  0  0
 17 24  1  0  0  0  0
 18 23  1  0  0  0  0
 20 21  1  0  0  0  0
 22 27  1  0  0  0  0
 22 20  1  0  0  0  0
 23 20  2  0  0  0  0
 23 19  1  0  0  0  0
 24 22  2  0  0  0  0
 25 24  1  0  0  0  0
 25 18  2  0  0  0  0
 27 26  1  0  0  0  0
M  END
>  <MODEL>
8

>  <REMARK>
 VINA RESULT:      -7.1      2.969      7.539
  Name = 
  6 active torsions:
  status: ('A' for Active; 'I' for Inactive)
    1  A    between atoms: O_2  and  C_6
    2  A    between atoms: O_2  and  C_15
    3  A    between atoms: C_6  and  C_17
    4  A    between atoms: C_9  and  C_15
    5  A    between atoms: C_14  and  C_19
    6  A    between atoms: C_15  and  C_18
                            x       y       z     vdW  Elec       q    Type
                         _______ _______ _______ _____ _____    ______ ____

>  <TORSDO>
F 6

$$$$
=
 OpenBabel10262420073D

 27 29  0  0  1  0  0  0  0  0999 V2000
  187.6710  175.9890  143.2650 C   0  0  0  0  0  1  0  0  0  0  0  0
  187.9480  177.3910  143.8360 C   0  0  2  0  0  0  0  0  0  0  0  0
  191.5710  176.7370  144.9340 C   0  0  0  0  0  3  0  0  0  0  0  0
  191.4860  176.9220  146.3140 C   0  0  0  0  0  3  0  0  0  0  0  0
  189.1980  177.2610  144.7020 C   0  0  0  0  0  0  0  0  0  0  0  0
  190.5560  176.6750  142.7950 F   0  0  0  0  0  0  0  0  0  0  0  0
  190.2640  177.2580  146.8980 C   0  0  0  0  0  3  0  0  0  0  0  0
  189.1310  177.4180  146.1000 C   0  0  0  0  0  3  0  0  0  0  0  0
  190.4380  176.8960  144.1290 C   0  0  0  0  0  0  0  0  0  0  0  0
  184.5620  178.7080  146.2160 C   0  0  0  0  0  3  0  0  0  0  0  0
  186.7660  177.8970  144.6700 C   0  0  0  0  0  0  0  0  0  0  0  0
  186.7010  177.5910  146.0400 C   0  0  0  0  0  3  0  0  0  0  0  0
  185.6090  178.0000  146.8090 C   0  0  0  0  0  3  0  0  0  0  0  0
  184.6040  179.0040  144.8510 C   0  0  0  0  0  3  0  0  0  0  0  0
  185.6960  178.5950  144.0810 C   0  0  0  0  0  3  0  0  0  0  0  0
  188.2360  178.3090  142.7890 O   0  0  0  0  0  0  0  0  0  0  0  0
  187.1700  178.3620  141.8680 C   0  0  0  0  0  2  0  0  0  0  0  0
  189.6300  178.0960  139.0170 C   0  0  0  0  0  3  0  0  0  0  0  0
  189.3310  178.0360  136.6590 F   0  0  0  0  0  0  0  0  0  0  0  0
  187.4060  178.2200  138.0650 C   0  0  0  0  0  0  0  0  0  0  0  0
  186.5820  178.2400  136.9440 O   0  0  0  0  0  1  0  0  0  0  0  0
  186.8540  178.2990  139.3550 C   0  0  0  0  0  0  0  0  0  0  0  0
  188.7930  178.1170  137.9000 C   0  0  0  0  0  0  0  0  0  0  0  0
  187.7080  178.2940  140.4770 C   0  0  0  0  0  0  0  0  0  0  0  0
  189.0900  178.1830  140.3000 C   0  0  0  0  0  3  0  0  0  0  0  0
  184.9960  179.7640  139.4260 O   0  0  0  0  0  1  0  0  0  0  0  0
  185.3710  178.4240  139.5210 C   0  0  0  0  0  2  0  0  0  0  0  0
  2  1  1  6  0  0  0
  2 11  1  0  0  0  0
  2  5  1  0  0  0  0
  3  4  1  0  0  0  0
  4  7  2  0  0  0  0
  5  8  2  0  0  0  0
  6  9  1  0  0  0  0
  8  7  1  0  0  0  0
  9  5  1  0  0  0  0
  9  3  2  0  0  0  0
 10 13  1  0  0  0  0
 11 12  1  0  0  0  0
 12 13  2  0  0  0  0
 14 10  2  0  0  0  0
 15 11  2  0  0  0  0
 15 14  1  0  0  0  0
 16  2  1  0  0  0  0
 17 16  1  0  0  0  0
 18 25  1  0  0  0  0
 19 23  1  0  0  0  0
 20 22  2  0  0  0  0
 21 20  1  0  0  0  0
 22 27  1  0  0  0  0
 22 24  1  0  0  0  0
 23 20  1  0  0  0  0
 23 18  2  0  0  0  0
 24 17  1  0  0  0  0
 25 24  2  0  0  0  0
 26 27  1  0  0  0  0
M  END
>  <MODEL>
9

>  <REMARK>
 VINA RESULT:      -7.1      2.675      4.652
  Name = 
  6 active torsions:
  status: ('A' for Active; 'I' for Inactive)
    1  A    between atoms: O_2  and  C_6
    2  A    between atoms: O_2  and  C_15
    3  A    between atoms: C_6  and  C_17
    4  A    between atoms: C_9  and  C_15
    5  A    between atoms: C_14  and  C_19
    6  A    between atoms: C_15  and  C_18
                            x       y       z     vdW  Elec       q    Type
                         _______ _______ _______ _____ _____    ______ ____

>  <TORSDO>
F 6

$$$$
