=
 OpenBabel10262420403D

 55 60  0  0  1  0  0  0  0  0999 V2000
  189.2250  177.6710  143.8460 C   0  0  0  0  0  2  0  0  0  0  0  0
  189.0110  177.2570  141.0320 C   0  0  2  0  0  3  0  0  0  0  0  0
  188.3880  178.5240  141.6310 C   0  0  2  0  0  3  0  0  0  0  0  0
  189.8590  176.5320  143.0560 C   0  0  0  0  0  2  0  0  0  0  0  0
  189.0940  178.8890  142.9400 C   0  0  0  0  0  2  0  0  0  0  0  0
  189.0490  176.1810  141.9510 O   0  0  0  0  0  0  0  0  0  0  0  0
  190.3510  177.4960  140.3510 C   0  0  0  0  0  2  0  0  0  0  0  0
  190.6280  176.3530  139.3950 C   0  0  0  0  0  2  0  0  0  0  0  0
  189.5190  176.2280  138.3700 C   0  0  0  0  0  2  0  0  0  0  0  0
  189.8860  176.9150  137.0980 C   0  0  0  0  0  0  0  0  0  0  0  0
  189.9960  178.1690  137.0740 O   0  0  0  0  0  0  0  0  0  0  0  0
  190.1420  176.1550  135.9550 O   0  0  0  0  0  0  0  0  0  0  0  0
  188.4650  174.3550  136.0630 C   0  0  0  0  0  2  0  0  0  0  0  0
  189.8760  174.7590  135.8820 C   0  0  1  0  0  0  0  0  0  0  0  0
  189.0620  174.4380  134.7830 O   0  0  0  0  0  0  0  0  0  0  0  0
  191.0010  173.7480  136.1450 C   0  0  1  0  0  0  0  0  0  0  0  0
  191.2170  173.6730  137.5250 O   0  0  0  0  0  1  0  0  0  0  0  0
  190.6370  172.4900  135.6830 F   0  0  0  0  0  0  0  0  0  0  0  0
  192.8010  173.1990  134.6300 F   0  0  0  0  0  0  0  0  0  0  0  0
  192.3010  174.1880  135.4590 C   0  0  2  0  0  3  0  0  0  0  0  0
  193.3460  174.6760  136.4730 C   0  0  2  0  0  3  0  0  0  0  0  0
  193.6630  176.1520  136.2600 C   0  0  0  0  0  2  0  0  0  0  0  0
  195.2290  176.4040  135.3630 S   0  0  0  0  0  1  0  0  0  0  0  0
  194.6300  173.8390  136.5060 C   0  0  0  0  0  2  0  0  0  0  0  0
  195.2970  172.9180  138.6150 O   0  0  0  0  0  1  0  0  0  0  0  0
  194.5490  172.6500  137.4660 C   0  0  2  0  0  3  0  0  0  0  0  0
  194.9910  171.3270  136.8300 C   0  0  0  0  0  3  0  0  0  0  0  0
  195.7590  170.4980  137.8360 C   0  0  0  0  0  1  0  0  0  0  0  0
  193.7970  170.5220  136.3560 C   0  0  0  0  0  1  0  0  0  0  0  0
  186.9090  178.2620  141.8540 C   0  0  0  0  0  2  0  0  0  0  0  0
  186.1240  179.4930  141.7800 N   0  0  0  0  0  2  0  0  0  0  0  0
  184.6960  179.1610  141.6830 C   0  0  2  0  0  3  0  0  0  0  0  0
  184.0970  179.3490  144.1250 C   0  0  2  0  0  3  0  0  0  0  0  0
  182.8560  178.7740  143.4520 C   0  0  0  0  0  2  0  0  0  0  0  0
  184.2340  178.3940  142.9450 C   0  0  1  0  0  3  0  0  0  0  0  0
  184.4580  178.6440  145.2890 O   0  0  0  0  0  0  0  0  0  0  0  0
  186.6760  178.3940  147.3420 C   0  0  0  0  0  0  0  0  0  0  0  0
  187.2760  178.0520  148.3970 O   0  0  0  0  0  0  0  0  0  0  0  0
  186.5610  177.8380  145.9650 C   0  0  0  0  0  2  0  0  0  0  0  0
  185.7810  178.9970  145.6340 C   0  0  2  0  0  3  0  0  0  0  0  0
  185.8080  179.4900  146.9610 O   0  0  0  0  0  0  0  0  0  0  0  0
  184.3600  178.5120  140.3180 C   0  0  1  0  0  3  0  0  0  0  0  0
  182.2530  177.2340  139.8790 C   0  0  0  0  0  2  0  0  0  0  0  0
  180.2720  178.3970  138.8890 C   0  0  0  0  0  2  0  0  0  0  0  0
  182.5850  179.5090  138.7240 C   0  0  2  0  0  3  0  0  0  0  0  0
  181.0880  179.5940  138.3920 C   0  0  0  0  0  2  0  0  0  0  0  0
  181.1090  177.1300  138.8680 C   0  0  0  0  0  2  0  0  0  0  0  0
  182.8680  178.6430  139.9730 C   0  0  2  0  0  3  0  0  0  0  0  0
  183.0970  180.8540  138.9070 N   0  0  0  0  0  1  0  0  0  0  0  0
  185.1420  179.0550  139.2900 O   0  0  0  0  0  0  0  0  0  0  0  0
  185.2870  178.0210  138.3610 C   0  0  0  0  0  2  0  0  0  0  0  0
  186.5710  178.0270  136.3600 C   0  0  0  0  0  0  0  0  0  0  0  0
  186.8270  179.2940  137.1160 O   0  0  0  0  0  0  0  0  0  0  0  0
  186.3960  177.3710  135.2220 C   0  0  0  0  0  2  0  0  0  0  0  0
  186.6630  178.0850  137.7330 C   0  0  1  0  0  3  0  0  0  0  0  0
  2  7  1  1  0  0  0
  2  3  1  0  0  0  0
  2  6  1  0  0  0  0
  3 30  1  1  0  0  0
  3  5  1  0  0  0  0
  4  1  1  0  0  0  0
  5  1  1  0  0  0  0
  6  4  1  0  0  0  0
  8  7  1  0  0  0  0
  9  8  1  0  0  0  0
 10  9  1  0  0  0  0
 11 10  2  0  0  0  0
 12 10  1  0  0  0  0
 14 12  1  1  0  0  0
 14 13  1  0  0  0  0
 14 16  1  0  0  0  0
 15 14  1  0  0  0  0
 15 13  1  0  0  0  0
 16 18  1  6  0  0  0
 16 17  1  0  0  0  0
 20 19  1  1  0  0  0
 20 16  1  0  0  0  0
 20 21  1  0  0  0  0
 21 22  1  6  0  0  0
 21 24  1  0  0  0  0
 23 22  1  0  0  0  0
 24 26  1  0  0  0  0
 26 25  1  1  0  0  0
 27 26  1  0  0  0  0
 27 28  1  0  0  0  0
 29 27  1  0  0  0  0
 31 30  1  0  0  0  0
 32 31  1  1  0  0  0
 33 36  1  1  0  0  0
 34 33  1  0  0  0  0
 35 32  1  6  0  0  0
 35 34  1  0  0  0  0
 35 33  1  0  0  0  0
 37 38  2  0  0  0  0
 39 37  1  0  0  0  0
 40 36  1  1  0  0  0
 40 39  1  0  0  0  0
 40 41  1  0  0  0  0
 41 37  1  0  0  0  0
 42 50  1  6  0  0  0
 42 32  1  0  0  0  0
 43 48  1  0  0  0  0
 45 49  1  1  0  0  0
 45 48  1  0  0  0  0
 46 45  1  0  0  0  0
 46 44  1  0  0  0  0
 47 44  1  0  0  0  0
 47 43  1  0  0  0  0
 48 42  1  6  0  0  0
 51 50  1  0  0  0  0
 52 53  1  0  0  0  0
 52 55  1  0  0  0  0
 53 55  1  0  0  0  0
 54 52  2  0  0  0  0
 55 51  1  1  0  0  0
M  END
>  <MODEL>
1

>  <REMARK>
 VINA RESULT:      -6.2      0.000      0.000
  Name = 
  24 active torsions:
  status: ('A' for Active; 'I' for Inactive)
    1  A    between atoms: C_1  and  C_29
    2  A    between atoms: C_2  and  N_28
    3  A    between atoms: C_2  and  C_31
    4  A    between atoms: C_3  and  C_29
    5  A    between atoms: C_3  and  C_38
    6  A    between atoms: C_6  and  C_14
    7  A    between atoms: C_6  and  C_20
    8  A    between atoms: C_8  and  O_22
    9  A    between atoms: C_8  and  C_35
   10  A    between atoms: C_11  and  C_38
   11  A    between atoms: C_13  and  O_48
   12  A    between atoms: C_14  and  C_38
   13  A    between atoms: C_19  and  C_40
   14  A    between atoms: C_19  and  O_45
   15  A    between atoms: C_20  and  O_22
   16  A    between atoms: C_26  and  C_49
   17  A    between atoms: C_27  and  C_54
   18  A    between atoms: N_28  and  C_33
   19  A    between atoms: C_33  and  C_49
   20  A    between atoms: C_33  and  C_52
   21  A    between atoms: C_35  and  C_51
   22  A    between atoms: C_39  and  O_48
   23  A    between atoms: O_45  and  C_49
   24  A    between atoms: C_51  and  C_54
                            x       y       z     vdW  Elec       q    Type
                         _______ _______ _______ _____ _____    ______ ____

>  <TORSDO>
F 24

$$$$
=
 OpenBabel10262420403D

 55 60  0  0  1  0  0  0  0  0999 V2000
  185.8770  178.1890  144.2950 C   0  0  0  0  0  2  0  0  0  0  0  0
  186.0040  178.9210  141.5410 C   0  0  2  0  0  3  0  0  0  0  0  0
  187.0980  178.0050  142.1020 C   0  0  2  0  0  3  0  0  0  0  0  0
  184.8380  179.0050  143.5350 C   0  0  0  0  0  2  0  0  0  0  0  0
  186.5730  177.2440  143.3230 C   0  0  0  0  0  2  0  0  0  0  0  0
  185.4540  179.7790  142.5240 O   0  0  0  0  0  0  0  0  0  0  0  0
  184.9390  178.1850  140.7410 C   0  0  0  0  0  2  0  0  0  0  0  0
  184.4150  179.1060  139.6570 C   0  0  0  0  0  2  0  0  0  0  0  0
  184.3460  178.3840  138.3250 C   0  0  0  0  0  2  0  0  0  0  0  0
  182.9510  177.9530  138.0230 C   0  0  0  0  0  0  0  0  0  0  0  0
  182.1060  177.8710  138.9540 O   0  0  0  0  0  0  0  0  0  0  0  0
  182.5850  177.6810  136.7030 O   0  0  0  0  0  0  0  0  0  0  0  0
  183.6120  176.2120  135.0140 C   0  0  0  0  0  2  0  0  0  0  0  0
  182.6620  176.3780  136.1350 C   0  0  1  0  0  0  0  0  0  0  0  0
  183.9250  175.7960  136.3290 O   0  0  0  0  0  0  0  0  0  0  0  0
  181.4900  175.3990  136.2960 C   0  0  1  0  0  0  0  0  0  0  0  0
  180.3370  176.1310  136.5990 O   0  0  0  0  0  1  0  0  0  0  0  0
  181.2770  174.7040  135.1130 F   0  0  0  0  0  0  0  0  0  0  0  0
  182.7600  174.8570  138.2780 F   0  0  0  0  0  0  0  0  0  0  0  0
  181.7630  174.4040  137.4310 C   0  0  2  0  0  3  0  0  0  0  0  0
  182.0540  172.9940  136.8990 C   0  0  2  0  0  3  0  0  0  0  0  0
  181.0170  171.9960  137.4060 C   0  0  0  0  0  2  0  0  0  0  0  0
  179.3170  172.6410  137.2920 S   0  0  0  0  0  1  0  0  0  0  0  0
  183.4760  172.4950  137.1780 C   0  0  0  0  0  2  0  0  0  0  0  0
  184.2740  170.8920  135.5870 O   0  0  0  0  0  1  0  0  0  0  0  0
  184.2900  172.2520  135.9060 C   0  0  2  0  0  3  0  0  0  0  0  0
  185.7300  172.7690  136.0000 C   0  0  0  0  0  3  0  0  0  0  0  0
  186.0560  173.1390  137.4310 C   0  0  0  0  0  1  0  0  0  0  0  0
  186.7200  171.7160  135.5400 C   0  0  0  0  0  1  0  0  0  0  0  0
  188.2970  178.8650  142.4600 C   0  0  0  0  0  2  0  0  0  0  0  0
  189.3690  178.7360  141.4760 N   0  0  0  0  0  2  0  0  0  0  0  0
  189.4500  177.3430  141.0150 C   0  0  2  0  0  3  0  0  0  0  0  0
  190.3330  176.9210  143.3380 C   0  0  2  0  0  3  0  0  0  0  0  0
  189.8590  175.5600  142.8370 C   0  0  0  0  0  2  0  0  0  0  0  0
  190.4710  176.5520  141.8650 C   0  0  1  0  0  3  0  0  0  0  0  0
  191.6170  176.8680  143.9130 O   0  0  0  0  0  0  0  0  0  0  0  0
  190.2450  176.9970  146.6150 C   0  0  0  0  0  0  0  0  0  0  0  0
  189.4350  176.7250  147.5420 O   0  0  0  0  0  0  0  0  0  0  0  0
  191.6140  176.5440  146.2420 C   0  0  0  0  0  2  0  0  0  0  0  0
  191.5680  177.5020  145.1740 C   0  0  2  0  0  3  0  0  0  0  0  0
  190.2340  177.8760  145.4640 O   0  0  0  0  0  0  0  0  0  0  0  0
  189.6230  177.2670  139.4780 C   0  0  1  0  0  3  0  0  0  0  0  0
  192.0840  177.0250  139.0940 C   0  0  0  0  0  2  0  0  0  0  0  0
  192.9720  174.9940  137.9360 C   0  0  0  0  0  2  0  0  0  0  0  0
  190.4690  175.5490  137.7410 C   0  0  2  0  0  3  0  0  0  0  0  0
  191.6110  174.5990  137.3550 C   0  0  0  0  0  2  0  0  0  0  0  0
  193.0860  176.5030  138.0620 C   0  0  0  0  0  2  0  0  0  0  0  0
  190.7340  176.2850  139.0740 C   0  0  2  0  0  3  0  0  0  0  0  0
  189.2360  174.7880  137.8120 N   0  0  0  0  0  1  0  0  0  0  0  0
  188.4210  176.9210  138.8470 O   0  0  0  0  0  0  0  0  0  0  0  0
  187.8390  178.1400  138.4860 C   0  0  0  0  0  2  0  0  0  0  0  0
  187.5770  177.8660  136.1380 C   0  0  0  0  0  0  0  0  0  0  0  0
  187.3370  179.2990  136.5000 O   0  0  0  0  0  0  0  0  0  0  0  0
  187.2950  176.7870  135.4230 C   0  0  0  0  0  2  0  0  0  0  0  0
  188.3000  178.5370  137.1000 C   0  0  1  0  0  3  0  0  0  0  0  0
  2  7  1  1  0  0  0
  2  3  1  0  0  0  0
  2  6  1  0  0  0  0
  3 30  1  1  0  0  0
  3  5  1  0  0  0  0
  4  1  1  0  0  0  0
  5  1  1  0  0  0  0
  6  4  1  0  0  0  0
  8  7  1  0  0  0  0
  9  8  1  0  0  0  0
 10  9  1  0  0  0  0
 10 11  2  0  0  0  0
 12 10  1  0  0  0  0
 13 14  1  0  0  0  0
 13 15  1  0  0  0  0
 14 16  1  0  0  0  0
 14 15  1  0  0  0  0
 14 12  1  1  0  0  0
 16 18  1  6  0  0  0
 16 17  1  0  0  0  0
 16 20  1  0  0  0  0
 20 19  1  6  0  0  0
 21 24  1  1  0  0  0
 21 22  1  0  0  0  0
 21 20  1  0  0  0  0
 23 22  1  0  0  0  0
 26 25  1  1  0  0  0
 26 27  1  0  0  0  0
 26 24  1  0  0  0  0
 27 28  1  0  0  0  0
 29 27  1  0  0  0  0
 31 30  1  0  0  0  0
 32 31  1  1  0  0  0
 33 36  1  1  0  0  0
 34 33  1  0  0  0  0
 35 32  1  6  0  0  0
 35 34  1  0  0  0  0
 35 33  1  0  0  0  0
 37 38  2  0  0  0  0
 39 37  1  0  0  0  0
 40 36  1  6  0  0  0
 40 41  1  0  0  0  0
 40 39  1  0  0  0  0
 41 37  1  0  0  0  0
 42 50  1  6  0  0  0
 42 32  1  0  0  0  0
 44 47  1  0  0  0  0
 45 49  1  1  0  0  0
 45 48  1  0  0  0  0
 46 45  1  0  0  0  0
 46 44  1  0  0  0  0
 47 43  1  0  0  0  0
 48 43  1  0  0  0  0
 48 42  1  6  0  0  0
 51 50  1  0  0  0  0
 52 53  1  0  0  0  0
 52 55  1  0  0  0  0
 53 55  1  0  0  0  0
 54 52  2  0  0  0  0
 55 51  1  1  0  0  0
M  END
>  <MODEL>
2

>  <REMARK>
 VINA RESULT:      -5.9      4.070      7.877
  Name = 
  24 active torsions:
  status: ('A' for Active; 'I' for Inactive)
    1  A    between atoms: C_1  and  C_29
    2  A    between atoms: C_2  and  N_28
    3  A    between atoms: C_2  and  C_31
    4  A    between atoms: C_3  and  C_29
    5  A    between atoms: C_3  and  C_38
    6  A    between atoms: C_6  and  C_14
    7  A    between atoms: C_6  and  C_20
    8  A    between atoms: C_8  and  O_22
    9  A    between atoms: C_8  and  C_35
   10  A    between atoms: C_11  and  C_38
   11  A    between atoms: C_13  and  O_48
   12  A    between atoms: C_14  and  C_38
   13  A    between atoms: C_19  and  C_40
   14  A    between atoms: C_19  and  O_45
   15  A    between atoms: C_20  and  O_22
   16  A    between atoms: C_26  and  C_49
   17  A    between atoms: C_27  and  C_54
   18  A    between atoms: N_28  and  C_33
   19  A    between atoms: C_33  and  C_49
   20  A    between atoms: C_33  and  C_52
   21  A    between atoms: C_35  and  C_51
   22  A    between atoms: C_39  and  O_48
   23  A    between atoms: O_45  and  C_49
   24  A    between atoms: C_51  and  C_54
                            x       y       z     vdW  Elec       q    Type
                         _______ _______ _______ _____ _____    ______ ____

>  <TORSDO>
F 24

$$$$
=
 OpenBabel10262420403D

 55 60  0  0  1  0  0  0  0  0999 V2000
  189.3140  177.3850  143.7600 C   0  0  0  0  0  2  0  0  0  0  0  0
  189.3820  177.3410  140.9090 C   0  0  2  0  0  3  0  0  0  0  0  0
  188.7090  178.5310  141.6030 C   0  0  2  0  0  3  0  0  0  0  0  0
  190.0190  176.3460  142.8960 C   0  0  0  0  0  2  0  0  0  0  0  0
  189.2810  178.7110  143.0120 C   0  0  0  0  0  2  0  0  0  0  0  0
  189.3210  176.1540  141.6800 O   0  0  0  0  0  0  0  0  0  0  0  0
  190.7850  177.6420  140.4010 C   0  0  0  0  0  2  0  0  0  0  0  0
  191.1400  176.6420  139.3190 C   0  0  0  0  0  2  0  0  0  0  0  0
  189.9280  176.3140  138.4690 C   0  0  0  0  0  2  0  0  0  0  0  0
  190.0640  176.8880  137.1000 C   0  0  0  0  0  0  0  0  0  0  0  0
  189.7710  178.0970  136.8980 O   0  0  0  0  0  0  0  0  0  0  0  0
  190.5490  176.0890  136.0630 O   0  0  0  0  0  0  0  0  0  0  0  0
  189.9630  173.7540  136.5810 C   0  0  0  0  0  2  0  0  0  0  0  0
  191.0040  174.7570  136.2660 C   0  0  1  0  0  0  0  0  0  0  0  0
  190.5130  173.8800  135.2840 O   0  0  0  0  0  0  0  0  0  0  0  0
  192.4640  174.4950  136.6650 C   0  0  1  0  0  0  0  0  0  0  0  0
  193.1820  175.6870  136.5300 O   0  0  0  0  0  1  0  0  0  0  0  0
  192.5350  174.0800  137.9880 F   0  0  0  0  0  0  0  0  0  0  0  0
  192.3710  172.2470  135.7850 F   0  0  0  0  0  0  0  0  0  0  0  0
  193.0930  173.4270  135.7610 C   0  0  2  0  0  3  0  0  0  0  0  0
  194.5770  173.2040  136.0860 C   0  0  2  0  0  3  0  0  0  0  0  0
  194.7620  171.9710  136.9650 C   0  0  0  0  0  2  0  0  0  0  0  0
  195.1430  170.4770  135.9960 S   0  0  0  0  0  1  0  0  0  0  0  0
  195.2780  174.4220  136.6960 C   0  0  0  0  0  2  0  0  0  0  0  0
  195.5100  174.9550  139.0200 O   0  0  0  0  0  1  0  0  0  0  0  0
  195.9880  174.1100  138.0150 C   0  0  2  0  0  3  0  0  0  0  0  0
  197.5150  174.1980  137.9170 C   0  0  0  0  0  3  0  0  0  0  0  0
  197.9130  174.9140  136.6450 C   0  0  0  0  0  1  0  0  0  0  0  0
  198.0960  174.9550  139.0960 C   0  0  0  0  0  1  0  0  0  0  0  0
  187.2130  178.2700  141.6440 C   0  0  0  0  0  2  0  0  0  0  0  0
  186.4510  179.3990  141.1150 N   0  0  0  0  0  2  0  0  0  0  0  0
  185.0860  178.9630  140.7900 C   0  0  2  0  0  3  0  0  0  0  0  0
  184.1120  179.1910  143.1040 C   0  0  2  0  0  3  0  0  0  0  0  0
  183.0090  178.5530  142.2670 C   0  0  0  0  0  2  0  0  0  0  0  0
  184.4610  178.2120  141.9890 C   0  0  1  0  0  3  0  0  0  0  0  0
  184.3120  178.5300  144.3310 O   0  0  0  0  0  0  0  0  0  0  0  0
  186.1950  178.4330  146.7070 C   0  0  0  0  0  0  0  0  0  0  0  0
  186.6280  178.1630  147.8600 O   0  0  0  0  0  0  0  0  0  0  0  0
  186.2900  177.7910  145.3660 C   0  0  0  0  0  2  0  0  0  0  0  0
  185.5670  178.9190  144.8490 C   0  0  2  0  0  3  0  0  0  0  0  0
  185.3910  179.4920  146.1310 O   0  0  0  0  0  0  0  0  0  0  0  0
  185.0350  178.2430  139.4200 C   0  0  1  0  0  3  0  0  0  0  0  0
  183.3180  180.0150  139.0010 C   0  0  0  0  0  2  0  0  0  0  0  0
  181.1940  179.4380  137.8140 C   0  0  0  0  0  2  0  0  0  0  0  0
  182.6200  177.5460  138.8140 C   0  0  2  0  0  3  0  0  0  0  0  0
  181.3480  177.9310  138.0460 C   0  0  0  0  0  2  0  0  0  0  0  0
  181.8020  180.2240  138.9620 C   0  0  0  0  0  2  0  0  0  0  0  0
  183.7540  178.5820  138.6420 C   0  0  2  0  0  3  0  0  0  0  0  0
  183.0530  176.2350  138.3660 N   0  0  0  0  0  1  0  0  0  0  0  0
  186.1640  178.5430  138.6450 O   0  0  0  0  0  0  0  0  0  0  0  0
  186.3760  177.4050  137.8620 C   0  0  0  0  0  2  0  0  0  0  0  0
  186.5320  176.6760  135.6030 C   0  0  0  0  0  0  0  0  0  0  0  0
  185.2890  177.4930  135.7760 O   0  0  0  0  0  0  0  0  0  0  0  0
  187.1810  175.6510  135.0720 C   0  0  0  0  0  2  0  0  0  0  0  0
  186.4650  177.7960  136.4020 C   0  0  1  0  0  3  0  0  0  0  0  0
  2  7  1  1  0  0  0
  2  3  1  0  0  0  0
  2  6  1  0  0  0  0
  3 30  1  1  0  0  0
  3  5  1  0  0  0  0
  4  1  1  0  0  0  0
  5  1  1  0  0  0  0
  6  4  1  0  0  0  0
  8  7  1  0  0  0  0
  9  8  1  0  0  0  0
 10  9  1  0  0  0  0
 11 10  2  0  0  0  0
 12 10  1  0  0  0  0
 14 12  1  6  0  0  0
 14 13  1  0  0  0  0
 14 16  1  0  0  0  0
 15 14  1  0  0  0  0
 15 13  1  0  0  0  0
 16 17  1  6  0  0  0
 16 18  1  0  0  0  0
 20 19  1  1  0  0  0
 20 21  1  0  0  0  0
 20 16  1  0  0  0  0
 21 24  1  1  0  0  0
 21 22  1  0  0  0  0
 23 22  1  0  0  0  0
 24 26  1  0  0  0  0
 26 25  1  1  0  0  0
 27 26  1  0  0  0  0
 27 29  1  0  0  0  0
 28 27  1  0  0  0  0
 31 30  1  0  0  0  0
 32 31  1  1  0  0  0
 33 36  1  1  0  0  0
 34 33  1  0  0  0  0
 35 32  1  6  0  0  0
 35 34  1  0  0  0  0
 35 33  1  0  0  0  0
 37 38  2  0  0  0  0
 39 37  1  0  0  0  0
 40 36  1  1  0  0  0
 40 39  1  0  0  0  0
 40 41  1  0  0  0  0
 41 37  1  0  0  0  0
 42 50  1  6  0  0  0
 42 32  1  0  0  0  0
 44 46  1  0  0  0  0
 44 47  1  0  0  0  0
 45 49  1  6  0  0  0
 46 45  1  0  0  0  0
 47 43  1  0  0  0  0
 48 45  1  0  0  0  0
 48 43  1  0  0  0  0
 48 42  1  1  0  0  0
 51 50  1  0  0  0  0
 52 53  1  0  0  0  0
 52 55  1  0  0  0  0
 53 55  1  0  0  0  0
 54 52  2  0  0  0  0
 55 51  1  1  0  0  0
M  END
>  <MODEL>
3

>  <REMARK>
 VINA RESULT:      -5.9      1.775      2.234
  Name = 
  24 active torsions:
  status: ('A' for Active; 'I' for Inactive)
    1  A    between atoms: C_1  and  C_29
    2  A    between atoms: C_2  and  N_28
    3  A    between atoms: C_2  and  C_31
    4  A    between atoms: C_3  and  C_29
    5  A    between atoms: C_3  and  C_38
    6  A    between atoms: C_6  and  C_14
    7  A    between atoms: C_6  and  C_20
    8  A    between atoms: C_8  and  O_22
    9  A    between atoms: C_8  and  C_35
   10  A    between atoms: C_11  and  C_38
   11  A    between atoms: C_13  and  O_48
   12  A    between atoms: C_14  and  C_38
   13  A    between atoms: C_19  and  C_40
   14  A    between atoms: C_19  and  O_45
   15  A    between atoms: C_20  and  O_22
   16  A    between atoms: C_26  and  C_49
   17  A    between atoms: C_27  and  C_54
   18  A    between atoms: N_28  and  C_33
   19  A    between atoms: C_33  and  C_49
   20  A    between atoms: C_33  and  C_52
   21  A    between atoms: C_35  and  C_51
   22  A    between atoms: C_39  and  O_48
   23  A    between atoms: O_45  and  C_49
   24  A    between atoms: C_51  and  C_54
                            x       y       z     vdW  Elec       q    Type
                         _______ _______ _______ _____ _____    ______ ____

>  <TORSDO>
F 24

$$$$
=
 OpenBabel10262420403D

 55 60  0  0  1  0  0  0  0  0999 V2000
  181.2280  179.3260  140.5430 C   0  0  0  0  0  2  0  0  0  0  0  0
  183.6830  178.2780  141.5480 C   0  0  2  0  0  3  0  0  0  0  0  0
  183.6450  178.7830  140.1010 C   0  0  2  0  0  3  0  0  0  0  0  0
  181.4890  178.8710  141.9730 C   0  0  0  0  0  2  0  0  0  0  0  0
  182.5340  179.8230  139.9350 C   0  0  0  0  0  2  0  0  0  0  0  0
  182.4230  177.8080  141.9950 O   0  0  0  0  0  0  0  0  0  0  0  0
  184.3250  179.2560  142.5220 C   0  0  0  0  0  2  0  0  0  0  0  0
  184.8660  178.4840  143.7080 C   0  0  0  0  0  2  0  0  0  0  0  0
  184.3710  179.0830  145.0110 C   0  0  0  0  0  2  0  0  0  0  0  0
  185.3220  178.8010  146.1240 C   0  0  0  0  0  0  0  0  0  0  0  0
  185.5370  179.6810  146.9990 O   0  0  0  0  0  0  0  0  0  0  0  0
  185.9370  177.5500  146.2040 O   0  0  0  0  0  0  0  0  0  0  0  0
  187.8570  176.8730  144.8200 C   0  0  0  0  0  2  0  0  0  0  0  0
  187.3460  177.3770  146.1130 C   0  0  1  0  0  0  0  0  0  0  0  0
  187.9200  178.2420  145.1670 O   0  0  0  0  0  0  0  0  0  0  0  0
  188.1840  177.1980  147.3880 C   0  0  1  0  0  0  0  0  0  0  0  0
  187.6480  178.0140  148.3890 O   0  0  0  0  0  1  0  0  0  0  0  0
  188.1350  175.8790  147.8160 F   0  0  0  0  0  0  0  0  0  0  0  0
  189.7330  178.7250  146.3370 F   0  0  0  0  0  0  0  0  0  0  0  0
  189.6430  177.6030  147.1420 C   0  0  2  0  0  3  0  0  0  0  0  0
  190.4760  176.4340  146.5970 C   0  0  2  0  0  3  0  0  0  0  0  0
  191.0640  175.6070  147.7360 C   0  0  0  0  0  2  0  0  0  0  0  0
  192.8230  175.9800  148.0300 S   0  0  0  0  0  1  0  0  0  0  0  0
  191.5660  176.8470  145.6020 C   0  0  0  0  0  2  0  0  0  0  0  0
  191.9510  175.3070  143.8080 O   0  0  0  0  0  1  0  0  0  0  0  0
  191.2420  176.4590  144.1580 C   0  0  2  0  0  3  0  0  0  0  0  0
  191.5110  177.5840  143.1530 C   0  0  0  0  0  3  0  0  0  0  0  0
  190.4730  177.5570  142.0520 C   0  0  0  0  0  1  0  0  0  0  0  0
  191.4590  178.9420  143.8270 C   0  0  0  0  0  1  0  0  0  0  0  0
  183.4250  177.5880  139.1890 C   0  0  0  0  0  2  0  0  0  0  0  0
  183.4210  177.9750  137.7800 N   0  0  0  0  0  2  0  0  0  0  0  0
  183.1080  176.8040  136.9500 C   0  0  2  0  0  3  0  0  0  0  0  0
  185.4070  175.7720  136.9160 C   0  0  2  0  0  3  0  0  0  0  0  0
  184.5800  174.9370  135.9430 C   0  0  0  0  0  2  0  0  0  0  0  0
  184.3220  176.4270  136.0690 C   0  0  1  0  0  3  0  0  0  0  0  0
  186.6530  176.1500  136.3800 O   0  0  0  0  0  0  0  0  0  0  0  0
  188.1330  178.3760  137.8140 C   0  0  0  0  0  0  0  0  0  0  0  0
  188.9390  178.9420  138.6010 O   0  0  0  0  0  0  0  0  0  0  0  0
  188.1750  177.9430  136.3900 C   0  0  0  0  0  2  0  0  0  0  0  0
  186.8030  177.5450  136.5390 C   0  0  2  0  0  3  0  0  0  0  0  0
  186.7790  177.8690  137.9170 O   0  0  0  0  0  0  0  0  0  0  0  0
  181.7520  176.9760  136.2210 C   0  0  1  0  0  3  0  0  0  0  0  0
  180.8290  175.8690  138.2680 C   0  0  0  0  0  2  0  0  0  0  0  0
  179.2720  173.9250  138.0400 C   0  0  0  0  0  2  0  0  0  0  0  0
  180.7090  174.6180  136.0230 C   0  0  2  0  0  3  0  0  0  0  0  0
  179.6590  173.6490  136.5840 C   0  0  0  0  0  2  0  0  0  0  0  0
  180.4520  174.4900  138.8120 C   0  0  0  0  0  2  0  0  0  0  0  0
  180.6940  175.9890  136.7380 C   0  0  2  0  0  3  0  0  0  0  0  0
  180.4770  174.7810  134.6000 N   0  0  0  0  0  1  0  0  0  0  0  0
  181.2790  178.2910  136.3300 O   0  0  0  0  0  0  0  0  0  0  0  0
  181.2960  178.7900  135.0250 C   0  0  0  0  0  2  0  0  0  0  0  0
  180.5470  180.8390  135.9720 C   0  0  0  0  0  0  0  0  0  0  0  0
  181.0740  181.0930  134.5940 O   0  0  0  0  0  0  0  0  0  0  0  0
  180.3910  181.1960  137.2390 C   0  0  0  0  0  2  0  0  0  0  0  0
  180.3590  179.9740  134.9170 C   0  0  1  0  0  3  0  0  0  0  0  0
  1  4  1  0  0  0  0
  2  6  1  0  0  0  0
  2  7  1  1  0  0  0
  3 30  1  6  0  0  0
  3  2  1  0  0  0  0
  4  6  1  0  0  0  0
  5  3  1  0  0  0  0
  5  1  1  0  0  0  0
  7  8  1  0  0  0  0
  8  9  1  0  0  0  0
  9 10  1  0  0  0  0
 10 12  1  0  0  0  0
 10 11  2  0  0  0  0
 13 15  1  0  0  0  0
 13 14  1  0  0  0  0
 14 12  1  1  0  0  0
 14 16  1  0  0  0  0
 15 14  1  0  0  0  0
 16 18  1  1  0  0  0
 16 17  1  0  0  0  0
 20 19  1  6  0  0  0
 20 16  1  0  0  0  0
 21 24  1  1  0  0  0
 21 20  1  0  0  0  0
 21 22  1  0  0  0  0
 22 23  1  0  0  0  0
 26 25  1  6  0  0  0
 26 24  1  0  0  0  0
 27 29  1  0  0  0  0
 27 26  1  0  0  0  0
 28 27  1  0  0  0  0
 31 30  1  0  0  0  0
 32 31  1  6  0  0  0
 33 36  1  6  0  0  0
 34 35  1  0  0  0  0
 34 33  1  0  0  0  0
 35 33  1  0  0  0  0
 35 32  1  1  0  0  0
 37 41  1  0  0  0  0
 37 38  2  0  0  0  0
 39 40  1  0  0  0  0
 39 37  1  0  0  0  0
 40 36  1  1  0  0  0
 40 41  1  0  0  0  0
 42 50  1  1  0  0  0
 42 32  1  0  0  0  0
 43 47  1  0  0  0  0
 44 47  1  0  0  0  0
 45 49  1  6  0  0  0
 45 46  1  0  0  0  0
 45 48  1  0  0  0  0
 46 44  1  0  0  0  0
 48 42  1  6  0  0  0
 48 43  1  0  0  0  0
 51 50  1  0  0  0  0
 52 54  2  0  0  0  0
 53 55  1  0  0  0  0
 53 52  1  0  0  0  0
 55 51  1  1  0  0  0
 55 52  1  0  0  0  0
M  END
>  <MODEL>
4

>  <REMARK>
 VINA RESULT:      -5.8      4.832      8.731
  Name = 
  24 active torsions:
  status: ('A' for Active; 'I' for Inactive)
    1  A    between atoms: C_1  and  C_29
    2  A    between atoms: C_2  and  N_28
    3  A    between atoms: C_2  and  C_31
    4  A    between atoms: C_3  and  C_29
    5  A    between atoms: C_3  and  C_38
    6  A    between atoms: C_6  and  C_14
    7  A    between atoms: C_6  and  C_20
    8  A    between atoms: C_8  and  O_22
    9  A    between atoms: C_8  and  C_35
   10  A    between atoms: C_11  and  C_38
   11  A    between atoms: C_13  and  O_48
   12  A    between atoms: C_14  and  C_38
   13  A    between atoms: C_19  and  C_40
   14  A    between atoms: C_19  and  O_45
   15  A    between atoms: C_20  and  O_22
   16  A    between atoms: C_26  and  C_49
   17  A    between atoms: C_27  and  C_54
   18  A    between atoms: N_28  and  C_33
   19  A    between atoms: C_33  and  C_49
   20  A    between atoms: C_33  and  C_52
   21  A    between atoms: C_35  and  C_51
   22  A    between atoms: C_39  and  O_48
   23  A    between atoms: O_45  and  C_49
   24  A    between atoms: C_51  and  C_54
                            x       y       z     vdW  Elec       q    Type
                         _______ _______ _______ _____ _____    ______ ____

>  <TORSDO>
F 24

$$$$
=
 OpenBabel10262420403D

 55 60  0  0  1  0  0  0  0  0999 V2000
  185.9520  178.7090  144.6430 C   0  0  0  0  0  2  0  0  0  0  0  0
  185.1160  178.8300  141.9190 C   0  0  2  0  0  3  0  0  0  0  0  0
  186.2030  177.8190  142.3030 C   0  0  2  0  0  3  0  0  0  0  0  0
  184.8240  179.5710  144.0890 C   0  0  0  0  0  2  0  0  0  0  0  0
  186.0850  177.4570  143.7860 C   0  0  0  0  0  2  0  0  0  0  0  0
  185.1090  179.9690  142.7610 O   0  0  0  0  0  0  0  0  0  0  0  0
  183.7350  178.2120  141.7530 C   0  0  0  0  0  2  0  0  0  0  0  0
  183.5260  177.8620  140.2930 C   0  0  0  0  0  2  0  0  0  0  0  0
  182.1350  178.2570  139.8390 C   0  0  0  0  0  2  0  0  0  0  0  0
  182.0960  178.4790  138.3650 C   0  0  0  0  0  0  0  0  0  0  0  0
  181.5960  179.5390  137.9060 O   0  0  0  0  0  0  0  0  0  0  0  0
  182.6500  177.5230  137.5110 O   0  0  0  0  0  0  0  0  0  0  0  0
  180.5190  176.2890  137.4770 C   0  0  0  0  0  2  0  0  0  0  0  0
  181.8890  176.4610  136.9470 C   0  0  1  0  0  0  0  0  0  0  0  0
  180.7690  176.9350  136.2440 O   0  0  0  0  0  0  0  0  0  0  0  0
  182.6000  175.2810  136.2680 C   0  0  1  0  0  0  0  0  0  0  0  0
  181.7340  174.7260  135.3210 O   0  0  0  0  0  1  0  0  0  0  0  0
  183.7470  175.7170  135.6200 F   0  0  0  0  0  0  0  0  0  0  0  0
  183.7360  174.7250  138.3270 F   0  0  0  0  0  0  0  0  0  0  0  0
  182.9710  174.2050  137.2970 C   0  0  2  0  0  3  0  0  0  0  0  0
  183.6390  172.9900  136.6380 C   0  0  2  0  0  3  0  0  0  0  0  0
  182.9920  171.6910  137.1080 C   0  0  0  0  0  2  0  0  0  0  0  0
  181.1760  171.7290  136.9690 S   0  0  0  0  0  1  0  0  0  0  0  0
  185.1610  172.9370  136.8110 C   0  0  0  0  0  2  0  0  0  0  0  0
  185.2120  172.0130  134.6000 O   0  0  0  0  0  1  0  0  0  0  0  0
  185.9150  172.8380  135.4830 C   0  0  2  0  0  3  0  0  0  0  0  0
  187.3600  172.3510  135.6410 C   0  0  0  0  0  3  0  0  0  0  0  0
  188.2980  173.2490  134.8660 C   0  0  0  0  0  1  0  0  0  0  0  0
  187.7820  172.3590  137.0980 C   0  0  0  0  0  1  0  0  0  0  0  0
  187.5550  178.4380  141.9910 C   0  0  0  0  0  2  0  0  0  0  0  0
  187.9190  178.2640  140.5870 N   0  0  0  0  0  2  0  0  0  0  0  0
  189.0330  177.3120  140.4820 C   0  0  2  0  0  3  0  0  0  0  0  0
  190.8960  176.8670  142.1210 C   0  0  2  0  0  3  0  0  0  0  0  0
  191.5910  177.1740  140.7990 C   0  0  0  0  0  2  0  0  0  0  0  0
  190.3010  177.8870  141.1560 C   0  0  1  0  0  3  0  0  0  0  0  0
  191.4520  177.5770  143.2030 O   0  0  0  0  0  0  0  0  0  0  0  0
  189.9770  177.5380  145.8520 C   0  0  0  0  0  0  0  0  0  0  0  0
  189.2340  177.9220  146.7970 O   0  0  0  0  0  0  0  0  0  0  0  0
  189.7820  176.7230  144.6210 C   0  0  0  0  0  2  0  0  0  0  0  0
  191.1930  176.8570  144.3900 C   0  0  2  0  0  3  0  0  0  0  0  0
  191.3740  177.7070  145.5070 O   0  0  0  0  0  0  0  0  0  0  0  0
  189.1960  176.7930  139.0320 C   0  0  1  0  0  3  0  0  0  0  0  0
  187.3580  176.0620  137.4980 C   0  0  0  0  0  2  0  0  0  0  0  0
  186.2410  177.7300  136.0060 C   0  0  0  0  0  2  0  0  0  0  0  0
  188.5110  178.3200  137.0600 C   0  0  2  0  0  3  0  0  0  0  0  0
  187.3610  178.7660  136.1460 C   0  0  0  0  0  2  0  0  0  0  0  0
  186.7980  176.3200  136.0980 C   0  0  0  0  0  2  0  0  0  0  0  0
  188.0630  177.2840  138.1170 C   0  0  2  0  0  3  0  0  0  0  0  0
  189.0760  179.4930  137.7000 N   0  0  0  0  0  1  0  0  0  0  0  0
  190.4390  177.1580  138.4970 O   0  0  0  0  0  0  0  0  0  0  0  0
  190.9390  175.9890  137.9170 C   0  0  0  0  0  2  0  0  0  0  0  0
  193.1190  175.3330  137.2290 C   0  0  0  0  0  0  0  0  0  0  0  0
  192.2340  175.4500  136.0270 O   0  0  0  0  0  0  0  0  0  0  0  0
  194.0900  174.7310  137.9000 C   0  0  0  0  0  2  0  0  0  0  0  0
  192.1610  176.3130  137.0840 C   0  0  1  0  0  3  0  0  0  0  0  0
  2  7  1  1  0  0  0
  2  3  1  0  0  0  0
  2  6  1  0  0  0  0
  3 30  1  1  0  0  0
  3  5  1  0  0  0  0
  4  1  1  0  0  0  0
  5  1  1  0  0  0  0
  6  4  1  0  0  0  0
  8  7  1  0  0  0  0
  9  8  1  0  0  0  0
 10  9  1  0  0  0  0
 11 10  2  0  0  0  0
 12 10  1  0  0  0  0
 14 13  1  0  0  0  0
 14 12  1  1  0  0  0
 15 14  1  0  0  0  0
 15 13  1  0  0  0  0
 16 17  1  6  0  0  0
 16 14  1  0  0  0  0
 16 20  1  0  0  0  0
 18 16  1  0  0  0  0
 20 19  1  1  0  0  0
 21 24  1  1  0  0  0
 21 22  1  0  0  0  0
 21 20  1  0  0  0  0
 23 22  1  0  0  0  0
 26 25  1  6  0  0  0
 26 27  1  0  0  0  0
 26 24  1  0  0  0  0
 27 29  1  0  0  0  0
 28 27  1  0  0  0  0
 31 30  1  0  0  0  0
 32 31  1  6  0  0  0
 33 36  1  1  0  0  0
 34 35  1  0  0  0  0
 34 33  1  0  0  0  0
 35 32  1  6  0  0  0
 35 33  1  0  0  0  0
 37 38  2  0  0  0  0
 39 37  1  0  0  0  0
 40 36  1  6  0  0  0
 40 39  1  0  0  0  0
 40 41  1  0  0  0  0
 41 37  1  0  0  0  0
 42 50  1  6  0  0  0
 42 32  1  0  0  0  0
 43 48  1  0  0  0  0
 44 47  1  0  0  0  0
 44 46  1  0  0  0  0
 45 49  1  1  0  0  0
 45 48  1  0  0  0  0
 46 45  1  0  0  0  0
 47 43  1  0  0  0  0
 48 42  1  6  0  0  0
 51 50  1  0  0  0  0
 52 54  2  0  0  0  0
 53 55  1  0  0  0  0
 53 52  1  0  0  0  0
 55 52  1  0  0  0  0
 55 51  1  1  0  0  0
M  END
>  <MODEL>
5

>  <REMARK>
 VINA RESULT:      -5.8      3.657      7.340
  Name = 
  24 active torsions:
  status: ('A' for Active; 'I' for Inactive)
    1  A    between atoms: C_1  and  C_29
    2  A    between atoms: C_2  and  N_28
    3  A    between atoms: C_2  and  C_31
    4  A    between atoms: C_3  and  C_29
    5  A    between atoms: C_3  and  C_38
    6  A    between atoms: C_6  and  C_14
    7  A    between atoms: C_6  and  C_20
    8  A    between atoms: C_8  and  O_22
    9  A    between atoms: C_8  and  C_35
   10  A    between atoms: C_11  and  C_38
   11  A    between atoms: C_13  and  O_48
   12  A    between atoms: C_14  and  C_38
   13  A    between atoms: C_19  and  C_40
   14  A    between atoms: C_19  and  O_45
   15  A    between atoms: C_20  and  O_22
   16  A    between atoms: C_26  and  C_49
   17  A    between atoms: C_27  and  C_54
   18  A    between atoms: N_28  and  C_33
   19  A    between atoms: C_33  and  C_49
   20  A    between atoms: C_33  and  C_52
   21  A    between atoms: C_35  and  C_51
   22  A    between atoms: C_39  and  O_48
   23  A    between atoms: O_45  and  C_49
   24  A    between atoms: C_51  and  C_54
                            x       y       z     vdW  Elec       q    Type
                         _______ _______ _______ _____ _____    ______ ____

>  <TORSDO>
F 24

$$$$
=
 OpenBabel10262420403D

 55 60  0  0  1  0  0  0  0  0999 V2000
  185.0840  179.1420  139.3310 C   0  0  0  0  0  2  0  0  0  0  0  0
  186.5630  177.0990  137.9980 C   0  0  2  0  0  3  0  0  0  0  0  0
  185.4120  177.7750  137.2440 C   0  0  2  0  0  3  0  0  0  0  0  0
  186.3160  178.4270  139.8740 C   0  0  0  0  0  2  0  0  0  0  0  0
  185.1620  179.1760  137.8100 C   0  0  0  0  0  2  0  0  0  0  0  0
  186.3670  177.0950  139.4010 O   0  0  0  0  0  0  0  0  0  0  0  0
  187.9410  177.6090  137.5980 C   0  0  0  0  0  2  0  0  0  0  0  0
  188.9150  176.4480  137.6070 C   0  0  0  0  0  2  0  0  0  0  0  0
  190.1520  176.7890  138.4150 C   0  0  0  0  0  2  0  0  0  0  0  0
  189.7900  177.5180  139.6640 C   0  0  0  0  0  0  0  0  0  0  0  0
  189.7240  178.7760  139.6560 O   0  0  0  0  0  0  0  0  0  0  0  0
  189.4920  176.7970  140.8210 O   0  0  0  0  0  0  0  0  0  0  0  0
  191.1790  176.4040  142.5710 C   0  0  0  0  0  2  0  0  0  0  0  0
  189.9940  177.1550  142.1030 C   0  0  1  0  0  0  0  0  0  0  0  0
  191.2840  177.7050  142.0260 O   0  0  0  0  0  0  0  0  0  0  0  0
  189.0780  177.8490  143.1220 C   0  0  1  0  0  0  0  0  0  0  0  0
  189.8220  178.8210  143.7990 O   0  0  0  0  0  1  0  0  0  0  0  0
  188.0200  178.4710  142.4740 F   0  0  0  0  0  0  0  0  0  0  0  0
  187.7800  175.8520  143.5270 F   0  0  0  0  0  0  0  0  0  0  0  0
  188.5320  176.8390  144.1400 C   0  0  2  0  0  3  0  0  0  0  0  0
  187.7630  177.5300  145.2750 C   0  0  2  0  0  3  0  0  0  0  0  0
  188.0870  176.8900  146.6210 C   0  0  0  0  0  2  0  0  0  0  0  0
  189.6810  177.4590  147.2960 S   0  0  0  0  0  1  0  0  0  0  0  0
  186.2480  177.6050  145.0550 C   0  0  0  0  0  2  0  0  0  0  0  0
  185.3210  179.2120  146.5710 O   0  0  0  0  0  1  0  0  0  0  0  0
  185.6820  179.0160  145.2360 C   0  0  2  0  0  3  0  0  0  0  0  0
  184.5010  179.3180  144.3070 C   0  0  0  0  0  3  0  0  0  0  0  0
  184.6410  178.5370  143.0180 C   0  0  0  0  0  1  0  0  0  0  0  0
  183.1840  178.9400  144.9570 C   0  0  0  0  0  1  0  0  0  0  0  0
  184.1800  176.8970  137.3760 C   0  0  0  0  0  2  0  0  0  0  0  0
  182.9790  177.5710  136.8880 N   0  0  0  0  0  2  0  0  0  0  0  0
  181.8040  177.0630  137.6070 C   0  0  2  0  0  3  0  0  0  0  0  0
  181.4070  174.5850  137.8440 C   0  0  2  0  0  3  0  0  0  0  0  0
  180.0310  175.1860  137.5750 C   0  0  0  0  0  2  0  0  0  0  0  0
  181.2600  175.7890  136.9200 C   0  0  1  0  0  3  0  0  0  0  0  0
  181.6720  173.4600  137.0400 O   0  0  0  0  0  0  0  0  0  0  0  0
  183.9440  171.7220  136.0300 C   0  0  0  0  0  0  0  0  0  0  0  0
  184.5350  170.7540  135.4810 O   0  0  0  0  0  0  0  0  0  0  0  0
  183.4750  173.0640  135.5830 C   0  0  0  0  0  2  0  0  0  0  0  0
  183.0720  173.3010  136.9410 C   0  0  2  0  0  3  0  0  0  0  0  0
  183.4300  171.9960  137.3570 O   0  0  0  0  0  0  0  0  0  0  0  0
  180.7790  178.1920  137.8810 C   0  0  1  0  0  3  0  0  0  0  0  0
  181.2000  177.6660  140.2920 C   0  0  0  0  0  2  0  0  0  0  0  0
  180.8600  179.4310  142.0310 C   0  0  0  0  0  2  0  0  0  0  0  0
  179.8160  179.7540  139.7030 C   0  0  2  0  0  3  0  0  0  0  0  0
  180.0140  180.3220  141.1160 C   0  0  0  0  0  2  0  0  0  0  0  0
  180.6570  177.9650  141.6910 C   0  0  0  0  0  2  0  0  0  0  0  0
  180.9590  178.8020  139.2800 C   0  0  2  0  0  3  0  0  0  0  0  0
  179.6990  180.8590  138.7710 N   0  0  0  0  0  1  0  0  0  0  0  0
  180.8530  179.1940  136.9050 O   0  0  0  0  0  0  0  0  0  0  0  0
  179.7560  178.9660  136.0690 C   0  0  0  0  0  2  0  0  0  0  0  0
  180.2690  180.9300  134.8300 C   0  0  0  0  0  0  0  0  0  0  0  0
  181.3330  179.9030  134.5950 O   0  0  0  0  0  0  0  0  0  0  0  0
  179.8900  182.1860  135.0110 C   0  0  0  0  0  2  0  0  0  0  0  0
  180.0100  179.5820  134.7100 C   0  0  1  0  0  3  0  0  0  0  0  0
  1  4  1  0  0  0  0
  2  7  1  1  0  0  0
  2  6  1  0  0  0  0
  3 30  1  1  0  0  0
  3  5  1  0  0  0  0
  3  2  1  0  0  0  0
  5  1  1  0  0  0  0
  6  4  1  0  0  0  0
  7  8  1  0  0  0  0
  8  9  1  0  0  0  0
  9 10  1  0  0  0  0
 10 12  1  0  0  0  0
 11 10  2  0  0  0  0
 14 12  1  6  0  0  0
 14 13  1  0  0  0  0
 14 16  1  0  0  0  0
 15 14  1  0  0  0  0
 15 13  1  0  0  0  0
 16 18  1  6  0  0  0
 16 17  1  0  0  0  0
 16 20  1  0  0  0  0
 20 19  1  6  0  0  0
 20 21  1  0  0  0  0
 21 24  1  6  0  0  0
 21 22  1  0  0  0  0
 22 23  1  0  0  0  0
 24 26  1  0  0  0  0
 26 25  1  1  0  0  0
 27 29  1  0  0  0  0
 27 26  1  0  0  0  0
 28 27  1  0  0  0  0
 31 30  1  0  0  0  0
 32 31  1  6  0  0  0
 32 42  1  0  0  0  0
 33 36  1  6  0  0  0
 34 33  1  0  0  0  0
 35 34  1  0  0  0  0
 35 32  1  1  0  0  0
 35 33  1  0  0  0  0
 37 41  1  0  0  0  0
 38 37  2  0  0  0  0
 39 37  1  0  0  0  0
 39 40  1  0  0  0  0
 40 36  1  6  0  0  0
 40 41  1  0  0  0  0
 42 50  1  6  0  0  0
 43 47  1  0  0  0  0
 45 49  1  6  0  0  0
 45 46  1  0  0  0  0
 46 44  1  0  0  0  0
 47 44  1  0  0  0  0
 48 42  1  6  0  0  0
 48 45  1  0  0  0  0
 48 43  1  0  0  0  0
 51 50  1  0  0  0  0
 52 54  2  0  0  0  0
 53 55  1  0  0  0  0
 53 52  1  0  0  0  0
 55 52  1  0  0  0  0
 55 51  1  1  0  0  0
M  END
>  <MODEL>
6

>  <REMARK>
 VINA RESULT:      -5.3      4.202      8.563
  Name = 
  24 active torsions:
  status: ('A' for Active; 'I' for Inactive)
    1  A    between atoms: C_1  and  C_29
    2  A    between atoms: C_2  and  N_28
    3  A    between atoms: C_2  and  C_31
    4  A    between atoms: C_3  and  C_29
    5  A    between atoms: C_3  and  C_38
    6  A    between atoms: C_6  and  C_14
    7  A    between atoms: C_6  and  C_20
    8  A    between atoms: C_8  and  O_22
    9  A    between atoms: C_8  and  C_35
   10  A    between atoms: C_11  and  C_38
   11  A    between atoms: C_13  and  O_48
   12  A    between atoms: C_14  and  C_38
   13  A    between atoms: C_19  and  C_40
   14  A    between atoms: C_19  and  O_45
   15  A    between atoms: C_20  and  O_22
   16  A    between atoms: C_26  and  C_49
   17  A    between atoms: C_27  and  C_54
   18  A    between atoms: N_28  and  C_33
   19  A    between atoms: C_33  and  C_49
   20  A    between atoms: C_33  and  C_52
   21  A    between atoms: C_35  and  C_51
   22  A    between atoms: C_39  and  O_48
   23  A    between atoms: O_45  and  C_49
   24  A    between atoms: C_51  and  C_54
                            x       y       z     vdW  Elec       q    Type
                         _______ _______ _______ _____ _____    ______ ____

>  <TORSDO>
F 24

$$$$
=
 OpenBabel10262420403D

 55 60  0  0  1  0  0  0  0  0999 V2000
  186.0010  178.0400  145.0890 C   0  0  0  0  0  2  0  0  0  0  0  0
  186.6210  177.7510  142.3200 C   0  0  2  0  0  3  0  0  0  0  0  0
  185.4930  178.7100  142.7170 C   0  0  2  0  0  3  0  0  0  0  0  0
  187.1450  177.2170  144.5080 C   0  0  0  0  0  2  0  0  0  0  0  0
  185.7010  179.2030  144.1520 C   0  0  0  0  0  2  0  0  0  0  0  0
  186.7860  176.6910  143.2440 O   0  0  0  0  0  0  0  0  0  0  0  0
  187.9310  178.4510  141.9880 C   0  0  0  0  0  2  0  0  0  0  0  0
  188.1730  178.3580  140.4950 C   0  0  0  0  0  2  0  0  0  0  0  0
  189.4440  177.5860  140.2020 C   0  0  0  0  0  2  0  0  0  0  0  0
  189.6360  177.4080  138.7340 C   0  0  0  0  0  0  0  0  0  0  0  0
  190.4260  178.1650  138.1110 O   0  0  0  0  0  0  0  0  0  0  0  0
  188.9640  176.3790  138.0720 O   0  0  0  0  0  0  0  0  0  0  0  0
  188.3830  175.9480  135.7180 C   0  0  0  0  0  2  0  0  0  0  0  0
  189.3800  175.8760  136.8070 C   0  0  1  0  0  0  0  0  0  0  0  0
  189.4350  176.8860  135.8340 O   0  0  0  0  0  0  0  0  0  0  0  0
  190.5310  174.8630  136.7240 C   0  0  1  0  0  0  0  0  0  0  0  0
  190.6620  174.2350  137.9670 O   0  0  0  0  0  1  0  0  0  0  0  0
  190.2560  173.8970  135.7650 F   0  0  0  0  0  0  0  0  0  0  0  0
  192.3560  175.1340  135.1640 F   0  0  0  0  0  0  0  0  0  0  0  0
  191.8500  175.5650  136.3780 C   0  0  2  0  0  3  0  0  0  0  0  0
  192.8800  175.4380  137.5100 C   0  0  2  0  0  3  0  0  0  0  0  0
  193.2390  176.8080  138.0750 C   0  0  0  0  0  2  0  0  0  0  0  0
  193.4510  176.7800  139.8850 S   0  0  0  0  0  1  0  0  0  0  0  0
  194.1410  174.6550  137.1300 C   0  0  0  0  0  2  0  0  0  0  0  0
  195.3070  173.5770  138.9240 O   0  0  0  0  0  1  0  0  0  0  0  0
  194.3260  173.3760  137.9490 C   0  0  2  0  0  3  0  0  0  0  0  0
  194.6600  172.1500  137.0910 C   0  0  0  0  0  3  0  0  0  0  0  0
  193.5850  171.9390  136.0470 C   0  0  0  0  0  1  0  0  0  0  0  0
  195.9890  172.3240  136.3820 C   0  0  0  0  0  1  0  0  0  0  0  0
  184.1730  177.9720  142.5730 C   0  0  0  0  0  2  0  0  0  0  0  0
  183.1780  178.7740  141.8650 N   0  0  0  0  0  2  0  0  0  0  0  0
  182.9420  178.2020  140.5320 C   0  0  2  0  0  3  0  0  0  0  0  0
  184.0280  177.5110  138.3640 C   0  0  2  0  0  3  0  0  0  0  0  0
  184.2070  179.0240  138.4370 C   0  0  0  0  0  2  0  0  0  0  0  0
  184.2510  178.1970  139.7080 C   0  0  1  0  0  3  0  0  0  0  0  0
  185.2180  176.8410  138.0240 O   0  0  0  0  0  0  0  0  0  0  0  0
  183.3500  174.6670  137.0320 C   0  0  0  0  0  0  0  0  0  0  0  0
  182.3820  173.8600  137.0150 O   0  0  0  0  0  0  0  0  0  0  0  0
  183.5790  176.0520  136.5340 C   0  0  0  0  0  2  0  0  0  0  0  0
  184.9340  175.9210  136.9910 C   0  0  2  0  0  3  0  0  0  0  0  0
  184.7040  174.6410  137.5480 O   0  0  0  0  0  0  0  0  0  0  0  0
  181.7030  178.8380  139.8570 C   0  0  1  0  0  3  0  0  0  0  0  0
  180.5000  176.9230  140.9300 C   0  0  0  0  0  2  0  0  0  0  0  0
  178.9320  175.5200  139.5780 C   0  0  0  0  0  2  0  0  0  0  0  0
  180.6280  177.0220  138.3620 C   0  0  2  0  0  3  0  0  0  0  0  0
  179.4900  176.0000  138.2350 C   0  0  0  0  0  2  0  0  0  0  0  0
  180.0200  175.5000  140.6370 C   0  0  0  0  0  2  0  0  0  0  0  0
  180.5610  177.8240  139.6820 C   0  0  2  0  0  3  0  0  0  0  0  0
  180.5810  177.9140  137.2190 N   0  0  0  0  0  1  0  0  0  0  0  0
  181.2500  179.9550  140.5730 O   0  0  0  0  0  0  0  0  0  0  0  0
  180.4360  180.6530  139.6770 C   0  0  0  0  0  2  0  0  0  0  0  0
  180.4860  181.8250  137.6080 C   0  0  0  0  0  0  0  0  0  0  0  0
  181.5700  182.3460  138.4990 O   0  0  0  0  0  0  0  0  0  0  0  0
  179.5370  182.0150  136.7030 C   0  0  0  0  0  2  0  0  0  0  0  0
  181.2320  181.0230  138.4430 C   0  0  1  0  0  3  0  0  0  0  0  0
  2  7  1  1  0  0  0
  2  3  1  0  0  0  0
  2  6  1  0  0  0  0
  3 30  1  1  0  0  0
  3  5  1  0  0  0  0
  4  1  1  0  0  0  0
  5  1  1  0  0  0  0
  6  4  1  0  0  0  0
  8  7  1  0  0  0  0
  9  8  1  0  0  0  0
 10  9  1  0  0  0  0
 11 10  2  0  0  0  0
 12 10  1  0  0  0  0
 13 15  1  0  0  0  0
 13 14  1  0  0  0  0
 14 12  1  1  0  0  0
 15 14  1  0  0  0  0
 16 18  1  6  0  0  0
 16 14  1  0  0  0  0
 16 17  1  0  0  0  0
 20 19  1  6  0  0  0
 20 16  1  0  0  0  0
 20 21  1  0  0  0  0
 21 24  1  6  0  0  0
 21 22  1  0  0  0  0
 22 23  1  0  0  0  0
 24 26  1  0  0  0  0
 26 25  1  1  0  0  0
 27 26  1  0  0  0  0
 28 27  1  0  0  0  0
 29 27  1  0  0  0  0
 31 30  1  0  0  0  0
 32 31  1  1  0  0  0
 33 36  1  6  0  0  0
 33 34  1  0  0  0  0
 33 35  1  0  0  0  0
 34 35  1  0  0  0  0
 35 32  1  1  0  0  0
 37 41  1  0  0  0  0
 38 37  2  0  0  0  0
 39 40  1  0  0  0  0
 39 37  1  0  0  0  0
 40 41  1  0  0  0  0
 40 36  1  1  0  0  0
 42 32  1  0  0  0  0
 42 50  1  1  0  0  0
 44 47  1  0  0  0  0
 45 49  1  6  0  0  0
 45 48  1  0  0  0  0
 46 45  1  0  0  0  0
 46 44  1  0  0  0  0
 47 43  1  0  0  0  0
 48 42  1  1  0  0  0
 48 43  1  0  0  0  0
 51 50  1  0  0  0  0
 52 55  1  0  0  0  0
 52 53  1  0  0  0  0
 54 52  2  0  0  0  0
 55 53  1  0  0  0  0
 55 51  1  1  0  0  0
M  END
>  <MODEL>
7

>  <REMARK>
 VINA RESULT:      -4.8      2.344      4.778
  Name = 
  24 active torsions:
  status: ('A' for Active; 'I' for Inactive)
    1  A    between atoms: C_1  and  C_29
    2  A    between atoms: C_2  and  N_28
    3  A    between atoms: C_2  and  C_31
    4  A    between atoms: C_3  and  C_29
    5  A    between atoms: C_3  and  C_38
    6  A    between atoms: C_6  and  C_14
    7  A    between atoms: C_6  and  C_20
    8  A    between atoms: C_8  and  O_22
    9  A    between atoms: C_8  and  C_35
   10  A    between atoms: C_11  and  C_38
   11  A    between atoms: C_13  and  O_48
   12  A    between atoms: C_14  and  C_38
   13  A    between atoms: C_19  and  C_40
   14  A    between atoms: C_19  and  O_45
   15  A    between atoms: C_20  and  O_22
   16  A    between atoms: C_26  and  C_49
   17  A    between atoms: C_27  and  C_54
   18  A    between atoms: N_28  and  C_33
   19  A    between atoms: C_33  and  C_49
   20  A    between atoms: C_33  and  C_52
   21  A    between atoms: C_35  and  C_51
   22  A    between atoms: C_39  and  O_48
   23  A    between atoms: O_45  and  C_49
   24  A    between atoms: C_51  and  C_54
                            x       y       z     vdW  Elec       q    Type
                         _______ _______ _______ _____ _____    ______ ____

>  <TORSDO>
F 24

$$$$
=
 OpenBabel10262420403D

 55 60  0  0  1  0  0  0  0  0999 V2000
  186.5950  178.6010  139.0880 C   0  0  0  0  0  2  0  0  0  0  0  0
  187.8200  176.4100  137.7350 C   0  0  2  0  0  3  0  0  0  0  0  0
  186.8230  177.2790  136.9590 C   0  0  2  0  0  3  0  0  0  0  0  0
  187.6760  177.6890  139.6550 C   0  0  0  0  0  2  0  0  0  0  0  0
  186.7550  178.6790  137.5750 C   0  0  0  0  0  2  0  0  0  0  0  0
  187.5530  176.3830  139.1250 O   0  0  0  0  0  0  0  0  0  0  0  0
  189.2770  176.7200  137.4210 C   0  0  0  0  0  2  0  0  0  0  0  0
  190.1380  175.5670  137.8980 C   0  0  0  0  0  2  0  0  0  0  0  0
  191.3200  176.0740  138.7010 C   0  0  0  0  0  2  0  0  0  0  0  0
  190.8660  176.8840  139.8670 C   0  0  0  0  0  0  0  0  0  0  0  0
  190.6780  178.1220  139.7330 O   0  0  0  0  0  0  0  0  0  0  0  0
  190.6180  176.2540  141.0880 O   0  0  0  0  0  0  0  0  0  0  0  0
  191.9610  176.2000  143.1520 C   0  0  0  0  0  2  0  0  0  0  0  0
  190.9140  176.8600  142.3420 C   0  0  1  0  0  0  0  0  0  0  0  0
  192.2260  177.3590  142.3850 O   0  0  0  0  0  0  0  0  0  0  0  0
  189.8770  177.7650  143.0230 C   0  0  1  0  0  0  0  0  0  0  0  0
  190.5560  178.7460  143.7530 O   0  0  0  0  0  1  0  0  0  0  0  0
  189.0820  178.3880  142.0720 F   0  0  0  0  0  0  0  0  0  0  0  0
  188.1750  176.0720  143.2930 F   0  0  0  0  0  0  0  0  0  0  0  0
  188.9920  176.9540  143.9780 C   0  0  2  0  0  3  0  0  0  0  0  0
  188.1950  177.8610  144.9280 C   0  0  2  0  0  3  0  0  0  0  0  0
  188.9380  178.0550  146.2460 C   0  0  0  0  0  2  0  0  0  0  0  0
  188.1280  177.1950  147.6330 S   0  0  0  0  0  1  0  0  0  0  0  0
  186.7540  177.4040  145.1740 C   0  0  0  0  0  2  0  0  0  0  0  0
  184.8630  178.1860  146.4210 O   0  0  0  0  0  1  0  0  0  0  0  0
  185.7920  178.5620  145.4470 C   0  0  2  0  0  3  0  0  0  0  0  0
  185.0800  179.0680  144.1880 C   0  0  0  0  0  3  0  0  0  0  0  0
  185.2470  178.0710  143.0620 C   0  0  0  0  0  1  0  0  0  0  0  0
  183.5970  179.2630  144.4400 C   0  0  0  0  0  1  0  0  0  0  0  0
  185.4690  176.5920  136.9960 C   0  0  0  0  0  2  0  0  0  0  0  0
  184.4140  177.4470  136.4570 N   0  0  0  0  0  2  0  0  0  0  0  0
  183.1640  176.6810  136.3570 C   0  0  2  0  0  3  0  0  0  0  0  0
  183.0400  174.3020  135.5310 C   0  0  2  0  0  3  0  0  0  0  0  0
  181.8940  175.0280  134.8340 C   0  0  0  0  0  2  0  0  0  0  0  0
  183.1920  175.7610  135.1140 C   0  0  1  0  0  3  0  0  0  0  0  0
  183.8060  173.5220  134.6440 O   0  0  0  0  0  0  0  0  0  0  0  0
  186.0260  171.8030  135.7920 C   0  0  0  0  0  0  0  0  0  0  0  0
  187.1870  171.4380  136.1190 O   0  0  0  0  0  0  0  0  0  0  0  0
  184.9210  172.5400  136.4670 C   0  0  0  0  0  2  0  0  0  0  0  0
  184.1360  172.3090  135.2870 C   0  0  2  0  0  3  0  0  0  0  0  0
  185.2070  171.6870  134.6020 O   0  0  0  0  0  0  0  0  0  0  0  0
  181.9270  177.6000  136.5090 C   0  0  1  0  0  3  0  0  0  0  0  0
  181.8570  176.4560  138.7350 C   0  0  0  0  0  2  0  0  0  0  0  0
  179.6670  175.7090  139.6850 C   0  0  0  0  0  2  0  0  0  0  0  0
  179.8180  176.2610  137.1770 C   0  0  2  0  0  3  0  0  0  0  0  0
  178.9340  175.7910  138.3420 C   0  0  0  0  0  2  0  0  0  0  0  0
  181.1250  175.3370  139.4800 C   0  0  0  0  0  2  0  0  0  0  0  0
  181.0030  177.1350  137.6460 C   0  0  2  0  0  3  0  0  0  0  0  0
  178.9910  176.9850  136.2310 N   0  0  0  0  0  1  0  0  0  0  0  0
  182.3050  178.9340  136.7100 O   0  0  0  0  0  0  0  0  0  0  0  0
  181.5610  179.3580  137.8140 C   0  0  0  0  0  2  0  0  0  0  0  0
  180.4250  181.4470  137.8530 C   0  0  0  0  0  0  0  0  0  0  0  0
  181.1330  181.2430  139.1570 O   0  0  0  0  0  0  0  0  0  0  0  0
  179.3850  181.8750  137.1530 C   0  0  0  0  0  2  0  0  0  0  0  0
  181.6670  180.8610  137.9580 C   0  0  1  0  0  3  0  0  0  0  0  0
  1  4  1  0  0  0  0
  2  7  1  1  0  0  0
  2  6  1  0  0  0  0
  3 30  1  1  0  0  0
  3  5  1  0  0  0  0
  3  2  1  0  0  0  0
  5  1  1  0  0  0  0
  6  4  1  0  0  0  0
  7  8  1  0  0  0  0
  8  9  1  0  0  0  0
  9 10  1  0  0  0  0
 10 12  1  0  0  0  0
 11 10  2  0  0  0  0
 14 12  1  6  0  0  0
 14 15  1  0  0  0  0
 14 16  1  0  0  0  0
 14 13  1  0  0  0  0
 15 13  1  0  0  0  0
 16 18  1  6  0  0  0
 16 17  1  0  0  0  0
 16 20  1  0  0  0  0
 20 19  1  6  0  0  0
 20 21  1  0  0  0  0
 21 24  1  1  0  0  0
 21 22  1  0  0  0  0
 22 23  1  0  0  0  0
 24 26  1  0  0  0  0
 26 25  1  1  0  0  0
 27 29  1  0  0  0  0
 27 26  1  0  0  0  0
 28 27  1  0  0  0  0
 31 30  1  0  0  0  0
 32 31  1  6  0  0  0
 32 42  1  0  0  0  0
 33 36  1  6  0  0  0
 34 35  1  0  0  0  0
 34 33  1  0  0  0  0
 35 33  1  0  0  0  0
 35 32  1  1  0  0  0
 37 38  2  0  0  0  0
 37 39  1  0  0  0  0
 40 36  1  6  0  0  0
 40 39  1  0  0  0  0
 41 40  1  0  0  0  0
 41 37  1  0  0  0  0
 42 50  1  1  0  0  0
 43 47  1  0  0  0  0
 45 49  1  6  0  0  0
 45 48  1  0  0  0  0
 45 46  1  0  0  0  0
 46 44  1  0  0  0  0
 47 44  1  0  0  0  0
 48 42  1  6  0  0  0
 48 43  1  0  0  0  0
 50 51  1  0  0  0  0
 52 55  1  0  0  0  0
 52 53  1  0  0  0  0
 54 52  2  0  0  0  0
 55 51  1  1  0  0  0
 55 53  1  0  0  0  0
M  END
>  <MODEL>
8

>  <REMARK>
 VINA RESULT:      -4.6      3.962      8.645
  Name = 
  24 active torsions:
  status: ('A' for Active; 'I' for Inactive)
    1  A    between atoms: C_1  and  C_29
    2  A    between atoms: C_2  and  N_28
    3  A    between atoms: C_2  and  C_31
    4  A    between atoms: C_3  and  C_29
    5  A    between atoms: C_3  and  C_38
    6  A    between atoms: C_6  and  C_14
    7  A    between atoms: C_6  and  C_20
    8  A    between atoms: C_8  and  O_22
    9  A    between atoms: C_8  and  C_35
   10  A    between atoms: C_11  and  C_38
   11  A    between atoms: C_13  and  O_48
   12  A    between atoms: C_14  and  C_38
   13  A    between atoms: C_19  and  C_40
   14  A    between atoms: C_19  and  O_45
   15  A    between atoms: C_20  and  O_22
   16  A    between atoms: C_26  and  C_49
   17  A    between atoms: C_27  and  C_54
   18  A    between atoms: N_28  and  C_33
   19  A    between atoms: C_33  and  C_49
   20  A    between atoms: C_33  and  C_52
   21  A    between atoms: C_35  and  C_51
   22  A    between atoms: C_39  and  O_48
   23  A    between atoms: O_45  and  C_49
   24  A    between atoms: C_51  and  C_54
                            x       y       z     vdW  Elec       q    Type
                         _______ _______ _______ _____ _____    ______ ____

>  <TORSDO>
F 24

$$$$
=
 OpenBabel10262420403D

 55 60  0  0  1  0  0  0  0  0999 V2000
  188.8070  177.7270  143.3870 C   0  0  0  0  0  2  0  0  0  0  0  0
  188.5920  177.7030  140.5430 C   0  0  2  0  0  3  0  0  0  0  0  0
  188.0960  178.9400  141.3010 C   0  0  2  0  0  3  0  0  0  0  0  0
  189.3310  176.6390  142.4580 C   0  0  0  0  0  2  0  0  0  0  0  0
  188.8160  179.0580  142.6470 C   0  0  0  0  0  2  0  0  0  0  0  0
  188.5050  176.5190  141.3160 O   0  0  0  0  0  0  0  0  0  0  0  0
  189.9600  177.8860  139.9000 C   0  0  0  0  0  2  0  0  0  0  0  0
  189.9540  177.2250  138.5370 C   0  0  0  0  0  2  0  0  0  0  0  0
  191.1300  176.2800  138.3920 C   0  0  0  0  0  2  0  0  0  0  0  0
  191.1420  175.6430  137.0440 C   0  0  0  0  0  0  0  0  0  0  0  0
  190.3010  174.7470  136.7690 O   0  0  0  0  0  0  0  0  0  0  0  0
  192.0630  176.0740  136.0870 O   0  0  0  0  0  0  0  0  0  0  0  0
  194.4480  176.6660  135.9350 C   0  0  0  0  0  2  0  0  0  0  0  0
  193.4100  175.6190  136.0540 C   0  0  1  0  0  0  0  0  0  0  0  0
  194.1380  176.0560  137.1730 O   0  0  0  0  0  0  0  0  0  0  0  0
  193.7250  174.1780  135.6250 C   0  0  1  0  0  0  0  0  0  0  0  0
  192.7970  173.7910  134.6530 O   0  0  0  0  0  1  0  0  0  0  0  0
  194.9990  174.1050  135.0780 F   0  0  0  0  0  0  0  0  0  0  0  0
  193.1630  173.8660  137.9540 F   0  0  0  0  0  0  0  0  0  0  0  0
  193.6260  173.2210  136.8200 C   0  0  2  0  0  3  0  0  0  0  0  0
  194.9490  172.4840  137.0730 C   0  0  2  0  0  3  0  0  0  0  0  0
  194.7710  170.9770  136.9170 C   0  0  0  0  0  2  0  0  0  0  0  0
  196.3270  170.0630  137.1700 S   0  0  0  0  0  1  0  0  0  0  0  0
  195.6110  172.8210  138.4140 C   0  0  0  0  0  2  0  0  0  0  0  0
  197.8190  173.3320  137.6380 O   0  0  0  0  0  1  0  0  0  0  0  0
  196.7120  173.8770  138.2930 C   0  0  2  0  0  3  0  0  0  0  0  0
  197.1230  174.4790  139.6410 C   0  0  0  0  0  3  0  0  0  0  0  0
  198.4420  175.2100  139.5020 C   0  0  0  0  0  1  0  0  0  0  0  0
  196.0820  175.4610  140.1420 C   0  0  0  0  0  1  0  0  0  0  0  0
  186.5940  178.8090  141.4870 C   0  0  0  0  0  2  0  0  0  0  0  0
  185.9050  178.6090  140.2140 N   0  0  0  0  0  2  0  0  0  0  0  0
  184.4990  179.0140  140.3460 C   0  0  2  0  0  3  0  0  0  0  0  0
  183.6840  179.1390  142.7280 C   0  0  2  0  0  3  0  0  0  0  0  0
  182.4560  178.7660  141.9040 C   0  0  0  0  0  2  0  0  0  0  0  0
  183.8220  178.2430  141.5030 C   0  0  1  0  0  3  0  0  0  0  0  0
  183.8360  178.3280  143.8690 O   0  0  0  0  0  0  0  0  0  0  0  0
  185.6310  178.5460  146.3040 C   0  0  0  0  0  0  0  0  0  0  0  0
  186.4730  178.2180  147.1840 O   0  0  0  0  0  0  0  0  0  0  0  0
  185.6950  179.2370  144.9860 C   0  0  0  0  0  2  0  0  0  0  0  0
  184.2630  179.1420  144.9420 C   0  0  2  0  0  3  0  0  0  0  0  0
  184.1970  178.4050  146.1490 O   0  0  0  0  0  0  0  0  0  0  0  0
  183.7740  178.9870  138.9780 C   0  0  1  0  0  3  0  0  0  0  0  0
  185.5650  177.8920  137.6150 C   0  0  0  0  0  2  0  0  0  0  0  0
  185.0200  175.8900  136.2170 C   0  0  0  0  0  2  0  0  0  0  0  0
  183.1030  177.3800  137.0670 C   0  0  2  0  0  3  0  0  0  0  0  0
  183.5090  176.1420  136.2550 C   0  0  0  0  0  2  0  0  0  0  0  0
  185.7850  177.2010  136.2670 C   0  0  0  0  0  2  0  0  0  0  0  0
  184.1340  177.7350  138.1630 C   0  0  2  0  0  3  0  0  0  0  0  0
  181.7960  177.1440  137.6500 N   0  0  0  0  0  1  0  0  0  0  0  0
  182.3850  179.0760  139.1370 O   0  0  0  0  0  0  0  0  0  0  0  0
  182.0730  180.4080  138.8520 C   0  0  0  0  0  2  0  0  0  0  0  0
  180.1600  181.6060  138.1040 C   0  0  0  0  0  0  0  0  0  0  0  0
  181.1230  181.4520  136.9690 O   0  0  0  0  0  0  0  0  0  0  0  0
  179.2690  182.3160  138.7820 C   0  0  0  0  0  2  0  0  0  0  0  0
  180.9050  180.4680  137.8910 C   0  0  1  0  0  3  0  0  0  0  0  0
  2  7  1  1  0  0  0
  2  3  1  0  0  0  0
  2  6  1  0  0  0  0
  3 30  1  1  0  0  0
  3  5  1  0  0  0  0
  4  1  1  0  0  0  0
  5  1  1  0  0  0  0
  6  4  1  0  0  0  0
  8  7  1  0  0  0  0
  9  8  1  0  0  0  0
 10  9  1  0  0  0  0
 11 10  2  0  0  0  0
 12 10  1  0  0  0  0
 13 14  1  0  0  0  0
 13 15  1  0  0  0  0
 14 12  1  6  0  0  0
 14 15  1  0  0  0  0
 16 17  1  6  0  0  0
 16 14  1  0  0  0  0
 16 20  1  0  0  0  0
 18 16  1  0  0  0  0
 20 21  1  0  0  0  0
 20 19  1  1  0  0  0
 21 22  1  1  0  0  0
 21 24  1  0  0  0  0
 22 23  1  0  0  0  0
 26 25  1  1  0  0  0
 26 24  1  0  0  0  0
 26 27  1  0  0  0  0
 27 29  1  0  0  0  0
 28 27  1  0  0  0  0
 31 30  1  0  0  0  0
 32 31  1  6  0  0  0
 33 36  1  1  0  0  0
 34 33  1  0  0  0  0
 35 32  1  6  0  0  0
 35 34  1  0  0  0  0
 35 33  1  0  0  0  0
 37 38  2  0  0  0  0
 39 37  1  0  0  0  0
 40 36  1  6  0  0  0
 40 39  1  0  0  0  0
 40 41  1  0  0  0  0
 41 37  1  0  0  0  0
 42 50  1  1  0  0  0
 42 32  1  0  0  0  0
 43 48  1  0  0  0  0
 44 46  1  0  0  0  0
 44 47  1  0  0  0  0
 45 49  1  1  0  0  0
 45 48  1  0  0  0  0
 46 45  1  0  0  0  0
 47 43  1  0  0  0  0
 48 42  1  6  0  0  0
 51 50  1  0  0  0  0
 52 54  2  0  0  0  0
 53 55  1  0  0  0  0
 53 52  1  0  0  0  0
 55 52  1  0  0  0  0
 55 51  1  1  0  0  0
M  END
>  <MODEL>
9

>  <REMARK>
 VINA RESULT:      -4.5      2.314      3.773
  Name = 
  24 active torsions:
  status: ('A' for Active; 'I' for Inactive)
    1  A    between atoms: C_1  and  C_29
    2  A    between atoms: C_2  and  N_28
    3  A    between atoms: C_2  and  C_31
    4  A    between atoms: C_3  and  C_29
    5  A    between atoms: C_3  and  C_38
    6  A    between atoms: C_6  and  C_14
    7  A    between atoms: C_6  and  C_20
    8  A    between atoms: C_8  and  O_22
    9  A    between atoms: C_8  and  C_35
   10  A    between atoms: C_11  and  C_38
   11  A    between atoms: C_13  and  O_48
   12  A    between atoms: C_14  and  C_38
   13  A    between atoms: C_19  and  C_40
   14  A    between atoms: C_19  and  O_45
   15  A    between atoms: C_20  and  O_22
   16  A    between atoms: C_26  and  C_49
   17  A    between atoms: C_27  and  C_54
   18  A    between atoms: N_28  and  C_33
   19  A    between atoms: C_33  and  C_49
   20  A    between atoms: C_33  and  C_52
   21  A    between atoms: C_35  and  C_51
   22  A    between atoms: C_39  and  O_48
   23  A    between atoms: O_45  and  C_49
   24  A    between atoms: C_51  and  C_54
                            x       y       z     vdW  Elec       q    Type
                         _______ _______ _______ _____ _____    ______ ____

>  <TORSDO>
F 24

$$$$
