=
 OpenBabel10262419553D

 25 28  0  0  1  0  0  0  0  0999 V2000
  186.8270  177.7830  145.4980 N   0  0  0  0  0  0  0  0  0  0  0  0
  188.2180  177.5430  145.1410 C   0  0  2  0  0  3  0  0  0  0  0  0
  187.4900  177.9700  147.8360 C   0  0  0  0  0  2  0  0  0  0  0  0
  185.7710  178.1560  144.7630 C   0  0  0  0  0  0  0  0  0  0  0  0
  189.8550  176.4220  143.5450 C   0  0  2  0  0  3  0  0  0  0  0  0
  183.3870  179.1100  143.7390 C   0  0  0  0  0  3  0  0  0  0  0  0
  188.3200  176.8520  147.5880 O   0  0  0  0  0  0  0  0  0  0  0  0
  184.7910  178.6010  145.6090 C   0  0  0  0  0  0  0  0  0  0  0  0
  183.5780  179.0910  145.1340 C   0  0  0  0  0  3  0  0  0  0  0  0
  190.4020  177.5960  146.4370 C   0  0  1  0  0  3  0  0  0  0  0  0
  191.0880  177.2180  147.7380 C   0  0  0  0  0  1  0  0  0  0  0  0
  188.3790  176.6860  143.8870 C   0  0  0  0  0  2  0  0  0  0  0  0
  184.4060  178.6620  142.8670 C   0  0  0  0  0  3  0  0  0  0  0  0
  186.4680  178.0590  146.7600 C   0  0  0  0  0  0  0  0  0  0  0  0
  185.2160  178.5680  146.8900 N   0  0  0  0  0  0  0  0  0  0  0  0
  191.2880  177.1290  145.2780 C   0  0  0  0  0  2  0  0  0  0  0  0
  185.6270  178.1830  143.3760 C   0  0  0  0  0  3  0  0  0  0  0  0
  190.7330  177.5080  143.9810 N   0  0  0  0  0  2  0  0  0  0  0  0
  189.0120  176.9550  146.3390 C   0  0  2  0  0  3  0  0  0  0  0  0
  190.0370  176.1290  142.0560 C   0  0  0  0  0  2  0  0  0  0  0  0
  188.9290  177.7410  140.5170 C   0  0  0  0  0  1  0  0  0  0  0  0
  190.2280  177.3900  141.2130 C   0  0  2  0  0  3  0  0  0  0  0  0
  191.3290  177.2260  140.2090 C   0  0  0  0  0  0  0  0  0  0  0  0
  192.4510  177.6220  140.4790 O   0  0  0  0  0  0  0  0  0  0  0  0
  191.0760  176.5920  138.8800 C   0  0  0  0  0  1  0  0  0  0  0  0
  1 14  1  0  0  0  0
  2 12  1  6  0  0  0
  2  1  1  0  0  0  0
  2 19  1  0  0  0  0
  4  1  1  0  0  0  0
  4  8  1  0  0  0  0
  5 20  1  6  0  0  0
  5 12  1  0  0  0  0
  5 18  1  0  0  0  0
  6  9  1  0  0  0  0
  7  3  1  0  0  0  0
  8 15  1  0  0  0  0
  9  8  2  0  0  0  0
 10 11  1  1  0  0  0
 13 17  1  0  0  0  0
 13  6  2  0  0  0  0
 14 15  2  0  0  0  0
 14  3  1  0  0  0  0
 16 10  1  0  0  0  0
 17  4  2  0  0  0  0
 18 16  1  0  0  0  0
 19 10  1  0  0  0  0
 19  7  1  1  0  0  0
 22 21  1  6  0  0  0
 22 20  1  0  0  0  0
 23 24  2  0  0  0  0
 23 22  1  0  0  0  0
 25 23  1  0  0  0  0
M  END
>  <MODEL>
1

>  <REMARK>
 VINA RESULT:      -9.7      0.000      0.000
  Name = 
  3 active torsions:
  status: ('A' for Active; 'I' for Inactive)
    1  A    between atoms: C_2  and  C_25
    2  A    between atoms: C_6  and  C_15
    3  A    between atoms: C_15  and  C_25
                            x       y       z     vdW  Elec       q    Type
                         _______ _______ _______ _____ _____    ______ ____

>  <TORSDO>
F 3

$$$$
=
 OpenBabel10262419553D

 25 28  0  0  1  0  0  0  0  0999 V2000
  188.8120  177.2420  144.5320 N   0  0  0  0  0  0  0  0  0  0  0  0
  188.4770  177.7190  143.1970 C   0  0  2  0  0  3  0  0  0  0  0  0
  190.8710  176.2870  143.6420 C   0  0  0  0  0  2  0  0  0  0  0  0
  188.3550  177.5910  145.7420 C   0  0  0  0  0  0  0  0  0  0  0  0
  186.6420  178.3050  141.5320 C   0  0  2  0  0  3  0  0  0  0  0  0
  187.9080  178.1040  148.4200 C   0  0  0  0  0  3  0  0  0  0  0  0
  190.0820  175.8520  142.5510 O   0  0  0  0  0  0  0  0  0  0  0  0
  189.2350  177.1290  146.6840 C   0  0  0  0  0  0  0  0  0  0  0  0
  189.0470  177.3690  148.0430 C   0  0  0  0  0  3  0  0  0  0  0  0
  189.7130  177.7490  140.9780 C   0  0  1  0  0  3  0  0  0  0  0  0
  190.6030  176.9570  140.0360 C   0  0  0  0  0  1  0  0  0  0  0  0
  186.9730  177.8270  142.9550 C   0  0  0  0  0  2  0  0  0  0  0  0
  187.0080  178.5910  147.4440 C   0  0  0  0  0  3  0  0  0  0  0  0
  189.9750  176.6230  144.7800 C   0  0  0  0  0  0  0  0  0  0  0  0
  190.2890  176.5240  146.0980 N   0  0  0  0  0  0  0  0  0  0  0  0
  188.5590  178.3390  140.1590 C   0  0  0  0  0  2  0  0  0  0  0  0
  187.2300  178.3430  146.0770 C   0  0  0  0  0  3  0  0  0  0  0  0
  187.6820  179.1720  140.9780 N   0  0  0  0  0  2  0  0  0  0  0  0
  189.1690  176.8610  142.1040 C   0  0  2  0  0  3  0  0  0  0  0  0
  185.2720  178.9790  141.4760 C   0  0  0  0  0  2  0  0  0  0  0  0
  183.2830  177.6810  140.7310 C   0  0  0  0  0  1  0  0  0  0  0  0
  184.1320  178.0660  141.9270 C   0  0  2  0  0  3  0  0  0  0  0  0
  183.2840  178.7120  142.9810 C   0  0  0  0  0  0  0  0  0  0  0  0
  182.1430  179.0460  142.7110 O   0  0  0  0  0  0  0  0  0  0  0  0
  183.8150  178.9600  144.3550 C   0  0  0  0  0  1  0  0  0  0  0  0
  1 14  1  0  0  0  0
  1  4  1  0  0  0  0
  2 12  1  6  0  0  0
  2  1  1  0  0  0  0
  3 14  1  0  0  0  0
  4 17  2  0  0  0  0
  4  8  1  0  0  0  0
  5 20  1  1  0  0  0
  5 12  1  0  0  0  0
  7  3  1  0  0  0  0
  8  9  2  0  0  0  0
  9  6  1  0  0  0  0
 10 11  1  6  0  0  0
 10 19  1  0  0  0  0
 13  6  2  0  0  0  0
 14 15  2  0  0  0  0
 15  8  1  0  0  0  0
 16 10  1  0  0  0  0
 16 18  1  0  0  0  0
 17 13  1  0  0  0  0
 18  5  1  0  0  0  0
 19  7  1  1  0  0  0
 19  2  1  0  0  0  0
 20 22  1  0  0  0  0
 22 21  1  6  0  0  0
 22 23  1  0  0  0  0
 23 25  1  0  0  0  0
 24 23  2  0  0  0  0
M  END
>  <MODEL>
2

>  <REMARK>
 VINA RESULT:      -9.0      2.387      5.783
  Name = 
  3 active torsions:
  status: ('A' for Active; 'I' for Inactive)
    1  A    between atoms: C_2  and  C_25
    2  A    between atoms: C_6  and  C_15
    3  A    between atoms: C_15  and  C_25
                            x       y       z     vdW  Elec       q    Type
                         _______ _______ _______ _____ _____    ______ ____

>  <TORSDO>
F 3

$$$$
=
 OpenBabel10262419553D

 25 28  0  0  1  0  0  0  0  0999 V2000
  186.9260  177.8080  144.8160 N   0  0  0  0  0  0  0  0  0  0  0  0
  188.2040  177.7120  144.1230 C   0  0  2  0  0  3  0  0  0  0  0  0
  188.1060  177.7090  146.9460 C   0  0  0  0  0  2  0  0  0  0  0  0
  185.7170  178.2100  144.4020 C   0  0  0  0  0  0  0  0  0  0  0  0
  189.4600  176.9360  142.0500 C   0  0  2  0  0  3  0  0  0  0  0  0
  183.1310  179.1370  144.0970 C   0  0  0  0  0  3  0  0  0  0  0  0
  188.8920  176.6940  146.3520 O   0  0  0  0  0  0  0  0  0  0  0  0
  184.9460  178.4660  145.5050 C   0  0  0  0  0  0  0  0  0  0  0  0
  183.6410  178.9360  145.3940 C   0  0  0  0  0  3  0  0  0  0  0  0
  190.6250  177.7280  144.8890 C   0  0  1  0  0  3  0  0  0  0  0  0
  191.6070  177.2180  145.9300 C   0  0  0  0  0  1  0  0  0  0  0  0
  188.0970  177.0510  142.7510 C   0  0  0  0  0  2  0  0  0  0  0  0
  183.9340  178.8850  142.9600 C   0  0  0  0  0  3  0  0  0  0  0  0
  186.8610  177.8800  146.1530 C   0  0  0  0  0  0  0  0  0  0  0  0
  185.6570  178.2820  146.6370 N   0  0  0  0  0  0  0  0  0  0  0  0
  191.2340  177.4870  143.5030 C   0  0  0  0  0  2  0  0  0  0  0  0
  185.2540  178.4200  143.1040 C   0  0  0  0  0  3  0  0  0  0  0  0
  190.3800  178.0060  142.4370 N   0  0  0  0  0  2  0  0  0  0  0  0
  189.2720  177.0160  145.0090 C   0  0  2  0  0  3  0  0  0  0  0  0
  189.3010  176.8660  140.5320 C   0  0  0  0  0  2  0  0  0  0  0  0
  187.3500  178.2930  139.9360 C   0  0  0  0  0  1  0  0  0  0  0  0
  188.8620  178.1930  139.9110 C   0  0  2  0  0  3  0  0  0  0  0  0
  189.3700  178.3470  138.5090 C   0  0  0  0  0  0  0  0  0  0  0  0
  189.0820  179.3470  137.8730 O   0  0  0  0  0  0  0  0  0  0  0  0
  190.2200  177.2940  137.8740 C   0  0  0  0  0  1  0  0  0  0  0  0
  1 14  1  0  0  0  0
  2 12  1  6  0  0  0
  2  1  1  0  0  0  0
  2 19  1  0  0  0  0
  4  1  1  0  0  0  0
  4  8  1  0  0  0  0
  5 20  1  6  0  0  0
  5 18  1  0  0  0  0
  5 12  1  0  0  0  0
  6  9  1  0  0  0  0
  7  3  1  0  0  0  0
  8 15  1  0  0  0  0
  9  8  2  0  0  0  0
 10 19  1  0  0  0  0
 10 11  1  1  0  0  0
 13 17  1  0  0  0  0
 13  6  2  0  0  0  0
 14 15  2  0  0  0  0
 14  3  1  0  0  0  0
 16 10  1  0  0  0  0
 17  4  2  0  0  0  0
 18 16  1  0  0  0  0
 19  7  1  1  0  0  0
 22 21  1  6  0  0  0
 22 20  1  0  0  0  0
 23 22  1  0  0  0  0
 24 23  2  0  0  0  0
 25 23  1  0  0  0  0
M  END
>  <MODEL>
3

>  <REMARK>
 VINA RESULT:      -8.9      1.436      1.634
  Name = 
  3 active torsions:
  status: ('A' for Active; 'I' for Inactive)
    1  A    between atoms: C_2  and  C_25
    2  A    between atoms: C_6  and  C_15
    3  A    between atoms: C_15  and  C_25
                            x       y       z     vdW  Elec       q    Type
                         _______ _______ _______ _____ _____    ______ ____

>  <TORSDO>
F 3

$$$$
=
 OpenBabel10262419553D

 25 28  0  0  1  0  0  0  0  0999 V2000
  187.0040  178.4070  142.8470 N   0  0  0  0  0  0  0  0  0  0  0  0
  188.3560  177.8710  142.7680 C   0  0  2  0  0  3  0  0  0  0  0  0
  186.8550  178.3090  140.4160 C   0  0  0  0  0  2  0  0  0  0  0  0
  186.1340  178.4850  143.8630 C   0  0  0  0  0  0  0  0  0  0  0  0
  190.6780  177.7620  143.8050 C   0  0  2  0  0  3  0  0  0  0  0  0
  183.9530  178.6700  145.5500 C   0  0  0  0  0  3  0  0  0  0  0  0
  188.1760  178.8160  140.4120 O   0  0  0  0  0  0  0  0  0  0  0  0
  184.8890  178.7250  143.3480 C   0  0  0  0  0  0  0  0  0  0  0  0
  183.7650  178.8230  144.1630 C   0  0  0  0  0  3  0  0  0  0  0  0
  189.7830  176.9680  140.8710 C   0  0  1  0  0  3  0  0  0  0  0  0
  190.2090  177.1690  139.4270 C   0  0  0  0  0  1  0  0  0  0  0  0
  189.2490  178.3170  143.9230 C   0  0  0  0  0  2  0  0  0  0  0  0
  185.2390  178.4080  146.0780 C   0  0  0  0  0  3  0  0  0  0  0  0
  186.2470  178.5560  141.7500 C   0  0  0  0  0  0  0  0  0  0  0  0
  184.9280  178.7570  141.9990 N   0  0  0  0  0  0  0  0  0  0  0  0
  191.0430  176.7400  141.7120 C   0  0  0  0  0  2  0  0  0  0  0  0
  186.3550  178.3040  145.2280 C   0  0  0  0  0  3  0  0  0  0  0  0
  190.7220  176.4740  143.1120 N   0  0  0  0  0  2  0  0  0  0  0  0
  189.0050  178.1820  141.3920 C   0  0  2  0  0  3  0  0  0  0  0  0
  191.3560  177.6770  145.1720 C   0  0  0  0  0  2  0  0  0  0  0  0
  190.0260  177.0630  147.1840 C   0  0  0  0  0  1  0  0  0  0  0  0
  190.8420  176.5200  146.0280 C   0  0  2  0  0  3  0  0  0  0  0  0
  191.9630  175.6640  146.5390 C   0  0  0  0  0  0  0  0  0  0  0  0
  192.4510  174.8170  145.8100 O   0  0  0  0  0  0  0  0  0  0  0  0
  192.4890  175.8270  147.9280 C   0  0  0  0  0  1  0  0  0  0  0  0
  1  4  1  0  0  0  0
  2  1  1  0  0  0  0
  2 12  1  1  0  0  0
  3 14  1  0  0  0  0
  4 17  1  0  0  0  0
  5 12  1  0  0  0  0
  5 20  1  1  0  0  0
  6 13  1  0  0  0  0
  7  3  1  0  0  0  0
  8  4  2  0  0  0  0
  8  9  1  0  0  0  0
  9  6  2  0  0  0  0
 10 11  1  6  0  0  0
 10 19  1  0  0  0  0
 10 16  1  0  0  0  0
 14 15  2  0  0  0  0
 14  1  1  0  0  0  0
 15  8  1  0  0  0  0
 16 18  1  0  0  0  0
 17 13  2  0  0  0  0
 18  5  1  0  0  0  0
 19  7  1  6  0  0  0
 19  2  1  0  0  0  0
 20 22  1  0  0  0  0
 22 23  1  0  0  0  0
 22 21  1  1  0  0  0
 23 25  1  0  0  0  0
 24 23  2  0  0  0  0
M  END
>  <MODEL>
4

>  <REMARK>
 VINA RESULT:      -8.6      2.047      4.882
  Name = 
  3 active torsions:
  status: ('A' for Active; 'I' for Inactive)
    1  A    between atoms: C_2  and  C_25
    2  A    between atoms: C_6  and  C_15
    3  A    between atoms: C_15  and  C_25
                            x       y       z     vdW  Elec       q    Type
                         _______ _______ _______ _____ _____    ______ ____

>  <TORSDO>
F 3

$$$$
=
 OpenBabel10262419553D

 25 28  0  0  1  0  0  0  0  0999 V2000
  186.9380  178.0830  141.4260 N   0  0  0  0  0  0  0  0  0  0  0  0
  186.5500  178.2140  142.8240 C   0  0  2  0  0  3  0  0  0  0  0  0
  184.7840  179.0180  140.7710 C   0  0  0  0  0  2  0  0  0  0  0  0
  188.1340  177.9180  140.8460 C   0  0  0  0  0  0  0  0  0  0  0  0
  186.7660  177.3200  145.1980 C   0  0  2  0  0  3  0  0  0  0  0  0
  190.3470  177.8010  139.1950 C   0  0  0  0  0  3  0  0  0  0  0  0
  184.2300  178.1930  141.7780 O   0  0  0  0  0  0  0  0  0  0  0  0
  188.0130  178.2200  139.5150 C   0  0  0  0  0  0  0  0  0  0  0  0
  189.1030  178.1750  138.6510 C   0  0  0  0  0  3  0  0  0  0  0  0
  184.5590  179.2580  144.0070 C   0  0  1  0  0  3  0  0  0  0  0  0
  183.0510  179.4360  143.9880 C   0  0  0  0  0  1  0  0  0  0  0  0
  187.2100  177.1800  143.7320 C   0  0  0  0  0  2  0  0  0  0  0  0
  190.4720  177.5030  140.5710 C   0  0  0  0  0  3  0  0  0  0  0  0
  186.1450  178.5230  140.4380 C   0  0  0  0  0  0  0  0  0  0  0  0
  186.7580  178.6280  139.2310 N   0  0  0  0  0  0  0  0  0  0  0  0
  184.9710  178.8330  145.4200 C   0  0  0  0  0  2  0  0  0  0  0  0
  189.3530  177.5680  141.4230 C   0  0  0  0  0  3  0  0  0  0  0  0
  186.4200  178.6980  145.5470 N   0  0  0  0  0  2  0  0  0  0  0  0
  185.0050  178.2090  142.9820 C   0  0  2  0  0  3  0  0  0  0  0  0
  187.8150  176.7540  146.1540 C   0  0  0  0  0  2  0  0  0  0  0  0
  190.1890  177.1280  145.5030 C   0  0  0  0  0  1  0  0  0  0  0  0
  189.0310  177.6660  146.3210 C   0  0  2  0  0  3  0  0  0  0  0  0
  189.4300  177.8040  147.7590 C   0  0  0  0  0  0  0  0  0  0  0  0
  190.5730  177.5410  148.0930 O   0  0  0  0  0  0  0  0  0  0  0  0
  188.4500  178.2520  148.7940 C   0  0  0  0  0  1  0  0  0  0  0  0
  1  2  1  0  0  0  0
  2 19  1  0  0  0  0
  2 12  1  1  0  0  0
  3  7  1  0  0  0  0
  4 17  1  0  0  0  0
  4  1  1  0  0  0  0
  5 18  1  0  0  0  0
  5 20  1  1  0  0  0
  6 13  1  0  0  0  0
  8  4  2  0  0  0  0
  9  6  2  0  0  0  0
  9  8  1  0  0  0  0
 10 11  1  1  0  0  0
 10 16  1  0  0  0  0
 12  5  1  0  0  0  0
 13 17  2  0  0  0  0
 14  3  1  0  0  0  0
 14  1  1  0  0  0  0
 15  8  1  0  0  0  0
 15 14  2  0  0  0  0
 16 18  1  0  0  0  0
 19  7  1  6  0  0  0
 19 10  1  0  0  0  0
 20 22  1  0  0  0  0
 22 21  1  6  0  0  0
 22 23  1  0  0  0  0
 23 24  2  0  0  0  0
 23 25  1  0  0  0  0
M  END
>  <MODEL>
5

>  <REMARK>
 VINA RESULT:      -8.5      2.476      6.493
  Name = 
  3 active torsions:
  status: ('A' for Active; 'I' for Inactive)
    1  A    between atoms: C_2  and  C_25
    2  A    between atoms: C_6  and  C_15
    3  A    between atoms: C_15  and  C_25
                            x       y       z     vdW  Elec       q    Type
                         _______ _______ _______ _____ _____    ______ ____

>  <TORSDO>
F 3

$$$$
=
 OpenBabel10262419553D

 25 28  0  0  1  0  0  0  0  0999 V2000
  187.0540  177.8580  144.7590 N   0  0  0  0  0  0  0  0  0  0  0  0
  188.3610  177.7960  144.1190 C   0  0  2  0  0  3  0  0  0  0  0  0
  188.1370  177.5990  146.9270 C   0  0  0  0  0  2  0  0  0  0  0  0
  185.8680  178.2990  144.3210 C   0  0  0  0  0  0  0  0  0  0  0  0
  189.7040  177.1530  142.0540 C   0  0  2  0  0  3  0  0  0  0  0  0
  183.3050  179.2730  143.9660 C   0  0  0  0  0  3  0  0  0  0  0  0
  188.9410  176.6190  146.2990 O   0  0  0  0  0  0  0  0  0  0  0  0
  185.0500  178.4870  145.4030 C   0  0  0  0  0  0  0  0  0  0  0  0
  183.7540  178.9770  145.2680 C   0  0  0  0  0  3  0  0  0  0  0  0
  190.7460  177.7340  144.9900 C   0  0  1  0  0  3  0  0  0  0  0  0
  191.6760  177.1430  146.0360 C   0  0  0  0  0  1  0  0  0  0  0  0
  188.3110  177.2340  142.7000 C   0  0  0  0  0  2  0  0  0  0  0  0
  184.1560  179.0910  142.8520 C   0  0  0  0  0  3  0  0  0  0  0  0
  186.9290  177.8380  146.0940 C   0  0  0  0  0  0  0  0  0  0  0  0
  185.7080  178.2180  146.5500 N   0  0  0  0  0  0  0  0  0  0  0  0
  191.4140  177.5840  143.6200 C   0  0  0  0  0  2  0  0  0  0  0  0
  185.4650  178.6040  143.0210 C   0  0  0  0  0  3  0  0  0  0  0  0
  190.6130  178.1840  142.5550 N   0  0  0  0  0  2  0  0  0  0  0  0
  189.3830  177.0300  145.0000 C   0  0  2  0  0  3  0  0  0  0  0  0
  189.6130  177.1910  140.5290 C   0  0  0  0  0  2  0  0  0  0  0  0
  191.9950  177.3310  139.8200 C   0  0  0  0  0  1  0  0  0  0  0  0
  190.7600  176.4520  139.8390 C   0  0  2  0  0  3  0  0  0  0  0  0
  190.3960  176.0360  138.4460 C   0  0  0  0  0  0  0  0  0  0  0  0
  190.5510  174.8750  138.1060 O   0  0  0  0  0  0  0  0  0  0  0  0
  189.8510  177.0200  137.4620 C   0  0  0  0  0  1  0  0  0  0  0  0
  1 14  1  0  0  0  0
  2 12  1  6  0  0  0
  2  1  1  0  0  0  0
  2 19  1  0  0  0  0
  4  1  1  0  0  0  0
  4  8  1  0  0  0  0
  5 20  1  6  0  0  0
  5 18  1  0  0  0  0
  5 12  1  0  0  0  0
  6  9  1  0  0  0  0
  7  3  1  0  0  0  0
  8 15  1  0  0  0  0
  9  8  2  0  0  0  0
 10 19  1  0  0  0  0
 10 11  1  1  0  0  0
 13 17  1  0  0  0  0
 13  6  2  0  0  0  0
 14 15  2  0  0  0  0
 14  3  1  0  0  0  0
 16 10  1  0  0  0  0
 17  4  2  0  0  0  0
 18 16  1  0  0  0  0
 19  7  1  1  0  0  0
 22 21  1  6  0  0  0
 22 20  1  0  0  0  0
 23 22  1  0  0  0  0
 24 23  2  0  0  0  0
 25 23  1  0  0  0  0
M  END
>  <MODEL>
6

>  <REMARK>
 VINA RESULT:      -8.5      1.306      1.643
  Name = 
  3 active torsions:
  status: ('A' for Active; 'I' for Inactive)
    1  A    between atoms: C_2  and  C_25
    2  A    between atoms: C_6  and  C_15
    3  A    between atoms: C_15  and  C_25
                            x       y       z     vdW  Elec       q    Type
                         _______ _______ _______ _____ _____    ______ ____

>  <TORSDO>
F 3

$$$$
=
 OpenBabel10262419553D

 25 28  0  0  1  0  0  0  0  0999 V2000
  190.0110  177.5960  141.8910 N   0  0  0  0  0  0  0  0  0  0  0  0
  188.9660  177.4930  142.9010 C   0  0  2  0  0  3  0  0  0  0  0  0
  191.6800  177.6390  143.6660 C   0  0  0  0  0  2  0  0  0  0  0  0
  190.0080  177.3360  140.5770 C   0  0  0  0  0  0  0  0  0  0  0  0
  186.5560  178.0010  143.5460 C   0  0  2  0  0  3  0  0  0  0  0  0
  190.5590  176.7390  137.9360 C   0  0  0  0  0  3  0  0  0  0  0  0
  190.7980  178.5150  144.3410 O   0  0  0  0  0  0  0  0  0  0  0  0
  191.3060  177.2330  140.1550 C   0  0  0  0  0  0  0  0  0  0  0  0
  191.6260  176.9320  138.8340 C   0  0  0  0  0  3  0  0  0  0  0  0
  188.9800  177.1980  145.4240 C   0  0  1  0  0  3  0  0  0  0  0  0
  189.6380  177.6240  146.7250 C   0  0  0  0  0  1  0  0  0  0  0  0
  187.6360  178.0970  142.4550 C   0  0  0  0  0  2  0  0  0  0  0  0
  189.2190  176.8320  138.3780 C   0  0  0  0  0  3  0  0  0  0  0  0
  191.3090  177.5950  142.2280 C   0  0  0  0  0  0  0  0  0  0  0  0
  192.1580  177.3750  141.1910 N   0  0  0  0  0  0  0  0  0  0  0  0
  187.4610  177.2930  145.6050 C   0  0  0  0  0  2  0  0  0  0  0  0
  188.9270  177.1270  139.7220 C   0  0  0  0  0  3  0  0  0  0  0  0
  186.7420  176.8400  144.4170 N   0  0  0  0  0  2  0  0  0  0  0  0
  189.4350  178.0840  144.2580 C   0  0  2  0  0  3  0  0  0  0  0  0
  185.1530  178.0200  142.9420 C   0  0  0  0  0  2  0  0  0  0  0  0
  184.2730  179.0030  145.0530 C   0  0  0  0  0  1  0  0  0  0  0  0
  184.2540  179.1020  143.5410 C   0  0  2  0  0  3  0  0  0  0  0  0
  182.8480  179.0030  143.0300 C   0  0  0  0  0  0  0  0  0  0  0  0
  182.6470  178.9660  141.8280 O   0  0  0  0  0  0  0  0  0  0  0  0
  181.6860  178.9550  143.9680 C   0  0  0  0  0  1  0  0  0  0  0  0
  1 14  1  0  0  0  0
  1  2  1  0  0  0  0
  2 12  1  6  0  0  0
  2 19  1  0  0  0  0
  3  7  1  0  0  0  0
  4  1  1  0  0  0  0
  5 20  1  6  0  0  0
  5 18  1  0  0  0  0
  6 13  2  0  0  0  0
  6  9  1  0  0  0  0
  8  4  1  0  0  0  0
  8 15  1  0  0  0  0
  9  8  2  0  0  0  0
 10 16  1  0  0  0  0
 10 11  1  1  0  0  0
 12  5  1  0  0  0  0
 13 17  1  0  0  0  0
 14  3  1  0  0  0  0
 15 14  2  0  0  0  0
 17  4  2  0  0  0  0
 18 16  1  0  0  0  0
 19  7  1  6  0  0  0
 19 10  1  0  0  0  0
 20 22  1  0  0  0  0
 22 21  1  1  0  0  0
 23 22  1  0  0  0  0
 23 25  1  0  0  0  0
 24 23  2  0  0  0  0
M  END
>  <MODEL>
7

>  <REMARK>
 VINA RESULT:      -8.1      2.323      6.548
  Name = 
  3 active torsions:
  status: ('A' for Active; 'I' for Inactive)
    1  A    between atoms: C_2  and  C_25
    2  A    between atoms: C_6  and  C_15
    3  A    between atoms: C_15  and  C_25
                            x       y       z     vdW  Elec       q    Type
                         _______ _______ _______ _____ _____    ______ ____

>  <TORSDO>
F 3

$$$$
=
 OpenBabel10262419553D

 25 28  0  0  1  0  0  0  0  0999 V2000
  186.6870  178.1780  145.0450 N   0  0  0  0  0  0  0  0  0  0  0  0
  185.7290  178.2420  143.9490 C   0  0  2  0  0  3  0  0  0  0  0  0
  184.8570  178.4790  146.6250 C   0  0  0  0  0  2  0  0  0  0  0  0
  187.9440  177.7180  145.1020 C   0  0  0  0  0  0  0  0  0  0  0  0
  185.2940  178.8680  141.5200 C   0  0  2  0  0  3  0  0  0  0  0  0
  190.4310  176.7150  145.7720 C   0  0  0  0  0  3  0  0  0  0  0  0
  184.3710  179.4570  145.7260 O   0  0  0  0  0  0  0  0  0  0  0  0
  188.2790  177.5390  146.4170 C   0  0  0  0  0  0  0  0  0  0  0  0
  189.5190  177.0340  146.7960 C   0  0  0  0  0  3  0  0  0  0  0  0
  183.1940  178.3410  143.8340 C   0  0  1  0  0  3  0  0  0  0  0  0
  181.9420  178.9570  144.4340 C   0  0  0  0  0  1  0  0  0  0  0  0
  186.3300  178.7830  142.6540 C   0  0  0  0  0  2  0  0  0  0  0  0
  190.0780  176.8880  144.4130 C   0  0  0  0  0  3  0  0  0  0  0  0
  186.2880  178.2170  146.3240 C   0  0  0  0  0  0  0  0  0  0  0  0
  187.2340  177.8310  147.2190 N   0  0  0  0  0  0  0  0  0  0  0  0
  183.1070  178.4780  142.3100 C   0  0  0  0  0  2  0  0  0  0  0  0
  188.8110  177.3900  144.0600 C   0  0  0  0  0  3  0  0  0  0  0  0
  184.2470  177.8540  141.6430 N   0  0  0  0  0  2  0  0  0  0  0  0
  184.4570  179.0320  144.3610 C   0  0  2  0  0  3  0  0  0  0  0  0
  185.9650  178.8070  140.1490 C   0  0  0  0  0  2  0  0  0  0  0  0
  185.7860  178.1560  137.7530 C   0  0  0  0  0  1  0  0  0  0  0  0
  185.0050  178.4140  139.0260 C   0  0  2  0  0  3  0  0  0  0  0  0
  183.9610  179.4650  138.7920 C   0  0  0  0  0  0  0  0  0  0  0  0
  184.2580  180.6420  138.9120 O   0  0  0  0  0  0  0  0  0  0  0  0
  182.5620  179.0960  138.4210 C   0  0  0  0  0  1  0  0  0  0  0  0
  1  4  1  0  0  0  0
  1 14  1  0  0  0  0
  2 12  1  6  0  0  0
  2 19  1  0  0  0  0
  2  1  1  0  0  0  0
  4  8  1  0  0  0  0
  5 20  1  6  0  0  0
  5 18  1  0  0  0  0
  5 12  1  0  0  0  0
  6  9  1  0  0  0  0
  7  3  1  0  0  0  0
  8  9  2  0  0  0  0
  8 15  1  0  0  0  0
 10 19  1  0  0  0  0
 10 11  1  1  0  0  0
 13  6  2  0  0  0  0
 14  3  1  0  0  0  0
 14 15  2  0  0  0  0
 16 10  1  0  0  0  0
 17 13  1  0  0  0  0
 17  4  2  0  0  0  0
 18 16  1  0  0  0  0
 19  7  1  1  0  0  0
 22 21  1  6  0  0  0
 22 20  1  0  0  0  0
 23 24  2  0  0  0  0
 23 22  1  0  0  0  0
 25 23  1  0  0  0  0
M  END
>  <MODEL>
8

>  <REMARK>
 VINA RESULT:      -8.1      3.031      5.889
  Name = 
  3 active torsions:
  status: ('A' for Active; 'I' for Inactive)
    1  A    between atoms: C_2  and  C_25
    2  A    between atoms: C_6  and  C_15
    3  A    between atoms: C_15  and  C_25
                            x       y       z     vdW  Elec       q    Type
                         _______ _______ _______ _____ _____    ______ ____

>  <TORSDO>
F 3

$$$$
=
 OpenBabel10262419553D

 25 28  0  0  1  0  0  0  0  0999 V2000
  186.7090  178.5060  141.4390 N   0  0  0  0  0  0  0  0  0  0  0  0
  187.9550  177.8700  141.0360 C   0  0  2  0  0  3  0  0  0  0  0  0
  186.0470  178.6270  139.0970 C   0  0  0  0  0  2  0  0  0  0  0  0
  186.0830  178.5690  142.6220 C   0  0  0  0  0  0  0  0  0  0  0  0
  190.4210  177.4830  141.5380 C   0  0  2  0  0  3  0  0  0  0  0  0
  184.3320  178.7900  144.7490 C   0  0  0  0  0  3  0  0  0  0  0  0
  187.3810  179.0230  138.8410 O   0  0  0  0  0  0  0  0  0  0  0  0
  184.7870  178.9540  142.4050 C   0  0  0  0  0  0  0  0  0  0  0  0
  183.8740  179.0750  143.4480 C   0  0  0  0  0  3  0  0  0  0  0  0
  188.8580  177.0160  138.8210 C   0  0  1  0  0  3  0  0  0  0  0  0
  188.9910  177.3030  137.3350 C   0  0  0  0  0  1  0  0  0  0  0  0
  189.1100  178.1420  141.9980 C   0  0  0  0  0  2  0  0  0  0  0  0
  185.6670  178.3790  144.9690 C   0  0  0  0  0  3  0  0  0  0  0  0
  185.7580  178.8090  140.5440 C   0  0  0  0  0  0  0  0  0  0  0  0
  184.5470  179.0960  141.0850 N   0  0  0  0  0  0  0  0  0  0  0  0
  190.2380  176.6150  139.3530 C   0  0  0  0  0  2  0  0  0  0  0  0
  186.5650  178.2560  143.8920 C   0  0  0  0  0  3  0  0  0  0  0  0
  190.1920  176.2590  140.7690 N   0  0  0  0  0  2  0  0  0  0  0  0
  188.3300  178.2410  139.5760 C   0  0  2  0  0  3  0  0  0  0  0  0
  191.3580  177.2280  142.7180 C   0  0  0  0  0  2  0  0  0  0  0  0
  192.0280  178.9490  144.3870 C   0  0  0  0  0  1  0  0  0  0  0  0
  190.9420  177.9680  143.9890 C   0  0  2  0  0  3  0  0  0  0  0  0
  190.6560  177.0220  145.1160 C   0  0  0  0  0  0  0  0  0  0  0  0
  189.5000  176.8030  145.4370 O   0  0  0  0  0  0  0  0  0  0  0  0
  191.7630  176.3470  145.8590 C   0  0  0  0  0  1  0  0  0  0  0  0
  1  4  1  0  0  0  0
  2  1  1  0  0  0  0
  2 12  1  1  0  0  0
  3 14  1  0  0  0  0
  4 17  1  0  0  0  0
  5 12  1  0  0  0  0
  5 20  1  1  0  0  0
  6 13  1  0  0  0  0
  7  3  1  0  0  0  0
  8  4  2  0  0  0  0
  8  9  1  0  0  0  0
  9  6  2  0  0  0  0
 10 11  1  6  0  0  0
 10 16  1  0  0  0  0
 10 19  1  0  0  0  0
 14 15  2  0  0  0  0
 14  1  1  0  0  0  0
 15  8  1  0  0  0  0
 16 18  1  0  0  0  0
 17 13  2  0  0  0  0
 18  5  1  0  0  0  0
 19  7  1  6  0  0  0
 19  2  1  0  0  0  0
 20 22  1  0  0  0  0
 22 21  1  1  0  0  0
 22 23  1  0  0  0  0
 23 24  2  0  0  0  0
 23 25  1  0  0  0  0
M  END
>  <MODEL>
9

>  <REMARK>
 VINA RESULT:      -8.0      2.443      5.381
  Name = 
  3 active torsions:
  status: ('A' for Active; 'I' for Inactive)
    1  A    between atoms: C_2  and  C_25
    2  A    between atoms: C_6  and  C_15
    3  A    between atoms: C_15  and  C_25
                            x       y       z     vdW  Elec       q    Type
                         _______ _______ _______ _____ _____    ______ ____

>  <TORSDO>
F 3

$$$$
