=
 OpenBabel10262420533D

 28 32  0  0  1  0  0  0  0  0999 V2000
  190.2500  176.4060  143.8610 N   0  0  0  0  0  0  0  0  0  0  0  0
  185.2920  178.2830  143.0400 C   0  0  0  0  0  3  0  0  0  0  0  0
  188.8350  177.6570  148.0350 O   0  0  0  0  0  0  0  0  0  0  0  0
  184.5750  178.5860  145.3420 C   0  0  0  0  0  0  0  0  0  0  0  0
  187.0010  177.9890  144.8720 C   0  0  2  0  0  3  0  0  0  0  0  0
  183.0050  178.9060  143.5210 C   0  0  0  0  0  0  0  0  0  0  0  0
  185.5840  178.2390  144.4110 C   0  0  0  0  0  0  0  0  0  0  0  0
  186.2980  178.6450  147.1830 C   0  0  0  0  0  2  0  0  0  0  0  0
  183.2890  178.8960  144.8890 C   0  0  0  0  0  3  0  0  0  0  0  0
  189.4810  177.0160  145.8390 C   0  0  0  0  0  0  0  0  0  0  0  0
  187.7620  176.9770  143.9910 C   0  0  0  0  0  2  0  0  0  0  0  0
  184.8170  178.5470  146.8270 C   0  0  0  0  0  2  0  0  0  0  0  0
  190.8310  176.7290  145.9180 C   0  0  0  0  0  0  0  0  0  0  0  0
  188.5050  177.4730  146.8320 C   0  0  0  0  0  0  0  0  0  0  0  0
  191.6880  176.8110  147.1310 C   0  0  0  0  0  1  0  0  0  0  0  0
  181.3930  179.3030  142.9670 Cl  0  0  0  0  0  0  0  0  0  0  0  0
  184.0060  178.6060  142.5970 C   0  0  0  0  0  3  0  0  0  0  0  0
  187.0710  177.6140  146.3740 C   0  0  2  0  0  3  0  0  0  0  0  0
  191.2800  176.3600  144.6980 N   0  0  0  0  0  0  0  0  0  0  0  0
  189.1530  176.8130  144.5270 C   0  0  0  0  0  0  0  0  0  0  0  0
  190.3450  176.1130  142.4360 C   0  0  0  0  0  2  0  0  0  0  0  0
  190.4620  177.3890  141.6010 C   0  0  2  0  0  3  0  0  0  0  0  0
  189.9340  177.6460  138.7750 C   0  0  0  0  0  0  0  0  0  0  0  0
  189.1150  177.8130  141.0580 C   0  0  0  0  0  3  0  0  0  0  0  0
  191.5440  177.2570  140.5530 C   0  0  0  0  0  3  0  0  0  0  0  0
  191.2930  177.3570  139.2470 C   0  0  0  0  0  3  0  0  0  0  0  0
  189.6870  177.6890  137.5420 O   0  0  0  0  0  0  0  0  0  0  0  0
  188.8700  177.9130  139.7500 C   0  0  0  0  0  3  0  0  0  0  0  0
  1 20  1  0  0  0  0
  1 19  1  0  0  0  0
  2  7  1  0  0  0  0
  4 12  1  0  0  0  0
  5 11  1  6  0  0  0
  5 18  1  0  0  0  0
  6  9  2  0  0  0  0
  7  5  1  0  0  0  0
  7  4  2  0  0  0  0
  9  4  1  0  0  0  0
 10 13  1  0  0  0  0
 10 14  1  0  0  0  0
 11 20  1  0  0  0  0
 12  8  1  0  0  0  0
 13 15  1  0  0  0  0
 14  3  2  0  0  0  0
 16  6  1  0  0  0  0
 17  2  2  0  0  0  0
 17  6  1  0  0  0  0
 18 14  1  0  0  0  0
 18  8  1  1  0  0  0
 19 13  2  0  0  0  0
 20 10  2  0  0  0  0
 21  1  1  0  0  0  0
 22 21  1  6  0  0  0
 23 26  1  0  0  0  0
 23 28  1  0  0  0  0
 24 22  1  0  0  0  0
 25 22  1  0  0  0  0
 26 25  2  0  0  0  0
 27 23  2  0  0  0  0
 28 24  2  0  0  0  0
M  END
>  <MODEL>
1

>  <REMARK>
 VINA RESULT:     -12.0      0.000      0.000
  Name = 
  2 active torsions:
  status: ('A' for Active; 'I' for Inactive)
    1  A    between atoms: N_1  and  C_2
    2  A    between atoms: C_2  and  C_3
                            x       y       z     vdW  Elec       q    Type
                         _______ _______ _______ _____ _____    ______ ____

>  <TORSDO>
F 2

$$$$
=
 OpenBabel10262420533D

 28 32  0  0  1  0  0  0  0  0999 V2000
  187.5150  178.5590  140.4780 N   0  0  0  0  0  0  0  0  0  0  0  0
  190.5480  176.8590  144.5630 C   0  0  0  0  0  3  0  0  0  0  0  0
  184.5950  178.3240  144.0010 O   0  0  0  0  0  0  0  0  0  0  0  0
  188.9620  177.1020  146.3880 C   0  0  0  0  0  0  0  0  0  0  0  0
  188.1570  177.4340  144.0000 C   0  0  2  0  0  3  0  0  0  0  0  0
  191.2660  176.4950  146.8440 C   0  0  0  0  0  0  0  0  0  0  0  0
  189.2560  177.1780  145.0050 C   0  0  0  0  0  0  0  0  0  0  0  0
  186.5030  177.3340  145.8760 C   0  0  0  0  0  2  0  0  0  0  0  0
  189.9760  176.7810  147.2970 C   0  0  0  0  0  3  0  0  0  0  0  0
  186.1810  178.4370  142.2330 C   0  0  0  0  0  0  0  0  0  0  0  0
  188.6400  178.1840  142.7420 C   0  0  0  0  0  2  0  0  0  0  0  0
  187.6010  177.4440  146.9310 C   0  0  0  0  0  2  0  0  0  0  0  0
  185.4420  178.6510  141.0850 C   0  0  0  0  0  0  0  0  0  0  0  0
  185.8010  178.2650  143.6380 C   0  0  0  0  0  0  0  0  0  0  0  0
  183.9630  178.7790  140.9890 C   0  0  0  0  0  1  0  0  0  0  0  0
  192.5240  176.0890  147.9910 Cl  0  0  0  0  0  0  0  0  0  0  0  0
  191.5510  176.5280  145.4780 C   0  0  0  0  0  3  0  0  0  0  0  0
  186.9230  178.1180  144.6410 C   0  0  2  0  0  3  0  0  0  0  0  0
  186.2770  178.7210  140.0250 N   0  0  0  0  0  0  0  0  0  0  0  0
  187.4810  178.3740  141.8110 C   0  0  0  0  0  0  0  0  0  0  0  0
  188.6980  178.5340  139.6260 C   0  0  0  0  0  2  0  0  0  0  0  0
  189.0580  177.1090  139.2000 C   0  0  2  0  0  3  0  0  0  0  0  0
  191.2270  176.3360  137.4600 C   0  0  0  0  0  0  0  0  0  0  0  0
  190.4210  176.7110  139.7220 C   0  0  0  0  0  3  0  0  0  0  0  0
  188.8830  176.9250  137.7090 C   0  0  0  0  0  3  0  0  0  0  0  0
  189.8920  176.5860  136.9050 C   0  0  0  0  0  3  0  0  0  0  0  0
  192.1900  176.0670  136.6950 O   0  0  0  0  0  0  0  0  0  0  0  0
  191.4260  176.3710  138.9130 C   0  0  0  0  0  3  0  0  0  0  0  0
  1 20  1  0  0  0  0
  2  7  2  0  0  0  0
  2 17  1  0  0  0  0
  4 12  1  0  0  0  0
  4  9  2  0  0  0  0
  5 11  1  6  0  0  0
  5 18  1  0  0  0  0
  5  7  1  0  0  0  0
  6  9  1  0  0  0  0
  6 16  1  0  0  0  0
  7  4  1  0  0  0  0
  8 12  1  0  0  0  0
 10 14  1  0  0  0  0
 13 10  1  0  0  0  0
 14  3  2  0  0  0  0
 14 18  1  0  0  0  0
 15 13  1  0  0  0  0
 17  6  2  0  0  0  0
 18  8  1  1  0  0  0
 19  1  1  0  0  0  0
 19 13  2  0  0  0  0
 20 10  2  0  0  0  0
 20 11  1  0  0  0  0
 21  1  1  0  0  0  0
 22 21  1  6  0  0  0
 22 24  1  0  0  0  0
 23 28  1  0  0  0  0
 25 22  1  0  0  0  0
 26 23  1  0  0  0  0
 26 25  2  0  0  0  0
 27 23  2  0  0  0  0
 28 24  2  0  0  0  0
M  END
>  <MODEL>
2

>  <REMARK>
 VINA RESULT:     -11.2      3.365      5.548
  Name = 
  2 active torsions:
  status: ('A' for Active; 'I' for Inactive)
    1  A    between atoms: N_1  and  C_2
    2  A    between atoms: C_2  and  C_3
                            x       y       z     vdW  Elec       q    Type
                         _______ _______ _______ _____ _____    ______ ____

>  <TORSDO>
F 2

$$$$
=
 OpenBabel10262420533D

 28 32  0  0  1  0  0  0  0  0999 V2000
  187.2850  178.4820  140.5710 N   0  0  0  0  0  0  0  0  0  0  0  0
  190.4260  176.7950  144.5790 C   0  0  0  0  0  3  0  0  0  0  0  0
  184.5110  178.4620  144.2160 O   0  0  0  0  0  0  0  0  0  0  0  0
  188.9280  177.1530  146.4600 C   0  0  0  0  0  0  0  0  0  0  0  0
  188.0350  177.4410  144.0970 C   0  0  2  0  0  3  0  0  0  0  0  0
  191.2270  176.4750  146.8390 C   0  0  0  0  0  0  0  0  0  0  0  0
  189.1660  177.1760  145.0640 C   0  0  0  0  0  0  0  0  0  0  0  0
  186.4600  177.4600  146.0420 C   0  0  0  0  0  2  0  0  0  0  0  0
  189.9670  176.8230  147.3350 C   0  0  0  0  0  3  0  0  0  0  0  0
  186.0230  178.4630  142.3820 C   0  0  0  0  0  0  0  0  0  0  0  0
  188.4910  178.1340  142.7960 C   0  0  0  0  0  2  0  0  0  0  0  0
  187.6040  177.5620  147.0470 C   0  0  0  0  0  2  0  0  0  0  0  0
  185.2440  178.6690  141.2590 C   0  0  0  0  0  0  0  0  0  0  0  0
  185.6970  178.3480  143.8060 C   0  0  0  0  0  0  0  0  0  0  0  0
  183.7680  178.8490  141.2200 C   0  0  0  0  0  1  0  0  0  0  0  0
  192.5160  176.0580  147.9460 Cl  0  0  0  0  0  0  0  0  0  0  0  0
  191.4540  176.4560  145.4620 C   0  0  0  0  0  3  0  0  0  0  0  0
  186.8540  178.1900  144.7670 C   0  0  2  0  0  3  0  0  0  0  0  0
  186.0350  178.6760  140.1640 N   0  0  0  0  0  0  0  0  0  0  0  0
  187.3010  178.3390  141.9090 C   0  0  0  0  0  0  0  0  0  0  0  0
  188.4290  178.3860  139.6710 C   0  0  0  0  0  2  0  0  0  0  0  0
  188.0020  178.0200  138.2480 C   0  0  2  0  0  3  0  0  0  0  0  0
  189.6640  176.8290  136.2120 C   0  0  0  0  0  0  0  0  0  0  0  0
  188.0730  176.5260  138.0240 C   0  0  0  0  0  3  0  0  0  0  0  0
  188.7550  178.8410  137.2250 C   0  0  0  0  0  3  0  0  0  0  0  0
  189.5370  178.2880  136.2970 C   0  0  0  0  0  3  0  0  0  0  0  0
  190.4420  176.3100  135.3700 O   0  0  0  0  0  0  0  0  0  0  0  0
  188.8570  175.9780  137.0930 C   0  0  0  0  0  3  0  0  0  0  0  0
  1 20  1  0  0  0  0
  2  7  2  0  0  0  0
  2 17  1  0  0  0  0
  4 12  1  0  0  0  0
  4  9  2  0  0  0  0
  5 11  1  6  0  0  0
  5 18  1  0  0  0  0
  5  7  1  0  0  0  0
  6  9  1  0  0  0  0
  6 16  1  0  0  0  0
  7  4  1  0  0  0  0
  8 12  1  0  0  0  0
 10 14  1  0  0  0  0
 13 10  1  0  0  0  0
 14  3  2  0  0  0  0
 14 18  1  0  0  0  0
 15 13  1  0  0  0  0
 17  6  2  0  0  0  0
 18  8  1  1  0  0  0
 19  1  1  0  0  0  0
 19 13  2  0  0  0  0
 20 10  2  0  0  0  0
 20 11  1  0  0  0  0
 21  1  1  0  0  0  0
 22 21  1  1  0  0  0
 23 26  1  0  0  0  0
 23 28  1  0  0  0  0
 24 22  1  0  0  0  0
 25 22  1  0  0  0  0
 26 25  2  0  0  0  0
 27 23  2  0  0  0  0
 28 24  2  0  0  0  0
M  END
>  <MODEL>
3

>  <REMARK>
 VINA RESULT:     -10.7      3.439      5.624
  Name = 
  2 active torsions:
  status: ('A' for Active; 'I' for Inactive)
    1  A    between atoms: N_1  and  C_2
    2  A    between atoms: C_2  and  C_3
                            x       y       z     vdW  Elec       q    Type
                         _______ _______ _______ _____ _____    ______ ____

>  <TORSDO>
F 2

$$$$
=
 OpenBabel10262420533D

 28 32  0  0  1  0  0  0  0  0999 V2000
  188.7600  177.0560  144.8680 N   0  0  0  0  0  0  0  0  0  0  0  0
  185.0060  178.1920  141.2080 C   0  0  0  0  0  3  0  0  0  0  0  0
  185.3060  178.7870  147.3290 O   0  0  0  0  0  0  0  0  0  0  0  0
  183.1580  178.7750  142.6750 C   0  0  0  0  0  0  0  0  0  0  0  0
  185.4610  178.3940  143.6820 C   0  0  2  0  0  3  0  0  0  0  0  0
  182.8130  178.6160  140.2790 C   0  0  0  0  0  0  0  0  0  0  0  0
  184.5140  178.4020  142.5050 C   0  0  0  0  0  0  0  0  0  0  0  0
  183.6170  179.3270  145.0940 C   0  0  0  0  0  2  0  0  0  0  0  0
  182.3160  178.8590  141.5620 C   0  0  0  0  0  3  0  0  0  0  0  0
  187.0400  177.8820  145.9790 C   0  0  0  0  0  0  0  0  0  0  0  0
  186.5890  177.3490  143.5530 C   0  0  0  0  0  2  0  0  0  0  0  0
  182.5620  179.0030  144.0390 C   0  0  0  0  0  2  0  0  0  0  0  0
  188.1380  177.7690  146.8120 C   0  0  0  0  0  0  0  0  0  0  0  0
  185.6780  178.3760  146.1960 C   0  0  0  0  0  0  0  0  0  0  0  0
  188.2060  178.1420  148.2500 C   0  0  0  0  0  1  0  0  0  0  0  0
  181.7500  178.7300  138.8950 Cl  0  0  0  0  0  0  0  0  0  0  0  0
  184.1580  178.2890  140.1020 C   0  0  0  0  0  3  0  0  0  0  0  0
  184.7150  178.2750  145.0350 C   0  0  2  0  0  3  0  0  0  0  0  0
  189.1770  177.2630  146.1120 N   0  0  0  0  0  0  0  0  0  0  0  0
  187.4730  177.4340  144.7610 C   0  0  0  0  0  0  0  0  0  0  0  0
  189.6120  176.5500  143.7970 C   0  0  0  0  0  2  0  0  0  0  0  0
  190.0030  177.6560  142.8150 C   0  0  2  0  0  3  0  0  0  0  0  0
  191.2120  177.2960  140.2190 C   0  0  0  0  0  0  0  0  0  0  0  0
  189.1910  177.5690  141.5420 C   0  0  0  0  0  3  0  0  0  0  0  0
  191.5000  177.6880  142.6000 C   0  0  0  0  0  3  0  0  0  0  0  0
  192.0560  177.5030  141.4020 C   0  0  0  0  0  3  0  0  0  0  0  0
  191.7380  177.0700  139.0990 O   0  0  0  0  0  0  0  0  0  0  0  0
  189.7530  177.3860  140.3460 C   0  0  0  0  0  3  0  0  0  0  0  0
  1 19  1  0  0  0  0
  2  7  1  0  0  0  0
  4 12  1  0  0  0  0
  5 11  1  6  0  0  0
  5 18  1  0  0  0  0
  6  9  2  0  0  0  0
  7  4  2  0  0  0  0
  7  5  1  0  0  0  0
  9  4  1  0  0  0  0
 10 14  1  0  0  0  0
 10 13  1  0  0  0  0
 11 20  1  0  0  0  0
 12  8  1  0  0  0  0
 13 15  1  0  0  0  0
 14  3  2  0  0  0  0
 16  6  1  0  0  0  0
 17  6  1  0  0  0  0
 17  2  2  0  0  0  0
 18  8  1  1  0  0  0
 18 14  1  0  0  0  0
 19 13  2  0  0  0  0
 20  1  1  0  0  0  0
 20 10  2  0  0  0  0
 21  1  1  0  0  0  0
 22 21  1  1  0  0  0
 23 28  1  0  0  0  0
 23 26  1  0  0  0  0
 24 22  1  0  0  0  0
 25 22  1  0  0  0  0
 26 25  2  0  0  0  0
 27 23  2  0  0  0  0
 28 24  2  0  0  0  0
M  END
>  <MODEL>
4

>  <REMARK>
 VINA RESULT:     -10.6      1.784      2.653
  Name = 
  2 active torsions:
  status: ('A' for Active; 'I' for Inactive)
    1  A    between atoms: N_1  and  C_2
    2  A    between atoms: C_2  and  C_3
                            x       y       z     vdW  Elec       q    Type
                         _______ _______ _______ _____ _____    ______ ____

>  <TORSDO>
F 2

$$$$
=
 OpenBabel10262420533D

 28 32  0  0  1  0  0  0  0  0999 V2000
  189.3100  177.1450  141.6920 N   0  0  0  0  0  0  0  0  0  0  0  0
  184.1790  178.5480  142.3890 C   0  0  0  0  0  3  0  0  0  0  0  0
  188.9880  177.9640  146.1870 O   0  0  0  0  0  0  0  0  0  0  0  0
  184.0940  178.6220  144.8170 C   0  0  0  0  0  0  0  0  0  0  0  0
  186.3410  178.3120  143.6690 C   0  0  2  0  0  3  0  0  0  0  0  0
  182.0660  178.8980  143.5150 C   0  0  0  0  0  0  0  0  0  0  0  0
  184.8360  178.4440  143.6240 C   0  0  0  0  0  0  0  0  0  0  0  0
  186.2430  178.7380  146.1330 C   0  0  0  0  0  2  0  0  0  0  0  0
  182.7130  178.8270  144.7510 C   0  0  0  0  0  3  0  0  0  0  0  0
  189.0620  177.5400  143.8500 C   0  0  0  0  0  0  0  0  0  0  0  0
  186.9130  177.4450  142.5280 C   0  0  0  0  0  2  0  0  0  0  0  0
  184.7340  178.5100  146.1750 C   0  0  0  0  0  2  0  0  0  0  0  0
  190.4010  177.3900  143.5420 C   0  0  0  0  0  0  0  0  0  0  0  0
  188.3590  177.8270  145.1040 C   0  0  0  0  0  0  0  0  0  0  0  0
  191.5470  177.4790  144.4860 C   0  0  0  0  0  1  0  0  0  0  0  0
  180.3380  179.1610  143.4470 Cl  0  0  0  0  0  0  0  0  0  0  0  0
  182.7990  178.7650  142.3350 C   0  0  0  0  0  3  0  0  0  0  0  0
  186.8480  177.8480  145.0570 C   0  0  2  0  0  3  0  0  0  0  0  0
  190.5290  177.1510  142.2180 N   0  0  0  0  0  0  0  0  0  0  0  0
  188.4060  177.3910  142.6580 C   0  0  0  0  0  0  0  0  0  0  0  0
  189.0360  176.9580  140.2710 C   0  0  0  0  0  2  0  0  0  0  0  0
  188.4850  178.2320  139.6280 C   0  0  2  0  0  3  0  0  0  0  0  0
  187.5940  178.5280  136.8990 C   0  0  0  0  0  0  0  0  0  0  0  0
  187.0400  178.0570  139.2180 C   0  0  0  0  0  3  0  0  0  0  0  0
  189.3930  178.7190  138.5200 C   0  0  0  0  0  3  0  0  0  0  0  0
  188.9830  178.8360  137.2570 C   0  0  0  0  0  3  0  0  0  0  0  0
  187.2200  178.5890  135.6990 O   0  0  0  0  0  0  0  0  0  0  0  0
  186.6350  178.1770  137.9530 C   0  0  0  0  0  3  0  0  0  0  0  0
  1 19  1  0  0  0  0
  1 20  1  0  0  0  0
  2  7  1  0  0  0  0
  4 12  1  0  0  0  0
  5 11  1  6  0  0  0
  5 18  1  0  0  0  0
  6  9  2  0  0  0  0
  7  5  1  0  0  0  0
  7  4  2  0  0  0  0
  8 12  1  0  0  0  0
  9  4  1  0  0  0  0
 10 14  1  0  0  0  0
 11 20  1  0  0  0  0
 13 10  1  0  0  0  0
 13 15  1  0  0  0  0
 14  3  2  0  0  0  0
 16  6  1  0  0  0  0
 17  2  2  0  0  0  0
 17  6  1  0  0  0  0
 18 14  1  0  0  0  0
 18  8  1  1  0  0  0
 19 13  2  0  0  0  0
 20 10  2  0  0  0  0
 21  1  1  0  0  0  0
 22 21  1  6  0  0  0
 23 26  1  0  0  0  0
 23 28  1  0  0  0  0
 24 22  1  0  0  0  0
 25 22  1  0  0  0  0
 26 25  2  0  0  0  0
 27 23  2  0  0  0  0
 28 24  2  0  0  0  0
M  END
>  <MODEL>
5

>  <REMARK>
 VINA RESULT:     -10.3      1.636      2.178
  Name = 
  2 active torsions:
  status: ('A' for Active; 'I' for Inactive)
    1  A    between atoms: N_1  and  C_2
    2  A    between atoms: C_2  and  C_3
                            x       y       z     vdW  Elec       q    Type
                         _______ _______ _______ _____ _____    ______ ____

>  <TORSDO>
F 2

$$$$
=
 OpenBabel10262420533D

 28 32  0  0  1  0  0  0  0  0999 V2000
  183.7650  178.4810  141.1480 N   0  0  0  0  0  0  0  0  0  0  0  0
  188.3810  176.9480  143.4120 C   0  0  0  0  0  3  0  0  0  0  0  0
  183.0700  179.1350  145.6280 O   0  0  0  0  0  0  0  0  0  0  0  0
  187.9760  177.6550  145.7010 C   0  0  0  0  0  0  0  0  0  0  0  0
  186.0730  177.7670  144.0200 C   0  0  2  0  0  3  0  0  0  0  0  0
  190.1530  176.8020  145.0520 C   0  0  0  0  0  0  0  0  0  0  0  0
  187.5190  177.5000  144.3700 C   0  0  0  0  0  0  0  0  0  0  0  0
  185.6200  178.1540  146.4500 C   0  0  0  0  0  2  0  0  0  0  0  0
  189.2960  177.3230  146.0240 C   0  0  0  0  0  3  0  0  0  0  0  0
  183.5220  178.7850  143.3210 C   0  0  0  0  0  0  0  0  0  0  0  0
  185.8760  178.2640  142.5720 C   0  0  0  0  0  2  0  0  0  0  0  0
  187.1080  178.2540  146.7750 C   0  0  0  0  0  2  0  0  0  0  0  0
  182.3090  178.9410  142.6780 C   0  0  0  0  0  0  0  0  0  0  0  0
  183.9130  178.8600  144.7320 C   0  0  0  0  0  0  0  0  0  0  0  0
  181.0000  179.2590  143.3110 C   0  0  0  0  0  1  0  0  0  0  0  0
  191.7990  176.3850  145.4710 Cl  0  0  0  0  0  0  0  0  0  0  0  0
  189.6940  176.6090  143.7480 C   0  0  0  0  0  3  0  0  0  0  0  0
  185.3820  178.6970  145.0490 C   0  0  2  0  0  3  0  0  0  0  0  0
  182.4800  178.7490  141.3510 N   0  0  0  0  0  0  0  0  0  0  0  0
  184.4130  178.4850  142.3280 C   0  0  0  0  0  0  0  0  0  0  0  0
  184.3360  178.1750  139.8420 C   0  0  0  0  0  2  0  0  0  0  0  0
  183.2820  177.6320  138.8750 C   0  0  2  0  0  3  0  0  0  0  0  0
  183.6040  175.4190  137.0510 C   0  0  0  0  0  0  0  0  0  0  0  0
  182.8890  176.2160  139.2330 C   0  0  0  0  0  3  0  0  0  0  0  0
  183.7150  177.8150  137.4370 C   0  0  0  0  0  3  0  0  0  0  0  0
  183.8810  176.7880  136.6030 C   0  0  0  0  0  3  0  0  0  0  0  0
  183.8100  174.4460  136.2790 O   0  0  0  0  0  0  0  0  0  0  0  0
  183.0560  175.1930  138.3930 C   0  0  0  0  0  3  0  0  0  0  0  0
  1 19  1  0  0  0  0
  1 20  1  0  0  0  0
  2 17  2  0  0  0  0
  2  7  1  0  0  0  0
  4  9  1  0  0  0  0
  4 12  1  0  0  0  0
  5 11  1  6  0  0  0
  5  7  1  0  0  0  0
  5 18  1  0  0  0  0
  6 16  1  0  0  0  0
  6  9  2  0  0  0  0
  7  4  2  0  0  0  0
  8 12  1  0  0  0  0
 10 14  1  0  0  0  0
 13 15  1  0  0  0  0
 13 10  1  0  0  0  0
 14 18  1  0  0  0  0
 14  3  2  0  0  0  0
 17  6  1  0  0  0  0
 18  8  1  1  0  0  0
 19 13  2  0  0  0  0
 20 11  1  0  0  0  0
 20 10  2  0  0  0  0
 21  1  1  0  0  0  0
 22 24  1  0  0  0  0
 22 21  1  1  0  0  0
 23 28  1  0  0  0  0
 25 22  1  0  0  0  0
 26 23  1  0  0  0  0
 26 25  2  0  0  0  0
 27 23  2  0  0  0  0
 28 24  2  0  0  0  0
M  END
>  <MODEL>
6

>  <REMARK>
 VINA RESULT:     -10.0      4.340      6.667
  Name = 
  2 active torsions:
  status: ('A' for Active; 'I' for Inactive)
    1  A    between atoms: N_1  and  C_2
    2  A    between atoms: C_2  and  C_3
                            x       y       z     vdW  Elec       q    Type
                         _______ _______ _______ _____ _____    ______ ____

>  <TORSDO>
F 2

$$$$
=
 OpenBabel10262420533D

 28 32  0  0  1  0  0  0  0  0999 V2000
  186.7380  178.5820  139.2940 N   0  0  0  0  0  0  0  0  0  0  0  0
  188.1530  177.7900  144.4080 C   0  0  0  0  0  3  0  0  0  0  0  0
  182.7760  178.7940  141.5840 O   0  0  0  0  0  0  0  0  0  0  0  0
  186.0340  178.2550  145.5020 C   0  0  0  0  0  0  0  0  0  0  0  0
  186.1100  178.1220  142.9650 C   0  0  2  0  0  3  0  0  0  0  0  0
  188.0330  177.8680  146.8220 C   0  0  0  0  0  0  0  0  0  0  0  0
  186.7900  178.1070  144.3140 C   0  0  0  0  0  0  0  0  0  0  0  0
  183.9070  178.2540  144.1460 C   0  0  0  0  0  2  0  0  0  0  0  0
  186.6670  178.1540  146.7450 C   0  0  0  0  0  3  0  0  0  0  0  0
  184.8770  178.6900  140.4770 C   0  0  0  0  0  0  0  0  0  0  0  0
  187.0050  178.6690  141.8340 C   0  0  0  0  0  2  0  0  0  0  0  0
  184.5710  178.6080  145.4740 C   0  0  0  0  0  2  0  0  0  0  0  0
  184.5840  178.6590  139.1270 C   0  0  0  0  0  0  0  0  0  0  0  0
  184.0320  178.7420  141.6740 C   0  0  0  0  0  0  0  0  0  0  0  0
  183.2310  178.6850  138.5090 C   0  0  0  0  0  1  0  0  0  0  0  0
  188.8110  177.7390  148.3840 Cl  0  0  0  0  0  0  0  0  0  0  0  0
  188.7740  177.6800  145.6550 C   0  0  0  0  0  3  0  0  0  0  0  0
  184.7350  178.8350  143.0090 C   0  0  2  0  0  3  0  0  0  0  0  0
  185.7360  178.5930  138.4230 N   0  0  0  0  0  0  0  0  0  0  0  0
  186.2420  178.6290  140.5440 C   0  0  0  0  0  0  0  0  0  0  0  0
  188.1430  178.4770  138.9180 C   0  0  0  0  0  2  0  0  0  0  0  0
  188.7000  177.0790  139.1930 C   0  0  2  0  0  3  0  0  0  0  0  0
  191.2720  176.0630  138.3670 C   0  0  0  0  0  0  0  0  0  0  0  0
  189.9250  177.1420  140.0790 C   0  0  0  0  0  3  0  0  0  0  0  0
  188.8990  176.3090  137.9070 C   0  0  0  0  0  3  0  0  0  0  0  0
  190.0920  175.8570  137.5190 C   0  0  0  0  0  3  0  0  0  0  0  0
  192.4060  175.6830  137.9770 O   0  0  0  0  0  0  0  0  0  0  0  0
  191.1160  176.6870  139.6860 C   0  0  0  0  0  3  0  0  0  0  0  0
  1 20  1  0  0  0  0
  2 17  1  0  0  0  0
  3 14  2  0  0  0  0
  4  9  2  0  0  0  0
  5 11  1  6  0  0  0
  5 18  1  0  0  0  0
  5  7  1  0  0  0  0
  6 16  1  0  0  0  0
  7  2  2  0  0  0  0
  7  4  1  0  0  0  0
  8 12  1  0  0  0  0
  9  6  1  0  0  0  0
 10 20  2  0  0  0  0
 10 14  1  0  0  0  0
 12  4  1  0  0  0  0
 13 10  1  0  0  0  0
 14 18  1  0  0  0  0
 15 13  1  0  0  0  0
 17  6  2  0  0  0  0
 18  8  1  1  0  0  0
 19 13  2  0  0  0  0
 19  1  1  0  0  0  0
 20 11  1  0  0  0  0
 21  1  1  0  0  0  0
 22 21  1  6  0  0  0
 22 24  1  0  0  0  0
 23 28  1  0  0  0  0
 25 22  1  0  0  0  0
 26 25  2  0  0  0  0
 26 23  1  0  0  0  0
 27 23  2  0  0  0  0
 28 24  2  0  0  0  0
M  END
>  <MODEL>
7

>  <REMARK>
 VINA RESULT:      -9.9      3.419      5.580
  Name = 
  2 active torsions:
  status: ('A' for Active; 'I' for Inactive)
    1  A    between atoms: N_1  and  C_2
    2  A    between atoms: C_2  and  C_3
                            x       y       z     vdW  Elec       q    Type
                         _______ _______ _______ _____ _____    ______ ____

>  <TORSDO>
F 2

$$$$
=
 OpenBabel10262420533D

 28 32  0  0  1  0  0  0  0  0999 V2000
  186.2370  178.7650  145.7370 N   0  0  0  0  0  0  0  0  0  0  0  0
  188.4090  177.6980  140.9490 C   0  0  0  0  0  3  0  0  0  0  0  0
  190.1860  176.6790  146.7540 O   0  0  0  0  0  0  0  0  0  0  0  0
  190.5990  176.9130  141.6510 C   0  0  0  0  0  0  0  0  0  0  0  0
  188.8170  177.3420  143.4130 C   0  0  2  0  0  3  0  0  0  0  0  0
  190.1110  177.2260  139.2960 C   0  0  0  0  0  0  0  0  0  0  0  0
  189.2990  177.3690  141.9810 C   0  0  0  0  0  0  0  0  0  0  0  0
  190.9590  176.2130  144.0480 C   0  0  0  0  0  2  0  0  0  0  0  0
  190.9990  176.8660  140.3120 C   0  0  0  0  0  3  0  0  0  0  0  0
  188.1670  177.7700  146.1390 C   0  0  0  0  0  0  0  0  0  0  0  0
  187.7960  178.4520  143.7360 C   0  0  0  0  0  2  0  0  0  0  0  0
  191.6080  176.5560  142.7100 C   0  0  0  0  0  2  0  0  0  0  0  0
  187.4340  177.8810  147.3050 C   0  0  0  0  0  0  0  0  0  0  0  0
  189.4800  177.1900  145.8440 C   0  0  0  0  0  0  0  0  0  0  0  0
  187.8370  177.4090  148.6570 C   0  0  0  0  0  1  0  0  0  0  0  0
  190.6220  177.1560  137.6240 Cl  0  0  0  0  0  0  0  0  0  0  0  0
  188.8150  177.6370  139.6130 C   0  0  0  0  0  3  0  0  0  0  0  0
  189.9890  177.3230  144.4270 C   0  0  2  0  0  3  0  0  0  0  0  0
  186.2580  178.4900  147.0360 N   0  0  0  0  0  0  0  0  0  0  0  0
  187.3770  178.3270  145.1700 C   0  0  0  0  0  0  0  0  0  0  0  0
  185.1100  179.3910  145.0550 C   0  0  0  0  0  2  0  0  0  0  0  0
  184.2140  178.3550  144.3730 C   0  0  2  0  0  3  0  0  0  0  0  0
  182.3640  178.8430  142.2120 C   0  0  0  0  0  0  0  0  0  0  0  0
  184.5920  178.1770  142.9190 C   0  0  0  0  0  3  0  0  0  0  0  0
  182.7510  178.6630  144.6040 C   0  0  0  0  0  3  0  0  0  0  0  0
  181.9030  178.9070  143.6040 C   0  0  0  0  0  3  0  0  0  0  0  0
  181.5770  179.1230  141.2710 O   0  0  0  0  0  0  0  0  0  0  0  0
  183.7390  178.4200  141.9230 C   0  0  0  0  0  3  0  0  0  0  0  0
  1 19  1  0  0  0  0
  2  7  1  0  0  0  0
  4  7  2  0  0  0  0
  4 12  1  0  0  0  0
  5 11  1  1  0  0  0
  5 18  1  0  0  0  0
  6 17  1  0  0  0  0
  6  9  2  0  0  0  0
  7  5  1  0  0  0  0
  9  4  1  0  0  0  0
 10 13  1  0  0  0  0
 11 20  1  0  0  0  0
 12  8  1  0  0  0  0
 13 15  1  0  0  0  0
 14 10  1  0  0  0  0
 14  3  2  0  0  0  0
 16  6  1  0  0  0  0
 17  2  2  0  0  0  0
 18  8  1  6  0  0  0
 18 14  1  0  0  0  0
 19 13  2  0  0  0  0
 20  1  1  0  0  0  0
 20 10  2  0  0  0  0
 21  1  1  0  0  0  0
 22 25  1  0  0  0  0
 22 21  1  6  0  0  0
 23 26  1  0  0  0  0
 24 22  1  0  0  0  0
 26 25  2  0  0  0  0
 27 23  2  0  0  0  0
 28 23  1  0  0  0  0
 28 24  2  0  0  0  0
M  END
>  <MODEL>
8

>  <REMARK>
 VINA RESULT:      -9.8      3.226      6.360
  Name = 
  2 active torsions:
  status: ('A' for Active; 'I' for Inactive)
    1  A    between atoms: N_1  and  C_2
    2  A    between atoms: C_2  and  C_3
                            x       y       z     vdW  Elec       q    Type
                         _______ _______ _______ _____ _____    ______ ____

>  <TORSDO>
F 2

$$$$
=
 OpenBabel10262420533D

 28 32  0  0  1  0  0  0  0  0999 V2000
  185.1880  178.4890  140.2620 N   0  0  0  0  0  0  0  0  0  0  0  0
  188.4620  177.3510  144.3570 C   0  0  0  0  0  3  0  0  0  0  0  0
  182.5490  179.0190  143.9680 O   0  0  0  0  0  0  0  0  0  0  0  0
  187.0360  177.9890  146.2190 C   0  0  0  0  0  0  0  0  0  0  0  0
  186.0590  177.9500  143.8720 C   0  0  2  0  0  3  0  0  0  0  0  0
  189.3420  177.3450  146.6100 C   0  0  0  0  0  0  0  0  0  0  0  0
  187.2230  177.8100  144.8260 C   0  0  0  0  0  0  0  0  0  0  0  0
  184.5560  178.2620  145.8490 C   0  0  0  0  0  2  0  0  0  0  0  0
  188.1050  177.7730  147.0950 C   0  0  0  0  0  3  0  0  0  0  0  0
  183.9930  178.7410  142.1010 C   0  0  0  0  0  0  0  0  0  0  0  0
  186.4730  178.4460  142.4710 C   0  0  0  0  0  2  0  0  0  0  0  0
  185.7370  178.4920  146.7880 C   0  0  0  0  0  2  0  0  0  0  0  0
  183.1760  178.7950  140.9880 C   0  0  0  0  0  0  0  0  0  0  0  0
  183.7190  178.8330  143.5380 C   0  0  0  0  0  0  0  0  0  0  0  0
  181.7000  178.9850  140.9760 C   0  0  0  0  0  1  0  0  0  0  0  0
  190.6680  177.0730  147.7180 Cl  0  0  0  0  0  0  0  0  0  0  0  0
  189.5190  177.1280  145.2430 C   0  0  0  0  0  3  0  0  0  0  0  0
  184.9090  178.7990  144.4690 C   0  0  2  0  0  3  0  0  0  0  0  0
  183.9270  178.6370  139.8760 N   0  0  0  0  0  0  0  0  0  0  0  0
  185.2520  178.5360  141.6060 C   0  0  0  0  0  0  0  0  0  0  0  0
  186.2980  178.2530  139.3460 C   0  0  0  0  0  2  0  0  0  0  0  0
  185.8280  178.1810  137.8920 C   0  0  2  0  0  3  0  0  0  0  0  0
  186.8920  176.4710  135.8260 C   0  0  0  0  0  0  0  0  0  0  0  0
  185.2400  176.8240  137.5730 C   0  0  0  0  0  3  0  0  0  0  0  0
  186.9180  178.6280  136.9440 C   0  0  0  0  0  3  0  0  0  0  0  0
  187.4210  177.8280  136.0020 C   0  0  0  0  0  3  0  0  0  0  0  0
  187.4020  175.6990  134.9720 O   0  0  0  0  0  0  0  0  0  0  0  0
  185.7470  176.0290  136.6290 C   0  0  0  0  0  3  0  0  0  0  0  0
  1 20  1  0  0  0  0
  2  7  2  0  0  0  0
  2 17  1  0  0  0  0
  4 12  1  0  0  0  0
  4  9  2  0  0  0  0
  5 11  1  6  0  0  0
  5 18  1  0  0  0  0
  5  7  1  0  0  0  0
  6  9  1  0  0  0  0
  6 16  1  0  0  0  0
  7  4  1  0  0  0  0
  8 12  1  0  0  0  0
 10 14  1  0  0  0  0
 13 10  1  0  0  0  0
 14  3  2  0  0  0  0
 14 18  1  0  0  0  0
 15 13  1  0  0  0  0
 17  6  2  0  0  0  0
 18  8  1  1  0  0  0
 19  1  1  0  0  0  0
 19 13  2  0  0  0  0
 20 10  2  0  0  0  0
 20 11  1  0  0  0  0
 21  1  1  0  0  0  0
 22 21  1  1  0  0  0
 23 26  1  0  0  0  0
 23 28  1  0  0  0  0
 24 22  1  0  0  0  0
 25 22  1  0  0  0  0
 26 25  2  0  0  0  0
 27 23  2  0  0  0  0
 28 24  2  0  0  0  0
M  END
>  <MODEL>
9

>  <REMARK>
 VINA RESULT:      -9.5      3.869      6.030
  Name = 
  2 active torsions:
  status: ('A' for Active; 'I' for Inactive)
    1  A    between atoms: N_1  and  C_2
    2  A    between atoms: C_2  and  C_3
                            x       y       z     vdW  Elec       q    Type
                         _______ _______ _______ _____ _____    ______ ____

>  <TORSDO>
F 2

$$$$
