=
 OpenBabel10262420043D

 27 31  0  0  1  0  0  0  0  0999 V2000
  190.9630  177.7980  140.8030 C   0  0  0  0  0  2  0  0  0  0  0  0
  188.4410  177.6060  141.1010 C   0  0  0  0  0  0  0  0  0  0  0  0
  189.2250  176.5750  143.2450 N   0  0  0  0  0  2  0  0  0  0  0  0
  184.9380  178.8960  143.0020 C   0  0  0  0  0  3  0  0  0  0  0  0
  183.4450  179.0390  144.9990 C   0  0  0  0  0  1  0  0  0  0  0  0
  187.4700  178.3780  140.4430 C   0  0  0  0  0  3  0  0  0  0  0  0
  186.8030  177.3890  144.4460 C   0  0  0  0  0  3  0  0  0  0  0  0
  191.4630  176.4480  145.2340 C   0  0  0  0  0  2  0  0  0  0  0  0
  185.6260  177.8250  145.0620 C   0  0  0  0  0  3  0  0  0  0  0  0
  192.1590  177.7060  145.0050 N   0  0  0  0  0  2  0  0  0  0  0  0
  187.0560  177.6980  143.1010 C   0  0  0  0  0  0  0  0  0  0  0  0
  189.6640  177.1230  140.3490 C   0  0  1  0  0  3  0  0  0  0  0  0
  184.6940  178.5760  144.3410 C   0  0  0  0  0  0  0  0  0  0  0  0
  186.1110  178.4620  142.3790 C   0  0  0  0  0  0  0  0  0  0  0  0
  191.3090  177.5410  142.2730 C   0  0  1  0  0  3  0  0  0  0  0  0
  188.2370  177.2780  142.4660 C   0  0  0  0  0  0  0  0  0  0  0  0
  191.3980  175.6210  143.9510 C   0  0  0  0  0  2  0  0  0  0  0  0
  186.3460  178.7840  141.0840 N   0  0  0  0  0  0  0  0  0  0  0  0
  191.1470  178.6670  144.5970 C   0  0  0  0  0  2  0  0  0  0  0  0
  191.1210  178.8370  143.0780 C   0  0  0  0  0  2  0  0  0  0  0  0
  190.5990  176.2930  142.8320 C   0  0  1  0  0  3  0  0  0  0  0  0
  189.2290  177.0200  136.0680 C   0  0  0  0  0  3  0  0  0  0  0  0
  189.5280  177.1050  138.8530 C   0  0  0  0  0  0  0  0  0  0  0  0
  189.4480  175.8750  138.1910 C   0  0  0  0  0  3  0  0  0  0  0  0
  189.3020  175.8320  136.8010 C   0  0  0  0  0  3  0  0  0  0  0  0
  189.3030  178.2520  136.7240 C   0  0  0  0  0  3  0  0  0  0  0  0
  189.4490  178.2960  138.1130 C   0  0  0  0  0  3  0  0  0  0  0  0
  2 16  1  0  0  0  0
  4 13  2  0  0  0  0
  6 18  1  0  0  0  0
  6  2  2  0  0  0  0
  7  9  2  0  0  0  0
 10  8  1  0  0  0  0
 11  7  1  0  0  0  0
 12 23  1  6  0  0  0
 12  1  1  0  0  0  0
 12  2  1  0  0  0  0
 13  5  1  0  0  0  0
 13  9  1  0  0  0  0
 14  4  1  0  0  0  0
 14 11  1  0  0  0  0
 15  1  1  6  0  0  0
 15 21  1  0  0  0  0
 15 20  1  0  0  0  0
 16 11  2  0  0  0  0
 16  3  1  0  0  0  0
 17  8  1  0  0  0  0
 18 14  2  0  0  0  0
 19 10  1  0  0  0  0
 20 19  1  0  0  0  0
 21  3  1  0  0  0  0
 21 17  1  1  0  0  0
 22 26  2  0  0  0  0
 22 25  1  0  0  0  0
 24 23  1  0  0  0  0
 25 24  2  0  0  0  0
 26 27  1  0  0  0  0
 27 23  2  0  0  0  0
M  END
>  <MODEL>
1

>  <REMARK>
 VINA RESULT:      -9.4      0.000      0.000
  Name = 
  1 active torsions:
  status: ('A' for Active; 'I' for Inactive)
    1  A    between atoms: C_9  and  C_15
                            x       y       z     vdW  Elec       q    Type
                         _______ _______ _______ _____ _____    ______ ____

>  <TORSDO>
F 1

$$$$
=
 OpenBabel10262420043D

 27 31  0  0  1  0  0  0  0  0999 V2000
  189.9520  176.7730  140.3800 C   0  0  0  0  0  2  0  0  0  0  0  0
  188.0090  177.9040  141.5780 C   0  0  0  0  0  0  0  0  0  0  0  0
  187.7150  178.8330  139.2700 N   0  0  0  0  0  2  0  0  0  0  0  0
  183.8830  178.2190  142.2320 C   0  0  0  0  0  3  0  0  0  0  0  0
  181.5860  178.8740  141.5050 C   0  0  0  0  0  1  0  0  0  0  0  0
  187.4020  177.4640  142.7650 C   0  0  0  0  0  3  0  0  0  0  0  0
  184.9560  179.1100  139.8050 C   0  0  0  0  0  3  0  0  0  0  0  0
  188.2420  178.3800  136.3560 C   0  0  0  0  0  2  0  0  0  0  0  0
  183.5820  179.2100  140.0430 C   0  0  0  0  0  3  0  0  0  0  0  0
  188.4240  176.9370  136.2900 N   0  0  0  0  0  2  0  0  0  0  0  0
  185.8070  178.5680  140.7800 C   0  0  0  0  0  0  0  0  0  0  0  0
  189.5130  177.8130  141.4170 C   0  0  1  0  0  3  0  0  0  0  0  0
  183.0470  178.7670  141.2550 C   0  0  0  0  0  0  0  0  0  0  0  0
  185.2580  178.1170  142.0020 C   0  0  0  0  0  0  0  0  0  0  0  0
  189.4460  177.0640  138.9640 C   0  0  1  0  0  3  0  0  0  0  0  0
  187.1900  178.4480  140.5560 C   0  0  0  0  0  0  0  0  0  0  0  0
  189.2380  179.0100  137.3270 C   0  0  0  0  0  2  0  0  0  0  0  0
  186.0620  177.5760  142.9490 N   0  0  0  0  0  0  0  0  0  0  0  0
  187.5730  176.3680  137.3220 C   0  0  0  0  0  2  0  0  0  0  0  0
  188.3720  176.0340  138.5810 C   0  0  0  0  0  2  0  0  0  0  0  0
  189.0580  178.5440  138.7730 C   0  0  1  0  0  3  0  0  0  0  0  0
  191.7700  177.4340  145.0620 C   0  0  0  0  0  3  0  0  0  0  0  0
  190.2870  177.6970  142.7000 C   0  0  0  0  0  0  0  0  0  0  0  0
  190.6980  176.4320  143.1360 C   0  0  0  0  0  3  0  0  0  0  0  0
  191.4350  176.3010  144.3160 C   0  0  0  0  0  3  0  0  0  0  0  0
  191.3670  178.7000  144.6290 C   0  0  0  0  0  3  0  0  0  0  0  0
  190.6300  178.8330  143.4500 C   0  0  0  0  0  3  0  0  0  0  0  0
  1 12  1  0  0  0  0
  2  6  1  0  0  0  0
  3 16  1  0  0  0  0
  6 18  2  0  0  0  0
  7  9  2  0  0  0  0
  7 11  1  0  0  0  0
  8 17  1  0  0  0  0
  9 13  1  0  0  0  0
 10  8  1  0  0  0  0
 10 19  1  0  0  0  0
 11 14  2  0  0  0  0
 12  2  1  0  0  0  0
 12 23  1  1  0  0  0
 13  5  1  0  0  0  0
 13  4  2  0  0  0  0
 14  4  1  0  0  0  0
 14 18  1  0  0  0  0
 15 20  1  1  0  0  0
 15  1  1  0  0  0  0
 16 11  1  0  0  0  0
 16  2  2  0  0  0  0
 19 20  1  0  0  0  0
 21 17  1  6  0  0  0
 21 15  1  0  0  0  0
 21  3  1  0  0  0  0
 23 24  2  0  0  0  0
 23 27  1  0  0  0  0
 24 25  1  0  0  0  0
 25 22  2  0  0  0  0
 26 22  1  0  0  0  0
 27 26  2  0  0  0  0
M  END
>  <MODEL>
2

>  <REMARK>
 VINA RESULT:      -8.0      1.949      5.509
  Name = 
  1 active torsions:
  status: ('A' for Active; 'I' for Inactive)
    1  A    between atoms: C_9  and  C_15
                            x       y       z     vdW  Elec       q    Type
                         _______ _______ _______ _____ _____    ______ ____

>  <TORSDO>
F 1

$$$$
=
 OpenBabel10262420043D

 27 31  0  0  1  0  0  0  0  0999 V2000
  187.1090  177.1710  144.1040 C   0  0  0  0  0  2  0  0  0  0  0  0
  186.6680  178.2440  141.8360 C   0  0  0  0  0  0  0  0  0  0  0  0
  189.1440  178.5800  142.0170 N   0  0  0  0  0  2  0  0  0  0  0  0
  186.9930  178.0880  137.6630 C   0  0  0  0  0  3  0  0  0  0  0  0
  188.3260  178.2200  135.5550 C   0  0  0  0  0  1  0  0  0  0  0  0
  185.5630  177.9960  141.0060 C   0  0  0  0  0  3  0  0  0  0  0  0
  189.2860  178.5610  139.1970 C   0  0  0  0  0  3  0  0  0  0  0  0
  191.6740  177.5690  143.2630 C   0  0  0  0  0  2  0  0  0  0  0  0
  189.3740  178.5100  137.8030 C   0  0  0  0  0  3  0  0  0  0  0  0
  191.3360  176.1910  143.5880 N   0  0  0  0  0  2  0  0  0  0  0  0
  188.0500  178.3820  139.8370 C   0  0  0  0  0  0  0  0  0  0  0  0
  186.4820  178.3410  143.3370 C   0  0  1  0  0  3  0  0  0  0  0  0
  188.2290  178.2750  137.0370 C   0  0  0  0  0  0  0  0  0  0  0  0
  186.8980  178.1400  139.0560 C   0  0  0  0  0  0  0  0  0  0  0  0
  188.6260  177.0610  143.9270 C   0  0  1  0  0  3  0  0  0  0  0  0
  187.9420  178.4200  141.2380 C   0  0  0  0  0  0  0  0  0  0  0  0
  190.7060  178.5390  143.9370 C   0  0  0  0  0  2  0  0  0  0  0  0
  185.6980  177.9480  139.6570 N   0  0  0  0  0  0  0  0  0  0  0  0
  190.3960  175.7480  142.5710 C   0  0  0  0  0  2  0  0  0  0  0  0
  188.9550  175.8250  143.0730 C   0  0  0  0  0  2  0  0  0  0  0  0
  189.2600  178.3870  143.4610 C   0  0  1  0  0  3  0  0  0  0  0  0
  182.4390  179.1230  144.5870 C   0  0  0  0  0  3  0  0  0  0  0  0
  185.0790  178.6290  143.7900 C   0  0  0  0  0  0  0  0  0  0  0  0
  184.0720  178.7820  142.8310 C   0  0  0  0  0  3  0  0  0  0  0  0
  182.7550  179.0320  143.2290 C   0  0  0  0  0  3  0  0  0  0  0  0
  183.4400  178.9660  145.5500 C   0  0  0  0  0  3  0  0  0  0  0  0
  184.7570  178.7170  145.1540 C   0  0  0  0  0  3  0  0  0  0  0  0
  2 12  1  0  0  0  0
  3 21  1  0  0  0  0
  4 14  1  0  0  0  0
  5 13  1  0  0  0  0
  6  2  2  0  0  0  0
  7 11  1  0  0  0  0
  8 10  1  0  0  0  0
  8 17  1  0  0  0  0
  9  7  2  0  0  0  0
 11 16  2  0  0  0  0
 12 23  1  6  0  0  0
 12  1  1  0  0  0  0
 13  4  2  0  0  0  0
 13  9  1  0  0  0  0
 14 18  2  0  0  0  0
 14 11  1  0  0  0  0
 15 20  1  6  0  0  0
 15  1  1  0  0  0  0
 16  2  1  0  0  0  0
 16  3  1  0  0  0  0
 18  6  1  0  0  0  0
 19 20  1  0  0  0  0
 19 10  1  0  0  0  0
 21 15  1  0  0  0  0
 21 17  1  6  0  0  0
 22 26  1  0  0  0  0
 23 27  1  0  0  0  0
 24 25  1  0  0  0  0
 24 23  2  0  0  0  0
 25 22  2  0  0  0  0
 27 26  2  0  0  0  0
M  END
>  <MODEL>
3

>  <REMARK>
 VINA RESULT:      -7.7      1.525      6.012
  Name = 
  1 active torsions:
  status: ('A' for Active; 'I' for Inactive)
    1  A    between atoms: C_9  and  C_15
                            x       y       z     vdW  Elec       q    Type
                         _______ _______ _______ _____ _____    ______ ____

>  <TORSDO>
F 1

$$$$
=
 OpenBabel10262420043D

 27 31  0  0  1  0  0  0  0  0999 V2000
  188.9490  178.2840  140.0130 C   0  0  0  0  0  2  0  0  0  0  0  0
  190.9940  176.8490  139.5190 C   0  0  0  0  0  0  0  0  0  0  0  0
  189.4480  176.0620  137.7120 N   0  0  0  0  0  2  0  0  0  0  0  0
  194.2860  176.0050  137.0690 C   0  0  0  0  0  3  0  0  0  0  0  0
  195.2860  175.1400  134.9510 C   0  0  0  0  0  1  0  0  0  0  0  0
  192.3130  177.1280  139.9120 C   0  0  0  0  0  3  0  0  0  0  0  0
  191.7080  175.4250  136.1450 C   0  0  0  0  0  3  0  0  0  0  0  0
  187.0870  176.7840  136.0140 C   0  0  0  0  0  2  0  0  0  0  0  0
  192.8200  175.1470  135.3440 C   0  0  0  0  0  3  0  0  0  0  0  0
  187.1070  178.2390  136.0500 N   0  0  0  0  0  2  0  0  0  0  0  0
  191.8760  175.9910  137.4180 C   0  0  0  0  0  0  0  0  0  0  0  0
  189.8460  177.1280  140.4670 C   0  0  1  0  0  3  0  0  0  0  0  0
  194.1070  175.4360  135.8060 C   0  0  0  0  0  0  0  0  0  0  0  0
  193.1800  176.2840  137.8770 C   0  0  0  0  0  0  0  0  0  0  0  0
  188.2630  178.0390  138.6650 C   0  0  1  0  0  3  0  0  0  0  0  0
  190.7720  176.2880  138.2350 C   0  0  0  0  0  0  0  0  0  0  0  0
  186.9930  176.2060  137.4250 C   0  0  0  0  0  2  0  0  0  0  0  0
  193.3610  176.8470  139.0970 N   0  0  0  0  0  0  0  0  0  0  0  0
  188.5040  178.6280  136.1570 C   0  0  0  0  0  2  0  0  0  0  0  0
  188.8800  178.9610  137.6010 C   0  0  0  0  0  2  0  0  0  0  0  0
  188.2000  176.5420  138.3040 C   0  0  1  0  0  3  0  0  0  0  0  0
  190.8870  177.4960  144.6270 C   0  0  0  0  0  3  0  0  0  0  0  0
  190.2270  177.2410  141.9160 C   0  0  0  0  0  0  0  0  0  0  0  0
  190.2230  178.5000  142.5260 C   0  0  0  0  0  3  0  0  0  0  0  0
  190.5550  178.6280  143.8780 C   0  0  0  0  0  3  0  0  0  0  0  0
  190.8870  176.2340  144.0250 C   0  0  0  0  0  3  0  0  0  0  0  0
  190.5560  176.1050  142.6740 C   0  0  0  0  0  3  0  0  0  0  0  0
  1 12  1  0  0  0  0
  2  6  1  0  0  0  0
  2 12  1  0  0  0  0
  3 16  1  0  0  0  0
  3 21  1  0  0  0  0
  4 14  1  0  0  0  0
  5 13  1  0  0  0  0
  7 11  1  0  0  0  0
  8 10  1  0  0  0  0
  8 17  1  0  0  0  0
  9 13  1  0  0  0  0
  9  7  2  0  0  0  0
 10 19  1  0  0  0  0
 11 14  2  0  0  0  0
 11 16  1  0  0  0  0
 12 23  1  1  0  0  0
 13  4  2  0  0  0  0
 14 18  1  0  0  0  0
 15 20  1  6  0  0  0
 15  1  1  0  0  0  0
 16  2  2  0  0  0  0
 18  6  2  0  0  0  0
 19 20  1  0  0  0  0
 21 17  1  6  0  0  0
 21 15  1  0  0  0  0
 23 24  2  0  0  0  0
 23 27  1  0  0  0  0
 24 25  1  0  0  0  0
 25 22  2  0  0  0  0
 26 22  1  0  0  0  0
 27 26  2  0  0  0  0
M  END
>  <MODEL>
4

>  <REMARK>
 VINA RESULT:      -7.4      3.345      8.139
  Name = 
  1 active torsions:
  status: ('A' for Active; 'I' for Inactive)
    1  A    between atoms: C_9  and  C_15
                            x       y       z     vdW  Elec       q    Type
                         _______ _______ _______ _____ _____    ______ ____

>  <TORSDO>
F 1

$$$$
=
 OpenBabel10262420043D

 27 31  0  0  1  0  0  0  0  0999 V2000
  182.1440  178.7830  141.5640 C   0  0  0  0  0  2  0  0  0  0  0  0
  184.2690  178.0440  140.3710 C   0  0  0  0  0  0  0  0  0  0  0  0
  182.5610  176.7230  139.1020 N   0  0  0  0  0  2  0  0  0  0  0  0
  186.7070  178.1640  136.9660 C   0  0  0  0  0  3  0  0  0  0  0  0
  187.2030  177.5560  134.5950 C   0  0  0  0  0  1  0  0  0  0  0  0
  185.4870  178.7430  140.3440 C   0  0  0  0  0  3  0  0  0  0  0  0
  184.2890  176.7570  136.8690 C   0  0  0  0  0  3  0  0  0  0  0  0
  179.6840  176.5810  138.2770 C   0  0  0  0  0  2  0  0  0  0  0  0
  185.1180  176.8050  135.7440 C   0  0  0  0  0  3  0  0  0  0  0  0
  179.2560  177.9680  138.3870 N   0  0  0  0  0  2  0  0  0  0  0  0
  184.6640  177.4080  138.0540 C   0  0  0  0  0  0  0  0  0  0  0  0
  183.4540  177.9920  141.6470 C   0  0  1  0  0  3  0  0  0  0  0  0
  186.3260  177.5070  135.7930 C   0  0  0  0  0  0  0  0  0  0  0  0
  185.8840  178.1190  138.0940 C   0  0  0  0  0  0  0  0  0  0  0  0
  181.1810  178.2700  140.4890 C   0  0  1  0  0  3  0  0  0  0  0  0
  183.8400  177.3800  139.1930 C   0  0  0  0  0  0  0  0  0  0  0  0
  180.2270  176.0720  139.6110 C   0  0  0  0  0  2  0  0  0  0  0  0
  186.2560  178.7680  139.2250 N   0  0  0  0  0  0  0  0  0  0  0  0
  180.4180  178.7830  138.0700 C   0  0  0  0  0  2  0  0  0  0  0  0
  181.1070  179.2870  139.3380 C   0  0  0  0  0  2  0  0  0  0  0  0
  181.4800  176.8140  140.0820 C   0  0  1  0  0  3  0  0  0  0  0  0
  185.5860  178.8290  145.2900 C   0  0  0  0  0  3  0  0  0  0  0  0
  184.2170  178.2890  142.9050 C   0  0  0  0  0  0  0  0  0  0  0  0
  183.5850  178.9950  143.9350 C   0  0  0  0  0  3  0  0  0  0  0  0
  184.2700  179.2670  145.1240 C   0  0  0  0  0  3  0  0  0  0  0  0
  186.2210  178.1180  144.2670 C   0  0  0  0  0  3  0  0  0  0  0  0
  185.5390  177.8460  143.0780 C   0  0  0  0  0  3  0  0  0  0  0  0
  1 12  1  0  0  0  0
  2 12  1  0  0  0  0
  3 16  1  0  0  0  0
  3 21  1  0  0  0  0
  4 14  1  0  0  0  0
  5 13  1  0  0  0  0
  6  2  1  0  0  0  0
  7 11  1  0  0  0  0
  8 10  1  0  0  0  0
  8 17  1  0  0  0  0
  9 13  1  0  0  0  0
  9  7  2  0  0  0  0
 11 14  2  0  0  0  0
 11 16  1  0  0  0  0
 12 23  1  1  0  0  0
 13  4  2  0  0  0  0
 14 18  1  0  0  0  0
 15 20  1  6  0  0  0
 15  1  1  0  0  0  0
 16  2  2  0  0  0  0
 18  6  2  0  0  0  0
 19 10  1  0  0  0  0
 19 20  1  0  0  0  0
 21 17  1  6  0  0  0
 21 15  1  0  0  0  0
 23 27  2  0  0  0  0
 23 24  1  0  0  0  0
 24 25  2  0  0  0  0
 25 22  1  0  0  0  0
 26 22  2  0  0  0  0
 27 26  1  0  0  0  0
M  END
>  <MODEL>
5

>  <REMARK>
 VINA RESULT:      -7.3      4.013      8.881
  Name = 
  1 active torsions:
  status: ('A' for Active; 'I' for Inactive)
    1  A    between atoms: C_9  and  C_15
                            x       y       z     vdW  Elec       q    Type
                         _______ _______ _______ _____ _____    ______ ____

>  <TORSDO>
F 1

$$$$
=
 OpenBabel10262420043D

 27 31  0  0  1  0  0  0  0  0999 V2000
  187.5910  177.3570  142.6010 C   0  0  0  0  0  2  0  0  0  0  0  0
  188.6180  177.6160  140.2850 C   0  0  0  0  0  0  0  0  0  0  0  0
  190.5990  178.1630  141.7160 N   0  0  0  0  0  2  0  0  0  0  0  0
  191.1730  176.1570  137.3030 C   0  0  0  0  0  3  0  0  0  0  0  0
  193.4530  175.7000  136.3920 C   0  0  0  0  0  1  0  0  0  0  0  0
  188.1350  177.0390  139.0990 C   0  0  0  0  0  3  0  0  0  0  0  0
  192.2730  177.2530  139.6320 C   0  0  0  0  0  3  0  0  0  0  0  0
  191.8660  177.7820  144.4040 C   0  0  0  0  0  2  0  0  0  0  0  0
  193.1100  176.7650  138.6230 C   0  0  0  0  0  3  0  0  0  0  0  0
  191.2340  176.5600  144.8790 N   0  0  0  0  0  2  0  0  0  0  0  0
  190.8790  177.2020  139.4820 C   0  0  0  0  0  0  0  0  0  0  0  0
  187.6470  178.1740  141.3050 C   0  0  1  0  0  3  0  0  0  0  0  0
  192.5600  176.2180  137.4600 C   0  0  0  0  0  0  0  0  0  0  0  0
  190.3310  176.6440  138.3050 C   0  0  0  0  0  0  0  0  0  0  0  0
  188.9250  177.3020  143.3520 C   0  0  1  0  0  3  0  0  0  0  0  0
  190.0200  177.6790  140.4880 C   0  0  0  0  0  0  0  0  0  0  0  0
  190.8190  178.8470  144.0850 C   0  0  0  0  0  2  0  0  0  0  0  0
  188.9860  176.5710  138.1500 N   0  0  0  0  0  0  0  0  0  0  0  0
  190.9660  175.7510  143.7020 C   0  0  0  0  0  2  0  0  0  0  0  0
  189.5110  175.8840  143.2530 C   0  0  0  0  0  2  0  0  0  0  0  0
  189.8720  178.4510  142.9500 C   0  0  1  0  0  3  0  0  0  0  0  0
  183.7140  179.1310  139.8430 C   0  0  0  0  0  3  0  0  0  0  0  0
  186.2780  178.4930  140.7770 C   0  0  0  0  0  0  0  0  0  0  0  0
  185.2150  178.6330  141.6770 C   0  0  0  0  0  3  0  0  0  0  0  0
  183.9350  178.9490  141.2100 C   0  0  0  0  0  3  0  0  0  0  0  0
  184.7730  178.9990  138.9390 C   0  0  0  0  0  3  0  0  0  0  0  0
  186.0520  178.6830  139.4040 C   0  0  0  0  0  3  0  0  0  0  0  0
  2 16  1  0  0  0  0
  2 12  1  0  0  0  0
  3 21  1  0  0  0  0
  4 13  2  0  0  0  0
  4 14  1  0  0  0  0
  5 13  1  0  0  0  0
  6  2  2  0  0  0  0
  8 10  1  0  0  0  0
  9  7  2  0  0  0  0
 11  7  1  0  0  0  0
 11 16  2  0  0  0  0
 12 23  1  6  0  0  0
 12  1  1  0  0  0  0
 13  9  1  0  0  0  0
 14 11  1  0  0  0  0
 15  1  1  6  0  0  0
 16  3  1  0  0  0  0
 17  8  1  0  0  0  0
 18 14  2  0  0  0  0
 18  6  1  0  0  0  0
 19 10  1  0  0  0  0
 20 15  1  0  0  0  0
 20 19  1  0  0  0  0
 21 15  1  0  0  0  0
 21 17  1  1  0  0  0
 22 25  1  0  0  0  0
 23 24  1  0  0  0  0
 25 24  2  0  0  0  0
 26 27  1  0  0  0  0
 26 22  2  0  0  0  0
 27 23  2  0  0  0  0
M  END
>  <MODEL>
6

>  <REMARK>
 VINA RESULT:      -7.0      2.115      5.790
  Name = 
  1 active torsions:
  status: ('A' for Active; 'I' for Inactive)
    1  A    between atoms: C_9  and  C_15
                            x       y       z     vdW  Elec       q    Type
                         _______ _______ _______ _____ _____    ______ ____

>  <TORSDO>
F 1

$$$$
=
 OpenBabel10262420043D

 27 31  0  0  1  0  0  0  0  0999 V2000
  184.9240  177.5030  138.0720 C   0  0  0  0  0  2  0  0  0  0  0  0
  186.1680  178.2340  140.1710 C   0  0  0  0  0  0  0  0  0  0  0  0
  184.0330  179.5150  140.4460 N   0  0  0  0  0  2  0  0  0  0  0  0
  186.6040  178.0630  144.3340 C   0  0  0  0  0  3  0  0  0  0  0  0
  185.8520  178.6250  146.6480 C   0  0  0  0  0  1  0  0  0  0  0  0
  187.2240  177.5440  140.7870 C   0  0  0  0  0  3  0  0  0  0  0  0
  184.4310  179.4490  143.2410 C   0  0  0  0  0  3  0  0  0  0  0  0
  181.1230  179.6170  139.7410 C   0  0  0  0  0  2  0  0  0  0  0  0
  184.5960  179.3840  144.6280 C   0  0  0  0  0  3  0  0  0  0  0  0
  180.8290  178.2290  139.4150 N   0  0  0  0  0  2  0  0  0  0  0  0
  185.3540  178.8250  142.3880 C   0  0  0  0  0  0  0  0  0  0  0  0
  186.0900  178.3060  138.6590 C   0  0  1  0  0  3  0  0  0  0  0  0
  185.6810  178.6930  145.1740 C   0  0  0  0  0  0  0  0  0  0  0  0
  186.4470  178.1250  142.9470 C   0  0  0  0  0  0  0  0  0  0  0  0
  183.5470  177.9860  138.5370 C   0  0  1  0  0  3  0  0  0  0  0  0
  185.2010  178.8700  140.9910 C   0  0  0  0  0  0  0  0  0  0  0  0
  182.2460  180.1580  138.8580 C   0  0  0  0  0  2  0  0  0  0  0  0
  187.3400  177.5030  142.1390 N   0  0  0  0  0  0  0  0  0  0  0  0
  181.6960  177.4180  140.2530 C   0  0  0  0  0  2  0  0  0  0  0  0
  182.9310  176.9450  139.4860 C   0  0  0  0  0  2  0  0  0  0  0  0
  183.5800  179.4360  139.0590 C   0  0  1  0  0  3  0  0  0  0  0  0
  189.7580  177.5020  136.5570 C   0  0  0  0  0  3  0  0  0  0  0  0
  187.3810  178.0410  137.9390 C   0  0  0  0  0  0  0  0  0  0  0  0
  187.7110  176.7260  137.5930 C   0  0  0  0  0  3  0  0  0  0  0  0
  188.8990  176.4570  136.9060 C   0  0  0  0  0  3  0  0  0  0  0  0
  189.4300  178.8190  136.8950 C   0  0  0  0  0  3  0  0  0  0  0  0
  188.2450  179.0890  137.5820 C   0  0  0  0  0  3  0  0  0  0  0  0
  1 12  1  0  0  0  0
  2  6  2  0  0  0  0
  2 16  1  0  0  0  0
  3 16  1  0  0  0  0
  4 13  2  0  0  0  0
  6 18  1  0  0  0  0
  7  9  2  0  0  0  0
  9 13  1  0  0  0  0
 10  8  1  0  0  0  0
 10 19  1  0  0  0  0
 11 14  1  0  0  0  0
 11  7  1  0  0  0  0
 12 23  1  6  0  0  0
 12  2  1  0  0  0  0
 13  5  1  0  0  0  0
 14  4  1  0  0  0  0
 15  1  1  1  0  0  0
 15 21  1  0  0  0  0
 15 20  1  0  0  0  0
 16 11  2  0  0  0  0
 17  8  1  0  0  0  0
 18 14  2  0  0  0  0
 20 19  1  0  0  0  0
 21 17  1  1  0  0  0
 21  3  1  0  0  0  0
 22 26  2  0  0  0  0
 22 25  1  0  0  0  0
 24 23  1  0  0  0  0
 25 24  2  0  0  0  0
 26 27  1  0  0  0  0
 27 23  2  0  0  0  0
M  END
>  <MODEL>
7

>  <REMARK>
 VINA RESULT:      -6.9      2.845      5.957
  Name = 
  1 active torsions:
  status: ('A' for Active; 'I' for Inactive)
    1  A    between atoms: C_9  and  C_15
                            x       y       z     vdW  Elec       q    Type
                         _______ _______ _______ _____ _____    ______ ____

>  <TORSDO>
F 1

$$$$
