=
 OpenBabel11042412033D

 30 33  0  0  1  0  0  0  0  0999 V2000
  189.4260  176.6730  142.0950 C   0  0  0  0  0  0  0  0  0  0  0  0
  188.1770  178.4710  141.0490 C   0  0  0  0  0  3  0  0  0  0  0  0
  188.4210  177.6650  142.1700 C   0  0  0  0  0  0  0  0  0  0  0  0
  189.9010  177.3190  139.7940 C   0  0  0  0  0  0  0  0  0  0  0  0
  188.9090  178.3010  139.8730 C   0  0  0  0  0  3  0  0  0  0  0  0
  190.1560  176.5120  140.9100 C   0  0  0  0  0  3  0  0  0  0  0  0
  185.4440  178.3600  142.1600 C   0  0  0  0  0  3  0  0  0  0  0  0
  185.5640  178.3250  144.5190 C   0  0  0  0  0  0  0  0  0  0  0  0
  186.1120  178.2220  145.7410 C   0  0  0  0  0  0  0  0  0  0  0  0
  184.2640  178.6270  144.6380 C   0  0  0  0  0  0  0  0  0  0  0  0
  183.4860  178.8130  143.5410 N   0  0  0  0  0  0  0  0  0  0  0  0
  188.2140  177.7540  144.6780 C   0  0  0  0  0  3  0  0  0  0  0  0
  183.9030  178.7350  146.0160 N   0  0  0  0  0  0  0  0  0  0  0  0
  184.0620  178.6810  142.2980 C   0  0  0  0  0  3  0  0  0  0  0  0
  187.4690  177.9300  145.8730 C   0  0  0  0  0  3  0  0  0  0  0  0
  186.2220  178.1740  143.3220 C   0  0  0  0  0  0  0  0  0  0  0  0
  187.6080  177.8770  143.3900 C   0  0  0  0  0  0  0  0  0  0  0  0
  185.0080  178.4920  146.6820 C   0  0  0  0  0  3  0  0  0  0  0  0
  190.6750  177.1400  138.5530 C   0  0  0  0  0  0  0  0  0  0  0  0
  191.9890  176.5750  138.6030 N   0  0  0  0  0  2  0  0  0  0  0  0
  190.1810  177.4880  137.4450 O   0  0  0  0  0  0  0  0  0  0  0  0
  192.7930  176.3440  137.4110 C   0  0  0  0  0  2  0  0  0  0  0  0
  193.0730  174.8600  137.2510 C   0  0  0  0  0  2  0  0  0  0  0  0
  195.2040  175.7620  136.6750 O   0  0  0  0  0  1  0  0  0  0  0  0
  194.5660  174.6150  137.1510 C   0  0  1  0  0  3  0  0  0  0  0  0
  195.1100  174.2730  138.5210 C   0  0  0  0  0  1  0  0  0  0  0  0
  189.7710  175.8010  143.2590 C   0  0  0  0  0  2  0  0  0  0  0  0
  191.2570  175.8920  143.5670 C   0  0  0  0  0  2  0  0  0  0  0  0
  191.6050  176.7400  145.8850 C   0  0  0  0  0  1  0  0  0  0  0  0
  191.5480  177.1160  144.4160 C   0  0  0  0  0  2  0  0  0  0  0  0
  1  3  1  0  0  0  0
  1 27  1  0  0  0  0
  2  3  2  0  0  0  0
  3 17  1  0  0  0  0
  4  5  2  0  0  0  0
  4  6  1  0  0  0  0
  5  2  1  0  0  0  0
  6  1  2  0  0  0  0
  7 14  2  0  0  0  0
  7 16  1  0  0  0  0
  8 10  1  0  0  0  0
  8  9  1  0  0  0  0
  9 15  2  0  0  0  0
  9 18  1  0  0  0  0
 10 13  1  0  0  0  0
 11 10  2  0  0  0  0
 12 15  1  0  0  0  0
 13 18  2  0  0  0  0
 14 11  1  0  0  0  0
 16 17  1  0  0  0  0
 16  8  2  0  0  0  0
 17 12  2  0  0  0  0
 19 20  1  0  0  0  0
 19  4  1  0  0  0  0
 21 19  2  0  0  0  0
 22 20  1  0  0  0  0
 23 22  1  0  0  0  0
 24 25  1  0  0  0  0
 25 23  1  0  0  0  0
 25 26  1  1  0  0  0
 27 28  1  0  0  0  0
 28 30  1  0  0  0  0
 30 29  1  0  0  0  0
M  END
>  <MODEL>
1

>  <REMARK>
 VINA RESULT:      -9.0      0.000      0.000
  Name = 
  8 active torsions:
  status: ('A' for Active; 'I' for Inactive)
    1  A    between atoms: C_2  and  C_4
    2  A    between atoms: C_2  and  C_21
    3  A    between atoms: C_3  and  C_9
    4  A    between atoms: C_3  and  C_19
    5  A    between atoms: C_4  and  N_27
    6  A    between atoms: C_11  and  C_19
    7  A    between atoms: C_16  and  C_18
    8  A    between atoms: C_17  and  C_29
                            x       y       z     vdW  Elec       q    Type
                         _______ _______ _______ _____ _____    ______ ____

>  <TORSDO>
F 8

$$$$
=
 OpenBabel11042412033D

 30 33  0  0  1  0  0  0  0  0999 V2000
  187.6260  178.2220  141.7600 C   0  0  0  0  0  0  0  0  0  0  0  0
  186.2500  177.7870  143.7110 C   0  0  0  0  0  3  0  0  0  0  0  0
  187.5170  177.8170  143.1110 C   0  0  0  0  0  0  0  0  0  0  0  0
  185.2130  178.5420  141.6540 C   0  0  0  0  0  0  0  0  0  0  0  0
  185.1100  178.1450  142.9910 C   0  0  0  0  0  3  0  0  0  0  0  0
  186.4750  178.5810  141.0480 C   0  0  0  0  0  3  0  0  0  0  0  0
  187.6610  177.9790  146.1600 C   0  0  0  0  0  3  0  0  0  0  0  0
  189.8320  177.0670  145.9730 C   0  0  0  0  0  0  0  0  0  0  0  0
  190.9420  176.5950  145.3830 C   0  0  0  0  0  0  0  0  0  0  0  0
  190.0090  177.0890  147.3020 C   0  0  0  0  0  0  0  0  0  0  0  0
  189.0370  177.5530  148.1280 N   0  0  0  0  0  0  0  0  0  0  0  0
  189.8610  176.9090  143.2620 C   0  0  0  0  0  3  0  0  0  0  0  0
  191.3090  176.6040  147.6380 N   0  0  0  0  0  0  0  0  0  0  0  0
  187.8590  177.9980  147.5720 C   0  0  0  0  0  3  0  0  0  0  0  0
  191.0040  176.4950  143.9940 C   0  0  0  0  0  3  0  0  0  0  0  0
  188.6940  177.4910  145.3310 C   0  0  0  0  0  0  0  0  0  0  0  0
  188.6950  177.4150  143.9150 C   0  0  0  0  0  0  0  0  0  0  0  0
  191.8740  176.3050  146.4910 C   0  0  0  0  0  3  0  0  0  0  0  0
  184.0090  178.9210  140.8940 C   0  0  0  0  0  0  0  0  0  0  0  0
  182.7280  178.4130  141.2820 N   0  0  0  0  0  2  0  0  0  0  0  0
  184.1070  179.6900  139.8990 O   0  0  0  0  0  0  0  0  0  0  0  0
  181.4980  178.7720  140.5910 C   0  0  0  0  0  2  0  0  0  0  0  0
  180.3290  178.7460  141.5610 C   0  0  0  0  0  2  0  0  0  0  0  0
  180.1090  180.6680  142.9550 O   0  0  0  0  0  1  0  0  0  0  0  0
  180.7150  179.4140  142.8670 C   0  0  1  0  0  3  0  0  0  0  0  0
  180.2560  178.5540  144.0240 C   0  0  0  0  0  1  0  0  0  0  0  0
  188.9460  178.3170  141.0640 C   0  0  0  0  0  2  0  0  0  0  0  0
  188.7450  178.3960  139.5580 C   0  0  0  0  0  2  0  0  0  0  0  0
  190.6420  176.8020  139.8300 C   0  0  0  0  0  1  0  0  0  0  0  0
  189.8250  177.6090  138.8380 C   0  0  0  0  0  2  0  0  0  0  0  0
  1  3  1  0  0  0  0
  3  2  2  0  0  0  0
  3 17  1  0  0  0  0
  4  5  2  0  0  0  0
  5  2  1  0  0  0  0
  6  4  1  0  0  0  0
  6  1  2  0  0  0  0
  7 14  2  0  0  0  0
  8 10  1  0  0  0  0
  9  8  1  0  0  0  0
  9 18  1  0  0  0  0
 10 13  1  0  0  0  0
 10 11  2  0  0  0  0
 12 17  2  0  0  0  0
 12 15  1  0  0  0  0
 14 11  1  0  0  0  0
 15  9  2  0  0  0  0
 16  8  2  0  0  0  0
 16  7  1  0  0  0  0
 17 16  1  0  0  0  0
 18 13  2  0  0  0  0
 19 20  1  0  0  0  0
 19  4  1  0  0  0  0
 21 19  2  0  0  0  0
 22 20  1  0  0  0  0
 22 23  1  0  0  0  0
 23 25  1  0  0  0  0
 25 24  1  0  0  0  0
 25 26  1  1  0  0  0
 27  1  1  0  0  0  0
 28 27  1  0  0  0  0
 30 28  1  0  0  0  0
 30 29  1  0  0  0  0
M  END
>  <MODEL>
2

>  <REMARK>
 VINA RESULT:      -8.9      3.741      7.964
  Name = 
  8 active torsions:
  status: ('A' for Active; 'I' for Inactive)
    1  A    between atoms: C_2  and  C_4
    2  A    between atoms: C_2  and  C_21
    3  A    between atoms: C_3  and  C_9
    4  A    between atoms: C_3  and  C_19
    5  A    between atoms: C_4  and  N_27
    6  A    between atoms: C_11  and  C_19
    7  A    between atoms: C_16  and  C_18
    8  A    between atoms: C_17  and  C_29
                            x       y       z     vdW  Elec       q    Type
                         _______ _______ _______ _____ _____    ______ ____

>  <TORSDO>
F 8

$$$$
=
 OpenBabel11042412033D

 30 33  0  0  1  0  0  0  0  0999 V2000
  187.4400  177.3890  143.1230 C   0  0  0  0  0  0  0  0  0  0  0  0
  186.9550  178.6700  141.1200 C   0  0  0  0  0  3  0  0  0  0  0  0
  186.5390  178.1690  142.3620 C   0  0  0  0  0  0  0  0  0  0  0  0
  189.1290  177.6300  141.3830 C   0  0  0  0  0  0  0  0  0  0  0  0
  188.2360  178.4030  140.6350 C   0  0  0  0  0  3  0  0  0  0  0  0
  188.7240  177.1300  142.6270 C   0  0  0  0  0  3  0  0  0  0  0  0
  184.0470  178.0040  140.5980 C   0  0  0  0  0  3  0  0  0  0  0  0
  182.8130  178.6320  142.5120 C   0  0  0  0  0  0  0  0  0  0  0  0
  182.5800  179.0100  143.7800 C   0  0  0  0  0  0  0  0  0  0  0  0
  181.6550  178.5910  141.8390 C   0  0  0  0  0  0  0  0  0  0  0  0
  181.6230  178.2610  140.5230 N   0  0  0  0  0  0  0  0  0  0  0  0
  184.9430  178.8630  144.1820 C   0  0  0  0  0  3  0  0  0  0  0  0
  180.5710  178.9590  142.6930 N   0  0  0  0  0  0  0  0  0  0  0  0
  182.8100  177.9640  139.8920 C   0  0  0  0  0  3  0  0  0  0  0  0
  183.6420  179.1420  144.6740 C   0  0  0  0  0  3  0  0  0  0  0  0
  184.0430  178.3520  141.9660 C   0  0  0  0  0  0  0  0  0  0  0  0
  185.1640  178.4700  142.8260 C   0  0  0  0  0  0  0  0  0  0  0  0
  181.1190  179.2110  143.8590 C   0  0  0  0  0  3  0  0  0  0  0  0
  190.4810  177.3490  140.8720 C   0  0  0  0  0  0  0  0  0  0  0  0
  190.6730  177.0390  139.4870 N   0  0  0  0  0  2  0  0  0  0  0  0
  191.4710  177.3770  141.6540 O   0  0  0  0  0  0  0  0  0  0  0  0
  191.9870  176.7820  138.9130 C   0  0  0  0  0  2  0  0  0  0  0  0
  191.8500  176.3980  137.4510 C   0  0  0  0  0  2  0  0  0  0  0  0
  194.1500  176.8260  136.9860 O   0  0  0  0  0  1  0  0  0  0  0  0
  193.1610  175.8420  136.9290 C   0  0  1  0  0  3  0  0  0  0  0  0
  193.5790  174.6630  137.7800 C   0  0  0  0  0  1  0  0  0  0  0  0
  187.0830  176.8540  144.4730 C   0  0  0  0  0  2  0  0  0  0  0  0
  188.0740  177.3450  145.5160 C   0  0  0  0  0  2  0  0  0  0  0  0
  188.2980  177.8420  147.9490 C   0  0  0  0  0  1  0  0  0  0  0  0
  187.3450  177.7940  146.7690 C   0  0  0  0  0  2  0  0  0  0  0  0
  1 27  1  0  0  0  0
  2  3  1  0  0  0  0
  3 17  1  0  0  0  0
  3  1  2  0  0  0  0
  4  6  2  0  0  0  0
  5  2  2  0  0  0  0
  5  4  1  0  0  0  0
  6  1  1  0  0  0  0
  7 16  1  0  0  0  0
  8  9  1  0  0  0  0
  9 18  1  0  0  0  0
  9 15  2  0  0  0  0
 10  8  1  0  0  0  0
 10 13  1  0  0  0  0
 11 10  2  0  0  0  0
 12 15  1  0  0  0  0
 13 18  2  0  0  0  0
 14 11  1  0  0  0  0
 14  7  2  0  0  0  0
 16  8  2  0  0  0  0
 16 17  1  0  0  0  0
 17 12  2  0  0  0  0
 19  4  1  0  0  0  0
 19 21  2  0  0  0  0
 20 19  1  0  0  0  0
 22 20  1  0  0  0  0
 23 22  1  0  0  0  0
 25 24  1  0  0  0  0
 25 23  1  0  0  0  0
 25 26  1  1  0  0  0
 27 28  1  0  0  0  0
 28 30  1  0  0  0  0
 30 29  1  0  0  0  0
M  END
>  <MODEL>
3

>  <REMARK>
 VINA RESULT:      -8.5      1.965      3.094
  Name = 
  8 active torsions:
  status: ('A' for Active; 'I' for Inactive)
    1  A    between atoms: C_2  and  C_4
    2  A    between atoms: C_2  and  C_21
    3  A    between atoms: C_3  and  C_9
    4  A    between atoms: C_3  and  C_19
    5  A    between atoms: C_4  and  N_27
    6  A    between atoms: C_11  and  C_19
    7  A    between atoms: C_16  and  C_18
    8  A    between atoms: C_17  and  C_29
                            x       y       z     vdW  Elec       q    Type
                         _______ _______ _______ _____ _____    ______ ____

>  <TORSDO>
F 8

$$$$
=
 OpenBabel11042412033D

 30 33  0  0  1  0  0  0  0  0999 V2000
  187.5860  178.3410  141.5130 C   0  0  0  0  0  0  0  0  0  0  0  0
  189.4490  176.8470  141.9480 C   0  0  0  0  0  3  0  0  0  0  0  0
  188.3620  177.5920  142.4280 C   0  0  0  0  0  0  0  0  0  0  0  0
  189.0060  177.5850  139.6820 C   0  0  0  0  0  0  0  0  0  0  0  0
  189.7680  176.8430  140.5890 C   0  0  0  0  0  3  0  0  0  0  0  0
  187.9150  178.3280  140.1520 C   0  0  0  0  0  3  0  0  0  0  0  0
  190.4850  177.2870  144.6070 C   0  0  0  0  0  3  0  0  0  0  0  0
  188.7210  177.4720  146.1660 C   0  0  0  0  0  0  0  0  0  0  0  0
  187.4620  177.5890  146.6210 C   0  0  0  0  0  0  0  0  0  0  0  0
  189.5600  177.3490  147.2040 C   0  0  0  0  0  0  0  0  0  0  0  0
  190.8940  177.1880  147.0090 N   0  0  0  0  0  0  0  0  0  0  0  0
  186.7260  177.7060  144.3380 C   0  0  0  0  0  3  0  0  0  0  0  0
  188.8370  177.3860  148.4350 N   0  0  0  0  0  0  0  0  0  0  0  0
  191.3690  177.1570  145.7170 C   0  0  0  0  0  3  0  0  0  0  0  0
  186.4050  177.7120  145.7210 C   0  0  0  0  0  3  0  0  0  0  0  0
  189.1040  177.4520  144.8470 C   0  0  0  0  0  0  0  0  0  0  0  0
  188.0720  177.5720  143.8810 C   0  0  0  0  0  0  0  0  0  0  0  0
  187.5780  177.5310  148.0920 C   0  0  0  0  0  3  0  0  0  0  0  0
  189.3420  177.5810  138.2480 C   0  0  0  0  0  0  0  0  0  0  0  0
  189.7500  176.3650  137.6110 N   0  0  0  0  0  2  0  0  0  0  0  0
  189.2750  178.6500  137.5800 O   0  0  0  0  0  0  0  0  0  0  0  0
  190.0670  176.2880  136.1920 C   0  0  0  0  0  2  0  0  0  0  0  0
  191.4880  175.7860  136.0030 C   0  0  0  0  0  2  0  0  0  0  0  0
  192.4760  174.0820  137.3470 O   0  0  0  0  0  1  0  0  0  0  0  0
  192.1010  175.4270  137.3420 C   0  0  1  0  0  3  0  0  0  0  0  0
  193.3230  176.2870  137.5800 C   0  0  0  0  0  1  0  0  0  0  0  0
  186.3900  179.1280  141.9430 C   0  0  0  0  0  2  0  0  0  0  0  0
  185.2460  178.9290  140.9620 C   0  0  0  0  0  2  0  0  0  0  0  0
  183.6650  178.7810  142.8840 C   0  0  0  0  0  1  0  0  0  0  0  0
  184.1350  178.1180  141.6030 C   0  0  0  0  0  2  0  0  0  0  0  0
  1 27  1  0  0  0  0
  1  3  1  0  0  0  0
  2  3  2  0  0  0  0
  3 17  1  0  0  0  0
  4  6  1  0  0  0  0
  4  5  2  0  0  0  0
  5  2  1  0  0  0  0
  6  1  2  0  0  0  0
  7 16  1  0  0  0  0
  7 14  2  0  0  0  0
  8  9  1  0  0  0  0
  8 10  1  0  0  0  0
  9 18  1  0  0  0  0
 10 13  1  0  0  0  0
 11 10  2  0  0  0  0
 12 15  1  0  0  0  0
 14 11  1  0  0  0  0
 15  9  2  0  0  0  0
 16  8  2  0  0  0  0
 17 12  2  0  0  0  0
 17 16  1  0  0  0  0
 18 13  2  0  0  0  0
 19  4  1  0  0  0  0
 20 19  1  0  0  0  0
 21 19  2  0  0  0  0
 22 20  1  0  0  0  0
 23 22  1  0  0  0  0
 23 25  1  0  0  0  0
 25 24  1  0  0  0  0
 25 26  1  6  0  0  0
 28 30  1  0  0  0  0
 28 27  1  0  0  0  0
 30 29  1  0  0  0  0
M  END
>  <MODEL>
4

>  <REMARK>
 VINA RESULT:      -8.4      2.213      4.359
  Name = 
  8 active torsions:
  status: ('A' for Active; 'I' for Inactive)
    1  A    between atoms: C_2  and  C_4
    2  A    between atoms: C_2  and  C_21
    3  A    between atoms: C_3  and  C_9
    4  A    between atoms: C_3  and  C_19
    5  A    between atoms: C_4  and  N_27
    6  A    between atoms: C_11  and  C_19
    7  A    between atoms: C_16  and  C_18
    8  A    between atoms: C_17  and  C_29
                            x       y       z     vdW  Elec       q    Type
                         _______ _______ _______ _____ _____    ______ ____

>  <TORSDO>
F 8

$$$$
=
 OpenBabel11042412033D

 30 33  0  0  1  0  0  0  0  0999 V2000
  187.3500  178.2590  142.1030 C   0  0  0  0  0  0  0  0  0  0  0  0
  186.1390  177.5940  144.0980 C   0  0  0  0  0  3  0  0  0  0  0  0
  187.3580  177.7550  143.4240 C   0  0  0  0  0  0  0  0  0  0  0  0
  184.9190  178.4160  142.1710 C   0  0  0  0  0  0  0  0  0  0  0  0
  184.9320  177.9200  143.4780 C   0  0  0  0  0  3  0  0  0  0  0  0
  186.1330  178.5860  141.4920 C   0  0  0  0  0  3  0  0  0  0  0  0
  187.8200  178.0710  146.4290 C   0  0  0  0  0  3  0  0  0  0  0  0
  189.9540  177.1270  146.0660 C   0  0  0  0  0  0  0  0  0  0  0  0
  190.9940  176.6130  145.3900 C   0  0  0  0  0  0  0  0  0  0  0  0
  190.2680  177.2160  147.3660 C   0  0  0  0  0  0  0  0  0  0  0  0
  189.3900  177.7320  148.2640 N   0  0  0  0  0  0  0  0  0  0  0  0
  189.7000  176.8300  143.3790 C   0  0  0  0  0  3  0  0  0  0  0  0
  191.5940  176.7340  147.5910 N   0  0  0  0  0  0  0  0  0  0  0  0
  188.1640  178.1610  147.8100 C   0  0  0  0  0  3  0  0  0  0  0  0
  190.9110  176.4410  144.0080 C   0  0  0  0  0  3  0  0  0  0  0  0
  188.7580  177.5300  145.5240 C   0  0  0  0  0  0  0  0  0  0  0  0
  188.6110  177.3820  144.1210 C   0  0  0  0  0  0  0  0  0  0  0  0
  192.0340  176.3700  146.4090 C   0  0  0  0  0  3  0  0  0  0  0  0
  183.6450  178.7610  141.5170 C   0  0  0  0  0  0  0  0  0  0  0  0
  183.5680  178.8300  140.0890 N   0  0  0  0  0  2  0  0  0  0  0  0
  182.6220  179.0020  142.2150 O   0  0  0  0  0  0  0  0  0  0  0  0
  182.3330  179.1360  139.3810 C   0  0  0  0  0  2  0  0  0  0  0  0
  182.4340  180.5020  138.7250 C   0  0  0  0  0  2  0  0  0  0  0  0
  180.4320  181.2360  139.7930 O   0  0  0  0  0  1  0  0  0  0  0  0
  181.0530  181.1040  138.5500 C   0  0  1  0  0  3  0  0  0  0  0  0
  181.1790  182.4670  137.9060 C   0  0  0  0  0  1  0  0  0  0  0  0
  188.6110  178.4950  141.3350 C   0  0  0  0  0  2  0  0  0  0  0  0
  188.3930  178.2050  139.8580 C   0  0  0  0  0  2  0  0  0  0  0  0
  190.4200  176.7540  139.9090 C   0  0  0  0  0  1  0  0  0  0  0  0
  189.7130  177.8830  139.1820 C   0  0  0  0  0  2  0  0  0  0  0  0
  1  3  1  0  0  0  0
  3  2  2  0  0  0  0
  3 17  1  0  0  0  0
  4  5  2  0  0  0  0
  5  2  1  0  0  0  0
  6  1  2  0  0  0  0
  6  4  1  0  0  0  0
  7 14  2  0  0  0  0
  8 10  1  0  0  0  0
  9  8  2  0  0  0  0
  9 18  1  0  0  0  0
 10 13  1  0  0  0  0
 10 11  2  0  0  0  0
 12 15  2  0  0  0  0
 12 17  1  0  0  0  0
 14 11  1  0  0  0  0
 15  9  1  0  0  0  0
 16  8  1  0  0  0  0
 16  7  1  0  0  0  0
 17 16  2  0  0  0  0
 18 13  2  0  0  0  0
 19  4  1  0  0  0  0
 19 21  2  0  0  0  0
 20 19  1  0  0  0  0
 22 20  1  0  0  0  0
 23 22  1  0  0  0  0
 25 26  1  1  0  0  0
 25 23  1  0  0  0  0
 25 24  1  0  0  0  0
 27  1  1  0  0  0  0
 28 27  1  0  0  0  0
 30 28  1  0  0  0  0
 30 29  1  0  0  0  0
M  END
>  <MODEL>
5

>  <REMARK>
 VINA RESULT:      -8.4      4.182      7.809
  Name = 
  8 active torsions:
  status: ('A' for Active; 'I' for Inactive)
    1  A    between atoms: C_2  and  C_4
    2  A    between atoms: C_2  and  C_21
    3  A    between atoms: C_3  and  C_9
    4  A    between atoms: C_3  and  C_19
    5  A    between atoms: C_4  and  N_27
    6  A    between atoms: C_11  and  C_19
    7  A    between atoms: C_16  and  C_18
    8  A    between atoms: C_17  and  C_29
                            x       y       z     vdW  Elec       q    Type
                         _______ _______ _______ _____ _____    ______ ____

>  <TORSDO>
F 8

$$$$
=
 OpenBabel11042412033D

 30 33  0  0  1  0  0  0  0  0999 V2000
  184.1340  178.6160  143.1030 C   0  0  0  0  0  0  0  0  0  0  0  0
  186.4130  178.5340  142.2720 C   0  0  0  0  0  3  0  0  0  0  0  0
  185.5220  178.5080  143.3540 C   0  0  0  0  0  0  0  0  0  0  0  0
  184.5740  178.7810  140.7120 C   0  0  0  0  0  0  0  0  0  0  0  0
  185.9450  178.6700  140.9640 C   0  0  0  0  0  3  0  0  0  0  0  0
  183.6760  178.7500  141.7860 C   0  0  0  0  0  3  0  0  0  0  0  0
  188.2910  177.3880  144.0030 C   0  0  0  0  0  3  0  0  0  0  0  0
  187.7870  177.8150  146.2710 C   0  0  0  0  0  0  0  0  0  0  0  0
  187.0680  178.1910  147.3420 C   0  0  0  0  0  0  0  0  0  0  0  0
  188.9760  177.3470  146.6740 C   0  0  0  0  0  0  0  0  0  0  0  0
  189.8820  176.8760  145.7800 N   0  0  0  0  0  0  0  0  0  0  0  0
  185.2870  178.7890  145.8450 C   0  0  0  0  0  3  0  0  0  0  0  0
  189.0770  177.4080  148.0980 N   0  0  0  0  0  0  0  0  0  0  0  0
  189.5530  176.8930  144.4430 C   0  0  0  0  0  3  0  0  0  0  0  0
  185.7800  178.6970  147.1730 C   0  0  0  0  0  3  0  0  0  0  0  0
  187.3740  177.8690  144.9620 C   0  0  0  0  0  0  0  0  0  0  0  0
  186.0700  178.3750  144.7250 C   0  0  0  0  0  0  0  0  0  0  0  0
  187.9360  177.9150  148.5040 C   0  0  0  0  0  3  0  0  0  0  0  0
  184.0800  178.9230  139.3310 C   0  0  0  0  0  0  0  0  0  0  0  0
  182.6750  178.8660  139.0640 N   0  0  0  0  0  2  0  0  0  0  0  0
  184.8950  179.0910  138.3830 O   0  0  0  0  0  0  0  0  0  0  0  0
  182.1210  179.0290  137.7270 C   0  0  0  0  0  2  0  0  0  0  0  0
  180.9290  179.9690  137.7680 C   0  0  0  0  0  2  0  0  0  0  0  0
  181.5450  182.2330  138.1960 O   0  0  0  0  0  1  0  0  0  0  0  0
  181.1460  181.0470  138.8130 C   0  0  1  0  0  3  0  0  0  0  0  0
  179.8540  181.2830  139.5640 C   0  0  0  0  0  1  0  0  0  0  0  0
  183.1210  178.5570  144.2000 C   0  0  0  0  0  2  0  0  0  0  0  0
  181.9230  179.4310  143.8620 C   0  0  0  0  0  2  0  0  0  0  0  0
  180.0440  178.4110  142.5800 C   0  0  0  0  0  1  0  0  0  0  0  0
  180.6380  178.6280  143.9590 C   0  0  0  0  0  2  0  0  0  0  0  0
  1  3  1  0  0  0  0
  1 27  1  0  0  0  0
  2  3  2  0  0  0  0
  3 17  1  0  0  0  0
  4  5  2  0  0  0  0
  4  6  1  0  0  0  0
  5  2  1  0  0  0  0
  6  1  2  0  0  0  0
  7 14  2  0  0  0  0
  7 16  1  0  0  0  0
  8 10  1  0  0  0  0
  8  9  1  0  0  0  0
  9 18  1  0  0  0  0
 10 13  1  0  0  0  0
 11 10  2  0  0  0  0
 12 15  1  0  0  0  0
 13 18  2  0  0  0  0
 14 11  1  0  0  0  0
 15  9  2  0  0  0  0
 16  8  2  0  0  0  0
 17 16  1  0  0  0  0
 17 12  2  0  0  0  0
 19  4  1  0  0  0  0
 20 19  1  0  0  0  0
 21 19  2  0  0  0  0
 22 23  1  0  0  0  0
 22 20  1  0  0  0  0
 23 25  1  0  0  0  0
 24 25  1  0  0  0  0
 25 26  1  6  0  0  0
 28 30  1  0  0  0  0
 28 27  1  0  0  0  0
 29 30  1  0  0  0  0
M  END
>  <MODEL>
6

>  <REMARK>
 VINA RESULT:      -8.4      4.681      8.107
  Name = 
  8 active torsions:
  status: ('A' for Active; 'I' for Inactive)
    1  A    between atoms: C_2  and  C_4
    2  A    between atoms: C_2  and  C_21
    3  A    between atoms: C_3  and  C_9
    4  A    between atoms: C_3  and  C_19
    5  A    between atoms: C_4  and  N_27
    6  A    between atoms: C_11  and  C_19
    7  A    between atoms: C_16  and  C_18
    8  A    between atoms: C_17  and  C_29
                            x       y       z     vdW  Elec       q    Type
                         _______ _______ _______ _____ _____    ______ ____

>  <TORSDO>
F 8

$$$$
=
 OpenBabel11042412033D

 30 33  0  0  1  0  0  0  0  0999 V2000
  184.1210  178.6760  143.1820 C   0  0  0  0  0  0  0  0  0  0  0  0
  186.3990  178.5840  142.3520 C   0  0  0  0  0  3  0  0  0  0  0  0
  185.5080  178.5630  143.4340 C   0  0  0  0  0  0  0  0  0  0  0  0
  184.5620  178.8330  140.7910 C   0  0  0  0  0  0  0  0  0  0  0  0
  185.9320  178.7170  141.0440 C   0  0  0  0  0  3  0  0  0  0  0  0
  183.6630  178.8070  141.8650 C   0  0  0  0  0  3  0  0  0  0  0  0
  188.2200  177.3170  144.0970 C   0  0  0  0  0  3  0  0  0  0  0  0
  187.7490  177.8190  146.3570 C   0  0  0  0  0  0  0  0  0  0  0  0
  187.0550  178.2540  147.4220 C   0  0  0  0  0  0  0  0  0  0  0  0
  188.9140  177.2990  146.7650 C   0  0  0  0  0  0  0  0  0  0  0  0
  189.7900  176.7630  145.8780 N   0  0  0  0  0  0  0  0  0  0  0  0
  185.3000  178.9090  145.9200 C   0  0  0  0  0  3  0  0  0  0  0  0
  189.0250  177.3850  148.1870 N   0  0  0  0  0  0  0  0  0  0  0  0
  189.4570  176.7670  144.5430 C   0  0  0  0  0  3  0  0  0  0  0  0
  185.7940  178.8220  147.2470 C   0  0  0  0  0  3  0  0  0  0  0  0
  187.3330  177.8650  145.0480 C   0  0  0  0  0  0  0  0  0  0  0  0
  186.0550  178.4320  144.8050 C   0  0  0  0  0  0  0  0  0  0  0  0
  187.9140  177.9580  148.5860 C   0  0  0  0  0  3  0  0  0  0  0  0
  184.0690  178.9730  139.4100 C   0  0  0  0  0  0  0  0  0  0  0  0
  183.6300  177.8190  138.6850 N   0  0  0  0  0  2  0  0  0  0  0  0
  184.0370  180.1100  138.8630 O   0  0  0  0  0  0  0  0  0  0  0  0
  183.1040  177.8940  137.3290 C   0  0  0  0  0  2  0  0  0  0  0  0
  181.7520  177.2060  137.2560 C   0  0  0  0  0  2  0  0  0  0  0  0
  180.4590  175.9020  138.7780 O   0  0  0  0  0  1  0  0  0  0  0  0
  181.7200  176.0100  138.1880 C   0  0  1  0  0  3  0  0  0  0  0  0
  182.0120  174.7520  137.4000 C   0  0  0  0  0  1  0  0  0  0  0  0
  183.1070  178.6220  144.2790 C   0  0  0  0  0  2  0  0  0  0  0  0
  181.8020  179.2580  143.8250 C   0  0  0  0  0  2  0  0  0  0  0  0
  179.3760  179.0060  144.3390 C   0  0  0  0  0  1  0  0  0  0  0  0
  180.6550  178.2750  143.9760 C   0  0  0  0  0  2  0  0  0  0  0  0
  1  3  1  0  0  0  0
  1 27  1  0  0  0  0
  2  3  2  0  0  0  0
  3 17  1  0  0  0  0
  4  5  2  0  0  0  0
  4  6  1  0  0  0  0
  5  2  1  0  0  0  0
  6  1  2  0  0  0  0
  7 14  2  0  0  0  0
  7 16  1  0  0  0  0
  8 10  1  0  0  0  0
  8  9  1  0  0  0  0
  9 18  1  0  0  0  0
 10 13  1  0  0  0  0
 11 10  2  0  0  0  0
 12 15  1  0  0  0  0
 13 18  2  0  0  0  0
 14 11  1  0  0  0  0
 15  9  2  0  0  0  0
 16  8  2  0  0  0  0
 17 16  1  0  0  0  0
 17 12  2  0  0  0  0
 19  4  1  0  0  0  0
 20 19  1  0  0  0  0
 21 19  2  0  0  0  0
 22 20  1  0  0  0  0
 23 22  1  0  0  0  0
 23 25  1  0  0  0  0
 25 26  1  6  0  0  0
 25 24  1  0  0  0  0
 28 30  1  0  0  0  0
 28 27  1  0  0  0  0
 30 29  1  0  0  0  0
M  END
>  <MODEL>
7

>  <REMARK>
 VINA RESULT:      -8.2      4.890      7.617
  Name = 
  8 active torsions:
  status: ('A' for Active; 'I' for Inactive)
    1  A    between atoms: C_2  and  C_4
    2  A    between atoms: C_2  and  C_21
    3  A    between atoms: C_3  and  C_9
    4  A    between atoms: C_3  and  C_19
    5  A    between atoms: C_4  and  N_27
    6  A    between atoms: C_11  and  C_19
    7  A    between atoms: C_16  and  C_18
    8  A    between atoms: C_17  and  C_29
                            x       y       z     vdW  Elec       q    Type
                         _______ _______ _______ _____ _____    ______ ____

>  <TORSDO>
F 8

$$$$
=
 OpenBabel11042412033D

 30 33  0  0  1  0  0  0  0  0999 V2000
  186.5290  178.2510  142.6920 C   0  0  0  0  0  0  0  0  0  0  0  0
  185.5990  177.9160  144.9090 C   0  0  0  0  0  3  0  0  0  0  0  0
  186.7090  177.9080  144.0530 C   0  0  0  0  0  0  0  0  0  0  0  0
  184.1480  178.5890  143.0870 C   0  0  0  0  0  0  0  0  0  0  0  0
  184.3320  178.2530  144.4320 C   0  0  0  0  0  3  0  0  0  0  0  0
  185.2530  178.5890  142.2260 C   0  0  0  0  0  3  0  0  0  0  0  0
  187.5020  178.2130  146.9890 C   0  0  0  0  0  3  0  0  0  0  0  0
  189.5820  177.2670  146.3880 C   0  0  0  0  0  0  0  0  0  0  0  0
  190.5400  176.7550  145.5980 C   0  0  0  0  0  0  0  0  0  0  0  0
  190.0380  177.3510  147.6460 C   0  0  0  0  0  0  0  0  0  0  0  0
  189.2660  177.8650  148.6370 N   0  0  0  0  0  0  0  0  0  0  0  0
  189.0300  176.9810  143.7440 C   0  0  0  0  0  3  0  0  0  0  0  0
  191.3800  176.8670  147.7200 N   0  0  0  0  0  0  0  0  0  0  0  0
  187.9970  178.2970  148.3230 C   0  0  0  0  0  3  0  0  0  0  0  0
  190.3030  176.5880  144.2340 C   0  0  0  0  0  3  0  0  0  0  0  0
  188.3330  177.6740  145.9840 C   0  0  0  0  0  0  0  0  0  0  0  0
  188.0320  177.5310  144.6050 C   0  0  0  0  0  0  0  0  0  0  0  0
  191.6860  176.5070  146.4950 C   0  0  0  0  0  3  0  0  0  0  0  0
  182.8100  178.9450  142.5840 C   0  0  0  0  0  0  0  0  0  0  0  0
  182.4430  178.6260  141.2380 N   0  0  0  0  0  2  0  0  0  0  0  0
  181.9880  179.5360  143.3380 O   0  0  0  0  0  0  0  0  0  0  0  0
  181.1280  178.9240  140.6890 C   0  0  0  0  0  2  0  0  0  0  0  0
  180.7210  177.8490  139.6970 C   0  0  0  0  0  2  0  0  0  0  0  0
  181.5370  175.6190  139.4810 O   0  0  0  0  0  1  0  0  0  0  0  0
  181.9060  176.9610  139.3700 C   0  0  1  0  0  3  0  0  0  0  0  0
  182.3640  177.2380  137.9550 C   0  0  0  0  0  1  0  0  0  0  0  0
  187.6700  178.3030  141.7280 C   0  0  0  0  0  2  0  0  0  0  0  0
  187.1540  178.4400  140.3040 C   0  0  0  0  0  2  0  0  0  0  0  0
  189.4160  177.4380  140.0020 C   0  0  0  0  0  1  0  0  0  0  0  0
  188.2570  178.1310  139.3090 C   0  0  0  0  0  2  0  0  0  0  0  0
  1  3  1  0  0  0  0
  3 17  1  0  0  0  0
  3  2  2  0  0  0  0
  4  5  2  0  0  0  0
  5  2  1  0  0  0  0
  6  1  2  0  0  0  0
  6  4  1  0  0  0  0
  7 14  2  0  0  0  0
  8 10  1  0  0  0  0
  9  8  2  0  0  0  0
  9 18  1  0  0  0  0
 10 13  1  0  0  0  0
 10 11  2  0  0  0  0
 12 15  2  0  0  0  0
 12 17  1  0  0  0  0
 14 11  1  0  0  0  0
 15  9  1  0  0  0  0
 16  8  1  0  0  0  0
 16  7  1  0  0  0  0
 17 16  2  0  0  0  0
 18 13  2  0  0  0  0
 19  4  1  0  0  0  0
 19 21  2  0  0  0  0
 20 19  1  0  0  0  0
 22 20  1  0  0  0  0
 23 22  1  0  0  0  0
 25 26  1  6  0  0  0
 25 24  1  0  0  0  0
 25 23  1  0  0  0  0
 27  1  1  0  0  0  0
 28 27  1  0  0  0  0
 30 29  1  0  0  0  0
 30 28  1  0  0  0  0
M  END
>  <MODEL>
8

>  <REMARK>
 VINA RESULT:      -8.2      4.293      7.735
  Name = 
  8 active torsions:
  status: ('A' for Active; 'I' for Inactive)
    1  A    between atoms: C_2  and  C_4
    2  A    between atoms: C_2  and  C_21
    3  A    between atoms: C_3  and  C_9
    4  A    between atoms: C_3  and  C_19
    5  A    between atoms: C_4  and  N_27
    6  A    between atoms: C_11  and  C_19
    7  A    between atoms: C_16  and  C_18
    8  A    between atoms: C_17  and  C_29
                            x       y       z     vdW  Elec       q    Type
                         _______ _______ _______ _____ _____    ______ ____

>  <TORSDO>
F 8

$$$$
=
 OpenBabel11042412033D

 30 33  0  0  1  0  0  0  0  0999 V2000
  187.6120  178.2480  141.5660 C   0  0  0  0  0  0  0  0  0  0  0  0
  189.5210  176.8370  142.0700 C   0  0  0  0  0  3  0  0  0  0  0  0
  188.4040  177.5580  142.5140 C   0  0  0  0  0  0  0  0  0  0  0  0
  189.0770  177.4830  139.7760 C   0  0  0  0  0  0  0  0  0  0  0  0
  189.8550  176.8000  140.7150 C   0  0  0  0  0  3  0  0  0  0  0  0
  187.9560  178.2020  140.2100 C   0  0  0  0  0  3  0  0  0  0  0  0
  190.4910  177.2060  144.7200 C   0  0  0  0  0  3  0  0  0  0  0  0
  188.7200  177.4910  146.2570 C   0  0  0  0  0  0  0  0  0  0  0  0
  187.4630  177.6670  146.6960 C   0  0  0  0  0  0  0  0  0  0  0  0
  189.5440  177.3520  147.3050 C   0  0  0  0  0  0  0  0  0  0  0  0
  190.8710  177.1330  147.1270 N   0  0  0  0  0  0  0  0  0  0  0  0
  186.7550  177.7730  144.4040 C   0  0  0  0  0  3  0  0  0  0  0  0
  188.8100  177.4410  148.5280 N   0  0  0  0  0  0  0  0  0  0  0  0
  191.3580  177.0600  145.8420 C   0  0  0  0  0  3  0  0  0  0  0  0
  186.4210  177.8170  145.7830 C   0  0  0  0  0  3  0  0  0  0  0  0
  189.1160  177.4310  144.9430 C   0  0  0  0  0  0  0  0  0  0  0  0
  188.0990  177.5770  143.9640 C   0  0  0  0  0  0  0  0  0  0  0  0
  187.5620  177.6310  148.1690 C   0  0  0  0  0  3  0  0  0  0  0  0
  189.4290  177.4430  138.3460 C   0  0  0  0  0  0  0  0  0  0  0  0
  188.4450  177.7630  137.3570 N   0  0  0  0  0  2  0  0  0  0  0  0
  190.5970  177.1230  137.9920 O   0  0  0  0  0  0  0  0  0  0  0  0
  188.7360  177.7710  135.9300 C   0  0  0  0  0  2  0  0  0  0  0  0
  187.4480  177.8880  135.1360 C   0  0  0  0  0  2  0  0  0  0  0  0
  188.0470  175.6130  134.7390 O   0  0  0  0  0  1  0  0  0  0  0  0
  186.9830  176.5160  134.6850 C   0  0  1  0  0  3  0  0  0  0  0  0
  185.8740  176.0380  135.5960 C   0  0  0  0  0  1  0  0  0  0  0  0
  186.3850  179.0060  141.9580 C   0  0  0  0  0  2  0  0  0  0  0  0
  185.3700  178.9920  140.8260 C   0  0  0  0  0  2  0  0  0  0  0  0
  183.8420  178.6360  142.7630 C   0  0  0  0  0  1  0  0  0  0  0  0
  184.0690  178.3610  141.2880 C   0  0  0  0  0  2  0  0  0  0  0  0
  1 27  1  0  0  0  0
  1  3  1  0  0  0  0
  2  3  2  0  0  0  0
  3 17  1  0  0  0  0
  4  6  1  0  0  0  0
  4  5  2  0  0  0  0
  5  2  1  0  0  0  0
  6  1  2  0  0  0  0
  7 16  1  0  0  0  0
  7 14  2  0  0  0  0
  8  9  1  0  0  0  0
  8 10  1  0  0  0  0
  9 18  1  0  0  0  0
 10 13  1  0  0  0  0
 11 10  2  0  0  0  0
 12 15  1  0  0  0  0
 14 11  1  0  0  0  0
 15  9  2  0  0  0  0
 16  8  2  0  0  0  0
 17 12  2  0  0  0  0
 17 16  1  0  0  0  0
 18 13  2  0  0  0  0
 19  4  1  0  0  0  0
 20 19  1  0  0  0  0
 21 19  2  0  0  0  0
 22 20  1  0  0  0  0
 23 22  1  0  0  0  0
 25 24  1  0  0  0  0
 25 23  1  0  0  0  0
 25 26  1  1  0  0  0
 28 30  1  0  0  0  0
 28 27  1  0  0  0  0
 30 29  1  0  0  0  0
M  END
>  <MODEL>
9

>  <REMARK>
 VINA RESULT:      -8.1      2.961      5.247
  Name = 
  8 active torsions:
  status: ('A' for Active; 'I' for Inactive)
    1  A    between atoms: C_2  and  C_4
    2  A    between atoms: C_2  and  C_21
    3  A    between atoms: C_3  and  C_9
    4  A    between atoms: C_3  and  C_19
    5  A    between atoms: C_4  and  N_27
    6  A    between atoms: C_11  and  C_19
    7  A    between atoms: C_16  and  C_18
    8  A    between atoms: C_17  and  C_29
                            x       y       z     vdW  Elec       q    Type
                         _______ _______ _______ _____ _____    ______ ____

>  <TORSDO>
F 8

$$$$
