=
 OpenBabel11032420313D

 33 36  0  0  1  0  0  0  0  0999 V2000
  191.6590  176.4820  144.4960 C   0  0  0  0  0  3  0  0  0  0  0  0
  189.3010  177.7170  143.6570 C   0  0  0  0  0  3  0  0  0  0  0  0
  190.7240  176.9130  145.4430 C   0  0  0  0  0  0  0  0  0  0  0  0
  191.4150  176.6650  143.1330 C   0  0  0  0  0  3  0  0  0  0  0  0
  190.2360  177.2820  142.7050 C   0  0  0  0  0  0  0  0  0  0  0  0
  190.9800  176.7210  146.7950 O   0  0  0  0  0  1  0  0  0  0  0  0
  189.5370  177.5340  145.0290 C   0  0  0  0  0  0  0  0  0  0  0  0
  190.9080  177.1210  140.3500 C   0  0  0  0  0  3  0  0  0  0  0  0
  190.0010  177.4520  141.2650 C   0  0  0  0  0  3  0  0  0  0  0  0
  189.1770  177.5550  138.6660 C   0  0  0  0  0  3  0  0  0  0  0  0
  188.6510  176.5900  137.9250 C   0  0  0  0  0  3  0  0  0  0  0  0
  190.6370  177.3110  138.8950 C   0  0  2  0  0  3  0  0  0  0  0  0
  190.8370  176.0250  138.1630 C   0  0  0  0  0  0  0  0  0  0  0  0
  189.6970  175.6320  137.6020 C   0  0  0  0  0  0  0  0  0  0  0  0
  189.4020  173.1720  137.2960 O   0  0  0  0  0  1  0  0  0  0  0  0
  189.3830  174.5850  135.5020 O   0  0  0  0  0  0  0  0  0  0  0  0
  189.4840  174.4460  136.7490 C   0  0  0  0  0  0  0  0  0  0  0  0
  193.2130  176.3410  137.5560 C   0  0  0  0  0  1  0  0  0  0  0  0
  192.1670  175.3510  138.0340 C   0  0  0  0  0  2  0  0  0  0  0  0
  188.6100  177.9580  145.9890 O   0  0  0  0  0  0  0  0  0  0  0  0
  187.2810  177.4490  146.0620 C   0  0  0  0  0  2  0  0  0  0  0  0
  186.3280  178.5500  146.0570 N   0  0  0  0  0  2  0  0  0  0  0  0
  183.9440  178.7570  145.4620 C   0  0  0  0  0  3  0  0  0  0  0  0
  182.9470  178.8910  144.4920 C   0  0  0  0  0  3  0  0  0  0  0  0
  185.6310  178.7340  143.7280 C   0  0  0  0  0  3  0  0  0  0  0  0
  185.2910  178.6760  145.0820 C   0  0  0  0  0  0  0  0  0  0  0  0
  184.6370  178.8700  142.7480 C   0  0  0  0  0  0  0  0  0  0  0  0
  183.2930  178.9480  143.1390 C   0  0  0  0  0  3  0  0  0  0  0  0
  186.0870  178.8350  139.4410 N   0  0  0  0  0  0  0  0  0  0  0  0
  184.9980  178.9410  141.3230 C   0  0  0  0  0  0  0  0  0  0  0  0
  184.8590  179.2800  139.2210 N   0  0  0  0  0  0  0  0  0  0  0  0
  186.2140  178.6080  140.7630 C   0  0  0  0  0  2  0  0  0  0  0  0
  184.1710  179.3560  140.3480 N   0  0  0  0  0  0  0  0  0  0  0  0
  1  3  1  0  0  0  0
  2  7  1  0  0  0  0
  3  6  1  0  0  0  0
  4  1  2  0  0  0  0
  5  4  1  0  0  0  0
  5  2  2  0  0  0  0
  7  3  2  0  0  0  0
  7 20  1  0  0  0  0
  8  9  2  0  0  0  0
  9  5  1  0  0  0  0
 10 12  1  0  0  0  0
 11 10  2  0  0  0  0
 12  8  1  1  0  0  0
 13 12  1  0  0  0  0
 14 11  1  0  0  0  0
 14 13  2  0  0  0  0
 16 17  2  0  0  0  0
 17 15  1  0  0  0  0
 17 14  1  0  0  0  0
 18 19  1  0  0  0  0
 19 13  1  0  0  0  0
 20 21  1  0  0  0  0
 22 21  1  0  0  0  0
 24 23  2  0  0  0  0
 25 26  2  0  0  0  0
 26 23  1  0  0  0  0
 26 22  1  0  0  0  0
 27 28  2  0  0  0  0
 27 25  1  0  0  0  0
 28 24  1  0  0  0  0
 29 32  1  0  0  0  0
 30 27  1  0  0  0  0
 31 29  2  0  0  0  0
 31 33  1  0  0  0  0
 32 30  1  0  0  0  0
 33 30  2  0  0  0  0
M  END
>  <MODEL>
1

>  <REMARK>
 VINA RESULT:      -8.6      0.000      0.000
  Name = 
  9 active torsions:
  status: ('A' for Active; 'I' for Inactive)
    1  A    between atoms: C_4  and  C_24
    2  A    between atoms: C_5  and  C_21
    3  A    between atoms: C_9  and  C_10
    4  A    between atoms: C_17  and  C_25
    5  A    between atoms: C_20  and  N_32
    6  A    between atoms: C_26  and  C_30
    7  A    between atoms: O_28  and  C_31
    8  A    between atoms: O_28  and  C_33
    9  A    between atoms: N_32  and  C_33
                            x       y       z     vdW  Elec       q    Type
                         _______ _______ _______ _____ _____    ______ ____

>  <TORSDO>
F 9

$$$$
=
 OpenBabel11032420313D

 33 36  0  0  1  0  0  0  0  0999 V2000
  191.6810  176.0860  144.1750 C   0  0  0  0  0  3  0  0  0  0  0  0
  189.7500  178.0700  143.8240 C   0  0  0  0  0  3  0  0  0  0  0  0
  191.0830  176.6790  145.2910 C   0  0  0  0  0  0  0  0  0  0  0  0
  191.3130  176.4820  142.8860 C   0  0  0  0  0  3  0  0  0  0  0  0
  190.3460  177.4740  142.7030 C   0  0  0  0  0  0  0  0  0  0  0  0
  191.4570  176.2730  146.5660 O   0  0  0  0  0  1  0  0  0  0  0  0
  190.1110  177.6760  145.1230 C   0  0  0  0  0  0  0  0  0  0  0  0
  190.2250  177.0940  140.2820 C   0  0  0  0  0  3  0  0  0  0  0  0
  189.9710  177.8630  141.3370 C   0  0  0  0  0  3  0  0  0  0  0  0
  188.5040  178.2130  138.9370 C   0  0  0  0  0  3  0  0  0  0  0  0
  187.6090  177.5390  138.2280 C   0  0  0  0  0  3  0  0  0  0  0  0
  189.8330  177.5220  138.9070 C   0  0  2  0  0  3  0  0  0  0  0  0
  189.5230  176.3270  138.0660 C   0  0  0  0  0  0  0  0  0  0  0  0
  188.2520  176.3580  137.6730 C   0  0  0  0  0  0  0  0  0  0  0  0
  186.7050  174.4350  137.2990 O   0  0  0  0  0  1  0  0  0  0  0  0
  187.7750  175.4340  135.5460 O   0  0  0  0  0  0  0  0  0  0  0  0
  187.5680  175.3950  136.7870 C   0  0  0  0  0  0  0  0  0  0  0  0
  191.8280  175.9950  137.2370 C   0  0  0  0  0  1  0  0  0  0  0  0
  190.5470  175.3100  137.6750 C   0  0  0  0  0  2  0  0  0  0  0  0
  189.5200  178.2590  146.2510 O   0  0  0  0  0  0  0  0  0  0  0  0
  188.3450  177.7400  146.8670 C   0  0  0  0  0  2  0  0  0  0  0  0
  187.4750  177.1520  145.8590 N   0  0  0  0  0  2  0  0  0  0  0  0
  185.3100  178.2550  146.2820 C   0  0  0  0  0  3  0  0  0  0  0  0
  184.1610  178.8880  145.8000 C   0  0  0  0  0  3  0  0  0  0  0  0
  186.1050  177.9690  144.0140 C   0  0  0  0  0  3  0  0  0  0  0  0
  186.2860  177.7920  145.3890 C   0  0  0  0  0  0  0  0  0  0  0  0
  184.9560  178.6040  143.5230 C   0  0  0  0  0  0  0  0  0  0  0  0
  183.9850  179.0620  144.4240 C   0  0  0  0  0  3  0  0  0  0  0  0
  183.9870  178.7300  140.0470 N   0  0  0  0  0  0  0  0  0  0  0  0
  184.7720  178.8000  142.0760 C   0  0  0  0  0  0  0  0  0  0  0  0
  185.1040  179.4420  140.0680 N   0  0  0  0  0  0  0  0  0  0  0  0
  183.7430  178.3060  141.3020 C   0  0  0  0  0  2  0  0  0  0  0  0
  185.6060  179.5020  141.2900 N   0  0  0  0  0  0  0  0  0  0  0  0
  1  3  1  0  0  0  0
  2  7  1  0  0  0  0
  3  6  1  0  0  0  0
  4  1  2  0  0  0  0
  5  4  1  0  0  0  0
  5  2  2  0  0  0  0
  7  3  2  0  0  0  0
  7 20  1  0  0  0  0
  8  9  2  0  0  0  0
  9  5  1  0  0  0  0
 11 10  2  0  0  0  0
 12 10  1  0  0  0  0
 12  8  1  1  0  0  0
 13 12  1  0  0  0  0
 14 13  2  0  0  0  0
 14 11  1  0  0  0  0
 16 17  2  0  0  0  0
 17 15  1  0  0  0  0
 17 14  1  0  0  0  0
 18 19  1  0  0  0  0
 19 13  1  0  0  0  0
 20 21  1  0  0  0  0
 22 21  1  0  0  0  0
 24 23  1  0  0  0  0
 25 26  1  0  0  0  0
 26 22  1  0  0  0  0
 26 23  2  0  0  0  0
 27 25  2  0  0  0  0
 27 28  1  0  0  0  0
 28 24  2  0  0  0  0
 29 31  2  0  0  0  0
 29 32  1  0  0  0  0
 30 27  1  0  0  0  0
 31 33  1  0  0  0  0
 32 30  1  0  0  0  0
 33 30  2  0  0  0  0
M  END
>  <MODEL>
2

>  <REMARK>
 VINA RESULT:      -8.6      1.153      1.412
  Name = 
  9 active torsions:
  status: ('A' for Active; 'I' for Inactive)
    1  A    between atoms: C_4  and  C_24
    2  A    between atoms: C_5  and  C_21
    3  A    between atoms: C_9  and  C_10
    4  A    between atoms: C_17  and  C_25
    5  A    between atoms: C_20  and  N_32
    6  A    between atoms: C_26  and  C_30
    7  A    between atoms: O_28  and  C_31
    8  A    between atoms: O_28  and  C_33
    9  A    between atoms: N_32  and  C_33
                            x       y       z     vdW  Elec       q    Type
                         _______ _______ _______ _____ _____    ______ ____

>  <TORSDO>
F 9

$$$$
=
 OpenBabel11032420313D

 33 36  0  0  1  0  0  0  0  0999 V2000
  182.6060  178.9770  143.6270 C   0  0  0  0  0  3  0  0  0  0  0  0
  185.1860  178.6190  142.6240 C   0  0  0  0  0  3  0  0  0  0  0  0
  183.6900  178.9080  144.5070 C   0  0  0  0  0  0  0  0  0  0  0  0
  182.8100  178.8710  142.2490 C   0  0  0  0  0  3  0  0  0  0  0  0
  184.0990  178.6920  141.7400 C   0  0  0  0  0  0  0  0  0  0  0  0
  183.4710  179.0180  145.8740 O   0  0  0  0  0  1  0  0  0  0  0  0
  184.9900  178.7290  144.0110 C   0  0  0  0  0  0  0  0  0  0  0  0
  185.4900  178.5950  139.7200 C   0  0  0  0  0  3  0  0  0  0  0  0
  184.2860  178.5940  140.2860 C   0  0  0  0  0  3  0  0  0  0  0  0
  184.5270  177.6860  137.6530 C   0  0  0  0  0  3  0  0  0  0  0  0
  184.9980  176.5900  137.0750 C   0  0  0  0  0  3  0  0  0  0  0  0
  185.6430  178.4970  138.2380 C   0  0  2  0  0  3  0  0  0  0  0  0
  186.8270  177.6540  137.8990 C   0  0  0  0  0  0  0  0  0  0  0  0
  186.4450  176.5750  137.2210 C   0  0  0  0  0  0  0  0  0  0  0  0
  188.1310  175.7770  135.5620 O   0  0  0  0  0  0  0  0  0  0  0  0
  187.3070  174.3700  137.1610 O   0  0  0  0  0  1  0  0  0  0  0  0
  187.3130  175.5230  136.6550 C   0  0  0  0  0  0  0  0  0  0  0  0
  188.7990  178.9260  137.1200 C   0  0  0  0  0  1  0  0  0  0  0  0
  188.2340  178.0470  138.2210 C   0  0  0  0  0  2  0  0  0  0  0  0
  186.0650  178.6630  144.9040 O   0  0  0  0  0  0  0  0  0  0  0  0
  186.4310  177.4720  145.5940 C   0  0  0  0  0  2  0  0  0  0  0  0
  187.6280  177.7050  146.3880 N   0  0  0  0  0  2  0  0  0  0  0  0
  189.9750  177.0900  146.8300 C   0  0  0  0  0  3  0  0  0  0  0  0
  191.2490  176.7600  146.3570 C   0  0  0  0  0  3  0  0  0  0  0  0
  189.1910  177.3290  144.5540 C   0  0  0  0  0  3  0  0  0  0  0  0
  188.9410  177.3770  145.9280 C   0  0  0  0  0  0  0  0  0  0  0  0
  190.4650  176.9980  144.0710 C   0  0  0  0  0  0  0  0  0  0  0  0
  191.4920  176.7140  144.9820 C   0  0  0  0  0  3  0  0  0  0  0  0
  191.5870  177.2280  140.6470 N   0  0  0  0  0  0  0  0  0  0  0  0
  190.7230  176.9370  142.6240 C   0  0  0  0  0  0  0  0  0  0  0  0
  190.5210  176.4470  140.5570 N   0  0  0  0  0  0  0  0  0  0  0  0
  191.7490  177.5590  141.9420 C   0  0  0  0  0  2  0  0  0  0  0  0
  189.9720  176.2520  141.7450 N   0  0  0  0  0  0  0  0  0  0  0  0
  1  3  1  0  0  0  0
  2  7  1  0  0  0  0
  3  6  1  0  0  0  0
  4  1  2  0  0  0  0
  5  4  1  0  0  0  0
  5  2  2  0  0  0  0
  7  3  2  0  0  0  0
  7 20  1  0  0  0  0
  8  9  2  0  0  0  0
  9  5  1  0  0  0  0
 10 12  1  0  0  0  0
 11 14  1  0  0  0  0
 11 10  2  0  0  0  0
 12  8  1  1  0  0  0
 13 19  1  0  0  0  0
 13 12  1  0  0  0  0
 14 13  2  0  0  0  0
 15 17  2  0  0  0  0
 17 16  1  0  0  0  0
 17 14  1  0  0  0  0
 18 19  1  0  0  0  0
 20 21  1  0  0  0  0
 21 22  1  0  0  0  0
 24 23  1  0  0  0  0
 25 26  1  0  0  0  0
 26 22  1  0  0  0  0
 26 23  2  0  0  0  0
 27 25  2  0  0  0  0
 27 28  1  0  0  0  0
 28 24  2  0  0  0  0
 29 32  1  0  0  0  0
 30 27  1  0  0  0  0
 31 29  2  0  0  0  0
 31 33  1  0  0  0  0
 32 30  1  0  0  0  0
 33 30  2  0  0  0  0
M  END
>  <MODEL>
3

>  <REMARK>
 VINA RESULT:      -8.4      2.803      5.696
  Name = 
  9 active torsions:
  status: ('A' for Active; 'I' for Inactive)
    1  A    between atoms: C_4  and  C_24
    2  A    between atoms: C_5  and  C_21
    3  A    between atoms: C_9  and  C_10
    4  A    between atoms: C_17  and  C_25
    5  A    between atoms: C_20  and  N_32
    6  A    between atoms: C_26  and  C_30
    7  A    between atoms: O_28  and  C_31
    8  A    between atoms: O_28  and  C_33
    9  A    between atoms: N_32  and  C_33
                            x       y       z     vdW  Elec       q    Type
                         _______ _______ _______ _____ _____    ______ ____

>  <TORSDO>
F 9

$$$$
=
 OpenBabel11032420313D

 33 36  0  0  1  0  0  0  0  0999 V2000
  189.9510  177.5790  139.0610 C   0  0  0  0  0  3  0  0  0  0  0  0
  188.9270  177.8980  141.6370 C   0  0  0  0  0  3  0  0  0  0  0  0
  190.7560  177.2980  140.1690 C   0  0  0  0  0  0  0  0  0  0  0  0
  188.6360  178.0160  139.2390 C   0  0  0  0  0  3  0  0  0  0  0  0
  188.1160  178.1770  140.5260 C   0  0  0  0  0  0  0  0  0  0  0  0
  192.0610  176.8610  139.9750 O   0  0  0  0  0  1  0  0  0  0  0  0
  190.2490  177.4550  141.4660 C   0  0  0  0  0  0  0  0  0  0  0  0
  185.8640  178.6450  139.6730 C   0  0  0  0  0  3  0  0  0  0  0  0
  186.7270  178.6280  140.6840 C   0  0  0  0  0  3  0  0  0  0  0  0
  184.0510  178.9470  141.2990 C   0  0  0  0  0  3  0  0  0  0  0  0
  183.0420  178.0930  141.4020 C   0  0  0  0  0  3  0  0  0  0  0  0
  184.4600  179.1130  139.8680 C   0  0  2  0  0  3  0  0  0  0  0  0
  183.5100  178.1880  139.1820 C   0  0  0  0  0  0  0  0  0  0  0  0
  182.6960  177.6230  140.0700 C   0  0  0  0  0  0  0  0  0  0  0  0
  181.8200  175.3780  139.4190 O   0  0  0  0  0  0  0  0  0  0  0  0
  180.3940  177.0980  139.8920 O   0  0  0  0  0  1  0  0  0  0  0  0
  181.5820  176.6930  139.7950 C   0  0  0  0  0  0  0  0  0  0  0  0
  184.3280  176.8450  137.2740 C   0  0  0  0  0  1  0  0  0  0  0  0
  183.4590  178.0150  137.6970 C   0  0  0  0  0  2  0  0  0  0  0  0
  191.0670  177.1680  142.5660 O   0  0  0  0  0  0  0  0  0  0  0  0
  190.9340  177.8230  143.8240 C   0  0  0  0  0  2  0  0  0  0  0  0
  190.4270  176.8880  144.8180 N   0  0  0  0  0  2  0  0  0  0  0  0
  189.8220  177.2830  147.1770 C   0  0  0  0  0  3  0  0  0  0  0  0
  188.8780  177.6590  148.1360 C   0  0  0  0  0  3  0  0  0  0  0  0
  188.1810  177.6160  145.4300 C   0  0  0  0  0  3  0  0  0  0  0  0
  189.4750  177.2580  145.8190 C   0  0  0  0  0  0  0  0  0  0  0  0
  187.2280  177.9960  146.3860 C   0  0  0  0  0  0  0  0  0  0  0  0
  187.5850  178.0150  147.7410 C   0  0  0  0  0  3  0  0  0  0  0  0
  184.1300  178.9360  144.7880 N   0  0  0  0  0  0  0  0  0  0  0  0
  185.8700  178.3820  145.9740 C   0  0  0  0  0  0  0  0  0  0  0  0
  183.8060  178.9150  146.0720 N   0  0  0  0  0  2  0  0  0  0  0  0
  185.4310  178.6030  144.6840 C   0  0  0  0  0  3  0  0  0  0  0  0
  184.8450  178.5810  146.8200 N   0  0  0  0  0  0  0  0  0  0  0  0
  1  4  2  0  0  0  0
  1  3  1  0  0  0  0
  3  7  2  0  0  0  0
  4  5  1  0  0  0  0
  5  9  1  0  0  0  0
  5  2  2  0  0  0  0
  6  3  1  0  0  0  0
  7  2  1  0  0  0  0
  7 20  1  0  0  0  0
  8  9  2  0  0  0  0
 10 11  2  0  0  0  0
 12  8  1  1  0  0  0
 12 10  1  0  0  0  0
 13 12  1  0  0  0  0
 13 14  2  0  0  0  0
 14 11  1  0  0  0  0
 15 17  2  0  0  0  0
 17 16  1  0  0  0  0
 17 14  1  0  0  0  0
 18 19  1  0  0  0  0
 19 13  1  0  0  0  0
 20 21  1  0  0  0  0
 21 22  1  0  0  0  0
 22 26  1  0  0  0  0
 23 24  1  0  0  0  0
 25 26  1  0  0  0  0
 25 27  2  0  0  0  0
 26 23  2  0  0  0  0
 27 28  1  0  0  0  0
 28 24  2  0  0  0  0
 29 31  1  0  0  0  0
 30 27  1  0  0  0  0
 30 33  2  0  0  0  0
 31 33  1  0  0  0  0
 32 29  2  0  0  0  0
 32 30  1  0  0  0  0
M  END
>  <MODEL>
4

>  <REMARK>
 VINA RESULT:      -8.4      3.298      6.174
  Name = 
  9 active torsions:
  status: ('A' for Active; 'I' for Inactive)
    1  A    between atoms: C_4  and  C_24
    2  A    between atoms: C_5  and  C_21
    3  A    between atoms: C_9  and  C_10
    4  A    between atoms: C_17  and  C_25
    5  A    between atoms: C_20  and  N_32
    6  A    between atoms: C_26  and  C_30
    7  A    between atoms: O_28  and  C_31
    8  A    between atoms: O_28  and  C_33
    9  A    between atoms: N_32  and  C_33
                            x       y       z     vdW  Elec       q    Type
                         _______ _______ _______ _____ _____    ______ ____

>  <TORSDO>
F 9

$$$$
=
 OpenBabel11032420313D

 33 36  0  0  1  0  0  0  0  0999 V2000
  186.0550  178.3450  147.0950 C   0  0  0  0  0  3  0  0  0  0  0  0
  186.2410  177.9260  144.3430 C   0  0  0  0  0  3  0  0  0  0  0  0
  187.1280  177.6150  146.5740 C   0  0  0  0  0  0  0  0  0  0  0  0
  185.0790  178.8670  146.2430 C   0  0  0  0  0  3  0  0  0  0  0  0
  185.1660  178.6620  144.8630 C   0  0  0  0  0  0  0  0  0  0  0  0
  188.0920  177.1040  147.4350 O   0  0  0  0  0  1  0  0  0  0  0  0
  187.2290  177.4000  145.1920 C   0  0  0  0  0  0  0  0  0  0  0  0
  182.9040  178.7240  143.9140 C   0  0  0  0  0  3  0  0  0  0  0  0
  184.1320  179.2310  143.9900 C   0  0  0  0  0  3  0  0  0  0  0  0
  180.5060  179.1240  143.5810 C   0  0  0  0  0  3  0  0  0  0  0  0
  179.7690  178.3770  142.7710 C   0  0  0  0  0  3  0  0  0  0  0  0
  181.8780  179.3250  143.0130 C   0  0  2  0  0  3  0  0  0  0  0  0
  181.7870  178.5440  141.7440 C   0  0  0  0  0  0  0  0  0  0  0  0
  180.5710  178.0200  141.6120 C   0  0  0  0  0  0  0  0  0  0  0  0
  180.5200  175.9420  140.2290 O   0  0  0  0  0  1  0  0  0  0  0  0
  179.1970  177.7280  139.7060 O   0  0  0  0  0  0  0  0  0  0  0  0
  180.0590  177.2290  140.4760 C   0  0  0  0  0  0  0  0  0  0  0  0
  182.6210  179.3650  139.5660 C   0  0  0  0  0  1  0  0  0  0  0  0
  182.9020  178.4590  140.7500 C   0  0  0  0  0  2  0  0  0  0  0  0
  188.3100  176.6690  144.6850 O   0  0  0  0  0  0  0  0  0  0  0  0
  189.6540  177.1360  144.7350 C   0  0  0  0  0  2  0  0  0  0  0  0
  189.8480  178.1930  143.7530 N   0  0  0  0  0  2  0  0  0  0  0  0
  191.2240  177.5000  141.8270 C   0  0  0  0  0  3  0  0  0  0  0  0
  191.3460  177.2450  140.4580 C   0  0  0  0  0  3  0  0  0  0  0  0
  188.9060  178.1140  141.5050 C   0  0  0  0  0  3  0  0  0  0  0  0
  190.0010  177.9370  142.3550 C   0  0  0  0  0  0  0  0  0  0  0  0
  189.0200  177.8600  140.1310 C   0  0  0  0  0  0  0  0  0  0  0  0
  190.2480  177.4240  139.6130 C   0  0  0  0  0  3  0  0  0  0  0  0
  186.5410  178.0080  137.5100 N   0  0  0  0  0  0  0  0  0  0  0  0
  187.8630  178.0360  139.2400 C   0  0  0  0  0  0  0  0  0  0  0  0
  185.9300  178.5940  138.5290 N   0  0  0  0  0  2  0  0  0  0  0  0
  187.7700  177.6400  137.9220 C   0  0  0  0  0  3  0  0  0  0  0  0
  186.7090  178.6260  139.5970 N   0  0  0  0  0  0  0  0  0  0  0  0
  2  5  2  0  0  0  0
  2  7  1  0  0  0  0
  3  1  1  0  0  0  0
  3  6  1  0  0  0  0
  4  1  2  0  0  0  0
  5  4  1  0  0  0  0
  7  3  2  0  0  0  0
  8  9  2  0  0  0  0
  9  5  1  0  0  0  0
 11 10  2  0  0  0  0
 12 10  1  0  0  0  0
 12  8  1  1  0  0  0
 13 12  1  0  0  0  0
 14 13  2  0  0  0  0
 14 11  1  0  0  0  0
 15 17  1  0  0  0  0
 16 17  2  0  0  0  0
 17 14  1  0  0  0  0
 18 19  1  0  0  0  0
 19 13  1  0  0  0  0
 20 21  1  0  0  0  0
 20  7  1  0  0  0  0
 22 21  1  0  0  0  0
 23 26  1  0  0  0  0
 24 23  2  0  0  0  0
 25 26  2  0  0  0  0
 26 22  1  0  0  0  0
 27 25  1  0  0  0  0
 28 27  2  0  0  0  0
 28 24  1  0  0  0  0
 29 32  2  0  0  0  0
 29 31  1  0  0  0  0
 30 33  2  0  0  0  0
 30 27  1  0  0  0  0
 31 33  1  0  0  0  0
 32 30  1  0  0  0  0
M  END
>  <MODEL>
5

>  <REMARK>
 VINA RESULT:      -8.4      3.237      7.240
  Name = 
  9 active torsions:
  status: ('A' for Active; 'I' for Inactive)
    1  A    between atoms: C_4  and  C_24
    2  A    between atoms: C_5  and  C_21
    3  A    between atoms: C_9  and  C_10
    4  A    between atoms: C_17  and  C_25
    5  A    between atoms: C_20  and  N_32
    6  A    between atoms: C_26  and  C_30
    7  A    between atoms: O_28  and  C_31
    8  A    between atoms: O_28  and  C_33
    9  A    between atoms: N_32  and  C_33
                            x       y       z     vdW  Elec       q    Type
                         _______ _______ _______ _____ _____    ______ ____

>  <TORSDO>
F 9

$$$$
=
 OpenBabel11032420313D

 33 36  0  0  1  0  0  0  0  0999 V2000
  189.6700  176.3070  138.5110 C   0  0  0  0  0  3  0  0  0  0  0  0
  188.2970  178.3570  139.8150 C   0  0  0  0  0  3  0  0  0  0  0  0
  188.5280  176.8610  137.9260 C   0  0  0  0  0  0  0  0  0  0  0  0
  190.1280  176.7790  139.7440 C   0  0  0  0  0  3  0  0  0  0  0  0
  189.4460  177.8050  140.4020 C   0  0  0  0  0  0  0  0  0  0  0  0
  188.0860  176.3830  136.6980 O   0  0  0  0  0  1  0  0  0  0  0  0
  187.8320  177.8910  138.5750 C   0  0  0  0  0  0  0  0  0  0  0  0
  189.2900  178.1190  142.8310 C   0  0  0  0  0  3  0  0  0  0  0  0
  189.9560  178.2890  141.6920 C   0  0  0  0  0  3  0  0  0  0  0  0
  191.2680  179.0350  143.9590 C   0  0  0  0  0  3  0  0  0  0  0  0
  192.0590  178.2900  144.7190 C   0  0  0  0  0  3  0  0  0  0  0  0
  189.8360  178.6260  144.1240 C   0  0  2  0  0  3  0  0  0  0  0  0
  189.9630  177.5050  145.1030 C   0  0  0  0  0  0  0  0  0  0  0  0
  191.2370  177.3340  145.4460 C   0  0  0  0  0  0  0  0  0  0  0  0
  191.8860  176.7010  147.7710 O   0  0  0  0  0  1  0  0  0  0  0  0
  192.1530  175.2340  146.0410 O   0  0  0  0  0  0  0  0  0  0  0  0
  191.7760  176.3720  146.4260 C   0  0  0  0  0  0  0  0  0  0  0  0
  188.3490  177.3810  146.9730 C   0  0  0  0  0  1  0  0  0  0  0  0
  188.7880  176.7630  145.6580 C   0  0  0  0  0  2  0  0  0  0  0  0
  186.6910  178.4370  137.9750 O   0  0  0  0  0  0  0  0  0  0  0  0
  185.3670  178.0390  138.3200 C   0  0  0  0  0  2  0  0  0  0  0  0
  184.6610  179.1510  138.9390 N   0  0  0  0  0  2  0  0  0  0  0  0
  182.4040  178.8760  139.8960 C   0  0  0  0  0  3  0  0  0  0  0  0
  181.5740  178.7080  141.0090 C   0  0  0  0  0  3  0  0  0  0  0  0
  184.3400  178.9330  141.3470 C   0  0  0  0  0  3  0  0  0  0  0  0
  183.7910  178.9900  140.0630 C   0  0  0  0  0  0  0  0  0  0  0  0
  183.5150  178.7640  142.4680 C   0  0  0  0  0  0  0  0  0  0  0  0
  182.1290  178.6520  142.2900 C   0  0  0  0  0  3  0  0  0  0  0  0
  185.4600  178.3870  145.4870 N   0  0  0  0  0  0  0  0  0  0  0  0
  184.0950  178.6920  143.8180 C   0  0  0  0  0  0  0  0  0  0  0  0
  184.2890  178.8090  145.9400 N   0  0  0  0  0  2  0  0  0  0  0  0
  185.3770  178.3000  144.1450 C   0  0  0  0  0  3  0  0  0  0  0  0
  183.4360  179.0040  144.9480 N   0  0  0  0  0  0  0  0  0  0  0  0
  1  4  1  0  0  0  0
  2  5  1  0  0  0  0
  3  1  2  0  0  0  0
  3  7  1  0  0  0  0
  4  5  2  0  0  0  0
  5  9  1  0  0  0  0
  6  3  1  0  0  0  0
  7  2  2  0  0  0  0
  9  8  2  0  0  0  0
 10 12  1  0  0  0  0
 10 11  2  0  0  0  0
 11 14  1  0  0  0  0
 12  8  1  6  0  0  0
 12 13  1  0  0  0  0
 13 14  2  0  0  0  0
 13 19  1  0  0  0  0
 14 17  1  0  0  0  0
 16 17  2  0  0  0  0
 17 15  1  0  0  0  0
 19 18  1  0  0  0  0
 20 21  1  0  0  0  0
 20  7  1  0  0  0  0
 21 22  1  0  0  0  0
 22 26  1  0  0  0  0
 23 26  2  0  0  0  0
 23 24  1  0  0  0  0
 24 28  2  0  0  0  0
 25 27  2  0  0  0  0
 26 25  1  0  0  0  0
 27 30  1  0  0  0  0
 28 27  1  0  0  0  0
 29 31  1  0  0  0  0
 30 32  1  0  0  0  0
 30 33  2  0  0  0  0
 32 29  2  0  0  0  0
 33 31  1  0  0  0  0
M  END
>  <MODEL>
6

>  <REMARK>
 VINA RESULT:      -8.4      1.858      6.688
  Name = 
  9 active torsions:
  status: ('A' for Active; 'I' for Inactive)
    1  A    between atoms: C_4  and  C_24
    2  A    between atoms: C_5  and  C_21
    3  A    between atoms: C_9  and  C_10
    4  A    between atoms: C_17  and  C_25
    5  A    between atoms: C_20  and  N_32
    6  A    between atoms: C_26  and  C_30
    7  A    between atoms: O_28  and  C_31
    8  A    between atoms: O_28  and  C_33
    9  A    between atoms: N_32  and  C_33
                            x       y       z     vdW  Elec       q    Type
                         _______ _______ _______ _____ _____    ______ ____

>  <TORSDO>
F 9

$$$$
=
 OpenBabel11032420313D

 33 36  0  0  1  0  0  0  0  0999 V2000
  188.3280  177.8830  139.5500 C   0  0  0  0  0  3  0  0  0  0  0  0
  190.9010  177.0590  140.2490 C   0  0  0  0  0  3  0  0  0  0  0  0
  188.7180  177.8830  140.8930 C   0  0  0  0  0  0  0  0  0  0  0  0
  189.2240  177.4750  138.5580 C   0  0  0  0  0  3  0  0  0  0  0  0
  190.5140  177.0620  138.9000 C   0  0  0  0  0  0  0  0  0  0  0  0
  187.8170  178.2940  141.8680 O   0  0  0  0  0  1  0  0  0  0  0  0
  190.0090  177.4710  141.2520 C   0  0  0  0  0  0  0  0  0  0  0  0
  192.7380  176.4690  138.0500 C   0  0  0  0  0  3  0  0  0  0  0  0
  191.4380  176.6480  137.8360 C   0  0  0  0  0  3  0  0  0  0  0  0
  192.8740  175.8660  135.6750 C   0  0  0  0  0  3  0  0  0  0  0  0
  192.9390  174.6060  135.2660 C   0  0  0  0  0  3  0  0  0  0  0  0
  193.6490  176.0520  136.9440 C   0  0  2  0  0  3  0  0  0  0  0  0
  194.1500  174.6660  137.1860 C   0  0  0  0  0  0  0  0  0  0  0  0
  193.7490  173.8540  136.2110 C   0  0  0  0  0  0  0  0  0  0  0  0
  195.3760  172.0090  135.7870 O   0  0  0  0  0  0  0  0  0  0  0  0
  193.1640  171.5610  136.1410 O   0  0  0  0  0  1  0  0  0  0  0  0
  194.0760  172.4240  136.0500 C   0  0  0  0  0  0  0  0  0  0  0  0
  196.4990  174.3950  137.9090 C   0  0  0  0  0  1  0  0  0  0  0  0
  195.0440  174.3050  138.3300 C   0  0  0  0  0  2  0  0  0  0  0  0
  190.3850  177.4790  142.6010 O   0  0  0  0  0  0  0  0  0  0  0  0
  190.1790  176.3690  143.4700 C   0  0  0  0  0  2  0  0  0  0  0  0
  190.5030  176.7450  144.8390 N   0  0  0  0  0  2  0  0  0  0  0  0
  189.7970  177.1520  147.1670 C   0  0  0  0  0  3  0  0  0  0  0  0
  188.8160  177.5420  148.0820 C   0  0  0  0  0  3  0  0  0  0  0  0
  188.2410  177.5020  145.3470 C   0  0  0  0  0  3  0  0  0  0  0  0
  189.5120  177.1290  145.7950 C   0  0  0  0  0  0  0  0  0  0  0  0
  187.2510  177.8950  146.2590 C   0  0  0  0  0  0  0  0  0  0  0  0
  187.5470  177.9130  147.6290 C   0  0  0  0  0  3  0  0  0  0  0  0
  184.2000  178.7390  144.5220 N   0  0  0  0  0  0  0  0  0  0  0  0
  185.9170  178.2980  145.7860 C   0  0  0  0  0  0  0  0  0  0  0  0
  183.9030  179.0020  145.7860 N   0  0  0  0  0  2  0  0  0  0  0  0
  185.4690  178.2900  144.4810 C   0  0  0  0  0  3  0  0  0  0  0  0
  184.9290  178.7430  146.5800 N   0  0  0  0  0  0  0  0  0  0  0  0
  1  3  1  0  0  0  0
  2  7  1  0  0  0  0
  3  7  2  0  0  0  0
  3  6  1  0  0  0  0
  4  5  1  0  0  0  0
  4  1  2  0  0  0  0
  5  2  2  0  0  0  0
  7 20  1  0  0  0  0
  9  8  2  0  0  0  0
  9  5  1  0  0  0  0
 10 12  1  0  0  0  0
 11 10  2  0  0  0  0
 11 14  1  0  0  0  0
 12 13  1  0  0  0  0
 12  8  1  1  0  0  0
 13 19  1  0  0  0  0
 14 13  2  0  0  0  0
 15 17  2  0  0  0  0
 17 16  1  0  0  0  0
 17 14  1  0  0  0  0
 18 19  1  0  0  0  0
 20 21  1  0  0  0  0
 21 22  1  0  0  0  0
 22 26  1  0  0  0  0
 23 24  1  0  0  0  0
 25 26  1  0  0  0  0
 25 27  2  0  0  0  0
 26 23  2  0  0  0  0
 27 28  1  0  0  0  0
 28 24  2  0  0  0  0
 29 31  1  0  0  0  0
 30 27  1  0  0  0  0
 30 33  2  0  0  0  0
 31 33  1  0  0  0  0
 32 29  2  0  0  0  0
 32 30  1  0  0  0  0
M  END
>  <MODEL>
7

>  <REMARK>
 VINA RESULT:      -8.2      2.602      4.903
  Name = 
  9 active torsions:
  status: ('A' for Active; 'I' for Inactive)
    1  A    between atoms: C_4  and  C_24
    2  A    between atoms: C_5  and  C_21
    3  A    between atoms: C_9  and  C_10
    4  A    between atoms: C_17  and  C_25
    5  A    between atoms: C_20  and  N_32
    6  A    between atoms: C_26  and  C_30
    7  A    between atoms: O_28  and  C_31
    8  A    between atoms: O_28  and  C_33
    9  A    between atoms: N_32  and  C_33
                            x       y       z     vdW  Elec       q    Type
                         _______ _______ _______ _____ _____    ______ ____

>  <TORSDO>
F 9

$$$$
=
 OpenBabel11032420313D

 33 36  0  0  1  0  0  0  0  0999 V2000
  186.2240  178.2500  147.1280 C   0  0  0  0  0  3  0  0  0  0  0  0
  186.1450  178.1410  144.3400 C   0  0  0  0  0  3  0  0  0  0  0  0
  187.2790  177.6600  146.4250 C   0  0  0  0  0  0  0  0  0  0  0  0
  185.1330  178.7870  146.4390 C   0  0  0  0  0  3  0  0  0  0  0  0
  185.0870  178.7360  145.0430 C   0  0  0  0  0  0  0  0  0  0  0  0
  188.3580  177.1330  147.1240 O   0  0  0  0  0  1  0  0  0  0  0  0
  187.2470  177.6020  145.0240 C   0  0  0  0  0  0  0  0  0  0  0  0
  182.8200  178.6290  144.1120 C   0  0  0  0  0  3  0  0  0  0  0  0
  183.9330  179.3180  144.3450 C   0  0  0  0  0  3  0  0  0  0  0  0
  180.3730  178.7560  143.9680 C   0  0  0  0  0  3  0  0  0  0  0  0
  179.6810  178.0890  143.0540 C   0  0  0  0  0  3  0  0  0  0  0  0
  181.6670  179.2500  143.3960 C   0  0  2  0  0  3  0  0  0  0  0  0
  181.5880  178.7280  141.9990 C   0  0  0  0  0  0  0  0  0  0  0  0
  180.4410  178.0790  141.8140 C   0  0  0  0  0  0  0  0  0  0  0  0
  179.3400  178.2290  139.5790 O   0  0  0  0  0  0  0  0  0  0  0  0
  180.0900  176.2270  140.3820 O   0  0  0  0  0  1  0  0  0  0  0  0
  179.9550  177.4650  140.5620 C   0  0  0  0  0  0  0  0  0  0  0  0
  183.5890  177.8190  140.8680 C   0  0  0  0  0  1  0  0  0  0  0  0
  182.6340  178.9940  140.9630 C   0  0  0  0  0  2  0  0  0  0  0  0
  188.3120  177.0100  144.3340 O   0  0  0  0  0  0  0  0  0  0  0  0
  188.2770  176.7400  142.9360 C   0  0  0  0  0  2  0  0  0  0  0  0
  189.1520  177.6650  142.2310 N   0  0  0  0  0  2  0  0  0  0  0  0
  188.4880  178.2530  139.9290 C   0  0  0  0  0  3  0  0  0  0  0  0
  188.7210  178.1970  138.5520 C   0  0  0  0  0  3  0  0  0  0  0  0
  190.4690  176.9190  140.3190 C   0  0  0  0  0  3  0  0  0  0  0  0
  189.3620  177.6120  140.8180 C   0  0  0  0  0  0  0  0  0  0  0  0
  190.7110  176.8590  138.9390 C   0  0  0  0  0  0  0  0  0  0  0  0
  189.8290  177.5030  138.0590 C   0  0  0  0  0  3  0  0  0  0  0  0
  193.8980  175.6300  137.7700 N   0  0  0  0  0  0  0  0  0  0  0  0
  191.8820  176.1390  138.4160 C   0  0  0  0  0  0  0  0  0  0  0  0
  193.0950  174.5930  137.5850 N   0  0  0  0  0  0  0  0  0  0  0  0
  193.1660  176.6310  138.2960 C   0  0  0  0  0  2  0  0  0  0  0  0
  191.8600  174.8720  137.9680 N   0  0  0  0  0  0  0  0  0  0  0  0
  2  7  2  0  0  0  0
  2  5  1  0  0  0  0
  3  6  1  0  0  0  0
  3  1  2  0  0  0  0
  4  1  1  0  0  0  0
  5  4  2  0  0  0  0
  7  3  1  0  0  0  0
  8  9  2  0  0  0  0
  9  5  1  0  0  0  0
 11 10  2  0  0  0  0
 12 10  1  0  0  0  0
 12  8  1  1  0  0  0
 13 12  1  0  0  0  0
 14 13  2  0  0  0  0
 14 11  1  0  0  0  0
 15 17  2  0  0  0  0
 16 17  1  0  0  0  0
 17 14  1  0  0  0  0
 18 19  1  0  0  0  0
 19 13  1  0  0  0  0
 20  7  1  0  0  0  0
 21 20  1  0  0  0  0
 22 21  1  0  0  0  0
 23 26  1  0  0  0  0
 24 23  2  0  0  0  0
 25 26  2  0  0  0  0
 26 22  1  0  0  0  0
 27 25  1  0  0  0  0
 28 24  1  0  0  0  0
 28 27  2  0  0  0  0
 29 32  1  0  0  0  0
 30 27  1  0  0  0  0
 31 29  2  0  0  0  0
 31 33  1  0  0  0  0
 32 30  1  0  0  0  0
 33 30  2  0  0  0  0
M  END
>  <MODEL>
8

>  <REMARK>
 VINA RESULT:      -8.1      4.034      8.062
  Name = 
  9 active torsions:
  status: ('A' for Active; 'I' for Inactive)
    1  A    between atoms: C_4  and  C_24
    2  A    between atoms: C_5  and  C_21
    3  A    between atoms: C_9  and  C_10
    4  A    between atoms: C_17  and  C_25
    5  A    between atoms: C_20  and  N_32
    6  A    between atoms: C_26  and  C_30
    7  A    between atoms: O_28  and  C_31
    8  A    between atoms: O_28  and  C_33
    9  A    between atoms: N_32  and  C_33
                            x       y       z     vdW  Elec       q    Type
                         _______ _______ _______ _____ _____    ______ ____

>  <TORSDO>
F 9

$$$$
=
 OpenBabel11032420313D

 33 36  0  0  1  0  0  0  0  0999 V2000
  182.3560  179.1740  144.2480 C   0  0  0  0  0  3  0  0  0  0  0  0
  184.4810  178.3210  142.6520 C   0  0  0  0  0  3  0  0  0  0  0  0
  182.1830  179.0550  142.8660 C   0  0  0  0  0  0  0  0  0  0  0  0
  183.5870  178.8650  144.8320 C   0  0  0  0  0  3  0  0  0  0  0  0
  184.6550  178.4370  144.0390 C   0  0  0  0  0  0  0  0  0  0  0  0
  180.9520  179.3630  142.2990 O   0  0  0  0  0  1  0  0  0  0  0  0
  183.2460  178.6260  142.0570 C   0  0  0  0  0  0  0  0  0  0  0  0
  186.6630  177.0550  144.3230 C   0  0  0  0  0  3  0  0  0  0  0  0
  185.9350  178.1090  144.6820 C   0  0  0  0  0  3  0  0  0  0  0  0
  188.2120  177.7310  146.1030 C   0  0  0  0  0  3  0  0  0  0  0  0
  189.3080  178.4370  145.8590 C   0  0  0  0  0  3  0  0  0  0  0  0
  187.9580  176.7490  145.0000 C   0  0  2  0  0  3  0  0  0  0  0  0
  189.0990  177.0380  144.0820 C   0  0  0  0  0  0  0  0  0  0  0  0
  189.8700  177.9950  144.5920 C   0  0  0  0  0  0  0  0  0  0  0  0
  192.1210  177.6810  143.5580 O   0  0  0  0  0  0  0  0  0  0  0  0
  191.3010  179.7740  143.9660 O   0  0  0  0  0  1  0  0  0  0  0  0
  191.1230  178.5290  144.0240 C   0  0  0  0  0  0  0  0  0  0  0  0
  188.9810  177.1250  141.6130 C   0  0  0  0  0  1  0  0  0  0  0  0
  189.3480  176.2780  142.8170 C   0  0  0  0  0  2  0  0  0  0  0  0
  183.0560  178.5090  140.6740 O   0  0  0  0  0  0  0  0  0  0  0  0
  182.7790  177.2690  140.0310 C   0  0  0  0  0  2  0  0  0  0  0  0
  182.5780  177.4840  138.6060 N   0  0  0  0  0  2  0  0  0  0  0  0
  183.3950  176.8460  136.3670 C   0  0  0  0  0  3  0  0  0  0  0  0
  184.4380  176.7540  135.4410 C   0  0  0  0  0  3  0  0  0  0  0  0
  184.9170  177.8000  137.9890 C   0  0  0  0  0  3  0  0  0  0  0  0
  183.6320  177.3690  137.6460 C   0  0  0  0  0  0  0  0  0  0  0  0
  185.9690  177.7120  137.0660 C   0  0  0  0  0  0  0  0  0  0  0  0
  185.7210  177.1860  135.7900 C   0  0  0  0  0  3  0  0  0  0  0  0
  189.4280  178.7080  137.3480 N   0  0  0  0  0  0  0  0  0  0  0  0
  187.3180  178.1760  137.4250 C   0  0  0  0  0  0  0  0  0  0  0  0
  188.9530  178.9410  138.5630 N   0  0  0  0  0  2  0  0  0  0  0  0
  188.4210  178.2230  136.5970 C   0  0  0  0  0  3  0  0  0  0  0  0
  187.6700  178.6270  138.6410 N   0  0  0  0  0  0  0  0  0  0  0  0
  1  4  1  0  0  0  0
  2  5  1  0  0  0  0
  3  1  2  0  0  0  0
  5  9  1  0  0  0  0
  5  4  2  0  0  0  0
  6  3  1  0  0  0  0
  7  2  2  0  0  0  0
  7  3  1  0  0  0  0
  8  9  2  0  0  0  0
 11 10  2  0  0  0  0
 12  8  1  6  0  0  0
 12 10  1  0  0  0  0
 13 14  2  0  0  0  0
 13 12  1  0  0  0  0
 14 11  1  0  0  0  0
 15 17  2  0  0  0  0
 16 17  1  0  0  0  0
 17 14  1  0  0  0  0
 18 19  1  0  0  0  0
 19 13  1  0  0  0  0
 20  7  1  0  0  0  0
 21 20  1  0  0  0  0
 22 21  1  0  0  0  0
 23 26  1  0  0  0  0
 24 28  1  0  0  0  0
 24 23  2  0  0  0  0
 26 25  2  0  0  0  0
 26 22  1  0  0  0  0
 27 30  1  0  0  0  0
 27 25  1  0  0  0  0
 28 27  2  0  0  0  0
 29 31  1  0  0  0  0
 30 33  2  0  0  0  0
 31 33  1  0  0  0  0
 32 29  2  0  0  0  0
 32 30  1  0  0  0  0
M  END
>  <MODEL>
9

>  <REMARK>
 VINA RESULT:      -8.1      3.480      7.307
  Name = 
  9 active torsions:
  status: ('A' for Active; 'I' for Inactive)
    1  A    between atoms: C_4  and  C_24
    2  A    between atoms: C_5  and  C_21
    3  A    between atoms: C_9  and  C_10
    4  A    between atoms: C_17  and  C_25
    5  A    between atoms: C_20  and  N_32
    6  A    between atoms: C_26  and  C_30
    7  A    between atoms: O_28  and  C_31
    8  A    between atoms: O_28  and  C_33
    9  A    between atoms: N_32  and  C_33
                            x       y       z     vdW  Elec       q    Type
                         _______ _______ _______ _____ _____    ______ ____

>  <TORSDO>
F 9

$$$$
