=
 OpenBabel11042410383D

 44 48  0  0  1  0  0  0  0  0999 V2000
  190.9380  176.7500  145.1770 C   0  0  0  0  0  3  0  0  0  0  0  0
  187.0830  178.0810  145.8570 C   0  0  0  0  0  3  0  0  0  0  0  0
  190.5980  177.0200  146.5250 C   0  0  0  0  0  0  0  0  0  0  0  0
  187.6760  177.6490  143.7050 N   0  0  0  0  0  0  0  0  0  0  0  0
  186.6730  178.0570  144.5210 C   0  0  0  0  0  0  0  0  0  0  0  0
  190.0020  176.9380  144.1470 C   0  0  0  0  0  3  0  0  0  0  0  0
  188.3980  177.6540  145.8060 C   0  0  0  0  0  0  0  0  0  0  0  0
  189.3080  177.4790  146.8470 C   0  0  0  0  0  3  0  0  0  0  0  0
  188.7320  177.3990  144.5000 C   0  0  0  0  0  0  0  0  0  0  0  0
  185.3220  178.4370  144.0700 C   0  0  0  0  0  0  0  0  0  0  0  0
  183.5510  178.5390  142.9230 C   0  0  0  0  0  0  0  0  0  0  0  0
  184.5610  179.3630  144.6920 N   0  0  0  0  0  0  0  0  0  0  0  0
  183.4280  179.4290  143.9670 C   0  0  0  0  0  2  0  0  0  0  0  0
  184.7340  177.9010  142.9820 N   0  0  0  0  0  0  0  0  0  0  0  0
  182.8950  178.7970  140.5610 C   0  0  0  0  0  2  0  0  0  0  0  0
  182.4920  178.2670  141.9030 C   0  0  2  0  0  3  0  0  0  0  0  0
  181.2190  179.0140  142.2190 C   0  0  0  0  0  2  0  0  0  0  0  0
  181.7300  179.6830  140.1470 C   0  0  2  0  0  3  0  0  0  0  0  0
  180.6460  179.4280  141.0090 O   0  0  0  0  0  0  0  0  0  0  0  0
  179.9450  179.5050  138.5640 O   0  0  0  0  0  1  0  0  0  0  0  0
  181.3390  179.4520  138.6730 C   0  0  0  0  0  0  0  0  0  0  0  0
  181.8920  180.4580  137.8730 O   0  0  0  0  0  1  0  0  0  0  0  0
  181.8180  178.0700  138.1900 C   0  0  2  0  0  3  0  0  0  0  0  0
  182.1170  178.0850  136.7640 N   0  0  0  0  0  1  0  0  0  0  0  0
  180.7780  176.9870  138.4780 C   0  0  0  0  0  2  0  0  0  0  0  0
  180.9450  174.6200  138.2140 O   0  0  0  0  0  0  0  0  0  0  0  0
  181.4390  175.6680  138.7060 C   0  0  0  0  0  0  0  0  0  0  0  0
  182.6190  175.6000  139.4360 O   0  0  0  0  0  1  0  0  0  0  0  0
  192.5040  175.7400  147.5920 C   0  0  0  0  0  1  0  0  0  0  0  0
  191.5490  176.8360  147.5770 N   0  0  0  0  0  2  0  0  0  0  0  0
  187.6060  177.5600  142.3010 N   0  0  0  0  0  2  0  0  0  0  0  0
  188.1870  178.5480  141.4050 C   0  0  0  0  0  2  0  0  0  0  0  0
  187.5580  178.4530  140.0980 N   0  0  0  0  0  2  0  0  0  0  0  0
  188.3070  178.3010  138.8920 C   0  0  0  0  0  0  0  0  0  0  0  0
  189.5690  178.3130  138.9170 O   0  0  0  0  0  0  0  0  0  0  0  0
  187.5750  178.1330  137.5980 C   0  0  1  0  0  3  0  0  0  0  0  0
  187.7050  176.7680  137.1110 N   0  0  0  0  0  0  0  0  0  0  0  0
  186.0990  178.2620  137.8040 C   0  0  0  0  0  3  0  0  0  0  0  0
  185.4970  177.1660  137.4830 N   0  0  0  0  0  0  0  0  0  0  0  0
  186.5160  176.2710  137.0630 C   0  0  0  0  0  0  0  0  0  0  0  0
  186.2480  174.8680  136.6230 C   0  0  0  0  0  2  0  0  0  0  0  0
  184.9760  174.2750  137.2280 C   0  0  0  0  0  3  0  0  0  0  0  0
  185.2040  172.8790  137.7760 C   0  0  0  0  0  1  0  0  0  0  0  0
  183.8230  174.2830  136.2410 C   0  0  0  0  0  1  0  0  0  0  0  0
  1  3  1  0  0  0  0
  3  8  2  0  0  0  0
  3 30  1  0  0  0  0
  4  9  1  0  0  0  0
  4  5  1  0  0  0  0
  5  2  2  0  0  0  0
  6  9  1  0  0  0  0
  6  1  2  0  0  0  0
  7  2  1  0  0  0  0
  7  8  1  0  0  0  0
  9  7  2  0  0  0  0
 10  5  1  0  0  0  0
 10 12  2  0  0  0  0
 11 14  2  0  0  0  0
 11 13  1  0  0  0  0
 13 12  1  0  0  0  0
 14 10  1  0  0  0  0
 15 16  1  0  0  0  0
 16 17  1  0  0  0  0
 16 11  1  1  0  0  0
 18 21  1  6  0  0  0
 18 15  1  0  0  0  0
 18 19  1  0  0  0  0
 19 17  1  0  0  0  0
 20 21  1  0  0  0  0
 22 21  1  0  0  0  0
 23 24  1  6  0  0  0
 23 25  1  0  0  0  0
 23 21  1  0  0  0  0
 25 27  1  0  0  0  0
 26 27  2  0  0  0  0
 27 28  1  0  0  0  0
 30 29  1  0  0  0  0
 31  4  1  0  0  0  0
 32 31  1  0  0  0  0
 33 32  1  0  0  0  0
 34 35  2  0  0  0  0
 34 33  1  0  0  0  0
 36 38  1  0  0  0  0
 36 34  1  1  0  0  0
 37 36  1  0  0  0  0
 39 38  2  0  0  0  0
 40 37  2  0  0  0  0
 40 39  1  0  0  0  0
 41 40  1  0  0  0  0
 41 42  1  0  0  0  0
 42 43  1  0  0  0  0
 44 42  1  0  0  0  0
M  END
>  <MODEL>
1

>  <REMARK>
 VINA RESULT:      -8.1      0.000      0.000
  Name = 
  13 active torsions:
  status: ('A' for Active; 'I' for Inactive)
    1  A    between atoms: C_6  and  C_33
    2  A    between atoms: C_7  and  C_41
    3  A    between atoms: C_8  and  C_18
    4  A    between atoms: C_8  and  C_25
    5  A    between atoms: C_9  and  C_12
    6  A    between atoms: C_13  and  N_24
    7  A    between atoms: C_14  and  C_17
    8  A    between atoms: N_15  and  C_38
    9  A    between atoms: N_16  and  N_23
   10  A    between atoms: C_18  and  C_27
   11  A    between atoms: C_19  and  C_25
   12  A    between atoms: N_23  and  C_38
   13  A    between atoms: C_41  and  C_44
                            x       y       z     vdW  Elec       q    Type
                         _______ _______ _______ _____ _____    ______ ____

>  <TORSDO>
F 13

$$$$
=
 OpenBabel11042410383D

 44 48  0  0  1  0  0  0  0  0999 V2000
  183.8870  179.2690  143.5750 C   0  0  0  0  0  3  0  0  0  0  0  0
  184.3540  178.2360  139.5990 C   0  0  0  0  0  3  0  0  0  0  0  0
  182.7010  178.9640  142.8640 C   0  0  0  0  0  0  0  0  0  0  0  0
  186.2320  178.7480  140.7740 N   0  0  0  0  0  0  0  0  0  0  0  0
  185.7450  178.3620  139.5680 C   0  0  0  0  0  0  0  0  0  0  0  0
  185.1390  179.2220  142.9390 C   0  0  0  0  0  3  0  0  0  0  0  0
  184.0220  178.5620  140.9010 C   0  0  0  0  0  0  0  0  0  0  0  0
  182.7670  178.6040  141.5050 C   0  0  0  0  0  3  0  0  0  0  0  0
  185.1680  178.8660  141.5900 C   0  0  0  0  0  0  0  0  0  0  0  0
  186.5670  178.1100  138.3700 C   0  0  0  0  0  0  0  0  0  0  0  0
  187.9360  177.2100  137.0360 C   0  0  0  0  0  0  0  0  0  0  0  0
  186.6090  178.9420  137.3080 N   0  0  0  0  0  0  0  0  0  0  0  0
  187.4780  178.3710  136.4510 C   0  0  0  0  0  2  0  0  0  0  0  0
  187.3630  177.0300  138.2400 N   0  0  0  0  0  0  0  0  0  0  0  0
  189.9070  175.7720  137.3850 C   0  0  0  0  0  2  0  0  0  0  0  0
  188.8860  176.2490  136.3970 C   0  0  2  0  0  3  0  0  0  0  0  0
  189.7080  176.9200  135.3240 C   0  0  0  0  0  2  0  0  0  0  0  0
  191.2390  176.0640  136.7120 C   0  0  2  0  0  3  0  0  0  0  0  0
  190.9980  176.3720  135.3600 O   0  0  0  0  0  0  0  0  0  0  0  0
  191.5050  173.7650  137.3170 O   0  0  0  0  0  1  0  0  0  0  0  0
  192.2150  174.8770  136.8500 C   0  0  0  0  0  0  0  0  0  0  0  0
  192.7650  174.5690  135.6010 O   0  0  0  0  0  1  0  0  0  0  0  0
  193.3350  175.2030  137.8550 C   0  0  2  0  0  3  0  0  0  0  0  0
  193.5070  176.6420  138.0050 N   0  0  0  0  0  1  0  0  0  0  0  0
  194.6640  174.5760  137.4320 C   0  0  0  0  0  2  0  0  0  0  0  0
  195.3010  172.8200  138.9170 O   0  0  0  0  0  0  0  0  0  0  0  0
  195.3950  174.0380  138.6170 C   0  0  0  0  0  0  0  0  0  0  0  0
  196.2050  174.8760  139.3720 O   0  0  0  0  0  1  0  0  0  0  0  0
  180.2080  179.4050  142.8080 C   0  0  0  0  0  1  0  0  0  0  0  0
  181.4230  179.0150  143.5040 N   0  0  0  0  0  2  0  0  0  0  0  0
  187.5840  179.0090  141.0660 N   0  0  0  0  0  2  0  0  0  0  0  0
  188.5330  177.9800  141.4650 C   0  0  0  0  0  2  0  0  0  0  0  0
  188.9670  178.2190  142.8310 N   0  0  0  0  0  2  0  0  0  0  0  0
  190.1930  177.7010  143.3510 C   0  0  0  0  0  0  0  0  0  0  0  0
  190.9190  176.9480  142.6450 O   0  0  0  0  0  0  0  0  0  0  0  0
  190.6010  178.0600  144.7450 C   0  0  1  0  0  3  0  0  0  0  0  0
  189.4370  178.4210  145.5400 N   0  0  0  0  0  0  0  0  0  0  0  0
  191.1260  176.8600  145.4690 C   0  0  0  0  0  3  0  0  0  0  0  0
  190.3930  176.5930  146.4970 N   0  0  0  0  0  0  0  0  0  0  0  0
  189.3650  177.5720  146.5090 C   0  0  0  0  0  0  0  0  0  0  0  0
  188.2790  177.6130  147.5340 C   0  0  0  0  0  2  0  0  0  0  0  0
  186.8750  177.6130  146.9310 C   0  0  0  0  0  3  0  0  0  0  0  0
  186.8720  177.1140  145.4970 C   0  0  0  0  0  1  0  0  0  0  0  0
  186.2180  178.9780  147.0260 C   0  0  0  0  0  1  0  0  0  0  0  0
  2  7  1  0  0  0  0
  3 30  1  0  0  0  0
  3  1  2  0  0  0  0
  4 31  1  0  0  0  0
  4  9  1  0  0  0  0
  5  2  2  0  0  0  0
  5  4  1  0  0  0  0
  6  1  1  0  0  0  0
  7  8  2  0  0  0  0
  7  9  1  0  0  0  0
  8  3  1  0  0  0  0
  9  6  2  0  0  0  0
 10  5  1  0  0  0  0
 11 14  2  0  0  0  0
 12 10  2  0  0  0  0
 13 11  1  0  0  0  0
 13 12  1  0  0  0  0
 14 10  1  0  0  0  0
 16 11  1  1  0  0  0
 16 15  1  0  0  0  0
 17 19  1  0  0  0  0
 17 16  1  0  0  0  0
 18 21  1  6  0  0  0
 18 15  1  0  0  0  0
 19 18  1  0  0  0  0
 21 20  1  0  0  0  0
 21 23  1  0  0  0  0
 22 21  1  0  0  0  0
 23 24  1  6  0  0  0
 25 23  1  0  0  0  0
 25 27  1  0  0  0  0
 27 26  2  0  0  0  0
 27 28  1  0  0  0  0
 29 30  1  0  0  0  0
 31 32  1  0  0  0  0
 32 33  1  0  0  0  0
 33 34  1  0  0  0  0
 35 34  2  0  0  0  0
 36 34  1  6  0  0  0
 36 38  1  0  0  0  0
 36 37  1  0  0  0  0
 37 40  2  0  0  0  0
 38 39  2  0  0  0  0
 39 40  1  0  0  0  0
 40 41  1  0  0  0  0
 42 44  1  0  0  0  0
 42 41  1  0  0  0  0
 43 42  1  0  0  0  0
M  END
>  <MODEL>
2

>  <REMARK>
 VINA RESULT:      -8.0      4.251      9.499
  Name = 
  13 active torsions:
  status: ('A' for Active; 'I' for Inactive)
    1  A    between atoms: C_6  and  C_33
    2  A    between atoms: C_7  and  C_41
    3  A    between atoms: C_8  and  C_18
    4  A    between atoms: C_8  and  C_25
    5  A    between atoms: C_9  and  C_12
    6  A    between atoms: C_13  and  N_24
    7  A    between atoms: C_14  and  C_17
    8  A    between atoms: N_15  and  C_38
    9  A    between atoms: N_16  and  N_23
   10  A    between atoms: C_18  and  C_27
   11  A    between atoms: C_19  and  C_25
   12  A    between atoms: N_23  and  C_38
   13  A    between atoms: C_41  and  C_44
                            x       y       z     vdW  Elec       q    Type
                         _______ _______ _______ _____ _____    ______ ____

>  <TORSDO>
F 13

$$$$
=
 OpenBabel11042410383D

 44 48  0  0  1  0  0  0  0  0999 V2000
  191.0710  176.7850  145.2030 C   0  0  0  0  0  3  0  0  0  0  0  0
  187.0840  177.8320  145.5390 C   0  0  0  0  0  3  0  0  0  0  0  0
  190.5750  176.9500  146.5200 C   0  0  0  0  0  0  0  0  0  0  0  0
  187.9250  177.5720  143.4420 N   0  0  0  0  0  0  0  0  0  0  0  0
  186.8170  177.8670  144.1680 C   0  0  0  0  0  0  0  0  0  0  0  0
  190.2350  176.9800  144.0910 C   0  0  0  0  0  3  0  0  0  0  0  0
  188.4230  177.4910  145.6060 C   0  0  0  0  0  0  0  0  0  0  0  0
  189.2300  177.3080  146.7260 C   0  0  0  0  0  3  0  0  0  0  0  0
  188.9070  177.3390  144.3310 C   0  0  0  0  0  0  0  0  0  0  0  0
  185.4970  178.1900  143.5960 C   0  0  0  0  0  0  0  0  0  0  0  0
  183.9540  178.5340  142.1950 C   0  0  0  0  0  0  0  0  0  0  0  0
  184.4370  178.5740  144.3390 N   0  0  0  0  0  0  0  0  0  0  0  0
  183.4480  178.7900  143.4510 C   0  0  0  0  0  2  0  0  0  0  0  0
  185.2390  178.1460  142.2740 N   0  0  0  0  0  0  0  0  0  0  0  0
  182.6470  177.2590  140.5390 C   0  0  0  0  0  2  0  0  0  0  0  0
  183.1680  178.6100  140.9250 C   0  0  2  0  0  3  0  0  0  0  0  0
  184.0430  179.0060  139.7610 C   0  0  0  0  0  2  0  0  0  0  0  0
  183.1360  177.0670  139.1110 C   0  0  2  0  0  3  0  0  0  0  0  0
  183.6030  178.3050  138.6290 O   0  0  0  0  0  0  0  0  0  0  0  0
  180.9570  176.0870  139.0090 O   0  0  0  0  0  1  0  0  0  0  0  0
  182.0250  176.4980  138.2050 C   0  0  0  0  0  0  0  0  0  0  0  0
  181.5740  177.4910  137.3280 O   0  0  0  0  0  1  0  0  0  0  0  0
  182.5370  175.2820  137.4090 C   0  0  2  0  0  3  0  0  0  0  0  0
  181.5560  174.2060  137.4010 N   0  0  0  0  0  1  0  0  0  0  0  0
  183.8580  174.7600  137.9760 C   0  0  0  0  0  2  0  0  0  0  0  0
  184.5320  172.4940  137.6460 O   0  0  0  0  0  1  0  0  0  0  0  0
  184.3820  173.6380  137.1420 C   0  0  0  0  0  0  0  0  0  0  0  0
  184.6750  173.8470  135.8010 O   0  0  0  0  0  0  0  0  0  0  0  0
  192.4310  175.7160  147.7190 C   0  0  0  0  0  1  0  0  0  0  0  0
  191.4220  176.7600  147.6560 N   0  0  0  0  0  2  0  0  0  0  0  0
  188.0050  177.5670  142.0360 N   0  0  0  0  0  2  0  0  0  0  0  0
  188.5720  178.6610  141.2610 C   0  0  0  0  0  2  0  0  0  0  0  0
  188.1080  178.5770  139.8870 N   0  0  0  0  0  2  0  0  0  0  0  0
  188.9550  178.1700  138.8110 C   0  0  0  0  0  0  0  0  0  0  0  0
  190.1780  177.9310  139.0160 O   0  0  0  0  0  0  0  0  0  0  0  0
  188.3750  178.0370  137.4380 C   0  0  1  0  0  3  0  0  0  0  0  0
  188.9130  176.8630  136.7690 N   0  0  0  0  0  0  0  0  0  0  0  0
  186.9130  177.7250  137.5100 C   0  0  0  0  0  3  0  0  0  0  0  0
  186.6650  176.5800  136.9690 N   0  0  0  0  0  0  0  0  0  0  0  0
  187.9180  176.0800  136.5260 C   0  0  0  0  0  0  0  0  0  0  0  0
  188.0830  174.7540  135.8550 C   0  0  0  0  0  2  0  0  0  0  0  0
  188.6990  173.6890  136.7610 C   0  0  0  0  0  3  0  0  0  0  0  0
  190.1730  173.4750  136.4680 C   0  0  0  0  0  1  0  0  0  0  0  0
  187.9410  172.3760  136.6880 C   0  0  0  0  0  1  0  0  0  0  0  0
  1  3  1  0  0  0  0
  2  7  1  0  0  0  0
  3  8  2  0  0  0  0
  3 30  1  0  0  0  0
  4  5  1  0  0  0  0
  4  9  1  0  0  0  0
  5  2  2  0  0  0  0
  6  9  1  0  0  0  0
  6  1  2  0  0  0  0
  7  8  1  0  0  0  0
  9  7  2  0  0  0  0
 10  5  1  0  0  0  0
 10 12  2  0  0  0  0
 11 14  2  0  0  0  0
 11 13  1  0  0  0  0
 13 12  1  0  0  0  0
 14 10  1  0  0  0  0
 15 16  1  0  0  0  0
 16 11  1  1  0  0  0
 17 16  1  0  0  0  0
 18 21  1  6  0  0  0
 18 15  1  0  0  0  0
 19 18  1  0  0  0  0
 19 17  1  0  0  0  0
 21 20  1  0  0  0  0
 22 21  1  0  0  0  0
 23 24  1  1  0  0  0
 23 25  1  0  0  0  0
 23 21  1  0  0  0  0
 27 26  1  0  0  0  0
 27 25  1  0  0  0  0
 28 27  2  0  0  0  0
 30 29  1  0  0  0  0
 31  4  1  0  0  0  0
 32 31  1  0  0  0  0
 33 32  1  0  0  0  0
 34 35  2  0  0  0  0
 34 33  1  0  0  0  0
 36 38  1  0  0  0  0
 36 34  1  1  0  0  0
 37 36  1  0  0  0  0
 39 38  2  0  0  0  0
 40 37  2  0  0  0  0
 40 39  1  0  0  0  0
 41 40  1  0  0  0  0
 41 42  1  0  0  0  0
 43 42  1  0  0  0  0
 44 42  1  0  0  0  0
M  END
>  <MODEL>
3

>  <REMARK>
 VINA RESULT:      -8.0      1.762      2.370
  Name = 
  13 active torsions:
  status: ('A' for Active; 'I' for Inactive)
    1  A    between atoms: C_6  and  C_33
    2  A    between atoms: C_7  and  C_41
    3  A    between atoms: C_8  and  C_18
    4  A    between atoms: C_8  and  C_25
    5  A    between atoms: C_9  and  C_12
    6  A    between atoms: C_13  and  N_24
    7  A    between atoms: C_14  and  C_17
    8  A    between atoms: N_15  and  C_38
    9  A    between atoms: N_16  and  N_23
   10  A    between atoms: C_18  and  C_27
   11  A    between atoms: C_19  and  C_25
   12  A    between atoms: N_23  and  C_38
   13  A    between atoms: C_41  and  C_44
                            x       y       z     vdW  Elec       q    Type
                         _______ _______ _______ _____ _____    ______ ____

>  <TORSDO>
F 13

$$$$
=
 OpenBabel11042410383D

 44 48  0  0  1  0  0  0  0  0999 V2000
  191.1470  176.6690  145.2600 C   0  0  0  0  0  3  0  0  0  0  0  0
  187.2180  177.9080  145.6190 C   0  0  0  0  0  3  0  0  0  0  0  0
  190.6990  176.9610  146.5720 C   0  0  0  0  0  0  0  0  0  0  0  0
  187.9820  177.4440  143.5280 N   0  0  0  0  0  0  0  0  0  0  0  0
  186.9100  177.8430  144.2570 C   0  0  0  0  0  0  0  0  0  0  0  0
  190.2860  176.8090  144.1590 C   0  0  0  0  0  3  0  0  0  0  0  0
  188.5440  177.5160  145.6760 C   0  0  0  0  0  0  0  0  0  0  0  0
  189.3770  177.3910  146.7850 C   0  0  0  0  0  3  0  0  0  0  0  0
  188.9820  177.2420  144.4060 C   0  0  0  0  0  0  0  0  0  0  0  0
  185.5870  178.1750  143.6980 C   0  0  0  0  0  0  0  0  0  0  0  0
  184.0290  178.5120  142.3120 C   0  0  0  0  0  0  0  0  0  0  0  0
  184.5460  178.5950  144.4460 N   0  0  0  0  0  0  0  0  0  0  0  0
  183.5470  178.8070  143.5680 C   0  0  0  0  0  2  0  0  0  0  0  0
  185.3090  178.1040  142.3800 N   0  0  0  0  0  0  0  0  0  0  0  0
  183.1300  177.2160  140.4170 C   0  0  0  0  0  2  0  0  0  0  0  0
  183.2250  178.5700  141.0520 C   0  0  2  0  0  3  0  0  0  0  0  0
  183.9080  179.4130  140.0030 C   0  0  0  0  0  2  0  0  0  0  0  0
  183.6170  177.4390  138.9930 C   0  0  2  0  0  3  0  0  0  0  0  0
  183.6740  178.8250  138.7530 O   0  0  0  0  0  0  0  0  0  0  0  0
  183.2490  176.9100  136.6900 O   0  0  0  0  0  1  0  0  0  0  0  0
  182.7080  176.7300  137.9680 C   0  0  0  0  0  0  0  0  0  0  0  0
  182.6590  175.3600  138.2470 O   0  0  0  0  0  1  0  0  0  0  0  0
  181.2880  177.3260  137.9890 C   0  0  2  0  0  3  0  0  0  0  0  0
  180.2890  176.2980  138.2480 N   0  0  0  0  0  1  0  0  0  0  0  0
  180.9600  178.0310  136.6720 C   0  0  0  0  0  2  0  0  0  0  0  0
  179.1570  179.5680  136.9660 O   0  0  0  0  0  0  0  0  0  0  0  0
  180.4030  179.3920  136.9290 C   0  0  0  0  0  0  0  0  0  0  0  0
  181.2590  180.4620  137.1580 O   0  0  0  0  0  1  0  0  0  0  0  0
  192.4960  175.7140  147.8470 C   0  0  0  0  0  1  0  0  0  0  0  0
  191.5730  176.8270  147.6960 N   0  0  0  0  0  2  0  0  0  0  0  0
  188.0190  177.3220  142.1260 N   0  0  0  0  0  2  0  0  0  0  0  0
  188.7710  178.2200  141.2620 C   0  0  0  0  0  2  0  0  0  0  0  0
  188.9250  177.6190  139.9470 N   0  0  0  0  0  2  0  0  0  0  0  0
  188.0020  177.8500  138.8820 C   0  0  0  0  0  0  0  0  0  0  0  0
  186.9650  178.5440  139.0740 O   0  0  0  0  0  0  0  0  0  0  0  0
  188.2790  177.2540  137.5380 C   0  0  1  0  0  3  0  0  0  0  0  0
  187.7800  175.8880  137.4730 N   0  0  0  0  0  0  0  0  0  0  0  0
  187.4760  177.9410  136.4790 C   0  0  0  0  0  3  0  0  0  0  0  0
  186.6690  177.1090  135.9090 N   0  0  0  0  0  0  0  0  0  0  0  0
  186.8840  175.8590  136.5460 C   0  0  0  0  0  0  0  0  0  0  0  0
  186.1300  174.6170  136.1970 C   0  0  0  0  0  2  0  0  0  0  0  0
  186.3480  173.4760  137.1890 C   0  0  0  0  0  3  0  0  0  0  0  0
  187.2090  172.3710  136.6050 C   0  0  0  0  0  1  0  0  0  0  0  0
  185.0350  172.9170  137.7060 C   0  0  0  0  0  1  0  0  0  0  0  0
  1  3  1  0  0  0  0
  2  7  1  0  0  0  0
  3  8  2  0  0  0  0
  3 30  1  0  0  0  0
  4  5  1  0  0  0  0
  4  9  1  0  0  0  0
  5  2  2  0  0  0  0
  6  9  1  0  0  0  0
  6  1  2  0  0  0  0
  7  8  1  0  0  0  0
  9  7  2  0  0  0  0
 10  5  1  0  0  0  0
 10 12  2  0  0  0  0
 11 14  2  0  0  0  0
 11 13  1  0  0  0  0
 13 12  1  0  0  0  0
 14 10  1  0  0  0  0
 15 16  1  0  0  0  0
 16 11  1  1  0  0  0
 17 16  1  0  0  0  0
 18 21  1  6  0  0  0
 18 15  1  0  0  0  0
 19 18  1  0  0  0  0
 19 17  1  0  0  0  0
 20 21  1  0  0  0  0
 21 23  1  0  0  0  0
 21 22  1  0  0  0  0
 23 24  1  6  0  0  0
 25 27  1  0  0  0  0
 25 23  1  0  0  0  0
 27 26  2  0  0  0  0
 27 28  1  0  0  0  0
 30 29  1  0  0  0  0
 31  4  1  0  0  0  0
 32 31  1  0  0  0  0
 33 32  1  0  0  0  0
 34 35  2  0  0  0  0
 34 33  1  0  0  0  0
 36 34  1  1  0  0  0
 37 36  1  0  0  0  0
 38 36  1  0  0  0  0
 39 38  2  0  0  0  0
 39 40  1  0  0  0  0
 40 37  2  0  0  0  0
 41 40  1  0  0  0  0
 41 42  1  0  0  0  0
 42 44  1  0  0  0  0
 43 42  1  0  0  0  0
M  END
>  <MODEL>
4

>  <REMARK>
 VINA RESULT:      -7.9      1.390      2.281
  Name = 
  13 active torsions:
  status: ('A' for Active; 'I' for Inactive)
    1  A    between atoms: C_6  and  C_33
    2  A    between atoms: C_7  and  C_41
    3  A    between atoms: C_8  and  C_18
    4  A    between atoms: C_8  and  C_25
    5  A    between atoms: C_9  and  C_12
    6  A    between atoms: C_13  and  N_24
    7  A    between atoms: C_14  and  C_17
    8  A    between atoms: N_15  and  C_38
    9  A    between atoms: N_16  and  N_23
   10  A    between atoms: C_18  and  C_27
   11  A    between atoms: C_19  and  C_25
   12  A    between atoms: N_23  and  C_38
   13  A    between atoms: C_41  and  C_44
                            x       y       z     vdW  Elec       q    Type
                         _______ _______ _______ _____ _____    ______ ____

>  <TORSDO>
F 13

$$$$
=
 OpenBabel11042410383D

 44 48  0  0  1  0  0  0  0  0999 V2000
  191.0350  176.7320  145.2340 C   0  0  0  0  0  3  0  0  0  0  0  0
  187.0830  177.8800  145.6400 C   0  0  0  0  0  3  0  0  0  0  0  0
  190.5730  176.9290  146.5580 C   0  0  0  0  0  0  0  0  0  0  0  0
  187.8710  177.5680  143.5300 N   0  0  0  0  0  0  0  0  0  0  0  0
  186.7870  177.9010  144.2740 C   0  0  0  0  0  0  0  0  0  0  0  0
  190.1800  176.9300  144.1370 C   0  0  0  0  0  3  0  0  0  0  0  0
  188.4150  177.5070  145.6830 C   0  0  0  0  0  0  0  0  0  0  0  0
  189.2420  177.3220  146.7880 C   0  0  0  0  0  3  0  0  0  0  0  0
  188.8670  177.3250  144.4000 C   0  0  0  0  0  0  0  0  0  0  0  0
  185.4620  178.2470  143.7270 C   0  0  0  0  0  0  0  0  0  0  0  0
  183.9050  178.6340  142.3530 C   0  0  0  0  0  0  0  0  0  0  0  0
  184.4160  178.6250  144.4900 N   0  0  0  0  0  0  0  0  0  0  0  0
  183.4170  178.8680  143.6200 C   0  0  0  0  0  2  0  0  0  0  0  0
  185.1880  178.2330  142.4070 N   0  0  0  0  0  0  0  0  0  0  0  0
  182.7290  177.3850  140.5830 C   0  0  0  0  0  2  0  0  0  0  0  0
  183.1040  178.7430  141.0950 C   0  0  2  0  0  3  0  0  0  0  0  0
  183.9200  179.3390  139.9740 C   0  0  0  0  0  2  0  0  0  0  0  0
  183.2220  177.3830  139.1440 C   0  0  2  0  0  3  0  0  0  0  0  0
  183.5480  178.7040  138.7810 O   0  0  0  0  0  0  0  0  0  0  0  0
  181.1210  176.2560  138.9470 O   0  0  0  0  0  1  0  0  0  0  0  0
  182.1700  176.7840  138.1870 C   0  0  0  0  0  0  0  0  0  0  0  0
  181.6630  177.7870  137.3530 O   0  0  0  0  0  1  0  0  0  0  0  0
  182.7820  175.6520  137.3400 C   0  0  2  0  0  3  0  0  0  0  0  0
  181.7520  174.7500  136.8420 N   0  0  0  0  0  1  0  0  0  0  0  0
  183.8130  174.8530  138.1380 C   0  0  0  0  0  2  0  0  0  0  0  0
  184.7130  172.7200  137.5560 O   0  0  0  0  0  1  0  0  0  0  0  0
  184.5740  173.9320  137.2430 C   0  0  0  0  0  0  0  0  0  0  0  0
  185.1020  174.4030  136.0480 O   0  0  0  0  0  0  0  0  0  0  0  0
  192.4170  175.6600  147.7410 C   0  0  0  0  0  1  0  0  0  0  0  0
  191.4410  176.7350  147.6780 N   0  0  0  0  0  2  0  0  0  0  0  0
  187.9210  177.5400  142.1230 N   0  0  0  0  0  2  0  0  0  0  0  0
  188.6140  178.5400  141.3240 C   0  0  0  0  0  2  0  0  0  0  0  0
  189.0260  177.9560  140.0590 N   0  0  0  0  0  2  0  0  0  0  0  0
  188.2430  178.0630  138.8690 C   0  0  0  0  0  0  0  0  0  0  0  0
  187.1120  178.6240  138.8970 O   0  0  0  0  0  0  0  0  0  0  0  0
  188.7790  177.4980  137.5920 C   0  0  1  0  0  3  0  0  0  0  0  0
  190.1580  177.0690  137.7630 N   0  0  0  0  0  0  0  0  0  0  0  0
  188.0830  176.2190  137.2460 C   0  0  0  0  0  3  0  0  0  0  0  0
  188.9230  175.2390  137.2180 N   0  0  0  0  0  0  0  0  0  0  0  0
  190.1860  175.7990  137.5410 C   0  0  0  0  0  0  0  0  0  0  0  0
  191.4420  174.9940  137.6400 C   0  0  0  0  0  2  0  0  0  0  0  0
  192.6920  175.7670  137.2260 C   0  0  0  0  0  3  0  0  0  0  0  0
  192.9140  175.7290  135.7250 C   0  0  0  0  0  1  0  0  0  0  0  0
  193.9280  175.2840  137.9630 C   0  0  0  0  0  1  0  0  0  0  0  0
  1  3  1  0  0  0  0
  2  7  1  0  0  0  0
  3  8  2  0  0  0  0
  3 30  1  0  0  0  0
  4  5  1  0  0  0  0
  4  9  1  0  0  0  0
  5  2  2  0  0  0  0
  6  9  1  0  0  0  0
  6  1  2  0  0  0  0
  7  8  1  0  0  0  0
  9  7  2  0  0  0  0
 10  5  1  0  0  0  0
 10 12  2  0  0  0  0
 11 14  2  0  0  0  0
 11 13  1  0  0  0  0
 13 12  1  0  0  0  0
 14 10  1  0  0  0  0
 15 16  1  0  0  0  0
 16 11  1  1  0  0  0
 17 16  1  0  0  0  0
 18 21  1  6  0  0  0
 18 15  1  0  0  0  0
 19 18  1  0  0  0  0
 19 17  1  0  0  0  0
 21 20  1  0  0  0  0
 22 21  1  0  0  0  0
 23 24  1  1  0  0  0
 23 25  1  0  0  0  0
 23 21  1  0  0  0  0
 27 26  1  0  0  0  0
 27 25  1  0  0  0  0
 28 27  2  0  0  0  0
 30 29  1  0  0  0  0
 31  4  1  0  0  0  0
 32 31  1  0  0  0  0
 33 32  1  0  0  0  0
 34 35  2  0  0  0  0
 34 33  1  0  0  0  0
 36 37  1  0  0  0  0
 36 34  1  1  0  0  0
 38 36  1  0  0  0  0
 39 38  2  0  0  0  0
 39 40  1  0  0  0  0
 40 41  1  0  0  0  0
 40 37  2  0  0  0  0
 42 41  1  0  0  0  0
 42 44  1  0  0  0  0
 43 42  1  0  0  0  0
M  END
>  <MODEL>
5

>  <REMARK>
 VINA RESULT:      -7.8      2.371      3.290
  Name = 
  13 active torsions:
  status: ('A' for Active; 'I' for Inactive)
    1  A    between atoms: C_6  and  C_33
    2  A    between atoms: C_7  and  C_41
    3  A    between atoms: C_8  and  C_18
    4  A    between atoms: C_8  and  C_25
    5  A    between atoms: C_9  and  C_12
    6  A    between atoms: C_13  and  N_24
    7  A    between atoms: C_14  and  C_17
    8  A    between atoms: N_15  and  C_38
    9  A    between atoms: N_16  and  N_23
   10  A    between atoms: C_18  and  C_27
   11  A    between atoms: C_19  and  C_25
   12  A    between atoms: N_23  and  C_38
   13  A    between atoms: C_41  and  C_44
                            x       y       z     vdW  Elec       q    Type
                         _______ _______ _______ _____ _____    ______ ____

>  <TORSDO>
F 13

$$$$
=
 OpenBabel11042410383D

 44 48  0  0  1  0  0  0  0  0999 V2000
  191.6000  177.0700  145.5870 C   0  0  0  0  0  3  0  0  0  0  0  0
  187.5090  177.6570  145.7200 C   0  0  0  0  0  3  0  0  0  0  0  0
  190.9910  176.9510  146.8610 C   0  0  0  0  0  0  0  0  0  0  0  0
  188.5290  177.8540  143.6970 N   0  0  0  0  0  0  0  0  0  0  0  0
  187.3440  177.9090  144.3550 C   0  0  0  0  0  0  0  0  0  0  0  0
  190.8340  177.3780  144.4500 C   0  0  0  0  0  3  0  0  0  0  0  0
  188.8680  177.4380  145.8530 C   0  0  0  0  0  0  0  0  0  0  0  0
  189.6030  177.1370  146.9970 C   0  0  0  0  0  3  0  0  0  0  0  0
  189.4610  177.5610  144.6220 C   0  0  0  0  0  0  0  0  0  0  0  0
  186.0430  178.2010  143.7250 C   0  0  0  0  0  0  0  0  0  0  0  0
  184.5810  178.6330  142.2630 C   0  0  0  0  0  0  0  0  0  0  0  0
  184.8970  178.3570  144.4200 N   0  0  0  0  0  0  0  0  0  0  0  0
  183.9590  178.6280  143.4920 C   0  0  0  0  0  2  0  0  0  0  0  0
  185.8910  178.3570  142.3950 N   0  0  0  0  0  0  0  0  0  0  0  0
  182.8150  177.8250  140.7460 C   0  0  0  0  0  2  0  0  0  0  0  0
  183.8880  178.8490  140.9550 C   0  0  2  0  0  3  0  0  0  0  0  0
  184.8270  178.6300  139.7940 C   0  0  0  0  0  2  0  0  0  0  0  0
  183.1420  177.2170  139.3900 C   0  0  2  0  0  3  0  0  0  0  0  0
  184.1020  178.0280  138.7560 O   0  0  0  0  0  0  0  0  0  0  0  0
  182.2680  176.8930  137.1870 O   0  0  0  0  0  1  0  0  0  0  0  0
  181.8770  177.0630  138.5190 C   0  0  0  0  0  0  0  0  0  0  0  0
  181.1580  175.9330  138.9260 O   0  0  0  0  0  1  0  0  0  0  0  0
  180.9890  178.3170  138.6160 C   0  0  2  0  0  3  0  0  0  0  0  0
  179.5870  177.9590  138.7800 N   0  0  0  0  0  1  0  0  0  0  0  0
  181.1440  179.2060  137.3810 C   0  0  0  0  0  2  0  0  0  0  0  0
  182.2140  180.8740  138.7120 O   0  0  0  0  0  1  0  0  0  0  0  0
  181.4070  180.6210  137.7800 C   0  0  0  0  0  0  0  0  0  0  0  0
  180.7850  181.6610  137.1020 O   0  0  0  0  0  0  0  0  0  0  0  0
  192.8050  175.6270  148.0300 C   0  0  0  0  0  1  0  0  0  0  0  0
  191.7660  176.6430  148.0220 N   0  0  0  0  0  2  0  0  0  0  0  0
  188.7160  178.1060  142.3240 N   0  0  0  0  0  2  0  0  0  0  0  0
  189.1400  177.0890  141.3730 C   0  0  0  0  0  2  0  0  0  0  0  0
  189.1770  177.6570  140.0350 N   0  0  0  0  0  2  0  0  0  0  0  0
  189.8860  177.0440  138.9570 C   0  0  0  0  0  0  0  0  0  0  0  0
  190.5730  176.0030  139.1540 O   0  0  0  0  0  0  0  0  0  0  0  0
  189.8060  177.6550  137.5940 C   0  0  1  0  0  3  0  0  0  0  0  0
  189.2650  176.7010  136.6380 N   0  0  0  0  0  0  0  0  0  0  0  0
  188.7900  178.7530  137.5640 C   0  0  0  0  0  3  0  0  0  0  0  0
  187.8430  178.4730  136.7320 N   0  0  0  0  0  0  0  0  0  0  0  0
  188.1690  177.2050  136.1830 C   0  0  0  0  0  0  0  0  0  0  0  0
  187.3140  176.4980  135.1810 C   0  0  0  0  0  2  0  0  0  0  0  0
  185.8810  176.2720  135.6600 C   0  0  0  0  0  3  0  0  0  0  0  0
  185.4830  174.8090  135.5960 C   0  0  0  0  0  1  0  0  0  0  0  0
  184.8870  177.1320  134.8990 C   0  0  0  0  0  1  0  0  0  0  0  0
  1  3  1  0  0  0  0
  2  7  1  0  0  0  0
  3  8  2  0  0  0  0
  3 30  1  0  0  0  0
  4  5  1  0  0  0  0
  4  9  1  0  0  0  0
  5  2  2  0  0  0  0
  6  9  1  0  0  0  0
  6  1  2  0  0  0  0
  7  8  1  0  0  0  0
  9  7  2  0  0  0  0
 10  5  1  0  0  0  0
 10 12  2  0  0  0  0
 11 14  2  0  0  0  0
 11 13  1  0  0  0  0
 13 12  1  0  0  0  0
 14 10  1  0  0  0  0
 15 16  1  0  0  0  0
 16 11  1  1  0  0  0
 17 16  1  0  0  0  0
 18 21  1  6  0  0  0
 18 15  1  0  0  0  0
 19 18  1  0  0  0  0
 19 17  1  0  0  0  0
 20 21  1  0  0  0  0
 21 23  1  0  0  0  0
 21 22  1  0  0  0  0
 23 24  1  6  0  0  0
 25 27  1  0  0  0  0
 25 23  1  0  0  0  0
 27 26  1  0  0  0  0
 28 27  2  0  0  0  0
 30 29  1  0  0  0  0
 31  4  1  0  0  0  0
 32 31  1  0  0  0  0
 33 32  1  0  0  0  0
 34 35  2  0  0  0  0
 34 33  1  0  0  0  0
 36 34  1  1  0  0  0
 37 36  1  0  0  0  0
 38 36  1  0  0  0  0
 39 38  2  0  0  0  0
 40 37  2  0  0  0  0
 40 39  1  0  0  0  0
 41 42  1  0  0  0  0
 41 40  1  0  0  0  0
 43 42  1  0  0  0  0
 44 42  1  0  0  0  0
M  END
>  <MODEL>
6

>  <REMARK>
 VINA RESULT:      -7.8      1.628      2.667
  Name = 
  13 active torsions:
  status: ('A' for Active; 'I' for Inactive)
    1  A    between atoms: C_6  and  C_33
    2  A    between atoms: C_7  and  C_41
    3  A    between atoms: C_8  and  C_18
    4  A    between atoms: C_8  and  C_25
    5  A    between atoms: C_9  and  C_12
    6  A    between atoms: C_13  and  N_24
    7  A    between atoms: C_14  and  C_17
    8  A    between atoms: N_15  and  C_38
    9  A    between atoms: N_16  and  N_23
   10  A    between atoms: C_18  and  C_27
   11  A    between atoms: C_19  and  C_25
   12  A    between atoms: N_23  and  C_38
   13  A    between atoms: C_41  and  C_44
                            x       y       z     vdW  Elec       q    Type
                         _______ _______ _______ _____ _____    ______ ____

>  <TORSDO>
F 13

$$$$
=
 OpenBabel11042410383D

 44 48  0  0  1  0  0  0  0  0999 V2000
  191.1950  176.7880  145.0210 C   0  0  0  0  0  3  0  0  0  0  0  0
  187.2340  177.8600  145.5260 C   0  0  0  0  0  3  0  0  0  0  0  0
  190.7630  176.9760  146.3570 C   0  0  0  0  0  0  0  0  0  0  0  0
  187.9740  177.5630  143.3970 N   0  0  0  0  0  0  0  0  0  0  0  0
  186.9030  177.8750  144.1680 C   0  0  0  0  0  0  0  0  0  0  0  0
  190.3090  176.9690  143.9460 C   0  0  0  0  0  3  0  0  0  0  0  0
  188.5730  177.5130  145.5350 C   0  0  0  0  0  0  0  0  0  0  0  0
  189.4310  177.3450  146.6200 C   0  0  0  0  0  3  0  0  0  0  0  0
  188.9960  177.3380  144.2420 C   0  0  0  0  0  0  0  0  0  0  0  0
  185.5590  178.1960  143.6540 C   0  0  0  0  0  0  0  0  0  0  0  0
  183.9700  178.5960  142.3200 C   0  0  0  0  0  0  0  0  0  0  0  0
  184.5050  178.4810  144.4480 N   0  0  0  0  0  0  0  0  0  0  0  0
  183.4880  178.7320  143.6030 C   0  0  0  0  0  2  0  0  0  0  0  0
  185.2700  178.2500  142.3380 N   0  0  0  0  0  0  0  0  0  0  0  0
  182.6090  177.4210  140.6340 C   0  0  0  0  0  2  0  0  0  0  0  0
  183.1510  178.7460  141.0780 C   0  0  2  0  0  3  0  0  0  0  0  0
  183.9980  179.1970  139.9130 C   0  0  0  0  0  2  0  0  0  0  0  0
  183.0570  177.3030  139.1850 C   0  0  2  0  0  3  0  0  0  0  0  0
  183.5220  178.5610  138.7580 O   0  0  0  0  0  0  0  0  0  0  0  0
  180.8170  177.6440  138.4190 O   0  0  0  0  0  1  0  0  0  0  0  0
  181.9170  176.7910  138.2810 C   0  0  0  0  0  0  0  0  0  0  0  0
  182.3310  176.8040  136.9440 O   0  0  0  0  0  1  0  0  0  0  0  0
  181.4910  175.3690  138.6890 C   0  0  2  0  0  3  0  0  0  0  0  0
  181.8870  174.3910  137.6840 N   0  0  0  0  0  1  0  0  0  0  0  0
  179.9810  175.2810  138.9130 C   0  0  0  0  0  2  0  0  0  0  0  0
  179.7150  173.7130  140.6920 O   0  0  0  0  0  0  0  0  0  0  0  0
  179.6780  174.9170  140.3280 C   0  0  0  0  0  0  0  0  0  0  0  0
  179.3850  175.9110  141.2540 O   0  0  0  0  0  1  0  0  0  0  0  0
  192.4370  175.5860  147.6500 C   0  0  0  0  0  1  0  0  0  0  0  0
  191.6620  176.8000  147.4540 N   0  0  0  0  0  2  0  0  0  0  0  0
  187.9890  177.5350  141.9890 N   0  0  0  0  0  2  0  0  0  0  0  0
  188.5120  178.6180  141.1700 C   0  0  0  0  0  2  0  0  0  0  0  0
  189.0600  178.0790  139.9370 N   0  0  0  0  0  2  0  0  0  0  0  0
  188.3480  178.1120  138.6990 C   0  0  0  0  0  0  0  0  0  0  0  0
  187.1690  178.5600  138.6510 O   0  0  0  0  0  0  0  0  0  0  0  0
  189.0180  177.6040  137.4610 C   0  0  1  0  0  3  0  0  0  0  0  0
  190.3930  177.2240  137.7440 N   0  0  0  0  0  0  0  0  0  0  0  0
  188.4090  176.3090  137.0240 C   0  0  0  0  0  3  0  0  0  0  0  0
  189.2870  175.3630  137.0480 N   0  0  0  0  0  0  0  0  0  0  0  0
  190.4930  175.9620  137.4960 C   0  0  0  0  0  0  0  0  0  0  0  0
  191.7670  175.2040  137.6870 C   0  0  0  0  0  2  0  0  0  0  0  0
  192.2900  174.5640  136.4020 C   0  0  0  0  0  3  0  0  0  0  0  0
  191.8120  173.1330  136.2430 C   0  0  0  0  0  1  0  0  0  0  0  0
  193.8040  174.6380  136.3090 C   0  0  0  0  0  1  0  0  0  0  0  0
  1  3  1  0  0  0  0
  2  7  1  0  0  0  0
  3  8  2  0  0  0  0
  3 30  1  0  0  0  0
  4  5  1  0  0  0  0
  4  9  1  0  0  0  0
  5  2  2  0  0  0  0
  6  9  1  0  0  0  0
  6  1  2  0  0  0  0
  7  8  1  0  0  0  0
  9  7  2  0  0  0  0
 10  5  1  0  0  0  0
 10 12  2  0  0  0  0
 11 14  2  0  0  0  0
 11 13  1  0  0  0  0
 13 12  1  0  0  0  0
 14 10  1  0  0  0  0
 15 16  1  0  0  0  0
 16 11  1  1  0  0  0
 17 16  1  0  0  0  0
 18 21  1  6  0  0  0
 18 15  1  0  0  0  0
 19 18  1  0  0  0  0
 19 17  1  0  0  0  0
 21 20  1  0  0  0  0
 21 23  1  0  0  0  0
 22 21  1  0  0  0  0
 23 24  1  6  0  0  0
 23 25  1  0  0  0  0
 25 27  1  0  0  0  0
 27 26  2  0  0  0  0
 27 28  1  0  0  0  0
 30 29  1  0  0  0  0
 31  4  1  0  0  0  0
 32 31  1  0  0  0  0
 33 32  1  0  0  0  0
 34 33  1  0  0  0  0
 35 34  2  0  0  0  0
 36 37  1  0  0  0  0
 36 34  1  1  0  0  0
 38 39  2  0  0  0  0
 38 36  1  0  0  0  0
 39 40  1  0  0  0  0
 40 41  1  0  0  0  0
 40 37  2  0  0  0  0
 42 41  1  0  0  0  0
 43 42  1  0  0  0  0
 44 42  1  0  0  0  0
M  END
>  <MODEL>
7

>  <REMARK>
 VINA RESULT:      -7.7      2.429      3.084
  Name = 
  13 active torsions:
  status: ('A' for Active; 'I' for Inactive)
    1  A    between atoms: C_6  and  C_33
    2  A    between atoms: C_7  and  C_41
    3  A    between atoms: C_8  and  C_18
    4  A    between atoms: C_8  and  C_25
    5  A    between atoms: C_9  and  C_12
    6  A    between atoms: C_13  and  N_24
    7  A    between atoms: C_14  and  C_17
    8  A    between atoms: N_15  and  C_38
    9  A    between atoms: N_16  and  N_23
   10  A    between atoms: C_18  and  C_27
   11  A    between atoms: C_19  and  C_25
   12  A    between atoms: N_23  and  C_38
   13  A    between atoms: C_41  and  C_44
                            x       y       z     vdW  Elec       q    Type
                         _______ _______ _______ _____ _____    ______ ____

>  <TORSDO>
F 13

$$$$
=
 OpenBabel11042410383D

 44 48  0  0  1  0  0  0  0  0999 V2000
  187.1670  177.6920  146.2810 C   0  0  0  0  0  3  0  0  0  0  0  0
  189.9050  177.2000  143.2220 C   0  0  0  0  0  3  0  0  0  0  0  0
  188.5070  177.4520  146.6730 C   0  0  0  0  0  0  0  0  0  0  0  0
  187.7400  177.5720  142.6380 N   0  0  0  0  0  0  0  0  0  0  0  0
  188.9960  177.3600  142.1730 C   0  0  0  0  0  0  0  0  0  0  0  0
  186.8140  177.7470  144.9230 C   0  0  0  0  0  3  0  0  0  0  0  0
  189.1260  177.3350  144.3570 C   0  0  0  0  0  0  0  0  0  0  0  0
  189.5040  177.2700  145.6960 C   0  0  0  0  0  3  0  0  0  0  0  0
  187.8270  177.5590  143.9800 C   0  0  0  0  0  0  0  0  0  0  0  0
  189.3680  177.2970  140.7470 C   0  0  0  0  0  0  0  0  0  0  0  0
  190.2260  176.6440  138.9310 C   0  0  0  0  0  0  0  0  0  0  0  0
  189.0230  178.2390  139.8450 N   0  0  0  0  0  0  0  0  0  0  0  0
  189.5640  177.8260  138.6830 C   0  0  0  0  0  2  0  0  0  0  0  0
  190.1030  176.2950  140.2240 N   0  0  0  0  0  0  0  0  0  0  0  0
  192.4160  175.9770  138.0160 C   0  0  0  0  0  2  0  0  0  0  0  0
  190.9300  175.8250  137.8960 C   0  0  2  0  0  3  0  0  0  0  0  0
  190.6270  176.3220  136.5040 C   0  0  0  0  0  2  0  0  0  0  0  0
  192.8590  176.3920  136.6210 C   0  0  2  0  0  3  0  0  0  0  0  0
  191.7890  176.1840  135.7310 O   0  0  0  0  0  0  0  0  0  0  0  0
  193.7900  174.8340  135.0630 O   0  0  0  0  0  1  0  0  0  0  0  0
  194.1170  175.6180  136.1740 C   0  0  0  0  0  0  0  0  0  0  0  0
  195.1230  176.5200  135.8090 O   0  0  0  0  0  1  0  0  0  0  0  0
  194.6200  174.6930  137.2980 C   0  0  2  0  0  3  0  0  0  0  0  0
  195.9300  175.1100  137.7780 N   0  0  0  0  0  1  0  0  0  0  0  0
  194.6900  173.2380  136.8340 C   0  0  0  0  0  2  0  0  0  0  0  0
  195.0950  172.5660  139.0880 O   0  0  0  0  0  1  0  0  0  0  0  0
  195.3470  172.3850  137.8680 C   0  0  0  0  0  0  0  0  0  0  0  0
  196.2140  171.3700  137.4830 O   0  0  0  0  0  0  0  0  0  0  0  0
  188.2560  178.2250  149.0700 C   0  0  0  0  0  1  0  0  0  0  0  0
  188.8720  177.3880  148.0540 N   0  0  0  0  0  2  0  0  0  0  0  0
  186.5870  177.7250  141.8430 N   0  0  0  0  0  2  0  0  0  0  0  0
  185.8330  178.9660  141.7540 C   0  0  0  0  0  2  0  0  0  0  0  0
  184.4920  178.6900  141.2680 N   0  0  0  0  0  2  0  0  0  0  0  0
  184.0160  179.1650  140.0080 C   0  0  0  0  0  0  0  0  0  0  0  0
  184.7380  179.9130  139.2920 O   0  0  0  0  0  0  0  0  0  0  0  0
  182.6480  178.7680  139.5500 C   0  0  1  0  0  3  0  0  0  0  0  0
  181.9980  177.9320  140.5490 N   0  0  0  0  0  0  0  0  0  0  0  0
  181.7430  179.9590  139.4900 C   0  0  0  0  0  3  0  0  0  0  0  0
  180.7520  179.8190  140.3040 N   0  0  0  0  0  0  0  0  0  0  0  0
  180.9420  178.5630  140.9380 C   0  0  0  0  0  0  0  0  0  0  0  0
  180.0200  178.0190  141.9800 C   0  0  0  0  0  2  0  0  0  0  0  0
  180.3650  178.4800  143.3950 C   0  0  0  0  0  3  0  0  0  0  0  0
  179.2790  179.3570  143.9900 C   0  0  0  0  0  1  0  0  0  0  0  0
  181.7110  179.1800  143.4510 C   0  0  0  0  0  1  0  0  0  0  0  0
  1  3  1  0  0  0  0
  2  7  1  0  0  0  0
  3 30  1  0  0  0  0
  4  9  1  0  0  0  0
  5  4  1  0  0  0  0
  5  2  2  0  0  0  0
  6  1  2  0  0  0  0
  7  8  1  0  0  0  0
  8  3  2  0  0  0  0
  9  7  2  0  0  0  0
  9  6  1  0  0  0  0
 10  5  1  0  0  0  0
 11 14  2  0  0  0  0
 12 10  2  0  0  0  0
 13 11  1  0  0  0  0
 13 12  1  0  0  0  0
 14 10  1  0  0  0  0
 16 15  1  0  0  0  0
 16 11  1  1  0  0  0
 17 16  1  0  0  0  0
 18 21  1  6  0  0  0
 18 15  1  0  0  0  0
 19 17  1  0  0  0  0
 19 18  1  0  0  0  0
 20 21  1  0  0  0  0
 21 23  1  0  0  0  0
 22 21  1  0  0  0  0
 23 24  1  6  0  0  0
 25 23  1  0  0  0  0
 25 27  1  0  0  0  0
 27 26  1  0  0  0  0
 28 27  2  0  0  0  0
 30 29  1  0  0  0  0
 31  4  1  0  0  0  0
 32 31  1  0  0  0  0
 33 32  1  0  0  0  0
 34 33  1  0  0  0  0
 35 34  2  0  0  0  0
 36 34  1  1  0  0  0
 36 37  1  0  0  0  0
 37 40  2  0  0  0  0
 38 36  1  0  0  0  0
 38 39  2  0  0  0  0
 39 40  1  0  0  0  0
 40 41  1  0  0  0  0
 41 42  1  0  0  0  0
 42 44  1  0  0  0  0
 42 43  1  0  0  0  0
M  END
>  <MODEL>
8

>  <REMARK>
 VINA RESULT:      -7.6      4.251      8.780
  Name = 
  13 active torsions:
  status: ('A' for Active; 'I' for Inactive)
    1  A    between atoms: C_6  and  C_33
    2  A    between atoms: C_7  and  C_41
    3  A    between atoms: C_8  and  C_18
    4  A    between atoms: C_8  and  C_25
    5  A    between atoms: C_9  and  C_12
    6  A    between atoms: C_13  and  N_24
    7  A    between atoms: C_14  and  C_17
    8  A    between atoms: N_15  and  C_38
    9  A    between atoms: N_16  and  N_23
   10  A    between atoms: C_18  and  C_27
   11  A    between atoms: C_19  and  C_25
   12  A    between atoms: N_23  and  C_38
   13  A    between atoms: C_41  and  C_44
                            x       y       z     vdW  Elec       q    Type
                         _______ _______ _______ _____ _____    ______ ____

>  <TORSDO>
F 13

$$$$
=
 OpenBabel11042410383D

 44 48  0  0  1  0  0  0  0  0999 V2000
  186.7160  178.1020  143.4490 C   0  0  0  0  0  3  0  0  0  0  0  0
  187.5060  178.1830  139.3910 C   0  0  0  0  0  3  0  0  0  0  0  0
  185.7670  178.7730  142.6400 C   0  0  0  0  0  0  0  0  0  0  0  0
  189.0120  177.1290  140.7290 N   0  0  0  0  0  0  0  0  0  0  0  0
  188.7050  177.4680  139.4530 C   0  0  0  0  0  0  0  0  0  0  0  0
  187.8570  177.5120  142.8810 C   0  0  0  0  0  3  0  0  0  0  0  0
  187.0960  178.2530  140.7110 C   0  0  0  0  0  0  0  0  0  0  0  0
  185.9580  178.8510  141.2480 C   0  0  0  0  0  3  0  0  0  0  0  0
  188.0180  177.6110  141.4970 C   0  0  0  0  0  0  0  0  0  0  0  0
  189.5250  177.1370  138.2730 C   0  0  0  0  0  0  0  0  0  0  0  0
  191.1360  176.4710  137.0790 C   0  0  0  0  0  0  0  0  0  0  0  0
  189.1410  177.3900  137.0040 N   0  0  0  0  0  0  0  0  0  0  0  0
  190.1630  176.9630  136.2370 C   0  0  0  0  0  2  0  0  0  0  0  0
  190.7430  176.5670  138.3620 N   0  0  0  0  0  0  0  0  0  0  0  0
  192.5640  174.4640  137.1700 C   0  0  0  0  0  2  0  0  0  0  0  0
  192.4230  175.8550  136.6310 C   0  0  2  0  0  3  0  0  0  0  0  0
  193.6110  176.5870  137.2050 C   0  0  0  0  0  2  0  0  0  0  0  0
  193.9130  174.4740  137.8730 C   0  0  2  0  0  3  0  0  0  0  0  0
  194.6040  175.6410  137.4970 O   0  0  0  0  0  0  0  0  0  0  0  0
  195.1700  172.6330  138.7410 O   0  0  0  0  0  1  0  0  0  0  0  0
  194.7310  173.2080  137.5430 C   0  0  0  0  0  0  0  0  0  0  0  0
  193.9240  172.2850  136.8690 O   0  0  0  0  0  1  0  0  0  0  0  0
  195.9620  173.5590  136.6860 C   0  0  2  0  0  3  0  0  0  0  0  0
  196.0940  172.6490  135.5560 N   0  0  0  0  0  1  0  0  0  0  0  0
  197.2470  173.5280  137.5150 C   0  0  0  0  0  2  0  0  0  0  0  0
  198.0590  175.5180  136.4780 O   0  0  0  0  0  0  0  0  0  0  0  0
  197.8870  174.8760  137.5470 C   0  0  0  0  0  0  0  0  0  0  0  0
  198.2650  175.4370  138.7600 O   0  0  0  0  0  1  0  0  0  0  0  0
  184.3560  179.4030  144.6450 C   0  0  0  0  0  1  0  0  0  0  0  0
  184.6070  179.3810  143.2140 N   0  0  0  0  0  2  0  0  0  0  0  0
  190.1740  176.4470  141.1390 N   0  0  0  0  0  2  0  0  0  0  0  0
  191.4010  177.1210  141.5400 C   0  0  0  0  0  2  0  0  0  0  0  0
  191.5180  177.1010  142.9880 N   0  0  0  0  0  2  0  0  0  0  0  0
  191.2280  178.2400  143.8000 C   0  0  0  0  0  0  0  0  0  0  0  0
  190.9190  179.3420  143.2680 O   0  0  0  0  0  0  0  0  0  0  0  0
  191.3000  178.1090  145.2890 C   0  0  1  0  0  3  0  0  0  0  0  0
  189.9780  178.2500  145.8790 N   0  0  0  0  0  0  0  0  0  0  0  0
  191.6810  176.7150  145.6800 C   0  0  0  0  0  3  0  0  0  0  0  0
  190.7420  176.1660  146.3750 N   0  0  0  0  0  0  0  0  0  0  0  0
  189.7130  177.1380  146.4760 C   0  0  0  0  0  0  0  0  0  0  0  0
  188.4220  176.8980  147.1910 C   0  0  0  0  0  2  0  0  0  0  0  0
  187.7920  178.1730  147.7500 C   0  0  0  0  0  3  0  0  0  0  0  0
  187.9090  178.2500  149.2610 C   0  0  0  0  0  1  0  0  0  0  0  0
  186.3470  178.3280  147.3140 C   0  0  0  0  0  1  0  0  0  0  0  0
  2  5  2  0  0  0  0
  2  7  1  0  0  0  0
  3 30  1  0  0  0  0
  3  1  2  0  0  0  0
  4 31  1  0  0  0  0
  4  9  1  0  0  0  0
  5  4  1  0  0  0  0
  6  1  1  0  0  0  0
  7  8  2  0  0  0  0
  7  9  1  0  0  0  0
  8  3  1  0  0  0  0
  9  6  2  0  0  0  0
 10 14  1  0  0  0  0
 10  5  1  0  0  0  0
 11 14  2  0  0  0  0
 12 10  2  0  0  0  0
 13 12  1  0  0  0  0
 13 11  1  0  0  0  0
 15 18  1  0  0  0  0
 16 11  1  1  0  0  0
 16 15  1  0  0  0  0
 16 17  1  0  0  0  0
 17 19  1  0  0  0  0
 18 21  1  6  0  0  0
 19 18  1  0  0  0  0
 21 20  1  0  0  0  0
 22 21  1  0  0  0  0
 23 24  1  6  0  0  0
 23 25  1  0  0  0  0
 23 21  1  0  0  0  0
 25 27  1  0  0  0  0
 26 27  2  0  0  0  0
 27 28  1  0  0  0  0
 30 29  1  0  0  0  0
 31 32  1  0  0  0  0
 32 33  1  0  0  0  0
 33 34  1  0  0  0  0
 35 34  2  0  0  0  0
 36 34  1  6  0  0  0
 36 38  1  0  0  0  0
 36 37  1  0  0  0  0
 37 40  2  0  0  0  0
 38 39  2  0  0  0  0
 39 40  1  0  0  0  0
 40 41  1  0  0  0  0
 41 42  1  0  0  0  0
 42 43  1  0  0  0  0
 44 42  1  0  0  0  0
M  END
>  <MODEL>
9

>  <REMARK>
 VINA RESULT:      -7.5      4.955     10.695
  Name = 
  13 active torsions:
  status: ('A' for Active; 'I' for Inactive)
    1  A    between atoms: C_6  and  C_33
    2  A    between atoms: C_7  and  C_41
    3  A    between atoms: C_8  and  C_18
    4  A    between atoms: C_8  and  C_25
    5  A    between atoms: C_9  and  C_12
    6  A    between atoms: C_13  and  N_24
    7  A    between atoms: C_14  and  C_17
    8  A    between atoms: N_15  and  C_38
    9  A    between atoms: N_16  and  N_23
   10  A    between atoms: C_18  and  C_27
   11  A    between atoms: C_19  and  C_25
   12  A    between atoms: N_23  and  C_38
   13  A    between atoms: C_41  and  C_44
                            x       y       z     vdW  Elec       q    Type
                         _______ _______ _______ _____ _____    ______ ____

>  <TORSDO>
F 13

$$$$
