=
 OpenBabel11032421253D

 34 36  0  0  1  0  0  0  0  0999 V2000
  189.2300  177.8880  141.5930 N   0  0  0  0  0  0  0  0  0  0  0  0
  189.7960  176.9740  142.5820 C   0  0  0  0  0  2  0  0  0  0  0  0
  190.8740  179.0120  143.2740 O   0  0  0  0  0  1  0  0  0  0  0  0
  190.9490  177.6190  143.3520 C   0  0  1  0  0  3  0  0  0  0  0  0
  190.9930  177.1690  144.7790 C   0  0  0  0  0  0  0  0  0  0  0  0
  191.9870  175.8230  146.5140 C   0  0  0  0  0  3  0  0  0  0  0  0
  191.9840  176.2750  145.1940 C   0  0  0  0  0  3  0  0  0  0  0  0
  191.0030  176.2620  147.4010 C   0  0  0  0  0  3  0  0  0  0  0  0
  190.0200  177.1530  146.9530 C   0  0  0  0  0  0  0  0  0  0  0  0
  190.0380  177.5780  145.6600 N   0  0  0  0  0  0  0  0  0  0  0  0
  188.9750  177.6320  147.8700 C   0  0  0  0  0  0  0  0  0  0  0  0
  189.2460  178.5020  148.7400 O   0  0  0  0  0  1  0  0  0  0  0  0
  187.6820  177.1270  147.7870 O   0  0  0  0  0  0  0  0  0  0  0  0
  187.8100  178.1010  141.9000 C   0  0  0  0  0  2  0  0  0  0  0  0
  187.2970  177.2410  143.0600 C   0  0  0  0  0  2  0  0  0  0  0  0
  185.0190  178.2550  142.8430 C   0  0  0  0  0  3  0  0  0  0  0  0
  186.0830  177.8630  143.6600 C   0  0  0  0  0  0  0  0  0  0  0  0
  186.0260  178.0810  145.0030 N   0  0  0  0  0  0  0  0  0  0  0  0
  183.9050  178.8680  143.4200 C   0  0  0  0  0  3  0  0  0  0  0  0
  184.9490  178.6750  145.5840 C   0  0  0  0  0  0  0  0  0  0  0  0
  183.8660  179.0790  144.7990 C   0  0  0  0  0  3  0  0  0  0  0  0
  184.9240  178.8860  146.9900 N   0  0  0  0  0  1  0  0  0  0  0  0
  189.3430  177.2930  140.3260 N   0  0  0  0  0  2  0  0  0  0  0  0
  188.4250  177.9970  139.4460 C   0  0  0  0  0  2  0  0  0  0  0  0
  189.0810  179.0770  138.8580 O   0  0  0  0  0  0  0  0  0  0  0  0
  188.8580  178.9250  137.4890 C   0  0  0  0  0  2  0  0  0  0  0  0
  187.4230  177.2710  135.8600 S   0  0  0  0  0  0  0  0  0  0  0  0
  188.7230  177.0930  134.5980 C   0  0  0  0  0  2  0  0  0  0  0  0
  188.6900  177.4530  137.1530 C   0  0  1  0  0  3  0  0  0  0  0  0
  189.9540  176.9290  136.5600 C   0  0  0  0  0  0  0  0  0  0  0  0
  189.9560  176.7600  135.2830 N   0  0  0  0  0  0  0  0  0  0  0  0
  191.4580  175.5110  137.8860 C   0  0  0  0  0  3  0  0  0  0  0  0
  190.6390  174.3480  137.7940 N   0  0  0  0  0  1  0  0  0  0  0  0
  191.1390  176.6380  137.3210 N   0  0  0  0  0  0  0  0  0  0  0  0
  1 14  1  0  0  0  0
  1  2  1  0  0  0  0
  2  4  1  0  0  0  0
  4  3  1  1  0  0  0
  4  5  1  0  0  0  0
  5  7  2  0  0  0  0
  5 10  1  0  0  0  0
  6  8  2  0  0  0  0
  7  6  1  0  0  0  0
  9  8  1  0  0  0  0
  9 11  1  0  0  0  0
 10  9  2  0  0  0  0
 11 12  1  0  0  0  0
 13 11  2  0  0  0  0
 14 15  1  0  0  0  0
 15 17  1  0  0  0  0
 16 19  2  0  0  0  0
 16 17  1  0  0  0  0
 17 18  2  0  0  0  0
 18 20  1  0  0  0  0
 19 21  1  0  0  0  0
 20 22  1  0  0  0  0
 21 20  2  0  0  0  0
 23  1  1  0  0  0  0
 24 23  1  0  0  0  0
 25 24  1  0  0  0  0
 26 25  1  0  0  0  0
 27 29  1  0  0  0  0
 28 31  1  0  0  0  0
 28 27  1  0  0  0  0
 29 26  1  6  0  0  0
 30 29  1  0  0  0  0
 30 34  1  0  0  0  0
 31 30  2  0  0  0  0
 33 32  1  0  0  0  0
 34 32  2  0  0  0  0
M  END
>  <MODEL>
1

>  <REMARK>
 VINA RESULT:      -8.0      0.000      0.000
  Name = 
  13 active torsions:
  status: ('A' for Active; 'I' for Inactive)
    1  A    between atoms: C_3  and  C_8
    2  A    between atoms: C_3  and  N_20
    3  A    between atoms: C_4  and  C_8
    4  A    between atoms: C_9  and  C_17
    5  A    between atoms: C_9  and  O_19
    6  A    between atoms: C_12  and  O_19
    7  A    between atoms: C_12  and  N_34
    8  A    between atoms: C_15  and  CA_26
    9  A    between atoms: C_16  and  N_20
   10  A    between atoms: C_16  and  C_32
   11  A    between atoms: C_18  and  C_32
   12  A    between atoms: N_20  and  N_34
   13  A    between atoms: C_21  and  N_30
                            x       y       z     vdW  Elec       q    Type
                         _______ _______ _______ _____ _____    ______ ____

>  <TORSDO>
F 13

$$$$
=
 OpenBabel11032421253D

 34 36  0  0  1  0  0  0  0  0999 V2000
  188.5110  178.3400  141.5330 N   0  0  0  0  0  0  0  0  0  0  0  0
  189.4580  178.0120  142.5960 C   0  0  0  0  0  2  0  0  0  0  0  0
  189.7580  175.6500  142.9470 O   0  0  0  0  0  1  0  0  0  0  0  0
  189.0300  176.7650  143.3690 C   0  0  1  0  0  3  0  0  0  0  0  0
  189.1550  176.9500  144.8490 C   0  0  0  0  0  0  0  0  0  0  0  0
  188.2320  177.7010  146.9460 C   0  0  0  0  0  3  0  0  0  0  0  0
  188.0870  177.4870  145.5740 C   0  0  0  0  0  3  0  0  0  0  0  0
  189.4360  177.3850  147.5760 C   0  0  0  0  0  3  0  0  0  0  0  0
  190.4890  176.8550  146.8210 C   0  0  0  0  0  0  0  0  0  0  0  0
  190.3250  176.6560  145.4840 N   0  0  0  0  0  0  0  0  0  0  0  0
  191.7670  176.5120  147.4630 C   0  0  0  0  0  0  0  0  0  0  0  0
  192.1940  177.1970  148.4300 O   0  0  0  0  0  1  0  0  0  0  0  0
  192.5160  175.4330  147.0070 O   0  0  0  0  0  0  0  0  0  0  0  0
  187.1580  177.9770  141.9730 C   0  0  0  0  0  2  0  0  0  0  0  0
  186.1110  179.0610  141.6970 C   0  0  0  0  0  2  0  0  0  0  0  0
  183.6750  178.9160  142.2510 C   0  0  0  0  0  3  0  0  0  0  0  0
  185.0020  178.9660  142.6880 C   0  0  0  0  0  0  0  0  0  0  0  0
  185.2820  178.9620  144.0200 N   0  0  0  0  0  0  0  0  0  0  0  0
  182.6480  178.8630  143.1970 C   0  0  0  0  0  3  0  0  0  0  0  0
  184.2960  178.9080  144.9560 C   0  0  0  0  0  0  0  0  0  0  0  0
  182.9570  178.8560  144.5580 C   0  0  0  0  0  3  0  0  0  0  0  0
  184.6250  178.9050  146.3390 N   0  0  0  0  0  1  0  0  0  0  0  0
  188.8450  177.5850  140.3970 N   0  0  0  0  0  2  0  0  0  0  0  0
  188.9220  178.5130  139.2820 C   0  0  0  0  0  2  0  0  0  0  0  0
  189.1010  177.8020  138.0960 O   0  0  0  0  0  0  0  0  0  0  0  0
  190.2410  177.0270  138.3140 C   0  0  0  0  0  2  0  0  0  0  0  0
  188.7060  175.6670  136.5140 S   0  0  0  0  0  0  0  0  0  0  0  0
  189.9510  175.6630  135.1860 C   0  0  0  0  0  2  0  0  0  0  0  0
  190.0260  175.6270  137.7650 C   0  0  1  0  0  3  0  0  0  0  0  0
  191.2540  175.1790  137.0470 C   0  0  0  0  0  0  0  0  0  0  0  0
  191.2020  175.2080  135.7600 N   0  0  0  0  0  0  0  0  0  0  0  0
  193.5650  175.4260  137.8390 C   0  0  0  0  0  3  0  0  0  0  0  0
  193.7190  176.7560  137.3500 N   0  0  0  0  0  1  0  0  0  0  0  0
  192.4600  174.7540  137.7030 N   0  0  0  0  0  0  0  0  0  0  0  0
  1 14  1  0  0  0  0
  1  2  1  0  0  0  0
  2  4  1  0  0  0  0
  4  3  1  6  0  0  0
  4  5  1  0  0  0  0
  5 10  2  0  0  0  0
  5  7  1  0  0  0  0
  6  8  1  0  0  0  0
  7  6  2  0  0  0  0
  9 11  1  0  0  0  0
  9  8  2  0  0  0  0
 10  9  1  0  0  0  0
 11 12  1  0  0  0  0
 13 11  2  0  0  0  0
 15 14  1  0  0  0  0
 15 17  1  0  0  0  0
 16 17  2  0  0  0  0
 16 19  1  0  0  0  0
 17 18  1  0  0  0  0
 18 20  2  0  0  0  0
 19 21  2  0  0  0  0
 20 22  1  0  0  0  0
 21 20  1  0  0  0  0
 23  1  1  0  0  0  0
 24 23  1  0  0  0  0
 25 26  1  0  0  0  0
 25 24  1  0  0  0  0
 27 29  1  0  0  0  0
 28 31  1  0  0  0  0
 28 27  1  0  0  0  0
 29 26  1  6  0  0  0
 30 34  1  0  0  0  0
 30 29  1  0  0  0  0
 31 30  2  0  0  0  0
 33 32  1  0  0  0  0
 34 32  2  0  0  0  0
M  END
>  <MODEL>
2

>  <REMARK>
 VINA RESULT:      -7.9      1.795      2.337
  Name = 
  13 active torsions:
  status: ('A' for Active; 'I' for Inactive)
    1  A    between atoms: C_3  and  C_8
    2  A    between atoms: C_3  and  N_20
    3  A    between atoms: C_4  and  C_8
    4  A    between atoms: C_9  and  C_17
    5  A    between atoms: C_9  and  O_19
    6  A    between atoms: C_12  and  O_19
    7  A    between atoms: C_12  and  N_34
    8  A    between atoms: C_15  and  CA_26
    9  A    between atoms: C_16  and  N_20
   10  A    between atoms: C_16  and  C_32
   11  A    between atoms: C_18  and  C_32
   12  A    between atoms: N_20  and  N_34
   13  A    between atoms: C_21  and  N_30
                            x       y       z     vdW  Elec       q    Type
                         _______ _______ _______ _____ _____    ______ ____

>  <TORSDO>
F 13

$$$$
=
 OpenBabel11032421253D

 34 36  0  0  1  0  0  0  0  0999 V2000
  188.6340  177.9010  141.6610 N   0  0  0  0  0  0  0  0  0  0  0  0
  189.0390  176.8410  142.5830 C   0  0  0  0  0  2  0  0  0  0  0  0
  190.9830  178.2590  142.6310 O   0  0  0  0  0  1  0  0  0  0  0  0
  190.4750  177.0340  143.0700 C   0  0  1  0  0  3  0  0  0  0  0  0
  190.5840  176.9180  144.5590 C   0  0  0  0  0  0  0  0  0  0  0  0
  191.8060  176.2190  146.5150 C   0  0  0  0  0  3  0  0  0  0  0  0
  191.7360  176.3690  145.1300 C   0  0  0  0  0  3  0  0  0  0  0  0
  190.7310  176.6110  147.3130 C   0  0  0  0  0  3  0  0  0  0  0  0
  189.5880  177.1520  146.7100 C   0  0  0  0  0  0  0  0  0  0  0  0
  189.5420  177.2870  145.3560 N   0  0  0  0  0  0  0  0  0  0  0  0
  188.4430  177.5750  147.5300 C   0  0  0  0  0  0  0  0  0  0  0  0
  187.2720  177.4880  147.0740 O   0  0  0  0  0  0  0  0  0  0  0  0
  188.6420  178.0760  148.8120 O   0  0  0  0  0  1  0  0  0  0  0  0
  187.2830  178.3510  142.0180 C   0  0  0  0  0  2  0  0  0  0  0  0
  186.7370  177.7040  143.2950 C   0  0  0  0  0  2  0  0  0  0  0  0
  185.0030  178.5990  144.8620 C   0  0  0  0  0  3  0  0  0  0  0  0
  185.3590  178.1990  143.5710 C   0  0  0  0  0  0  0  0  0  0  0  0
  184.4360  178.2290  142.5700 N   0  0  0  0  0  0  0  0  0  0  0  0
  183.6960  179.0260  145.1070 C   0  0  0  0  0  3  0  0  0  0  0  0
  183.1600  178.6450  142.7880 C   0  0  0  0  0  0  0  0  0  0  0  0
  182.7670  179.0520  144.0660 C   0  0  0  0  0  3  0  0  0  0  0  0
  182.2230  178.6630  141.7190 N   0  0  0  0  0  1  0  0  0  0  0  0
  188.6160  177.3710  140.3610 N   0  0  0  0  0  2  0  0  0  0  0  0
  189.5290  178.1750  139.5670 C   0  0  0  0  0  2  0  0  0  0  0  0
  188.8030  178.9450  138.6600 O   0  0  0  0  0  0  0  0  0  0  0  0
  188.5610  178.0920  137.5820 C   0  0  0  0  0  2  0  0  0  0  0  0
  187.2100  177.6740  135.2490 S   0  0  0  0  0  0  0  0  0  0  0  0
  186.0270  176.4750  135.9400 C   0  0  0  0  0  2  0  0  0  0  0  0
  187.3000  178.5260  136.8540 C   0  0  1  0  0  3  0  0  0  0  0  0
  186.1020  178.0780  137.6200 C   0  0  0  0  0  0  0  0  0  0  0  0
  185.4810  177.0500  137.1540 N   0  0  0  0  0  0  0  0  0  0  0  0
  184.4220  179.0620  139.1160 C   0  0  0  0  0  3  0  0  0  0  0  0
  183.3270  178.8380  138.2320 N   0  0  0  0  0  1  0  0  0  0  0  0
  185.6390  178.7050  138.8280 N   0  0  0  0  0  0  0  0  0  0  0  0
  1 14  1  0  0  0  0
  1  2  1  0  0  0  0
  2  4  1  0  0  0  0
  4  3  1  1  0  0  0
  4  5  1  0  0  0  0
  5  7  2  0  0  0  0
  5 10  1  0  0  0  0
  6  8  2  0  0  0  0
  7  6  1  0  0  0  0
  9  8  1  0  0  0  0
  9 11  1  0  0  0  0
 10  9  2  0  0  0  0
 11 13  1  0  0  0  0
 12 11  2  0  0  0  0
 14 15  1  0  0  0  0
 15 17  1  0  0  0  0
 16 19  1  0  0  0  0
 17 16  2  0  0  0  0
 18 20  2  0  0  0  0
 18 17  1  0  0  0  0
 20 21  1  0  0  0  0
 21 19  2  0  0  0  0
 22 20  1  0  0  0  0
 23  1  1  0  0  0  0
 24 23  1  0  0  0  0
 25 24  1  0  0  0  0
 26 25  1  0  0  0  0
 27 28  1  0  0  0  0
 27 29  1  0  0  0  0
 28 31  1  0  0  0  0
 29 26  1  1  0  0  0
 29 30  1  0  0  0  0
 30 34  1  0  0  0  0
 31 30  2  0  0  0  0
 33 32  1  0  0  0  0
 34 32  2  0  0  0  0
M  END
>  <MODEL>
3

>  <REMARK>
 VINA RESULT:      -7.9      2.217      3.025
  Name = 
  13 active torsions:
  status: ('A' for Active; 'I' for Inactive)
    1  A    between atoms: C_3  and  C_8
    2  A    between atoms: C_3  and  N_20
    3  A    between atoms: C_4  and  C_8
    4  A    between atoms: C_9  and  C_17
    5  A    between atoms: C_9  and  O_19
    6  A    between atoms: C_12  and  O_19
    7  A    between atoms: C_12  and  N_34
    8  A    between atoms: C_15  and  CA_26
    9  A    between atoms: C_16  and  N_20
   10  A    between atoms: C_16  and  C_32
   11  A    between atoms: C_18  and  C_32
   12  A    between atoms: N_20  and  N_34
   13  A    between atoms: C_21  and  N_30
                            x       y       z     vdW  Elec       q    Type
                         _______ _______ _______ _____ _____    ______ ____

>  <TORSDO>
F 13

$$$$
=
 OpenBabel11032421253D

 34 36  0  0  1  0  0  0  0  0999 V2000
  188.4060  178.3820  141.5540 N   0  0  0  0  0  0  0  0  0  0  0  0
  189.4590  178.1190  142.5320 C   0  0  0  0  0  2  0  0  0  0  0  0
  190.1240  175.8250  142.8250 O   0  0  0  0  0  1  0  0  0  0  0  0
  189.2290  176.8000  143.2690 C   0  0  1  0  0  3  0  0  0  0  0  0
  189.3160  176.9630  144.7550 C   0  0  0  0  0  0  0  0  0  0  0  0
  188.3490  177.7020  146.8360 C   0  0  0  0  0  3  0  0  0  0  0  0
  188.2380  177.5080  145.4580 C   0  0  0  0  0  3  0  0  0  0  0  0
  189.5310  177.3570  147.4940 C   0  0  0  0  0  3  0  0  0  0  0  0
  190.5950  176.8190  146.7600 C   0  0  0  0  0  0  0  0  0  0  0  0
  190.4630  176.6410  145.4170 N   0  0  0  0  0  0  0  0  0  0  0  0
  191.8480  176.4450  147.4310 C   0  0  0  0  0  0  0  0  0  0  0  0
  192.4910  175.4300  147.0530 O   0  0  0  0  0  0  0  0  0  0  0  0
  192.3340  177.2060  148.4890 O   0  0  0  0  0  1  0  0  0  0  0  0
  187.1030  178.1140  142.1750 C   0  0  0  0  0  2  0  0  0  0  0  0
  185.9510  178.9100  141.5520 C   0  0  0  0  0  2  0  0  0  0  0  0
  184.9910  178.9910  143.8620 C   0  0  0  0  0  3  0  0  0  0  0  0
  184.7860  178.9350  142.4800 C   0  0  0  0  0  0  0  0  0  0  0  0
  183.5200  178.8690  141.9820 N   0  0  0  0  0  0  0  0  0  0  0  0
  183.8870  178.9780  144.7170 C   0  0  0  0  0  3  0  0  0  0  0  0
  182.4320  178.8580  142.7990 C   0  0  0  0  0  0  0  0  0  0  0  0
  182.5980  178.9130  144.1850 C   0  0  0  0  0  3  0  0  0  0  0  0
  181.1250  178.7890  142.2430 N   0  0  0  0  0  1  0  0  0  0  0  0
  188.5870  177.5120  140.4670 N   0  0  0  0  0  2  0  0  0  0  0  0
  189.4780  178.1810  139.5350 C   0  0  0  0  0  2  0  0  0  0  0  0
  188.7420  179.0520  138.7320 O   0  0  0  0  0  0  0  0  0  0  0  0
  189.1510  178.7650  137.4290 C   0  0  0  0  0  2  0  0  0  0  0  0
  187.1310  177.3180  136.3010 S   0  0  0  0  0  0  0  0  0  0  0  0
  187.8960  177.1990  134.6530 C   0  0  0  0  0  2  0  0  0  0  0  0
  188.7770  177.3350  137.0740 C   0  0  1  0  0  3  0  0  0  0  0  0
  189.7180  176.8150  136.0420 C   0  0  0  0  0  0  0  0  0  0  0  0
  189.2650  176.7580  134.8370 N   0  0  0  0  0  0  0  0  0  0  0  0
  191.4650  175.4580  137.1080 C   0  0  0  0  0  3  0  0  0  0  0  0
  190.5540  174.6290  137.8240 N   0  0  0  0  0  1  0  0  0  0  0  0
  191.0700  176.4100  136.3160 N   0  0  0  0  0  0  0  0  0  0  0  0
  1 14  1  0  0  0  0
  1  2  1  0  0  0  0
  2  4  1  0  0  0  0
  4  3  1  6  0  0  0
  4  5  1  0  0  0  0
  5 10  2  0  0  0  0
  5  7  1  0  0  0  0
  6  8  1  0  0  0  0
  7  6  2  0  0  0  0
  9 11  1  0  0  0  0
  9  8  2  0  0  0  0
 10  9  1  0  0  0  0
 11 13  1  0  0  0  0
 12 11  2  0  0  0  0
 15 14  1  0  0  0  0
 15 17  1  0  0  0  0
 16 19  1  0  0  0  0
 17 16  2  0  0  0  0
 18 17  1  0  0  0  0
 18 20  2  0  0  0  0
 20 21  1  0  0  0  0
 21 19  2  0  0  0  0
 22 20  1  0  0  0  0
 23  1  1  0  0  0  0
 24 23  1  0  0  0  0
 25 24  1  0  0  0  0
 26 25  1  0  0  0  0
 27 29  1  0  0  0  0
 28 31  1  0  0  0  0
 28 27  1  0  0  0  0
 29 26  1  6  0  0  0
 30 34  1  0  0  0  0
 30 29  1  0  0  0  0
 31 30  2  0  0  0  0
 32 33  1  0  0  0  0
 34 32  2  0  0  0  0
M  END
>  <MODEL>
4

>  <REMARK>
 VINA RESULT:      -7.8      1.918      2.437
  Name = 
  13 active torsions:
  status: ('A' for Active; 'I' for Inactive)
    1  A    between atoms: C_3  and  C_8
    2  A    between atoms: C_3  and  N_20
    3  A    between atoms: C_4  and  C_8
    4  A    between atoms: C_9  and  C_17
    5  A    between atoms: C_9  and  O_19
    6  A    between atoms: C_12  and  O_19
    7  A    between atoms: C_12  and  N_34
    8  A    between atoms: C_15  and  CA_26
    9  A    between atoms: C_16  and  N_20
   10  A    between atoms: C_16  and  C_32
   11  A    between atoms: C_18  and  C_32
   12  A    between atoms: N_20  and  N_34
   13  A    between atoms: C_21  and  N_30
                            x       y       z     vdW  Elec       q    Type
                         _______ _______ _______ _____ _____    ______ ____

>  <TORSDO>
F 13

$$$$
=
 OpenBabel11032421253D

 34 36  0  0  1  0  0  0  0  0999 V2000
  189.2990  177.9210  141.7990 N   0  0  0  0  0  0  0  0  0  0  0  0
  189.9700  176.9800  142.6930 C   0  0  0  0  0  2  0  0  0  0  0  0
  190.8800  179.0570  143.4990 O   0  0  0  0  0  1  0  0  0  0  0  0
  191.0400  177.6700  143.5380 C   0  0  1  0  0  3  0  0  0  0  0  0
  191.0450  177.1760  144.9510 C   0  0  0  0  0  0  0  0  0  0  0  0
  191.9720  175.7560  146.6640 C   0  0  0  0  0  3  0  0  0  0  0  0
  192.0070  176.2470  145.3590 C   0  0  0  0  0  3  0  0  0  0  0  0
  190.9800  176.1900  147.5450 C   0  0  0  0  0  3  0  0  0  0  0  0
  190.0270  177.1170  147.1040 C   0  0  0  0  0  0  0  0  0  0  0  0
  190.0810  177.5800  145.8250 N   0  0  0  0  0  0  0  0  0  0  0  0
  188.9740  177.5910  148.0140 C   0  0  0  0  0  0  0  0  0  0  0  0
  189.0390  178.7470  148.5110 O   0  0  0  0  0  1  0  0  0  0  0  0
  187.8990  176.7690  148.3360 O   0  0  0  0  0  0  0  0  0  0  0  0
  187.8580  177.8980  142.0800 C   0  0  0  0  0  2  0  0  0  0  0  0
  187.4920  177.1240  143.3500 C   0  0  0  0  0  2  0  0  0  0  0  0
  186.3530  178.0090  145.3960 C   0  0  0  0  0  3  0  0  0  0  0  0
  186.3240  177.7620  144.0200 C   0  0  0  0  0  0  0  0  0  0  0  0
  185.2140  178.0740  143.2960 N   0  0  0  0  0  0  0  0  0  0  0  0
  185.2350  178.5750  146.0110 C   0  0  0  0  0  3  0  0  0  0  0  0
  184.1160  178.6290  143.8770 C   0  0  0  0  0  0  0  0  0  0  0  0
  184.1080  178.8900  145.2500 C   0  0  0  0  0  3  0  0  0  0  0  0
  182.9740  178.9420  143.0890 N   0  0  0  0  0  1  0  0  0  0  0  0
  189.5170  177.5060  140.4760 N   0  0  0  0  0  2  0  0  0  0  0  0
  188.3550  177.9190  139.7070 C   0  0  0  0  0  2  0  0  0  0  0  0
  188.6880  179.0160  138.9140 O   0  0  0  0  0  0  0  0  0  0  0  0
  189.2260  178.4640  137.7510 C   0  0  0  0  0  2  0  0  0  0  0  0
  187.3340  178.0120  135.8370 S   0  0  0  0  0  0  0  0  0  0  0  0
  188.4630  177.2050  134.6580 C   0  0  0  0  0  2  0  0  0  0  0  0
  188.3120  177.3680  137.2290 C   0  0  1  0  0  3  0  0  0  0  0  0
  189.1340  176.2570  136.6700 C   0  0  0  0  0  0  0  0  0  0  0  0
  189.2030  176.1920  135.3850 N   0  0  0  0  0  0  0  0  0  0  0  0
  191.1140  175.3070  137.7680 C   0  0  0  0  0  3  0  0  0  0  0  0
  191.9990  176.3360  137.3330 N   0  0  0  0  0  1  0  0  0  0  0  0
  189.8480  175.3010  137.4720 N   0  0  0  0  0  0  0  0  0  0  0  0
  1 14  1  0  0  0  0
  1  2  1  0  0  0  0
  2  4  1  0  0  0  0
  4  3  1  1  0  0  0
  4  5  1  0  0  0  0
  5  7  2  0  0  0  0
  5 10  1  0  0  0  0
  6  8  2  0  0  0  0
  7  6  1  0  0  0  0
  9  8  1  0  0  0  0
  9 11  1  0  0  0  0
 10  9  2  0  0  0  0
 11 13  2  0  0  0  0
 11 12  1  0  0  0  0
 14 15  1  0  0  0  0
 15 17  1  0  0  0  0
 16 19  1  0  0  0  0
 17 16  2  0  0  0  0
 18 20  2  0  0  0  0
 18 17  1  0  0  0  0
 20 21  1  0  0  0  0
 21 19  2  0  0  0  0
 22 20  1  0  0  0  0
 23  1  1  0  0  0  0
 24 23  1  0  0  0  0
 25 24  1  0  0  0  0
 26 25  1  0  0  0  0
 27 29  1  0  0  0  0
 28 31  1  0  0  0  0
 28 27  1  0  0  0  0
 29 26  1  6  0  0  0
 30 29  1  0  0  0  0
 30 34  1  0  0  0  0
 31 30  2  0  0  0  0
 33 32  1  0  0  0  0
 34 32  2  0  0  0  0
M  END
>  <MODEL>
5

>  <REMARK>
 VINA RESULT:      -7.8      0.916      1.307
  Name = 
  13 active torsions:
  status: ('A' for Active; 'I' for Inactive)
    1  A    between atoms: C_3  and  C_8
    2  A    between atoms: C_3  and  N_20
    3  A    between atoms: C_4  and  C_8
    4  A    between atoms: C_9  and  C_17
    5  A    between atoms: C_9  and  O_19
    6  A    between atoms: C_12  and  O_19
    7  A    between atoms: C_12  and  N_34
    8  A    between atoms: C_15  and  CA_26
    9  A    between atoms: C_16  and  N_20
   10  A    between atoms: C_16  and  C_32
   11  A    between atoms: C_18  and  C_32
   12  A    between atoms: N_20  and  N_34
   13  A    between atoms: C_21  and  N_30
                            x       y       z     vdW  Elec       q    Type
                         _______ _______ _______ _____ _____    ______ ____

>  <TORSDO>
F 13

$$$$
=
 OpenBabel11032421253D

 34 36  0  0  1  0  0  0  0  0999 V2000
  189.4130  177.8840  141.6560 N   0  0  0  0  0  0  0  0  0  0  0  0
  189.9410  176.9620  142.6590 C   0  0  0  0  0  2  0  0  0  0  0  0
  191.0420  178.9860  143.3560 O   0  0  0  0  0  1  0  0  0  0  0  0
  191.0770  177.5940  143.4630 C   0  0  1  0  0  3  0  0  0  0  0  0
  191.0510  177.1710  144.8990 C   0  0  0  0  0  0  0  0  0  0  0  0
  191.9990  175.9120  146.7240 C   0  0  0  0  0  3  0  0  0  0  0  0
  192.0590  176.3400  145.3970 C   0  0  0  0  0  3  0  0  0  0  0  0
  190.9360  176.3120  147.5360 C   0  0  0  0  0  3  0  0  0  0  0  0
  189.9390  177.1400  147.0060 C   0  0  0  0  0  0  0  0  0  0  0  0
  190.0190  177.5430  145.7080 N   0  0  0  0  0  0  0  0  0  0  0  0
  188.8120  177.5760  147.8420 C   0  0  0  0  0  0  0  0  0  0  0  0
  187.8680  176.7810  148.0980 O   0  0  0  0  0  0  0  0  0  0  0  0
  188.7740  178.8680  148.3560 O   0  0  0  0  0  1  0  0  0  0  0  0
  188.0420  178.2550  142.0260 C   0  0  0  0  0  2  0  0  0  0  0  0
  187.3550  177.2360  142.9400 C   0  0  0  0  0  2  0  0  0  0  0  0
  185.0530  178.2190  142.9440 C   0  0  0  0  0  3  0  0  0  0  0  0
  186.2100  177.8740  143.6490 C   0  0  0  0  0  0  0  0  0  0  0  0
  186.3060  178.1530  144.9780 N   0  0  0  0  0  0  0  0  0  0  0  0
  184.0050  178.8490  143.6190 C   0  0  0  0  0  3  0  0  0  0  0  0
  185.2950  178.7630  145.6540 C   0  0  0  0  0  0  0  0  0  0  0  0
  184.1230  179.1230  144.9830 C   0  0  0  0  0  3  0  0  0  0  0  0
  185.4290  179.0380  147.0420 N   0  0  0  0  0  1  0  0  0  0  0  0
  189.3940  177.2240  140.4170 N   0  0  0  0  0  2  0  0  0  0  0  0
  190.7610  177.2090  139.9250 C   0  0  0  0  0  2  0  0  0  0  0  0
  190.8440  176.3850  138.8050 O   0  0  0  0  0  0  0  0  0  0  0  0
  192.1430  176.5630  138.3280 C   0  0  0  0  0  2  0  0  0  0  0  0
  192.0070  175.0680  136.0490 S   0  0  0  0  0  0  0  0  0  0  0  0
  193.5900  175.6490  135.3600 C   0  0  0  0  0  2  0  0  0  0  0  0
  192.6590  175.2620  137.7360 C   0  0  1  0  0  3  0  0  0  0  0  0
  194.1420  175.3320  137.5940 C   0  0  0  0  0  0  0  0  0  0  0  0
  194.5900  175.5300  136.4030 N   0  0  0  0  0  0  0  0  0  0  0  0
  195.6830  174.1460  139.0940 C   0  0  0  0  0  3  0  0  0  0  0  0
  195.5430  172.8870  138.4400 N   0  0  0  0  0  1  0  0  0  0  0  0
  195.0620  175.2160  138.6930 N   0  0  0  0  0  0  0  0  0  0  0  0
  1 14  1  0  0  0  0
  1  2  1  0  0  0  0
  2  4  1  0  0  0  0
  4  3  1  1  0  0  0
  4  5  1  0  0  0  0
  5  7  2  0  0  0  0
  5 10  1  0  0  0  0
  6  8  2  0  0  0  0
  7  6  1  0  0  0  0
  9  8  1  0  0  0  0
  9 11  1  0  0  0  0
 10  9  2  0  0  0  0
 11 12  2  0  0  0  0
 11 13  1  0  0  0  0
 14 15  1  0  0  0  0
 15 17  1  0  0  0  0
 16 19  2  0  0  0  0
 16 17  1  0  0  0  0
 17 18  2  0  0  0  0
 18 20  1  0  0  0  0
 19 21  1  0  0  0  0
 20 22  1  0  0  0  0
 21 20  2  0  0  0  0
 23  1  1  0  0  0  0
 24 23  1  0  0  0  0
 25 24  1  0  0  0  0
 26 25  1  0  0  0  0
 27 29  1  0  0  0  0
 28 27  1  0  0  0  0
 28 31  1  0  0  0  0
 29 26  1  6  0  0  0
 30 29  1  0  0  0  0
 30 34  1  0  0  0  0
 31 30  2  0  0  0  0
 33 32  1  0  0  0  0
 34 32  2  0  0  0  0
M  END
>  <MODEL>
6

>  <REMARK>
 VINA RESULT:      -7.7      2.158      2.603
  Name = 
  13 active torsions:
  status: ('A' for Active; 'I' for Inactive)
    1  A    between atoms: C_3  and  C_8
    2  A    between atoms: C_3  and  N_20
    3  A    between atoms: C_4  and  C_8
    4  A    between atoms: C_9  and  C_17
    5  A    between atoms: C_9  and  O_19
    6  A    between atoms: C_12  and  O_19
    7  A    between atoms: C_12  and  N_34
    8  A    between atoms: C_15  and  CA_26
    9  A    between atoms: C_16  and  N_20
   10  A    between atoms: C_16  and  C_32
   11  A    between atoms: C_18  and  C_32
   12  A    between atoms: N_20  and  N_34
   13  A    between atoms: C_21  and  N_30
                            x       y       z     vdW  Elec       q    Type
                         _______ _______ _______ _____ _____    ______ ____

>  <TORSDO>
F 13

$$$$
=
 OpenBabel11032421253D

 34 36  0  0  1  0  0  0  0  0999 V2000
  189.5830  177.4180  141.7460 N   0  0  0  0  0  0  0  0  0  0  0  0
  190.0200  176.4790  142.7760 C   0  0  0  0  0  2  0  0  0  0  0  0
  191.4530  178.3490  143.2710 O   0  0  0  0  0  1  0  0  0  0  0  0
  191.2590  176.9870  143.5140 C   0  0  1  0  0  3  0  0  0  0  0  0
  191.1860  176.7170  144.9850 C   0  0  0  0  0  0  0  0  0  0  0  0
  192.0480  175.6230  146.9520 C   0  0  0  0  0  3  0  0  0  0  0  0
  192.1520  175.9090  145.5910 C   0  0  0  0  0  3  0  0  0  0  0  0
  190.9820  176.1380  147.6920 C   0  0  0  0  0  3  0  0  0  0  0  0
  190.0270  176.9400  147.0540 C   0  0  0  0  0  0  0  0  0  0  0  0
  190.1500  177.2030  145.7250 N   0  0  0  0  0  0  0  0  0  0  0  0
  188.8970  177.4960  147.8120 C   0  0  0  0  0  0  0  0  0  0  0  0
  187.8010  176.8760  147.8640 O   0  0  0  0  0  0  0  0  0  0  0  0
  189.0250  178.7120  148.4760 O   0  0  0  0  0  1  0  0  0  0  0  0
  188.1790  177.7710  141.9890 C   0  0  0  0  0  2  0  0  0  0  0  0
  187.5570  177.0320  143.1800 C   0  0  0  0  0  2  0  0  0  0  0  0
  185.3890  178.2490  142.8930 C   0  0  0  0  0  3  0  0  0  0  0  0
  186.4210  177.8200  143.7340 C   0  0  0  0  0  0  0  0  0  0  0  0
  186.4060  178.1530  145.0540 N   0  0  0  0  0  0  0  0  0  0  0  0
  184.3510  179.0160  143.4250 C   0  0  0  0  0  3  0  0  0  0  0  0
  185.4010  178.8970  145.5910 C   0  0  0  0  0  0  0  0  0  0  0  0
  184.3530  179.3430  144.7820 C   0  0  0  0  0  3  0  0  0  0  0  0
  185.4190  179.2240  146.9750 N   0  0  0  0  0  1  0  0  0  0  0  0
  189.6900  176.7860  140.4970 N   0  0  0  0  0  2  0  0  0  0  0  0
  190.7660  177.4480  139.7800 C   0  0  0  0  0  2  0  0  0  0  0  0
  191.3690  176.5430  138.9070 O   0  0  0  0  0  0  0  0  0  0  0  0
  190.3080  175.8410  138.3340 C   0  0  0  0  0  2  0  0  0  0  0  0
  190.0060  174.3130  136.0940 S   0  0  0  0  0  0  0  0  0  0  0  0
  188.3050  174.8540  135.7370 C   0  0  0  0  0  2  0  0  0  0  0  0
  190.3810  175.9380  136.8190 C   0  0  1  0  0  3  0  0  0  0  0  0
  189.3180  176.8600  136.3260 C   0  0  0  0  0  0  0  0  0  0  0  0
  188.2860  176.3030  135.7930 N   0  0  0  0  0  0  0  0  0  0  0  0
  188.6860  179.0540  137.2290 C   0  0  0  0  0  3  0  0  0  0  0  0
  187.7430  178.5330  138.1620 N   0  0  0  0  0  1  0  0  0  0  0  0
  189.3800  178.2920  136.4360 N   0  0  0  0  0  0  0  0  0  0  0  0
  1 14  1  0  0  0  0
  1  2  1  0  0  0  0
  2  4  1  0  0  0  0
  4  3  1  1  0  0  0
  4  5  1  0  0  0  0
  5  7  2  0  0  0  0
  5 10  1  0  0  0  0
  6  8  2  0  0  0  0
  7  6  1  0  0  0  0
  9  8  1  0  0  0  0
  9 11  1  0  0  0  0
 10  9  2  0  0  0  0
 11 12  2  0  0  0  0
 11 13  1  0  0  0  0
 14 15  1  0  0  0  0
 15 17  1  0  0  0  0
 16 19  2  0  0  0  0
 16 17  1  0  0  0  0
 17 18  2  0  0  0  0
 18 20  1  0  0  0  0
 19 21  1  0  0  0  0
 20 22  1  0  0  0  0
 21 20  2  0  0  0  0
 23  1  1  0  0  0  0
 24 23  1  0  0  0  0
 25 24  1  0  0  0  0
 26 25  1  0  0  0  0
 27 29  1  0  0  0  0
 28 31  1  0  0  0  0
 28 27  1  0  0  0  0
 29 26  1  1  0  0  0
 30 34  1  0  0  0  0
 30 29  1  0  0  0  0
 31 30  2  0  0  0  0
 32 33  1  0  0  0  0
 34 32  2  0  0  0  0
M  END
>  <MODEL>
7

>  <REMARK>
 VINA RESULT:      -7.7      1.425      1.955
  Name = 
  13 active torsions:
  status: ('A' for Active; 'I' for Inactive)
    1  A    between atoms: C_3  and  C_8
    2  A    between atoms: C_3  and  N_20
    3  A    between atoms: C_4  and  C_8
    4  A    between atoms: C_9  and  C_17
    5  A    between atoms: C_9  and  O_19
    6  A    between atoms: C_12  and  O_19
    7  A    between atoms: C_12  and  N_34
    8  A    between atoms: C_15  and  CA_26
    9  A    between atoms: C_16  and  N_20
   10  A    between atoms: C_16  and  C_32
   11  A    between atoms: C_18  and  C_32
   12  A    between atoms: N_20  and  N_34
   13  A    between atoms: C_21  and  N_30
                            x       y       z     vdW  Elec       q    Type
                         _______ _______ _______ _____ _____    ______ ____

>  <TORSDO>
F 13

$$$$
=
 OpenBabel11032421253D

 34 36  0  0  1  0  0  0  0  0999 V2000
  190.1350  177.2280  141.1150 N   0  0  0  0  0  0  0  0  0  0  0  0
  190.1470  176.4600  142.3580 C   0  0  0  0  0  2  0  0  0  0  0  0
  191.6850  178.2150  142.9480 O   0  0  0  0  0  1  0  0  0  0  0  0
  191.2460  176.9390  143.3070 C   0  0  1  0  0  3  0  0  0  0  0  0
  190.8050  176.9120  144.7370 C   0  0  0  0  0  0  0  0  0  0  0  0
  191.2370  176.3720  147.0470 C   0  0  0  0  0  3  0  0  0  0  0  0
  191.6750  176.4390  145.7240 C   0  0  0  0  0  3  0  0  0  0  0  0
  189.9390  176.7710  147.3700 C   0  0  0  0  0  3  0  0  0  0  0  0
  189.0890  177.2340  146.3580 C   0  0  0  0  0  0  0  0  0  0  0  0
  189.5400  177.2890  145.0750 N   0  0  0  0  0  0  0  0  0  0  0  0
  187.7190  177.6620  146.6750 C   0  0  0  0  0  0  0  0  0  0  0  0
  186.7960  177.5070  145.8310 O   0  0  0  0  0  0  0  0  0  0  0  0
  187.4290  178.2430  147.9050 O   0  0  0  0  0  1  0  0  0  0  0  0
  188.7710  177.7060  140.8640 C   0  0  0  0  0  2  0  0  0  0  0  0
  188.0670  178.2420  142.1160 C   0  0  0  0  0  2  0  0  0  0  0  0
  185.6580  178.0800  142.7750 C   0  0  0  0  0  3  0  0  0  0  0  0
  186.6200  178.4610  141.8350 C   0  0  0  0  0  0  0  0  0  0  0  0
  186.2340  179.0030  140.6470 N   0  0  0  0  0  0  0  0  0  0  0  0
  184.3060  178.2610  142.4790 C   0  0  0  0  0  3  0  0  0  0  0  0
  184.9220  179.1910  140.3420 C   0  0  0  0  0  0  0  0  0  0  0  0
  183.9320  178.8210  141.2560 C   0  0  0  0  0  3  0  0  0  0  0  0
  184.5560  179.7600  139.0910 N   0  0  0  0  0  1  0  0  0  0  0  0
  190.5260  176.3770  140.0680 N   0  0  0  0  0  2  0  0  0  0  0  0
  190.9550  177.2290  138.9720 C   0  0  0  0  0  2  0  0  0  0  0  0
  190.9400  176.5000  137.7830 O   0  0  0  0  0  0  0  0  0  0  0  0
  189.9100  175.5730  137.9480 C   0  0  0  0  0  2  0  0  0  0  0  0
  188.9330  173.9720  135.9660 S   0  0  0  0  0  0  0  0  0  0  0  0
  187.3470  173.6180  136.7890 C   0  0  0  0  0  2  0  0  0  0  0  0
  188.9810  175.6150  136.7450 C   0  0  1  0  0  3  0  0  0  0  0  0
  187.5890  175.8910  137.2000 C   0  0  0  0  0  0  0  0  0  0  0  0
  186.7870  174.8830  137.2210 N   0  0  0  0  0  0  0  0  0  0  0  0
  186.9470  178.2410  136.8900 C   0  0  0  0  0  3  0  0  0  0  0  0
  187.1810  178.2460  135.4840 N   0  0  0  0  0  1  0  0  0  0  0  0
  187.1230  177.1830  137.6250 N   0  0  0  0  0  0  0  0  0  0  0  0
  1  2  1  0  0  0  0
  2  4  1  0  0  0  0
  4  3  1  6  0  0  0
  4  5  1  0  0  0  0
  5 10  2  0  0  0  0
  5  7  1  0  0  0  0
  6  8  1  0  0  0  0
  7  6  2  0  0  0  0
  9 11  1  0  0  0  0
  9  8  2  0  0  0  0
 10  9  1  0  0  0  0
 11 13  1  0  0  0  0
 12 11  2  0  0  0  0
 14  1  1  0  0  0  0
 14 15  1  0  0  0  0
 17 15  1  0  0  0  0
 17 16  2  0  0  0  0
 18 17  1  0  0  0  0
 19 16  1  0  0  0  0
 20 18  2  0  0  0  0
 20 21  1  0  0  0  0
 21 19  2  0  0  0  0
 22 20  1  0  0  0  0
 23  1  1  0  0  0  0
 24 23  1  0  0  0  0
 25 26  1  0  0  0  0
 25 24  1  0  0  0  0
 27 29  1  0  0  0  0
 27 28  1  0  0  0  0
 28 31  1  0  0  0  0
 29 30  1  0  0  0  0
 29 26  1  1  0  0  0
 30 31  2  0  0  0  0
 30 34  1  0  0  0  0
 32 34  2  0  0  0  0
 33 32  1  0  0  0  0
M  END
>  <MODEL>
8

>  <REMARK>
 VINA RESULT:      -7.7      2.244      3.133
  Name = 
  13 active torsions:
  status: ('A' for Active; 'I' for Inactive)
    1  A    between atoms: C_3  and  C_8
    2  A    between atoms: C_3  and  N_20
    3  A    between atoms: C_4  and  C_8
    4  A    between atoms: C_9  and  C_17
    5  A    between atoms: C_9  and  O_19
    6  A    between atoms: C_12  and  O_19
    7  A    between atoms: C_12  and  N_34
    8  A    between atoms: C_15  and  CA_26
    9  A    between atoms: C_16  and  N_20
   10  A    between atoms: C_16  and  C_32
   11  A    between atoms: C_18  and  C_32
   12  A    between atoms: N_20  and  N_34
   13  A    between atoms: C_21  and  N_30
                            x       y       z     vdW  Elec       q    Type
                         _______ _______ _______ _____ _____    ______ ____

>  <TORSDO>
F 13

$$$$
=
 OpenBabel11032421253D

 34 36  0  0  1  0  0  0  0  0999 V2000
  190.0870  177.1780  140.6830 N   0  0  0  0  0  0  0  0  0  0  0  0
  190.0890  176.3770  141.9050 C   0  0  0  0  0  2  0  0  0  0  0  0
  191.6810  178.0770  142.5090 O   0  0  0  0  0  1  0  0  0  0  0  0
  191.1880  176.8210  142.8700 C   0  0  1  0  0  3  0  0  0  0  0  0
  190.7190  176.8240  144.2920 C   0  0  0  0  0  0  0  0  0  0  0  0
  188.9770  177.1940  145.9170 C   0  0  0  0  0  3  0  0  0  0  0  0
  189.3910  177.1470  144.5850 C   0  0  0  0  0  3  0  0  0  0  0  0
  189.8890  176.9260  146.9380 C   0  0  0  0  0  3  0  0  0  0  0  0
  191.2140  176.6130  146.6130 C   0  0  0  0  0  0  0  0  0  0  0  0
  191.5940  176.5740  145.3060 N   0  0  0  0  0  0  0  0  0  0  0  0
  192.1930  176.3240  147.6710 C   0  0  0  0  0  0  0  0  0  0  0  0
  192.8450  175.2460  147.6550 O   0  0  0  0  0  0  0  0  0  0  0  0
  192.4060  177.2350  148.7000 O   0  0  0  0  0  1  0  0  0  0  0  0
  188.7240  177.6600  140.4320 C   0  0  0  0  0  2  0  0  0  0  0  0
  188.2110  178.6340  141.4980 C   0  0  0  0  0  2  0  0  0  0  0  0
  186.0380  178.2610  142.6840 C   0  0  0  0  0  3  0  0  0  0  0  0
  186.7210  178.6300  141.5210 C   0  0  0  0  0  0  0  0  0  0  0  0
  186.0250  178.9530  140.3960 N   0  0  0  0  0  0  0  0  0  0  0  0
  184.6420  178.2300  142.6730 C   0  0  0  0  0  3  0  0  0  0  0  0
  184.6650  178.9320  140.3680 C   0  0  0  0  0  0  0  0  0  0  0  0
  183.9480  178.5680  141.5110 C   0  0  0  0  0  3  0  0  0  0  0  0
  183.9720  179.2760  139.1750 N   0  0  0  0  0  1  0  0  0  0  0  0
  190.4900  176.3570  139.6170 N   0  0  0  0  0  2  0  0  0  0  0  0
  191.7730  176.8620  139.1580 C   0  0  0  0  0  2  0  0  0  0  0  0
  192.0000  176.4350  137.8510 O   0  0  0  0  0  0  0  0  0  0  0  0
  191.8170  175.0530  137.8910 C   0  0  0  0  0  2  0  0  0  0  0  0
  192.7470  174.3030  135.4370 S   0  0  0  0  0  0  0  0  0  0  0  0
  193.8660  175.7240  135.2290 C   0  0  0  0  0  2  0  0  0  0  0  0
  192.9990  174.3560  137.2380 C   0  0  1  0  0  3  0  0  0  0  0  0
  194.2340  175.1630  137.4530 C   0  0  0  0  0  0  0  0  0  0  0  0
  194.6510  175.8440  136.4420 N   0  0  0  0  0  0  0  0  0  0  0  0
  195.6930  174.3140  139.2360 C   0  0  0  0  0  3  0  0  0  0  0  0
  195.9430  173.0620  138.6030 N   0  0  0  0  0  1  0  0  0  0  0  0
  194.9440  175.2320  138.7010 N   0  0  0  0  0  0  0  0  0  0  0  0
  1  2  1  0  0  0  0
  2  4  1  0  0  0  0
  4  3  1  6  0  0  0
  4  5  1  0  0  0  0
  5  7  2  0  0  0  0
  5 10  1  0  0  0  0
  6  8  2  0  0  0  0
  7  6  1  0  0  0  0
  9  8  1  0  0  0  0
  9 11  1  0  0  0  0
 10  9  2  0  0  0  0
 11 13  1  0  0  0  0
 12 11  2  0  0  0  0
 14  1  1  0  0  0  0
 14 15  1  0  0  0  0
 15 17  1  0  0  0  0
 17 16  2  0  0  0  0
 18 17  1  0  0  0  0
 19 16  1  0  0  0  0
 20 18  2  0  0  0  0
 20 21  1  0  0  0  0
 21 19  2  0  0  0  0
 22 20  1  0  0  0  0
 23  1  1  0  0  0  0
 24 23  1  0  0  0  0
 25 26  1  0  0  0  0
 25 24  1  0  0  0  0
 27 29  1  0  0  0  0
 28 27  1  0  0  0  0
 28 31  1  0  0  0  0
 29 30  1  0  0  0  0
 29 26  1  1  0  0  0
 30 34  1  0  0  0  0
 31 30  2  0  0  0  0
 33 32  1  0  0  0  0
 34 32  2  0  0  0  0
M  END
>  <MODEL>
9

>  <REMARK>
 VINA RESULT:      -7.7      2.883      3.829
  Name = 
  13 active torsions:
  status: ('A' for Active; 'I' for Inactive)
    1  A    between atoms: C_3  and  C_8
    2  A    between atoms: C_3  and  N_20
    3  A    between atoms: C_4  and  C_8
    4  A    between atoms: C_9  and  C_17
    5  A    between atoms: C_9  and  O_19
    6  A    between atoms: C_12  and  O_19
    7  A    between atoms: C_12  and  N_34
    8  A    between atoms: C_15  and  CA_26
    9  A    between atoms: C_16  and  N_20
   10  A    between atoms: C_16  and  C_32
   11  A    between atoms: C_18  and  C_32
   12  A    between atoms: N_20  and  N_34
   13  A    between atoms: C_21  and  N_30
                            x       y       z     vdW  Elec       q    Type
                         _______ _______ _______ _____ _____    ______ ____

>  <TORSDO>
F 13

$$$$
