=
 OpenBabel11042412383D

 41 45  0  0  1  0  0  0  0  0999 V2000
  188.1810  176.8640  145.1350 C   0  0  0  0  0  3  0  0  0  0  0  0
  186.5750  178.4110  141.7630 C   0  0  0  0  0  0  0  0  0  0  0  0
  186.7240  178.3260  139.3290 C   0  0  0  0  0  0  0  0  0  0  0  0
  187.3780  177.9410  138.0500 C   0  0  0  0  0  1  0  0  0  0  0  0
  191.7030  177.5550  141.1060 C   0  0  0  0  0  3  0  0  0  0  0  0
  187.2960  178.0470  140.5960 C   0  0  0  0  0  0  0  0  0  0  0  0
  187.4440  176.4830  143.5430 S   0  0  0  0  0  0  0  0  0  0  0  0
  192.1190  178.6060  143.3180 C   0  0  0  0  0  3  0  0  0  0  0  0
  191.4070  177.7400  142.3990 C   0  0  0  0  0  0  0  0  0  0  0  0
  185.3430  179.0710  141.6290 C   0  0  0  0  0  0  0  0  0  0  0  0
  189.5850  177.3360  139.8430 C   0  0  0  0  0  3  0  0  0  0  0  0
  188.6250  177.4120  140.7610 C   0  0  0  0  0  3  0  0  0  0  0  0
  190.3140  177.1560  143.0870 N   0  0  0  0  0  0  0  0  0  0  0  0
  190.3780  177.6700  144.2740 C   0  0  0  0  0  0  0  0  0  0  0  0
  185.5250  178.9590  139.2540 N   0  0  0  0  0  0  0  0  0  0  0  0
  191.4990  178.5570  144.4520 N   0  0  0  0  0  0  0  0  0  0  0  0
  187.1600  178.2400  143.1420 C   0  0  0  0  0  2  0  0  0  0  0  0
  184.4140  179.6030  143.0280 Cl  0  0  0  0  0  0  0  0  0  0  0  0
  190.9030  176.6970  140.1640 C   0  0  1  0  0  3  0  0  0  0  0  0
  189.4080  177.3560  145.3570 C   0  0  0  0  0  0  0  0  0  0  0  0
  184.8330  179.3250  140.3580 C   0  0  0  0  0  3  0  0  0  0  0  0
  192.2890  176.4980  137.8860 C   0  0  0  0  0  0  0  0  0  0  0  0
  191.6590  176.5730  138.9120 C   0  0  0  0  0  0  0  0  0  0  0  0
  193.0320  176.4400  136.6200 C   0  0  0  0  0  2  0  0  0  0  0  0
  196.7770  176.4450  135.9420 O   0  0  0  0  0  0  0  0  0  0  0  0
  195.3710  176.2310  135.4510 S   0  0  0  0  0  0  0  0  0  0  0  0
  194.7400  177.2970  134.5940 O   0  0  0  0  0  0  0  0  0  0  0  0
  194.3470  175.8420  136.8250 N   0  0  0  0  0  0  0  0  0  0  0  0
  194.4550  174.8110  135.9100 N   0  0  2  0  0  0  0  0  0  0  0  0
  193.0370  172.0900  135.4400 C   0  0  0  0  0  1  0  0  0  0  0  0
  194.4560  171.5690  135.6010 C   0  0  1  0  0  3  0  0  0  0  0  0
  195.4870  172.6740  135.3320 C   0  0  0  0  0  2  0  0  0  0  0  0
  195.4240  173.8060  136.3750 C   0  0  2  0  0  3  0  0  0  0  0  0
  195.0870  173.2780  137.7890 C   0  0  0  0  0  2  0  0  0  0  0  0
  195.4400  171.8070  137.9640 C   0  0  0  0  0  2  0  0  0  0  0  0
  194.6300  170.9390  136.9920 C   0  0  0  0  0  2  0  0  0  0  0  0
  189.7490  177.5990  146.7210 N   0  0  0  0  0  2  0  0  0  0  0  0
  190.3200  176.6300  147.5240 O   0  0  0  0  0  0  0  0  0  0  0  0
  192.5640  176.7610  148.4330 O   0  0  0  0  0  1  0  0  0  0  0  0
  191.6820  176.3410  147.4370 C   0  0  0  0  0  0  0  0  0  0  0  0
  192.1220  175.6790  146.4540 O   0  0  0  0  0  0  0  0  0  0  0  0
  1 20  2  0  0  0  0
  2 17  1  0  0  0  0
  3  6  1  0  0  0  0
  4  3  1  0  0  0  0
  5  9  2  0  0  0  0
  6 12  1  0  0  0  0
  6  2  2  0  0  0  0
  7  1  1  0  0  0  0
  8 16  2  0  0  0  0
  9 13  1  0  0  0  0
  9  8  1  0  0  0  0
 10  2  1  0  0  0  0
 10 18  1  0  0  0  0
 11 19  1  0  0  0  0
 11 12  2  0  0  0  0
 13 14  2  0  0  0  0
 14 16  1  0  0  0  0
 14 20  1  0  0  0  0
 15  3  2  0  0  0  0
 15 21  1  0  0  0  0
 17  7  1  0  0  0  0
 19 23  1  6  0  0  0
 19  5  1  0  0  0  0
 20 37  1  0  0  0  0
 21 10  2  0  0  0  0
 22 23  3  0  0  0  0
 24 28  1  0  0  0  0
 24 22  1  0  0  0  0
 26 29  1  0  0  0  0
 26 25  2  0  0  0  0
 26 28  1  0  0  0  0
 27 26  2  0  0  0  0
 29 33  1  0  0  0  0
 29 28  1  1  0  0  0
 31 30  1  1  0  0  0
 31 36  1  0  0  0  0
 32 31  1  0  0  0  0
 33 32  1  6  0  0  0
 33 34  1  0  0  0  0
 34 35  1  0  0  0  0
 36 35  1  0  0  0  0
 37 38  1  0  0  0  0
 40 38  1  0  0  0  0
 40 39  1  0  0  0  0
 41 40  2  0  0  0  0
M  END
>  <MODEL>
1

>  <REMARK>
 VINA RESULT:      -8.5      0.000      0.000
  Name = 
  7 active torsions:
  status: ('A' for Active; 'I' for Inactive)
    1  A    between atoms: N_3  and  O_31
    2  A    between atoms: N_3  and  C_39
    3  A    between atoms: C_14  and  C_35
    4  A    between atoms: C_15  and  N_34
    5  A    between atoms: N_27  and  C_35
    6  A    between atoms: C_28  and  O_31
    7  A    between atoms: C_37  and  C_40
                            x       y       z     vdW  Elec       q    Type
                         _______ _______ _______ _____ _____    ______ ____

>  <TORSDO>
F 7

$$$$
=
 OpenBabel11042412383D

 41 45  0  0  1  0  0  0  0  0999 V2000
  190.6000  175.9080  142.1090 C   0  0  0  0  0  3  0  0  0  0  0  0
  189.2080  177.3290  145.6290 C   0  0  0  0  0  0  0  0  0  0  0  0
  187.1500  177.8240  146.8410 C   0  0  0  0  0  0  0  0  0  0  0  0
  185.6780  178.0160  146.9390 C   0  0  0  0  0  1  0  0  0  0  0  0
  186.0660  178.8040  141.7020 C   0  0  0  0  0  3  0  0  0  0  0  0
  187.8050  177.5450  145.6160 C   0  0  0  0  0  0  0  0  0  0  0  0
  189.4960  175.6000  143.4920 S   0  0  0  0  0  0  0  0  0  0  0  0
  188.0750  179.4450  140.3910 C   0  0  0  0  0  3  0  0  0  0  0  0
  187.3100  178.5770  141.2640 C   0  0  0  0  0  0  0  0  0  0  0  0
  189.9060  177.4400  146.8420 C   0  0  0  0  0  0  0  0  0  0  0  0
  185.9030  178.0070  144.0410 C   0  0  0  0  0  3  0  0  0  0  0  0
  187.0980  177.4900  144.3140 C   0  0  0  0  0  3  0  0  0  0  0  0
  188.1200  177.4670  141.6160 N   0  0  0  0  0  0  0  0  0  0  0  0
  189.2490  177.7020  141.0270 C   0  0  0  0  0  0  0  0  0  0  0  0
  187.8700  177.9110  147.9890 N   0  0  0  0  0  0  0  0  0  0  0  0
  189.2440  178.9110  140.2440 N   0  0  0  0  0  0  0  0  0  0  0  0
  189.9910  177.1290  144.3560 C   0  0  0  0  0  2  0  0  0  0  0  0
  191.6550  177.2410  146.9310 Cl  0  0  0  0  0  0  0  0  0  0  0  0
  185.3240  177.9110  142.6610 C   0  0  1  0  0  3  0  0  0  0  0  0
  190.4280  176.8000  141.1240 C   0  0  0  0  0  0  0  0  0  0  0  0
  189.2100  177.7230  148.0140 C   0  0  0  0  0  3  0  0  0  0  0  0
  182.7920  178.7580  142.8020 C   0  0  0  0  0  0  0  0  0  0  0  0
  183.9330  178.3710  142.7240 C   0  0  0  0  0  0  0  0  0  0  0  0
  181.3970  179.1980  142.9310 C   0  0  0  0  0  2  0  0  0  0  0  0
  179.1950  181.8100  141.2510 O   0  0  0  0  0  0  0  0  0  0  0  0
  179.3300  180.4880  141.9570 S   0  0  0  0  0  0  0  0  0  0  0  0
  178.9320  180.4050  143.4070 O   0  0  0  0  0  0  0  0  0  0  0  0
  180.9630  179.8850  141.7190 N   0  0  0  0  0  0  0  0  0  0  0  0
  179.9920  179.0860  141.1430 N   0  0  2  0  0  0  0  0  0  0  0  0
  181.6660  176.8200  139.8390 C   0  0  0  0  0  1  0  0  0  0  0  0
  180.9010  177.2630  138.6020 C   0  0  1  0  0  3  0  0  0  0  0  0
  179.6150  178.0110  138.9820 C   0  0  0  0  0  2  0  0  0  0  0  0
  179.9000  179.3460  139.6970 C   0  0  2  0  0  3  0  0  0  0  0  0
  181.1640  180.0450  139.1460 C   0  0  0  0  0  2  0  0  0  0  0  0
  181.5060  179.6030  137.7280 C   0  0  0  0  0  2  0  0  0  0  0  0
  181.8130  178.1000  137.6920 C   0  0  0  0  0  2  0  0  0  0  0  0
  191.4700  176.8700  140.1530 N   0  0  0  0  0  2  0  0  0  0  0  0
  191.2180  176.8280  138.7940 O   0  0  0  0  0  0  0  0  0  0  0  0
  191.0530  174.5250  138.0580 O   0  0  0  0  0  1  0  0  0  0  0  0
  190.4800  175.7850  138.2350 C   0  0  0  0  0  0  0  0  0  0  0  0
  189.2780  175.9750  137.8990 O   0  0  0  0  0  0  0  0  0  0  0  0
  1  7  1  0  0  0  0
  2 10  1  0  0  0  0
  3  4  1  0  0  0  0
  3 15  2  0  0  0  0
  5 19  1  0  0  0  0
  6  2  2  0  0  0  0
  6  3  1  0  0  0  0
  7 17  1  0  0  0  0
  8  9  1  0  0  0  0
  9 13  1  0  0  0  0
  9  5  2  0  0  0  0
 10 18  1  0  0  0  0
 10 21  2  0  0  0  0
 11 12  2  0  0  0  0
 12  6  1  0  0  0  0
 14 20  1  0  0  0  0
 14 13  2  0  0  0  0
 15 21  1  0  0  0  0
 16  8  2  0  0  0  0
 16 14  1  0  0  0  0
 17  2  1  0  0  0  0
 19 23  1  1  0  0  0
 19 11  1  0  0  0  0
 20  1  2  0  0  0  0
 22 24  1  0  0  0  0
 23 22  3  0  0  0  0
 25 26  2  0  0  0  0
 26 27  2  0  0  0  0
 28 26  1  0  0  0  0
 28 24  1  0  0  0  0
 29 28  1  1  0  0  0
 29 26  1  0  0  0  0
 31 32  1  0  0  0  0
 31 30  1  1  0  0  0
 33 32  1  6  0  0  0
 33 29  1  0  0  0  0
 34 33  1  0  0  0  0
 35 34  1  0  0  0  0
 36 35  1  0  0  0  0
 36 31  1  0  0  0  0
 37 20  1  0  0  0  0
 38 37  1  0  0  0  0
 39 40  1  0  0  0  0
 40 38  1  0  0  0  0
 41 40  2  0  0  0  0
M  END
>  <MODEL>
2

>  <REMARK>
 VINA RESULT:      -8.1      4.780     10.704
  Name = 
  7 active torsions:
  status: ('A' for Active; 'I' for Inactive)
    1  A    between atoms: N_3  and  O_31
    2  A    between atoms: N_3  and  C_39
    3  A    between atoms: C_14  and  C_35
    4  A    between atoms: C_15  and  N_34
    5  A    between atoms: N_27  and  C_35
    6  A    between atoms: C_28  and  O_31
    7  A    between atoms: C_37  and  C_40
                            x       y       z     vdW  Elec       q    Type
                         _______ _______ _______ _____ _____    ______ ____

>  <TORSDO>
F 7

$$$$
=
 OpenBabel11042412383D

 41 45  0  0  1  0  0  0  0  0999 V2000
  189.2820  175.9250  143.1120 C   0  0  0  0  0  3  0  0  0  0  0  0
  186.3620  178.0490  144.9310 C   0  0  0  0  0  0  0  0  0  0  0  0
  184.0620  178.8140  144.6550 C   0  0  0  0  0  0  0  0  0  0  0  0
  182.8250  179.0480  143.8620 C   0  0  0  0  0  1  0  0  0  0  0  0
  186.1630  178.7610  139.7430 C   0  0  0  0  0  3  0  0  0  0  0  0
  185.2460  178.2830  144.0860 C   0  0  0  0  0  0  0  0  0  0  0  0
  187.5660  175.9210  143.6420 S   0  0  0  0  0  0  0  0  0  0  0  0
  188.6250  179.0890  139.7360 C   0  0  0  0  0  3  0  0  0  0  0  0
  187.3990  178.4280  140.1370 C   0  0  0  0  0  0  0  0  0  0  0  0
  186.2730  178.3890  146.2910 C   0  0  0  0  0  0  0  0  0  0  0  0
  184.6240  178.4530  141.6570 C   0  0  0  0  0  3  0  0  0  0  0  0
  185.3850  177.9800  142.6410 C   0  0  0  0  0  3  0  0  0  0  0  0
  187.7240  177.3980  141.0550 N   0  0  0  0  0  0  0  0  0  0  0  0
  189.0080  177.4890  141.1890 C   0  0  0  0  0  0  0  0  0  0  0  0
  184.0240  179.1170  145.9780 N   0  0  0  0  0  0  0  0  0  0  0  0
  189.5970  178.5160  140.3680 N   0  0  0  0  0  0  0  0  0  0  0  0
  187.6880  177.5830  144.3850 C   0  0  0  0  0  2  0  0  0  0  0  0
  187.6320  178.1810  147.3930 Cl  0  0  0  0  0  0  0  0  0  0  0  0
  184.9060  178.0920  140.2300 C   0  0  1  0  0  3  0  0  0  0  0  0
  189.8050  176.6040  142.0820 C   0  0  0  0  0  0  0  0  0  0  0  0
  185.0850  178.9140  146.7930 C   0  0  0  0  0  3  0  0  0  0  0  0
  182.8540  178.9830  138.7650 C   0  0  0  0  0  0  0  0  0  0  0  0
  183.7890  178.5800  139.4140 C   0  0  0  0  0  0  0  0  0  0  0  0
  181.6930  179.4360  137.9870 C   0  0  0  0  0  2  0  0  0  0  0  0
  179.7370  181.5550  140.4710 O   0  0  0  0  0  0  0  0  0  0  0  0
  179.7480  180.5670  139.3360 S   0  0  0  0  0  0  0  0  0  0  0  0
  179.4770  179.1180  139.6440 O   0  0  0  0  0  0  0  0  0  0  0  0
  181.2510  180.7490  138.4450 N   0  0  0  0  0  0  0  0  0  0  0  0
  180.1290  181.0660  137.7020 N   0  0  2  0  0  0  0  0  0  0  0  0
  180.6240  181.7910  134.7240 C   0  0  0  0  0  1  0  0  0  0  0  0
  179.9200  183.0710  135.1440 C   0  0  1  0  0  3  0  0  0  0  0  0
  179.0780  182.8520  136.4090 C   0  0  0  0  0  2  0  0  0  0  0  0
  179.9420  182.5240  137.6420 C   0  0  2  0  0  3  0  0  0  0  0  0
  181.2870  183.2870  137.6320 C   0  0  0  0  0  2  0  0  0  0  0  0
  181.2370  184.5500  136.7820 C   0  0  0  0  0  2  0  0  0  0  0  0
  180.9450  184.2030  135.3160 C   0  0  0  0  0  2  0  0  0  0  0  0
  191.2100  176.4600  141.8840 N   0  0  0  0  0  2  0  0  0  0  0  0
  192.1360  177.2080  142.5860 O   0  0  0  0  0  0  0  0  0  0  0  0
  191.7870  177.2670  144.9840 O   0  0  0  0  0  1  0  0  0  0  0  0
  191.7690  177.9000  143.7410 C   0  0  0  0  0  0  0  0  0  0  0  0
  191.4310  179.1150  143.6650 O   0  0  0  0  0  0  0  0  0  0  0  0
  1  7  1  0  0  0  0
  2 10  1  0  0  0  0
  3 15  2  0  0  0  0
  4  3  1  0  0  0  0
  5  9  2  0  0  0  0
  5 19  1  0  0  0  0
  6  3  1  0  0  0  0
  6  2  2  0  0  0  0
  7 17  1  0  0  0  0
  8  9  1  0  0  0  0
  8 16  2  0  0  0  0
  9 13  1  0  0  0  0
 10 21  2  0  0  0  0
 10 18  1  0  0  0  0
 11 12  2  0  0  0  0
 12  6  1  0  0  0  0
 13 14  2  0  0  0  0
 14 20  1  0  0  0  0
 15 21  1  0  0  0  0
 16 14  1  0  0  0  0
 17  2  1  0  0  0  0
 19 23  1  6  0  0  0
 19 11  1  0  0  0  0
 20  1  2  0  0  0  0
 22 23  3  0  0  0  0
 24 28  1  0  0  0  0
 24 22  1  0  0  0  0
 26 27  2  0  0  0  0
 26 25  2  0  0  0  0
 28 26  1  0  0  0  0
 29 28  1  1  0  0  0
 29 26  1  0  0  0  0
 31 30  1  1  0  0  0
 31 36  1  0  0  0  0
 31 32  1  0  0  0  0
 33 32  1  6  0  0  0
 33 29  1  0  0  0  0
 34 33  1  0  0  0  0
 35 34  1  0  0  0  0
 36 35  1  0  0  0  0
 37 20  1  0  0  0  0
 37 38  1  0  0  0  0
 38 40  1  0  0  0  0
 40 39  1  0  0  0  0
 41 40  2  0  0  0  0
M  END
>  <MODEL>
3

>  <REMARK>
 VINA RESULT:      -7.7      5.257     10.501
  Name = 
  7 active torsions:
  status: ('A' for Active; 'I' for Inactive)
    1  A    between atoms: N_3  and  O_31
    2  A    between atoms: N_3  and  C_39
    3  A    between atoms: C_14  and  C_35
    4  A    between atoms: C_15  and  N_34
    5  A    between atoms: N_27  and  C_35
    6  A    between atoms: C_28  and  O_31
    7  A    between atoms: C_37  and  C_40
                            x       y       z     vdW  Elec       q    Type
                         _______ _______ _______ _____ _____    ______ ____

>  <TORSDO>
F 7

$$$$
=
 OpenBabel11042412383D

 41 45  0  0  1  0  0  0  0  0999 V2000
  191.1840  178.8090  144.2370 C   0  0  0  0  0  3  0  0  0  0  0  0
  189.5360  177.6920  140.7180 C   0  0  0  0  0  0  0  0  0  0  0  0
  187.5050  177.8870  139.3810 C   0  0  0  0  0  0  0  0  0  0  0  0
  186.0750  178.2450  139.1790 C   0  0  0  0  0  1  0  0  0  0  0  0
  185.8800  177.8450  144.4700 C   0  0  0  0  0  3  0  0  0  0  0  0
  188.1560  178.0130  140.6330 C   0  0  0  0  0  0  0  0  0  0  0  0
  190.3450  179.3780  142.7540 S   0  0  0  0  0  0  0  0  0  0  0  0
  187.4350  176.6270  145.9760 C   0  0  0  0  0  3  0  0  0  0  0  0
  187.0950  177.6340  144.9900 C   0  0  0  0  0  0  0  0  0  0  0  0
  190.2010  177.2220  139.5750 C   0  0  0  0  0  0  0  0  0  0  0  0
  186.1440  178.4310  142.0800 C   0  0  0  0  0  3  0  0  0  0  0  0
  187.4570  178.4430  141.8690 C   0  0  0  0  0  3  0  0  0  0  0  0
  188.2790  178.3290  144.6330 N   0  0  0  0  0  0  0  0  0  0  0  0
  189.2060  177.7470  145.3230 C   0  0  0  0  0  0  0  0  0  0  0  0
  188.1960  177.4370  138.3020 N   0  0  0  0  0  0  0  0  0  0  0  0
  188.7100  176.7010  146.1810 N   0  0  0  0  0  0  0  0  0  0  0  0
  190.2730  177.7030  142.0330 C   0  0  0  0  0  2  0  0  0  0  0  0
  191.8990  176.7520  139.6120 Cl  0  0  0  0  0  0  0  0  0  0  0  0
  185.5760  178.8580  143.3990 C   0  0  1  0  0  3  0  0  0  0  0  0
  190.6410  178.1370  145.2620 C   0  0  0  0  0  0  0  0  0  0  0  0
  189.5080  177.1130  138.3720 C   0  0  0  0  0  3  0  0  0  0  0  0
  182.9160  179.0080  143.1650 C   0  0  0  0  0  0  0  0  0  0  0  0
  184.1180  178.9410  143.2560 C   0  0  0  0  0  0  0  0  0  0  0  0
  181.4510  179.0500  143.0760 C   0  0  0  0  0  2  0  0  0  0  0  0
  179.2110  181.6300  141.4010 O   0  0  0  0  0  0  0  0  0  0  0  0
  179.3710  180.2940  142.0730 S   0  0  0  0  0  0  0  0  0  0  0  0
  178.9310  180.1550  143.5070 O   0  0  0  0  0  0  0  0  0  0  0  0
  181.0310  179.7570  141.8710 N   0  0  0  0  0  0  0  0  0  0  0  0
  180.1080  178.9410  141.2410 N   0  0  2  0  0  0  0  0  0  0  0  0
  182.0780  176.9190  139.9520 C   0  0  0  0  0  1  0  0  0  0  0  0
  181.3250  177.3180  138.6930 C   0  0  1  0  0  3  0  0  0  0  0  0
  179.9490  177.9080  139.0340 C   0  0  0  0  0  2  0  0  0  0  0  0
  180.0520  179.2390  139.8010 C   0  0  2  0  0  3  0  0  0  0  0  0
  181.2540  180.0920  139.3320 C   0  0  0  0  0  2  0  0  0  0  0  0
  181.7060  179.7400  137.9200 C   0  0  0  0  0  2  0  0  0  0  0  0
  182.1780  178.2810  137.8540 C   0  0  0  0  0  2  0  0  0  0  0  0
  191.5310  177.7740  146.3150 N   0  0  0  0  0  2  0  0  0  0  0  0
  192.1720  176.5500  146.3520 O   0  0  0  0  0  0  0  0  0  0  0  0
  193.1820  176.0000  148.4870 O   0  0  0  0  0  1  0  0  0  0  0  0
  192.1960  175.7900  147.5220 C   0  0  0  0  0  0  0  0  0  0  0  0
  191.3090  174.9120  147.7190 O   0  0  0  0  0  0  0  0  0  0  0  0
  1 20  2  0  0  0  0
  2 17  1  0  0  0  0
  3  6  2  0  0  0  0
  4  3  1  0  0  0  0
  5  9  2  0  0  0  0
  6  2  1  0  0  0  0
  6 12  1  0  0  0  0
  7  1  1  0  0  0  0
  8 16  2  0  0  0  0
  9  8  1  0  0  0  0
 10 18  1  0  0  0  0
 10  2  2  0  0  0  0
 11 19  1  0  0  0  0
 12 11  2  0  0  0  0
 13  9  1  0  0  0  0
 13 14  2  0  0  0  0
 14 16  1  0  0  0  0
 15 21  2  0  0  0  0
 15  3  1  0  0  0  0
 17  7  1  0  0  0  0
 19 23  1  6  0  0  0
 19  5  1  0  0  0  0
 20 14  1  0  0  0  0
 20 37  1  0  0  0  0
 21 10  1  0  0  0  0
 22 23  3  0  0  0  0
 24 22  1  0  0  0  0
 25 26  2  0  0  0  0
 26 27  2  0  0  0  0
 28 26  1  0  0  0  0
 28 24  1  0  0  0  0
 29 28  1  1  0  0  0
 29 26  1  0  0  0  0
 31 32  1  0  0  0  0
 31 30  1  1  0  0  0
 33 32  1  6  0  0  0
 33 29  1  0  0  0  0
 34 33  1  0  0  0  0
 35 34  1  0  0  0  0
 36 35  1  0  0  0  0
 36 31  1  0  0  0  0
 37 38  1  0  0  0  0
 38 40  1  0  0  0  0
 40 41  2  0  0  0  0
 40 39  1  0  0  0  0
M  END
>  <MODEL>
4

>  <REMARK>
 VINA RESULT:      -7.4      4.990      9.788
  Name = 
  7 active torsions:
  status: ('A' for Active; 'I' for Inactive)
    1  A    between atoms: N_3  and  O_31
    2  A    between atoms: N_3  and  C_39
    3  A    between atoms: C_14  and  C_35
    4  A    between atoms: C_15  and  N_34
    5  A    between atoms: N_27  and  C_35
    6  A    between atoms: C_28  and  O_31
    7  A    between atoms: C_37  and  C_40
                            x       y       z     vdW  Elec       q    Type
                         _______ _______ _______ _____ _____    ______ ____

>  <TORSDO>
F 7

$$$$
=
 OpenBabel11042412383D

 41 45  0  0  1  0  0  0  0  0999 V2000
  192.1990  175.9740  136.0710 C   0  0  0  0  0  3  0  0  0  0  0  0
  188.8410  173.7670  135.6290 C   0  0  0  0  0  0  0  0  0  0  0  0
  186.4070  173.9290  135.5800 C   0  0  0  0  0  0  0  0  0  0  0  0
  185.1170  174.6410  135.7890 C   0  0  0  0  0  1  0  0  0  0  0  0
  188.0290  177.6440  139.0600 C   0  0  0  0  0  3  0  0  0  0  0  0
  187.6600  174.5040  135.9100 C   0  0  0  0  0  0  0  0  0  0  0  0
  190.6450  175.8120  135.1840 S   0  0  0  0  0  0  0  0  0  0  0  0
  190.1920  177.0820  140.1430 C   0  0  0  0  0  3  0  0  0  0  0  0
  189.3250  177.3130  139.0050 C   0  0  0  0  0  0  0  0  0  0  0  0
  188.7300  172.4810  135.0760 C   0  0  0  0  0  0  0  0  0  0  0  0
  186.8490  176.4920  137.2150 C   0  0  0  0  0  3  0  0  0  0  0  0
  187.7970  175.8310  136.5560 C   0  0  0  0  0  3  0  0  0  0  0  0
  190.0690  177.0830  137.8200 N   0  0  0  0  0  0  0  0  0  0  0  0
  191.2360  176.7210  138.2460 C   0  0  0  0  0  0  0  0  0  0  0  0
  186.3540  172.6860  135.0370 N   0  0  0  0  0  0  0  0  0  0  0  0
  191.3490  176.7310  139.6830 N   0  0  0  0  0  0  0  0  0  0  0  0
  190.2020  174.2640  136.0420 C   0  0  0  0  0  2  0  0  0  0  0  0
  190.1450  171.4830  134.7500 Cl  0  0  0  0  0  0  0  0  0  0  0  0
  187.1420  177.8140  137.8560 C   0  0  1  0  0  3  0  0  0  0  0  0
  192.3630  176.3580  137.3440 C   0  0  0  0  0  0  0  0  0  0  0  0
  187.4710  171.9660  134.7790 C   0  0  0  0  0  3  0  0  0  0  0  0
  184.8340  178.8640  138.7060 C   0  0  0  0  0  0  0  0  0  0  0  0
  185.8690  178.3850  138.3100 C   0  0  0  0  0  0  0  0  0  0  0  0
  183.5770  179.4210  139.2250 C   0  0  0  0  0  2  0  0  0  0  0  0
  181.0830  176.5540  139.0240 O   0  0  0  0  0  0  0  0  0  0  0  0
  181.3770  178.0260  138.9220 S   0  0  0  0  0  0  0  0  0  0  0  0
  181.4920  178.6410  137.5510 O   0  0  0  0  0  0  0  0  0  0  0  0
  182.7950  178.3860  139.8930 N   0  0  0  0  0  0  0  0  0  0  0  0
  181.6450  179.0000  140.3510 N   0  0  2  0  0  0  0  0  0  0  0  0
  179.3750  180.8270  141.4210 C   0  0  0  0  0  1  0  0  0  0  0  0
  178.9520  179.5370  142.1030 C   0  0  1  0  0  3  0  0  0  0  0  0
  179.5440  178.3120  141.3900 C   0  0  0  0  0  2  0  0  0  0  0  0
  181.0800  178.2570  141.4890 C   0  0  2  0  0  3  0  0  0  0  0  0
  181.5960  178.7870  142.8480 C   0  0  0  0  0  2  0  0  0  0  0  0
  180.5420  178.7080  143.9450 C   0  0  0  0  0  2  0  0  0  0  0  0
  179.3300  179.5800  143.5920 C   0  0  0  0  0  2  0  0  0  0  0  0
  193.7050  176.3800  137.8250 N   0  0  0  0  0  2  0  0  0  0  0  0
  194.6270  175.4050  137.4890 O   0  0  0  0  0  0  0  0  0  0  0  0
  195.8000  174.8530  139.5380 O   0  0  0  0  0  1  0  0  0  0  0  0
  195.0470  174.4640  138.4290 C   0  0  0  0  0  0  0  0  0  0  0  0
  194.7320  173.2490  138.2860 O   0  0  0  0  0  0  0  0  0  0  0  0
  1 20  2  0  0  0  0
  2  6  1  0  0  0  0
  2 17  1  0  0  0  0
  3  4  1  0  0  0  0
  3  6  2  0  0  0  0
  6 12  1  0  0  0  0
  7 17  1  0  0  0  0
  7  1  1  0  0  0  0
  9  5  2  0  0  0  0
  9  8  1  0  0  0  0
 10  2  2  0  0  0  0
 11 19  1  0  0  0  0
 12 11  2  0  0  0  0
 13 14  2  0  0  0  0
 13  9  1  0  0  0  0
 14 16  1  0  0  0  0
 15  3  1  0  0  0  0
 16  8  2  0  0  0  0
 18 10  1  0  0  0  0
 19 23  1  1  0  0  0
 19  5  1  0  0  0  0
 20 37  1  0  0  0  0
 20 14  1  0  0  0  0
 21 15  2  0  0  0  0
 21 10  1  0  0  0  0
 22 24  1  0  0  0  0
 23 22  3  0  0  0  0
 24 28  1  0  0  0  0
 26 25  2  0  0  0  0
 26 28  1  0  0  0  0
 26 29  1  0  0  0  0
 27 26  2  0  0  0  0
 29 28  1  1  0  0  0
 29 33  1  0  0  0  0
 31 30  1  6  0  0  0
 31 36  1  0  0  0  0
 32 31  1  0  0  0  0
 33 32  1  1  0  0  0
 33 34  1  0  0  0  0
 34 35  1  0  0  0  0
 36 35  1  0  0  0  0
 38 37  1  0  0  0  0
 38 40  1  0  0  0  0
 40 39  1  0  0  0  0
 41 40  2  0  0  0  0
M  END
>  <MODEL>
5

>  <REMARK>
 VINA RESULT:      -6.9      5.231     10.937
  Name = 
  7 active torsions:
  status: ('A' for Active; 'I' for Inactive)
    1  A    between atoms: N_3  and  O_31
    2  A    between atoms: N_3  and  C_39
    3  A    between atoms: C_14  and  C_35
    4  A    between atoms: C_15  and  N_34
    5  A    between atoms: N_27  and  C_35
    6  A    between atoms: C_28  and  O_31
    7  A    between atoms: C_37  and  C_40
                            x       y       z     vdW  Elec       q    Type
                         _______ _______ _______ _____ _____    ______ ____

>  <TORSDO>
F 7

$$$$
=
 OpenBabel11042412383D

 41 45  0  0  1  0  0  0  0  0999 V2000
  190.7010  178.6610  144.4350 C   0  0  0  0  0  3  0  0  0  0  0  0
  190.5750  177.4860  140.5680 C   0  0  0  0  0  0  0  0  0  0  0  0
  189.2900  177.7300  138.5090 C   0  0  0  0  0  0  0  0  0  0  0  0
  188.0960  178.1530  137.7290 C   0  0  0  0  0  1  0  0  0  0  0  0
  185.7190  177.9860  142.4750 C   0  0  0  0  0  3  0  0  0  0  0  0
  189.3760  177.8740  139.9160 C   0  0  0  0  0  0  0  0  0  0  0  0
  190.5840  179.2100  142.7280 S   0  0  0  0  0  0  0  0  0  0  0  0
  186.4360  176.7520  144.5070 C   0  0  0  0  0  3  0  0  0  0  0  0
  186.5970  177.7330  143.4530 C   0  0  0  0  0  0  0  0  0  0  0  0
  191.6190  176.9340  139.8090 C   0  0  0  0  0  0  0  0  0  0  0  0
  186.9790  178.4570  140.3970 C   0  0  0  0  0  3  0  0  0  0  0  0
  188.2610  178.3910  140.7460 C   0  0  0  0  0  3  0  0  0  0  0  0
  187.8650  178.3500  143.6040 N   0  0  0  0  0  0  0  0  0  0  0  0
  188.3870  177.7500  144.6250 C   0  0  0  0  0  0  0  0  0  0  0  0
  190.3320  177.2000  137.8190 N   0  0  0  0  0  0  0  0  0  0  0  0
  187.5160  176.7680  145.2190 N   0  0  0  0  0  0  0  0  0  0  0  0
  190.7060  177.5120  142.0700 C   0  0  0  0  0  2  0  0  0  0  0  0
  193.1170  176.3770  140.5510 Cl  0  0  0  0  0  0  0  0  0  0  0  0
  185.9490  178.9680  141.3570 C   0  0  1  0  0  3  0  0  0  0  0  0
  189.7430  178.0610  145.1550 C   0  0  0  0  0  0  0  0  0  0  0  0
  191.4760  176.8100  138.4290 C   0  0  0  0  0  3  0  0  0  0  0  0
  183.6550  179.2240  140.0060 C   0  0  0  0  0  0  0  0  0  0  0  0
  184.6870  179.1210  140.6240 C   0  0  0  0  0  0  0  0  0  0  0  0
  182.4230  179.3520  139.2160 C   0  0  0  0  0  2  0  0  0  0  0  0
  179.6840  181.2440  141.0610 O   0  0  0  0  0  0  0  0  0  0  0  0
  180.0910  180.2720  139.9870 S   0  0  0  0  0  0  0  0  0  0  0  0
  179.8920  178.8000  140.2390 O   0  0  0  0  0  0  0  0  0  0  0  0
  181.7490  180.6110  139.5190 N   0  0  0  0  0  0  0  0  0  0  0  0
  180.8370  180.8200  138.5010 N   0  0  2  0  0  0  0  0  0  0  0  0
  180.5450  181.2710  135.4440 C   0  0  0  0  0  1  0  0  0  0  0  0
  179.8660  182.5460  135.9160 C   0  0  1  0  0  3  0  0  0  0  0  0
  179.3720  182.4090  137.3630 C   0  0  0  0  0  2  0  0  0  0  0  0
  180.5290  182.2520  138.3690 C   0  0  2  0  0  3  0  0  0  0  0  0
  181.7690  183.0830  137.9640 C   0  0  0  0  0  2  0  0  0  0  0  0
  181.4190  184.2510  137.0510 C   0  0  0  0  0  2  0  0  0  0  0  0
  180.8120  183.7430  135.7360 C   0  0  0  0  0  2  0  0  0  0  0  0
  190.0960  177.6960  146.4880 N   0  0  0  0  0  2  0  0  0  0  0  0
  190.4720  176.4100  146.8270 O   0  0  0  0  0  0  0  0  0  0  0  0
  192.4190  176.7610  148.2280 O   0  0  0  0  0  1  0  0  0  0  0  0
  191.7950  176.1160  147.1600 C   0  0  0  0  0  0  0  0  0  0  0  0
  192.4310  175.2480  146.4990 O   0  0  0  0  0  0  0  0  0  0  0  0
  1 20  2  0  0  0  0
  2 17  1  0  0  0  0
  3  6  2  0  0  0  0
  4  3  1  0  0  0  0
  5  9  2  0  0  0  0
  6  2  1  0  0  0  0
  6 12  1  0  0  0  0
  7  1  1  0  0  0  0
  8 16  2  0  0  0  0
  9 13  1  0  0  0  0
  9  8  1  0  0  0  0
 10 18  1  0  0  0  0
 10  2  2  0  0  0  0
 11 12  2  0  0  0  0
 11 19  1  0  0  0  0
 13 14  2  0  0  0  0
 14 20  1  0  0  0  0
 14 16  1  0  0  0  0
 15 21  2  0  0  0  0
 15  3  1  0  0  0  0
 17  7  1  0  0  0  0
 19 23  1  6  0  0  0
 19  5  1  0  0  0  0
 20 37  1  0  0  0  0
 21 10  1  0  0  0  0
 22 23  3  0  0  0  0
 24 28  1  0  0  0  0
 24 22  1  0  0  0  0
 26 27  2  0  0  0  0
 26 25  2  0  0  0  0
 28 26  1  0  0  0  0
 29 28  1  1  0  0  0
 29 26  1  0  0  0  0
 31 30  1  1  0  0  0
 31 32  1  0  0  0  0
 33 32  1  6  0  0  0
 33 29  1  0  0  0  0
 34 33  1  0  0  0  0
 35 34  1  0  0  0  0
 36 31  1  0  0  0  0
 36 35  1  0  0  0  0
 37 38  1  0  0  0  0
 38 40  1  0  0  0  0
 40 39  1  0  0  0  0
 41 40  2  0  0  0  0
M  END
>  <MODEL>
6

>  <REMARK>
 VINA RESULT:      -6.7      4.816     10.165
  Name = 
  7 active torsions:
  status: ('A' for Active; 'I' for Inactive)
    1  A    between atoms: N_3  and  O_31
    2  A    between atoms: N_3  and  C_39
    3  A    between atoms: C_14  and  C_35
    4  A    between atoms: C_15  and  N_34
    5  A    between atoms: N_27  and  C_35
    6  A    between atoms: C_28  and  O_31
    7  A    between atoms: C_37  and  C_40
                            x       y       z     vdW  Elec       q    Type
                         _______ _______ _______ _____ _____    ______ ____

>  <TORSDO>
F 7

$$$$
=
 OpenBabel11042412383D

 41 45  0  0  1  0  0  0  0  0999 V2000
  192.3830  176.0130  136.4630 C   0  0  0  0  0  3  0  0  0  0  0  0
  189.0310  173.8490  135.8130 C   0  0  0  0  0  0  0  0  0  0  0  0
  186.6050  174.0380  135.6400 C   0  0  0  0  0  0  0  0  0  0  0  0
  185.3130  174.7600  135.7930 C   0  0  0  0  0  1  0  0  0  0  0  0
  188.0800  177.6820  139.2580 C   0  0  0  0  0  3  0  0  0  0  0  0
  187.8450  174.5940  136.0430 C   0  0  0  0  0  0  0  0  0  0  0  0
  190.8770  175.8810  135.4940 S   0  0  0  0  0  0  0  0  0  0  0  0
  190.1780  177.0800  140.4430 C   0  0  0  0  0  3  0  0  0  0  0  0
  189.3740  177.3380  139.2650 C   0  0  0  0  0  0  0  0  0  0  0  0
  188.9360  172.5730  135.2340 C   0  0  0  0  0  0  0  0  0  0  0  0
  186.9860  176.5700  137.3360 C   0  0  0  0  0  3  0  0  0  0  0  0
  187.9610  175.9090  136.7170 C   0  0  0  0  0  3  0  0  0  0  0  0
  190.1760  177.1180  138.1170 N   0  0  0  0  0  0  0  0  0  0  0  0
  191.3160  176.7370  138.5970 C   0  0  0  0  0  0  0  0  0  0  0  0
  186.5680  172.8040  135.0750 N   0  0  0  0  0  0  0  0  0  0  0  0
  191.3530  176.7230  140.0380 N   0  0  0  0  0  0  0  0  0  0  0  0
  190.3740  174.3250  136.3040 C   0  0  0  0  0  2  0  0  0  0  0  0
  190.3560  171.5650  134.9660 Cl  0  0  0  0  0  0  0  0  0  0  0  0
  187.2580  177.8800  138.0120 C   0  0  1  0  0  3  0  0  0  0  0  0
  192.4840  176.3760  137.7490 C   0  0  0  0  0  0  0  0  0  0  0  0
  187.6890  172.0760  134.8640 C   0  0  0  0  0  3  0  0  0  0  0  0
  184.8970  178.9080  138.7320 C   0  0  0  0  0  0  0  0  0  0  0  0
  185.9690  178.4570  138.4080 C   0  0  0  0  0  0  0  0  0  0  0  0
  183.5750  179.4420  139.0860 C   0  0  0  0  0  2  0  0  0  0  0  0
  180.6090  179.5110  136.7030 O   0  0  0  0  0  0  0  0  0  0  0  0
  181.1990  179.8380  138.0480 S   0  0  0  0  0  0  0  0  0  0  0  0
  181.6080  181.2610  138.3240 O   0  0  0  0  0  0  0  0  0  0  0  0
  182.5250  178.7300  138.3660 N   0  0  0  0  0  0  0  0  0  0  0  0
  181.4700  178.5930  139.2490 N   0  0  2  0  0  0  0  0  0  0  0  0
  179.8770  177.9250  141.8280 C   0  0  0  0  0  1  0  0  0  0  0  0
  179.0130  177.1620  140.8370 C   0  0  1  0  0  3  0  0  0  0  0  0
  179.2050  177.6920  139.4090 C   0  0  0  0  0  2  0  0  0  0  0  0
  180.6290  177.4450  138.8750 C   0  0  2  0  0  3  0  0  0  0  0  0
  181.2140  176.1030  139.3740 C   0  0  0  0  0  2  0  0  0  0  0  0
  180.1340  175.1070  139.7750 C   0  0  0  0  0  2  0  0  0  0  0  0
  179.3010  175.6560  140.9410 C   0  0  0  0  0  2  0  0  0  0  0  0
  193.8000  176.3750  138.3000 N   0  0  0  0  0  2  0  0  0  0  0  0
  194.6760  175.3210  138.1210 O   0  0  0  0  0  0  0  0  0  0  0  0
  196.1450  173.6510  139.0880 O   0  0  0  0  0  0  0  0  0  0  0  0
  195.4860  174.8790  139.1670 C   0  0  0  0  0  0  0  0  0  0  0  0
  195.6400  175.6030  140.1920 O   0  0  0  0  0  1  0  0  0  0  0  0
  1 20  2  0  0  0  0
  2  6  1  0  0  0  0
  2 17  1  0  0  0  0
  3  4  1  0  0  0  0
  3  6  2  0  0  0  0
  5  9  2  0  0  0  0
  6 12  1  0  0  0  0
  7 17  1  0  0  0  0
  7  1  1  0  0  0  0
  9  8  1  0  0  0  0
 10  2  2  0  0  0  0
 11 19  1  0  0  0  0
 12 11  2  0  0  0  0
 13 14  2  0  0  0  0
 13  9  1  0  0  0  0
 14 16  1  0  0  0  0
 15  3  1  0  0  0  0
 16  8  2  0  0  0  0
 18 10  1  0  0  0  0
 19 23  1  1  0  0  0
 19  5  1  0  0  0  0
 20 37  1  0  0  0  0
 20 14  1  0  0  0  0
 21 15  2  0  0  0  0
 21 10  1  0  0  0  0
 22 24  1  0  0  0  0
 23 22  3  0  0  0  0
 25 26  2  0  0  0  0
 26 27  2  0  0  0  0
 26 28  1  0  0  0  0
 26 29  1  0  0  0  0
 28 24  1  0  0  0  0
 29 28  1  6  0  0  0
 31 36  1  0  0  0  0
 31 30  1  1  0  0  0
 32 31  1  0  0  0  0
 33 29  1  0  0  0  0
 33 34  1  1  0  0  0
 33 32  1  0  0  0  0
 34 35  1  0  0  0  0
 35 36  1  0  0  0  0
 38 37  1  0  0  0  0
 38 40  1  0  0  0  0
 39 40  2  0  0  0  0
 40 41  1  0  0  0  0
M  END
>  <MODEL>
7

>  <REMARK>
 VINA RESULT:      -6.7      5.444     10.528
  Name = 
  7 active torsions:
  status: ('A' for Active; 'I' for Inactive)
    1  A    between atoms: N_3  and  O_31
    2  A    between atoms: N_3  and  C_39
    3  A    between atoms: C_14  and  C_35
    4  A    between atoms: C_15  and  N_34
    5  A    between atoms: N_27  and  C_35
    6  A    between atoms: C_28  and  O_31
    7  A    between atoms: C_37  and  C_40
                            x       y       z     vdW  Elec       q    Type
                         _______ _______ _______ _____ _____    ______ ____

>  <TORSDO>
F 7

$$$$
=
 OpenBabel11042412383D

 41 45  0  0  1  0  0  0  0  0999 V2000
  186.7700  177.5050  137.5150 C   0  0  0  0  0  3  0  0  0  0  0  0
  189.4650  177.4340  140.5280 C   0  0  0  0  0  0  0  0  0  0  0  0
  191.8600  177.5030  140.9890 C   0  0  0  0  0  0  0  0  0  0  0  0
  193.2920  177.4470  140.5920 C   0  0  0  0  0  1  0  0  0  0  0  0
  191.3620  174.9290  136.3330 C   0  0  0  0  0  3  0  0  0  0  0  0
  190.8020  177.3140  140.0650 C   0  0  0  0  0  0  0  0  0  0  0  0
  188.1920  178.3260  138.2430 S   0  0  0  0  0  0  0  0  0  0  0  0
  189.1830  173.7620  136.0970 C   0  0  0  0  0  3  0  0  0  0  0  0
  190.0230  174.9180  136.3370 C   0  0  0  0  0  0  0  0  0  0  0  0
  189.2330  177.6920  141.8890 C   0  0  0  0  0  0  0  0  0  0  0  0
  192.1340  176.4710  138.1090 C   0  0  0  0  0  3  0  0  0  0  0  0
  191.0230  176.9750  138.6390 C   0  0  0  0  0  3  0  0  0  0  0  0
  189.1890  176.0290  136.6220 N   0  0  0  0  0  0  0  0  0  0  0  0
  187.9910  175.5400  136.5840 C   0  0  0  0  0  0  0  0  0  0  0  0
  191.5820  177.7600  142.2930 N   0  0  0  0  0  0  0  0  0  0  0  0
  187.9540  174.1410  136.2410 N   0  0  0  0  0  0  0  0  0  0  0  0
  188.2870  177.1470  139.6320 C   0  0  0  0  0  2  0  0  0  0  0  0
  187.6030  177.8000  142.5500 Cl  0  0  0  0  0  0  0  0  0  0  0  0
  192.2040  176.1360  136.6500 C   0  0  1  0  0  3  0  0  0  0  0  0
  186.7670  176.3480  136.8400 C   0  0  0  0  0  0  0  0  0  0  0  0
  190.3120  177.8620  142.7510 C   0  0  0  0  0  3  0  0  0  0  0  0
  194.7530  175.5680  136.0740 C   0  0  0  0  0  0  0  0  0  0  0  0
  193.5980  175.8110  136.3290 C   0  0  0  0  0  0  0  0  0  0  0  0
  196.1590  175.3080  135.7360 C   0  0  0  0  0  2  0  0  0  0  0  0
  199.0930  173.6700  137.5220 O   0  0  0  0  0  0  0  0  0  0  0  0
  198.4080  174.0570  136.2390 S   0  0  0  0  0  0  0  0  0  0  0  0
  198.9310  175.2480  135.4790 O   0  0  0  0  0  0  0  0  0  0  0  0
  196.6860  174.2140  136.5440 N   0  0  0  0  0  0  0  0  0  0  0  0
  196.9980  173.1930  135.6650 N   0  0  2  0  0  0  0  0  0  0  0  0
  194.2390  171.9700  134.9420 C   0  0  0  0  0  1  0  0  0  0  0  0
  194.9180  170.6990  135.4260 C   0  0  1  0  0  3  0  0  0  0  0  0
  196.4470  170.8320  135.3730 C   0  0  0  0  0  2  0  0  0  0  0  0
  196.9810  171.8930  136.3540 C   0  0  2  0  0  3  0  0  0  0  0  0
  196.1640  171.9370  137.6660 C   0  0  0  0  0  2  0  0  0  0  0  0
  195.4310  170.6310  137.9440 C   0  0  0  0  0  2  0  0  0  0  0  0
  194.4150  170.3370  136.8320 C   0  0  0  0  0  2  0  0  0  0  0  0
  185.4950  175.8910  136.3840 N   0  0  0  0  0  2  0  0  0  0  0  0
  184.6360  175.1680  137.1910 O   0  0  0  0  0  0  0  0  0  0  0  0
  183.9670  173.2210  135.9110 O   0  0  0  0  0  0  0  0  0  0  0  0
  184.5260  173.7830  137.0590 C   0  0  0  0  0  0  0  0  0  0  0  0
  184.9490  173.0290  137.9790 O   0  0  0  0  0  1  0  0  0  0  0  0
  1  7  1  0  0  0  0
  2 10  1  0  0  0  0
  3 15  2  0  0  0  0
  4  3  1  0  0  0  0
  5  9  2  0  0  0  0
  5 19  1  0  0  0  0
  6  2  2  0  0  0  0
  6  3  1  0  0  0  0
  7 17  1  0  0  0  0
  8 16  2  0  0  0  0
  8  9  1  0  0  0  0
  9 13  1  0  0  0  0
 10 18  1  0  0  0  0
 10 21  2  0  0  0  0
 11 12  2  0  0  0  0
 12  6  1  0  0  0  0
 14 13  2  0  0  0  0
 14 20  1  0  0  0  0
 15 21  1  0  0  0  0
 16 14  1  0  0  0  0
 17  2  1  0  0  0  0
 19 23  1  1  0  0  0
 19 11  1  0  0  0  0
 20  1  2  0  0  0  0
 22 23  3  0  0  0  0
 24 22  1  0  0  0  0
 24 28  1  0  0  0  0
 26 28  1  0  0  0  0
 26 25  2  0  0  0  0
 27 26  2  0  0  0  0
 29 26  1  0  0  0  0
 29 33  1  0  0  0  0
 29 28  1  1  0  0  0
 31 30  1  1  0  0  0
 31 36  1  0  0  0  0
 32 31  1  0  0  0  0
 33 32  1  6  0  0  0
 33 34  1  0  0  0  0
 34 35  1  0  0  0  0
 36 35  1  0  0  0  0
 37 20  1  0  0  0  0
 37 38  1  0  0  0  0
 39 40  2  0  0  0  0
 40 38  1  0  0  0  0
 40 41  1  0  0  0  0
M  END
>  <MODEL>
8

>  <REMARK>
 VINA RESULT:      -6.6      4.152      6.509
  Name = 
  7 active torsions:
  status: ('A' for Active; 'I' for Inactive)
    1  A    between atoms: N_3  and  O_31
    2  A    between atoms: N_3  and  C_39
    3  A    between atoms: C_14  and  C_35
    4  A    between atoms: C_15  and  N_34
    5  A    between atoms: N_27  and  C_35
    6  A    between atoms: C_28  and  O_31
    7  A    between atoms: C_37  and  C_40
                            x       y       z     vdW  Elec       q    Type
                         _______ _______ _______ _____ _____    ______ ____

>  <TORSDO>
F 7

$$$$
=
 OpenBabel11042412383D

 41 45  0  0  1  0  0  0  0  0999 V2000
  191.1610  177.5560  140.7470 C   0  0  0  0  0  3  0  0  0  0  0  0
  189.0910  175.8210  137.7380 C   0  0  0  0  0  0  0  0  0  0  0  0
  187.1630  176.1380  136.2780 C   0  0  0  0  0  0  0  0  0  0  0  0
  185.9070  176.8190  135.8630 C   0  0  0  0  0  1  0  0  0  0  0  0
  185.8360  178.4070  140.9290 C   0  0  0  0  0  3  0  0  0  0  0  0
  187.8760  176.4960  137.4490 C   0  0  0  0  0  0  0  0  0  0  0  0
  190.4740  177.7860  139.1040 S   0  0  0  0  0  0  0  0  0  0  0  0
  187.0020  177.3920  142.8720 C   0  0  0  0  0  3  0  0  0  0  0  0
  186.9480  178.0350  141.5740 C   0  0  0  0  0  0  0  0  0  0  0  0
  189.5250  174.7960  136.8830 C   0  0  0  0  0  0  0  0  0  0  0  0
  186.1610  177.9940  138.5100 C   0  0  0  0  0  3  0  0  0  0  0  0
  187.4020  177.5280  138.4020 C   0  0  0  0  0  3  0  0  0  0  0  0
  188.2710  178.1590  141.0800 N   0  0  0  0  0  0  0  0  0  0  0  0
  189.0020  177.6080  141.9950 C   0  0  0  0  0  0  0  0  0  0  0  0
  187.6300  175.1450  135.4780 N   0  0  0  0  0  0  0  0  0  0  0  0
  188.2450  177.1410  143.1280 N   0  0  0  0  0  0  0  0  0  0  0  0
  189.8530  176.0730  139.0140 C   0  0  0  0  0  2  0  0  0  0  0  0
  190.9930  173.8750  137.2030 Cl  0  0  0  0  0  0  0  0  0  0  0  0
  185.8140  179.0140  139.5520 C   0  0  1  0  0  3  0  0  0  0  0  0
  190.4830  177.4920  141.9020 C   0  0  0  0  0  0  0  0  0  0  0  0
  188.7790  174.4830  135.7490 C   0  0  0  0  0  3  0  0  0  0  0  0
  183.3220  179.8700  139.0940 C   0  0  0  0  0  0  0  0  0  0  0  0
  184.4490  179.4820  139.2860 C   0  0  0  0  0  0  0  0  0  0  0  0
  181.9350  180.3080  138.8860 C   0  0  0  0  0  2  0  0  0  0  0  0
  178.9310  179.6510  136.6450 O   0  0  0  0  0  0  0  0  0  0  0  0
  179.5650  179.6060  138.0080 S   0  0  0  0  0  0  0  0  0  0  0  0
  179.1750  180.6560  139.0150 O   0  0  0  0  0  0  0  0  0  0  0  0
  181.3100  179.5380  137.8160 N   0  0  0  0  0  0  0  0  0  0  0  0
  180.7770  178.4080  138.4080 N   0  0  2  0  0  0  0  0  0  0  0  0
  182.6810  176.1880  139.4480 C   0  0  0  0  0  1  0  0  0  0  0  0
  181.8640  175.3390  138.4870 C   0  0  1  0  0  3  0  0  0  0  0  0
  180.5070  175.9900  138.1870 C   0  0  0  0  0  2  0  0  0  0  0  0
  180.6480  177.3210  137.4240 C   0  0  2  0  0  3  0  0  0  0  0  0
  181.8250  177.2970  136.4200 C   0  0  0  0  0  2  0  0  0  0  0  0
  182.2040  175.8830  135.9980 C   0  0  0  0  0  2  0  0  0  0  0  0
  182.6740  175.0660  137.2090 C   0  0  0  0  0  2  0  0  0  0  0  0
  191.2630  177.2740  143.0760 N   0  0  0  0  0  2  0  0  0  0  0  0
  190.8400  176.4480  144.1010 O   0  0  0  0  0  0  0  0  0  0  0  0
  192.0550  176.7720  146.1740 O   0  0  0  0  0  1  0  0  0  0  0  0
  190.8810  176.8780  145.4280 C   0  0  0  0  0  0  0  0  0  0  0  0
  189.8500  177.3810  145.9570 O   0  0  0  0  0  0  0  0  0  0  0  0
  1 20  2  0  0  0  0
  2 17  1  0  0  0  0
  3  6  2  0  0  0  0
  4  3  1  0  0  0  0
  5  9  2  0  0  0  0
  6  2  1  0  0  0  0
  6 12  1  0  0  0  0
  7  1  1  0  0  0  0
  8 16  2  0  0  0  0
  9  8  1  0  0  0  0
 10 18  1  0  0  0  0
 10  2  2  0  0  0  0
 11 19  1  0  0  0  0
 12 11  2  0  0  0  0
 13  9  1  0  0  0  0
 13 14  2  0  0  0  0
 14 16  1  0  0  0  0
 15 21  2  0  0  0  0
 15  3  1  0  0  0  0
 17  7  1  0  0  0  0
 19 23  1  6  0  0  0
 19  5  1  0  0  0  0
 20 14  1  0  0  0  0
 20 37  1  0  0  0  0
 21 10  1  0  0  0  0
 22 23  3  0  0  0  0
 24 22  1  0  0  0  0
 25 26  2  0  0  0  0
 26 29  1  0  0  0  0
 26 27  2  0  0  0  0
 28 26  1  0  0  0  0
 28 24  1  0  0  0  0
 29 28  1  6  0  0  0
 31 30  1  1  0  0  0
 32 31  1  0  0  0  0
 33 34  1  6  0  0  0
 33 32  1  0  0  0  0
 33 29  1  0  0  0  0
 35 34  1  0  0  0  0
 35 36  1  0  0  0  0
 36 31  1  0  0  0  0
 37 38  1  0  0  0  0
 38 40  1  0  0  0  0
 40 41  2  0  0  0  0
 40 39  1  0  0  0  0
M  END
>  <MODEL>
9

>  <REMARK>
 VINA RESULT:      -6.5      5.191      9.299
  Name = 
  7 active torsions:
  status: ('A' for Active; 'I' for Inactive)
    1  A    between atoms: N_3  and  O_31
    2  A    between atoms: N_3  and  C_39
    3  A    between atoms: C_14  and  C_35
    4  A    between atoms: C_15  and  N_34
    5  A    between atoms: N_27  and  C_35
    6  A    between atoms: C_28  and  O_31
    7  A    between atoms: C_37  and  C_40
                            x       y       z     vdW  Elec       q    Type
                         _______ _______ _______ _____ _____    ______ ____

>  <TORSDO>
F 7

$$$$
