=
 OpenBabel11042410453D

 38 43  0  0  1  0  0  0  0  0999 V2000
  182.9160  179.7570  138.9330 C   0  0  0  0  0  0  0  0  0  0  0  0
  184.9730  179.1080  140.2690 C   0  0  2  0  0  3  0  0  0  0  0  0
  182.1510  180.8830  138.6280 C   0  0  0  0  0  3  0  0  0  0  0  0
  184.7050  176.9810  138.6490 C   0  0  1  0  0  3  0  0  0  0  0  0
  181.6070  178.4960  137.2490 C   0  0  0  0  0  0  0  0  0  0  0  0
  183.8220  176.4260  137.5890 N   0  0  0  0  0  0  0  0  0  0  0  0
  185.4570  178.2330  138.1780 C   0  0  1  0  0  3  0  0  0  0  0  0
  183.4330  175.9960  136.3070 C   0  0  0  0  0  0  0  0  0  0  0  0
  182.6530  178.5110  138.2690 C   0  0  0  0  0  0  0  0  0  0  0  0
  180.8900  179.6710  136.9920 C   0  0  0  0  0  3  0  0  0  0  0  0
  182.2910  176.5390  136.0900 C   0  0  0  0  0  0  0  0  0  0  0  0
  183.3280  177.2020  138.7740 C   0  0  2  0  0  3  0  0  0  0  0  0
  185.9500  179.0090  139.2530 O   0  0  0  0  0  0  0  0  0  0  0  0
  183.9110  179.9800  139.9010 O   0  0  0  0  0  0  0  0  0  0  0  0
  181.1470  180.8450  137.6770 C   0  0  0  0  0  3  0  0  0  0  0  0
  181.3020  177.3410  136.3270 C   0  0  0  0  0  0  0  0  0  0  0  0
  183.5190  173.5570  136.6960 C   0  0  0  0  0  0  0  0  0  0  0  0
  185.3390  174.6030  135.5280 C   0  0  0  0  0  2  0  0  0  0  0  0
  184.9170  172.7210  137.4070 S   0  0  0  0  0  0  0  0  0  0  0  0
  182.3790  173.1610  136.8750 O   0  0  0  0  0  0  0  0  0  0  0  0
  185.8280  173.2150  135.9200 C   0  0  0  0  0  2  0  0  0  0  0  0
  183.8310  174.6620  135.7450 C   0  0  2  0  0  3  0  0  0  0  0  0
  179.6840  177.5810  134.5940 O   0  0  0  0  0  0  0  0  0  0  0  0
  179.9700  177.0980  135.7210 C   0  0  0  0  0  0  0  0  0  0  0  0
  178.9310  176.3000  136.4360 C   0  0  0  0  0  1  0  0  0  0  0  0
  187.3380  178.9540  136.9000 O   0  0  0  0  0  1  0  0  0  0  0  0
  186.6080  177.8260  137.2750 C   0  0  0  0  0  2  0  0  0  0  0  0
  185.5760  179.5530  141.4840 O   0  0  0  0  0  0  0  0  0  0  0  0
  185.9880  177.8840  144.7690 C   0  0  0  0  0  3  0  0  0  0  0  0
  187.5950  176.9520  143.2210 C   0  0  0  0  0  0  0  0  0  0  0  0
  187.1170  177.7980  142.2170 C   0  0  0  0  0  3  0  0  0  0  0  0
  185.5060  178.7370  143.7690 C   0  0  0  0  0  0  0  0  0  0  0  0
  187.0300  176.9940  144.4970 C   0  0  0  0  0  3  0  0  0  0  0  0
  186.0700  178.6970  142.4800 C   0  0  0  0  0  0  0  0  0  0  0  0
  188.6040  176.0890  142.9550 F   0  0  0  0  0  0  0  0  0  0  0  0
  184.3820  179.6680  144.0910 C   0  0  0  0  0  2  0  0  0  0  0  0
  183.0850  178.9090  144.3300 C   0  0  0  0  0  2  0  0  0  0  0  0
  182.1760  179.0030  143.1190 C   0  0  0  0  0  1  0  0  0  0  0  0
  1 14  1  0  0  0  0
  2 28  1  1  0  0  0
  3  1  1  0  0  0  0
  4  6  1  6  0  0  0
  4 12  1  0  0  0  0
  5  9  1  0  0  0  0
  6 12  1  0  0  0  0
  7 27  1  6  0  0  0
  7  4  1  0  0  0  0
  7 13  1  0  0  0  0
  8  6  1  0  0  0  0
  9  1  2  0  0  0  0
 10  5  2  0  0  0  0
 10 15  1  0  0  0  0
 11  8  2  0  0  0  0
 11 16  2  0  0  0  0
 12  9  1  6  0  0  0
 13  2  1  0  0  0  0
 14  2  1  0  0  0  0
 15  3  2  0  0  0  0
 16  5  1  0  0  0  0
 17 20  2  0  0  0  0
 17 19  1  0  0  0  0
 18 22  1  0  0  0  0
 18 21  1  0  0  0  0
 21 19  1  0  0  0  0
 22  8  1  1  0  0  0
 22 17  1  0  0  0  0
 23 24  2  0  0  0  0
 24 16  1  0  0  0  0
 24 25  1  0  0  0  0
 26 27  1  0  0  0  0
 28 34  1  0  0  0  0
 30 33  2  0  0  0  0
 31 34  2  0  0  0  0
 31 30  1  0  0  0  0
 32 36  1  0  0  0  0
 32 29  2  0  0  0  0
 33 29  1  0  0  0  0
 34 32  1  0  0  0  0
 35 30  1  0  0  0  0
 36 37  1  0  0  0  0
 38 37  1  0  0  0  0
M  END
>  <MODEL>
1

>  <REMARK>
 VINA RESULT:      -7.5      0.000      0.000
  Name = 
  7 active torsions:
  status: ('A' for Active; 'I' for Inactive)
    1  A    between atoms: C_4  and  O_12
    2  A    between atoms: C_5  and  C_36
    3  A    between atoms: O_12  and  C_23
    4  A    between atoms: C_17  and  C_35
    5  A    between atoms: C_18  and  C_27
    6  A    between atoms: C_22  and  C_38
    7  A    between atoms: C_24  and  C_27
                            x       y       z     vdW  Elec       q    Type
                         _______ _______ _______ _____ _____    ______ ____

>  <TORSDO>
F 7

$$$$
=
 OpenBabel11042410453D

 38 43  0  0  1  0  0  0  0  0999 V2000
  186.3250  178.4450  141.5990 C   0  0  0  0  0  0  0  0  0  0  0  0
  188.4160  178.4830  140.1610 C   0  0  2  0  0  3  0  0  0  0  0  0
  184.9520  178.2310  141.4820 C   0  0  0  0  0  3  0  0  0  0  0  0
  189.4730  178.2780  142.6220 C   0  0  1  0  0  3  0  0  0  0  0  0
  186.0460  178.4580  144.0610 C   0  0  0  0  0  0  0  0  0  0  0  0
  189.0880  178.2270  144.0570 N   0  0  0  0  0  0  0  0  0  0  0  0
  189.0210  177.0250  141.8580 C   0  0  1  0  0  3  0  0  0  0  0  0
  188.9140  177.6860  145.3450 C   0  0  0  0  0  0  0  0  0  0  0  0
  186.9200  178.5920  142.8980 C   0  0  0  0  0  0  0  0  0  0  0  0
  184.6790  178.2330  143.8620 C   0  0  0  0  0  3  0  0  0  0  0  0
  187.7110  177.9750  145.6830 C   0  0  0  0  0  0  0  0  0  0  0  0
  188.3950  179.0720  143.0290 C   0  0  2  0  0  3  0  0  0  0  0  0
  188.9860  177.2250  140.4580 O   0  0  0  0  0  0  0  0  0  0  0  0
  187.0090  178.4910  140.3710 O   0  0  0  0  0  0  0  0  0  0  0  0
  184.1340  178.1330  142.5930 C   0  0  0  0  0  3  0  0  0  0  0  0
  186.5050  178.4070  145.4970 C   0  0  0  0  0  0  0  0  0  0  0  0
  191.3240  177.2310  145.6470 C   0  0  0  0  0  0  0  0  0  0  0  0
  189.7800  176.4120  147.2960 C   0  0  0  0  0  2  0  0  0  0  0  0
  191.9890  175.6150  145.9760 S   0  0  0  0  0  0  0  0  0  0  0  0
  191.9500  178.0620  145.0090 O   0  0  0  0  0  0  0  0  0  0  0  0
  191.0970  175.6920  147.5530 C   0  0  0  0  0  2  0  0  0  0  0  0
  190.0400  177.5620  146.3290 C   0  0  2  0  0  3  0  0  0  0  0  0
  184.5200  178.3280  146.8140 O   0  0  0  0  0  0  0  0  0  0  0  0
  185.6660  178.8240  146.6470 C   0  0  0  0  0  0  0  0  0  0  0  0
  186.1410  179.8550  147.6170 C   0  0  0  0  0  1  0  0  0  0  0  0
  191.2590  176.3300  142.3020 O   0  0  0  0  0  1  0  0  0  0  0  0
  189.9480  175.8680  142.1830 C   0  0  0  0  0  2  0  0  0  0  0  0
  188.7140  178.8470  138.8130 O   0  0  0  0  0  0  0  0  0  0  0  0
  188.3630  176.6720  135.8320 C   0  0  0  0  0  3  0  0  0  0  0  0
  190.6080  176.4390  136.6990 C   0  0  0  0  0  0  0  0  0  0  0  0
  190.3090  177.3490  137.7150 C   0  0  0  0  0  3  0  0  0  0  0  0
  188.0550  177.5820  136.8480 C   0  0  0  0  0  0  0  0  0  0  0  0
  189.6350  176.1000  135.7560 C   0  0  0  0  0  3  0  0  0  0  0  0
  189.0320  177.9300  137.8000 C   0  0  0  0  0  0  0  0  0  0  0  0
  191.8430  175.8870  136.6270 F   0  0  0  0  0  0  0  0  0  0  0  0
  186.6870  178.1850  136.8930 C   0  0  0  0  0  2  0  0  0  0  0  0
  185.6460  177.1620  137.3260 C   0  0  0  0  0  2  0  0  0  0  0  0
  184.4400  177.8500  137.9370 C   0  0  0  0  0  1  0  0  0  0  0  0
  1  9  1  0  0  0  0
  2 28  1  6  0  0  0
  2 14  1  0  0  0  0
  2 13  1  0  0  0  0
  3  1  2  0  0  0  0
  3 15  1  0  0  0  0
  4 12  1  0  0  0  0
  4  6  1  1  0  0  0
  5 16  1  0  0  0  0
  6  8  1  0  0  0  0
  7 27  1  6  0  0  0
  7  4  1  0  0  0  0
  8 11  2  0  0  0  0
  9  5  2  0  0  0  0
 10  5  1  0  0  0  0
 12  9  1  6  0  0  0
 12  6  1  0  0  0  0
 13  7  1  0  0  0  0
 14  1  1  0  0  0  0
 15 10  2  0  0  0  0
 16 11  2  0  0  0  0
 16 24  1  0  0  0  0
 17 19  1  0  0  0  0
 17 22  1  0  0  0  0
 18 21  1  0  0  0  0
 19 21  1  0  0  0  0
 20 17  2  0  0  0  0
 22  8  1  6  0  0  0
 22 18  1  0  0  0  0
 24 23  2  0  0  0  0
 24 25  1  0  0  0  0
 27 26  1  0  0  0  0
 29 32  1  0  0  0  0
 30 31  2  0  0  0  0
 31 34  1  0  0  0  0
 32 36  1  0  0  0  0
 32 34  2  0  0  0  0
 33 29  2  0  0  0  0
 33 30  1  0  0  0  0
 34 28  1  0  0  0  0
 35 30  1  0  0  0  0
 36 37  1  0  0  0  0
 37 38  1  0  0  0  0
M  END
>  <MODEL>
2

>  <REMARK>
 VINA RESULT:      -7.5      4.216      8.819
  Name = 
  7 active torsions:
  status: ('A' for Active; 'I' for Inactive)
    1  A    between atoms: C_4  and  O_12
    2  A    between atoms: C_5  and  C_36
    3  A    between atoms: O_12  and  C_23
    4  A    between atoms: C_17  and  C_35
    5  A    between atoms: C_18  and  C_27
    6  A    between atoms: C_22  and  C_38
    7  A    between atoms: C_24  and  C_27
                            x       y       z     vdW  Elec       q    Type
                         _______ _______ _______ _____ _____    ______ ____

>  <TORSDO>
F 7

$$$$
=
 OpenBabel11042410453D

 38 43  0  0  1  0  0  0  0  0999 V2000
  186.3660  178.4090  140.8390 C   0  0  0  0  0  0  0  0  0  0  0  0
  188.5780  178.5860  139.6080 C   0  0  2  0  0  3  0  0  0  0  0  0
  185.0300  178.0920  140.5950 C   0  0  0  0  0  3  0  0  0  0  0  0
  189.4030  178.4900  142.1630 C   0  0  1  0  0  3  0  0  0  0  0  0
  185.8480  178.4320  143.2620 C   0  0  0  0  0  0  0  0  0  0  0  0
  188.8840  178.4290  143.5560 N   0  0  0  0  0  0  0  0  0  0  0  0
  189.1200  177.1980  141.3840 C   0  0  1  0  0  3  0  0  0  0  0  0
  188.6270  177.8920  144.8310 C   0  0  0  0  0  0  0  0  0  0  0  0
  186.8190  178.6170  142.1860 C   0  0  0  0  0  0  0  0  0  0  0  0
  184.5270  178.1030  142.9370 C   0  0  0  0  0  3  0  0  0  0  0  0
  187.3780  178.0940  145.0460 C   0  0  0  0  0  0  0  0  0  0  0  0
  188.2350  179.2070  142.4490 C   0  0  2  0  0  3  0  0  0  0  0  0
  189.2070  177.3770  139.9830 O   0  0  0  0  0  0  0  0  0  0  0  0
  187.1600  178.4910  139.6820 O   0  0  0  0  0  0  0  0  0  0  0  0
  184.1170  177.9460  141.6240 C   0  0  0  0  0  3  0  0  0  0  0  0
  186.1670  178.4320  144.7370 C   0  0  0  0  0  0  0  0  0  0  0  0
  191.0110  177.5500  145.3810 C   0  0  0  0  0  0  0  0  0  0  0  0
  189.3470  176.7560  146.9210 C   0  0  0  0  0  2  0  0  0  0  0  0
  191.6980  175.9810  145.8590 S   0  0  0  0  0  0  0  0  0  0  0  0
  191.6650  178.3710  144.7590 O   0  0  0  0  0  0  0  0  0  0  0  0
  190.6580  176.1040  147.3390 C   0  0  0  0  0  2  0  0  0  0  0  0
  189.6570  177.8640  145.9210 C   0  0  2  0  0  3  0  0  0  0  0  0
  184.0820  179.3090  145.4850 O   0  0  0  0  0  0  0  0  0  0  0  0
  185.1920  178.8000  145.7920 C   0  0  0  0  0  0  0  0  0  0  0  0
  185.5060  178.6000  147.2380 C   0  0  0  0  0  1  0  0  0  0  0  0
  191.3660  176.6640  141.9850 O   0  0  0  0  0  1  0  0  0  0  0  0
  190.0930  176.1170  141.8190 C   0  0  0  0  0  2  0  0  0  0  0  0
  188.9780  178.9550  138.2890 O   0  0  0  0  0  0  0  0  0  0  0  0
  189.1720  176.5120  135.5070 C   0  0  0  0  0  3  0  0  0  0  0  0
  187.1240  177.7780  135.2840 C   0  0  0  0  0  0  0  0  0  0  0  0
  187.4470  178.5010  136.4340 C   0  0  0  0  0  3  0  0  0  0  0  0
  189.5040  177.2350  136.6580 C   0  0  0  0  0  0  0  0  0  0  0  0
  187.9860  176.7820  134.8200 C   0  0  0  0  0  3  0  0  0  0  0  0
  188.6380  178.2380  137.1320 C   0  0  0  0  0  0  0  0  0  0  0  0
  185.9720  178.0390  134.6210 F   0  0  0  0  0  0  0  0  0  0  0  0
  190.7760  176.9130  137.3750 C   0  0  0  0  0  2  0  0  0  0  0  0
  190.8170  175.4510  137.7980 C   0  0  0  0  0  2  0  0  0  0  0  0
  192.1580  174.8310  137.4550 C   0  0  0  0  0  1  0  0  0  0  0  0
  1  9  1  0  0  0  0
  2 28  1  6  0  0  0
  2 14  1  0  0  0  0
  2 13  1  0  0  0  0
  3  1  2  0  0  0  0
  3 15  1  0  0  0  0
  4 12  1  0  0  0  0
  4  6  1  1  0  0  0
  5 16  1  0  0  0  0
  6  8  1  0  0  0  0
  7 27  1  1  0  0  0
  7  4  1  0  0  0  0
  8 11  2  0  0  0  0
  9  5  2  0  0  0  0
 10  5  1  0  0  0  0
 12  9  1  6  0  0  0
 12  6  1  0  0  0  0
 13  7  1  0  0  0  0
 14  1  1  0  0  0  0
 15 10  2  0  0  0  0
 16 11  2  0  0  0  0
 16 24  1  0  0  0  0
 17 19  1  0  0  0  0
 17 22  1  0  0  0  0
 18 21  1  0  0  0  0
 19 21  1  0  0  0  0
 20 17  2  0  0  0  0
 22  8  1  6  0  0  0
 22 18  1  0  0  0  0
 23 24  2  0  0  0  0
 24 25  1  0  0  0  0
 27 26  1  0  0  0  0
 29 32  1  0  0  0  0
 30 31  2  0  0  0  0
 31 34  1  0  0  0  0
 32 34  2  0  0  0  0
 32 36  1  0  0  0  0
 33 30  1  0  0  0  0
 33 29  2  0  0  0  0
 34 28  1  0  0  0  0
 35 30  1  0  0  0  0
 36 37  1  0  0  0  0
 38 37  1  0  0  0  0
M  END
>  <MODEL>
3

>  <REMARK>
 VINA RESULT:      -7.4      4.815      8.900
  Name = 
  7 active torsions:
  status: ('A' for Active; 'I' for Inactive)
    1  A    between atoms: C_4  and  O_12
    2  A    between atoms: C_5  and  C_36
    3  A    between atoms: O_12  and  C_23
    4  A    between atoms: C_17  and  C_35
    5  A    between atoms: C_18  and  C_27
    6  A    between atoms: C_22  and  C_38
    7  A    between atoms: C_24  and  C_27
                            x       y       z     vdW  Elec       q    Type
                         _______ _______ _______ _____ _____    ______ ____

>  <TORSDO>
F 7

$$$$
=
 OpenBabel11042410453D

 38 43  0  0  1  0  0  0  0  0999 V2000
  186.6140  178.1350  144.2840 C   0  0  0  0  0  0  0  0  0  0  0  0
  188.6670  177.0400  145.2960 C   0  0  2  0  0  3  0  0  0  0  0  0
  185.5030  178.8840  144.6710 C   0  0  0  0  0  3  0  0  0  0  0  0
  189.3350  177.1090  142.6940 C   0  0  1  0  0  3  0  0  0  0  0  0
  185.9990  178.5650  141.9230 C   0  0  0  0  0  0  0  0  0  0  0  0
  188.8030  177.5050  141.3630 N   0  0  0  0  0  0  0  0  0  0  0  0
  189.5880  178.3240  143.5990 C   0  0  1  0  0  3  0  0  0  0  0  0
  188.6950  178.2350  140.1640 C   0  0  0  0  0  0  0  0  0  0  0  0
  186.8890  177.9270  142.8900 C   0  0  0  0  0  0  0  0  0  0  0  0
  184.9100  179.3110  142.3900 C   0  0  0  0  0  3  0  0  0  0  0  0
  187.4500  178.5200  140.0440 C   0  0  0  0  0  0  0  0  0  0  0  0
  187.9720  176.8980  142.4550 C   0  0  2  0  0  3  0  0  0  0  0  0
  189.6770  177.9730  144.9670 O   0  0  0  0  0  0  0  0  0  0  0  0
  187.3820  177.6470  145.3560 O   0  0  0  0  0  0  0  0  0  0  0  0
  184.6550  179.4610  143.7420 C   0  0  0  0  0  3  0  0  0  0  0  0
  186.2180  178.6100  140.4310 C   0  0  0  0  0  0  0  0  0  0  0  0
  189.0450  178.6000  137.7460 C   0  0  0  0  0  0  0  0  0  0  0  0
  189.7490  176.5150  138.7110 C   0  0  0  0  0  2  0  0  0  0  0  0
  188.5400  177.4460  136.4910 S   0  0  0  0  0  0  0  0  0  0  0  0
  189.0540  179.8030  137.5420 O   0  0  0  0  0  0  0  0  0  0  0  0
  189.7620  176.3110  137.2020 C   0  0  0  0  0  2  0  0  0  0  0  0
  189.6050  178.0070  138.9940 C   0  0  2  0  0  3  0  0  0  0  0  0
  184.5740  179.8520  139.2320 O   0  0  0  0  0  0  0  0  0  0  0  0
  185.1210  178.7370  139.4390 C   0  0  0  0  0  0  0  0  0  0  0  0
  184.6230  177.5500  138.6830 C   0  0  0  0  0  1  0  0  0  0  0  0
  191.8280  178.9090  144.1750 O   0  0  0  0  0  1  0  0  0  0  0  0
  190.8660  179.0210  143.1700 C   0  0  0  0  0  2  0  0  0  0  0  0
  188.9730  176.4100  146.5400 O   0  0  0  0  0  0  0  0  0  0  0  0
  191.3700  177.9600  148.9050 C   0  0  0  0  0  3  0  0  0  0  0  0
  192.4300  176.0490  147.8720 C   0  0  0  0  0  0  0  0  0  0  0  0
  191.2700  175.8060  147.1340 C   0  0  0  0  0  3  0  0  0  0  0  0
  190.2050  177.7250  148.1660 C   0  0  0  0  0  0  0  0  0  0  0  0
  192.4800  177.1250  148.7590 C   0  0  0  0  0  3  0  0  0  0  0  0
  190.1470  176.6390  147.2730 C   0  0  0  0  0  0  0  0  0  0  0  0
  193.5050  175.2360  147.7300 F   0  0  0  0  0  0  0  0  0  0  0  0
  189.0300  178.6310  148.3560 C   0  0  0  0  0  2  0  0  0  0  0  0
  187.8130  177.8620  148.8470 C   0  0  0  0  0  2  0  0  0  0  0  0
  186.5450  178.4040  148.2140 C   0  0  0  0  0  1  0  0  0  0  0  0
  1  3  1  0  0  0  0
  1 14  1  0  0  0  0
  2 14  1  0  0  0  0
  2 28  1  1  0  0  0
  4  6  1  6  0  0  0
  4  7  1  0  0  0  0
  5 10  2  0  0  0  0
  5  9  1  0  0  0  0
  6 12  1  0  0  0  0
  7 27  1  6  0  0  0
  7 13  1  0  0  0  0
  8  6  1  0  0  0  0
  9  1  2  0  0  0  0
 10 15  1  0  0  0  0
 11  8  2  0  0  0  0
 11 16  2  0  0  0  0
 12  4  1  0  0  0  0
 12  9  1  1  0  0  0
 13  2  1  0  0  0  0
 15  3  2  0  0  0  0
 16  5  1  0  0  0  0
 17 22  1  0  0  0  0
 18 22  1  0  0  0  0
 19 21  1  0  0  0  0
 19 17  1  0  0  0  0
 20 17  2  0  0  0  0
 21 18  1  0  0  0  0
 22  8  1  1  0  0  0
 23 24  2  0  0  0  0
 24 16  1  0  0  0  0
 25 24  1  0  0  0  0
 27 26  1  0  0  0  0
 28 34  1  0  0  0  0
 30 33  2  0  0  0  0
 31 34  2  0  0  0  0
 31 30  1  0  0  0  0
 32 36  1  0  0  0  0
 32 29  2  0  0  0  0
 33 29  1  0  0  0  0
 34 32  1  0  0  0  0
 35 30  1  0  0  0  0
 36 37  1  0  0  0  0
 38 37  1  0  0  0  0
M  END
>  <MODEL>
4

>  <REMARK>
 VINA RESULT:      -7.4      4.037      6.809
  Name = 
  7 active torsions:
  status: ('A' for Active; 'I' for Inactive)
    1  A    between atoms: C_4  and  O_12
    2  A    between atoms: C_5  and  C_36
    3  A    between atoms: O_12  and  C_23
    4  A    between atoms: C_17  and  C_35
    5  A    between atoms: C_18  and  C_27
    6  A    between atoms: C_22  and  C_38
    7  A    between atoms: C_24  and  C_27
                            x       y       z     vdW  Elec       q    Type
                         _______ _______ _______ _____ _____    ______ ____

>  <TORSDO>
F 7

$$$$
=
 OpenBabel11042410453D

 38 43  0  0  1  0  0  0  0  0999 V2000
  190.9890  177.6930  142.4510 C   0  0  0  0  0  0  0  0  0  0  0  0
  189.9480  177.1860  140.1940 C   0  0  2  0  0  3  0  0  0  0  0  0
  192.1610  178.2200  142.9940 C   0  0  0  0  0  3  0  0  0  0  0  0
  187.7920  177.1160  141.7950 C   0  0  1  0  0  3  0  0  0  0  0  0
  190.0050  177.7210  144.7250 C   0  0  0  0  0  0  0  0  0  0  0  0
  187.3940  177.2410  143.2230 N   0  0  0  0  0  0  0  0  0  0  0  0
  188.2950  178.4470  141.2180 C   0  0  1  0  0  3  0  0  0  0  0  0
  186.7900  177.7950  144.3660 C   0  0  0  0  0  0  0  0  0  0  0  0
  189.8730  177.3990  143.3060 C   0  0  0  0  0  0  0  0  0  0  0  0
  191.2110  178.2580  145.1920 C   0  0  0  0  0  3  0  0  0  0  0  0
  187.6960  177.7890  145.2750 C   0  0  0  0  0  0  0  0  0  0  0  0
  188.6630  176.5890  142.7560 C   0  0  2  0  0  3  0  0  0  0  0  0
  189.0610  178.2750  140.0410 O   0  0  0  0  0  0  0  0  0  0  0  0
  191.0320  177.5020  141.0590 O   0  0  0  0  0  0  0  0  0  0  0  0
  192.2790  178.4950  144.3440 C   0  0  0  0  0  3  0  0  0  0  0  0
  188.8940  177.6500  145.7440 C   0  0  0  0  0  0  0  0  0  0  0  0
  184.4920  178.3360  143.6380 C   0  0  0  0  0  0  0  0  0  0  0  0
  184.9790  178.3080  145.9900 C   0  0  0  0  0  2  0  0  0  0  0  0
  183.5890  179.7620  144.1980 S   0  0  0  0  0  0  0  0  0  0  0  0
  184.3310  177.8770  142.5180 O   0  0  0  0  0  0  0  0  0  0  0  0
  183.6310  179.0020  145.8430 C   0  0  0  0  0  2  0  0  0  0  0  0
  185.3260  177.6450  144.6610 C   0  0  2  0  0  3  0  0  0  0  0  0
  189.8960  176.5180  147.5880 O   0  0  0  0  0  0  0  0  0  0  0  0
  189.1180  177.4270  147.1940 C   0  0  0  0  0  0  0  0  0  0  0  0
  188.4130  178.2520  148.2200 C   0  0  0  0  0  1  0  0  0  0  0  0
  186.2960  178.7730  139.9580 O   0  0  0  0  0  1  0  0  0  0  0  0
  187.1140  179.3550  140.9270 C   0  0  0  0  0  2  0  0  0  0  0  0
  190.4410  176.7760  138.9180 O   0  0  0  0  0  0  0  0  0  0  0  0
  189.6130  174.1720  136.4120 C   0  0  0  0  0  3  0  0  0  0  0  0
  187.6430  175.5170  136.8100 C   0  0  0  0  0  0  0  0  0  0  0  0
  188.3570  176.2890  137.7290 C   0  0  0  0  0  3  0  0  0  0  0  0
  190.3350  174.9430  137.3290 C   0  0  0  0  0  0  0  0  0  0  0  0
  188.2700  174.4570  136.1520 C   0  0  0  0  0  3  0  0  0  0  0  0
  189.7070  176.0110  137.9980 C   0  0  0  0  0  0  0  0  0  0  0  0
  186.3410  175.7930  136.5610 F   0  0  0  0  0  0  0  0  0  0  0  0
  191.7670  174.6030  137.5930 C   0  0  0  0  0  2  0  0  0  0  0  0
  192.6660  175.0750  136.4590 C   0  0  0  0  0  2  0  0  0  0  0  0
  193.4260  176.3250  136.8610 C   0  0  0  0  0  1  0  0  0  0  0  0
  1  3  2  0  0  0  0
  1  9  1  0  0  0  0
  2 28  1  6  0  0  0
  2 14  1  0  0  0  0
  3 15  1  0  0  0  0
  4 12  1  0  0  0  0
  4  6  1  1  0  0  0
  5 10  1  0  0  0  0
  5 16  1  0  0  0  0
  6  8  1  0  0  0  0
  7 27  1  6  0  0  0
  7  4  1  0  0  0  0
  8 11  2  0  0  0  0
  9  5  2  0  0  0  0
 11 16  2  0  0  0  0
 12  6  1  0  0  0  0
 12  9  1  1  0  0  0
 13  2  1  0  0  0  0
 13  7  1  0  0  0  0
 14  1  1  0  0  0  0
 15 10  2  0  0  0  0
 16 24  1  0  0  0  0
 17 19  1  0  0  0  0
 17 22  1  0  0  0  0
 19 21  1  0  0  0  0
 20 17  2  0  0  0  0
 21 18  1  0  0  0  0
 22  8  1  6  0  0  0
 22 18  1  0  0  0  0
 24 23  2  0  0  0  0
 24 25  1  0  0  0  0
 26 27  1  0  0  0  0
 29 32  1  0  0  0  0
 30 31  2  0  0  0  0
 31 34  1  0  0  0  0
 32 36  1  0  0  0  0
 32 34  2  0  0  0  0
 33 29  2  0  0  0  0
 33 30  1  0  0  0  0
 34 28  1  0  0  0  0
 35 30  1  0  0  0  0
 37 38  1  0  0  0  0
 37 36  1  0  0  0  0
M  END
>  <MODEL>
5

>  <REMARK>
 VINA RESULT:      -7.3      4.956      9.685
  Name = 
  7 active torsions:
  status: ('A' for Active; 'I' for Inactive)
    1  A    between atoms: C_4  and  O_12
    2  A    between atoms: C_5  and  C_36
    3  A    between atoms: O_12  and  C_23
    4  A    between atoms: C_17  and  C_35
    5  A    between atoms: C_18  and  C_27
    6  A    between atoms: C_22  and  C_38
    7  A    between atoms: C_24  and  C_27
                            x       y       z     vdW  Elec       q    Type
                         _______ _______ _______ _____ _____    ______ ____

>  <TORSDO>
F 7

$$$$
=
 OpenBabel11042410453D

 38 43  0  0  1  0  0  0  0  0999 V2000
  189.7390  177.3360  140.9520 C   0  0  0  0  0  0  0  0  0  0  0  0
  189.5180  178.1370  143.3500 C   0  0  2  0  0  3  0  0  0  0  0  0
  190.5060  176.4590  140.1850 C   0  0  0  0  0  3  0  0  0  0  0  0
  187.1660  178.9190  142.3140 C   0  0  1  0  0  3  0  0  0  0  0  0
  188.2570  177.6500  138.9910 C   0  0  0  0  0  0  0  0  0  0  0  0
  186.4030  178.9430  141.0380 N   0  0  0  0  0  0  0  0  0  0  0  0
  187.3480  177.4930  142.8510 C   0  0  1  0  0  3  0  0  0  0  0  0
  185.3860  178.6260  140.1180 C   0  0  0  0  0  0  0  0  0  0  0  0
  188.5960  177.9850  140.3720 C   0  0  0  0  0  0  0  0  0  0  0  0
  189.0710  176.7510  138.2900 C   0  0  0  0  0  3  0  0  0  0  0  0
  185.9870  178.3440  139.0210 C   0  0  0  0  0  0  0  0  0  0  0  0
  187.8870  179.1410  141.1350 C   0  0  2  0  0  3  0  0  0  0  0  0
  188.3990  177.3960  143.7930 O   0  0  0  0  0  0  0  0  0  0  0  0
  190.1900  177.4910  142.2750 O   0  0  0  0  0  0  0  0  0  0  0  0
  190.1860  176.1720  138.8700 C   0  0  0  0  0  3  0  0  0  0  0  0
  187.0080  178.0870  138.2670 C   0  0  0  0  0  0  0  0  0  0  0  0
  183.0930  178.4480  141.0220 C   0  0  0  0  0  0  0  0  0  0  0  0
  183.3890  179.2750  138.7870 C   0  0  0  0  0  2  0  0  0  0  0  0
  181.7570  177.6400  140.1710 S   0  0  0  0  0  0  0  0  0  0  0  0
  183.1650  178.4520  142.2410 O   0  0  0  0  0  0  0  0  0  0  0  0
  181.9090  178.9480  138.9260 C   0  0  0  0  0  2  0  0  0  0  0  0
  184.0210  179.2480  140.1740 C   0  0  2  0  0  3  0  0  0  0  0  0
  187.5000  179.1890  136.2120 O   0  0  0  0  0  0  0  0  0  0  0  0
  186.9170  178.2370  136.7940 C   0  0  0  0  0  0  0  0  0  0  0  0
  186.1190  177.2830  135.9690 C   0  0  0  0  0  1  0  0  0  0  0  0
  185.5310  178.0200  144.3040 O   0  0  0  0  0  1  0  0  0  0  0  0
  186.0530  177.0180  143.4850 C   0  0  0  0  0  2  0  0  0  0  0  0
  190.4200  178.3530  144.4350 O   0  0  0  0  0  0  0  0  0  0  0  0
  190.7190  176.3960  147.5690 C   0  0  0  0  0  3  0  0  0  0  0  0
  192.0840  175.3490  145.8700 C   0  0  0  0  0  0  0  0  0  0  0  0
  191.6980  176.3320  144.9560 C   0  0  0  0  0  3  0  0  0  0  0  0
  190.3310  177.3860  146.6600 C   0  0  0  0  0  0  0  0  0  0  0  0
  191.5940  175.3790  147.1770 C   0  0  0  0  0  3  0  0  0  0  0  0
  190.8190  177.3580  145.3400 C   0  0  0  0  0  0  0  0  0  0  0  0
  192.9300  174.3630  145.4870 F   0  0  0  0  0  0  0  0  0  0  0  0
  189.3840  178.4520  147.1090 C   0  0  0  0  0  2  0  0  0  0  0  0
  188.2850  177.8790  147.9930 C   0  0  0  0  0  2  0  0  0  0  0  0
  186.9160  178.2090  147.4290 C   0  0  0  0  0  1  0  0  0  0  0  0
  1 14  1  0  0  0  0
  2 13  1  0  0  0  0
  2 28  1  1  0  0  0
  3  1  2  0  0  0  0
  4  6  1  6  0  0  0
  4  7  1  0  0  0  0
  5  9  2  0  0  0  0
  6 12  1  0  0  0  0
  7 27  1  1  0  0  0
  7 13  1  0  0  0  0
  8  6  1  0  0  0  0
  9  1  1  0  0  0  0
 10 15  2  0  0  0  0
 10  5  1  0  0  0  0
 11  8  2  0  0  0  0
 12  9  1  6  0  0  0
 12  4  1  0  0  0  0
 14  2  1  0  0  0  0
 15  3  1  0  0  0  0
 16  5  1  0  0  0  0
 16 11  2  0  0  0  0
 17 20  2  0  0  0  0
 18 21  1  0  0  0  0
 18 22  1  0  0  0  0
 19 17  1  0  0  0  0
 21 19  1  0  0  0  0
 22  8  1  6  0  0  0
 22 17  1  0  0  0  0
 23 24  2  0  0  0  0
 24 16  1  0  0  0  0
 25 24  1  0  0  0  0
 27 26  1  0  0  0  0
 28 34  1  0  0  0  0
 30 33  2  0  0  0  0
 31 34  2  0  0  0  0
 31 30  1  0  0  0  0
 32 36  1  0  0  0  0
 32 29  2  0  0  0  0
 33 29  1  0  0  0  0
 34 32  1  0  0  0  0
 35 30  1  0  0  0  0
 36 37  1  0  0  0  0
 38 37  1  0  0  0  0
M  END
>  <MODEL>
6

>  <REMARK>
 VINA RESULT:      -7.2      3.447      6.562
  Name = 
  7 active torsions:
  status: ('A' for Active; 'I' for Inactive)
    1  A    between atoms: C_4  and  O_12
    2  A    between atoms: C_5  and  C_36
    3  A    between atoms: O_12  and  C_23
    4  A    between atoms: C_17  and  C_35
    5  A    between atoms: C_18  and  C_27
    6  A    between atoms: C_22  and  C_38
    7  A    between atoms: C_24  and  C_27
                            x       y       z     vdW  Elec       q    Type
                         _______ _______ _______ _____ _____    ______ ____

>  <TORSDO>
F 7

$$$$
=
 OpenBabel11042410453D

 38 43  0  0  1  0  0  0  0  0999 V2000
  183.3720  179.6440  138.9150 C   0  0  0  0  0  0  0  0  0  0  0  0
  185.5150  178.7900  139.9710 C   0  0  2  0  0  3  0  0  0  0  0  0
  182.6790  180.8390  138.7190 C   0  0  0  0  0  3  0  0  0  0  0  0
  184.8500  176.7250  138.3860 C   0  0  1  0  0  3  0  0  0  0  0  0
  181.7490  178.5340  137.4060 C   0  0  0  0  0  0  0  0  0  0  0  0
  183.7930  176.2710  137.4440 N   0  0  0  0  0  0  0  0  0  0  0  0
  185.6470  177.9140  137.8290 C   0  0  1  0  0  3  0  0  0  0  0  0
  183.2050  175.9000  136.2200 C   0  0  0  0  0  0  0  0  0  0  0  0
  182.9140  178.4380  138.2830 C   0  0  0  0  0  0  0  0  0  0  0  0
  181.1150  179.7730  137.2520 C   0  0  0  0  0  3  0  0  0  0  0  0
  182.0990  176.5470  136.1560 C   0  0  0  0  0  0  0  0  0  0  0  0
  183.5270  177.0660  138.6880 C   0  0  2  0  0  3  0  0  0  0  0  0
  186.3420  178.6230  138.8370 O   0  0  0  0  0  0  0  0  0  0  0  0
  184.4990  179.7600  139.7480 O   0  0  0  0  0  0  0  0  0  0  0  0
  181.5620  180.9080  137.9060 C   0  0  0  0  0  3  0  0  0  0  0  0
  181.2260  177.4280  136.5240 C   0  0  0  0  0  0  0  0  0  0  0  0
  183.1530  173.4570  136.5890 C   0  0  0  0  0  0  0  0  0  0  0  0
  184.8550  174.3710  135.1600 C   0  0  0  0  0  2  0  0  0  0  0  0
  184.5700  172.5030  137.0800 S   0  0  0  0  0  0  0  0  0  0  0  0
  182.0240  173.1500  136.9380 O   0  0  0  0  0  0  0  0  0  0  0  0
  185.2840  172.9430  135.4720 C   0  0  0  0  0  2  0  0  0  0  0  0
  183.4060  174.5470  135.6030 C   0  0  2  0  0  3  0  0  0  0  0  0
  178.9310  176.9030  136.8940 O   0  0  0  0  0  0  0  0  0  0  0  0
  179.8100  177.3160  136.0940 C   0  0  0  0  0  0  0  0  0  0  0  0
  179.3960  177.6640  134.7020 C   0  0  0  0  0  1  0  0  0  0  0  0
  186.4120  178.0880  135.5760 O   0  0  0  0  0  1  0  0  0  0  0  0
  186.6310  177.4220  136.7830 C   0  0  0  0  0  2  0  0  0  0  0  0
  186.3070  179.1570  141.1000 O   0  0  0  0  0  0  0  0  0  0  0  0
  186.6030  177.4910  144.3990 C   0  0  0  0  0  3  0  0  0  0  0  0
  184.6330  178.8930  144.4150 C   0  0  0  0  0  0  0  0  0  0  0  0
  184.9010  179.2820  143.1010 C   0  0  0  0  0  3  0  0  0  0  0  0
  186.8750  177.8730  143.0810 C   0  0  0  0  0  0  0  0  0  0  0  0
  185.4850  177.9980  145.0650 C   0  0  0  0  0  3  0  0  0  0  0  0
  186.0220  178.7780  142.4210 C   0  0  0  0  0  0  0  0  0  0  0  0
  183.5500  179.3880  145.0600 F   0  0  0  0  0  0  0  0  0  0  0  0
  188.0870  177.3200  142.4010 C   0  0  0  0  0  2  0  0  0  0  0  0
  188.7000  176.1810  143.2030 C   0  0  0  0  0  2  0  0  0  0  0  0
  190.1770  176.0370  142.8880 C   0  0  0  0  0  1  0  0  0  0  0  0
  1 14  1  0  0  0  0
  2 28  1  1  0  0  0
  3  1  1  0  0  0  0
  4  6  1  6  0  0  0
  4 12  1  0  0  0  0
  5  9  1  0  0  0  0
  6 12  1  0  0  0  0
  7 27  1  6  0  0  0
  7  4  1  0  0  0  0
  7 13  1  0  0  0  0
  8  6  1  0  0  0  0
  9  1  2  0  0  0  0
 10  5  2  0  0  0  0
 10 15  1  0  0  0  0
 11  8  2  0  0  0  0
 11 16  2  0  0  0  0
 12  9  1  6  0  0  0
 13  2  1  0  0  0  0
 14  2  1  0  0  0  0
 15  3  2  0  0  0  0
 16  5  1  0  0  0  0
 17 20  2  0  0  0  0
 17 19  1  0  0  0  0
 18 21  1  0  0  0  0
 18 22  1  0  0  0  0
 21 19  1  0  0  0  0
 22  8  1  1  0  0  0
 22 17  1  0  0  0  0
 24 16  1  0  0  0  0
 24 23  2  0  0  0  0
 25 24  1  0  0  0  0
 26 27  1  0  0  0  0
 28 34  1  0  0  0  0
 29 33  1  0  0  0  0
 30 35  1  0  0  0  0
 30 33  2  0  0  0  0
 31 30  1  0  0  0  0
 32 29  2  0  0  0  0
 34 32  1  0  0  0  0
 34 31  2  0  0  0  0
 36 32  1  0  0  0  0
 36 37  1  0  0  0  0
 38 37  1  0  0  0  0
M  END
>  <MODEL>
7

>  <REMARK>
 VINA RESULT:      -7.1      1.388      2.441
  Name = 
  7 active torsions:
  status: ('A' for Active; 'I' for Inactive)
    1  A    between atoms: C_4  and  O_12
    2  A    between atoms: C_5  and  C_36
    3  A    between atoms: O_12  and  C_23
    4  A    between atoms: C_17  and  C_35
    5  A    between atoms: C_18  and  C_27
    6  A    between atoms: C_22  and  C_38
    7  A    between atoms: C_24  and  C_27
                            x       y       z     vdW  Elec       q    Type
                         _______ _______ _______ _____ _____    ______ ____

>  <TORSDO>
F 7

$$$$
=
 OpenBabel11042410453D

 38 43  0  0  1  0  0  0  0  0999 V2000
  184.5650  179.0480  142.3450 C   0  0  0  0  0  0  0  0  0  0  0  0
  185.6630  178.6910  140.0850 C   0  0  2  0  0  3  0  0  0  0  0  0
  184.8270  179.6430  143.5790 C   0  0  0  0  0  3  0  0  0  0  0  0
  183.0900  178.1760  139.5080 C   0  0  1  0  0  3  0  0  0  0  0  0
  182.2300  178.6870  143.0920 C   0  0  0  0  0  0  0  0  0  0  0  0
  181.7480  178.0810  140.1420 N   0  0  0  0  0  0  0  0  0  0  0  0
  183.6210  179.6160  139.4930 C   0  0  1  0  0  3  0  0  0  0  0  0
  180.4120  178.4190  140.4280 C   0  0  0  0  0  0  0  0  0  0  0  0
  183.2570  178.5230  142.0660 C   0  0  0  0  0  0  0  0  0  0  0  0
  182.5690  179.3060  144.3020 C   0  0  0  0  0  3  0  0  0  0  0  0
  180.3200  178.4130  141.7080 C   0  0  0  0  0  0  0  0  0  0  0  0
  183.0230  177.6460  140.8020 C   0  0  2  0  0  3  0  0  0  0  0  0
  185.0220  179.6770  139.3010 O   0  0  0  0  0  0  0  0  0  0  0  0
  185.6630  179.0300  141.4670 O   0  0  0  0  0  0  0  0  0  0  0  0
  183.8500  179.7670  144.5500 C   0  0  0  0  0  3  0  0  0  0  0  0
  180.7660  178.3640  142.9220 C   0  0  0  0  0  0  0  0  0  0  0  0
  179.2830  176.6100  139.1800 C   0  0  0  0  0  0  0  0  0  0  0  0
  179.4040  178.7940  138.1870 C   0  0  0  0  0  2  0  0  0  0  0  0
  179.6460  176.2040  137.4870 S   0  0  0  0  0  0  0  0  0  0  0  0
  178.9340  175.7570  139.9810 O   0  0  0  0  0  0  0  0  0  0  0  0
  178.9910  177.8430  137.0720 C   0  0  0  0  0  2  0  0  0  0  0  0
  179.2740  178.0610  139.5180 C   0  0  2  0  0  3  0  0  0  0  0  0
  179.8500  176.8220  144.4920 O   0  0  0  0  0  0  0  0  0  0  0  0
  179.8660  177.9990  144.0440 C   0  0  0  0  0  0  0  0  0  0  0  0
  178.9440  179.0020  144.6530 C   0  0  0  0  0  1  0  0  0  0  0  0
  182.9230  181.7620  138.7200 O   0  0  0  0  0  1  0  0  0  0  0  0
  182.9240  180.4040  138.3990 C   0  0  0  0  0  2  0  0  0  0  0  0
  187.0000  178.4980  139.6260 O   0  0  0  0  0  0  0  0  0  0  0  0
  190.3120  177.1230  140.5660 C   0  0  0  0  0  3  0  0  0  0  0  0
  188.8230  176.9160  142.4600 C   0  0  0  0  0  0  0  0  0  0  0  0
  187.7970  177.5030  141.7160 C   0  0  0  0  0  3  0  0  0  0  0  0
  189.2880  177.7090  139.8140 C   0  0  0  0  0  0  0  0  0  0  0  0
  190.0810  176.7260  141.8860 C   0  0  0  0  0  3  0  0  0  0  0  0
  188.0180  177.9050  140.3880 C   0  0  0  0  0  0  0  0  0  0  0  0
  188.5970  176.5340  143.7400 F   0  0  0  0  0  0  0  0  0  0  0  0
  189.5730  178.1330  138.4080 C   0  0  0  0  0  2  0  0  0  0  0  0
  190.0170  176.9540  137.5540 C   0  0  0  0  0  2  0  0  0  0  0  0
  188.8220  176.1240  137.1230 C   0  0  0  0  0  1  0  0  0  0  0  0
  1  3  1  0  0  0  0
  2 28  1  6  0  0  0
  2 14  1  0  0  0  0
  3 15  2  0  0  0  0
  4  6  1  1  0  0  0
  4 12  1  0  0  0  0
  5 10  2  0  0  0  0
  6  8  1  0  0  0  0
  6 12  1  0  0  0  0
  7 27  1  6  0  0  0
  7  4  1  0  0  0  0
  8 11  2  0  0  0  0
  9  1  2  0  0  0  0
  9  5  1  0  0  0  0
 10 15  1  0  0  0  0
 11 16  2  0  0  0  0
 12  9  1  1  0  0  0
 13  7  1  0  0  0  0
 13  2  1  0  0  0  0
 14  1  1  0  0  0  0
 16  5  1  0  0  0  0
 16 24  1  0  0  0  0
 17 22  1  0  0  0  0
 17 20  2  0  0  0  0
 18 22  1  0  0  0  0
 19 17  1  0  0  0  0
 21 19  1  0  0  0  0
 21 18  1  0  0  0  0
 22  8  1  1  0  0  0
 24 23  2  0  0  0  0
 24 25  1  0  0  0  0
 27 26  1  0  0  0  0
 28 34  1  0  0  0  0
 29 33  1  0  0  0  0
 30 35  1  0  0  0  0
 31 30  1  0  0  0  0
 32 34  1  0  0  0  0
 32 29  2  0  0  0  0
 33 30  2  0  0  0  0
 34 31  2  0  0  0  0
 36 32  1  0  0  0  0
 37 36  1  0  0  0  0
 38 37  1  0  0  0  0
M  END
>  <MODEL>
8

>  <REMARK>
 VINA RESULT:      -7.0      2.887      5.821
  Name = 
  7 active torsions:
  status: ('A' for Active; 'I' for Inactive)
    1  A    between atoms: C_4  and  O_12
    2  A    between atoms: C_5  and  C_36
    3  A    between atoms: O_12  and  C_23
    4  A    between atoms: C_17  and  C_35
    5  A    between atoms: C_18  and  C_27
    6  A    between atoms: C_22  and  C_38
    7  A    between atoms: C_24  and  C_27
                            x       y       z     vdW  Elec       q    Type
                         _______ _______ _______ _____ _____    ______ ____

>  <TORSDO>
F 7

$$$$
=
 OpenBabel11042410453D

 38 43  0  0  1  0  0  0  0  0999 V2000
  187.1960  178.2340  141.4620 C   0  0  0  0  0  0  0  0  0  0  0  0
  189.6050  177.9010  140.7390 C   0  0  2  0  0  3  0  0  0  0  0  0
  185.9120  178.2620  140.9190 C   0  0  0  0  0  3  0  0  0  0  0  0
  189.7960  177.5290  143.3930 C   0  0  1  0  0  3  0  0  0  0  0  0
  186.1720  178.3100  143.7170 C   0  0  0  0  0  0  0  0  0  0  0  0
  188.9800  177.5550  144.6370 N   0  0  0  0  0  0  0  0  0  0  0  0
  189.4010  176.3700  142.4680 C   0  0  1  0  0  3  0  0  0  0  0  0
  188.3280  177.0600  145.7810 C   0  0  0  0  0  0  0  0  0  0  0  0
  187.3740  178.2840  142.8870 C   0  0  0  0  0  0  0  0  0  0  0  0
  184.9170  178.3250  143.0970 C   0  0  0  0  0  3  0  0  0  0  0  0
  187.1450  177.5550  145.7470 C   0  0  0  0  0  0  0  0  0  0  0  0
  188.7930  178.5010  143.4880 C   0  0  2  0  0  3  0  0  0  0  0  0
  189.8370  176.5640  141.1360 O   0  0  0  0  0  0  0  0  0  0  0  0
  188.2250  178.1540  140.5070 O   0  0  0  0  0  0  0  0  0  0  0  0
  184.7840  178.3130  141.7190 C   0  0  0  0  0  3  0  0  0  0  0  0
  186.1460  178.1890  145.2210 C   0  0  0  0  0  0  0  0  0  0  0  0
  188.8110  177.7930  148.0910 C   0  0  0  0  0  0  0  0  0  0  0  0
  190.5620  176.7430  146.8240 C   0  0  0  0  0  2  0  0  0  0  0  0
  190.2120  178.7940  148.5350 S   0  0  0  0  0  0  0  0  0  0  0  0
  187.7530  177.8710  148.6930 O   0  0  0  0  0  0  0  0  0  0  0  0
  191.2370  177.3860  148.0280 C   0  0  0  0  0  2  0  0  0  0  0  0
  189.0550  176.7480  147.0560 C   0  0  2  0  0  3  0  0  0  0  0  0
  185.2950  179.0170  147.2870 O   0  0  0  0  0  0  0  0  0  0  0  0
  185.0730  178.7520  146.0760 C   0  0  0  0  0  0  0  0  0  0  0  0
  183.7030  178.9970  145.5350 C   0  0  0  0  0  1  0  0  0  0  0  0
  191.2160  175.3090  143.5950 O   0  0  0  0  0  1  0  0  0  0  0  0
  189.9740  175.0710  143.0050 C   0  0  0  0  0  2  0  0  0  0  0  0
  190.3640  178.1990  139.5680 O   0  0  0  0  0  0  0  0  0  0  0  0
  189.9120  176.7790  136.1730 C   0  0  0  0  0  3  0  0  0  0  0  0
  191.4050  175.3430  137.4200 C   0  0  0  0  0  0  0  0  0  0  0  0
  191.2930  176.1880  138.5260 C   0  0  0  0  0  3  0  0  0  0  0  0
  189.7930  177.6290  137.2780 C   0  0  0  0  0  0  0  0  0  0  0  0
  190.7160  175.6380  136.2430 C   0  0  0  0  0  3  0  0  0  0  0  0
  190.4880  177.3380  138.4670 C   0  0  0  0  0  0  0  0  0  0  0  0
  192.1870  174.2380  137.4890 F   0  0  0  0  0  0  0  0  0  0  0  0
  188.9340  178.8480  137.1660 C   0  0  0  0  0  2  0  0  0  0  0  0
  187.6420  178.5470  136.4200 C   0  0  0  0  0  2  0  0  0  0  0  0
  186.5340  178.1840  137.3910 C   0  0  0  0  0  1  0  0  0  0  0  0
  1  9  1  0  0  0  0
  2 28  1  6  0  0  0
  2 13  1  0  0  0  0
  3  1  2  0  0  0  0
  3 15  1  0  0  0  0
  4 12  1  0  0  0  0
  4  6  1  1  0  0  0
  5 16  1  0  0  0  0
  6  8  1  0  0  0  0
  7 27  1  1  0  0  0
  7  4  1  0  0  0  0
  9  5  2  0  0  0  0
 10  5  1  0  0  0  0
 11  8  2  0  0  0  0
 12  9  1  6  0  0  0
 12  6  1  0  0  0  0
 13  7  1  0  0  0  0
 14  2  1  0  0  0  0
 14  1  1  0  0  0  0
 15 10  2  0  0  0  0
 16 11  2  0  0  0  0
 16 24  1  0  0  0  0
 17 19  1  0  0  0  0
 17 20  2  0  0  0  0
 18 22  1  0  0  0  0
 18 21  1  0  0  0  0
 21 19  1  0  0  0  0
 22  8  1  6  0  0  0
 22 17  1  0  0  0  0
 24 23  2  0  0  0  0
 25 24  1  0  0  0  0
 27 26  1  0  0  0  0
 29 33  2  0  0  0  0
 29 32  1  0  0  0  0
 30 35  1  0  0  0  0
 30 31  2  0  0  0  0
 32 34  2  0  0  0  0
 33 30  1  0  0  0  0
 34 31  1  0  0  0  0
 34 28  1  0  0  0  0
 36 32  1  0  0  0  0
 37 36  1  0  0  0  0
 37 38  1  0  0  0  0
M  END
>  <MODEL>
9

>  <REMARK>
 VINA RESULT:      -6.9      5.159      9.102
  Name = 
  7 active torsions:
  status: ('A' for Active; 'I' for Inactive)
    1  A    between atoms: C_4  and  O_12
    2  A    between atoms: C_5  and  C_36
    3  A    between atoms: O_12  and  C_23
    4  A    between atoms: C_17  and  C_35
    5  A    between atoms: C_18  and  C_27
    6  A    between atoms: C_22  and  C_38
    7  A    between atoms: C_24  and  C_27
                            x       y       z     vdW  Elec       q    Type
                         _______ _______ _______ _____ _____    ______ ____

>  <TORSDO>
F 7

$$$$
