=
 OpenBabel11042411003D

 29 33  0  0  1  0  0  0  0  0999 V2000
  189.2110  178.1730  148.8440 C   0  0  0  0  0  2  0  0  0  0  0  0
  187.6470  178.2620  147.1890 C   0  0  0  0  0  0  0  0  0  0  0  0
  187.8950  178.6280  148.4970 O   0  0  0  0  0  0  0  0  0  0  0  0
  186.0080  178.2040  142.0190 N   0  0  0  0  0  0  0  0  0  0  0  0
  186.4900  178.0250  145.0970 C   0  0  0  0  0  0  0  0  0  0  0  0
  188.7480  177.1110  145.3940 C   0  0  0  0  0  3  0  0  0  0  0  0
  185.2980  178.2530  144.3310 N   0  0  0  0  0  2  0  0  0  0  0  0
  187.3290  177.8060  142.2710 N   0  0  0  0  0  0  0  0  0  0  0  0
  188.7230  177.6050  146.6930 C   0  0  0  0  0  0  0  0  0  0  0  0
  185.0630  178.3230  142.9090 C   0  0  0  0  0  0  0  0  0  0  0  0
  189.7020  177.5240  147.6630 O   0  0  0  0  0  0  0  0  0  0  0  0
  187.6140  177.3230  144.5880 C   0  0  0  0  0  0  0  0  0  0  0  0
  187.6050  176.7530  143.2250 C   0  0  0  0  0  2  0  0  0  0  0  0
  186.5060  178.4880  146.4280 C   0  0  0  0  0  3  0  0  0  0  0  0
  183.7020  178.6620  142.4410 C   0  0  0  0  0  0  0  0  0  0  0  0
  182.3740  177.8430  140.5360 C   0  0  0  0  0  3  0  0  0  0  0  0
  181.3330  179.2410  143.0160 C   0  0  0  0  0  3  0  0  0  0  0  0
  179.2640  179.1950  141.8720 N   0  0  0  0  0  1  0  0  0  0  0  0
  180.6370  178.8330  141.9460 C   0  0  0  0  0  0  0  0  0  0  0  0
  181.1510  177.9120  140.9680 N   0  0  0  0  0  0  0  0  0  0  0  0
  183.4350  178.7940  140.9730 C   0  0  0  0  0  2  0  0  0  0  0  0
  182.7410  178.9310  143.3320 C   0  0  0  0  0  3  0  0  0  0  0  0
  188.3930  178.2100  141.3640 C   0  0  1  0  0  3  0  0  0  0  0  0
  190.3690  176.9510  140.4960 C   0  0  0  0  0  3  0  0  0  0  0  0
  190.0130  177.2880  139.0700 C   0  0  1  0  0  3  0  0  0  0  0  0
  189.6080  177.3290  141.5340 C   0  0  0  0  0  3  0  0  0  0  0  0
  187.8830  178.2530  139.9230 C   0  0  0  0  0  2  0  0  0  0  0  0
  189.0550  178.4740  138.9760 C   0  0  0  0  0  2  0  0  0  0  0  0
  191.1610  177.5480  138.3470 F   0  0  0  0  0  0  0  0  0  0  0  0
  2  3  1  0  0  0  0
  3  1  1  0  0  0  0
  4  8  1  0  0  0  0
  4 10  2  0  0  0  0
  5 14  1  0  0  0  0
  6  9  2  0  0  0  0
  7  5  1  0  0  0  0
  8 13  1  0  0  0  0
  9  2  1  0  0  0  0
  9 11  1  0  0  0  0
 10  7  1  0  0  0  0
 11  1  1  0  0  0  0
 12  5  2  0  0  0  0
 12  6  1  0  0  0  0
 13 12  1  0  0  0  0
 14  2  2  0  0  0  0
 15 10  1  0  0  0  0
 15 22  2  0  0  0  0
 16 20  2  0  0  0  0
 16 21  1  0  0  0  0
 17 22  1  0  0  0  0
 18 19  1  0  0  0  0
 19 17  2  0  0  0  0
 20 19  1  0  0  0  0
 21 15  1  0  0  0  0
 23 27  1  6  0  0  0
 23 26  1  0  0  0  0
 23  8  1  0  0  0  0
 24 26  2  0  0  0  0
 25 29  1  6  0  0  0
 25 24  1  0  0  0  0
 28 25  1  0  0  0  0
 28 27  1  0  0  0  0
M  END
>  <MODEL>
1

>  <REMARK>
 VINA RESULT:     -10.0      0.000      0.000
  Name = 
  2 active torsions:
  status: ('A' for Active; 'I' for Inactive)
    1  A    between atoms: C_1  and  N_17
    2  A    between atoms: C_3  and  C_23
                            x       y       z     vdW  Elec       q    Type
                         _______ _______ _______ _____ _____    ______ ____

>  <TORSDO>
F 2

$$$$
=
 OpenBabel11042411003D

 29 33  0  0  1  0  0  0  0  0999 V2000
  192.1940  175.5750  147.7140 C   0  0  0  0  0  2  0  0  0  0  0  0
  191.6750  176.1040  145.5600 C   0  0  0  0  0  0  0  0  0  0  0  0
  192.5440  175.3660  146.3380 O   0  0  0  0  0  0  0  0  0  0  0  0
  188.3470  177.7600  141.6100 N   0  0  0  0  0  0  0  0  0  0  0  0
  190.6370  177.0260  143.5990 C   0  0  0  0  0  0  0  0  0  0  0  0
  189.8170  177.5970  145.8420 C   0  0  0  0  0  3  0  0  0  0  0  0
  190.6170  177.1380  142.1680 N   0  0  0  0  0  2  0  0  0  0  0  0
  187.9070  177.9410  142.9300 N   0  0  0  0  0  0  0  0  0  0  0  0
  190.8030  176.7650  146.3590 C   0  0  0  0  0  0  0  0  0  0  0  0
  189.5680  177.4900  141.2420 C   0  0  0  0  0  0  0  0  0  0  0  0
  191.0790  176.4770  147.6800 O   0  0  0  0  0  0  0  0  0  0  0  0
  189.7360  177.7290  144.4420 C   0  0  0  0  0  0  0  0  0  0  0  0
  188.7300  178.6550  143.8830 C   0  0  0  0  0  2  0  0  0  0  0  0
  191.6320  176.2110  144.1740 C   0  0  0  0  0  3  0  0  0  0  0  0
  189.8640  177.4290  139.7940 C   0  0  0  0  0  0  0  0  0  0  0  0
  190.8840  175.6700  138.4060 C   0  0  0  0  0  3  0  0  0  0  0  0
  189.1680  177.9790  137.4520 C   0  0  0  0  0  3  0  0  0  0  0  0
  189.7370  177.1880  135.2970 N   0  0  0  0  0  1  0  0  0  0  0  0
  189.7750  177.0420  136.7110 C   0  0  0  0  0  0  0  0  0  0  0  0
  190.3020  175.8190  137.2540 N   0  0  0  0  0  0  0  0  0  0  0  0
  191.1460  176.8120  139.3270 C   0  0  0  0  0  2  0  0  0  0  0  0
  189.0260  177.9980  138.9210 C   0  0  0  0  0  3  0  0  0  0  0  0
  186.5110  177.7040  143.2660 C   0  0  1  0  0  3  0  0  0  0  0  0
  185.1270  178.5240  145.1790 C   0  0  0  0  0  3  0  0  0  0  0  0
  184.0620  179.0390  144.2460 C   0  0  1  0  0  3  0  0  0  0  0  0
  186.2610  177.9610  144.7340 C   0  0  0  0  0  3  0  0  0  0  0  0
  185.5920  178.5170  142.3530 C   0  0  0  0  0  2  0  0  0  0  0  0
  184.1580  178.4150  142.8550 C   0  0  0  0  0  2  0  0  0  0  0  0
  182.8120  178.8060  144.7840 F   0  0  0  0  0  0  0  0  0  0  0  0
  2  3  1  0  0  0  0
  2  9  1  0  0  0  0
  3  1  1  0  0  0  0
  4  8  1  0  0  0  0
  5 14  1  0  0  0  0
  5 12  2  0  0  0  0
  6  9  2  0  0  0  0
  7  5  1  0  0  0  0
  8 23  1  0  0  0  0
  8 13  1  0  0  0  0
  9 11  1  0  0  0  0
 10  4  2  0  0  0  0
 10  7  1  0  0  0  0
 11  1  1  0  0  0  0
 12  6  1  0  0  0  0
 13 12  1  0  0  0  0
 14  2  2  0  0  0  0
 15 10  1  0  0  0  0
 16 21  1  0  0  0  0
 17 22  1  0  0  0  0
 18 19  1  0  0  0  0
 19 20  1  0  0  0  0
 19 17  2  0  0  0  0
 20 16  2  0  0  0  0
 21 15  1  0  0  0  0
 22 15  2  0  0  0  0
 23 27  1  6  0  0  0
 23 26  1  0  0  0  0
 25 29  1  1  0  0  0
 25 24  1  0  0  0  0
 26 24  2  0  0  0  0
 27 28  1  0  0  0  0
 28 25  1  0  0  0  0
M  END
>  <MODEL>
2

>  <REMARK>
 VINA RESULT:     -10.0      3.449      6.563
  Name = 
  2 active torsions:
  status: ('A' for Active; 'I' for Inactive)
    1  A    between atoms: C_1  and  N_17
    2  A    between atoms: C_3  and  C_23
                            x       y       z     vdW  Elec       q    Type
                         _______ _______ _______ _____ _____    ______ ____

>  <TORSDO>
F 2

$$$$
=
 OpenBabel11042411003D

 29 33  0  0  1  0  0  0  0  0999 V2000
  192.1160  176.2660  137.8410 C   0  0  0  0  0  2  0  0  0  0  0  0
  190.3200  176.9930  139.0390 C   0  0  0  0  0  0  0  0  0  0  0  0
  190.7050  176.5210  137.8000 O   0  0  0  0  0  0  0  0  0  0  0  0
  187.5830  177.9710  143.6180 N   0  0  0  0  0  0  0  0  0  0  0  0
  188.9000  177.8170  140.7930 C   0  0  0  0  0  0  0  0  0  0  0  0
  191.3070  177.5030  141.1660 C   0  0  0  0  0  3  0  0  0  0  0  0
  187.5880  178.2190  141.2120 N   0  0  0  0  0  2  0  0  0  0  0  0
  188.9470  177.6660  143.7450 N   0  0  0  0  0  0  0  0  0  0  0  0
  191.4000  177.0530  139.8550 C   0  0  0  0  0  0  0  0  0  0  0  0
  186.9750  178.3070  142.5160 C   0  0  0  0  0  0  0  0  0  0  0  0
  192.5190  176.6220  139.1710 O   0  0  0  0  0  0  0  0  0  0  0  0
  190.0390  177.8920  141.6390 C   0  0  0  0  0  0  0  0  0  0  0  0
  189.9360  178.4270  143.0120 C   0  0  0  0  0  2  0  0  0  0  0  0
  189.0520  177.3720  139.4650 C   0  0  0  0  0  3  0  0  0  0  0  0
  185.5480  178.6880  142.5930 C   0  0  0  0  0  0  0  0  0  0  0  0
  183.6860  178.3820  141.0120 C   0  0  0  0  0  3  0  0  0  0  0  0
  183.4800  178.9330  143.9850 C   0  0  0  0  0  3  0  0  0  0  0  0
  181.1630  179.1010  143.5430 N   0  0  0  0  0  1  0  0  0  0  0  0
  182.4830  178.8150  143.0980 C   0  0  0  0  0  0  0  0  0  0  0  0
  182.6500  178.2500  141.7860 N   0  0  0  0  0  0  0  0  0  0  0  0
  184.8590  179.2250  141.3770 C   0  0  0  0  0  2  0  0  0  0  0  0
  184.9080  178.6280  143.7650 C   0  0  0  0  0  3  0  0  0  0  0  0
  189.4000  176.8160  144.8370 C   0  0  1  0  0  3  0  0  0  0  0  0
  191.6800  176.4620  145.7960 C   0  0  0  0  0  3  0  0  0  0  0  0
  191.1870  176.7530  147.1900 C   0  0  1  0  0  3  0  0  0  0  0  0
  190.8810  176.5380  144.7210 C   0  0  0  0  0  3  0  0  0  0  0  0
  189.0100  177.4200  146.1860 C   0  0  0  0  0  2  0  0  0  0  0  0
  189.6690  176.6270  147.3070 C   0  0  0  0  0  2  0  0  0  0  0  0
  191.8030  175.9080  148.0920 F   0  0  0  0  0  0  0  0  0  0  0  0
  1 11  1  0  0  0  0
  2 14  2  0  0  0  0
  2  9  1  0  0  0  0
  3  1  1  0  0  0  0
  3  2  1  0  0  0  0
  4  8  1  0  0  0  0
  5  7  1  0  0  0  0
  5 12  2  0  0  0  0
  6 12  1  0  0  0  0
  7 10  1  0  0  0  0
  9  6  2  0  0  0  0
 10 15  1  0  0  0  0
 10  4  2  0  0  0  0
 11  9  1  0  0  0  0
 12 13  1  0  0  0  0
 13  8  1  0  0  0  0
 14  5  1  0  0  0  0
 15 22  2  0  0  0  0
 16 21  1  0  0  0  0
 16 20  2  0  0  0  0
 19 18  1  0  0  0  0
 19 17  2  0  0  0  0
 20 19  1  0  0  0  0
 21 15  1  0  0  0  0
 22 17  1  0  0  0  0
 23  8  1  6  0  0  0
 23 27  1  0  0  0  0
 24 25  1  0  0  0  0
 25 28  1  0  0  0  0
 25 29  1  1  0  0  0
 26 23  1  0  0  0  0
 26 24  2  0  0  0  0
 27 28  1  0  0  0  0
M  END
>  <MODEL>
3

>  <REMARK>
 VINA RESULT:      -9.9      3.510      5.865
  Name = 
  2 active torsions:
  status: ('A' for Active; 'I' for Inactive)
    1  A    between atoms: C_1  and  N_17
    2  A    between atoms: C_3  and  C_23
                            x       y       z     vdW  Elec       q    Type
                         _______ _______ _______ _____ _____    ______ ____

>  <TORSDO>
F 2

$$$$
=
 OpenBabel11042411003D

 29 33  0  0  1  0  0  0  0  0999 V2000
  191.6370  177.0830  148.0240 C   0  0  0  0  0  2  0  0  0  0  0  0
  189.7600  177.4490  146.7850 C   0  0  0  0  0  0  0  0  0  0  0  0
  190.3300  177.6740  148.0220 O   0  0  0  0  0  0  0  0  0  0  0  0
  187.0080  177.9920  142.1430 N   0  0  0  0  0  0  0  0  0  0  0  0
  188.1460  177.4980  145.0060 C   0  0  0  0  0  0  0  0  0  0  0  0
  190.3100  176.3770  144.7090 C   0  0  0  0  0  3  0  0  0  0  0  0
  186.8420  177.8920  144.5540 N   0  0  0  0  0  2  0  0  0  0  0  0
  188.3060  177.4650  142.0550 N   0  0  0  0  0  0  0  0  0  0  0  0
  190.6260  176.7530  146.0100 C   0  0  0  0  0  0  0  0  0  0  0  0
  186.3030  178.1090  143.2330 C   0  0  0  0  0  0  0  0  0  0  0  0
  191.7840  176.5040  146.7190 O   0  0  0  0  0  0  0  0  0  0  0  0
  189.0510  176.7540  144.2040 C   0  0  0  0  0  0  0  0  0  0  0  0
  188.6810  176.3120  142.8440 C   0  0  0  0  0  2  0  0  0  0  0  0
  188.5060  177.8370  146.3260 C   0  0  0  0  0  3  0  0  0  0  0  0
  184.9140  178.6000  143.1170 C   0  0  0  0  0  0  0  0  0  0  0  0
  183.2480  178.3870  141.3160 C   0  0  0  0  0  3  0  0  0  0  0  0
  182.7130  179.0490  144.2250 C   0  0  0  0  0  3  0  0  0  0  0  0
  180.4910  179.3800  143.4840 N   0  0  0  0  0  1  0  0  0  0  0  0
  181.8290  178.9790  143.2190 C   0  0  0  0  0  0  0  0  0  0  0  0
  182.1160  178.3610  141.9530 N   0  0  0  0  0  0  0  0  0  0  0  0
  184.4300  179.1490  141.8100 C   0  0  0  0  0  2  0  0  0  0  0  0
  184.1270  178.6280  144.1980 C   0  0  0  0  0  3  0  0  0  0  0  0
  189.1750  177.8600  140.9560 C   0  0  1  0  0  3  0  0  0  0  0  0
  190.5840  176.4910  139.4110 C   0  0  0  0  0  3  0  0  0  0  0  0
  189.9660  177.1420  138.2000 C   0  0  1  0  0  3  0  0  0  0  0  0
  190.1910  176.7820  140.6610 C   0  0  0  0  0  3  0  0  0  0  0  0
  188.3480  178.2530  139.7310 C   0  0  0  0  0  2  0  0  0  0  0  0
  189.2730  178.4610  138.5390 C   0  0  0  0  0  2  0  0  0  0  0  0
  190.9310  177.3490  137.2340 F   0  0  0  0  0  0  0  0  0  0  0  0
  2  3  1  0  0  0  0
  3  1  1  0  0  0  0
  4 10  2  0  0  0  0
  5 14  2  0  0  0  0
  6  9  1  0  0  0  0
  7  5  1  0  0  0  0
  8  4  1  0  0  0  0
  8 13  1  0  0  0  0
  9 11  1  0  0  0  0
  9  2  2  0  0  0  0
 10  7  1  0  0  0  0
 11  1  1  0  0  0  0
 12  6  2  0  0  0  0
 12  5  1  0  0  0  0
 13 12  1  0  0  0  0
 14  2  1  0  0  0  0
 15 10  1  0  0  0  0
 15 22  2  0  0  0  0
 16 21  1  0  0  0  0
 16 20  2  0  0  0  0
 19 18  1  0  0  0  0
 19 17  2  0  0  0  0
 20 19  1  0  0  0  0
 21 15  1  0  0  0  0
 22 17  1  0  0  0  0
 23 27  1  6  0  0  0
 23  8  1  0  0  0  0
 24 26  2  0  0  0  0
 25 29  1  6  0  0  0
 25 28  1  0  0  0  0
 25 24  1  0  0  0  0
 26 23  1  0  0  0  0
 28 27  1  0  0  0  0
M  END
>  <MODEL>
4

>  <REMARK>
 VINA RESULT:      -9.8      1.297      1.659
  Name = 
  2 active torsions:
  status: ('A' for Active; 'I' for Inactive)
    1  A    between atoms: C_1  and  N_17
    2  A    between atoms: C_3  and  C_23
                            x       y       z     vdW  Elec       q    Type
                         _______ _______ _______ _____ _____    ______ ____

>  <TORSDO>
F 2

$$$$
=
 OpenBabel11042411003D

 29 33  0  0  1  0  0  0  0  0999 V2000
  181.8500  178.7400  141.5710 C   0  0  0  0  0  2  0  0  0  0  0  0
  183.9110  178.4980  142.5130 C   0  0  0  0  0  0  0  0  0  0  0  0
  182.5580  178.4260  142.7790 O   0  0  0  0  0  0  0  0  0  0  0  0
  189.2510  177.5560  142.3890 N   0  0  0  0  0  0  0  0  0  0  0  0
  186.2840  178.3980  142.8700 C   0  0  0  0  0  0  0  0  0  0  0  0
  185.3680  178.9940  140.6720 C   0  0  0  0  0  3  0  0  0  0  0  0
  187.3720  178.1800  143.7800 N   0  0  0  0  0  2  0  0  0  0  0  0
  188.6180  177.7920  141.1590 N   0  0  0  0  0  0  0  0  0  0  0  0
  184.0980  178.8390  141.2150 C   0  0  0  0  0  0  0  0  0  0  0  0
  188.7500  177.8050  143.5660 C   0  0  0  0  0  0  0  0  0  0  0  0
  182.8730  178.9990  140.5990 O   0  0  0  0  0  0  0  0  0  0  0  0
  186.4740  178.7720  141.5130 C   0  0  0  0  0  0  0  0  0  0  0  0
  187.8280  178.9890  140.9620 C   0  0  0  0  0  2  0  0  0  0  0  0
  184.9760  178.2740  143.3780 C   0  0  0  0  0  3  0  0  0  0  0  0
  189.6040  177.5790  144.7510 C   0  0  0  0  0  0  0  0  0  0  0  0
  189.0490  177.1170  147.1050 C   0  0  0  0  0  3  0  0  0  0  0  0
  191.6880  176.5780  145.7160 C   0  0  0  0  0  3  0  0  0  0  0  0
  192.4280  175.9980  147.8860 N   0  0  0  0  0  1  0  0  0  0  0  0
  191.3800  176.3830  147.0060 C   0  0  0  0  0  0  0  0  0  0  0  0
  190.0330  176.3700  147.5070 N   0  0  0  0  0  0  0  0  0  0  0  0
  189.2150  178.1750  146.0680 C   0  0  0  0  0  2  0  0  0  0  0  0
  190.7580  176.9150  144.6210 C   0  0  0  0  0  3  0  0  0  0  0  0
  189.0020  177.0200  139.9870 C   0  0  1  0  0  3  0  0  0  0  0  0
  189.2300  177.6880  137.5900 C   0  0  0  0  0  3  0  0  0  0  0  0
  190.6270  177.1280  137.5210 C   0  0  1  0  0  3  0  0  0  0  0  0
  188.5100  177.6820  138.7220 C   0  0  0  0  0  3  0  0  0  0  0  0
  190.5100  176.7670  139.9800 C   0  0  0  0  0  2  0  0  0  0  0  0
  190.9150  176.1420  138.6520 C   0  0  0  0  0  2  0  0  0  0  0  0
  190.8300  176.5170  136.2980 F   0  0  0  0  0  0  0  0  0  0  0  0
  1  3  1  0  0  0  0
  2  3  1  0  0  0  0
  2 14  1  0  0  0  0
  4 10  2  0  0  0  0
  5 14  2  0  0  0  0
  5  7  1  0  0  0  0
  6  9  1  0  0  0  0
  6 12  2  0  0  0  0
  8  4  1  0  0  0  0
  9  2  2  0  0  0  0
 10  7  1  0  0  0  0
 10 15  1  0  0  0  0
 11  9  1  0  0  0  0
 11  1  1  0  0  0  0
 12  5  1  0  0  0  0
 13  8  1  0  0  0  0
 13 12  1  0  0  0  0
 15 21  1  0  0  0  0
 16 20  2  0  0  0  0
 17 19  2  0  0  0  0
 19 20  1  0  0  0  0
 19 18  1  0  0  0  0
 21 16  1  0  0  0  0
 22 15  2  0  0  0  0
 22 17  1  0  0  0  0
 23 26  1  6  0  0  0
 23  8  1  0  0  0  0
 24 26  2  0  0  0  0
 25 29  1  6  0  0  0
 25 24  1  0  0  0  0
 25 28  1  0  0  0  0
 27 23  1  0  0  0  0
 28 27  1  0  0  0  0
M  END
>  <MODEL>
5

>  <REMARK>
 VINA RESULT:      -9.5      3.302      6.916
  Name = 
  2 active torsions:
  status: ('A' for Active; 'I' for Inactive)
    1  A    between atoms: C_1  and  N_17
    2  A    between atoms: C_3  and  C_23
                            x       y       z     vdW  Elec       q    Type
                         _______ _______ _______ _____ _____    ______ ____

>  <TORSDO>
F 2

$$$$
=
 OpenBabel11042411003D

 29 33  0  0  1  0  0  0  0  0999 V2000
  191.5510  176.3000  137.5470 C   0  0  0  0  0  2  0  0  0  0  0  0
  189.5320  177.0960  138.2400 C   0  0  0  0  0  0  0  0  0  0  0  0
  190.1910  176.5420  137.1600 O   0  0  0  0  0  0  0  0  0  0  0  0
  185.8110  178.3700  141.9750 N   0  0  0  0  0  0  0  0  0  0  0  0
  187.7500  178.0290  139.5530 C   0  0  0  0  0  0  0  0  0  0  0  0
  190.0000  177.7590  140.4980 C   0  0  0  0  0  3  0  0  0  0  0  0
  186.3800  178.4510  139.6250 N   0  0  0  0  0  2  0  0  0  0  0  0
  187.1050  178.0840  142.4380 N   0  0  0  0  0  0  0  0  0  0  0  0
  190.3920  177.2190  139.2790 C   0  0  0  0  0  0  0  0  0  0  0  0
  185.4810  178.6250  140.7410 C   0  0  0  0  0  0  0  0  0  0  0  0
  191.6350  176.7500  138.9070 O   0  0  0  0  0  0  0  0  0  0  0  0
  188.6600  178.1710  140.6340 C   0  0  0  0  0  0  0  0  0  0  0  0
  188.2450  178.7990  141.9050 C   0  0  0  0  0  2  0  0  0  0  0  0
  188.2030  177.4950  138.3310 C   0  0  0  0  0  3  0  0  0  0  0  0
  184.0790  179.0000  140.4560 C   0  0  0  0  0  0  0  0  0  0  0  0
  182.7760  178.9970  138.3670 C   0  0  0  0  0  3  0  0  0  0  0  0
  181.6850  179.0160  141.1950 C   0  0  0  0  0  3  0  0  0  0  0  0
  179.5940  179.2830  140.1220 N   0  0  0  0  0  1  0  0  0  0  0  0
  180.9980  179.0670  140.0450 C   0  0  0  0  0  0  0  0  0  0  0  0
  181.5660  178.7410  138.7650 N   0  0  0  0  0  0  0  0  0  0  0  0
  183.7540  179.7510  139.2020 C   0  0  0  0  0  2  0  0  0  0  0  0
  183.1260  178.7400  141.3580 C   0  0  0  0  0  3  0  0  0  0  0  0
  187.2830  177.3150  143.6600 C   0  0  1  0  0  3  0  0  0  0  0  0
  189.1840  177.2350  145.2810 C   0  0  0  0  0  3  0  0  0  0  0  0
  188.2620  177.5030  146.4430 C   0  0  1  0  0  3  0  0  0  0  0  0
  188.7470  177.1980  144.0120 C   0  0  0  0  0  3  0  0  0  0  0  0
  186.4420  177.9040  144.7940 C   0  0  0  0  0  2  0  0  0  0  0  0
  186.8010  177.2150  146.1030 C   0  0  0  0  0  2  0  0  0  0  0  0
  188.6510  176.7520  147.5350 F   0  0  0  0  0  0  0  0  0  0  0  0
  1 11  1  0  0  0  0
  2 14  2  0  0  0  0
  2  9  1  0  0  0  0
  3  1  1  0  0  0  0
  3  2  1  0  0  0  0
  4  8  1  0  0  0  0
  5  7  1  0  0  0  0
  5 12  2  0  0  0  0
  6 12  1  0  0  0  0
  7 10  1  0  0  0  0
  9  6  2  0  0  0  0
 10  4  2  0  0  0  0
 11  9  1  0  0  0  0
 12 13  1  0  0  0  0
 13  8  1  0  0  0  0
 14  5  1  0  0  0  0
 15 10  1  0  0  0  0
 15 22  2  0  0  0  0
 16 20  2  0  0  0  0
 16 21  1  0  0  0  0
 17 22  1  0  0  0  0
 19 18  1  0  0  0  0
 19 17  2  0  0  0  0
 20 19  1  0  0  0  0
 21 15  1  0  0  0  0
 23  8  1  6  0  0  0
 23 26  1  0  0  0  0
 23 27  1  0  0  0  0
 24 25  1  0  0  0  0
 25 29  1  1  0  0  0
 26 24  2  0  0  0  0
 27 28  1  0  0  0  0
 28 25  1  0  0  0  0
M  END
>  <MODEL>
6

>  <REMARK>
 VINA RESULT:      -8.9      3.402      5.826
  Name = 
  2 active torsions:
  status: ('A' for Active; 'I' for Inactive)
    1  A    between atoms: C_1  and  N_17
    2  A    between atoms: C_3  and  C_23
                            x       y       z     vdW  Elec       q    Type
                         _______ _______ _______ _____ _____    ______ ____

>  <TORSDO>
F 2

$$$$
=
 OpenBabel11042411003D

 29 33  0  0  1  0  0  0  0  0999 V2000
  183.1240  179.5500  144.7190 C   0  0  0  0  0  2  0  0  0  0  0  0
  184.7600  178.9640  143.2450 C   0  0  0  0  0  0  0  0  0  0  0  0
  183.6070  179.7130  143.3780 O   0  0  0  0  0  0  0  0  0  0  0  0
  189.7220  177.2370  141.8990 N   0  0  0  0  0  0  0  0  0  0  0  0
  186.7140  177.9980  142.2360 C   0  0  0  0  0  0  0  0  0  0  0  0
  186.1320  177.5070  144.5700 C   0  0  0  0  0  3  0  0  0  0  0  0
  187.5330  177.8430  141.0680 N   0  0  0  0  0  2  0  0  0  0  0  0
  189.3450  177.1020  143.2440 N   0  0  0  0  0  0  0  0  0  0  0  0
  185.0300  178.3400  144.4170 C   0  0  0  0  0  0  0  0  0  0  0  0
  188.9200  177.4780  140.9010 C   0  0  0  0  0  0  0  0  0  0  0  0
  184.0610  178.6640  145.3460 O   0  0  0  0  0  0  0  0  0  0  0  0
  186.9830  177.3340  143.4620 C   0  0  0  0  0  0  0  0  0  0  0  0
  188.1250  176.4060  143.5940 C   0  0  0  0  0  2  0  0  0  0  0  0
  185.5720  178.8160  142.1260 C   0  0  0  0  0  3  0  0  0  0  0  0
  189.4870  177.4910  139.5360 C   0  0  0  0  0  0  0  0  0  0  0  0
  191.0540  175.9700  138.4000 C   0  0  0  0  0  3  0  0  0  0  0  0
  189.1520  177.9340  137.0930 C   0  0  0  0  0  3  0  0  0  0  0  0
  190.2490  177.2900  135.1000 N   0  0  0  0  0  1  0  0  0  0  0  0
  190.0480  177.1350  136.4990 C   0  0  0  0  0  0  0  0  0  0  0  0
  190.6810  176.0240  137.1570 N   0  0  0  0  0  0  0  0  0  0  0  0
  190.9250  177.1280  139.3290 C   0  0  0  0  0  2  0  0  0  0  0  0
  188.7370  177.9070  138.5100 C   0  0  0  0  0  3  0  0  0  0  0  0
  190.3130  177.3690  144.2980 C   0  0  1  0  0  3  0  0  0  0  0  0
  190.0360  177.5030  146.7780 C   0  0  0  0  0  3  0  0  0  0  0  0
  191.1520  176.5150  147.0000 C   0  0  1  0  0  3  0  0  0  0  0  0
  189.6230  177.8550  145.5510 C   0  0  0  0  0  3  0  0  0  0  0  0
  191.1960  176.1440  144.5390 C   0  0  0  0  0  2  0  0  0  0  0  0
  192.0550  176.3740  145.7760 C   0  0  0  0  0  2  0  0  0  0  0  0
  191.9010  176.8890  148.0990 F   0  0  0  0  0  0  0  0  0  0  0  0
  1 11  1  0  0  0  0
  2  3  1  0  0  0  0
  2  9  1  0  0  0  0
  3  1  1  0  0  0  0
  4  8  1  0  0  0  0
  5 12  2  0  0  0  0
  7  5  1  0  0  0  0
  8 13  1  0  0  0  0
  9  6  2  0  0  0  0
  9 11  1  0  0  0  0
 10  7  1  0  0  0  0
 10  4  2  0  0  0  0
 12 13  1  0  0  0  0
 12  6  1  0  0  0  0
 14  5  1  0  0  0  0
 14  2  2  0  0  0  0
 15 10  1  0  0  0  0
 16 21  1  0  0  0  0
 17 22  1  0  0  0  0
 18 19  1  0  0  0  0
 19 17  2  0  0  0  0
 19 20  1  0  0  0  0
 20 16  2  0  0  0  0
 21 15  1  0  0  0  0
 22 15  2  0  0  0  0
 23  8  1  6  0  0  0
 23 27  1  0  0  0  0
 23 26  1  0  0  0  0
 24 25  1  0  0  0  0
 25 29  1  1  0  0  0
 26 24  2  0  0  0  0
 27 28  1  0  0  0  0
 28 25  1  0  0  0  0
M  END
>  <MODEL>
7

>  <REMARK>
 VINA RESULT:      -8.8      3.554      6.824
  Name = 
  2 active torsions:
  status: ('A' for Active; 'I' for Inactive)
    1  A    between atoms: C_1  and  N_17
    2  A    between atoms: C_3  and  C_23
                            x       y       z     vdW  Elec       q    Type
                         _______ _______ _______ _____ _____    ______ ____

>  <TORSDO>
F 2

$$$$
=
 OpenBabel11042411003D

 29 33  0  0  1  0  0  0  0  0999 V2000
  190.9100  174.3350  135.8080 C   0  0  0  0  0  2  0  0  0  0  0  0
  189.7380  175.4670  137.4010 C   0  0  0  0  0  0  0  0  0  0  0  0
  189.5990  174.6370  136.3060 O   0  0  0  0  0  0  0  0  0  0  0  0
  189.1330  177.8680  142.2260 N   0  0  0  0  0  0  0  0  0  0  0  0
  189.1350  176.8340  139.2820 C   0  0  0  0  0  0  0  0  0  0  0  0
  191.4890  176.5230  138.6570 C   0  0  0  0  0  3  0  0  0  0  0  0
  188.0960  177.4050  140.0900 N   0  0  0  0  0  2  0  0  0  0  0  0
  190.4410  177.5460  141.8360 N   0  0  0  0  0  0  0  0  0  0  0  0
  191.0530  175.7070  137.6200 C   0  0  0  0  0  0  0  0  0  0  0  0
  188.0890  177.8990  141.4460 C   0  0  0  0  0  0  0  0  0  0  0  0
  191.8080  175.0410  136.6760 O   0  0  0  0  0  0  0  0  0  0  0  0
  190.5140  177.0950  139.4970 C   0  0  0  0  0  0  0  0  0  0  0  0
  190.9600  178.0100  140.5680 C   0  0  0  0  0  2  0  0  0  0  0  0
  188.7440  176.0160  138.2030 C   0  0  0  0  0  3  0  0  0  0  0  0
  186.8040  178.3560  142.0170 C   0  0  0  0  0  0  0  0  0  0  0  0
  184.5640  178.5920  141.0230 C   0  0  0  0  0  3  0  0  0  0  0  0
  185.2380  178.4060  143.9720 C   0  0  0  0  0  3  0  0  0  0  0  0
  182.9350  178.8540  144.2730 N   0  0  0  0  0  1  0  0  0  0  0  0
  184.0340  178.5870  143.4110 C   0  0  0  0  0  0  0  0  0  0  0  0
  183.7640  178.3530  142.0190 N   0  0  0  0  0  0  0  0  0  0  0  0
  185.9000  179.2280  141.2010 C   0  0  0  0  0  2  0  0  0  0  0  0
  186.4970  178.0570  143.2840 C   0  0  0  0  0  3  0  0  0  0  0  0
  191.3830  177.0280  142.8180 C   0  0  1  0  0  3  0  0  0  0  0  0
  191.6590  177.5400  145.2480 C   0  0  0  0  0  3  0  0  0  0  0  0
  191.5950  176.0780  145.6090 C   0  0  1  0  0  3  0  0  0  0  0  0
  191.5150  177.9750  143.9870 C   0  0  0  0  0  3  0  0  0  0  0  0
  190.9950  175.6100  143.2390 C   0  0  0  0  0  2  0  0  0  0  0  0
  191.8660  175.1720  144.4090 C   0  0  0  0  0  2  0  0  0  0  0  0
  192.4930  175.8030  146.6210 F   0  0  0  0  0  0  0  0  0  0  0  0
  1  3  1  0  0  0  0
  1 11  1  0  0  0  0
  2  9  2  0  0  0  0
  2 14  1  0  0  0  0
  3  2  1  0  0  0  0
  5 12  1  0  0  0  0
  5  7  1  0  0  0  0
  6 12  2  0  0  0  0
  7 10  1  0  0  0  0
  8  4  1  0  0  0  0
  9  6  1  0  0  0  0
 10 15  1  0  0  0  0
 10  4  2  0  0  0  0
 11  9  1  0  0  0  0
 12 13  1  0  0  0  0
 13  8  1  0  0  0  0
 14  5  2  0  0  0  0
 15 22  2  0  0  0  0
 16 21  1  0  0  0  0
 16 20  2  0  0  0  0
 19 17  2  0  0  0  0
 19 18  1  0  0  0  0
 20 19  1  0  0  0  0
 21 15  1  0  0  0  0
 22 17  1  0  0  0  0
 23  8  1  6  0  0  0
 23 27  1  0  0  0  0
 23 26  1  0  0  0  0
 24 25  1  0  0  0  0
 25 29  1  1  0  0  0
 26 24  2  0  0  0  0
 27 28  1  0  0  0  0
 28 25  1  0  0  0  0
M  END
>  <MODEL>
8

>  <REMARK>
 VINA RESULT:      -8.1      4.267      6.721
  Name = 
  2 active torsions:
  status: ('A' for Active; 'I' for Inactive)
    1  A    between atoms: C_1  and  N_17
    2  A    between atoms: C_3  and  C_23
                            x       y       z     vdW  Elec       q    Type
                         _______ _______ _______ _____ _____    ______ ____

>  <TORSDO>
F 2

$$$$
=
 OpenBabel11042411003D

 29 33  0  0  1  0  0  0  0  0999 V2000
  181.3190  178.6920  139.1280 C   0  0  0  0  0  2  0  0  0  0  0  0
  182.9310  178.4720  140.7240 C   0  0  0  0  0  0  0  0  0  0  0  0
  181.5710  178.3770  140.5050 O   0  0  0  0  0  0  0  0  0  0  0  0
  188.0000  177.6130  142.4520 N   0  0  0  0  0  0  0  0  0  0  0  0
  185.0360  178.4050  141.8790 C   0  0  0  0  0  0  0  0  0  0  0  0
  184.9260  179.0080  139.5020 C   0  0  0  0  0  3  0  0  0  0  0  0
  185.7450  178.1940  143.1090 N   0  0  0  0  0  2  0  0  0  0  0  0
  187.8270  177.8520  141.0800 N   0  0  0  0  0  0  0  0  0  0  0  0
  183.5490  178.8290  139.5730 C   0  0  0  0  0  0  0  0  0  0  0  0
  187.1180  177.8420  143.3840 C   0  0  0  0  0  0  0  0  0  0  0  0
  182.6110  178.9760  138.5710 O   0  0  0  0  0  0  0  0  0  0  0  0
  185.6760  178.7950  140.6740 C   0  0  0  0  0  0  0  0  0  0  0  0
  187.1330  179.0380  140.6270 C   0  0  0  0  0  2  0  0  0  0  0  0
  183.6350  178.2560  141.9030 C   0  0  0  0  0  3  0  0  0  0  0  0
  187.5140  177.6170  144.7900 C   0  0  0  0  0  0  0  0  0  0  0  0
  189.7220  177.5270  145.8740 C   0  0  0  0  0  3  0  0  0  0  0  0
  187.0490  178.0000  147.2220 C   0  0  0  0  0  3  0  0  0  0  0  0
  188.3120  177.8710  149.2180 N   0  0  0  0  0  1  0  0  0  0  0  0
  188.2550  177.8950  147.7970 C   0  0  0  0  0  0  0  0  0  0  0  0
  189.4920  177.9830  147.0690 N   0  0  0  0  0  0  0  0  0  0  0  0
  188.7050  176.7640  145.0960 C   0  0  0  0  0  2  0  0  0  0  0  0
  186.7580  178.1070  145.7790 C   0  0  0  0  0  3  0  0  0  0  0  0
  188.6070  177.0970  140.1100 C   0  0  1  0  0  3  0  0  0  0  0  0
  189.3160  177.6660  137.7820 C   0  0  0  0  0  3  0  0  0  0  0  0
  190.7570  177.3560  138.0980 C   0  0  1  0  0  3  0  0  0  0  0  0
  188.3470  177.5950  138.7070 C   0  0  0  0  0  3  0  0  0  0  0  0
  190.0900  177.1120  140.4830 C   0  0  0  0  0  2  0  0  0  0  0  0
  190.9040  176.4970  139.3530 C   0  0  0  0  0  2  0  0  0  0  0  0
  191.3500  176.7260  137.0220 F   0  0  0  0  0  0  0  0  0  0  0  0
  1  3  1  0  0  0  0
  2 14  1  0  0  0  0
  3  2  1  0  0  0  0
  4 10  2  0  0  0  0
  5 14  2  0  0  0  0
  5  7  1  0  0  0  0
  6  9  1  0  0  0  0
  6 12  2  0  0  0  0
  7 10  1  0  0  0  0
  8  4  1  0  0  0  0
  9  2  2  0  0  0  0
 10 15  1  0  0  0  0
 11  1  1  0  0  0  0
 11  9  1  0  0  0  0
 12  5  1  0  0  0  0
 13 12  1  0  0  0  0
 13  8  1  0  0  0  0
 15 21  1  0  0  0  0
 15 22  2  0  0  0  0
 16 20  2  0  0  0  0
 17 19  2  0  0  0  0
 19 18  1  0  0  0  0
 20 19  1  0  0  0  0
 21 16  1  0  0  0  0
 22 17  1  0  0  0  0
 23 26  1  6  0  0  0
 23 27  1  0  0  0  0
 23  8  1  0  0  0  0
 24 25  1  0  0  0  0
 24 26  2  0  0  0  0
 25 29  1  6  0  0  0
 25 28  1  0  0  0  0
 28 27  1  0  0  0  0
M  END
>  <MODEL>
9

>  <REMARK>
 VINA RESULT:      -8.1      3.396      6.653
  Name = 
  2 active torsions:
  status: ('A' for Active; 'I' for Inactive)
    1  A    between atoms: C_1  and  N_17
    2  A    between atoms: C_3  and  C_23
                            x       y       z     vdW  Elec       q    Type
                         _______ _______ _______ _____ _____    ______ ____

>  <TORSDO>
F 2

$$$$
