=
 OpenBabel11042411063D

 39 42  0  0  1  0  0  0  0  0999 V2000
  186.2930  177.4400  144.6000 C   0  0  2  0  0  3  0  0  0  0  0  0
  187.1110  178.3780  142.4300 C   0  0  0  0  0  3  0  0  0  0  0  0
  188.0910  176.3120  143.2240 C   0  0  0  0  0  3  0  0  0  0  0  0
  187.1870  177.3700  143.3950 C   0  0  0  0  0  0  0  0  0  0  0  0
  188.8300  177.2690  141.1190 C   0  0  0  0  0  0  0  0  0  0  0  0
  187.9270  178.3280  141.2960 C   0  0  0  0  0  3  0  0  0  0  0  0
  188.9080  176.2640  142.0910 C   0  0  0  0  0  3  0  0  0  0  0  0
  191.4680  176.9820  138.7510 C   0  0  0  0  0  0  0  0  0  0  0  0
  193.7810  176.6000  139.0970 O   0  0  0  0  0  0  0  0  0  0  0  0
  191.9220  175.8240  136.1390 C   0  0  0  0  0  3  0  0  0  0  0  0
  192.9760  176.1420  136.9040 C   0  0  0  0  0  0  0  0  0  0  0  0
  192.8030  176.5770  138.3040 C   0  0  0  0  0  0  0  0  0  0  0  0
  189.6840  177.2050  139.9220 C   0  0  0  0  0  0  0  0  0  0  0  0
  190.2410  175.6430  136.7900 S   0  0  0  0  0  0  0  0  0  0  0  0
  194.5700  176.1560  136.1750 Cl  0  0  0  0  0  0  0  0  0  0  0  0
  190.3370  177.1490  137.8050 C   0  0  1  0  0  3  0  0  0  0  0  0
  189.2090  177.2460  138.7170 N   0  0  0  0  0  0  0  0  0  0  0  0
  191.0940  177.0180  139.9840 N   0  0  0  0  0  0  0  0  0  0  0  0
  183.5220  179.5330  144.0500 C   0  0  1  0  0  3  0  0  0  0  0  0
  183.3760  178.9400  145.3720 N   0  0  0  0  0  2  0  0  0  0  0  0
  185.7080  178.8450  144.7890 C   0  0  2  0  0  3  0  0  0  0  0  0
  184.7150  178.9110  145.9380 C   0  0  0  0  0  2  0  0  0  0  0  0
  184.9300  179.2560  143.5620 C   0  0  0  0  0  2  0  0  0  0  0  0
  181.3300  178.7670  143.4840 O   0  0  0  0  0  0  0  0  0  0  0  0
  182.5180  178.9590  143.1070 C   0  0  0  0  0  0  0  0  0  0  0  0
  182.9210  178.6220  141.7780 N   0  0  0  0  0  2  0  0  0  0  0  0
  182.0120  178.0350  140.8070 C   0  0  0  0  0  3  0  0  0  0  0  0
  182.7680  177.0910  139.8920 C   0  0  0  0  0  1  0  0  0  0  0  0
  181.3830  179.1350  139.9780 C   0  0  0  0  0  1  0  0  0  0  0  0
  186.9550  176.9940  145.7560 O   0  0  0  0  0  0  0  0  0  0  0  0
  188.0010  177.9000  145.9640 C   0  0  1  0  0  3  0  0  0  0  0  0
  187.7310  178.6940  147.2330 C   0  0  0  0  0  2  0  0  0  0  0  0
  187.6900  177.1210  149.0220 O   0  0  0  0  0  0  0  0  0  0  0  0
  189.6520  178.3480  148.8320 N   0  0  0  0  0  1  0  0  0  0  0  0
  188.3360  178.0110  148.4110 C   0  0  0  0  0  0  0  0  0  0  0  0
  189.2580  177.1750  146.0950 N   0  0  0  0  0  2  0  0  0  0  0  0
  190.4580  178.7230  144.5180 C   0  0  0  0  0  1  0  0  0  0  0  0
  191.7020  176.4540  145.2650 S   0  0  0  0  0  0  0  0  0  0  0  0
  190.4310  177.4840  145.3380 C   0  0  0  0  0  0  0  0  0  0  0  0
  1 30  1  1  0  0  0
  2  4  1  0  0  0  0
  3  4  2  0  0  0  0
  4  1  1  0  0  0  0
  5  6  1  0  0  0  0
  5  7  2  0  0  0  0
  6  2  2  0  0  0  0
  7  3  1  0  0  0  0
  8 18  2  0  0  0  0
 10 14  1  0  0  0  0
 10 11  2  0  0  0  0
 11 12  1  0  0  0  0
 12  8  1  0  0  0  0
 12  9  2  0  0  0  0
 13 18  1  0  0  0  0
 13  5  1  0  0  0  0
 15 11  1  0  0  0  0
 16 14  1  6  0  0  0
 16 17  1  0  0  0  0
 16  8  1  0  0  0  0
 17 13  2  0  0  0  0
 19 25  1  6  0  0  0
 19 20  1  0  0  0  0
 20 22  1  0  0  0  0
 21  1  1  6  0  0  0
 21 22  1  0  0  0  0
 23 19  1  0  0  0  0
 23 21  1  0  0  0  0
 25 24  2  0  0  0  0
 26 25  1  0  0  0  0
 27 26  1  0  0  0  0
 28 27  1  0  0  0  0
 29 27  1  0  0  0  0
 30 31  1  0  0  0  0
 31 36  1  0  0  0  0
 31 32  1  1  0  0  0
 32 35  1  0  0  0  0
 35 34  1  0  0  0  0
 35 33  2  0  0  0  0
 37 39  1  0  0  0  0
 38 39  2  0  0  0  0
 39 36  1  0  0  0  0
M  END
>  <MODEL>
1

>  <REMARK>
 VINA RESULT:      -8.3      0.000      0.000
  Name = 
  11 active torsions:
  status: ('A' for Active; 'I' for Inactive)
    1  A    between atoms: C_2  and  C_7
    2  A    between atoms: C_3  and  N_13
    3  A    between atoms: C_10  and  C_24
    4  A    between atoms: C_10  and  C_32
    5  A    between atoms: C_14  and  C_33
    6  A    between atoms: N_19  and  C_24
    7  A    between atoms: N_19  and  C_28
    8  A    between atoms: O_21  and  C_24
    9  A    between atoms: O_21  and  C_33
   10  A    between atoms: C_23  and  C_27
   11  A    between atoms: C_26  and  C_33
                            x       y       z     vdW  Elec       q    Type
                         _______ _______ _______ _____ _____    ______ ____

>  <TORSDO>
F 11

$$$$
=
 OpenBabel11042411063D

 39 42  0  0  1  0  0  0  0  0999 V2000
  189.9760  176.4960  137.0950 C   0  0  2  0  0  3  0  0  0  0  0  0
  191.2710  177.0300  139.1670 C   0  0  0  0  0  3  0  0  0  0  0  0
  188.8690  176.7890  139.3510 C   0  0  0  0  0  3  0  0  0  0  0  0
  190.0330  176.7780  138.5690 C   0  0  0  0  0  0  0  0  0  0  0  0
  190.1860  177.2950  141.3250 C   0  0  0  0  0  0  0  0  0  0  0  0
  191.3480  177.2870  140.5400 C   0  0  0  0  0  3  0  0  0  0  0  0
  188.9470  177.0470  140.7220 C   0  0  0  0  0  3  0  0  0  0  0  0
  189.5830  177.8720  144.7820 C   0  0  0  0  0  0  0  0  0  0  0  0
  187.5320  178.0070  145.9620 O   0  0  0  0  0  0  0  0  0  0  0  0
  190.7150  177.1200  147.3370 C   0  0  0  0  0  3  0  0  0  0  0  0
  189.4630  177.5970  147.2930 C   0  0  0  0  0  0  0  0  0  0  0  0
  188.7790  177.8370  146.0070 C   0  0  0  0  0  0  0  0  0  0  0  0
  190.2630  177.5520  142.7730 C   0  0  0  0  0  0  0  0  0  0  0  0
  191.5890  176.4870  145.8810 S   0  0  0  0  0  0  0  0  0  0  0  0
  188.6840  178.0550  148.7950 Cl  0  0  0  0  0  0  0  0  0  0  0  0
  191.0670  177.8640  144.8140 C   0  0  1  0  0  3  0  0  0  0  0  0
  191.3840  177.6030  143.4200 N   0  0  0  0  0  0  0  0  0  0  0  0
  189.1100  177.6950  143.5970 N   0  0  0  0  0  0  0  0  0  0  0  0
  187.1260  178.5280  136.7720 C   0  0  1  0  0  3  0  0  0  0  0  0
  188.0660  179.2180  137.6450 N   0  0  0  0  0  2  0  0  0  0  0  0
  189.3210  177.6480  136.3230 C   0  0  2  0  0  3  0  0  0  0  0  0
  189.3820  178.9640  137.0810 C   0  0  0  0  0  2  0  0  0  0  0  0
  187.8520  177.3700  136.1180 C   0  0  0  0  0  2  0  0  0  0  0  0
  185.4390  176.9160  137.2900 O   0  0  0  0  0  0  0  0  0  0  0  0
  185.9520  178.0390  137.5510 C   0  0  0  0  0  0  0  0  0  0  0  0
  185.4110  178.8600  138.5880 N   0  0  0  0  0  2  0  0  0  0  0  0
  184.2520  178.4680  139.3760 C   0  0  0  0  0  3  0  0  0  0  0  0
  183.0620  179.3360  139.0150 C   0  0  0  0  0  1  0  0  0  0  0  0
  184.5650  178.6390  140.8480 C   0  0  0  0  0  1  0  0  0  0  0  0
  189.3450  175.2690  136.8320 O   0  0  0  0  0  0  0  0  0  0  0  0
  190.2570  174.5330  136.0680 C   0  0  1  0  0  3  0  0  0  0  0  0
  191.2950  173.9130  136.9890 C   0  0  0  0  0  2  0  0  0  0  0  0
  193.1700  173.1600  135.7250 O   0  0  0  0  0  0  0  0  0  0  0  0
  193.3830  175.2870  136.6340 N   0  0  0  0  0  1  0  0  0  0  0  0
  192.6620  174.0800  136.4180 C   0  0  0  0  0  0  0  0  0  0  0  0
  189.5530  173.4830  135.3440 N   0  0  0  0  0  2  0  0  0  0  0  0
  187.8610  172.2170  136.7070 C   0  0  0  0  0  1  0  0  0  0  0  0
  186.9840  173.6380  134.5940 S   0  0  0  0  0  0  0  0  0  0  0  0
  188.1870  173.1350  135.5860 C   0  0  0  0  0  0  0  0  0  0  0  0
  1 30  1  1  0  0  0
  1  4  1  0  0  0  0
  2  6  1  0  0  0  0
  3  7  2  0  0  0  0
  4  2  2  0  0  0  0
  4  3  1  0  0  0  0
  5 13  1  0  0  0  0
  6  5  2  0  0  0  0
  7  5  1  0  0  0  0
  8 16  1  0  0  0  0
  8 12  1  0  0  0  0
  9 12  2  0  0  0  0
 11 10  2  0  0  0  0
 11 15  1  0  0  0  0
 12 11  1  0  0  0  0
 13 17  2  0  0  0  0
 13 18  1  0  0  0  0
 14 10  1  0  0  0  0
 16 17  1  6  0  0  0
 16 14  1  0  0  0  0
 18  8  2  0  0  0  0
 19 25  1  1  0  0  0
 19 20  1  0  0  0  0
 21 22  1  0  0  0  0
 21  1  1  1  0  0  0
 22 20  1  0  0  0  0
 23 21  1  0  0  0  0
 23 19  1  0  0  0  0
 24 25  2  0  0  0  0
 25 26  1  0  0  0  0
 26 27  1  0  0  0  0
 27 29  1  0  0  0  0
 28 27  1  0  0  0  0
 31 30  1  0  0  0  0
 31 32  1  1  0  0  0
 33 35  2  0  0  0  0
 35 34  1  0  0  0  0
 35 32  1  0  0  0  0
 36 39  1  0  0  0  0
 36 31  1  0  0  0  0
 38 39  2  0  0  0  0
 39 37  1  0  0  0  0
M  END
>  <MODEL>
2

>  <REMARK>
 VINA RESULT:      -8.1      3.796      8.730
  Name = 
  11 active torsions:
  status: ('A' for Active; 'I' for Inactive)
    1  A    between atoms: C_2  and  C_7
    2  A    between atoms: C_3  and  N_13
    3  A    between atoms: C_10  and  C_24
    4  A    between atoms: C_10  and  C_32
    5  A    between atoms: C_14  and  C_33
    6  A    between atoms: N_19  and  C_24
    7  A    between atoms: N_19  and  C_28
    8  A    between atoms: O_21  and  C_24
    9  A    between atoms: O_21  and  C_33
   10  A    between atoms: C_23  and  C_27
   11  A    between atoms: C_26  and  C_33
                            x       y       z     vdW  Elec       q    Type
                         _______ _______ _______ _____ _____    ______ ____

>  <TORSDO>
F 11

$$$$
=
 OpenBabel11042411063D

 39 42  0  0  1  0  0  0  0  0999 V2000
  189.5100  178.2760  143.2350 C   0  0  2  0  0  3  0  0  0  0  0  0
  187.9670  178.8610  141.3560 C   0  0  0  0  0  3  0  0  0  0  0  0
  187.0240  177.8180  143.3270 C   0  0  0  0  0  3  0  0  0  0  0  0
  188.1360  178.3150  142.6320 C   0  0  0  0  0  0  0  0  0  0  0  0
  185.5800  178.4230  141.4730 C   0  0  0  0  0  0  0  0  0  0  0  0
  186.6940  178.9160  140.7790 C   0  0  0  0  0  3  0  0  0  0  0  0
  185.7530  177.8720  142.7490 C   0  0  0  0  0  3  0  0  0  0  0  0
  182.6080  179.2450  139.7000 C   0  0  0  0  0  0  0  0  0  0  0  0
  182.1400  181.1020  138.3050 O   0  0  0  0  0  0  0  0  0  0  0  0
  180.5470  177.8990  138.1790 C   0  0  0  0  0  3  0  0  0  0  0  0
  180.7000  179.2240  138.0410 C   0  0  0  0  0  0  0  0  0  0  0  0
  181.8370  179.9320  138.6610 C   0  0  0  0  0  0  0  0  0  0  0  0
  184.2360  178.4880  140.8750 C   0  0  0  0  0  0  0  0  0  0  0  0
  181.8160  176.8220  138.8950 S   0  0  0  0  0  0  0  0  0  0  0  0
  179.4510  180.1330  137.2120 Cl  0  0  0  0  0  0  0  0  0  0  0  0
  182.1710  177.9490  140.2770 C   0  0  1  0  0  3  0  0  0  0  0  0
  183.3640  177.5390  141.0020 N   0  0  0  0  0  0  0  0  0  0  0  0
  183.8070  179.5650  140.0480 N   0  0  0  0  0  0  0  0  0  0  0  0
  190.8690  176.3820  140.6030 C   0  0  1  0  0  3  0  0  0  0  0  0
  191.9280  177.2310  141.1320 N   0  0  0  0  0  2  0  0  0  0  0  0
  190.2610  176.9950  142.8500 C   0  0  2  0  0  3  0  0  0  0  0  0
  191.7340  177.2460  142.5730 C   0  0  0  0  0  2  0  0  0  0  0  0
  189.7020  176.4270  141.5680 C   0  0  0  0  0  2  0  0  0  0  0  0
  191.3160  177.1200  138.3740 O   0  0  0  0  0  0  0  0  0  0  0  0
  190.4490  176.8520  139.2510 C   0  0  0  0  0  0  0  0  0  0  0  0
  189.0580  177.0030  138.9650 N   0  0  0  0  0  2  0  0  0  0  0  0
  188.5670  177.4800  137.6810 C   0  0  0  0  0  3  0  0  0  0  0  0
  188.7850  178.9760  137.5660 C   0  0  0  0  0  1  0  0  0  0  0  0
  187.0860  177.1820  137.5670 C   0  0  0  0  0  1  0  0  0  0  0  0
  189.4640  178.4510  144.6280 O   0  0  0  0  0  0  0  0  0  0  0  0
  189.9670  177.2650  145.1740 C   0  0  1  0  0  3  0  0  0  0  0  0
  191.2940  177.5510  145.8580 C   0  0  0  0  0  2  0  0  0  0  0  0
  192.1160  175.3290  145.6060 O   0  0  0  0  0  0  0  0  0  0  0  0
  192.2270  176.1840  147.7630 N   0  0  0  0  0  1  0  0  0  0  0  0
  191.8900  176.2910  146.3850 C   0  0  0  0  0  0  0  0  0  0  0  0
  189.0190  176.7320  146.1430 N   0  0  0  0  0  2  0  0  0  0  0  0
  186.8730  177.9270  146.6810 C   0  0  0  0  0  1  0  0  0  0  0  0
  188.9290  178.1670  148.4040 S   0  0  0  0  0  0  0  0  0  0  0  0
  188.2640  177.5490  147.0410 C   0  0  0  0  0  0  0  0  0  0  0  0
  1 30  1  1  0  0  0
  2  4  1  0  0  0  0
  4  1  1  0  0  0  0
  4  3  2  0  0  0  0
  5  7  2  0  0  0  0
  6  2  2  0  0  0  0
  6  5  1  0  0  0  0
  7  3  1  0  0  0  0
  8 18  2  0  0  0  0
  8 16  1  0  0  0  0
  9 12  2  0  0  0  0
 10 14  1  0  0  0  0
 11 10  2  0  0  0  0
 11 12  1  0  0  0  0
 12  8  1  0  0  0  0
 13 17  2  0  0  0  0
 13  5  1  0  0  0  0
 15 11  1  0  0  0  0
 16 14  1  6  0  0  0
 16 17  1  0  0  0  0
 18 13  1  0  0  0  0
 19 25  1  6  0  0  0
 19 20  1  0  0  0  0
 19 23  1  0  0  0  0
 20 22  1  0  0  0  0
 21  1  1  6  0  0  0
 22 21  1  0  0  0  0
 23 21  1  0  0  0  0
 24 25  2  0  0  0  0
 26 25  1  0  0  0  0
 27 26  1  0  0  0  0
 28 27  1  0  0  0  0
 29 27  1  0  0  0  0
 30 31  1  0  0  0  0
 31 32  1  1  0  0  0
 31 36  1  0  0  0  0
 32 35  1  0  0  0  0
 33 35  2  0  0  0  0
 35 34  1  0  0  0  0
 36 39  1  0  0  0  0
 37 39  1  0  0  0  0
 39 38  2  0  0  0  0
M  END
>  <MODEL>
3

>  <REMARK>
 VINA RESULT:      -7.9      3.727      7.313
  Name = 
  11 active torsions:
  status: ('A' for Active; 'I' for Inactive)
    1  A    between atoms: C_2  and  C_7
    2  A    between atoms: C_3  and  N_13
    3  A    between atoms: C_10  and  C_24
    4  A    between atoms: C_10  and  C_32
    5  A    between atoms: C_14  and  C_33
    6  A    between atoms: N_19  and  C_24
    7  A    between atoms: N_19  and  C_28
    8  A    between atoms: O_21  and  C_24
    9  A    between atoms: O_21  and  C_33
   10  A    between atoms: C_23  and  C_27
   11  A    between atoms: C_26  and  C_33
                            x       y       z     vdW  Elec       q    Type
                         _______ _______ _______ _____ _____    ______ ____

>  <TORSDO>
F 11

$$$$
=
 OpenBabel11042411063D

 39 42  0  0  1  0  0  0  0  0999 V2000
  191.6340  176.2810  137.4600 C   0  0  2  0  0  3  0  0  0  0  0  0
  192.4250  177.1360  139.6730 C   0  0  0  0  0  3  0  0  0  0  0  0
  190.1330  176.3790  139.4930 C   0  0  0  0  0  3  0  0  0  0  0  0
  191.3850  176.6040  138.9050 C   0  0  0  0  0  0  0  0  0  0  0  0
  190.9680  177.2090  141.6160 C   0  0  0  0  0  0  0  0  0  0  0  0
  192.2180  177.4360  141.0230 C   0  0  0  0  0  3  0  0  0  0  0  0
  189.9270  176.6800  140.8420 C   0  0  0  0  0  3  0  0  0  0  0  0
  189.6740  177.8450  144.8670 C   0  0  0  0  0  0  0  0  0  0  0  0
  187.4280  177.8870  145.6240 O   0  0  0  0  0  0  0  0  0  0  0  0
  190.3280  177.2370  147.6190 C   0  0  0  0  0  3  0  0  0  0  0  0
  189.0840  177.6340  147.3170 C   0  0  0  0  0  0  0  0  0  0  0  0
  188.6510  177.7950  145.9150 C   0  0  0  0  0  0  0  0  0  0  0  0
  190.7470  177.5110  143.0400 C   0  0  0  0  0  0  0  0  0  0  0  0
  191.5010  176.6180  146.3850 S   0  0  0  0  0  0  0  0  0  0  0  0
  188.0040  178.0870  148.6220 Cl  0  0  0  0  0  0  0  0  0  0  0  0
  191.1210  177.9300  145.1840 C   0  0  1  0  0  3  0  0  0  0  0  0
  191.7170  177.6490  143.8870 N   0  0  0  0  0  0  0  0  0  0  0  0
  189.4500  177.6060  143.6210 N   0  0  0  0  0  0  0  0  0  0  0  0
  194.2400  174.1810  136.3830 C   0  0  1  0  0  3  0  0  0  0  0  0
  193.7190  174.8770  135.2150 N   0  0  0  0  0  2  0  0  0  0  0  0
  193.1330  176.1750  137.1540 C   0  0  2  0  0  3  0  0  0  0  0  0
  193.4270  176.2290  135.6640 C   0  0  0  0  0  2  0  0  0  0  0  0
  193.6690  174.8440  137.6200 C   0  0  0  0  0  2  0  0  0  0  0  0
  192.6750  172.3970  136.0970 O   0  0  0  0  0  0  0  0  0  0  0  0
  193.8650  172.7370  136.3410 C   0  0  0  0  0  0  0  0  0  0  0  0
  194.8660  171.7490  136.5900 N   0  0  0  0  0  2  0  0  0  0  0  0
  194.5770  170.3230  136.5930 C   0  0  0  0  0  3  0  0  0  0  0  0
  194.8410  169.7440  137.9700 C   0  0  0  0  0  1  0  0  0  0  0  0
  195.4650  169.6280  135.5820 C   0  0  0  0  0  1  0  0  0  0  0  0
  190.9950  177.2010  136.6120 O   0  0  0  0  0  0  0  0  0  0  0  0
  189.6800  176.7430  136.4830 C   0  0  1  0  0  3  0  0  0  0  0  0
  188.7950  177.8870  136.0130 C   0  0  0  0  0  2  0  0  0  0  0  0
  188.9550  179.4190  137.8310 O   0  0  0  0  0  0  0  0  0  0  0  0
  186.8690  178.4400  137.5470 N   0  0  0  0  0  1  0  0  0  0  0  0
  188.2310  178.6220  137.1810 C   0  0  0  0  0  0  0  0  0  0  0  0
  189.6330  175.6560  135.5140 N   0  0  0  0  0  2  0  0  0  0  0  0
  187.5620  174.5310  134.6360 C   0  0  0  0  0  1  0  0  0  0  0  0
  188.7990  173.4350  136.7630 S   0  0  0  0  0  0  0  0  0  0  0  0
  188.7020  174.5720  135.5880 C   0  0  0  0  0  0  0  0  0  0  0  0
  1 30  1  6  0  0  0
  1  4  1  0  0  0  0
  2  6  1  0  0  0  0
  3  7  2  0  0  0  0
  4  3  1  0  0  0  0
  4  2  2  0  0  0  0
  5 13  1  0  0  0  0
  6  5  2  0  0  0  0
  7  5  1  0  0  0  0
  8 16  1  0  0  0  0
  8 12  1  0  0  0  0
  9 12  2  0  0  0  0
 11 10  2  0  0  0  0
 11 15  1  0  0  0  0
 12 11  1  0  0  0  0
 13 18  1  0  0  0  0
 13 17  2  0  0  0  0
 14 10  1  0  0  0  0
 16 17  1  6  0  0  0
 16 14  1  0  0  0  0
 18  8  2  0  0  0  0
 19 25  1  6  0  0  0
 19 23  1  0  0  0  0
 20 22  1  0  0  0  0
 20 19  1  0  0  0  0
 21  1  1  6  0  0  0
 21 23  1  0  0  0  0
 22 21  1  0  0  0  0
 24 25  2  0  0  0  0
 25 26  1  0  0  0  0
 26 27  1  0  0  0  0
 27 28  1  0  0  0  0
 29 27  1  0  0  0  0
 31 32  1  6  0  0  0
 31 30  1  0  0  0  0
 32 35  1  0  0  0  0
 35 34  1  0  0  0  0
 35 33  2  0  0  0  0
 36 39  1  0  0  0  0
 36 31  1  0  0  0  0
 37 39  1  0  0  0  0
 39 38  2  0  0  0  0
M  END
>  <MODEL>
4

>  <REMARK>
 VINA RESULT:      -7.9      4.391     10.740
  Name = 
  11 active torsions:
  status: ('A' for Active; 'I' for Inactive)
    1  A    between atoms: C_2  and  C_7
    2  A    between atoms: C_3  and  N_13
    3  A    between atoms: C_10  and  C_24
    4  A    between atoms: C_10  and  C_32
    5  A    between atoms: C_14  and  C_33
    6  A    between atoms: N_19  and  C_24
    7  A    between atoms: N_19  and  C_28
    8  A    between atoms: O_21  and  C_24
    9  A    between atoms: O_21  and  C_33
   10  A    between atoms: C_23  and  C_27
   11  A    between atoms: C_26  and  C_33
                            x       y       z     vdW  Elec       q    Type
                         _______ _______ _______ _____ _____    ______ ____

>  <TORSDO>
F 11

$$$$
=
 OpenBabel11042411063D

 39 42  0  0  1  0  0  0  0  0999 V2000
  189.3000  176.9740  138.6120 C   0  0  2  0  0  3  0  0  0  0  0  0
  190.7610  175.1190  137.7890 C   0  0  0  0  0  3  0  0  0  0  0  0
  191.8210  177.0400  138.8140 C   0  0  0  0  0  3  0  0  0  0  0  0
  190.6590  176.3710  138.4030 C   0  0  0  0  0  0  0  0  0  0  0  0
  193.1800  175.1980  138.0050 C   0  0  0  0  0  0  0  0  0  0  0  0
  192.0160  174.5340  137.5920 C   0  0  0  0  0  3  0  0  0  0  0  0
  193.0740  176.4550  138.6150 C   0  0  0  0  0  3  0  0  0  0  0  0
  195.9950  173.0440  137.7200 C   0  0  0  0  0  0  0  0  0  0  0  0
  196.1560  170.7050  138.0670 O   0  0  0  0  0  0  0  0  0  0  0  0
  198.2940  172.6940  135.9970 C   0  0  0  0  0  3  0  0  0  0  0  0
  197.9110  171.6820  136.7880 C   0  0  0  0  0  0  0  0  0  0  0  0
  196.6530  171.7450  137.5590 C   0  0  0  0  0  0  0  0  0  0  0  0
  194.5030  174.5820  137.8110 C   0  0  0  0  0  0  0  0  0  0  0  0
  197.2210  174.0970  135.5910 S   0  0  0  0  0  0  0  0  0  0  0  0
  198.9960  170.3200  136.9960 Cl  0  0  0  0  0  0  0  0  0  0  0  0
  196.6430  174.3120  137.3010 C   0  0  1  0  0  3  0  0  0  0  0  0
  195.5270  175.2420  137.3700 N   0  0  0  0  0  0  0  0  0  0  0  0
  194.7520  173.1960  138.0210 N   0  0  0  0  0  0  0  0  0  0  0  0
  186.3280  178.0550  137.0750 C   0  0  1  0  0  3  0  0  0  0  0  0
  187.2450  179.1860  137.1120 N   0  0  0  0  0  2  0  0  0  0  0  0
  188.5610  177.1790  137.2840 C   0  0  2  0  0  3  0  0  0  0  0  0
  188.5610  178.6310  136.8360 C   0  0  0  0  0  2  0  0  0  0  0  0
  187.1060  176.8050  137.4330 C   0  0  0  0  0  2  0  0  0  0  0  0
  185.1570  179.3080  138.7400 O   0  0  0  0  0  0  0  0  0  0  0  0
  185.2030  178.2650  138.0320 C   0  0  0  0  0  0  0  0  0  0  0  0
  184.1860  177.2670  138.1440 N   0  0  0  0  0  2  0  0  0  0  0  0
  183.0710  177.3820  139.0700 C   0  0  0  0  0  3  0  0  0  0  0  0
  182.5820  176.0030  139.4690 C   0  0  0  0  0  1  0  0  0  0  0  0
  181.9400  178.1380  138.4040 C   0  0  0  0  0  1  0  0  0  0  0  0
  189.3770  178.1660  139.3520 O   0  0  0  0  0  0  0  0  0  0  0  0
  188.8940  177.8500  140.6260 C   0  0  1  0  0  3  0  0  0  0  0  0
  189.9420  178.2180  141.6640 C   0  0  0  0  0  2  0  0  0  0  0  0
  190.1560  175.8760  142.0460 O   0  0  0  0  0  0  0  0  0  0  0  0
  192.0560  177.1290  142.5080 N   0  0  0  0  0  1  0  0  0  0  0  0
  190.7030  177.0080  142.0850 C   0  0  0  0  0  0  0  0  0  0  0  0
  187.6660  178.5920  140.8820 N   0  0  0  0  0  2  0  0  0  0  0  0
  185.3330  178.7060  141.8120 C   0  0  0  0  0  1  0  0  0  0  0  0
  187.2320  177.4950  143.2880 S   0  0  0  0  0  0  0  0  0  0  0  0
  186.7450  178.2600  141.9240 C   0  0  0  0  0  0  0  0  0  0  0  0
  1 30  1  6  0  0  0
  2  4  1  0  0  0  0
  4  1  1  0  0  0  0
  4  3  2  0  0  0  0
  5  7  2  0  0  0  0
  6  2  2  0  0  0  0
  6  5  1  0  0  0  0
  7  3  1  0  0  0  0
  8 18  2  0  0  0  0
 10 11  2  0  0  0  0
 11 15  1  0  0  0  0
 11 12  1  0  0  0  0
 12  8  1  0  0  0  0
 12  9  2  0  0  0  0
 13  5  1  0  0  0  0
 13 18  1  0  0  0  0
 14 10  1  0  0  0  0
 16 14  1  6  0  0  0
 16 17  1  0  0  0  0
 16  8  1  0  0  0  0
 17 13  2  0  0  0  0
 19 20  1  0  0  0  0
 19 23  1  0  0  0  0
 19 25  1  1  0  0  0
 21 23  1  0  0  0  0
 21  1  1  1  0  0  0
 22 20  1  0  0  0  0
 22 21  1  0  0  0  0
 25 26  1  0  0  0  0
 25 24  2  0  0  0  0
 26 27  1  0  0  0  0
 27 28  1  0  0  0  0
 29 27  1  0  0  0  0
 30 31  1  0  0  0  0
 31 36  1  0  0  0  0
 31 32  1  1  0  0  0
 32 35  1  0  0  0  0
 33 35  2  0  0  0  0
 35 34  1  0  0  0  0
 36 39  1  0  0  0  0
 37 39  1  0  0  0  0
 39 38  2  0  0  0  0
M  END
>  <MODEL>
5

>  <REMARK>
 VINA RESULT:      -7.7      3.972      6.367
  Name = 
  11 active torsions:
  status: ('A' for Active; 'I' for Inactive)
    1  A    between atoms: C_2  and  C_7
    2  A    between atoms: C_3  and  N_13
    3  A    between atoms: C_10  and  C_24
    4  A    between atoms: C_10  and  C_32
    5  A    between atoms: C_14  and  C_33
    6  A    between atoms: N_19  and  C_24
    7  A    between atoms: N_19  and  C_28
    8  A    between atoms: O_21  and  C_24
    9  A    between atoms: O_21  and  C_33
   10  A    between atoms: C_23  and  C_27
   11  A    between atoms: C_26  and  C_33
                            x       y       z     vdW  Elec       q    Type
                         _______ _______ _______ _____ _____    ______ ____

>  <TORSDO>
F 11

$$$$
=
 OpenBabel11042411063D

 39 42  0  0  1  0  0  0  0  0999 V2000
  189.0460  177.3510  143.4300 C   0  0  2  0  0  3  0  0  0  0  0  0
  186.5530  177.1640  143.4970 C   0  0  0  0  0  3  0  0  0  0  0  0
  187.5430  178.6610  141.8730 C   0  0  0  0  0  3  0  0  0  0  0  0
  187.6880  177.7380  142.9190 C   0  0  0  0  0  0  0  0  0  0  0  0
  185.1300  178.4230  141.9830 C   0  0  0  0  0  0  0  0  0  0  0  0
  185.2790  177.5030  143.0310 C   0  0  0  0  0  3  0  0  0  0  0  0
  186.2690  179.0000  141.4090 C   0  0  0  0  0  3  0  0  0  0  0  0
  182.2550  179.2590  140.0640 C   0  0  0  0  0  0  0  0  0  0  0  0
  182.0290  179.5610  137.7240 O   0  0  0  0  0  0  0  0  0  0  0  0
  179.4290  178.6360  140.0050 C   0  0  0  0  0  3  0  0  0  0  0  0
  180.0050  179.1610  138.9140 C   0  0  0  0  0  0  0  0  0  0  0  0
  181.4680  179.3420  138.8310 C   0  0  0  0  0  0  0  0  0  0  0  0
  183.7920  178.7750  141.4800 C   0  0  0  0  0  0  0  0  0  0  0  0
  180.3680  177.8690  141.3510 S   0  0  0  0  0  0  0  0  0  0  0  0
  178.9770  179.7540  137.6230 Cl  0  0  0  0  0  0  0  0  0  0  0  0
  181.6160  179.1910  141.4020 C   0  0  1  0  0  3  0  0  0  0  0  0
  182.7440  178.8220  142.2420 N   0  0  0  0  0  0  0  0  0  0  0  0
  183.5200  179.0220  140.1040 N   0  0  0  0  0  0  0  0  0  0  0  0
  189.8920  177.0710  140.0290 C   0  0  1  0  0  3  0  0  0  0  0  0
  190.9170  177.8770  140.6760 N   0  0  0  0  0  2  0  0  0  0  0  0
  189.8420  176.5650  142.3820 C   0  0  2  0  0  3  0  0  0  0  0  0
  191.1280  177.2680  141.9800 C   0  0  0  0  0  2  0  0  0  0  0  0
  189.0430  176.4320  141.1080 C   0  0  0  0  0  2  0  0  0  0  0  0
  189.3330  179.1340  138.9590 O   0  0  0  0  0  0  0  0  0  0  0  0
  189.0510  177.9170  139.1320 C   0  0  0  0  0  0  0  0  0  0  0  0
  187.9200  177.3350  138.4820 N   0  0  0  0  0  2  0  0  0  0  0  0
  187.0350  178.0960  137.6140 C   0  0  0  0  0  3  0  0  0  0  0  0
  185.6570  177.4630  137.5940 C   0  0  0  0  0  1  0  0  0  0  0  0
  187.5980  178.1080  136.2080 C   0  0  0  0  0  1  0  0  0  0  0  0
  188.9560  176.6520  144.6450 O   0  0  0  0  0  0  0  0  0  0  0  0
  189.4570  177.5240  145.6180 C   0  0  1  0  0  3  0  0  0  0  0  0
  188.9480  177.0940  146.9850 C   0  0  0  0  0  2  0  0  0  0  0  0
  187.9830  178.6300  148.5300 O   0  0  0  0  0  0  0  0  0  0  0  0
  186.6990  178.1880  146.6460 N   0  0  0  0  0  1  0  0  0  0  0  0
  187.8620  178.0050  147.4450 C   0  0  0  0  0  0  0  0  0  0  0  0
  190.9140  177.4900  145.6020 N   0  0  0  0  0  2  0  0  0  0  0  0
  192.0550  175.3620  144.8990 C   0  0  0  0  0  1  0  0  0  0  0  0
  192.0630  176.0040  147.5140 S   0  0  0  0  0  0  0  0  0  0  0  0
  191.6810  176.3350  145.9560 C   0  0  0  0  0  0  0  0  0  0  0  0
  1 30  1  1  0  0  0
  3  4  1  0  0  0  0
  4  1  1  0  0  0  0
  4  2  2  0  0  0  0
  5  6  2  0  0  0  0
  6  2  1  0  0  0  0
  7  3  2  0  0  0  0
  7  5  1  0  0  0  0
  8 18  2  0  0  0  0
  9 12  2  0  0  0  0
 10 14  1  0  0  0  0
 11 10  2  0  0  0  0
 12 11  1  0  0  0  0
 12  8  1  0  0  0  0
 13  5  1  0  0  0  0
 13 17  2  0  0  0  0
 14 16  1  0  0  0  0
 15 11  1  0  0  0  0
 16  8  1  6  0  0  0
 16 17  1  0  0  0  0
 18 13  1  0  0  0  0
 19 25  1  6  0  0  0
 19 20  1  0  0  0  0
 19 23  1  0  0  0  0
 20 22  1  0  0  0  0
 21  1  1  1  0  0  0
 22 21  1  0  0  0  0
 23 21  1  0  0  0  0
 24 25  2  0  0  0  0
 26 25  1  0  0  0  0
 27 26  1  0  0  0  0
 28 27  1  0  0  0  0
 29 27  1  0  0  0  0
 30 31  1  0  0  0  0
 31 32  1  1  0  0  0
 32 35  1  0  0  0  0
 34 35  1  0  0  0  0
 35 33  2  0  0  0  0
 36 31  1  0  0  0  0
 36 39  1  0  0  0  0
 37 39  1  0  0  0  0
 39 38  2  0  0  0  0
M  END
>  <MODEL>
6

>  <REMARK>
 VINA RESULT:      -7.7      3.902      7.218
  Name = 
  11 active torsions:
  status: ('A' for Active; 'I' for Inactive)
    1  A    between atoms: C_2  and  C_7
    2  A    between atoms: C_3  and  N_13
    3  A    between atoms: C_10  and  C_24
    4  A    between atoms: C_10  and  C_32
    5  A    between atoms: C_14  and  C_33
    6  A    between atoms: N_19  and  C_24
    7  A    between atoms: N_19  and  C_28
    8  A    between atoms: O_21  and  C_24
    9  A    between atoms: O_21  and  C_33
   10  A    between atoms: C_23  and  C_27
   11  A    between atoms: C_26  and  C_33
                            x       y       z     vdW  Elec       q    Type
                         _______ _______ _______ _____ _____    ______ ____

>  <TORSDO>
F 11

$$$$
=
 OpenBabel11042411063D

 39 42  0  0  1  0  0  0  0  0999 V2000
  186.0420  179.0290  142.1760 C   0  0  2  0  0  3  0  0  0  0  0  0
  188.4030  178.3450  141.7160 C   0  0  0  0  0  3  0  0  0  0  0  0
  186.8050  178.2260  139.9020 C   0  0  0  0  0  3  0  0  0  0  0  0
  187.1010  178.5220  141.2400 C   0  0  0  0  0  0  0  0  0  0  0  0
  189.1150  177.5890  139.5200 C   0  0  0  0  0  0  0  0  0  0  0  0
  189.4070  177.8820  140.8590 C   0  0  0  0  0  3  0  0  0  0  0  0
  187.8080  177.7630  139.0470 C   0  0  0  0  0  3  0  0  0  0  0  0
  192.1120  176.4600  137.9720 C   0  0  0  0  0  0  0  0  0  0  0  0
  194.2650  176.1210  138.9030 O   0  0  0  0  0  0  0  0  0  0  0  0
  192.9330  174.5100  135.9980 C   0  0  0  0  0  3  0  0  0  0  0  0
  193.8490  175.0160  136.8350 C   0  0  0  0  0  0  0  0  0  0  0  0
  193.4590  175.8830  137.9650 C   0  0  0  0  0  0  0  0  0  0  0  0
  190.1700  177.1130  138.6100 C   0  0  0  0  0  0  0  0  0  0  0  0
  191.1490  174.6110  136.2980 S   0  0  0  0  0  0  0  0  0  0  0  0
  195.5460  174.7360  136.4940 Cl  0  0  0  0  0  0  0  0  0  0  0  0
  191.2050  176.3580  136.8010 C   0  0  1  0  0  3  0  0  0  0  0  0
  189.9400  176.7840  137.3780 N   0  0  0  0  0  0  0  0  0  0  0  0
  191.5160  176.9020  139.0250 N   0  0  0  0  0  0  0  0  0  0  0  0
  187.1530  177.3120  145.0360 C   0  0  1  0  0  3  0  0  0  0  0  0
  186.4310  178.4960  145.4810 N   0  0  0  0  0  2  0  0  0  0  0  0
  185.6900  177.9910  143.2490 C   0  0  2  0  0  3  0  0  0  0  0  0
  185.3040  178.6310  144.5720 C   0  0  0  0  0  2  0  0  0  0  0  0
  186.8900  177.1280  143.5550 C   0  0  0  0  0  2  0  0  0  0  0  0
  189.0190  178.1030  146.3050 O   0  0  0  0  0  0  0  0  0  0  0  0
  188.6150  177.4650  145.2940 C   0  0  0  0  0  0  0  0  0  0  0  0
  189.5490  176.8890  144.3790 N   0  0  0  0  0  2  0  0  0  0  0  0
  190.9890  177.0150  144.5440 C   0  0  0  0  0  3  0  0  0  0  0  0
  191.4770  178.2920  143.8870 C   0  0  0  0  0  1  0  0  0  0  0  0
  191.6750  175.8290  143.8970 C   0  0  0  0  0  1  0  0  0  0  0  0
  184.9020  179.4580  141.4770 O   0  0  0  0  0  0  0  0  0  0  0  0
  183.8700  178.6050  141.8790 C   0  0  1  0  0  3  0  0  0  0  0  0
  182.5740  179.3950  141.9740 C   0  0  0  0  0  2  0  0  0  0  0  0
  182.1030  178.7150  144.2080 O   0  0  0  0  0  0  0  0  0  0  0  0
  180.3670  178.4070  142.6960 N   0  0  0  0  0  1  0  0  0  0  0  0
  181.6890  178.8180  143.0240 C   0  0  0  0  0  0  0  0  0  0  0  0
  183.7190  177.5270  140.9100 N   0  0  0  0  0  2  0  0  0  0  0  0
  181.6630  176.7300  139.7020 C   0  0  0  0  0  1  0  0  0  0  0  0
  183.2240  178.5560  138.4850 S   0  0  0  0  0  0  0  0  0  0  0  0
  182.8610  177.6050  139.7690 C   0  0  0  0  0  0  0  0  0  0  0  0
  1 30  1  6  0  0  0
  3  4  2  0  0  0  0
  4  2  1  0  0  0  0
  4  1  1  0  0  0  0
  5  6  1  0  0  0  0
  6  2  2  0  0  0  0
  7  5  2  0  0  0  0
  7  3  1  0  0  0  0
  8 18  2  0  0  0  0
 10 14  1  0  0  0  0
 10 11  2  0  0  0  0
 11 12  1  0  0  0  0
 12  8  1  0  0  0  0
 12  9  2  0  0  0  0
 13 18  1  0  0  0  0
 13  5  1  0  0  0  0
 15 11  1  0  0  0  0
 16 14  1  1  0  0  0
 16 17  1  0  0  0  0
 16  8  1  0  0  0  0
 17 13  2  0  0  0  0
 19 25  1  6  0  0  0
 19 20  1  0  0  0  0
 21  1  1  6  0  0  0
 21 23  1  0  0  0  0
 21 22  1  0  0  0  0
 22 20  1  0  0  0  0
 23 19  1  0  0  0  0
 25 24  2  0  0  0  0
 26 27  1  0  0  0  0
 26 25  1  0  0  0  0
 28 27  1  0  0  0  0
 29 27  1  0  0  0  0
 30 31  1  0  0  0  0
 31 32  1  6  0  0  0
 32 35  1  0  0  0  0
 34 35  1  0  0  0  0
 35 33  2  0  0  0  0
 36 31  1  0  0  0  0
 37 39  1  0  0  0  0
 38 39  2  0  0  0  0
 39 36  1  0  0  0  0
M  END
>  <MODEL>
7

>  <REMARK>
 VINA RESULT:      -7.7      2.261      5.874
  Name = 
  11 active torsions:
  status: ('A' for Active; 'I' for Inactive)
    1  A    between atoms: C_2  and  C_7
    2  A    between atoms: C_3  and  N_13
    3  A    between atoms: C_10  and  C_24
    4  A    between atoms: C_10  and  C_32
    5  A    between atoms: C_14  and  C_33
    6  A    between atoms: N_19  and  C_24
    7  A    between atoms: N_19  and  C_28
    8  A    between atoms: O_21  and  C_24
    9  A    between atoms: O_21  and  C_33
   10  A    between atoms: C_23  and  C_27
   11  A    between atoms: C_26  and  C_33
                            x       y       z     vdW  Elec       q    Type
                         _______ _______ _______ _____ _____    ______ ____

>  <TORSDO>
F 11

$$$$
=
 OpenBabel11042411063D

 39 42  0  0  1  0  0  0  0  0999 V2000
  188.2210  177.6410  139.1380 C   0  0  2  0  0  3  0  0  0  0  0  0
  190.7190  177.5230  139.0740 C   0  0  0  0  0  3  0  0  0  0  0  0
  189.4630  175.7890  137.9430 C   0  0  0  0  0  3  0  0  0  0  0  0
  189.4900  176.9650  138.7070 C   0  0  0  0  0  0  0  0  0  0  0  0
  191.8890  175.7410  137.9090 C   0  0  0  0  0  0  0  0  0  0  0  0
  191.9130  176.9140  138.6760 C   0  0  0  0  0  3  0  0  0  0  0  0
  190.6570  175.1820  137.5470 C   0  0  0  0  0  3  0  0  0  0  0  0
  195.1610  174.9430  136.7670 C   0  0  0  0  0  0  0  0  0  0  0  0
  196.9230  176.3770  136.0910 O   0  0  0  0  0  0  0  0  0  0  0  0
  197.2670  173.0500  137.3650 C   0  0  0  0  0  3  0  0  0  0  0  0
  197.5630  174.1590  136.6720 C   0  0  0  0  0  0  0  0  0  0  0  0
  196.5690  175.2340  136.4850 C   0  0  0  0  0  0  0  0  0  0  0  0
  193.1430  175.1020  137.4770 C   0  0  0  0  0  0  0  0  0  0  0  0
  195.7520  172.8650  138.3420 S   0  0  0  0  0  0  0  0  0  0  0  0
  199.1220  174.2610  135.8760 Cl  0  0  0  0  0  0  0  0  0  0  0  0
  194.6830  173.5670  137.0480 C   0  0  1  0  0  3  0  0  0  0  0  0
  193.3430  173.8240  137.5510 N   0  0  0  0  0  0  0  0  0  0  0  0
  194.2680  175.8400  137.0110 N   0  0  0  0  0  0  0  0  0  0  0  0
  185.8740  177.0690  136.5840 C   0  0  1  0  0  3  0  0  0  0  0  0
  185.1590  177.6150  137.7300 N   0  0  0  0  0  2  0  0  0  0  0  0
  187.4700  178.2480  137.9470 C   0  0  2  0  0  3  0  0  0  0  0  0
  186.0390  178.6260  138.2930 C   0  0  0  0  0  2  0  0  0  0  0  0
  187.3590  177.2390  136.8300 C   0  0  0  0  0  2  0  0  0  0  0  0
  184.3990  175.2940  135.9610 O   0  0  0  0  0  0  0  0  0  0  0  0
  185.5350  175.6280  136.3960 C   0  0  0  0  0  0  0  0  0  0  0  0
  186.5070  174.6330  136.7240 N   0  0  0  0  0  2  0  0  0  0  0  0
  186.2470  173.2080  136.5950 C   0  0  0  0  0  3  0  0  0  0  0  0
  185.2050  172.7770  137.6090 C   0  0  0  0  0  1  0  0  0  0  0  0
  187.5290  172.4390  136.8390 C   0  0  0  0  0  1  0  0  0  0  0  0
  188.4640  178.5970  140.1390 O   0  0  0  0  0  0  0  0  0  0  0  0
  187.8730  178.0840  141.2990 C   0  0  1  0  0  3  0  0  0  0  0  0
  188.9320  177.9470  142.3810 C   0  0  0  0  0  2  0  0  0  0  0  0
  188.3060  175.8060  143.2210 O   0  0  0  0  0  0  0  0  0  0  0  0
  190.4380  175.9230  142.3080 N   0  0  0  0  0  1  0  0  0  0  0  0
  189.1940  176.5090  142.6720 C   0  0  0  0  0  0  0  0  0  0  0  0
  186.8210  178.9850  141.7510 N   0  0  0  0  0  2  0  0  0  0  0  0
  185.7710  178.2230  143.9050 C   0  0  0  0  0  1  0  0  0  0  0  0
  184.2320  178.2960  141.6960 S   0  0  0  0  0  0  0  0  0  0  0  0
  185.6580  178.5490  142.4610 C   0  0  0  0  0  0  0  0  0  0  0  0
  1 30  1  1  0  0  0
  3  4  2  0  0  0  0
  4  2  1  0  0  0  0
  4  1  1  0  0  0  0
  5  6  1  0  0  0  0
  6  2  2  0  0  0  0
  7  5  2  0  0  0  0
  7  3  1  0  0  0  0
  8 18  2  0  0  0  0
  9 12  2  0  0  0  0
 10 14  1  0  0  0  0
 11 10  2  0  0  0  0
 12 11  1  0  0  0  0
 12  8  1  0  0  0  0
 13 17  2  0  0  0  0
 13  5  1  0  0  0  0
 15 11  1  0  0  0  0
 16  8  1  1  0  0  0
 16 17  1  0  0  0  0
 16 14  1  0  0  0  0
 18 13  1  0  0  0  0
 19 25  1  1  0  0  0
 19 23  1  0  0  0  0
 19 20  1  0  0  0  0
 20 22  1  0  0  0  0
 21 22  1  0  0  0  0
 21  1  1  1  0  0  0
 23 21  1  0  0  0  0
 24 25  2  0  0  0  0
 25 26  1  0  0  0  0
 27 26  1  0  0  0  0
 27 29  1  0  0  0  0
 27 28  1  0  0  0  0
 30 31  1  0  0  0  0
 31 36  1  0  0  0  0
 31 32  1  1  0  0  0
 32 35  1  0  0  0  0
 34 35  1  0  0  0  0
 35 33  2  0  0  0  0
 36 39  1  0  0  0  0
 38 39  2  0  0  0  0
 39 37  1  0  0  0  0
M  END
>  <MODEL>
8

>  <REMARK>
 VINA RESULT:      -7.7      4.067      6.233
  Name = 
  11 active torsions:
  status: ('A' for Active; 'I' for Inactive)
    1  A    between atoms: C_2  and  C_7
    2  A    between atoms: C_3  and  N_13
    3  A    between atoms: C_10  and  C_24
    4  A    between atoms: C_10  and  C_32
    5  A    between atoms: C_14  and  C_33
    6  A    between atoms: N_19  and  C_24
    7  A    between atoms: N_19  and  C_28
    8  A    between atoms: O_21  and  C_24
    9  A    between atoms: O_21  and  C_33
   10  A    between atoms: C_23  and  C_27
   11  A    between atoms: C_26  and  C_33
                            x       y       z     vdW  Elec       q    Type
                         _______ _______ _______ _____ _____    ______ ____

>  <TORSDO>
F 11

$$$$
=
 OpenBabel11042411063D

 39 42  0  0  1  0  0  0  0  0999 V2000
  182.8090  178.5860  139.9410 C   0  0  2  0  0  3  0  0  0  0  0  0
  185.2950  178.7510  140.1610 C   0  0  0  0  0  3  0  0  0  0  0  0
  184.0190  178.0600  142.0990 C   0  0  0  0  0  3  0  0  0  0  0  0
  184.0640  178.4620  140.7570 C   0  0  0  0  0  0  0  0  0  0  0  0
  186.4360  178.2290  142.2410 C   0  0  0  0  0  0  0  0  0  0  0  0
  186.4770  178.6340  140.8990 C   0  0  0  0  0  3  0  0  0  0  0  0
  185.2010  177.9450  142.8360 C   0  0  0  0  0  3  0  0  0  0  0  0
  188.9430  177.7230  144.7130 C   0  0  0  0  0  0  0  0  0  0  0  0
  188.7210  177.1590  147.0040 O   0  0  0  0  0  0  0  0  0  0  0  0
  191.5670  176.5230  144.9290 C   0  0  0  0  0  3  0  0  0  0  0  0
  190.8630  176.7590  146.0460 C   0  0  0  0  0  0  0  0  0  0  0  0
  189.4590  177.2120  145.9850 C   0  0  0  0  0  0  0  0  0  0  0  0
  187.6780  178.0920  143.0200 C   0  0  0  0  0  0  0  0  0  0  0  0
  190.8230  176.4790  143.2770 S   0  0  0  0  0  0  0  0  0  0  0  0
  191.6780  176.6420  147.5940 Cl  0  0  0  0  0  0  0  0  0  0  0  0
  189.8280  177.9770  143.5490 C   0  0  1  0  0  3  0  0  0  0  0  0
  188.8560  178.1670  142.4840 N   0  0  0  0  0  0  0  0  0  0  0  0
  187.6920  177.7940  144.4120 N   0  0  0  0  0  0  0  0  0  0  0  0
  182.5600  177.7630  136.5330 C   0  0  1  0  0  3  0  0  0  0  0  0
  181.3950  178.5640  136.8820 N   0  0  0  0  0  2  0  0  0  0  0  0
  183.1090  179.0300  138.5040 C   0  0  2  0  0  3  0  0  0  0  0  0
  181.8820  179.5830  137.7980 C   0  0  0  0  0  2  0  0  0  0  0  0
  183.5520  177.8490  137.6740 C   0  0  0  0  0  2  0  0  0  0  0  0
  181.2520  176.0740  135.4600 O   0  0  0  0  0  0  0  0  0  0  0  0
  182.1640  176.3450  136.2880 C   0  0  0  0  0  0  0  0  0  0  0  0
  182.8230  175.3020  137.0080 N   0  0  0  0  0  2  0  0  0  0  0  0
  182.4790  173.8980  136.8470 C   0  0  0  0  0  3  0  0  0  0  0  0
  181.2200  173.5790  137.6310 C   0  0  0  0  0  1  0  0  0  0  0  0
  183.6160  173.0390  137.3610 C   0  0  0  0  0  1  0  0  0  0  0  0
  181.8760  179.4340  140.5610 O   0  0  0  0  0  0  0  0  0  0  0  0
  180.9470  178.5870  141.1740 C   0  0  1  0  0  3  0  0  0  0  0  0
  180.3230  179.3030  142.3610 C   0  0  0  0  0  2  0  0  0  0  0  0
  179.6680  177.7030  144.0010 O   0  0  0  0  0  0  0  0  0  0  0  0
  181.7430  178.6840  144.3530 N   0  0  0  0  0  1  0  0  0  0  0  0
  180.5400  178.5220  143.6120 C   0  0  0  0  0  0  0  0  0  0  0  0
  179.9100  178.2250  140.2170 N   0  0  0  0  0  2  0  0  0  0  0  0
  179.7270  175.8320  140.9660 C   0  0  0  0  0  1  0  0  0  0  0  0
  179.0190  176.4290  138.4370 S   0  0  0  0  0  0  0  0  0  0  0  0
  179.5400  176.8750  139.9250 C   0  0  0  0  0  0  0  0  0  0  0  0
  1 30  1  1  0  0  0
  1  4  1  0  0  0  0
  2  4  2  0  0  0  0
  2  6  1  0  0  0  0
  3  7  2  0  0  0  0
  4  3  1  0  0  0  0
  5  7  1  0  0  0  0
  5 13  1  0  0  0  0
  6  5  2  0  0  0  0
  8 12  1  0  0  0  0
 10 11  2  0  0  0  0
 11 15  1  0  0  0  0
 12 11  1  0  0  0  0
 12  9  2  0  0  0  0
 13 18  1  0  0  0  0
 14 16  1  0  0  0  0
 14 10  1  0  0  0  0
 16 17  1  6  0  0  0
 16  8  1  0  0  0  0
 17 13  2  0  0  0  0
 18  8  2  0  0  0  0
 19 25  1  1  0  0  0
 19 20  1  0  0  0  0
 19 23  1  0  0  0  0
 20 22  1  0  0  0  0
 21  1  1  1  0  0  0
 22 21  1  0  0  0  0
 23 21  1  0  0  0  0
 24 25  2  0  0  0  0
 25 26  1  0  0  0  0
 27 26  1  0  0  0  0
 27 29  1  0  0  0  0
 27 28  1  0  0  0  0
 30 31  1  0  0  0  0
 31 32  1  1  0  0  0
 32 35  1  0  0  0  0
 35 33  2  0  0  0  0
 35 34  1  0  0  0  0
 36 31  1  0  0  0  0
 38 39  2  0  0  0  0
 39 36  1  0  0  0  0
 39 37  1  0  0  0  0
M  END
>  <MODEL>
9

>  <REMARK>
 VINA RESULT:      -7.7      4.107      7.836
  Name = 
  11 active torsions:
  status: ('A' for Active; 'I' for Inactive)
    1  A    between atoms: C_2  and  C_7
    2  A    between atoms: C_3  and  N_13
    3  A    between atoms: C_10  and  C_24
    4  A    between atoms: C_10  and  C_32
    5  A    between atoms: C_14  and  C_33
    6  A    between atoms: N_19  and  C_24
    7  A    between atoms: N_19  and  C_28
    8  A    between atoms: O_21  and  C_24
    9  A    between atoms: O_21  and  C_33
   10  A    between atoms: C_23  and  C_27
   11  A    between atoms: C_26  and  C_33
                            x       y       z     vdW  Elec       q    Type
                         _______ _______ _______ _____ _____    ______ ____

>  <TORSDO>
F 11

$$$$
