=
 OpenBabel11032420113D

 36 40  0  0  1  0  0  0  0  0999 V2000
  179.5270  177.9700  140.0120 C   0  0  0  0  0  3  0  0  0  0  0  0
  180.9260  178.2800  139.6360 C   0  0  0  0  0  0  0  0  0  0  0  0
  180.7500  175.1500  140.1900 C   0  0  0  0  0  3  0  0  0  0  0  0
  183.8900  177.0550  137.9680 C   0  0  0  0  0  0  0  0  0  0  0  0
  183.2030  177.8210  138.9790 N   0  0  0  0  0  0  0  0  0  0  0  0
  178.9310  174.6660  141.5490 O   0  0  0  0  0  1  0  0  0  0  0  0
  185.0250  177.6520  137.1770 C   0  0  0  0  0  2  0  0  0  0  0  0
  184.2200  174.9550  136.6870 C   0  0  0  0  0  2  0  0  0  0  0  0
  181.6520  175.9020  139.3180 C   0  0  0  0  0  0  0  0  0  0  0  0
  186.4750  174.4370  136.2550 O   0  0  0  0  0  0  0  0  0  0  0  0
  185.6850  175.2910  136.6180 C   0  0  0  0  0  0  0  0  0  0  0  0
  186.1840  176.6590  137.0260 C   0  0  1  0  0  3  0  0  0  0  0  0
  181.8940  177.3670  139.4060 C   0  0  0  0  0  0  0  0  0  0  0  0
  183.5190  175.7840  137.7260 C   0  0  0  0  0  0  0  0  0  0  0  0
  184.5720  179.7140  139.1740 O   0  0  0  0  0  0  0  0  0  0  0  0
  178.9800  176.8520  140.4800 C   0  0  0  0  0  3  0  0  0  0  0  0
  179.6120  175.5590  140.7360 C   0  0  0  0  0  0  0  0  0  0  0  0
  182.4370  175.1760  138.5200 C   0  0  0  0  0  3  0  0  0  0  0  0
  183.9350  178.7930  139.7500 C   0  0  0  0  0  0  0  0  0  0  0  0
  189.4720  177.7060  135.2610 C   0  0  0  0  0  1  0  0  0  0  0  0
  187.1440  177.1650  136.0540 N   0  0  0  0  0  2  0  0  0  0  0  0
  188.5520  177.1630  136.2920 C   0  0  0  0  0  0  0  0  0  0  0  0
  189.0200  176.7010  137.3650 O   0  0  0  0  0  0  0  0  0  0  0  0
  181.2530  179.6310  139.4470 O   0  0  0  0  0  0  0  0  0  0  0  0
  181.1500  180.3790  137.2650 C   0  0  0  0  0  2  0  0  0  0  0  0
  180.6990  182.6510  137.0770 C   0  0  0  0  0  1  0  0  0  0  0  0
  180.5180  180.5180  138.6110 C   0  0  1  0  0  0  0  0  0  0  0  0
  180.6180  181.7850  139.1890 O   0  0  0  0  0  0  0  0  0  0  0  0
  181.3610  181.6610  138.0080 C   0  0  1  0  0  0  0  0  0  0  0  0
  183.9860  178.6910  141.2390 C   0  0  0  0  0  2  0  0  0  0  0  0
  185.3070  179.2240  141.7690 C   0  0  0  0  0  2  0  0  0  0  0  0
  185.2280  179.3940  143.2120 N   0  0  0  0  0  2  0  0  0  0  0  0
  184.1410  178.5500  143.6910 C   0  0  0  0  0  2  0  0  0  0  0  0
  183.7310  178.9790  145.0180 N   0  0  0  0  0  2  0  0  0  0  0  0
  184.5570  178.7620  146.1320 C   0  0  0  0  0  0  0  0  0  0  0  0
  185.2370  178.5840  147.0510 N   0  0  0  0  0  0  0  0  0  0  0  0
  1 16  2  0  0  0  0
  2  1  1  0  0  0  0
  3 17  2  0  0  0  0
  4  5  1  0  0  0  0
  5 13  1  0  0  0  0
  5 19  1  0  0  0  0
  7  4  1  0  0  0  0
  8 14  1  0  0  0  0
  9 13  1  0  0  0  0
  9  3  1  0  0  0  0
 10 11  2  0  0  0  0
 11  8  1  0  0  0  0
 11 12  1  0  0  0  0
 12 21  1  6  0  0  0
 12  7  1  0  0  0  0
 13  2  2  0  0  0  0
 14  4  2  0  0  0  0
 14 18  1  0  0  0  0
 15 19  2  0  0  0  0
 16 17  1  0  0  0  0
 17  6  1  0  0  0  0
 18  9  2  0  0  0  0
 19 30  1  0  0  0  0
 20 22  1  0  0  0  0
 21 22  1  0  0  0  0
 22 23  2  0  0  0  0
 24  2  1  0  0  0  0
 25 29  1  0  0  0  0
 25 27  1  0  0  0  0
 27 28  1  0  0  0  0
 27 24  1  1  0  0  0
 29 26  1  6  0  0  0
 29 27  1  0  0  0  0
 29 28  1  0  0  0  0
 30 31  1  0  0  0  0
 31 32  1  0  0  0  0
 32 33  1  0  0  0  0
 33 34  1  0  0  0  0
 34 35  1  0  0  0  0
 35 36  3  0  0  0  0
M  END
>  <MODEL>
1

>  <REMARK>
 VINA RESULT:      -6.1      0.000      0.000
  Name = 
  9 active torsions:
  status: ('A' for Active; 'I' for Inactive)
    1  A    between atoms: C_3  and  O_5
    2  A    between atoms: O_5  and  C_21
    3  A    between atoms: C_6  and  N_24
    4  A    between atoms: C_8  and  C_13
    5  A    between atoms: C_8  and  N_29
    6  A    between atoms: C_13  and  C_36
    7  A    between atoms: N_18  and  C_25
    8  A    between atoms: N_24  and  C_32
    9  A    between atoms: N_29  and  C_32
                            x       y       z     vdW  Elec       q    Type
                         _______ _______ _______ _____ _____    ______ ____

>  <TORSDO>
F 9

$$$$
=
 OpenBabel11032420113D

 36 40  0  0  1  0  0  0  0  0999 V2000
  179.5680  177.8310  141.3290 C   0  0  0  0  0  3  0  0  0  0  0  0
  180.7990  178.0330  140.5310 C   0  0  0  0  0  0  0  0  0  0  0  0
  181.2710  179.3730  143.3800 C   0  0  0  0  0  3  0  0  0  0  0  0
  184.4030  178.2960  140.6490 C   0  0  0  0  0  0  0  0  0  0  0  0
  183.1040  178.6180  140.1110 N   0  0  0  0  0  0  0  0  0  0  0  0
  179.2400  179.8690  144.3910 O   0  0  0  0  0  1  0  0  0  0  0  0
  185.5550  177.9460  139.7440 C   0  0  0  0  0  2  0  0  0  0  0  0
  185.9400  177.9950  142.5740 C   0  0  0  0  0  2  0  0  0  0  0  0
  182.2330  178.8040  142.4370 C   0  0  0  0  0  0  0  0  0  0  0  0
  188.1270  178.7780  142.1910 O   0  0  0  0  0  0  0  0  0  0  0  0
  187.0570  178.4780  141.6890 C   0  0  0  0  0  0  0  0  0  0  0  0
  186.8510  178.6280  140.1990 C   0  0  1  0  0  3  0  0  0  0  0  0
  181.9600  178.5410  140.9980 C   0  0  0  0  0  0  0  0  0  0  0  0
  184.5960  178.3140  141.9810 C   0  0  0  0  0  0  0  0  0  0  0  0
  183.5580  178.8100  137.8190 O   0  0  0  0  0  0  0  0  0  0  0  0
  179.2070  178.3250  142.5100 C   0  0  0  0  0  3  0  0  0  0  0  0
  179.9540  179.2110  143.4010 C   0  0  0  0  0  0  0  0  0  0  0  0
  183.4890  178.6940  142.8750 C   0  0  0  0  0  3  0  0  0  0  0  0
  183.0110  179.2970  138.8440 C   0  0  0  0  0  0  0  0  0  0  0  0
  189.3480  177.6900  137.3870 C   0  0  0  0  0  1  0  0  0  0  0  0
  187.9830  178.0740  139.4680 N   0  0  0  0  0  2  0  0  0  0  0  0
  188.1770  178.2960  138.0700 C   0  0  0  0  0  0  0  0  0  0  0  0
  187.3680  179.0030  137.4140 O   0  0  0  0  0  0  0  0  0  0  0  0
  180.7720  177.6080  139.1940 O   0  0  0  0  0  0  0  0  0  0  0  0
  181.8440  175.5630  139.1340 C   0  0  0  0  0  2  0  0  0  0  0  0
  181.4280  174.3480  137.1970 C   0  0  0  0  0  1  0  0  0  0  0  0
  180.5660  176.2570  138.7940 C   0  0  1  0  0  0  0  0  0  0  0  0
  180.2490  176.2890  137.4340 O   0  0  0  0  0  0  0  0  0  0  0  0
  181.5270  175.7750  137.6860 C   0  0  1  0  0  0  0  0  0  0  0  0
  182.3060  180.6090  138.7410 C   0  0  0  0  0  2  0  0  0  0  0  0
  181.3310  180.6060  137.5760 C   0  0  0  0  0  2  0  0  0  0  0  0
  180.3390  181.6540  137.7580 N   0  0  0  0  0  2  0  0  0  0  0  0
  180.0230  182.1890  136.4390 C   0  0  0  0  0  2  0  0  0  0  0  0
  180.2660  183.6220  136.4160 N   0  0  0  0  0  2  0  0  0  0  0  0
  181.3840  184.1720  137.0610 C   0  0  0  0  0  0  0  0  0  0  0  0
  182.3060  184.6280  137.5940 N   0  0  0  0  0  0  0  0  0  0  0  0
  1 16  2  0  0  0  0
  2 13  2  0  0  0  0
  2  1  1  0  0  0  0
  3 17  2  0  0  0  0
  4 14  2  0  0  0  0
  5  4  1  0  0  0  0
  5 13  1  0  0  0  0
  7 12  1  0  0  0  0
  7  4  1  0  0  0  0
  9 18  2  0  0  0  0
  9  3  1  0  0  0  0
 11 10  2  0  0  0  0
 11  8  1  0  0  0  0
 12 21  1  6  0  0  0
 12 11  1  0  0  0  0
 13  9  1  0  0  0  0
 14  8  1  0  0  0  0
 14 18  1  0  0  0  0
 15 19  2  0  0  0  0
 16 17  1  0  0  0  0
 17  6  1  0  0  0  0
 19  5  1  0  0  0  0
 20 22  1  0  0  0  0
 22 21  1  0  0  0  0
 23 22  2  0  0  0  0
 24  2  1  0  0  0  0
 27 25  1  0  0  0  0
 27 24  1  1  0  0  0
 28 29  1  0  0  0  0
 28 27  1  0  0  0  0
 29 26  1  1  0  0  0
 29 27  1  0  0  0  0
 29 25  1  0  0  0  0
 30 19  1  0  0  0  0
 31 32  1  0  0  0  0
 31 30  1  0  0  0  0
 33 32  1  0  0  0  0
 34 33  1  0  0  0  0
 34 35  1  0  0  0  0
 35 36  3  0  0  0  0
M  END
>  <MODEL>
2

>  <REMARK>
 VINA RESULT:      -5.5      2.884      5.588
  Name = 
  9 active torsions:
  status: ('A' for Active; 'I' for Inactive)
    1  A    between atoms: C_3  and  O_5
    2  A    between atoms: O_5  and  C_21
    3  A    between atoms: C_6  and  N_24
    4  A    between atoms: C_8  and  C_13
    5  A    between atoms: C_8  and  N_29
    6  A    between atoms: C_13  and  C_36
    7  A    between atoms: N_18  and  C_25
    8  A    between atoms: N_24  and  C_32
    9  A    between atoms: N_29  and  C_32
                            x       y       z     vdW  Elec       q    Type
                         _______ _______ _______ _____ _____    ______ ____

>  <TORSDO>
F 9

$$$$
=
 OpenBabel11032420113D

 36 40  0  0  1  0  0  0  0  0999 V2000
  192.0530  176.8880  139.1230 C   0  0  0  0  0  3  0  0  0  0  0  0
  190.6190  176.7550  138.7760 C   0  0  0  0  0  0  0  0  0  0  0  0
  192.2960  175.2180  136.5470 C   0  0  0  0  0  3  0  0  0  0  0  0
  188.1120  174.6110  137.2950 C   0  0  0  0  0  0  0  0  0  0  0  0
  188.6860  175.8970  137.6100 N   0  0  0  0  0  0  0  0  0  0  0  0
  194.4750  176.0150  136.4760 O   0  0  0  0  0  1  0  0  0  0  0  0
  186.6430  174.3450  137.4990 C   0  0  0  0  0  2  0  0  0  0  0  0
  188.3270  172.2870  136.4540 C   0  0  0  0  0  2  0  0  0  0  0  0
  190.9300  174.9920  137.0210 C   0  0  0  0  0  0  0  0  0  0  0  0
  186.5110  171.5670  135.1410 O   0  0  0  0  0  0  0  0  0  0  0  0
  186.9250  172.4070  135.9220 C   0  0  0  0  0  0  0  0  0  0  0  0
  186.0470  173.5720  136.3160 C   0  0  1  0  0  3  0  0  0  0  0  0
  190.1220  175.9760  137.7900 C   0  0  0  0  0  0  0  0  0  0  0  0
  188.8950  173.6340  136.8040 C   0  0  0  0  0  0  0  0  0  0  0  0
  186.7780  177.2050  137.9930 O   0  0  0  0  0  0  0  0  0  0  0  0
  193.1470  176.5610  138.4420 C   0  0  0  0  0  3  0  0  0  0  0  0
  193.2540  175.9290  137.1270 C   0  0  0  0  0  0  0  0  0  0  0  0
  190.3250  173.8940  136.5620 C   0  0  0  0  0  3  0  0  0  0  0  0
  187.8980  177.0890  137.4270 C   0  0  0  0  0  0  0  0  0  0  0  0
  182.2670  172.7290  136.1610 C   0  0  0  0  0  1  0  0  0  0  0  0
  184.7060  173.1110  136.6540 N   0  0  0  0  0  2  0  0  0  0  0  0
  183.6090  173.2080  135.7450 C   0  0  0  0  0  0  0  0  0  0  0  0
  183.7700  173.6910  134.5940 O   0  0  0  0  0  0  0  0  0  0  0  0
  189.7000  177.4500  139.5750 O   0  0  0  0  0  0  0  0  0  0  0  0
  189.8790  176.3590  141.6020 C   0  0  0  0  0  2  0  0  0  0  0  0
  188.8030  177.4500  143.3490 C   0  0  0  0  0  1  0  0  0  0  0  0
  189.8880  177.7070  140.9620 C   0  0  1  0  0  0  0  0  0  0  0  0
  188.8520  178.5590  141.3530 O   0  0  0  0  0  0  0  0  0  0  0  0
  188.7100  177.2590  141.8520 C   0  0  1  0  0  0  0  0  0  0  0  0
  188.3780  178.1790  136.5270 C   0  0  0  0  0  2  0  0  0  0  0  0
  188.0720  177.8520  135.0750 C   0  0  0  0  0  2  0  0  0  0  0  0
  186.6750  178.1370  134.7880 N   0  0  0  0  0  2  0  0  0  0  0  0
  186.0010  176.8600  134.5940 C   0  0  0  0  0  2  0  0  0  0  0  0
  184.5690  177.0230  134.7800 N   0  0  0  0  0  2  0  0  0  0  0  0
  183.9910  176.9030  136.0530 C   0  0  0  0  0  0  0  0  0  0  0  0
  183.5150  176.8010  137.1030 N   0  0  0  0  0  0  0  0  0  0  0  0
  2  1  1  0  0  0  0
  2 24  1  0  0  0  0
  3  9  1  0  0  0  0
  3 17  2  0  0  0  0
  4  7  1  0  0  0  0
  4  5  1  0  0  0  0
  5 13  1  0  0  0  0
  6 17  1  0  0  0  0
  8 14  1  0  0  0  0
  9 13  1  0  0  0  0
 10 11  2  0  0  0  0
 11 12  1  0  0  0  0
 11  8  1  0  0  0  0
 12 21  1  1  0  0  0
 12  7  1  0  0  0  0
 13  2  2  0  0  0  0
 14  4  2  0  0  0  0
 16  1  2  0  0  0  0
 17 16  1  0  0  0  0
 18 14  1  0  0  0  0
 18  9  2  0  0  0  0
 19  5  1  0  0  0  0
 19 15  2  0  0  0  0
 22 20  1  0  0  0  0
 22 21  1  0  0  0  0
 23 22  2  0  0  0  0
 25 29  1  0  0  0  0
 27 24  1  6  0  0  0
 27 28  1  0  0  0  0
 27 25  1  0  0  0  0
 27 29  1  0  0  0  0
 28 29  1  0  0  0  0
 29 26  1  1  0  0  0
 30 19  1  0  0  0  0
 31 30  1  0  0  0  0
 32 31  1  0  0  0  0
 33 34  1  0  0  0  0
 33 32  1  0  0  0  0
 34 35  1  0  0  0  0
 35 36  3  0  0  0  0
M  END
>  <MODEL>
3

>  <REMARK>
 VINA RESULT:      -4.9      5.001      8.917
  Name = 
  9 active torsions:
  status: ('A' for Active; 'I' for Inactive)
    1  A    between atoms: C_3  and  O_5
    2  A    between atoms: O_5  and  C_21
    3  A    between atoms: C_6  and  N_24
    4  A    between atoms: C_8  and  C_13
    5  A    between atoms: C_8  and  N_29
    6  A    between atoms: C_13  and  C_36
    7  A    between atoms: N_18  and  C_25
    8  A    between atoms: N_24  and  C_32
    9  A    between atoms: N_29  and  C_32
                            x       y       z     vdW  Elec       q    Type
                         _______ _______ _______ _____ _____    ______ ____

>  <TORSDO>
F 9

$$$$
=
 OpenBabel11032420113D

 36 40  0  0  1  0  0  0  0  0999 V2000
  190.5770  177.5930  140.9780 C   0  0  0  0  0  3  0  0  0  0  0  0
  189.4220  177.3570  140.0800 C   0  0  0  0  0  0  0  0  0  0  0  0
  192.0400  176.3740  138.5580 C   0  0  0  0  0  3  0  0  0  0  0  0
  188.0400  175.2030  137.5270 C   0  0  0  0  0  0  0  0  0  0  0  0
  188.2370  176.4800  138.1680 N   0  0  0  0  0  0  0  0  0  0  0  0
  193.9260  177.4080  139.4320 O   0  0  0  0  0  1  0  0  0  0  0  0
  186.6670  174.7480  137.1070 C   0  0  0  0  0  2  0  0  0  0  0  0
  188.9280  173.0720  136.6170 C   0  0  0  0  0  2  0  0  0  0  0  0
  190.6520  175.9290  138.4290 C   0  0  0  0  0  0  0  0  0  0  0  0
  187.8830  172.3650  134.6300 O   0  0  0  0  0  0  0  0  0  0  0  0
  187.8310  173.1170  135.5880 C   0  0  0  0  0  0  0  0  0  0  0  0
  186.6940  174.1040  135.7150 C   0  0  1  0  0  3  0  0  0  0  0  0
  189.4670  176.6890  138.9070 C   0  0  0  0  0  0  0  0  0  0  0  0
  189.0970  174.4040  137.2930 C   0  0  0  0  0  0  0  0  0  0  0  0
  186.1430  177.4960  137.8910 O   0  0  0  0  0  0  0  0  0  0  0  0
  191.8840  177.4970  140.7560 C   0  0  0  0  0  3  0  0  0  0  0  0
  192.5800  177.0890  139.5360 C   0  0  0  0  0  0  0  0  0  0  0  0
  190.4500  174.8540  137.6630 C   0  0  0  0  0  3  0  0  0  0  0  0
  187.3960  177.5920  137.8060 C   0  0  0  0  0  0  0  0  0  0  0  0
  183.0230  173.4250  134.6720 C   0  0  0  0  0  1  0  0  0  0  0  0
  185.4180  173.4520  135.4490 N   0  0  0  0  0  2  0  0  0  0  0  0
  184.2970  174.1510  134.9060 C   0  0  0  0  0  0  0  0  0  0  0  0
  184.3800  175.3750  134.6220 O   0  0  0  0  0  0  0  0  0  0  0  0
  188.1710  177.8170  140.5150 O   0  0  0  0  0  0  0  0  0  0  0  0
  187.8800  177.0640  142.6790 C   0  0  0  0  0  2  0  0  0  0  0  0
  186.2160  178.1910  143.8450 C   0  0  0  0  0  1  0  0  0  0  0  0
  187.9110  178.2930  141.8320 C   0  0  1  0  0  0  0  0  0  0  0  0
  186.7110  179.0040  141.7680 O   0  0  0  0  0  0  0  0  0  0  0  0
  186.5880  177.7810  142.4380 C   0  0  1  0  0  0  0  0  0  0  0  0
  187.9980  178.8540  137.2810 C   0  0  0  0  0  2  0  0  0  0  0  0
  187.5620  179.1000  135.8460 C   0  0  0  0  0  2  0  0  0  0  0  0
  187.7630  177.8980  135.0540 N   0  0  0  0  0  2  0  0  0  0  0  0
  189.1610  177.8760  134.6420 C   0  0  0  0  0  2  0  0  0  0  0  0
  189.6420  176.5050  134.5970 N   0  0  0  0  0  2  0  0  0  0  0  0
  191.0170  176.2250  134.5940 C   0  0  0  0  0  0  0  0  0  0  0  0
  192.1510  175.9930  134.5940 N   0  0  0  0  0  0  0  0  0  0  0  0
  2 24  1  0  0  0  0
  2  1  1  0  0  0  0
  3 17  2  0  0  0  0
  4  5  1  0  0  0  0
  5 13  1  0  0  0  0
  6 17  1  0  0  0  0
  7  4  1  0  0  0  0
  8 14  1  0  0  0  0
  9  3  1  0  0  0  0
  9 13  1  0  0  0  0
 10 11  2  0  0  0  0
 11 12  1  0  0  0  0
 11  8  1  0  0  0  0
 12 21  1  1  0  0  0
 12  7  1  0  0  0  0
 13  2  2  0  0  0  0
 14  4  2  0  0  0  0
 14 18  1  0  0  0  0
 16  1  2  0  0  0  0
 17 16  1  0  0  0  0
 18  9  2  0  0  0  0
 19 15  2  0  0  0  0
 19  5  1  0  0  0  0
 20 22  1  0  0  0  0
 22 21  1  0  0  0  0
 23 22  2  0  0  0  0
 27 24  1  6  0  0  0
 27 29  1  0  0  0  0
 27 25  1  0  0  0  0
 28 27  1  0  0  0  0
 28 29  1  0  0  0  0
 29 25  1  0  0  0  0
 29 26  1  1  0  0  0
 30 19  1  0  0  0  0
 31 30  1  0  0  0  0
 32 31  1  0  0  0  0
 33 32  1  0  0  0  0
 34 33  1  0  0  0  0
 35 34  1  0  0  0  0
 36 35  3  0  0  0  0
M  END
>  <MODEL>
4

>  <REMARK>
 VINA RESULT:      -4.9      5.383      8.550
  Name = 
  9 active torsions:
  status: ('A' for Active; 'I' for Inactive)
    1  A    between atoms: C_3  and  O_5
    2  A    between atoms: O_5  and  C_21
    3  A    between atoms: C_6  and  N_24
    4  A    between atoms: C_8  and  C_13
    5  A    between atoms: C_8  and  N_29
    6  A    between atoms: C_13  and  C_36
    7  A    between atoms: N_18  and  C_25
    8  A    between atoms: N_24  and  C_32
    9  A    between atoms: N_29  and  C_32
                            x       y       z     vdW  Elec       q    Type
                         _______ _______ _______ _____ _____    ______ ____

>  <TORSDO>
F 9

$$$$
=
 OpenBabel11032420113D

 36 40  0  0  1  0  0  0  0  0999 V2000
  181.9990  177.4860  135.7360 C   0  0  0  0  0  3  0  0  0  0  0  0
  183.0350  177.4840  136.7940 C   0  0  0  0  0  0  0  0  0  0  0  0
  181.1190  179.9700  137.3300 C   0  0  0  0  0  3  0  0  0  0  0  0
  183.7400  178.2420  140.2590 C   0  0  0  0  0  0  0  0  0  0  0  0
  184.0970  178.1270  138.8660 N   0  0  0  0  0  0  0  0  0  0  0  0
  180.0190  180.5830  135.3800 O   0  0  0  0  0  1  0  0  0  0  0  0
  184.6330  177.6890  141.3390 C   0  0  0  0  0  2  0  0  0  0  0  0
  182.1970  179.0030  142.0470 C   0  0  0  0  0  2  0  0  0  0  0  0
  181.9220  179.1810  138.2650 C   0  0  0  0  0  0  0  0  0  0  0  0
  183.2830  179.8230  143.9690 O   0  0  0  0  0  0  0  0  0  0  0  0
  183.4020  179.1990  142.9280 C   0  0  0  0  0  0  0  0  0  0  0  0
  184.7540  178.6640  142.5160 C   0  0  1  0  0  3  0  0  0  0  0  0
  183.0490  178.2910  137.8780 C   0  0  0  0  0  0  0  0  0  0  0  0
  182.5940  178.8570  140.6050 C   0  0  0  0  0  0  0  0  0  0  0  0
  186.3120  177.3700  138.9890 O   0  0  0  0  0  0  0  0  0  0  0  0
  181.0720  178.3890  135.4290 C   0  0  0  0  0  3  0  0  0  0  0  0
  180.7780  179.6620  136.0860 C   0  0  0  0  0  0  0  0  0  0  0  0
  181.7310  179.4360  139.5610 C   0  0  0  0  0  3  0  0  0  0  0  0
  185.4850  178.1750  138.4840 C   0  0  0  0  0  0  0  0  0  0  0  0
  187.4170  177.1250  144.8760 C   0  0  0  0  0  1  0  0  0  0  0  0
  185.4060  178.0030  143.6390 N   0  0  0  0  0  2  0  0  0  0  0  0
  186.8210  177.8190  143.7060 C   0  0  0  0  0  0  0  0  0  0  0  0
  187.5670  178.2440  142.7850 O   0  0  0  0  0  0  0  0  0  0  0  0
  184.0530  176.5250  136.6900 O   0  0  0  0  0  0  0  0  0  0  0  0
  183.4790  174.6920  137.9720 C   0  0  0  0  0  2  0  0  0  0  0  0
  184.6290  172.7550  137.4010 C   0  0  0  0  0  1  0  0  0  0  0  0
  183.8190  175.1250  136.5840 C   0  0  1  0  0  0  0  0  0  0  0  0
  184.9840  174.5660  136.0540 O   0  0  0  0  0  0  0  0  0  0  0  0
  184.7950  174.2580  137.4070 C   0  0  1  0  0  0  0  0  0  0  0  0
  185.9680  179.2100  137.5220 C   0  0  0  0  0  2  0  0  0  0  0  0
  187.1750  178.7060  136.7500 C   0  0  0  0  0  2  0  0  0  0  0  0
  188.3770  179.3780  137.2180 N   0  0  0  0  0  2  0  0  0  0  0  0
  189.2950  178.3490  137.6900 C   0  0  0  0  0  2  0  0  0  0  0  0
  189.3160  178.3340  139.1430 N   0  0  0  0  0  2  0  0  0  0  0  0
  190.2050  177.5030  139.8420 C   0  0  0  0  0  0  0  0  0  0  0  0
  190.9380  176.8160  140.4160 N   0  0  0  0  0  0  0  0  0  0  0  0
  1  2  1  0  0  0  0
  2 13  2  0  0  0  0
  3  9  1  0  0  0  0
  4 14  2  0  0  0  0
  4  7  1  0  0  0  0
  5  4  1  0  0  0  0
  6 17  1  0  0  0  0
  7 12  1  0  0  0  0
  8 11  1  0  0  0  0
  9 18  2  0  0  0  0
 11 10  2  0  0  0  0
 12 11  1  0  0  0  0
 12 21  1  1  0  0  0
 13  9  1  0  0  0  0
 13  5  1  0  0  0  0
 14  8  1  0  0  0  0
 16  1  2  0  0  0  0
 16 17  1  0  0  0  0
 17  3  2  0  0  0  0
 18 14  1  0  0  0  0
 19  5  1  0  0  0  0
 19 15  2  0  0  0  0
 21 22  1  0  0  0  0
 22 20  1  0  0  0  0
 23 22  2  0  0  0  0
 24  2  1  0  0  0  0
 27 24  1  1  0  0  0
 27 29  1  0  0  0  0
 27 25  1  0  0  0  0
 28 27  1  0  0  0  0
 28 29  1  0  0  0  0
 29 26  1  6  0  0  0
 29 25  1  0  0  0  0
 30 19  1  0  0  0  0
 31 32  1  0  0  0  0
 31 30  1  0  0  0  0
 32 33  1  0  0  0  0
 33 34  1  0  0  0  0
 34 35  1  0  0  0  0
 35 36  3  0  0  0  0
M  END
>  <MODEL>
5

>  <REMARK>
 VINA RESULT:      -4.7      2.680      6.554
  Name = 
  9 active torsions:
  status: ('A' for Active; 'I' for Inactive)
    1  A    between atoms: C_3  and  O_5
    2  A    between atoms: O_5  and  C_21
    3  A    between atoms: C_6  and  N_24
    4  A    between atoms: C_8  and  C_13
    5  A    between atoms: C_8  and  N_29
    6  A    between atoms: C_13  and  C_36
    7  A    between atoms: N_18  and  C_25
    8  A    between atoms: N_24  and  C_32
    9  A    between atoms: N_29  and  C_32
                            x       y       z     vdW  Elec       q    Type
                         _______ _______ _______ _____ _____    ______ ____

>  <TORSDO>
F 9

$$$$
=
 OpenBabel11032420113D

 36 40  0  0  1  0  0  0  0  0999 V2000
  190.1100  178.1610  140.0910 C   0  0  0  0  0  3  0  0  0  0  0  0
  188.7280  178.2900  139.5730 C   0  0  0  0  0  0  0  0  0  0  0  0
  188.5720  176.7530  142.3570 C   0  0  0  0  0  3  0  0  0  0  0  0
  185.2510  178.7140  140.4710 C   0  0  0  0  0  0  0  0  0  0  0  0
  186.3160  178.2110  139.6360 N   0  0  0  0  0  0  0  0  0  0  0  0
  190.6130  175.7640  142.8550 O   0  0  0  0  0  1  0  0  0  0  0  0
  184.0410  179.3790  139.8700 C   0  0  0  0  0  2  0  0  0  0  0  0
  184.2380  179.0850  142.7050 C   0  0  0  0  0  2  0  0  0  0  0  0
  187.5820  177.5990  141.6920 C   0  0  0  0  0  0  0  0  0  0  0  0
  181.9030  178.7860  142.7640 O   0  0  0  0  0  0  0  0  0  0  0  0
  182.8880  178.9290  142.0590 C   0  0  0  0  0  0  0  0  0  0  0  0
  182.7500  178.9120  140.5530 C   0  0  1  0  0  3  0  0  0  0  0  0
  187.6060  177.9660  140.2510 C   0  0  0  0  0  0  0  0  0  0  0  0
  185.3340  178.5830  141.8080 C   0  0  0  0  0  0  0  0  0  0  0  0
  185.3760  178.3700  137.4950 O   0  0  0  0  0  0  0  0  0  0  0  0
  190.5900  177.4760  141.1240 C   0  0  0  0  0  3  0  0  0  0  0  0
  189.8690  176.6550  142.0960 C   0  0  0  0  0  0  0  0  0  0  0  0
  186.4930  177.8980  142.4050 C   0  0  0  0  0  3  0  0  0  0  0  0
  186.0040  177.6750  138.3370 C   0  0  0  0  0  0  0  0  0  0  0  0
  179.3100  180.1280  139.2440 C   0  0  0  0  0  1  0  0  0  0  0  0
  181.6360  179.7520  140.1320 N   0  0  0  0  0  2  0  0  0  0  0  0
  180.3980  179.2120  139.6700 C   0  0  0  0  0  0  0  0  0  0  0  0
  180.2190  177.9660  139.6240 O   0  0  0  0  0  0  0  0  0  0  0  0
  188.5730  178.8510  138.2970 O   0  0  0  0  0  0  0  0  0  0  0  0
  188.5400  178.6280  135.9990 C   0  0  0  0  0  2  0  0  0  0  0  0
  189.8800  176.9010  135.2080 C   0  0  0  0  0  1  0  0  0  0  0  0
  189.4310  178.5710  137.1960 C   0  0  1  0  0  0  0  0  0  0  0  0
  190.0100  177.3250  137.4490 O   0  0  0  0  0  0  0  0  0  0  0  0
  189.0620  177.2890  136.4190 C   0  0  1  0  0  0  0  0  0  0  0  0
  186.3780  176.2710  137.9900 C   0  0  0  0  0  2  0  0  0  0  0  0
  185.7120  175.8420  136.6930 C   0  0  0  0  0  2  0  0  0  0  0  0
  186.4700  174.7620  136.0820 N   0  0  0  0  0  2  0  0  0  0  0  0
  186.9110  173.8780  137.1530 C   0  0  0  0  0  2  0  0  0  0  0  0
  188.0290  173.0690  136.6980 N   0  0  0  0  0  2  0  0  0  0  0  0
  189.3510  173.4440  136.9830 C   0  0  0  0  0  0  0  0  0  0  0  0
  190.4410  173.7540  137.2190 N   0  0  0  0  0  0  0  0  0  0  0  0
  1 16  2  0  0  0  0
  2  1  1  0  0  0  0
  2 13  2  0  0  0  0
  4 14  2  0  0  0  0
  5 13  1  0  0  0  0
  5  4  1  0  0  0  0
  7  4  1  0  0  0  0
  7 12  1  0  0  0  0
  9  3  1  0  0  0  0
  9 18  2  0  0  0  0
 11  8  1  0  0  0  0
 11 10  2  0  0  0  0
 12 21  1  1  0  0  0
 12 11  1  0  0  0  0
 13  9  1  0  0  0  0
 14 18  1  0  0  0  0
 14  8  1  0  0  0  0
 15 19  2  0  0  0  0
 16 17  1  0  0  0  0
 17  3  2  0  0  0  0
 17  6  1  0  0  0  0
 19  5  1  0  0  0  0
 20 22  1  0  0  0  0
 22 21  1  0  0  0  0
 23 22  2  0  0  0  0
 24  2  1  0  0  0  0
 25 29  1  0  0  0  0
 25 27  1  0  0  0  0
 27 28  1  0  0  0  0
 27 24  1  1  0  0  0
 29 26  1  6  0  0  0
 29 27  1  0  0  0  0
 29 28  1  0  0  0  0
 30 19  1  0  0  0  0
 31 30  1  0  0  0  0
 32 31  1  0  0  0  0
 32 33  1  0  0  0  0
 34 35  1  0  0  0  0
 34 33  1  0  0  0  0
 35 36  3  0  0  0  0
M  END
>  <MODEL>
6

>  <REMARK>
 VINA RESULT:      -4.7      2.952      8.329
  Name = 
  9 active torsions:
  status: ('A' for Active; 'I' for Inactive)
    1  A    between atoms: C_3  and  O_5
    2  A    between atoms: O_5  and  C_21
    3  A    between atoms: C_6  and  N_24
    4  A    between atoms: C_8  and  C_13
    5  A    between atoms: C_8  and  N_29
    6  A    between atoms: C_13  and  C_36
    7  A    between atoms: N_18  and  C_25
    8  A    between atoms: N_24  and  C_32
    9  A    between atoms: N_29  and  C_32
                            x       y       z     vdW  Elec       q    Type
                         _______ _______ _______ _____ _____    ______ ____

>  <TORSDO>
F 9

$$$$
=
 OpenBabel11032420113D

 36 40  0  0  1  0  0  0  0  0999 V2000
  187.3420  178.6060  140.7340 C   0  0  0  0  0  3  0  0  0  0  0  0
  186.3590  178.4360  139.6390 C   0  0  0  0  0  0  0  0  0  0  0  0
  184.8000  178.0860  142.3930 C   0  0  0  0  0  3  0  0  0  0  0  0
  182.9260  178.9480  138.6280 C   0  0  0  0  0  0  0  0  0  0  0  0
  184.1790  178.2320  138.6230 N   0  0  0  0  0  0  0  0  0  0  0  0
  186.2720  177.5000  144.0910 O   0  0  0  0  0  1  0  0  0  0  0  0
  182.1980  179.2500  137.3450 C   0  0  0  0  0  2  0  0  0  0  0  0
  181.0830  180.0860  139.8380 C   0  0  0  0  0  2  0  0  0  0  0  0
  184.3180  178.5440  141.0900 C   0  0  0  0  0  0  0  0  0  0  0  0
  178.9460  179.6830  138.9360 O   0  0  0  0  0  0  0  0  0  0  0  0
  180.1500  179.6060  138.7590 C   0  0  0  0  0  0  0  0  0  0  0  0
  180.6920  179.0000  137.4840 C   0  0  1  0  0  3  0  0  0  0  0  0
  185.0220  178.3270  139.7980 C   0  0  0  0  0  0  0  0  0  0  0  0
  182.3920  179.3480  139.7970 C   0  0  0  0  0  0  0  0  0  0  0  0
  184.3100  177.4910  136.4030 O   0  0  0  0  0  0  0  0  0  0  0  0
  187.2270  178.4060  142.0440 C   0  0  0  0  0  3  0  0  0  0  0  0
  186.0560  177.9790  142.8080 C   0  0  0  0  0  0  0  0  0  0  0  0
  183.0730  179.0240  141.0610 C   0  0  0  0  0  3  0  0  0  0  0  0
  184.4100  177.2170  137.6280 C   0  0  0  0  0  0  0  0  0  0  0  0
  179.3400  181.3930  134.7510 C   0  0  0  0  0  1  0  0  0  0  0  0
  179.9920  179.5390  136.3250 N   0  0  0  0  0  2  0  0  0  0  0  0
  180.0900  180.9100  135.9370 C   0  0  0  0  0  0  0  0  0  0  0  0
  180.8100  181.7110  136.5890 O   0  0  0  0  0  0  0  0  0  0  0  0
  186.8550  178.4500  138.3270 O   0  0  0  0  0  0  0  0  0  0  0  0
  188.8030  179.0060  137.2190 C   0  0  0  0  0  2  0  0  0  0  0  0
  189.6450  177.2940  135.8920 C   0  0  0  0  0  1  0  0  0  0  0  0
  188.1120  177.9010  137.9470 C   0  0  1  0  0  0  0  0  0  0  0  0
  187.8360  176.7650  137.1830 O   0  0  0  0  0  0  0  0  0  0  0  0
  188.3340  177.8300  136.4210 C   0  0  1  0  0  0  0  0  0  0  0  0
  184.7240  175.8150  138.0390 C   0  0  0  0  0  2  0  0  0  0  0  0
  184.4960  174.8530  136.8850 C   0  0  0  0  0  2  0  0  0  0  0  0
  183.4320  173.9200  137.2220 N   0  0  0  0  0  2  0  0  0  0  0  0
  182.2020  174.4310  136.6310 C   0  0  0  0  0  2  0  0  0  0  0  0
  181.1330  174.4070  137.6160 N   0  0  0  0  0  2  0  0  0  0  0  0
  181.1500  175.2780  138.7170 C   0  0  0  0  0  0  0  0  0  0  0  0
  181.1660  175.9960  139.6250 N   0  0  0  0  0  0  0  0  0  0  0  0
  1 16  2  0  0  0  0
  2 13  2  0  0  0  0
  2  1  1  0  0  0  0
  3 17  2  0  0  0  0
  4 14  2  0  0  0  0
  5  4  1  0  0  0  0
  5 13  1  0  0  0  0
  7 12  1  0  0  0  0
  7  4  1  0  0  0  0
  9  3  1  0  0  0  0
 11 10  2  0  0  0  0
 11  8  1  0  0  0  0
 12 21  1  6  0  0  0
 12 11  1  0  0  0  0
 13  9  1  0  0  0  0
 14  8  1  0  0  0  0
 14 18  1  0  0  0  0
 15 19  2  0  0  0  0
 16 17  1  0  0  0  0
 17  6  1  0  0  0  0
 18  9  2  0  0  0  0
 19 30  1  0  0  0  0
 19  5  1  0  0  0  0
 20 22  1  0  0  0  0
 22 21  1  0  0  0  0
 22 23  2  0  0  0  0
 24  2  1  0  0  0  0
 25 27  1  0  0  0  0
 27 24  1  6  0  0  0
 28 27  1  0  0  0  0
 29 26  1  1  0  0  0
 29 28  1  0  0  0  0
 29 25  1  0  0  0  0
 29 27  1  0  0  0  0
 31 32  1  0  0  0  0
 31 30  1  0  0  0  0
 33 32  1  0  0  0  0
 33 34  1  0  0  0  0
 34 35  1  0  0  0  0
 35 36  3  0  0  0  0
M  END
>  <MODEL>
7

>  <REMARK>
 VINA RESULT:      -4.6      2.855      7.182
  Name = 
  9 active torsions:
  status: ('A' for Active; 'I' for Inactive)
    1  A    between atoms: C_3  and  O_5
    2  A    between atoms: O_5  and  C_21
    3  A    between atoms: C_6  and  N_24
    4  A    between atoms: C_8  and  C_13
    5  A    between atoms: C_8  and  N_29
    6  A    between atoms: C_13  and  C_36
    7  A    between atoms: N_18  and  C_25
    8  A    between atoms: N_24  and  C_32
    9  A    between atoms: N_29  and  C_32
                            x       y       z     vdW  Elec       q    Type
                         _______ _______ _______ _____ _____    ______ ____

>  <TORSDO>
F 9

$$$$
=
 OpenBabel11032420113D

 36 40  0  0  1  0  0  0  0  0999 V2000
  191.3100  177.5010  139.1540 C   0  0  0  0  0  3  0  0  0  0  0  0
  189.9670  177.3890  138.5390 C   0  0  0  0  0  0  0  0  0  0  0  0
  189.6110  177.0960  141.6900 C   0  0  0  0  0  3  0  0  0  0  0  0
  186.4430  178.0790  138.9640 C   0  0  0  0  0  0  0  0  0  0  0  0
  187.5540  177.3020  138.4720 N   0  0  0  0  0  0  0  0  0  0  0  0
  191.6030  176.4240  142.6740 O   0  0  0  0  0  1  0  0  0  0  0  0
  185.2820  178.4280  138.0690 C   0  0  0  0  0  2  0  0  0  0  0  0
  185.2880  179.2990  140.7900 C   0  0  0  0  0  2  0  0  0  0  0  0
  188.6750  177.5870  140.6780 C   0  0  0  0  0  0  0  0  0  0  0  0
  182.9520  179.0100  140.8120 O   0  0  0  0  0  0  0  0  0  0  0  0
  183.9820  178.8750  140.1750 C   0  0  0  0  0  0  0  0  0  0  0  0
  183.9440  178.2520  138.7970 C   0  0  1  0  0  3  0  0  0  0  0  0
  188.7980  177.3450  139.2160 C   0  0  0  0  0  0  0  0  0  0  0  0
  186.4350  178.4970  140.2430 C   0  0  0  0  0  0  0  0  0  0  0  0
  186.7600  176.5720  136.3910 O   0  0  0  0  0  0  0  0  0  0  0  0
  191.7130  177.2970  140.4040 C   0  0  0  0  0  3  0  0  0  0  0  0
  190.9210  176.9230  141.5750 C   0  0  0  0  0  0  0  0  0  0  0  0
  187.5450  178.1290  141.1390 C   0  0  0  0  0  3  0  0  0  0  0  0
  187.3230  176.2840  137.4800 C   0  0  0  0  0  0  0  0  0  0  0  0
  181.0200  178.7280  136.2980 C   0  0  0  0  0  1  0  0  0  0  0  0
  182.8700  178.8340  138.0030 N   0  0  0  0  0  2  0  0  0  0  0  0
  182.0920  178.0660  137.0840 C   0  0  0  0  0  0  0  0  0  0  0  0
  182.3030  176.8330  136.9380 O   0  0  0  0  0  0  0  0  0  0  0  0
  189.9030  177.3880  137.1380 O   0  0  0  0  0  0  0  0  0  0  0  0
  190.2920  176.8750  134.9210 C   0  0  0  0  0  2  0  0  0  0  0  0
  191.1680  174.7470  134.5940 C   0  0  0  0  0  1  0  0  0  0  0  0
  190.8450  176.7280  136.3000 C   0  0  1  0  0  0  0  0  0  0  0  0
  190.9420  175.4150  136.7660 O   0  0  0  0  0  0  0  0  0  0  0  0
  190.2720  175.5130  135.5410 C   0  0  1  0  0  0  0  0  0  0  0  0
  187.7050  174.8650  137.7510 C   0  0  0  0  0  2  0  0  0  0  0  0
  186.9410  173.9200  136.8390 C   0  0  0  0  0  2  0  0  0  0  0  0
  186.1360  173.0070  137.6360 N   0  0  0  0  0  2  0  0  0  0  0  0
  184.7500  173.4440  137.5310 C   0  0  0  0  0  2  0  0  0  0  0  0
  183.8960  172.3100  137.2170 N   0  0  0  0  0  2  0  0  0  0  0  0
  184.2180  171.4360  136.1670 C   0  0  0  0  0  0  0  0  0  0  0  0
  184.4850  170.7170  135.3000 N   0  0  0  0  0  0  0  0  0  0  0  0
  1 16  2  0  0  0  0
  2  1  1  0  0  0  0
  2 13  2  0  0  0  0
  4 14  2  0  0  0  0
  5  4  1  0  0  0  0
  5 13  1  0  0  0  0
  7 12  1  0  0  0  0
  7  4  1  0  0  0  0
  9 18  2  0  0  0  0
  9  3  1  0  0  0  0
 11  8  1  0  0  0  0
 11 10  2  0  0  0  0
 12 21  1  6  0  0  0
 12 11  1  0  0  0  0
 13  9  1  0  0  0  0
 14  8  1  0  0  0  0
 14 18  1  0  0  0  0
 15 19  2  0  0  0  0
 16 17  1  0  0  0  0
 17  3  2  0  0  0  0
 17  6  1  0  0  0  0
 19 30  1  0  0  0  0
 19  5  1  0  0  0  0
 20 22  1  0  0  0  0
 22 21  1  0  0  0  0
 23 22  2  0  0  0  0
 24  2  1  0  0  0  0
 25 29  1  0  0  0  0
 25 27  1  0  0  0  0
 27 28  1  0  0  0  0
 27 24  1  1  0  0  0
 29 26  1  6  0  0  0
 29 27  1  0  0  0  0
 29 28  1  0  0  0  0
 31 32  1  0  0  0  0
 31 30  1  0  0  0  0
 33 32  1  0  0  0  0
 34 33  1  0  0  0  0
 35 34  1  0  0  0  0
 36 35  3  0  0  0  0
M  END
>  <MODEL>
8

>  <REMARK>
 VINA RESULT:      -4.5      3.581      8.791
  Name = 
  9 active torsions:
  status: ('A' for Active; 'I' for Inactive)
    1  A    between atoms: C_3  and  O_5
    2  A    between atoms: O_5  and  C_21
    3  A    between atoms: C_6  and  N_24
    4  A    between atoms: C_8  and  C_13
    5  A    between atoms: C_8  and  N_29
    6  A    between atoms: C_13  and  C_36
    7  A    between atoms: N_18  and  C_25
    8  A    between atoms: N_24  and  C_32
    9  A    between atoms: N_29  and  C_32
                            x       y       z     vdW  Elec       q    Type
                         _______ _______ _______ _____ _____    ______ ____

>  <TORSDO>
F 9

$$$$
=
 OpenBabel11032420113D

 36 40  0  0  1  0  0  0  0  0999 V2000
  190.0960  178.2080  140.1860 C   0  0  0  0  0  3  0  0  0  0  0  0
  188.7160  178.3410  139.6620 C   0  0  0  0  0  0  0  0  0  0  0  0
  188.5520  176.7440  142.4120 C   0  0  0  0  0  3  0  0  0  0  0  0
  185.2320  178.7260  140.5460 C   0  0  0  0  0  0  0  0  0  0  0  0
  186.3040  178.2470  139.7080 N   0  0  0  0  0  0  0  0  0  0  0  0
  190.5950  175.7560  142.9010 O   0  0  0  0  0  1  0  0  0  0  0  0
  184.0210  179.3980  139.9520 C   0  0  0  0  0  2  0  0  0  0  0  0
  184.2020  179.0440  142.7810 C   0  0  0  0  0  2  0  0  0  0  0  0
  187.5600  177.5980  141.7580 C   0  0  0  0  0  0  0  0  0  0  0  0
  181.8690  178.7310  142.8190 O   0  0  0  0  0  0  0  0  0  0  0  0
  182.8570  178.8950  142.1230 C   0  0  0  0  0  0  0  0  0  0  0  0
  182.7290  178.9090  140.6170 C   0  0  1  0  0  3  0  0  0  0  0  0
  187.5910  177.9960  140.3260 C   0  0  0  0  0  0  0  0  0  0  0  0
  185.3060  178.5670  141.8810 C   0  0  0  0  0  0  0  0  0  0  0  0
  185.3760  178.4470  137.5640 O   0  0  0  0  0  0  0  0  0  0  0  0
  190.5730  177.5040  141.2080 C   0  0  0  0  0  3  0  0  0  0  0  0
  189.8510  176.6590  142.1570 C   0  0  0  0  0  0  0  0  0  0  0  0
  186.4660  177.8760  142.4710 C   0  0  0  0  0  3  0  0  0  0  0  0
  186.0030  177.7370  138.3950 C   0  0  0  0  0  0  0  0  0  0  0  0
  179.2990  180.1340  139.2910 C   0  0  0  0  0  1  0  0  0  0  0  0
  181.6130  179.7520  140.2060 N   0  0  0  0  0  2  0  0  0  0  0  0
  180.3900  179.2150  139.7020 C   0  0  0  0  0  0  0  0  0  0  0  0
  180.2260  177.9700  139.6080 O   0  0  0  0  0  0  0  0  0  0  0  0
  188.5660  178.9280  138.3970 O   0  0  0  0  0  0  0  0  0  0  0  0
  188.5610  178.8060  136.0910 C   0  0  0  0  0  2  0  0  0  0  0  0
  189.8760  177.0870  135.2440 C   0  0  0  0  0  1  0  0  0  0  0  0
  189.4330  178.6780  137.2970 C   0  0  1  0  0  0  0  0  0  0  0  0
  189.9830  177.4110  137.5030 O   0  0  0  0  0  0  0  0  0  0  0  0
  189.0490  177.4390  136.4600 C   0  0  1  0  0  0  0  0  0  0  0  0
  186.3880  176.3440  138.0210 C   0  0  0  0  0  2  0  0  0  0  0  0
  185.8290  175.9800  136.6560 C   0  0  0  0  0  2  0  0  0  0  0  0
  185.0280  174.7700  136.7550 N   0  0  0  0  0  2  0  0  0  0  0  0
  185.9050  173.7060  137.2270 C   0  0  0  0  0  2  0  0  0  0  0  0
  185.1130  172.6360  137.8120 N   0  0  0  0  0  2  0  0  0  0  0  0
  183.9210  172.2100  137.2070 C   0  0  0  0  0  0  0  0  0  0  0  0
  182.9360  171.8600  136.7100 N   0  0  0  0  0  0  0  0  0  0  0  0
  1 16  2  0  0  0  0
  2  1  1  0  0  0  0
  2 13  2  0  0  0  0
  4 14  2  0  0  0  0
  5 13  1  0  0  0  0
  5  4  1  0  0  0  0
  7  4  1  0  0  0  0
  7 12  1  0  0  0  0
  9  3  1  0  0  0  0
  9 18  2  0  0  0  0
 11  8  1  0  0  0  0
 11 10  2  0  0  0  0
 12 21  1  1  0  0  0
 12 11  1  0  0  0  0
 13  9  1  0  0  0  0
 14 18  1  0  0  0  0
 14  8  1  0  0  0  0
 15 19  2  0  0  0  0
 16 17  1  0  0  0  0
 17  3  2  0  0  0  0
 17  6  1  0  0  0  0
 19  5  1  0  0  0  0
 20 22  1  0  0  0  0
 22 21  1  0  0  0  0
 23 22  2  0  0  0  0
 24  2  1  0  0  0  0
 25 29  1  0  0  0  0
 25 27  1  0  0  0  0
 27 28  1  0  0  0  0
 27 24  1  1  0  0  0
 29 26  1  6  0  0  0
 29 27  1  0  0  0  0
 29 28  1  0  0  0  0
 30 19  1  0  0  0  0
 31 32  1  0  0  0  0
 31 30  1  0  0  0  0
 32 33  1  0  0  0  0
 33 34  1  0  0  0  0
 35 34  1  0  0  0  0
 36 35  3  0  0  0  0
M  END
>  <MODEL>
9

>  <REMARK>
 VINA RESULT:      -4.5      2.974      8.247
  Name = 
  9 active torsions:
  status: ('A' for Active; 'I' for Inactive)
    1  A    between atoms: C_3  and  O_5
    2  A    between atoms: O_5  and  C_21
    3  A    between atoms: C_6  and  N_24
    4  A    between atoms: C_8  and  C_13
    5  A    between atoms: C_8  and  N_29
    6  A    between atoms: C_13  and  C_36
    7  A    between atoms: N_18  and  C_25
    8  A    between atoms: N_24  and  C_32
    9  A    between atoms: N_29  and  C_32
                            x       y       z     vdW  Elec       q    Type
                         _______ _______ _______ _____ _____    ______ ____

>  <TORSDO>
F 9

$$$$
