=
 OpenBabel11042411203D

 25 27  0  0  1  0  0  0  0  0999 V2000
  184.6780  178.8560  144.6030 C   0  0  0  0  0  0  0  0  0  0  0  0
  187.7230  177.1660  143.4530 C   0  0  0  0  0  3  0  0  0  0  0  0
  185.5010  178.2730  143.6350 C   0  0  0  0  0  0  0  0  0  0  0  0
  185.1780  178.1830  142.2850 O   0  0  0  0  0  1  0  0  0  0  0  0
  185.4420  178.7840  146.1070 S   0  0  0  0  0  0  0  0  0  0  0  0
  186.8230  178.0020  145.5360 C   0  0  0  0  0  0  0  0  0  0  0  0
  186.7020  177.7940  144.1660 C   0  0  0  0  0  0  0  0  0  0  0  0
  188.9880  176.9620  145.5290 C   0  0  0  0  0  3  0  0  0  0  0  0
  187.9570  177.5960  146.2470 C   0  0  0  0  0  0  0  0  0  0  0  0
  188.8710  176.7430  144.1440 C   0  0  0  0  0  0  0  0  0  0  0  0
  189.1850  178.1800  148.2380 N   0  0  0  0  0  2  0  0  0  0  0  0
  188.0660  177.8310  147.6930 C   0  0  0  0  0  3  0  0  0  0  0  0
  183.3920  179.4480  144.3960 N   0  0  0  0  0  2  0  0  0  0  0  0
  182.2000  178.6950  144.0370 C   0  0  0  0  0  2  0  0  0  0  0  0
  180.5400  179.6810  142.9720 C   0  0  0  0  0  1  0  0  0  0  0  0
  181.7750  179.0680  142.7620 O   0  0  0  0  0  0  0  0  0  0  0  0
  189.9840  176.0890  143.4000 C   0  0  0  0  0  2  0  0  0  0  0  0
  190.4910  176.9870  142.3230 C   0  0  0  0  0  0  0  0  0  0  0  0
  190.3190  176.6170  140.9540 N   0  0  0  0  0  2  0  0  0  0  0  0
  191.0960  178.0480  142.6310 O   0  0  0  0  0  0  0  0  0  0  0  0
  190.7870  177.4460  139.8520 C   0  0  0  0  0  2  0  0  0  0  0  0
  187.8460  178.8640  140.3560 O   0  0  0  0  0  0  0  0  0  0  0  0
  188.5200  178.0770  139.6420 C   0  0  0  0  0  0  0  0  0  0  0  0
  188.7120  176.7580  138.9610 O   0  0  0  0  0  0  0  0  0  0  0  0
  189.6400  177.7600  138.9070 C   0  0  2  0  0  3  0  0  0  0  0  0
  1  5  1  0  0  0  0
  2 10  2  0  0  0  0
  2  7  1  0  0  0  0
  3  7  1  0  0  0  0
  3  1  2  0  0  0  0
  4  3  1  0  0  0  0
  6  5  1  0  0  0  0
  6  9  1  0  0  0  0
  7  6  2  0  0  0  0
  8  9  2  0  0  0  0
  9 12  1  0  0  0  0
 10  8  1  0  0  0  0
 12 11  2  0  0  0  0
 13  1  1  0  0  0  0
 14 13  1  0  0  0  0
 16 15  1  0  0  0  0
 16 14  1  0  0  0  0
 17 10  1  0  0  0  0
 18 20  2  0  0  0  0
 18 17  1  0  0  0  0
 19 18  1  0  0  0  0
 21 19  1  0  0  0  0
 23 22  2  0  0  0  0
 24 23  1  0  0  0  0
 25 24  1  0  0  0  0
 25 23  1  0  0  0  0
 25 21  1  1  0  0  0
M  END
>  <MODEL>
1

>  <REMARK>
 VINA RESULT:      -7.5      0.000      0.000
  Name = 
  8 active torsions:
  status: ('A' for Active; 'I' for Inactive)
    1  A    between atoms: C_1  and  N_19
    2  A    between atoms: C_7  and  C_25
    3  A    between atoms: C_13  and  C_23
    4  A    between atoms: C_14  and  N_19
    5  A    between atoms: C_14  and  O_20
    6  A    between atoms: N_15  and  C_23
    7  A    between atoms: C_18  and  C_24
    8  A    between atoms: C_22  and  C_25
                            x       y       z     vdW  Elec       q    Type
                         _______ _______ _______ _____ _____    ______ ____

>  <TORSDO>
F 8

$$$$
=
 OpenBabel11042411203D

 25 27  0  0  1  0  0  0  0  0999 V2000
  189.9770  176.6130  142.4490 C   0  0  0  0  0  0  0  0  0  0  0  0
  187.8220  177.4690  145.2900 C   0  0  0  0  0  3  0  0  0  0  0  0
  188.7700  177.0010  143.0360 C   0  0  0  0  0  0  0  0  0  0  0  0
  187.6000  177.2510  142.3270 O   0  0  0  0  0  1  0  0  0  0  0  0
  191.1410  176.3910  143.6520 S   0  0  0  0  0  0  0  0  0  0  0  0
  190.1170  176.7960  144.9280 C   0  0  0  0  0  0  0  0  0  0  0  0
  188.8560  177.1050  144.4280 C   0  0  0  0  0  0  0  0  0  0  0  0
  189.3550  177.2050  147.1690 C   0  0  0  0  0  3  0  0  0  0  0  0
  190.3970  176.8370  146.2980 C   0  0  0  0  0  0  0  0  0  0  0  0
  188.0780  177.5240  146.6700 C   0  0  0  0  0  0  0  0  0  0  0  0
  192.1070  176.8350  147.9980 N   0  0  0  0  0  2  0  0  0  0  0  0
  191.7340  176.5020  146.8060 C   0  0  0  0  0  3  0  0  0  0  0  0
  190.2300  176.4060  141.0560 N   0  0  0  0  0  2  0  0  0  0  0  0
  190.6680  177.4550  140.1460 C   0  0  0  0  0  2  0  0  0  0  0  0
  188.9670  178.4680  139.1750 C   0  0  0  0  0  1  0  0  0  0  0  0
  189.8830  177.4330  138.9930 O   0  0  0  0  0  0  0  0  0  0  0  0
  186.9830  177.8900  147.6130 C   0  0  0  0  0  2  0  0  0  0  0  0
  185.9760  178.7530  146.9330 C   0  0  0  0  0  0  0  0  0  0  0  0
  184.9960  178.1580  146.0790 N   0  0  0  0  0  2  0  0  0  0  0  0
  186.0180  180.0020  147.0910 O   0  0  0  0  0  0  0  0  0  0  0  0
  183.9820  178.9380  145.3850 C   0  0  0  0  0  2  0  0  0  0  0  0
  182.3470  178.9230  142.5140 O   0  0  0  0  0  0  0  0  0  0  0  0
  183.4620  178.8050  143.0840 C   0  0  0  0  0  0  0  0  0  0  0  0
  184.7430  178.0690  143.3270 O   0  0  0  0  0  0  0  0  0  0  0  0
  184.4290  179.2370  143.9640 C   0  0  2  0  0  3  0  0  0  0  0  0
  1  3  2  0  0  0  0
  1  5  1  0  0  0  0
  2 10  1  0  0  0  0
  3  7  1  0  0  0  0
  4  3  1  0  0  0  0
  5  6  1  0  0  0  0
  6  9  2  0  0  0  0
  7  6  1  0  0  0  0
  7  2  2  0  0  0  0
  9 12  1  0  0  0  0
  9  8  1  0  0  0  0
 10  8  2  0  0  0  0
 10 17  1  0  0  0  0
 12 11  2  0  0  0  0
 13  1  1  0  0  0  0
 14 13  1  0  0  0  0
 16 15  1  0  0  0  0
 16 14  1  0  0  0  0
 18 20  2  0  0  0  0
 18 17  1  0  0  0  0
 19 18  1  0  0  0  0
 21 19  1  0  0  0  0
 22 23  2  0  0  0  0
 23 24  1  0  0  0  0
 23 25  1  0  0  0  0
 24 25  1  0  0  0  0
 25 21  1  1  0  0  0
M  END
>  <MODEL>
2

>  <REMARK>
 VINA RESULT:      -7.4      2.257      6.053
  Name = 
  8 active torsions:
  status: ('A' for Active; 'I' for Inactive)
    1  A    between atoms: C_1  and  N_19
    2  A    between atoms: C_7  and  C_25
    3  A    between atoms: C_13  and  C_23
    4  A    between atoms: C_14  and  N_19
    5  A    between atoms: C_14  and  O_20
    6  A    between atoms: N_15  and  C_23
    7  A    between atoms: C_18  and  C_24
    8  A    between atoms: C_22  and  C_25
                            x       y       z     vdW  Elec       q    Type
                         _______ _______ _______ _____ _____    ______ ____

>  <TORSDO>
F 8

$$$$
=
 OpenBabel11042411203D

 25 27  0  0  1  0  0  0  0  0999 V2000
  189.1790  177.0760  144.3850 C   0  0  0  0  0  0  0  0  0  0  0  0
  186.1200  177.8210  142.5040 C   0  0  0  0  0  3  0  0  0  0  0  0
  188.4170  177.1830  143.2170 C   0  0  0  0  0  0  0  0  0  0  0  0
  188.8910  176.8810  141.9450 O   0  0  0  0  0  1  0  0  0  0  0  0
  188.2320  177.5120  145.7140 S   0  0  0  0  0  0  0  0  0  0  0  0
  186.8500  177.8490  144.8100 C   0  0  0  0  0  0  0  0  0  0  0  0
  187.1120  177.6190  143.4630 C   0  0  0  0  0  0  0  0  0  0  0  0
  184.5950  178.4900  144.2870 C   0  0  0  0  0  3  0  0  0  0  0  0
  185.5970  178.2850  145.2530 C   0  0  0  0  0  0  0  0  0  0  0  0
  184.8540  178.2650  142.9220 C   0  0  0  0  0  0  0  0  0  0  0  0
  185.6980  179.6130  147.2630 N   0  0  0  0  0  2  0  0  0  0  0  0
  185.3400  178.5160  146.6810 C   0  0  0  0  0  3  0  0  0  0  0  0
  190.5410  176.6510  144.4890 N   0  0  0  0  0  2  0  0  0  0  0  0
  191.6040  177.4670  145.0550 C   0  0  0  0  0  2  0  0  0  0  0  0
  192.0220  175.8250  146.4660 C   0  0  0  0  0  1  0  0  0  0  0  0
  191.7380  177.1890  146.4150 O   0  0  0  0  0  0  0  0  0  0  0  0
  183.7710  178.4670  141.9180 C   0  0  0  0  0  2  0  0  0  0  0  0
  184.3500  178.8180  140.5900 C   0  0  0  0  0  0  0  0  0  0  0  0
  184.0660  177.9960  139.4550 N   0  0  0  0  0  2  0  0  0  0  0  0
  185.1120  179.8160  140.4860 O   0  0  0  0  0  0  0  0  0  0  0  0
  184.5940  178.2780  138.1290 C   0  0  0  0  0  2  0  0  0  0  0  0
  187.7850  178.4660  138.9650 O   0  0  0  0  0  0  0  0  0  0  0  0
  186.9440  178.0270  138.1390 C   0  0  0  0  0  0  0  0  0  0  0  0
  186.4500  177.8410  136.7380 O   0  0  0  0  0  0  0  0  0  0  0  0
  185.7740  177.3700  137.8290 C   0  0  2  0  0  3  0  0  0  0  0  0
  1 13  1  0  0  0  0
  1  5  1  0  0  0  0
  2 10  2  0  0  0  0
  2  7  1  0  0  0  0
  3  7  1  0  0  0  0
  3  1  2  0  0  0  0
  4  3  1  0  0  0  0
  6  9  1  0  0  0  0
  6  5  1  0  0  0  0
  7  6  2  0  0  0  0
  8  9  2  0  0  0  0
  9 12  1  0  0  0  0
 10  8  1  0  0  0  0
 12 11  2  0  0  0  0
 13 14  1  0  0  0  0
 14 16  1  0  0  0  0
 16 15  1  0  0  0  0
 17 10  1  0  0  0  0
 18 17  1  0  0  0  0
 19 18  1  0  0  0  0
 20 18  2  0  0  0  0
 21 19  1  0  0  0  0
 23 22  2  0  0  0  0
 24 25  1  0  0  0  0
 24 23  1  0  0  0  0
 25 21  1  1  0  0  0
 25 23  1  0  0  0  0
M  END
>  <MODEL>
3

>  <REMARK>
 VINA RESULT:      -7.1      2.710      5.715
  Name = 
  8 active torsions:
  status: ('A' for Active; 'I' for Inactive)
    1  A    between atoms: C_1  and  N_19
    2  A    between atoms: C_7  and  C_25
    3  A    between atoms: C_13  and  C_23
    4  A    between atoms: C_14  and  N_19
    5  A    between atoms: C_14  and  O_20
    6  A    between atoms: N_15  and  C_23
    7  A    between atoms: C_18  and  C_24
    8  A    between atoms: C_22  and  C_25
                            x       y       z     vdW  Elec       q    Type
                         _______ _______ _______ _____ _____    ______ ____

>  <TORSDO>
F 8

$$$$
=
 OpenBabel11042411203D

 25 27  0  0  1  0  0  0  0  0999 V2000
  182.9170  179.0180  143.1920 C   0  0  0  0  0  0  0  0  0  0  0  0
  186.3370  177.8870  142.4990 C   0  0  0  0  0  3  0  0  0  0  0  0
  183.9680  178.6370  142.3520 C   0  0  0  0  0  0  0  0  0  0  0  0
  183.8850  178.5990  140.9640 O   0  0  0  0  0  1  0  0  0  0  0  0
  183.4300  178.9500  144.7990 S   0  0  0  0  0  0  0  0  0  0  0  0
  184.9910  178.4250  144.4360 C   0  0  0  0  0  0  0  0  0  0  0  0
  185.1270  178.3030  143.0580 C   0  0  0  0  0  0  0  0  0  0  0  0
  187.2660  177.7210  144.7490 C   0  0  0  0  0  3  0  0  0  0  0  0
  186.0460  178.1410  145.3100 C   0  0  0  0  0  0  0  0  0  0  0  0
  187.4110  177.5890  143.3560 C   0  0  0  0  0  0  0  0  0  0  0  0
  185.8640  179.4430  147.3310 N   0  0  0  0  0  2  0  0  0  0  0  0
  185.8810  178.2820  146.7630 C   0  0  0  0  0  3  0  0  0  0  0  0
  181.6040  179.4270  142.7970 N   0  0  0  0  0  2  0  0  0  0  0  0
  180.6690  178.5720  142.0830 C   0  0  0  0  0  2  0  0  0  0  0  0
  179.7260  180.3650  141.2120 C   0  0  0  0  0  1  0  0  0  0  0  0
  180.3320  179.1600  140.8630 O   0  0  0  0  0  0  0  0  0  0  0  0
  188.7190  177.1640  142.7820 C   0  0  0  0  0  2  0  0  0  0  0  0
  189.8410  177.6150  143.6530 C   0  0  0  0  0  0  0  0  0  0  0  0
  190.5200  176.6670  144.4800 N   0  0  0  0  0  2  0  0  0  0  0  0
  190.1600  178.8340  143.6780 O   0  0  0  0  0  0  0  0  0  0  0  0
  191.6250  177.0360  145.3530 C   0  0  0  0  0  2  0  0  0  0  0  0
  189.1820  176.7140  147.5540 O   0  0  0  0  0  0  0  0  0  0  0  0
  190.4250  176.6890  147.3590 C   0  0  0  0  0  0  0  0  0  0  0  0
  191.8180  177.1130  147.7040 O   0  0  0  0  0  0  0  0  0  0  0  0
  191.5380  176.2720  146.6630 C   0  0  2  0  0  3  0  0  0  0  0  0
  1  5  1  0  0  0  0
  2  7  2  0  0  0  0
  2 10  1  0  0  0  0
  3  7  1  0  0  0  0
  3  1  2  0  0  0  0
  4  3  1  0  0  0  0
  6  5  1  0  0  0  0
  6  9  2  0  0  0  0
  7  6  1  0  0  0  0
  8  9  1  0  0  0  0
  9 12  1  0  0  0  0
 10  8  2  0  0  0  0
 12 11  2  0  0  0  0
 13  1  1  0  0  0  0
 14 13  1  0  0  0  0
 16 15  1  0  0  0  0
 16 14  1  0  0  0  0
 17 10  1  0  0  0  0
 17 18  1  0  0  0  0
 18 20  2  0  0  0  0
 18 19  1  0  0  0  0
 19 21  1  0  0  0  0
 23 22  2  0  0  0  0
 23 24  1  0  0  0  0
 25 21  1  6  0  0  0
 25 23  1  0  0  0  0
 25 24  1  0  0  0  0
M  END
>  <MODEL>
4

>  <REMARK>
 VINA RESULT:      -7.1      2.526      4.058
  Name = 
  8 active torsions:
  status: ('A' for Active; 'I' for Inactive)
    1  A    between atoms: C_1  and  N_19
    2  A    between atoms: C_7  and  C_25
    3  A    between atoms: C_13  and  C_23
    4  A    between atoms: C_14  and  N_19
    5  A    between atoms: C_14  and  O_20
    6  A    between atoms: N_15  and  C_23
    7  A    between atoms: C_18  and  C_24
    8  A    between atoms: C_22  and  C_25
                            x       y       z     vdW  Elec       q    Type
                         _______ _______ _______ _____ _____    ______ ____

>  <TORSDO>
F 8

$$$$
=
 OpenBabel11042411203D

 25 27  0  0  1  0  0  0  0  0999 V2000
  190.5980  177.3670  142.0820 C   0  0  0  0  0  0  0  0  0  0  0  0
  188.1280  177.6880  144.7740 C   0  0  0  0  0  3  0  0  0  0  0  0
  189.3280  177.6480  142.5940 C   0  0  0  0  0  0  0  0  0  0  0  0
  188.2420  178.0410  141.8180 O   0  0  0  0  0  1  0  0  0  0  0  0
  191.6220  176.9070  143.3440 S   0  0  0  0  0  0  0  0  0  0  0  0
  190.4560  177.0730  144.5510 C   0  0  0  0  0  0  0  0  0  0  0  0
  189.2570  177.4840  143.9800 C   0  0  0  0  0  0  0  0  0  0  0  0
  189.4430  177.0550  146.7290 C   0  0  0  0  0  3  0  0  0  0  0  0
  190.5810  176.8490  145.9260 C   0  0  0  0  0  0  0  0  0  0  0  0
  188.2270  177.4760  146.1600 C   0  0  0  0  0  0  0  0  0  0  0  0
  192.0810  176.4860  147.7780 N   0  0  0  0  0  2  0  0  0  0  0  0
  191.8570  176.4100  146.5080 C   0  0  0  0  0  3  0  0  0  0  0  0
  191.0080  177.4270  140.7130 N   0  0  0  0  0  2  0  0  0  0  0  0
  190.4450  176.5940  139.6610 C   0  0  0  0  0  2  0  0  0  0  0  0
  190.4080  176.2920  137.4770 C   0  0  0  0  0  1  0  0  0  0  0  0
  190.4670  177.2880  138.4500 O   0  0  0  0  0  0  0  0  0  0  0  0
  187.0300  177.6670  147.0260 C   0  0  0  0  0  2  0  0  0  0  0  0
  186.0120  178.5060  146.3320 C   0  0  0  0  0  0  0  0  0  0  0  0
  185.5660  178.1410  145.0240 N   0  0  0  0  0  2  0  0  0  0  0  0
  185.5780  179.5490  146.8900 O   0  0  0  0  0  0  0  0  0  0  0  0
  184.5750  178.9120  144.2880 C   0  0  0  0  0  2  0  0  0  0  0  0
  185.3920  179.5580  141.1520 O   0  0  0  0  0  0  0  0  0  0  0  0
  184.5540  179.0290  141.9280 C   0  0  0  0  0  0  0  0  0  0  0  0
  183.1500  178.8300  142.4080 O   0  0  0  0  0  0  0  0  0  0  0  0
  184.2240  178.2120  142.9860 C   0  0  2  0  0  3  0  0  0  0  0  0
  1  3  2  0  0  0  0
  1  5  1  0  0  0  0
  2 10  1  0  0  0  0
  3  7  1  0  0  0  0
  4  3  1  0  0  0  0
  5  6  1  0  0  0  0
  6  9  2  0  0  0  0
  7  6  1  0  0  0  0
  7  2  2  0  0  0  0
  9 12  1  0  0  0  0
  9  8  1  0  0  0  0
 10  8  2  0  0  0  0
 10 17  1  0  0  0  0
 12 11  2  0  0  0  0
 13  1  1  0  0  0  0
 14 13  1  0  0  0  0
 15 16  1  0  0  0  0
 16 14  1  0  0  0  0
 18 20  2  0  0  0  0
 18 17  1  0  0  0  0
 19 18  1  0  0  0  0
 21 19  1  0  0  0  0
 22 23  2  0  0  0  0
 23 24  1  0  0  0  0
 23 25  1  0  0  0  0
 24 25  1  0  0  0  0
 25 21  1  1  0  0  0
M  END
>  <MODEL>
5

>  <REMARK>
 VINA RESULT:      -7.0      2.369      6.091
  Name = 
  8 active torsions:
  status: ('A' for Active; 'I' for Inactive)
    1  A    between atoms: C_1  and  N_19
    2  A    between atoms: C_7  and  C_25
    3  A    between atoms: C_13  and  C_23
    4  A    between atoms: C_14  and  N_19
    5  A    between atoms: C_14  and  O_20
    6  A    between atoms: N_15  and  C_23
    7  A    between atoms: C_18  and  C_24
    8  A    between atoms: C_22  and  C_25
                            x       y       z     vdW  Elec       q    Type
                         _______ _______ _______ _____ _____    ______ ____

>  <TORSDO>
F 8

$$$$
=
 OpenBabel11042411203D

 25 27  0  0  1  0  0  0  0  0999 V2000
  184.7100  179.0460  141.4210 C   0  0  0  0  0  0  0  0  0  0  0  0
  187.9210  177.8300  142.7110 C   0  0  0  0  0  3  0  0  0  0  0  0
  186.0440  178.6450  141.2940 C   0  0  0  0  0  0  0  0  0  0  0  0
  186.7420  178.6230  140.0920 O   0  0  0  0  0  1  0  0  0  0  0  0
  184.2470  178.9480  143.0420 S   0  0  0  0  0  0  0  0  0  0  0  0
  185.7380  178.3850  143.5910 C   0  0  0  0  0  0  0  0  0  0  0  0
  186.6130  178.2730  142.5160 C   0  0  0  0  0  0  0  0  0  0  0  0
  187.4460  177.6160  145.0940 C   0  0  0  0  0  3  0  0  0  0  0  0
  186.1270  178.0630  144.8960 C   0  0  0  0  0  0  0  0  0  0  0  0
  188.3360  177.4940  144.0110 C   0  0  0  0  0  0  0  0  0  0  0  0
  185.3370  179.1090  146.9190 N   0  0  0  0  0  2  0  0  0  0  0  0
  185.1880  178.1950  146.0180 C   0  0  0  0  0  3  0  0  0  0  0  0
  183.8430  179.4940  140.3760 N   0  0  0  0  0  2  0  0  0  0  0  0
  182.5860  178.8470  140.0310 C   0  0  0  0  0  2  0  0  0  0  0  0
  182.3480  176.6900  139.6360 C   0  0  0  0  0  1  0  0  0  0  0  0
  182.8120  177.8710  139.0590 O   0  0  0  0  0  0  0  0  0  0  0  0
  189.7350  177.0400  144.2470 C   0  0  0  0  0  2  0  0  0  0  0  0
  190.6620  177.6720  143.2660 C   0  0  0  0  0  0  0  0  0  0  0  0
  191.0460  176.9540  142.0910 N   0  0  0  0  0  2  0  0  0  0  0  0
  191.1260  178.8210  143.4970 O   0  0  0  0  0  0  0  0  0  0  0  0
  191.9450  177.5090  141.0900 C   0  0  0  0  0  2  0  0  0  0  0  0
  189.6110  178.3980  138.9270 O   0  0  0  0  0  0  0  0  0  0  0  0
  190.3590  177.4730  139.3400 C   0  0  0  0  0  0  0  0  0  0  0  0
  190.5730  176.0710  139.8170 O   0  0  0  0  0  0  0  0  0  0  0  0
  191.5890  176.9800  139.7120 C   0  0  2  0  0  3  0  0  0  0  0  0
  1  5  1  0  0  0  0
  2 10  1  0  0  0  0
  3  1  2  0  0  0  0
  3  7  1  0  0  0  0
  4  3  1  0  0  0  0
  5  6  1  0  0  0  0
  6  9  2  0  0  0  0
  7  2  2  0  0  0  0
  7  6  1  0  0  0  0
  9  8  1  0  0  0  0
  9 12  1  0  0  0  0
 10 17  1  0  0  0  0
 10  8  2  0  0  0  0
 12 11  2  0  0  0  0
 13  1  1  0  0  0  0
 14 13  1  0  0  0  0
 16 15  1  0  0  0  0
 16 14  1  0  0  0  0
 18 20  2  0  0  0  0
 18 17  1  0  0  0  0
 19 18  1  0  0  0  0
 21 19  1  0  0  0  0
 22 23  2  0  0  0  0
 23 25  1  0  0  0  0
 23 24  1  0  0  0  0
 25 24  1  0  0  0  0
 25 21  1  1  0  0  0
M  END
>  <MODEL>
6

>  <REMARK>
 VINA RESULT:      -6.7      2.284      2.696
  Name = 
  8 active torsions:
  status: ('A' for Active; 'I' for Inactive)
    1  A    between atoms: C_1  and  N_19
    2  A    between atoms: C_7  and  C_25
    3  A    between atoms: C_13  and  C_23
    4  A    between atoms: C_14  and  N_19
    5  A    between atoms: C_14  and  O_20
    6  A    between atoms: N_15  and  C_23
    7  A    between atoms: C_18  and  C_24
    8  A    between atoms: C_22  and  C_25
                            x       y       z     vdW  Elec       q    Type
                         _______ _______ _______ _____ _____    ______ ____

>  <TORSDO>
F 8

$$$$
=
 OpenBabel11042411203D

 25 27  0  0  1  0  0  0  0  0999 V2000
  184.7940  178.9300  140.0620 C   0  0  0  0  0  0  0  0  0  0  0  0
  185.5560  178.9010  143.6490 C   0  0  0  0  0  3  0  0  0  0  0  0
  185.6560  178.9250  141.1620 C   0  0  0  0  0  0  0  0  0  0  0  0
  187.0440  178.9440  141.0680 O   0  0  0  0  0  1  0  0  0  0  0  0
  183.1950  178.9240  140.6020 S   0  0  0  0  0  0  0  0  0  0  0  0
  183.5900  178.9060  142.2410 C   0  0  0  0  0  0  0  0  0  0  0  0
  184.9730  178.9090  142.3820 C   0  0  0  0  0  0  0  0  0  0  0  0
  183.3210  178.8870  144.6280 C   0  0  0  0  0  3  0  0  0  0  0  0
  182.7350  178.8950  143.3490 C   0  0  0  0  0  0  0  0  0  0  0  0
  184.7210  178.8840  144.7790 C   0  0  0  0  0  0  0  0  0  0  0  0
  180.6300  179.9850  142.9080 N   0  0  0  0  0  2  0  0  0  0  0  0
  181.2760  178.8980  143.1770 C   0  0  0  0  0  3  0  0  0  0  0  0
  185.1620  178.9550  138.6800 N   0  0  0  0  0  2  0  0  0  0  0  0
  185.8690  177.8750  138.0090 C   0  0  0  0  0  2  0  0  0  0  0  0
  187.1470  177.2650  136.3190 C   0  0  0  0  0  1  0  0  0  0  0  0
  186.6170  178.3890  136.9490 O   0  0  0  0  0  0  0  0  0  0  0  0
  185.3200  178.8980  146.1430 C   0  0  0  0  0  2  0  0  0  0  0  0
  186.3910  177.8670  146.2530 C   0  0  0  0  0  0  0  0  0  0  0  0
  187.6530  178.2160  146.8260 N   0  0  0  0  0  2  0  0  0  0  0  0
  186.1860  176.7060  145.8090 O   0  0  0  0  0  0  0  0  0  0  0  0
  188.7430  177.2620  146.9660 C   0  0  0  0  0  2  0  0  0  0  0  0
  191.9450  176.9210  146.2250 O   0  0  0  0  0  0  0  0  0  0  0  0
  190.8110  177.2890  145.8230 C   0  0  0  0  0  0  0  0  0  0  0  0
  189.9040  178.2990  145.1920 O   0  0  0  0  0  0  0  0  0  0  0  0
  189.4610  177.0850  145.6400 C   0  0  2  0  0  3  0  0  0  0  0  0
  1  5  1  0  0  0  0
  1  3  2  0  0  0  0
  2 10  1  0  0  0  0
  3  7  1  0  0  0  0
  4  3  1  0  0  0  0
  5  6  1  0  0  0  0
  6  7  1  0  0  0  0
  6  9  2  0  0  0  0
  7  2  2  0  0  0  0
  8 10  2  0  0  0  0
  9  8  1  0  0  0  0
 10 17  1  0  0  0  0
 11 12  2  0  0  0  0
 12  9  1  0  0  0  0
 13  1  1  0  0  0  0
 14 13  1  0  0  0  0
 15 16  1  0  0  0  0
 16 14  1  0  0  0  0
 17 18  1  0  0  0  0
 18 19  1  0  0  0  0
 19 21  1  0  0  0  0
 20 18  2  0  0  0  0
 23 22  2  0  0  0  0
 24 25  1  0  0  0  0
 24 23  1  0  0  0  0
 25 23  1  0  0  0  0
 25 21  1  1  0  0  0
M  END
>  <MODEL>
7

>  <REMARK>
 VINA RESULT:      -6.6      3.032      6.340
  Name = 
  8 active torsions:
  status: ('A' for Active; 'I' for Inactive)
    1  A    between atoms: C_1  and  N_19
    2  A    between atoms: C_7  and  C_25
    3  A    between atoms: C_13  and  C_23
    4  A    between atoms: C_14  and  N_19
    5  A    between atoms: C_14  and  O_20
    6  A    between atoms: N_15  and  C_23
    7  A    between atoms: C_18  and  C_24
    8  A    between atoms: C_22  and  C_25
                            x       y       z     vdW  Elec       q    Type
                         _______ _______ _______ _____ _____    ______ ____

>  <TORSDO>
F 8

$$$$
=
 OpenBabel11042411203D

 25 27  0  0  1  0  0  0  0  0999 V2000
  189.6680  177.1510  142.9460 C   0  0  0  0  0  0  0  0  0  0  0  0
  186.3690  177.9900  144.3120 C   0  0  0  0  0  3  0  0  0  0  0  0
  188.3130  177.4810  142.8430 C   0  0  0  0  0  0  0  0  0  0  0  0
  187.6300  177.6120  141.6390 O   0  0  0  0  0  1  0  0  0  0  0  0
  190.1040  177.0720  144.5750 S   0  0  0  0  0  0  0  0  0  0  0  0
  188.5730  177.4660  145.1600 C   0  0  0  0  0  0  0  0  0  0  0  0
  187.7060  177.6580  144.0890 C   0  0  0  0  0  0  0  0  0  0  0  0
  186.7990  177.9290  146.7120 C   0  0  0  0  0  3  0  0  0  0  0  0
  188.1470  177.5940  146.4860 C   0  0  0  0  0  0  0  0  0  0  0  0
  185.9170  178.1310  145.6350 C   0  0  0  0  0  0  0  0  0  0  0  0
  189.2190  178.2560  148.5420 N   0  0  0  0  0  2  0  0  0  0  0  0
  189.0790  177.3800  147.6020 C   0  0  0  0  0  3  0  0  0  0  0  0
  190.5760  176.8950  141.8700 N   0  0  0  0  0  2  0  0  0  0  0  0
  190.3320  177.2900  140.4910 C   0  0  0  0  0  2  0  0  0  0  0  0
  192.5100  177.4930  140.2160 C   0  0  0  0  0  1  0  0  0  0  0  0
  191.3870  176.8610  139.6860 O   0  0  0  0  0  0  0  0  0  0  0  0
  184.4890  178.4640  145.8980 C   0  0  0  0  0  2  0  0  0  0  0  0
  183.8700  179.0940  144.6970 C   0  0  0  0  0  0  0  0  0  0  0  0
  182.7880  178.4380  144.0320 N   0  0  0  0  0  2  0  0  0  0  0  0
  184.3280  180.1830  144.2590 O   0  0  0  0  0  0  0  0  0  0  0  0
  182.1360  178.9950  142.8560 C   0  0  0  0  0  2  0  0  0  0  0  0
  179.1210  177.8890  142.0770 O   0  0  0  0  0  0  0  0  0  0  0  0
  179.8180  178.8830  142.4080 C   0  0  0  0  0  0  0  0  0  0  0  0
  180.2750  180.2940  142.2050 O   0  0  0  0  0  0  0  0  0  0  0  0
  180.7490  179.5010  143.2130 C   0  0  2  0  0  3  0  0  0  0  0  0
  1  5  1  0  0  0  0
  2 10  1  0  0  0  0
  3  1  2  0  0  0  0
  3  7  1  0  0  0  0
  4  3  1  0  0  0  0
  5  6  1  0  0  0  0
  6  9  2  0  0  0  0
  7  2  2  0  0  0  0
  7  6  1  0  0  0  0
  9  8  1  0  0  0  0
  9 12  1  0  0  0  0
 10 17  1  0  0  0  0
 10  8  2  0  0  0  0
 12 11  2  0  0  0  0
 13  1  1  0  0  0  0
 14 13  1  0  0  0  0
 16 15  1  0  0  0  0
 16 14  1  0  0  0  0
 18 17  1  0  0  0  0
 19 18  1  0  0  0  0
 20 18  2  0  0  0  0
 21 19  1  0  0  0  0
 22 23  2  0  0  0  0
 23 25  1  0  0  0  0
 24 23  1  0  0  0  0
 24 25  1  0  0  0  0
 25 21  1  6  0  0  0
M  END
>  <MODEL>
8

>  <REMARK>
 VINA RESULT:      -6.5      1.804      6.853
  Name = 
  8 active torsions:
  status: ('A' for Active; 'I' for Inactive)
    1  A    between atoms: C_1  and  N_19
    2  A    between atoms: C_7  and  C_25
    3  A    between atoms: C_13  and  C_23
    4  A    between atoms: C_14  and  N_19
    5  A    between atoms: C_14  and  O_20
    6  A    between atoms: N_15  and  C_23
    7  A    between atoms: C_18  and  C_24
    8  A    between atoms: C_22  and  C_25
                            x       y       z     vdW  Elec       q    Type
                         _______ _______ _______ _____ _____    ______ ____

>  <TORSDO>
F 8

$$$$
=
 OpenBabel11042411203D

 25 27  0  0  1  0  0  0  0  0999 V2000
  187.5490  177.5790  144.4910 C   0  0  0  0  0  0  0  0  0  0  0  0
  186.0710  178.5760  141.2860 C   0  0  0  0  0  3  0  0  0  0  0  0
  187.5830  177.8280  143.1160 C   0  0  0  0  0  0  0  0  0  0  0  0
  188.7120  177.6640  142.3200 O   0  0  0  0  0  1  0  0  0  0  0  0
  185.9930  177.8770  145.0770 S   0  0  0  0  0  0  0  0  0  0  0  0
  185.3560  178.3340  143.5840 C   0  0  0  0  0  0  0  0  0  0  0  0
  186.3500  178.2530  142.6140 C   0  0  0  0  0  0  0  0  0  0  0  0
  183.7700  179.0620  141.9340 C   0  0  0  0  0  3  0  0  0  0  0  0
  184.0530  178.7360  143.2730 C   0  0  0  0  0  0  0  0  0  0  0  0
  184.7710  178.9890  140.9480 C   0  0  0  0  0  0  0  0  0  0  0  0
  181.7670  178.6300  144.0340 N   0  0  0  0  0  2  0  0  0  0  0  0
  183.0170  178.8080  144.3120 C   0  0  0  0  0  3  0  0  0  0  0  0
  188.6290  177.1260  145.3120 N   0  0  0  0  0  2  0  0  0  0  0  0
  189.8570  177.8760  145.5240 C   0  0  0  0  0  2  0  0  0  0  0  0
  191.6790  178.2010  144.3250 C   0  0  0  0  0  1  0  0  0  0  0  0
  190.9290  177.2000  144.9390 O   0  0  0  0  0  0  0  0  0  0  0  0
  184.4430  179.3180  139.5320 C   0  0  0  0  0  2  0  0  0  0  0  0
  185.1200  178.3660  138.6050 C   0  0  0  0  0  0  0  0  0  0  0  0
  186.3750  178.7200  138.0200 N   0  0  0  0  0  2  0  0  0  0  0  0
  184.5630  177.2730  138.3190 O   0  0  0  0  0  0  0  0  0  0  0  0
  187.0920  177.8400  137.1090 C   0  0  0  0  0  2  0  0  0  0  0  0
  189.5950  178.2230  139.2310 O   0  0  0  0  0  0  0  0  0  0  0  0
  189.0780  178.5930  138.1450 C   0  0  0  0  0  0  0  0  0  0  0  0
  188.5880  179.6630  137.2200 O   0  0  0  0  0  0  0  0  0  0  0  0
  188.5170  178.3320  136.9150 C   0  0  2  0  0  3  0  0  0  0  0  0
  1  5  1  0  0  0  0
  1 13  1  0  0  0  0
  2  7  1  0  0  0  0
  3  1  2  0  0  0  0
  4  3  1  0  0  0  0
  6  5  1  0  0  0  0
  7  3  1  0  0  0  0
  7  6  2  0  0  0  0
  8  9  2  0  0  0  0
  9  6  1  0  0  0  0
  9 12  1  0  0  0  0
 10  2  2  0  0  0  0
 10  8  1  0  0  0  0
 11 12  2  0  0  0  0
 13 14  1  0  0  0  0
 15 16  1  0  0  0  0
 16 14  1  0  0  0  0
 17 10  1  0  0  0  0
 18 17  1  0  0  0  0
 19 18  1  0  0  0  0
 20 18  2  0  0  0  0
 21 19  1  0  0  0  0
 23 22  2  0  0  0  0
 24 23  1  0  0  0  0
 25 21  1  1  0  0  0
 25 24  1  0  0  0  0
 25 23  1  0  0  0  0
M  END
>  <MODEL>
9

>  <REMARK>
 VINA RESULT:      -6.5      2.600      5.703
  Name = 
  8 active torsions:
  status: ('A' for Active; 'I' for Inactive)
    1  A    between atoms: C_1  and  N_19
    2  A    between atoms: C_7  and  C_25
    3  A    between atoms: C_13  and  C_23
    4  A    between atoms: C_14  and  N_19
    5  A    between atoms: C_14  and  O_20
    6  A    between atoms: N_15  and  C_23
    7  A    between atoms: C_18  and  C_24
    8  A    between atoms: C_22  and  C_25
                            x       y       z     vdW  Elec       q    Type
                         _______ _______ _______ _____ _____    ______ ____

>  <TORSDO>
F 8

$$$$
