=
 OpenBabel11042410483D

 31 36  0  0  1  0  0  0  0  0999 V2000
  190.5460  176.9410  143.4800 N   0  0  2  0  0  0  0  0  0  0  0  0
  186.2760  178.1930  147.0870 O   0  0  0  0  0  0  0  0  0  0  0  0
  187.0640  177.3990  144.3440 C   0  0  1  0  0  3  0  0  0  0  0  0
  190.7830  176.0640  144.6520 C   0  0  2  0  0  3  0  0  0  0  0  0
  190.0130  176.0970  142.3880 C   0  0  1  0  0  3  0  0  0  0  0  0
  192.2160  177.5950  145.7980 O   0  0  0  0  0  1  0  0  0  0  0  0
  185.2100  178.2820  143.5590 C   0  0  0  0  0  0  0  0  0  0  0  0
  184.2180  178.9500  146.0400 C   0  0  0  0  0  3  0  0  0  0  0  0
  188.2020  177.8310  142.2680 N   0  0  0  0  0  2  0  0  0  0  0  0
  185.4960  178.3790  145.9450 C   0  0  0  0  0  0  0  0  0  0  0  0
  190.9370  177.8090  140.1240 C   0  0  1  0  0  3  0  0  0  0  0  0
  187.6710  178.4750  147.0720 C   0  0  0  0  0  2  0  0  0  0  0  0
  191.0070  176.9040  145.9300 C   0  0  1  0  0  0  0  0  0  0  0  0
  185.9660  178.0450  144.6740 C   0  0  0  0  0  0  0  0  0  0  0  0
  189.8860  177.9430  146.1200 C   0  0  0  0  0  2  0  0  0  0  0  0
  187.9330  176.7470  145.2720 N   0  0  0  0  0  2  0  0  0  0  0  0
  188.9580  176.8330  141.5230 C   0  0  1  0  0  3  0  0  0  0  0  0
  187.0680  177.1470  142.8700 C   0  0  2  0  0  3  0  0  0  0  0  0
  185.7790  177.8130  142.4600 C   0  0  0  0  0  2  0  0  0  0  0  0
  189.4970  177.4160  140.2470 C   0  0  0  0  0  0  0  0  0  0  0  0
  188.5190  177.3550  146.4650 C   0  0  2  0  0  3  0  0  0  0  0  0
  191.5930  177.8980  141.4960 C   0  0  0  0  0  2  0  0  0  0  0  0
  183.4740  179.1880  144.8660 C   0  0  0  0  0  3  0  0  0  0  0  0
  191.6840  176.8360  139.2260 C   0  0  0  0  0  1  0  0  0  0  0  0
  188.7430  177.5890  139.3030 O   0  0  0  0  0  0  0  0  0  0  0  0
  191.8950  175.0080  144.4830 C   0  0  0  0  0  1  0  0  0  0  0  0
  183.9810  178.8530  143.6420 N   0  0  0  0  0  0  0  0  0  0  0  0
  191.4000  176.6220  142.3170 C   0  0  1  0  0  3  0  0  0  0  0  0
  191.0840  175.9740  147.1550 C   0  0  0  0  0  2  0  0  0  0  0  0
  192.7470  176.6720  148.7310 O   0  0  0  0  0  1  0  0  0  0  0  0
  192.5010  175.7820  147.6850 C   0  0  0  0  0  2  0  0  0  0  0  0
  1  4  1  0  0  0  0
  3 14  1  0  0  0  0
  3 16  1  0  0  0  0
  4 13  1  0  0  0  0
  5  1  1  0  0  0  0
  6 13  1  0  0  0  0
  7 27  2  0  0  0  0
  7 14  1  0  0  0  0
  9 18  1  0  0  0  0
 10  8  1  0  0  0  0
 10  2  1  0  0  0  0
 11 20  1  0  0  0  0
 11 22  1  0  0  0  0
 12  2  1  0  0  0  0
 13 15  1  0  0  0  0
 13 29  1  0  0  0  0
 14 10  2  0  0  0  0
 15 21  1  0  0  0  0
 16 21  1  0  0  0  0
 17  9  1  0  0  0  0
 17  5  1  0  0  0  0
 18  3  1  0  0  0  0
 19 18  1  0  0  0  0
 19  7  1  0  0  0  0
 20 17  1  0  0  0  0
 21 12  1  0  0  0  0
 22 28  1  0  0  0  0
 23  8  2  0  0  0  0
 24 11  1  0  0  0  0
 25 20  2  0  0  0  0
 26  4  1  0  0  0  0
 27 23  1  0  0  0  0
 28  5  1  0  0  0  0
 28  1  1  0  0  0  0
 29 31  1  0  0  0  0
 31 30  1  0  0  0  0
M  END
>  <MODEL>
1

>  <REMARK>
 VINA RESULT:      -8.8      0.000      0.000
  Name = 
  2 active torsions:
  status: ('A' for Active; 'I' for Inactive)
    1  A    between atoms: C_14  and  C_24
    2  A    between atoms: C_19  and  C_24
                            x       y       z     vdW  Elec       q    Type
                         _______ _______ _______ _____ _____    ______ ____

>  <TORSDO>
F 2

$$$$
=
 OpenBabel11042410483D

 31 36  0  0  1  0  0  0  0  0999 V2000
  190.0360  176.8660  140.8600 N   0  0  2  0  0  0  0  0  0  0  0  0
  185.6630  177.9360  137.3170 O   0  0  0  0  0  0  0  0  0  0  0  0
  186.8980  178.4260  139.9650 C   0  0  1  0  0  3  0  0  0  0  0  0
  190.6800  177.3020  139.5980 C   0  0  2  0  0  3  0  0  0  0  0  0
  190.1450  177.9790  141.8280 C   0  0  1  0  0  3  0  0  0  0  0  0
  190.9010  175.1070  138.6820 O   0  0  0  0  0  1  0  0  0  0  0  0
  184.9150  178.8810  140.8010 C   0  0  0  0  0  0  0  0  0  0  0  0
  183.6010  178.6410  138.3930 C   0  0  0  0  0  3  0  0  0  0  0  0
  187.6720  177.6490  142.1070 N   0  0  0  0  0  2  0  0  0  0  0  0
  184.9760  178.3680  138.4520 C   0  0  0  0  0  0  0  0  0  0  0  0
  190.0120  176.3170  144.3060 C   0  0  1  0  0  3  0  0  0  0  0  0
  186.6340  176.8980  137.4020 C   0  0  0  0  0  2  0  0  0  0  0  0
  190.3130  176.3520  138.4360 C   0  0  1  0  0  0  0  0  0  0  0  0
  185.6140  178.5060  139.6860 C   0  0  0  0  0  0  0  0  0  0  0  0
  188.7900  176.1460  138.3420 C   0  0  0  0  0  2  0  0  0  0  0  0
  187.9370  178.3410  138.9890 N   0  0  0  0  0  2  0  0  0  0  0  0
  188.9020  178.0970  142.7480 C   0  0  1  0  0  3  0  0  0  0  0  0
  187.1180  178.7930  141.3980 C   0  0  2  0  0  3  0  0  0  0  0  0
  185.7030  179.0520  141.8510 C   0  0  0  0  0  2  0  0  0  0  0  0
  189.0630  177.4580  144.0980 C   0  0  0  0  0  0  0  0  0  0  0  0
  188.0030  177.3760  137.8930 C   0  0  2  0  0  3  0  0  0  0  0  0
  190.4270  175.7100  142.9720 C   0  0  0  0  0  2  0  0  0  0  0  0
  182.9150  179.0140  139.5670 C   0  0  0  0  0  3  0  0  0  0  0  0
  191.2270  176.7680  145.1000 C   0  0  0  0  0  1  0  0  0  0  0  0
  188.3960  177.8640  145.0360 O   0  0  0  0  0  0  0  0  0  0  0  0
  192.2060  177.5260  139.6690 C   0  0  0  0  0  1  0  0  0  0  0  0
  183.5810  179.1260  140.7550 N   0  0  0  0  0  0  0  0  0  0  0  0
  190.9710  176.7580  141.9980 C   0  0  1  0  0  3  0  0  0  0  0  0
  190.8560  176.9180  137.1110 C   0  0  0  0  0  2  0  0  0  0  0  0
  193.0640  176.2790  136.4380 O   0  0  0  0  0  1  0  0  0  0  0  0
  191.7180  175.9280  136.3350 C   0  0  0  0  0  2  0  0  0  0  0  0
  1  5  1  0  0  0  0
  1 28  1  0  0  0  0
  2 12  1  0  0  0  0
  2 10  1  0  0  0  0
  3 18  1  0  0  0  0
  4 26  1  0  0  0  0
  4  1  1  0  0  0  0
  5 28  1  0  0  0  0
  5 17  1  0  0  0  0
  7 19  1  0  0  0  0
  8 10  2  0  0  0  0
  8 23  1  0  0  0  0
  9 17  1  0  0  0  0
 10 14  1  0  0  0  0
 11 24  1  0  0  0  0
 12 21  1  0  0  0  0
 13  6  1  0  0  0  0
 13  4  1  0  0  0  0
 14  3  1  0  0  0  0
 14  7  2  0  0  0  0
 15 13  1  0  0  0  0
 16  3  1  0  0  0  0
 17 20  1  0  0  0  0
 18 19  1  0  0  0  0
 18  9  1  0  0  0  0
 20 11  1  0  0  0  0
 20 25  2  0  0  0  0
 21 15  1  0  0  0  0
 21 16  1  0  0  0  0
 22 11  1  0  0  0  0
 23 27  2  0  0  0  0
 27  7  1  0  0  0  0
 28 22  1  0  0  0  0
 29 13  1  0  0  0  0
 31 30  1  0  0  0  0
 31 29  1  0  0  0  0
M  END
>  <MODEL>
2

>  <REMARK>
 VINA RESULT:      -8.3      2.738      6.395
  Name = 
  2 active torsions:
  status: ('A' for Active; 'I' for Inactive)
    1  A    between atoms: C_14  and  C_24
    2  A    between atoms: C_19  and  C_24
                            x       y       z     vdW  Elec       q    Type
                         _______ _______ _______ _____ _____    ______ ____

>  <TORSDO>
F 2

$$$$
=
 OpenBabel11042410483D

 31 36  0  0  1  0  0  0  0  0999 V2000
  185.6160  178.1600  142.5650 N   0  0  2  0  0  0  0  0  0  0  0  0
  191.1000  176.7780  141.6520 O   0  0  0  0  0  0  0  0  0  0  0  0
  188.6430  178.0490  140.5900 C   0  0  1  0  0  3  0  0  0  0  0  0
  186.3350  178.7000  143.7450 C   0  0  2  0  0  3  0  0  0  0  0  0
  185.2630  179.3020  141.6930 C   0  0  1  0  0  3  0  0  0  0  0  0
  186.0560  176.7490  145.0960 O   0  0  0  0  0  1  0  0  0  0  0  0
  189.3330  177.6600  138.5390 C   0  0  0  0  0  0  0  0  0  0  0  0
  191.7530  176.6010  139.3180 C   0  0  0  0  0  3  0  0  0  0  0  0
  186.3450  177.9360  139.8870 N   0  0  0  0  0  2  0  0  0  0  0  0
  190.8230  176.9780  140.2990 C   0  0  0  0  0  0  0  0  0  0  0  0
  182.9050  178.0330  140.3730 C   0  0  1  0  0  3  0  0  0  0  0  0
  190.0950  176.2990  142.5390 C   0  0  0  0  0  2  0  0  0  0  0  0
  187.0370  177.5670  144.5260 C   0  0  1  0  0  0  0  0  0  0  0  0
  189.6100  177.5180  139.8710 C   0  0  0  0  0  0  0  0  0  0  0  0
  187.8970  176.6940  143.5930 C   0  0  0  0  0  2  0  0  0  0  0  0
  188.7330  178.3330  141.9870 N   0  0  0  0  0  2  0  0  0  0  0  0
  185.3430  178.9510  140.1850 C   0  0  1  0  0  3  0  0  0  0  0  0
  187.6080  178.6280  139.6790 C   0  0  2  0  0  3  0  0  0  0  0  0
  188.1800  178.2760  138.3290 C   0  0  0  0  0  2  0  0  0  0  0  0
  184.0250  178.6010  139.5560 C   0  0  0  0  0  0  0  0  0  0  0  0
  189.1350  177.3870  143.0260 C   0  0  2  0  0  3  0  0  0  0  0  0
  183.4150  177.5350  141.7190 C   0  0  0  0  0  2  0  0  0  0  0  0
  191.4260  176.7530  137.9550 C   0  0  0  0  0  3  0  0  0  0  0  0
  181.8000  179.0600  140.5570 C   0  0  0  0  0  1  0  0  0  0  0  0
  183.8720  178.7640  138.3560 O   0  0  0  0  0  0  0  0  0  0  0  0
  185.4970  179.5860  144.6900 C   0  0  0  0  0  1  0  0  0  0  0  0
  190.2190  177.2770  137.5840 N   0  0  0  0  0  0  0  0  0  0  0  0
  184.2100  178.6040  142.4720 C   0  0  1  0  0  3  0  0  0  0  0  0
  187.9090  178.1690  145.6430 C   0  0  0  0  0  2  0  0  0  0  0  0
  188.8340  176.7580  147.3440 O   0  0  0  0  0  1  0  0  0  0  0  0
  187.7060  177.5030  147.0000 C   0  0  0  0  0  2  0  0  0  0  0  0
  1  4  1  0  0  0  0
  2 12  1  0  0  0  0
  3 16  1  0  0  0  0
  4 13  1  0  0  0  0
  4 26  1  0  0  0  0
  5 28  1  0  0  0  0
  5  1  1  0  0  0  0
  7 14  1  0  0  0  0
  8 10  1  0  0  0  0
  9 17  1  0  0  0  0
 10  2  1  0  0  0  0
 11 24  1  0  0  0  0
 11 22  1  0  0  0  0
 12 21  1  0  0  0  0
 13  6  1  0  0  0  0
 13 29  1  0  0  0  0
 14 10  2  0  0  0  0
 14  3  1  0  0  0  0
 15 13  1  0  0  0  0
 16 21  1  0  0  0  0
 17  5  1  0  0  0  0
 18  9  1  0  0  0  0
 18  3  1  0  0  0  0
 19  7  1  0  0  0  0
 19 18  1  0  0  0  0
 20 17  1  0  0  0  0
 20 11  1  0  0  0  0
 21 15  1  0  0  0  0
 22 28  1  0  0  0  0
 23  8  2  0  0  0  0
 25 20  2  0  0  0  0
 27 23  1  0  0  0  0
 27  7  2  0  0  0  0
 28  1  1  0  0  0  0
 29 31  1  0  0  0  0
 31 30  1  0  0  0  0
M  END
>  <MODEL>
3

>  <REMARK>
 VINA RESULT:      -7.3      2.450      6.392
  Name = 
  2 active torsions:
  status: ('A' for Active; 'I' for Inactive)
    1  A    between atoms: C_14  and  C_24
    2  A    between atoms: C_19  and  C_24
                            x       y       z     vdW  Elec       q    Type
                         _______ _______ _______ _____ _____    ______ ____

>  <TORSDO>
F 2

$$$$
=
 OpenBabel11042410483D

 31 36  0  0  1  0  0  0  0  0999 V2000
  185.2390  177.9340  139.1820 N   0  0  2  0  0  0  0  0  0  0  0  0
  188.1780  178.0590  144.0970 O   0  0  0  0  0  0  0  0  0  0  0  0
  188.2680  178.2010  141.1390 C   0  0  1  0  0  3  0  0  0  0  0  0
  184.5500  178.9620  139.9990 C   0  0  2  0  0  3  0  0  0  0  0  0
  186.0220  178.6370  138.1420 C   0  0  1  0  0  3  0  0  0  0  0  0
  182.9660  177.4590  140.9700 O   0  0  0  0  0  1  0  0  0  0  0  0
  190.3500  177.4950  141.1720 C   0  0  0  0  0  0  0  0  0  0  0  0
  190.5270  177.4590  143.9200 C   0  0  0  0  0  3  0  0  0  0  0  0
  187.9220  177.2210  138.9690 N   0  0  0  0  0  2  0  0  0  0  0  0
  189.3040  177.7920  143.3170 C   0  0  0  0  0  0  0  0  0  0  0  0
  186.0570  176.4140  136.1490 C   0  0  1  0  0  3  0  0  0  0  0  0
  186.8980  177.5610  143.7240 C   0  0  0  0  0  2  0  0  0  0  0  0
  183.9950  178.3460  141.3030 C   0  0  1  0  0  0  0  0  0  0  0  0
  189.2510  177.8080  141.9230 C   0  0  0  0  0  0  0  0  0  0  0  0
  185.0810  177.5510  142.0520 C   0  0  0  0  0  2  0  0  0  0  0  0
  187.0870  178.8660  141.5890 N   0  0  0  0  0  2  0  0  0  0  0  0
  187.3660  177.9320  137.8250 C   0  0  1  0  0  3  0  0  0  0  0  0
  188.7270  178.1750  139.7160 C   0  0  2  0  0  3  0  0  0  0  0  0
  190.1350  177.6580  139.8760 C   0  0  0  0  0  2  0  0  0  0  0  0
  187.3330  177.0470  136.6110 C   0  0  0  0  0  0  0  0  0  0  0  0
  186.1990  178.4010  142.6530 C   0  0  2  0  0  3  0  0  0  0  0  0
  184.9960  176.4760  137.2420 C   0  0  0  0  0  2  0  0  0  0  0  0
  191.6340  177.1310  143.1110 C   0  0  0  0  0  3  0  0  0  0  0  0
  185.5610  177.0750  134.8730 C   0  0  0  0  0  1  0  0  0  0  0  0
  188.3690  176.8260  136.0040 O   0  0  0  0  0  0  0  0  0  0  0  0
  183.4640  179.7790  139.2680 C   0  0  0  0  0  1  0  0  0  0  0  0
  191.5300  177.1500  141.7490 N   0  0  0  0  0  0  0  0  0  0  0  0
  184.7900  177.8950  137.7750 C   0  0  1  0  0  3  0  0  0  0  0  0
  183.4350  179.4600  142.2060 C   0  0  0  0  0  2  0  0  0  0  0  0
  183.1790  179.0760  144.5570 O   0  0  0  0  0  1  0  0  0  0  0  0
  182.5380  178.9420  143.3250 C   0  0  0  0  0  2  0  0  0  0  0  0
  1  4  1  0  0  0  0
  3 16  1  0  0  0  0
  3 14  1  0  0  0  0
  4 13  1  0  0  0  0
  5  1  1  0  0  0  0
  6 13  1  0  0  0  0
  7 27  2  0  0  0  0
  7 14  1  0  0  0  0
  9 18  1  0  0  0  0
 10  8  1  0  0  0  0
 10  2  1  0  0  0  0
 11 20  1  0  0  0  0
 11 22  1  0  0  0  0
 12  2  1  0  0  0  0
 13 15  1  0  0  0  0
 13 29  1  0  0  0  0
 14 10  2  0  0  0  0
 15 21  1  0  0  0  0
 16 21  1  0  0  0  0
 17  5  1  0  0  0  0
 17  9  1  0  0  0  0
 18 19  1  0  0  0  0
 18  3  1  0  0  0  0
 19  7  1  0  0  0  0
 20 17  1  0  0  0  0
 21 12  1  0  0  0  0
 22 28  1  0  0  0  0
 23  8  2  0  0  0  0
 24 11  1  0  0  0  0
 25 20  2  0  0  0  0
 26  4  1  0  0  0  0
 27 23  1  0  0  0  0
 28  5  1  0  0  0  0
 28  1  1  0  0  0  0
 29 31  1  0  0  0  0
 31 30  1  0  0  0  0
M  END
>  <MODEL>
4

>  <REMARK>
 VINA RESULT:      -7.1      3.343      6.949
  Name = 
  2 active torsions:
  status: ('A' for Active; 'I' for Inactive)
    1  A    between atoms: C_14  and  C_24
    2  A    between atoms: C_19  and  C_24
                            x       y       z     vdW  Elec       q    Type
                         _______ _______ _______ _____ _____    ______ ____

>  <TORSDO>
F 2

$$$$
=
 OpenBabel11042410483D

 31 36  0  0  1  0  0  0  0  0999 V2000
  188.2060  176.9550  137.2940 N   0  0  2  0  0  0  0  0  0  0  0  0
  183.2220  178.1780  139.8390 O   0  0  0  0  0  0  0  0  0  0  0  0
  186.1740  178.4220  139.9010 C   0  0  1  0  0  3  0  0  0  0  0  0
  187.3870  177.5760  136.2250 C   0  0  2  0  0  3  0  0  0  0  0  0
  189.2140  177.9490  137.7220 C   0  0  1  0  0  3  0  0  0  0  0  0
  186.4800  175.5220  135.4080 O   0  0  0  0  0  1  0  0  0  0  0  0
  186.1050  178.6570  142.0870 C   0  0  0  0  0  0  0  0  0  0  0  0
  183.3550  178.6280  142.2240 C   0  0  0  0  0  3  0  0  0  0  0  0
  188.3680  177.4430  140.0300 N   0  0  0  0  0  2  0  0  0  0  0  0
  183.9800  178.4310  140.9830 C   0  0  0  0  0  0  0  0  0  0  0  0
  191.2440  176.0000  138.7170 C   0  0  1  0  0  3  0  0  0  0  0  0
  183.6330  177.1980  138.8930 C   0  0  0  0  0  2  0  0  0  0  0  0
  186.1070  176.7500  135.9640 C   0  0  1  0  0  0  0  0  0  0  0  0
  185.3750  178.4590  140.9470 C   0  0  0  0  0  0  0  0  0  0  0  0
  185.3470  176.4670  137.2730 C   0  0  0  0  0  2  0  0  0  0  0  0
  185.7400  178.5150  138.5440 N   0  0  0  0  0  2  0  0  0  0  0  0
  189.5120  177.8840  139.2420 C   0  0  1  0  0  3  0  0  0  0  0  0
  187.5860  178.6280  140.3480 C   0  0  2  0  0  3  0  0  0  0  0  0
  187.4030  178.7480  141.8400 C   0  0  0  0  0  2  0  0  0  0  0  0
  190.7420  177.0990  139.6020 C   0  0  0  0  0  0  0  0  0  0  0  0
  184.7050  177.6930  137.9200 C   0  0  2  0  0  3  0  0  0  0  0  0
  190.1760  175.5810  137.7150 C   0  0  0  0  0  2  0  0  0  0  0  0
  184.1430  178.8170  143.3780 C   0  0  0  0  0  3  0  0  0  0  0  0
  192.5200  176.4230  138.0070 C   0  0  0  0  0  1  0  0  0  0  0  0
  191.3290  177.3500  140.6420 O   0  0  0  0  0  0  0  0  0  0  0  0
  188.1280  177.8790  134.9060 C   0  0  0  0  0  1  0  0  0  0  0  0
  185.5070  178.8260  143.2940 N   0  0  0  0  0  0  0  0  0  0  0  0
  189.6230  176.7680  136.9230 C   0  0  1  0  0  3  0  0  0  0  0  0
  185.1980  177.5020  134.9730 C   0  0  0  0  0  2  0  0  0  0  0  0
  182.8040  177.4840  134.8770 O   0  0  0  0  0  1  0  0  0  0  0  0
  183.9410  176.7260  134.5940 C   0  0  0  0  0  2  0  0  0  0  0  0
  1  5  1  0  0  0  0
  2 10  1  0  0  0  0
  3 18  1  0  0  0  0
  3 14  1  0  0  0  0
  4  1  1  0  0  0  0
  5 17  1  0  0  0  0
  6 13  1  0  0  0  0
  7 27  1  0  0  0  0
  8 23  1  0  0  0  0
  9 18  1  0  0  0  0
 10  8  2  0  0  0  0
 11 20  1  0  0  0  0
 12  2  1  0  0  0  0
 13  4  1  0  0  0  0
 13 15  1  0  0  0  0
 14 10  1  0  0  0  0
 14  7  2  0  0  0  0
 15 21  1  0  0  0  0
 16  3  1  0  0  0  0
 17 20  1  0  0  0  0
 17  9  1  0  0  0  0
 18 19  1  0  0  0  0
 19  7  1  0  0  0  0
 20 25  2  0  0  0  0
 21 16  1  0  0  0  0
 21 12  1  0  0  0  0
 22 11  1  0  0  0  0
 24 11  1  0  0  0  0
 26  4  1  0  0  0  0
 27 23  2  0  0  0  0
 28  1  1  0  0  0  0
 28 22  1  0  0  0  0
 28  5  1  0  0  0  0
 29 13  1  0  0  0  0
 31 30  1  0  0  0  0
 31 29  1  0  0  0  0
M  END
>  <MODEL>
5

>  <REMARK>
 VINA RESULT:      -7.0      4.240      7.687
  Name = 
  2 active torsions:
  status: ('A' for Active; 'I' for Inactive)
    1  A    between atoms: C_14  and  C_24
    2  A    between atoms: C_19  and  C_24
                            x       y       z     vdW  Elec       q    Type
                         _______ _______ _______ _____ _____    ______ ____

>  <TORSDO>
F 2

$$$$
=
 OpenBabel11042410483D

 31 36  0  0  1  0  0  0  0  0999 V2000
  187.9020  177.5610  140.6030 N   0  0  2  0  0  0  0  0  0  0  0  0
  182.9950  178.2540  137.7310 O   0  0  0  0  0  0  0  0  0  0  0  0
  184.4890  178.7030  140.2490 C   0  0  1  0  0  3  0  0  0  0  0  0
  188.3080  178.1900  139.3230 C   0  0  2  0  0  3  0  0  0  0  0  0
  187.9850  178.5940  141.6580 C   0  0  1  0  0  3  0  0  0  0  0  0
  188.7060  176.1350  138.1720 O   0  0  0  0  0  1  0  0  0  0  0  0
  182.5910  178.7880  141.3560 C   0  0  0  0  0  0  0  0  0  0  0  0
  181.0160  178.5540  139.1090 C   0  0  0  0  0  3  0  0  0  0  0  0
  185.6390  177.8780  142.1950 N   0  0  0  0  0  2  0  0  0  0  0  0
  182.4110  178.4840  138.9770 C   0  0  0  0  0  0  0  0  0  0  0  0
  188.4100  176.7330  143.9540 C   0  0  1  0  0  3  0  0  0  0  0  0
  184.1020  177.3700  137.5950 C   0  0  0  0  0  2  0  0  0  0  0  0
  187.9250  177.2950  138.1240 C   0  0  1  0  0  0  0  0  0  0  0  0
  183.1810  178.6140  140.1340 C   0  0  0  0  0  0  0  0  0  0  0  0
  186.4460  176.8720  138.1920 C   0  0  0  0  0  2  0  0  0  0  0  0
  185.3920  178.8550  139.1530 N   0  0  0  0  0  2  0  0  0  0  0  0
  186.8700  178.4500  142.7260 C   0  0  1  0  0  3  0  0  0  0  0  0
  184.8440  178.9800  141.6750 C   0  0  2  0  0  3  0  0  0  0  0  0
  183.4800  178.9880  142.3170 C   0  0  0  0  0  2  0  0  0  0  0  0
  187.2940  177.7330  143.9770 C   0  0  0  0  0  0  0  0  0  0  0  0
  185.4450  178.0040  137.9650 C   0  0  2  0  0  3  0  0  0  0  0  0
  188.7250  176.3060  142.5260 C   0  0  0  0  0  2  0  0  0  0  0  0
  180.4460  178.7230  140.3880 C   0  0  0  0  0  3  0  0  0  0  0  0
  189.6460  177.2930  144.6390 C   0  0  0  0  0  1  0  0  0  0  0  0
  186.7070  177.9560  145.0230 O   0  0  0  0  0  0  0  0  0  0  0  0
  189.7840  178.6320  139.2340 C   0  0  0  0  0  1  0  0  0  0  0  0
  181.2420  178.8350  141.4940 N   0  0  0  0  0  0  0  0  0  0  0  0
  188.9860  177.4990  141.6050 C   0  0  1  0  0  3  0  0  0  0  0  0
  188.2040  178.0430  136.8070 C   0  0  0  0  0  2  0  0  0  0  0  0
  188.6220  177.2180  134.5970 O   0  0  0  0  0  1  0  0  0  0  0  0
  189.1630  177.3030  135.8800 C   0  0  0  0  0  2  0  0  0  0  0  0
  1 28  1  0  0  0  0
  1  5  1  0  0  0  0
  2 10  1  0  0  0  0
  3 18  1  0  0  0  0
  4  1  1  0  0  0  0
  5 17  1  0  0  0  0
  7 27  1  0  0  0  0
  7 19  1  0  0  0  0
  8 23  1  0  0  0  0
  9 17  1  0  0  0  0
 10  8  2  0  0  0  0
 10 14  1  0  0  0  0
 11 20  1  0  0  0  0
 11 24  1  0  0  0  0
 12  2  1  0  0  0  0
 12 21  1  0  0  0  0
 13  6  1  0  0  0  0
 13 15  1  0  0  0  0
 13  4  1  0  0  0  0
 14  3  1  0  0  0  0
 14  7  2  0  0  0  0
 16  3  1  0  0  0  0
 17 20  1  0  0  0  0
 18  9  1  0  0  0  0
 18 19  1  0  0  0  0
 20 25  2  0  0  0  0
 21 15  1  0  0  0  0
 21 16  1  0  0  0  0
 22 11  1  0  0  0  0
 23 27  2  0  0  0  0
 26  4  1  0  0  0  0
 28  5  1  0  0  0  0
 28 22  1  0  0  0  0
 29 13  1  0  0  0  0
 30 31  1  0  0  0  0
 31 29  1  0  0  0  0
M  END
>  <MODEL>
6

>  <REMARK>
 VINA RESULT:      -7.0      3.366      7.043
  Name = 
  2 active torsions:
  status: ('A' for Active; 'I' for Inactive)
    1  A    between atoms: C_14  and  C_24
    2  A    between atoms: C_19  and  C_24
                            x       y       z     vdW  Elec       q    Type
                         _______ _______ _______ _____ _____    ______ ____

>  <TORSDO>
F 2

$$$$
=
 OpenBabel11042410483D

 31 36  0  0  1  0  0  0  0  0999 V2000
  185.8920  178.5380  139.6720 N   0  0  2  0  0  0  0  0  0  0  0  0
  188.7740  177.8620  144.5760 O   0  0  0  0  0  0  0  0  0  0  0  0
  186.1400  177.8830  143.2200 C   0  0  1  0  0  3  0  0  0  0  0  0
  186.9340  177.5320  139.3530 C   0  0  2  0  0  3  0  0  0  0  0  0
  184.5990  177.8280  139.7800 C   0  0  1  0  0  3  0  0  0  0  0  0
  188.5590  179.1150  138.6030 O   0  0  0  0  0  1  0  0  0  0  0  0
  185.1680  178.3930  145.1250 C   0  0  0  0  0  0  0  0  0  0  0  0
  187.4880  178.2530  146.6010 C   0  0  0  0  0  3  0  0  0  0  0  0
  184.4140  179.0150  141.9840 N   0  0  0  0  0  2  0  0  0  0  0  0
  187.5490  178.0690  145.2110 C   0  0  0  0  0  0  0  0  0  0  0  0
  182.8520  180.1500  139.0940 C   0  0  1  0  0  3  0  0  0  0  0  0
  189.0700  178.4950  143.3360 C   0  0  0  0  0  2  0  0  0  0  0  0
  188.3470  178.1200  139.5630 C   0  0  1  0  0  0  0  0  0  0  0  0
  186.3540  178.1380  144.4940 C   0  0  0  0  0  0  0  0  0  0  0  0
  188.4840  178.7680  140.9530 C   0  0  0  0  0  2  0  0  0  0  0  0
  187.1010  177.3040  142.3360 N   0  0  0  0  0  2  0  0  0  0  0  0
  183.6770  178.4250  140.8740 C   0  0  1  0  0  3  0  0  0  0  0  0
  184.6730  177.9490  142.9410 C   0  0  2  0  0  3  0  0  0  0  0  0
  184.1360  178.3250  144.2990 C   0  0  0  0  0  2  0  0  0  0  0  0
  182.6350  179.3780  140.3590 C   0  0  0  0  0  0  0  0  0  0  0  0
  188.4650  177.7860  142.1230 C   0  0  2  0  0  3  0  0  0  0  0  0
  184.3200  180.1230  138.6880 C   0  0  0  0  0  2  0  0  0  0  0  0
  186.2480  178.5250  147.2130 C   0  0  0  0  0  3  0  0  0  0  0  0
  181.9700  179.6120  137.9790 C   0  0  0  0  0  1  0  0  0  0  0  0
  181.6050  179.5380  140.9930 O   0  0  0  0  0  0  0  0  0  0  0  0
  186.8130  176.8610  137.9690 C   0  0  0  0  0  1  0  0  0  0  0  0
  185.1050  178.5940  146.4660 N   0  0  0  0  0  0  0  0  0  0  0  0
  184.8770  178.7000  138.6110 C   0  0  1  0  0  3  0  0  0  0  0  0
  189.4010  177.0110  139.3880 C   0  0  0  0  0  2  0  0  0  0  0  0
  191.6030  177.3990  140.2500 O   0  0  0  0  0  1  0  0  0  0  0  0
  190.8050  177.5440  139.1150 C   0  0  0  0  0  2  0  0  0  0  0  0
  1  5  1  0  0  0  0
  2 10  1  0  0  0  0
  3 14  1  0  0  0  0
  4 13  1  0  0  0  0
  4  1  1  0  0  0  0
  5 17  1  0  0  0  0
  6 13  1  0  0  0  0
  7 27  1  0  0  0  0
  8 23  1  0  0  0  0
  9 18  1  0  0  0  0
 10  8  2  0  0  0  0
 11 20  1  0  0  0  0
 12  2  1  0  0  0  0
 13 15  1  0  0  0  0
 14  7  2  0  0  0  0
 14 10  1  0  0  0  0
 15 21  1  0  0  0  0
 16  3  1  0  0  0  0
 17  9  1  0  0  0  0
 18  3  1  0  0  0  0
 18 19  1  0  0  0  0
 19  7  1  0  0  0  0
 20 17  1  0  0  0  0
 20 25  2  0  0  0  0
 21 16  1  0  0  0  0
 21 12  1  0  0  0  0
 22 11  1  0  0  0  0
 24 11  1  0  0  0  0
 26  4  1  0  0  0  0
 27 23  2  0  0  0  0
 28 22  1  0  0  0  0
 28  1  1  0  0  0  0
 28  5  1  0  0  0  0
 29 13  1  0  0  0  0
 31 29  1  0  0  0  0
 31 30  1  0  0  0  0
M  END
>  <MODEL>
7

>  <REMARK>
 VINA RESULT:      -6.8      3.035      6.036
  Name = 
  2 active torsions:
  status: ('A' for Active; 'I' for Inactive)
    1  A    between atoms: C_14  and  C_24
    2  A    between atoms: C_19  and  C_24
                            x       y       z     vdW  Elec       q    Type
                         _______ _______ _______ _____ _____    ______ ____

>  <TORSDO>
F 2

$$$$
=
 OpenBabel11042410483D

 31 36  0  0  1  0  0  0  0  0999 V2000
  189.3460  177.5750  144.0460 N   0  0  2  0  0  0  0  0  0  0  0  0
  187.3640  178.0390  138.6920 O   0  0  0  0  0  0  0  0  0  0  0  0
  186.9360  178.6280  141.5640 C   0  0  1  0  0  3  0  0  0  0  0  0
  190.4760  178.1580  143.2830 C   0  0  2  0  0  3  0  0  0  0  0  0
  188.7540  178.6540  144.8670 C   0  0  1  0  0  3  0  0  0  0  0  0
  191.4900  176.0640  142.7390 O   0  0  0  0  0  1  0  0  0  0  0  0
  184.7660  178.7190  141.2180 C   0  0  0  0  0  0  0  0  0  0  0  0
  184.9620  178.3550  138.4950 C   0  0  0  0  0  3  0  0  0  0  0  0
  186.5890  177.9110  143.8350 N   0  0  0  0  0  2  0  0  0  0  0  0
  186.1270  178.3100  139.2770 C   0  0  0  0  0  0  0  0  0  0  0  0
  187.6130  176.9020  146.9990 C   0  0  1  0  0  3  0  0  0  0  0  0
  188.2990  177.1740  139.3280 C   0  0  0  0  0  2  0  0  0  0  0  0
  190.9270  177.2030  142.1550 C   0  0  1  0  0  0  0  0  0  0  0  0
  185.9940  178.5060  140.6520 C   0  0  0  0  0  0  0  0  0  0  0  0
  189.7330  176.7520  141.2930 C   0  0  0  0  0  2  0  0  0  0  0  0
  188.3300  178.7510  141.2790 N   0  0  0  0  0  2  0  0  0  0  0  0
  187.2130  178.5310  144.9960 C   0  0  1  0  0  3  0  0  0  0  0  0
  186.3130  178.9730  142.8790 C   0  0  2  0  0  3  0  0  0  0  0  0
  184.8500  178.9790  142.5140 C   0  0  0  0  0  2  0  0  0  0  0  0
  186.7450  177.8780  146.2660 C   0  0  0  0  0  0  0  0  0  0  0  0
  189.1120  177.8520  140.4320 C   0  0  2  0  0  3  0  0  0  0  0  0
  188.7550  176.4210  146.1130 C   0  0  0  0  0  2  0  0  0  0  0  0
  183.7150  178.5660  139.1170 C   0  0  0  0  0  3  0  0  0  0  0  0
  188.1440  177.5170  148.2840 C   0  0  0  0  0  1  0  0  0  0  0  0
  185.6310  178.1330  146.6940 O   0  0  0  0  0  0  0  0  0  0  0  0
  191.6800  178.6260  144.1260 C   0  0  0  0  0  1  0  0  0  0  0  0
  183.6340  178.7430  140.4700 N   0  0  0  0  0  0  0  0  0  0  0  0
  189.5520  177.5800  145.5090 C   0  0  1  0  0  3  0  0  0  0  0  0
  191.9830  177.9000  141.2770 C   0  0  0  0  0  2  0  0  0  0  0  0
  193.7530  177.1570  139.8440 O   0  0  0  0  0  1  0  0  0  0  0  0
  192.3730  177.0960  140.0420 C   0  0  0  0  0  2  0  0  0  0  0  0
  1  5  1  0  0  0  0
  1 28  1  0  0  0  0
  2 10  1  0  0  0  0
  2 12  1  0  0  0  0
  3 18  1  0  0  0  0
  4  1  1  0  0  0  0
  4 26  1  0  0  0  0
  5 17  1  0  0  0  0
  5 28  1  0  0  0  0
  7 19  1  0  0  0  0
  8 23  2  0  0  0  0
  8 10  1  0  0  0  0
  9 17  1  0  0  0  0
 10 14  2  0  0  0  0
 11 24  1  0  0  0  0
 12 21  1  0  0  0  0
 13  6  1  0  0  0  0
 13  4  1  0  0  0  0
 14  7  1  0  0  0  0
 14  3  1  0  0  0  0
 15 13  1  0  0  0  0
 16  3  1  0  0  0  0
 17 20  1  0  0  0  0
 18  9  1  0  0  0  0
 19 18  1  0  0  0  0
 20 25  2  0  0  0  0
 20 11  1  0  0  0  0
 21 16  1  0  0  0  0
 21 15  1  0  0  0  0
 22 11  1  0  0  0  0
 23 27  1  0  0  0  0
 27  7  2  0  0  0  0
 28 22  1  0  0  0  0
 29 13  1  0  0  0  0
 30 31  1  0  0  0  0
 31 29  1  0  0  0  0
M  END
>  <MODEL>
8

>  <REMARK>
 VINA RESULT:      -6.7      2.197      5.604
  Name = 
  2 active torsions:
  status: ('A' for Active; 'I' for Inactive)
    1  A    between atoms: C_14  and  C_24
    2  A    between atoms: C_19  and  C_24
                            x       y       z     vdW  Elec       q    Type
                         _______ _______ _______ _____ _____    ______ ____

>  <TORSDO>
F 2

$$$$
=
 OpenBabel11042410483D

 31 36  0  0  1  0  0  0  0  0999 V2000
  186.2620  178.5370  145.4410 N   0  0  2  0  0  0  0  0  0  0  0  0
  187.4430  178.2820  139.8410 O   0  0  0  0  0  0  0  0  0  0  0  0
  188.1200  177.3550  142.5720 C   0  0  1  0  0  3  0  0  0  0  0  0
  184.9610  178.2230  144.8020 C   0  0  2  0  0  3  0  0  0  0  0  0
  186.7560  177.3010  146.0870 C   0  0  1  0  0  3  0  0  0  0  0  0
  184.2670  180.4970  144.5640 O   0  0  0  0  0  1  0  0  0  0  0  0
  190.1800  176.9460  141.9190 C   0  0  0  0  0  0  0  0  0  0  0  0
  189.7090  177.6010  139.2860 C   0  0  0  0  0  3  0  0  0  0  0  0
  188.8690  177.7800  144.8190 N   0  0  0  0  0  2  0  0  0  0  0  0
  188.6780  177.7580  140.2250 C   0  0  0  0  0  0  0  0  0  0  0  0
  188.4430  178.6280  148.1630 C   0  0  1  0  0  3  0  0  0  0  0  0
  186.7610  179.2220  140.6650 C   0  0  0  0  0  2  0  0  0  0  0  0
  184.5450  179.3430  143.8230 C   0  0  1  0  0  0  0  0  0  0  0  0
  188.9470  177.4100  141.5490 C   0  0  0  0  0  0  0  0  0  0  0  0
  185.6810  179.6760  142.8380 C   0  0  0  0  0  2  0  0  0  0  0  0
  186.7010  177.4870  142.4770 N   0  0  0  0  0  2  0  0  0  0  0  0
  188.2980  177.1590  146.0070 C   0  0  1  0  0  3  0  0  0  0  0  0
  188.8340  176.7860  143.7570 C   0  0  2  0  0  3  0  0  0  0  0  0
  190.2160  176.5780  143.1910 C   0  0  0  0  0  2  0  0  0  0  0  0
  189.0290  177.6010  147.2440 C   0  0  0  0  0  0  0  0  0  0  0  0
  185.9880  178.5800  141.8190 C   0  0  2  0  0  3  0  0  0  0  0  0
  187.3000  179.3720  147.4840 C   0  0  0  0  0  2  0  0  0  0  0  0
  190.9690  177.1300  139.7090 C   0  0  0  0  0  3  0  0  0  0  0  0
  187.9790  177.9850  149.4600 C   0  0  0  0  0  1  0  0  0  0  0  0
  190.1260  177.1270  147.4910 O   0  0  0  0  0  0  0  0  0  0  0  0
  183.8090  177.8760  145.7680 C   0  0  0  0  0  1  0  0  0  0  0  0
  191.1880  176.8120  141.0200 N   0  0  0  0  0  0  0  0  0  0  0  0
  186.2440  178.4230  146.9130 C   0  0  1  0  0  3  0  0  0  0  0  0
  183.2820  178.9160  143.0530 C   0  0  0  0  0  2  0  0  0  0  0  0
  181.0670  178.6290  143.9220 O   0  0  0  0  0  1  0  0  0  0  0  0
  182.0080  179.5910  143.5530 C   0  0  0  0  0  2  0  0  0  0  0  0
  1  5  1  0  0  0  0
  1 28  1  0  0  0  0
  2 10  1  0  0  0  0
  2 12  1  0  0  0  0
  3 18  1  0  0  0  0
  4  1  1  0  0  0  0
  4 26  1  0  0  0  0
  5 28  1  0  0  0  0
  7 19  1  0  0  0  0
  8 23  2  0  0  0  0
  8 10  1  0  0  0  0
  9 17  1  0  0  0  0
 10 14  2  0  0  0  0
 11 24  1  0  0  0  0
 12 21  1  0  0  0  0
 13  6  1  0  0  0  0
 13  4  1  0  0  0  0
 14  7  1  0  0  0  0
 14  3  1  0  0  0  0
 15 13  1  0  0  0  0
 16  3  1  0  0  0  0
 17  5  1  0  0  0  0
 17 20  1  0  0  0  0
 18  9  1  0  0  0  0
 19 18  1  0  0  0  0
 20 25  2  0  0  0  0
 20 11  1  0  0  0  0
 21 16  1  0  0  0  0
 21 15  1  0  0  0  0
 22 11  1  0  0  0  0
 23 27  1  0  0  0  0
 27  7  2  0  0  0  0
 28 22  1  0  0  0  0
 29 31  1  0  0  0  0
 29 13  1  0  0  0  0
 31 30  1  0  0  0  0
M  END
>  <MODEL>
9

>  <REMARK>
 VINA RESULT:      -6.5      2.012      7.278
  Name = 
  2 active torsions:
  status: ('A' for Active; 'I' for Inactive)
    1  A    between atoms: C_14  and  C_24
    2  A    between atoms: C_19  and  C_24
                            x       y       z     vdW  Elec       q    Type
                         _______ _______ _______ _____ _____    ______ ____

>  <TORSDO>
F 2

$$$$
