=
 OpenBabel11032421143D

 50 55  0  0  1  0  0  0  0  0999 V2000
  188.9880  177.4900  140.4460 C   0  0  0  0  0  0  0  0  0  0  0  0
  190.3050  175.7450  137.5720 N   0  0  0  0  0  0  0  0  0  0  0  0
  188.3190  177.8410  139.3610 C   0  0  0  0  0  3  0  0  0  0  0  0
  189.2700  175.7500  136.7990 C   0  0  0  0  0  0  0  0  0  0  0  0
  187.2910  174.8440  136.7840 C   0  0  1  0  0  3  0  0  0  0  0  0
  188.5330  174.5590  136.5580 N   0  0  0  0  0  2  0  0  0  0  0  0
  187.0970  176.2440  137.1940 C   0  0  0  0  0  0  0  0  0  0  0  0
  184.8050  177.4790  137.0980 C   0  0  0  0  0  3  0  0  0  0  0  0
  185.9500  176.8640  137.1440 C   0  0  0  0  0  0  0  0  0  0  0  0
  190.5490  176.6600  140.1080 S   0  0  0  0  0  0  0  0  0  0  0  0
  188.4020  176.9360  136.9780 C   0  0  1  0  0  3  0  0  0  0  0  0
  190.3310  176.9900  138.3250 C   0  0  2  0  0  3  0  0  0  0  0  0
  189.0020  177.5530  138.1500 N   0  0  0  0  0  0  0  0  0  0  0  0
  185.5580  173.6900  135.3710 O   0  0  0  0  0  1  0  0  0  0  0  0
  185.4270  173.5450  137.6910 O   0  0  0  0  0  0  0  0  0  0  0  0
  186.2070  173.8300  136.5990 C   0  0  0  0  0  0  0  0  0  0  0  0
  186.3600  172.6560  137.2940 O   0  0  0  0  0  0  0  0  0  0  0  0
  189.1240  177.1300  142.9140 C   0  0  0  0  0  0  0  0  0  0  0  0
  188.5200  177.7740  141.7810 N   0  0  0  0  0  0  0  0  0  0  0  0
  189.3270  175.8860  142.9010 O   0  0  0  0  0  0  0  0  0  0  0  0
  187.3520  178.6330  141.9960 C   0  0  0  0  0  2  0  0  0  0  0  0
  186.1770  178.4610  144.0770 F   0  0  0  0  0  0  0  0  0  0  0  0
  186.2600  177.9360  142.8050 C   0  0  0  0  0  3  0  0  0  0  0  0
  185.0300  178.0290  142.1770 F   0  0  0  0  0  0  0  0  0  0  0  0
  189.5820  177.9220  144.0890 C   0  0  0  0  0  2  0  0  0  0  0  0
  189.4990  177.8900  146.5100 C   0  0  1  0  0  3  0  0  0  0  0  0
  190.7670  177.1310  146.1220 C   0  0  0  0  0  0  0  0  0  0  0  0
  189.4550  177.0730  145.3390 C   0  0  2  0  0  3  0  0  0  0  0  0
  191.9290  176.8090  146.3010 O   0  0  0  0  0  0  0  0  0  0  0  0
  188.8140  177.1740  147.6600 C   0  0  0  0  0  2  0  0  0  0  0  0
  187.8080  178.0910  148.3350 C   0  0  0  0  0  2  0  0  0  0  0  0
  186.7330  178.3290  147.4780 O   0  0  0  0  0  1  0  0  0  0  0  0
  183.7890  177.2390  138.1560 C   0  0  2  0  0  3  0  0  0  0  0  0
  182.9630  176.0160  137.7780 C   0  0  0  0  0  2  0  0  0  0  0  0
  182.1400  175.5820  138.8940 N   0  0  0  0  0  2  0  0  0  0  0  0
  181.0090  174.8500  138.3400 C   0  0  0  0  0  2  0  0  0  0  0  0
  179.9830  175.5680  140.5240 C   0  0  0  0  0  2  0  0  0  0  0  0
  179.2240  177.6790  138.9360 C   0  0  0  0  0  2  0  0  0  0  0  0
  179.7150  175.2030  139.0660 C   0  0  1  0  0  3  0  0  0  0  0  0
  179.0210  177.7440  140.3980 N   0  0  0  0  0  0  0  0  0  0  0  0
  178.9310  176.4660  141.0100 N   0  0  0  0  0  2  0  0  0  0  0  0
  178.9320  176.2980  138.3400 C   0  0  0  0  0  2  0  0  0  0  0  0
  180.1510  178.4570  140.9830 C   0  0  0  0  0  2  0  0  0  0  0  0
  179.6640  179.4480  142.0300 C   0  0  0  0  0  2  0  0  0  0  0  0
  180.4840  179.3060  143.2990 C   0  0  0  0  0  3  0  0  0  0  0  0
  179.8290  178.2870  144.2110 C   0  0  0  0  0  1  0  0  0  0  0  0
  181.8920  178.8460  142.9690 C   0  0  0  0  0  1  0  0  0  0  0  0
  182.9070  178.4680  138.2900 C   0  0  0  0  0  2  0  0  0  0  0  0
  184.6880  179.6350  139.4490 N   0  0  0  0  0  1  0  0  0  0  0  0
  183.2900  179.2580  139.5280 C   0  0  0  0  0  2  0  0  0  0  0  0
  1 19  1  0  0  0  0
  3  1  2  0  0  0  0
  4  2  2  0  0  0  0
  5 16  1  6  0  0  0
  5  7  1  0  0  0  0
  6  5  1  0  0  0  0
  6  4  1  0  0  0  0
  8  9  2  0  0  0  0
  9  7  2  0  0  0  0
 10  1  1  0  0  0  0
 11  4  1  1  0  0  0
 11  7  1  0  0  0  0
 11 13  1  0  0  0  0
 12  2  1  6  0  0  0
 12 10  1  0  0  0  0
 13 12  1  0  0  0  0
 13  3  1  0  0  0  0
 14 16  1  0  0  0  0
 16 17  1  0  0  0  0
 16 15  1  0  0  0  0
 17 15  1  0  0  0  0
 18 25  1  0  0  0  0
 19 21  1  0  0  0  0
 19 18  1  0  0  0  0
 20 18  2  0  0  0  0
 21 23  1  0  0  0  0
 23 22  1  0  0  0  0
 24 23  1  0  0  0  0
 26 30  1  1  0  0  0
 27 29  2  0  0  0  0
 27 26  1  0  0  0  0
 28 25  1  6  0  0  0
 28 27  1  0  0  0  0
 28 26  1  0  0  0  0
 30 31  1  0  0  0  0
 32 31  1  0  0  0  0
 33  8  1  6  0  0  0
 33 48  1  0  0  0  0
 34 33  1  0  0  0  0
 34 35  1  0  0  0  0
 36 35  1  0  0  0  0
 37 41  1  0  0  0  0
 38 40  1  0  0  0  0
 39 36  1  6  0  0  0
 39 37  1  0  0  0  0
 40 43  1  0  0  0  0
 40 41  1  0  0  0  0
 42 38  1  0  0  0  0
 42 39  1  0  0  0  0
 43 44  1  0  0  0  0
 44 45  1  0  0  0  0
 45 46  1  0  0  0  0
 47 45  1  0  0  0  0
 48 50  1  0  0  0  0
 49 50  1  0  0  0  0
M  END
>  <MODEL>
1

>  <REMARK>
 VINA RESULT:      -7.7      0.000      0.000
  Name = 
  18 active torsions:
  status: ('A' for Active; 'I' for Inactive)
    1  A    between atoms: C_1  and  C_47
    2  A    between atoms: C_3  and  C_47
    3  A    between atoms: C_4  and  C_21
    4  A    between atoms: C_6  and  C_31
    5  A    between atoms: C_6  and  C_35
    6  A    between atoms: C_7  and  C_21
    7  A    between atoms: C_12  and  N_32
    8  A    between atoms: C_17  and  C_30
    9  A    between atoms: C_18  and  C_36
   10  A    between atoms: C_22  and  C_33
   11  A    between atoms: N_23  and  C_25
   12  A    between atoms: C_24  and  C_31
   13  A    between atoms: C_25  and  C_48
   14  A    between atoms: N_26  and  C_30
   15  A    between atoms: N_26  and  C_50
   16  A    between atoms: C_31  and  C_50
   17  A    between atoms: N_32  and  C_33
   18  A    between atoms: C_38  and  C_48
                            x       y       z     vdW  Elec       q    Type
                         _______ _______ _______ _____ _____    ______ ____

>  <TORSDO>
F 18

$$$$
=
 OpenBabel11032421143D

 50 55  0  0  1  0  0  0  0  0999 V2000
  189.0850  177.4400  140.4310 C   0  0  0  0  0  0  0  0  0  0  0  0
  190.9560  175.3600  138.1480 N   0  0  0  0  0  0  0  0  0  0  0  0
  188.6620  177.6360  139.1940 C   0  0  0  0  0  3  0  0  0  0  0  0
  190.1060  175.2480  137.1820 C   0  0  0  0  0  0  0  0  0  0  0  0
  188.1650  174.3140  136.8720 C   0  0  1  0  0  3  0  0  0  0  0  0
  189.4230  174.0240  136.9500 N   0  0  0  0  0  2  0  0  0  0  0  0
  187.9040  175.7510  137.0460 C   0  0  0  0  0  0  0  0  0  0  0  0
  185.6960  176.9250  136.3130 C   0  0  0  0  0  3  0  0  0  0  0  0
  186.7990  176.3400  136.6780 C   0  0  0  0  0  0  0  0  0  0  0  0
  190.6730  176.6000  140.5380 S   0  0  0  0  0  0  0  0  0  0  0  0
  189.2330  176.4330  137.0200 C   0  0  1  0  0  3  0  0  0  0  0  0
  190.8370  176.6930  138.7210 C   0  0  2  0  0  3  0  0  0  0  0  0
  189.5810  177.2060  138.2010 N   0  0  0  0  0  0  0  0  0  0  0  0
  186.3340  172.7620  137.6250 O   0  0  0  0  0  1  0  0  0  0  0  0
  187.4040  172.3700  135.5960 O   0  0  0  0  0  0  0  0  0  0  0  0
  187.1330  173.2670  136.5980 C   0  0  0  0  0  0  0  0  0  0  0  0
  186.5030  173.3500  135.3810 O   0  0  0  0  0  0  0  0  0  0  0  0
  188.4420  177.1650  142.8290 C   0  0  0  0  0  0  0  0  0  0  0  0
  188.3510  177.8860  141.5910 N   0  0  0  0  0  0  0  0  0  0  0  0
  188.3310  175.9100  142.8410 O   0  0  0  0  0  0  0  0  0  0  0  0
  187.4150  179.0110  141.4950 C   0  0  0  0  0  2  0  0  0  0  0  0
  185.7390  178.5530  143.1450 F   0  0  0  0  0  0  0  0  0  0  0  0
  185.9760  178.5950  141.7870 C   0  0  0  0  0  3  0  0  0  0  0  0
  185.0710  179.4460  141.1790 F   0  0  0  0  0  0  0  0  0  0  0  0
  188.7380  177.8730  144.1060 C   0  0  0  0  0  2  0  0  0  0  0  0
  187.5990  178.1300  146.2290 C   0  0  1  0  0  3  0  0  0  0  0  0
  188.8350  177.2780  146.5140 C   0  0  0  0  0  0  0  0  0  0  0  0
  188.0000  177.1830  145.2380 C   0  0  2  0  0  3  0  0  0  0  0  0
  189.7680  176.9330  147.2190 O   0  0  0  0  0  0  0  0  0  0  0  0
  186.4190  177.5840  147.0110 C   0  0  0  0  0  2  0  0  0  0  0  0
  185.1570  178.3660  146.6880 C   0  0  0  0  0  2  0  0  0  0  0  0
  185.4930  179.6040  146.1410 O   0  0  0  0  0  1  0  0  0  0  0  0
  184.4790  176.8070  137.1580 C   0  0  2  0  0  3  0  0  0  0  0  0
  184.6520  177.6810  138.3950 C   0  0  0  0  0  2  0  0  0  0  0  0
  183.3640  178.1270  138.8980 N   0  0  0  0  0  2  0  0  0  0  0  0
  182.6610  178.7590  137.7900 C   0  0  0  0  0  2  0  0  0  0  0  0
  180.8140  177.3370  138.7390 C   0  0  0  0  0  2  0  0  0  0  0  0
  180.2560  179.7200  139.9880 C   0  0  0  0  0  2  0  0  0  0  0  0
  181.1520  178.5790  137.9190 C   0  0  1  0  0  3  0  0  0  0  0  0
  179.5440  178.4910  140.3930 N   0  0  0  0  0  0  0  0  0  0  0  0
  179.5020  177.5040  139.3720 N   0  0  0  0  0  2  0  0  0  0  0  0
  180.4720  179.8310  138.4760 C   0  0  0  0  0  2  0  0  0  0  0  0
  180.2320  177.9270  141.5490 C   0  0  0  0  0  2  0  0  0  0  0  0
  181.3890  178.8250  141.9630 C   0  0  0  0  0  2  0  0  0  0  0  0
  181.2830  179.1610  143.4390 C   0  0  0  0  0  3  0  0  0  0  0  0
  180.1460  178.3700  144.0560 C   0  0  0  0  0  1  0  0  0  0  0  0
  182.5760  178.8130  144.1550 C   0  0  0  0  0  1  0  0  0  0  0  0
  184.2770  175.3520  137.5460 C   0  0  0  0  0  2  0  0  0  0  0  0
  183.1610  173.4630  136.5180 N   0  0  0  0  0  1  0  0  0  0  0  0
  182.9760  174.8290  136.9660 C   0  0  0  0  0  2  0  0  0  0  0  0
  1 10  1  0  0  0  0
  1 19  1  0  0  0  0
  3  1  2  0  0  0  0
  4  2  2  0  0  0  0
  5 16  1  6  0  0  0
  5  6  1  0  0  0  0
  5  7  1  0  0  0  0
  6  4  1  0  0  0  0
  8  9  2  0  0  0  0
  9  7  2  0  0  0  0
 11  7  1  1  0  0  0
 11  4  1  0  0  0  0
 11 13  1  0  0  0  0
 12  2  1  6  0  0  0
 12 10  1  0  0  0  0
 13 12  1  0  0  0  0
 13  3  1  0  0  0  0
 15 16  1  0  0  0  0
 16 14  1  0  0  0  0
 17 15  1  0  0  0  0
 17 16  1  0  0  0  0
 18 20  2  0  0  0  0
 18 25  1  0  0  0  0
 19 18  1  0  0  0  0
 21 19  1  0  0  0  0
 21 23  1  0  0  0  0
 23 22  1  0  0  0  0
 24 23  1  0  0  0  0
 26 27  1  0  0  0  0
 26 30  1  1  0  0  0
 27 29  2  0  0  0  0
 28 25  1  6  0  0  0
 28 26  1  0  0  0  0
 28 27  1  0  0  0  0
 31 30  1  0  0  0  0
 32 31  1  0  0  0  0
 33  8  1  6  0  0  0
 33 48  1  0  0  0  0
 33 34  1  0  0  0  0
 34 35  1  0  0  0  0
 36 35  1  0  0  0  0
 37 41  1  0  0  0  0
 38 40  1  0  0  0  0
 39 36  1  1  0  0  0
 39 42  1  0  0  0  0
 39 37  1  0  0  0  0
 40 43  1  0  0  0  0
 41 40  1  0  0  0  0
 42 38  1  0  0  0  0
 43 44  1  0  0  0  0
 44 45  1  0  0  0  0
 45 46  1  0  0  0  0
 45 47  1  0  0  0  0
 49 50  1  0  0  0  0
 50 48  1  0  0  0  0
M  END
>  <MODEL>
2

>  <REMARK>
 VINA RESULT:      -7.5      1.394      2.248
  Name = 
  18 active torsions:
  status: ('A' for Active; 'I' for Inactive)
    1  A    between atoms: C_1  and  C_47
    2  A    between atoms: C_3  and  C_47
    3  A    between atoms: C_4  and  C_21
    4  A    between atoms: C_6  and  C_31
    5  A    between atoms: C_6  and  C_35
    6  A    between atoms: C_7  and  C_21
    7  A    between atoms: C_12  and  N_32
    8  A    between atoms: C_17  and  C_30
    9  A    between atoms: C_18  and  C_36
   10  A    between atoms: C_22  and  C_33
   11  A    between atoms: N_23  and  C_25
   12  A    between atoms: C_24  and  C_31
   13  A    between atoms: C_25  and  C_48
   14  A    between atoms: N_26  and  C_30
   15  A    between atoms: N_26  and  C_50
   16  A    between atoms: C_31  and  C_50
   17  A    between atoms: N_32  and  C_33
   18  A    between atoms: C_38  and  C_48
                            x       y       z     vdW  Elec       q    Type
                         _______ _______ _______ _____ _____    ______ ____

>  <TORSDO>
F 18

$$$$
=
 OpenBabel11032421143D

 50 55  0  0  1  0  0  0  0  0999 V2000
  188.5380  177.6760  141.3210 C   0  0  0  0  0  0  0  0  0  0  0  0
  191.0380  176.4060  139.0460 N   0  0  0  0  0  0  0  0  0  0  0  0
  188.2840  178.0960  140.0940 C   0  0  0  0  0  3  0  0  0  0  0  0
  190.3750  176.4160  137.9370 C   0  0  0  0  0  0  0  0  0  0  0  0
  188.6740  175.3540  137.0920 C   0  0  1  0  0  3  0  0  0  0  0  0
  189.9350  175.2050  137.3390 N   0  0  0  0  0  2  0  0  0  0  0  0
  188.1680  176.6730  137.5050 C   0  0  0  0  0  0  0  0  0  0  0  0
  185.9440  177.7120  136.6330 C   0  0  0  0  0  3  0  0  0  0  0  0
  187.0550  177.1950  137.0670 C   0  0  0  0  0  0  0  0  0  0  0  0
  190.2020  177.0270  141.5440 S   0  0  0  0  0  0  0  0  0  0  0  0
  189.3630  177.4950  137.8620 C   0  0  1  0  0  3  0  0  0  0  0  0
  190.6270  177.5490  139.8470 C   0  0  2  0  0  3  0  0  0  0  0  0
  189.4010  178.0150  139.2200 N   0  0  0  0  0  0  0  0  0  0  0  0
  186.9630  173.5100  137.1520 O   0  0  0  0  0  1  0  0  0  0  0  0
  188.4570  173.6290  135.3710 O   0  0  0  0  0  0  0  0  0  0  0  0
  187.8720  174.2820  136.4260 C   0  0  0  0  0  0  0  0  0  0  0  0
  187.4890  174.5360  135.1320 O   0  0  0  0  0  0  0  0  0  0  0  0
  187.6760  176.8840  143.5280 C   0  0  0  0  0  0  0  0  0  0  0  0
  187.5740  177.7560  142.3920 N   0  0  0  0  0  0  0  0  0  0  0  0
  187.8720  175.6490  143.3620 O   0  0  0  0  0  0  0  0  0  0  0  0
  186.4140  178.6470  142.2870 C   0  0  0  0  0  2  0  0  0  0  0  0
  184.7260  178.7760  143.9820 F   0  0  0  0  0  0  0  0  0  0  0  0
  185.1560  178.0370  142.9000 C   0  0  0  0  0  3  0  0  0  0  0  0
  184.1390  177.9330  141.9680 F   0  0  0  0  0  0  0  0  0  0  0  0
  187.6240  177.4240  144.9150 C   0  0  0  0  0  2  0  0  0  0  0  0
  189.7700  176.8440  145.8780 C   0  0  1  0  0  3  0  0  0  0  0  0
  189.1400  177.8580  146.8320 C   0  0  0  0  0  0  0  0  0  0  0  0
  189.0060  177.9090  145.3100 C   0  0  2  0  0  3  0  0  0  0  0  0
  188.9190  178.2960  147.9480 O   0  0  0  0  0  0  0  0  0  0  0  0
  191.2500  177.1410  145.7310 C   0  0  0  0  0  2  0  0  0  0  0  0
  192.0370  175.8550  145.5380 C   0  0  0  0  0  2  0  0  0  0  0  0
  191.8900  175.4020  144.2260 O   0  0  0  0  0  1  0  0  0  0  0  0
  184.6450  177.2630  137.1970 C   0  0  2  0  0  3  0  0  0  0  0  0
  184.5040  177.8170  138.6100 C   0  0  0  0  0  2  0  0  0  0  0  0
  183.1040  177.9300  138.9840 N   0  0  0  0  0  2  0  0  0  0  0  0
  182.4110  178.5780  137.8790 C   0  0  0  0  0  2  0  0  0  0  0  0
  180.7470  176.8380  138.6140 C   0  0  0  0  0  2  0  0  0  0  0  0
  179.5150  179.0980  139.5790 C   0  0  0  0  0  2  0  0  0  0  0  0
  180.9690  178.0910  137.7720 C   0  0  1  0  0  3  0  0  0  0  0  0
  179.0030  177.7630  139.9500 N   0  0  0  0  0  0  0  0  0  0  0  0
  179.3370  176.7520  139.0100 N   0  0  0  0  0  2  0  0  0  0  0  0
  179.9670  179.1940  138.1180 C   0  0  0  0  0  2  0  0  0  0  0  0
  179.5760  177.3990  141.2410 C   0  0  0  0  0  2  0  0  0  0  0  0
  180.0900  178.6400  141.9570 C   0  0  0  0  0  2  0  0  0  0  0  0
  180.1960  178.3710  143.4480 C   0  0  0  0  0  3  0  0  0  0  0  0
  181.5520  178.8290  143.9470 C   0  0  0  0  0  1  0  0  0  0  0  0
  179.1110  179.1220  144.1980 C   0  0  0  0  0  1  0  0  0  0  0  0
  184.6000  175.7440  137.2040 C   0  0  0  0  0  2  0  0  0  0  0  0
  182.7560  174.1720  137.2180 N   0  0  0  0  0  1  0  0  0  0  0  0
  183.3680  175.2510  136.4680 C   0  0  0  0  0  2  0  0  0  0  0  0
  1 10  1  0  0  0  0
  1 19  1  0  0  0  0
  3  1  2  0  0  0  0
  4  2  2  0  0  0  0
  5 16  1  6  0  0  0
  5  6  1  0  0  0  0
  5  7  1  0  0  0  0
  6  4  1  0  0  0  0
  8  9  2  0  0  0  0
  9  7  2  0  0  0  0
 11  7  1  1  0  0  0
 11  4  1  0  0  0  0
 11 13  1  0  0  0  0
 12  2  1  6  0  0  0
 12 10  1  0  0  0  0
 13 12  1  0  0  0  0
 13  3  1  0  0  0  0
 15 16  1  0  0  0  0
 16 14  1  0  0  0  0
 17 15  1  0  0  0  0
 17 16  1  0  0  0  0
 18 25  1  0  0  0  0
 19 18  1  0  0  0  0
 20 18  2  0  0  0  0
 21 19  1  0  0  0  0
 21 23  1  0  0  0  0
 23 22  1  0  0  0  0
 24 23  1  0  0  0  0
 26 30  1  6  0  0  0
 26 27  1  0  0  0  0
 27 29  2  0  0  0  0
 28 25  1  1  0  0  0
 28 26  1  0  0  0  0
 28 27  1  0  0  0  0
 31 30  1  0  0  0  0
 32 31  1  0  0  0  0
 33  8  1  1  0  0  0
 33 48  1  0  0  0  0
 33 34  1  0  0  0  0
 34 35  1  0  0  0  0
 36 35  1  0  0  0  0
 37 41  1  0  0  0  0
 38 40  1  0  0  0  0
 39 36  1  1  0  0  0
 39 42  1  0  0  0  0
 39 37  1  0  0  0  0
 40 43  1  0  0  0  0
 41 40  1  0  0  0  0
 42 38  1  0  0  0  0
 43 44  1  0  0  0  0
 44 45  1  0  0  0  0
 45 46  1  0  0  0  0
 45 47  1  0  0  0  0
 50 48  1  0  0  0  0
 50 49  1  0  0  0  0
M  END
>  <MODEL>
3

>  <REMARK>
 VINA RESULT:      -7.4      1.435      2.594
  Name = 
  18 active torsions:
  status: ('A' for Active; 'I' for Inactive)
    1  A    between atoms: C_1  and  C_47
    2  A    between atoms: C_3  and  C_47
    3  A    between atoms: C_4  and  C_21
    4  A    between atoms: C_6  and  C_31
    5  A    between atoms: C_6  and  C_35
    6  A    between atoms: C_7  and  C_21
    7  A    between atoms: C_12  and  N_32
    8  A    between atoms: C_17  and  C_30
    9  A    between atoms: C_18  and  C_36
   10  A    between atoms: C_22  and  C_33
   11  A    between atoms: N_23  and  C_25
   12  A    between atoms: C_24  and  C_31
   13  A    between atoms: C_25  and  C_48
   14  A    between atoms: N_26  and  C_30
   15  A    between atoms: N_26  and  C_50
   16  A    between atoms: C_31  and  C_50
   17  A    between atoms: N_32  and  C_33
   18  A    between atoms: C_38  and  C_48
                            x       y       z     vdW  Elec       q    Type
                         _______ _______ _______ _____ _____    ______ ____

>  <TORSDO>
F 18

$$$$
=
 OpenBabel11032421143D

 50 55  0  0  1  0  0  0  0  0999 V2000
  188.9010  177.5220  140.3850 C   0  0  0  0  0  0  0  0  0  0  0  0
  190.2870  175.6810  137.6050 N   0  0  0  0  0  0  0  0  0  0  0  0
  188.2550  177.8310  139.2740 C   0  0  0  0  0  3  0  0  0  0  0  0
  189.2700  175.6550  136.8100 C   0  0  0  0  0  0  0  0  0  0  0  0
  187.2950  174.7410  136.7830 C   0  0  1  0  0  3  0  0  0  0  0  0
  188.5430  174.4530  136.5960 N   0  0  0  0  0  2  0  0  0  0  0  0
  187.0870  176.1530  137.1390 C   0  0  0  0  0  0  0  0  0  0  0  0
  184.7940  177.3750  136.9480 C   0  0  0  0  0  3  0  0  0  0  0  0
  185.9390  176.7660  137.0420 C   0  0  0  0  0  0  0  0  0  0  0  0
  190.4720  176.6860  140.1120 S   0  0  0  0  0  0  0  0  0  0  0  0
  188.3950  176.8430  136.9270 C   0  0  1  0  0  3  0  0  0  0  0  0
  190.2930  176.9530  138.3140 C   0  0  2  0  0  3  0  0  0  0  0  0
  188.9660  177.5030  138.0900 N   0  0  0  0  0  0  0  0  0  0  0  0
  185.6480  173.0830  137.7160 O   0  0  0  0  0  1  0  0  0  0  0  0
  186.2650  172.9480  135.4750 O   0  0  0  0  0  0  0  0  0  0  0  0
  186.2190  173.7170  136.6110 C   0  0  0  0  0  0  0  0  0  0  0  0
  185.3480  173.9320  135.5710 O   0  0  0  0  0  0  0  0  0  0  0  0
  188.6980  177.0040  142.8210 C   0  0  0  0  0  0  0  0  0  0  0  0
  188.4020  177.8510  141.7000 N   0  0  0  0  0  0  0  0  0  0  0  0
  188.5560  175.7550  142.7250 O   0  0  0  0  0  0  0  0  0  0  0  0
  187.4960  178.9870  141.8910 C   0  0  0  0  0  2  0  0  0  0  0  0
  185.9000  178.0390  143.4060 F   0  0  0  0  0  0  0  0  0  0  0  0
  186.0550  178.5450  142.1320 C   0  0  0  0  0  3  0  0  0  0  0  0
  185.1670  179.5870  141.9300 F   0  0  0  0  0  0  0  0  0  0  0  0
  189.2400  177.5720  144.0860 C   0  0  0  0  0  2  0  0  0  0  0  0
  187.9330  178.1790  146.0340 C   0  0  1  0  0  3  0  0  0  0  0  0
  189.1280  177.3850  146.5590 C   0  0  0  0  0  0  0  0  0  0  0  0
  188.4010  177.0800  145.2500 C   0  0  2  0  0  3  0  0  0  0  0  0
  189.9940  177.1600  147.3870 O   0  0  0  0  0  0  0  0  0  0  0  0
  186.6840  177.7720  146.7930 C   0  0  0  0  0  2  0  0  0  0  0  0
  185.7590  178.9630  146.9780 C   0  0  0  0  0  2  0  0  0  0  0  0
  184.4700  178.6330  146.5590 O   0  0  0  0  0  1  0  0  0  0  0  0
  183.7560  177.1690  137.9910 C   0  0  2  0  0  3  0  0  0  0  0  0
  184.1600  177.9360  139.2450 C   0  0  0  0  0  2  0  0  0  0  0  0
  183.0270  178.6630  139.7940 N   0  0  0  0  0  2  0  0  0  0  0  0
  182.7740  179.7980  138.9150 C   0  0  0  0  0  2  0  0  0  0  0  0
  180.9360  181.5070  138.7270 C   0  0  0  0  0  2  0  0  0  0  0  0
  180.6930  180.2900  136.2750 C   0  0  0  0  0  2  0  0  0  0  0  0
  181.2770  180.0190  138.7190 C   0  0  1  0  0  3  0  0  0  0  0  0
  179.9380  181.5260  136.5630 N   0  0  0  0  0  0  0  0  0  0  0  0
  179.7140  181.7370  137.9490 N   0  0  0  0  0  2  0  0  0  0  0  0
  180.7570  179.3230  137.4610 C   0  0  0  0  0  2  0  0  0  0  0  0
  180.6990  182.6560  136.0420 C   0  0  0  0  0  2  0  0  0  0  0  0
  179.7670  183.8150  135.7200 C   0  0  0  0  0  2  0  0  0  0  0  0
  180.2740  185.0860  136.3760 C   0  0  0  0  0  3  0  0  0  0  0  0
  179.2050  185.6370  137.3000 C   0  0  0  0  0  1  0  0  0  0  0  0
  181.5280  184.8000  137.1820 C   0  0  0  0  0  1  0  0  0  0  0  0
  183.6260  175.6840  138.2830 C   0  0  0  0  0  2  0  0  0  0  0  0
  181.2180  175.7360  138.5560 N   0  0  0  0  0  1  0  0  0  0  0  0
  182.2950  175.1620  137.7730 C   0  0  0  0  0  2  0  0  0  0  0  0
  1 19  1  0  0  0  0
  3  1  2  0  0  0  0
  4  2  2  0  0  0  0
  5 16  1  6  0  0  0
  5  7  1  0  0  0  0
  6  5  1  0  0  0  0
  6  4  1  0  0  0  0
  8  9  2  0  0  0  0
  9  7  2  0  0  0  0
 10  1  1  0  0  0  0
 11  4  1  1  0  0  0
 11  7  1  0  0  0  0
 11 13  1  0  0  0  0
 12  2  1  6  0  0  0
 12 10  1  0  0  0  0
 13 12  1  0  0  0  0
 13  3  1  0  0  0  0
 15 17  1  0  0  0  0
 15 16  1  0  0  0  0
 16 14  1  0  0  0  0
 17 16  1  0  0  0  0
 18 25  1  0  0  0  0
 19 21  1  0  0  0  0
 19 18  1  0  0  0  0
 20 18  2  0  0  0  0
 21 23  1  0  0  0  0
 23 22  1  0  0  0  0
 24 23  1  0  0  0  0
 26 27  1  0  0  0  0
 26 30  1  1  0  0  0
 27 29  2  0  0  0  0
 28 25  1  6  0  0  0
 28 26  1  0  0  0  0
 28 27  1  0  0  0  0
 30 31  1  0  0  0  0
 32 31  1  0  0  0  0
 33  8  1  6  0  0  0
 33 48  1  0  0  0  0
 33 34  1  0  0  0  0
 34 35  1  0  0  0  0
 36 35  1  0  0  0  0
 38 40  1  0  0  0  0
 38 42  1  0  0  0  0
 39 37  1  0  0  0  0
 39 36  1  6  0  0  0
 40 41  1  0  0  0  0
 41 37  1  0  0  0  0
 42 39  1  0  0  0  0
 43 40  1  0  0  0  0
 44 43  1  0  0  0  0
 44 45  1  0  0  0  0
 45 47  1  0  0  0  0
 45 46  1  0  0  0  0
 50 48  1  0  0  0  0
 50 49  1  0  0  0  0
M  END
>  <MODEL>
4

>  <REMARK>
 VINA RESULT:      -7.4      2.666      3.668
  Name = 
  18 active torsions:
  status: ('A' for Active; 'I' for Inactive)
    1  A    between atoms: C_1  and  C_47
    2  A    between atoms: C_3  and  C_47
    3  A    between atoms: C_4  and  C_21
    4  A    between atoms: C_6  and  C_31
    5  A    between atoms: C_6  and  C_35
    6  A    between atoms: C_7  and  C_21
    7  A    between atoms: C_12  and  N_32
    8  A    between atoms: C_17  and  C_30
    9  A    between atoms: C_18  and  C_36
   10  A    between atoms: C_22  and  C_33
   11  A    between atoms: N_23  and  C_25
   12  A    between atoms: C_24  and  C_31
   13  A    between atoms: C_25  and  C_48
   14  A    between atoms: N_26  and  C_30
   15  A    between atoms: N_26  and  C_50
   16  A    between atoms: C_31  and  C_50
   17  A    between atoms: N_32  and  C_33
   18  A    between atoms: C_38  and  C_48
                            x       y       z     vdW  Elec       q    Type
                         _______ _______ _______ _____ _____    ______ ____

>  <TORSDO>
F 18

$$$$
=
 OpenBabel11032421143D

 50 55  0  0  1  0  0  0  0  0999 V2000
  188.8100  177.6510  141.3090 C   0  0  0  0  0  0  0  0  0  0  0  0
  191.2860  176.0280  139.2420 N   0  0  0  0  0  0  0  0  0  0  0  0
  188.6660  178.0330  140.0520 C   0  0  0  0  0  3  0  0  0  0  0  0
  190.6870  176.0480  138.0980 C   0  0  0  0  0  0  0  0  0  0  0  0
  188.9350  175.1180  137.2040 C   0  0  1  0  0  3  0  0  0  0  0  0
  190.1590  174.8570  137.5300 N   0  0  0  0  0  2  0  0  0  0  0  0
  188.5440  176.4990  137.5270 C   0  0  0  0  0  0  0  0  0  0  0  0
  186.4860  177.7080  136.4810 C   0  0  0  0  0  3  0  0  0  0  0  0
  187.5150  177.1060  137.0020 C   0  0  0  0  0  0  0  0  0  0  0  0
  190.3850  176.8540  141.6580 S   0  0  0  0  0  0  0  0  0  0  0  0
  189.7960  177.2160  137.9160 C   0  0  1  0  0  3  0  0  0  0  0  0
  190.9500  177.2460  139.9660 C   0  0  2  0  0  3  0  0  0  0  0  0
  189.8130  177.7970  139.2480 N   0  0  0  0  0  0  0  0  0  0  0  0
  187.0890  173.4090  137.2630 O   0  0  0  0  0  1  0  0  0  0  0  0
  188.6160  173.3850  135.5060 O   0  0  0  0  0  0  0  0  0  0  0  0
  188.0650  174.0980  136.5400 C   0  0  0  0  0  0  0  0  0  0  0  0
  187.7230  174.3580  135.2360 O   0  0  0  0  0  0  0  0  0  0  0  0
  187.6980  177.0040  143.4500 C   0  0  0  0  0  0  0  0  0  0  0  0
  187.8030  177.8810  142.3180 N   0  0  0  0  0  0  0  0  0  0  0  0
  187.7120  175.7540  143.2870 O   0  0  0  0  0  0  0  0  0  0  0  0
  186.8030  178.9390  142.1480 C   0  0  0  0  0  2  0  0  0  0  0  0
  184.8840  177.9970  143.2290 F   0  0  0  0  0  0  0  0  0  0  0  0
  185.3880  178.3830  142.0050 C   0  0  0  0  0  3  0  0  0  0  0  0
  184.5410  179.3050  141.4170 F   0  0  0  0  0  0  0  0  0  0  0  0
  187.6410  177.5480  144.8350 C   0  0  0  0  0  2  0  0  0  0  0  0
  189.7230  176.8220  145.8380 C   0  0  1  0  0  3  0  0  0  0  0  0
  189.1330  177.8560  146.7950 C   0  0  0  0  0  0  0  0  0  0  0  0
  189.0390  177.9400  145.2720 C   0  0  2  0  0  3  0  0  0  0  0  0
  188.9120  178.2890  147.9130 O   0  0  0  0  0  0  0  0  0  0  0  0
  191.2220  177.0300  145.7310 C   0  0  0  0  0  2  0  0  0  0  0  0
  191.9560  176.1620  146.7390 C   0  0  0  0  0  2  0  0  0  0  0  0
  192.3720  174.9780  146.1300 O   0  0  0  0  0  1  0  0  0  0  0  0
  185.1200  177.4180  136.9890 C   0  0  2  0  0  3  0  0  0  0  0  0
  184.9570  178.0650  138.3590 C   0  0  0  0  0  2  0  0  0  0  0  0
  183.6200  177.8370  138.8830 N   0  0  0  0  0  2  0  0  0  0  0  0
  182.7880  178.9510  138.4470 C   0  0  0  0  0  2  0  0  0  0  0  0
  180.2810  179.1640  138.3980 C   0  0  0  0  0  2  0  0  0  0  0  0
  180.8580  179.8580  135.8030 C   0  0  0  0  0  2  0  0  0  0  0  0
  181.4960  178.4550  137.8060 C   0  0  1  0  0  3  0  0  0  0  0  0
  179.4880  180.0340  136.3260 N   0  0  0  0  0  0  0  0  0  0  0  0
  179.1890  179.1760  137.4180 N   0  0  0  0  0  2  0  0  0  0  0  0
  181.5340  178.5700  136.2810 C   0  0  0  0  0  2  0  0  0  0  0  0
  179.3450  181.4150  136.7730 C   0  0  0  0  0  2  0  0  0  0  0  0
  180.4700  182.2700  136.2080 C   0  0  0  0  0  2  0  0  0  0  0  0
  180.7660  183.4250  137.1470 C   0  0  0  0  0  3  0  0  0  0  0  0
  181.1200  184.6560  136.3370 C   0  0  0  0  0  1  0  0  0  0  0  0
  179.5530  183.7290  138.0080 C   0  0  0  0  0  1  0  0  0  0  0  0
  184.9260  175.9140  137.0740 C   0  0  0  0  0  2  0  0  0  0  0  0
  184.1770  175.7700  134.7730 N   0  0  0  0  0  1  0  0  0  0  0  0
  183.8100  175.4740  136.1440 C   0  0  0  0  0  2  0  0  0  0  0  0
  1 10  1  0  0  0  0
  1 19  1  0  0  0  0
  3  1  2  0  0  0  0
  4  2  2  0  0  0  0
  5 16  1  6  0  0  0
  5  7  1  0  0  0  0
  5  6  1  0  0  0  0
  6  4  1  0  0  0  0
  8  9  2  0  0  0  0
  9  7  2  0  0  0  0
 11  7  1  1  0  0  0
 11  4  1  0  0  0  0
 11 13  1  0  0  0  0
 12  2  1  6  0  0  0
 12 10  1  0  0  0  0
 13 12  1  0  0  0  0
 13  3  1  0  0  0  0
 15 16  1  0  0  0  0
 16 14  1  0  0  0  0
 17 15  1  0  0  0  0
 17 16  1  0  0  0  0
 18 25  1  0  0  0  0
 19 18  1  0  0  0  0
 20 18  2  0  0  0  0
 21 19  1  0  0  0  0
 23 21  1  0  0  0  0
 23 22  1  0  0  0  0
 24 23  1  0  0  0  0
 26 30  1  6  0  0  0
 26 27  1  0  0  0  0
 27 29  2  0  0  0  0
 28 25  1  1  0  0  0
 28 26  1  0  0  0  0
 28 27  1  0  0  0  0
 30 31  1  0  0  0  0
 32 31  1  0  0  0  0
 33  8  1  1  0  0  0
 33 48  1  0  0  0  0
 33 34  1  0  0  0  0
 34 35  1  0  0  0  0
 36 35  1  0  0  0  0
 38 42  1  0  0  0  0
 38 40  1  0  0  0  0
 39 37  1  0  0  0  0
 39 36  1  1  0  0  0
 40 43  1  0  0  0  0
 40 41  1  0  0  0  0
 41 37  1  0  0  0  0
 42 39  1  0  0  0  0
 44 43  1  0  0  0  0
 44 45  1  0  0  0  0
 45 47  1  0  0  0  0
 46 45  1  0  0  0  0
 49 50  1  0  0  0  0
 50 48  1  0  0  0  0
M  END
>  <MODEL>
5

>  <REMARK>
 VINA RESULT:      -7.4      2.472      3.711
  Name = 
  18 active torsions:
  status: ('A' for Active; 'I' for Inactive)
    1  A    between atoms: C_1  and  C_47
    2  A    between atoms: C_3  and  C_47
    3  A    between atoms: C_4  and  C_21
    4  A    between atoms: C_6  and  C_31
    5  A    between atoms: C_6  and  C_35
    6  A    between atoms: C_7  and  C_21
    7  A    between atoms: C_12  and  N_32
    8  A    between atoms: C_17  and  C_30
    9  A    between atoms: C_18  and  C_36
   10  A    between atoms: C_22  and  C_33
   11  A    between atoms: N_23  and  C_25
   12  A    between atoms: C_24  and  C_31
   13  A    between atoms: C_25  and  C_48
   14  A    between atoms: N_26  and  C_30
   15  A    between atoms: N_26  and  C_50
   16  A    between atoms: C_31  and  C_50
   17  A    between atoms: N_32  and  C_33
   18  A    between atoms: C_38  and  C_48
                            x       y       z     vdW  Elec       q    Type
                         _______ _______ _______ _____ _____    ______ ____

>  <TORSDO>
F 18

$$$$
=
 OpenBabel11032421143D

 50 55  0  0  1  0  0  0  0  0999 V2000
  188.8190  177.6190  141.0260 C   0  0  0  0  0  0  0  0  0  0  0  0
  191.0520  175.8300  138.8220 N   0  0  0  0  0  0  0  0  0  0  0  0
  188.5650  177.9430  139.7690 C   0  0  0  0  0  3  0  0  0  0  0  0
  190.3480  175.8110  137.7390 C   0  0  0  0  0  0  0  0  0  0  0  0
  188.4980  174.8870  137.0610 C   0  0  1  0  0  3  0  0  0  0  0  0
  189.7420  174.6090  137.2840 N   0  0  0  0  0  2  0  0  0  0  0  0
  188.1720  176.2920  137.3480 C   0  0  0  0  0  0  0  0  0  0  0  0
  186.0520  177.5040  136.4390 C   0  0  0  0  0  3  0  0  0  0  0  0
  187.1110  176.9010  136.8920 C   0  0  0  0  0  0  0  0  0  0  0  0
  190.4020  176.7960  141.2660 S   0  0  0  0  0  0  0  0  0  0  0  0
  189.4700  176.9930  137.5820 C   0  0  1  0  0  3  0  0  0  0  0  0
  190.8140  177.0900  139.5110 C   0  0  2  0  0  3  0  0  0  0  0  0
  189.6260  177.6370  138.8760 N   0  0  0  0  0  0  0  0  0  0  0  0
  186.5550  173.3160  137.3510 O   0  0  0  0  0  1  0  0  0  0  0  0
  188.0210  173.0070  135.5690 O   0  0  0  0  0  0  0  0  0  0  0  0
  187.5470  173.8600  136.5340 C   0  0  0  0  0  0  0  0  0  0  0  0
  187.1800  174.0010  135.2190 O   0  0  0  0  0  0  0  0  0  0  0  0
  187.9180  177.1230  143.3020 C   0  0  0  0  0  0  0  0  0  0  0  0
  187.9170  177.9240  142.1110 N   0  0  0  0  0  0  0  0  0  0  0  0
  187.9090  175.8650  143.2200 O   0  0  0  0  0  0  0  0  0  0  0  0
  186.9120  178.9820  141.9710 C   0  0  0  0  0  2  0  0  0  0  0  0
  185.1450  177.5020  142.6260 F   0  0  0  0  0  0  0  0  0  0  0  0
  185.5210  178.4250  141.6730 C   0  0  0  0  0  3  0  0  0  0  0  0
  184.5780  179.4340  141.5980 F   0  0  0  0  0  0  0  0  0  0  0  0
  188.0000  177.7550  144.6480 C   0  0  0  0  0  2  0  0  0  0  0  0
  186.0610  178.7950  145.6620 C   0  0  1  0  0  3  0  0  0  0  0  0
  186.8050  178.0940  146.7970 C   0  0  0  0  0  0  0  0  0  0  0  0
  186.6870  177.5430  145.3770 C   0  0  2  0  0  3  0  0  0  0  0  0
  187.1910  178.0230  147.9520 O   0  0  0  0  0  0  0  0  0  0  0  0
  184.5670  178.5930  145.8370 C   0  0  0  0  0  2  0  0  0  0  0  0
  183.7960  179.3760  144.7880 C   0  0  0  0  0  2  0  0  0  0  0  0
  182.7060  178.6280  144.3430 O   0  0  0  0  0  1  0  0  0  0  0  0
  184.7340  177.2760  137.0860 C   0  0  2  0  0  3  0  0  0  0  0  0
  184.7630  177.8760  138.4870 C   0  0  0  0  0  2  0  0  0  0  0  0
  183.8310  178.9850  138.5940 N   0  0  0  0  0  2  0  0  0  0  0  0
  182.5900  178.5730  137.9520 C   0  0  0  0  0  2  0  0  0  0  0  0
  180.1710  177.9700  138.3010 C   0  0  0  0  0  2  0  0  0  0  0  0
  181.3620  176.0130  139.8180 C   0  0  0  0  0  2  0  0  0  0  0  0
  181.4730  178.3930  138.9750 C   0  0  1  0  0  3  0  0  0  0  0  0
  179.9120  175.9520  139.5430 N   0  0  0  0  0  0  0  0  0  0  0  0
  179.3430  177.2200  139.2510 N   0  0  0  0  0  2  0  0  0  0  0  0
  181.8730  177.4300  140.0950 C   0  0  0  0  0  2  0  0  0  0  0  0
  179.7040  175.0790  138.3930 C   0  0  0  0  0  2  0  0  0  0  0  0
  181.0080  174.3960  138.0080 C   0  0  0  0  0  2  0  0  0  0  0  0
  180.7510  173.3570  136.9320 C   0  0  0  0  0  3  0  0  0  0  0  0
  181.9460  172.4290  136.8310 C   0  0  0  0  0  1  0  0  0  0  0  0
  179.5160  172.5410  137.2700 C   0  0  0  0  0  1  0  0  0  0  0  0
  184.4540  175.7850  137.1400 C   0  0  0  0  0  2  0  0  0  0  0  0
  182.8860  176.1440  135.3260 N   0  0  0  0  0  1  0  0  0  0  0  0
  183.9640  175.2920  135.7910 C   0  0  0  0  0  2  0  0  0  0  0  0
  1 10  1  0  0  0  0
  1 19  1  0  0  0  0
  3  1  2  0  0  0  0
  4  2  2  0  0  0  0
  5 16  1  6  0  0  0
  5  6  1  0  0  0  0
  5  7  1  0  0  0  0
  6  4  1  0  0  0  0
  8  9  2  0  0  0  0
  9  7  2  0  0  0  0
 11  7  1  1  0  0  0
 11  4  1  0  0  0  0
 11 13  1  0  0  0  0
 12  2  1  6  0  0  0
 12 10  1  0  0  0  0
 13 12  1  0  0  0  0
 13  3  1  0  0  0  0
 15 16  1  0  0  0  0
 16 14  1  0  0  0  0
 17 15  1  0  0  0  0
 17 16  1  0  0  0  0
 18 25  1  0  0  0  0
 19 18  1  0  0  0  0
 20 18  2  0  0  0  0
 21 19  1  0  0  0  0
 23 21  1  0  0  0  0
 23 22  1  0  0  0  0
 24 23  1  0  0  0  0
 26 30  1  1  0  0  0
 26 27  1  0  0  0  0
 27 29  2  0  0  0  0
 28 25  1  6  0  0  0
 28 26  1  0  0  0  0
 28 27  1  0  0  0  0
 31 30  1  0  0  0  0
 32 31  1  0  0  0  0
 33  8  1  1  0  0  0
 33 48  1  0  0  0  0
 33 34  1  0  0  0  0
 34 35  1  0  0  0  0
 36 35  1  0  0  0  0
 37 39  1  0  0  0  0
 37 41  1  0  0  0  0
 38 42  1  0  0  0  0
 39 36  1  6  0  0  0
 39 42  1  0  0  0  0
 40 38  1  0  0  0  0
 41 40  1  0  0  0  0
 43 40  1  0  0  0  0
 44 43  1  0  0  0  0
 45 47  1  0  0  0  0
 45 44  1  0  0  0  0
 46 45  1  0  0  0  0
 49 50  1  0  0  0  0
 50 48  1  0  0  0  0
M  END
>  <MODEL>
6

>  <REMARK>
 VINA RESULT:      -7.3      1.846      3.690
  Name = 
  18 active torsions:
  status: ('A' for Active; 'I' for Inactive)
    1  A    between atoms: C_1  and  C_47
    2  A    between atoms: C_3  and  C_47
    3  A    between atoms: C_4  and  C_21
    4  A    between atoms: C_6  and  C_31
    5  A    between atoms: C_6  and  C_35
    6  A    between atoms: C_7  and  C_21
    7  A    between atoms: C_12  and  N_32
    8  A    between atoms: C_17  and  C_30
    9  A    between atoms: C_18  and  C_36
   10  A    between atoms: C_22  and  C_33
   11  A    between atoms: N_23  and  C_25
   12  A    between atoms: C_24  and  C_31
   13  A    between atoms: C_25  and  C_48
   14  A    between atoms: N_26  and  C_30
   15  A    between atoms: N_26  and  C_50
   16  A    between atoms: C_31  and  C_50
   17  A    between atoms: N_32  and  C_33
   18  A    between atoms: C_38  and  C_48
                            x       y       z     vdW  Elec       q    Type
                         _______ _______ _______ _____ _____    ______ ____

>  <TORSDO>
F 18

$$$$
=
 OpenBabel11032421143D

 50 55  0  0  1  0  0  0  0  0999 V2000
  188.6560  177.5740  140.9250 C   0  0  0  0  0  0  0  0  0  0  0  0
  190.8250  175.7870  138.6570 N   0  0  0  0  0  0  0  0  0  0  0  0
  188.3030  177.8220  139.6750 C   0  0  0  0  0  3  0  0  0  0  0  0
  190.0520  175.6800  137.6270 C   0  0  0  0  0  0  0  0  0  0  0  0
  188.2110  174.6370  137.1220 C   0  0  1  0  0  3  0  0  0  0  0  0
  189.4790  174.4300  137.2720 N   0  0  0  0  0  2  0  0  0  0  0  0
  187.8330  176.0380  137.3660 C   0  0  0  0  0  0  0  0  0  0  0  0
  185.5980  177.1010  136.5500 C   0  0  0  0  0  3  0  0  0  0  0  0
  186.7150  176.5720  136.9560 C   0  0  0  0  0  0  0  0  0  0  0  0
  190.2910  176.8400  141.0930 S   0  0  0  0  0  0  0  0  0  0  0  0
  189.1070  176.8100  137.4770 C   0  0  1  0  0  3  0  0  0  0  0  0
  190.5690  177.0670  139.3020 C   0  0  2  0  0  3  0  0  0  0  0  0
  189.3160  177.5240  138.7260 N   0  0  0  0  0  0  0  0  0  0  0  0
  186.7550  173.4930  135.4170 O   0  0  0  0  0  1  0  0  0  0  0  0
  186.4550  173.0260  137.6780 O   0  0  0  0  0  0  0  0  0  0  0  0
  187.2800  173.5410  136.7100 C   0  0  0  0  0  0  0  0  0  0  0  0
  187.5210  172.3090  137.2670 O   0  0  0  0  0  0  0  0  0  0  0  0
  187.8980  177.1140  143.2610 C   0  0  0  0  0  0  0  0  0  0  0  0
  187.8150  177.8890  142.0550 N   0  0  0  0  0  0  0  0  0  0  0  0
  187.9050  175.8550  143.2050 O   0  0  0  0  0  0  0  0  0  0  0  0
  186.7850  178.9280  141.9520 C   0  0  0  0  0  2  0  0  0  0  0  0
  184.6840  177.8450  142.3420 F   0  0  0  0  0  0  0  0  0  0  0  0
  185.4810  178.3960  141.3610 C   0  0  0  0  0  3  0  0  0  0  0  0
  184.7870  179.3900  140.6950 F   0  0  0  0  0  0  0  0  0  0  0  0
  188.0490  177.7760  144.5860 C   0  0  0  0  0  2  0  0  0  0  0  0
  186.2380  178.6930  145.9090 C   0  0  1  0  0  3  0  0  0  0  0  0
  187.1010  177.8840  146.8780 C   0  0  0  0  0  0  0  0  0  0  0  0
  186.8230  177.4820  145.4300 C   0  0  2  0  0  3  0  0  0  0  0  0
  187.6120  177.6970  147.9680 O   0  0  0  0  0  0  0  0  0  0  0  0
  184.7730  178.4630  146.2270 C   0  0  0  0  0  2  0  0  0  0  0  0
  183.8930  179.0090  145.1150 C   0  0  0  0  0  2  0  0  0  0  0  0
  184.5580  180.0370  144.4460 O   0  0  0  0  0  1  0  0  0  0  0  0
  184.3390  176.8420  137.2970 C   0  0  2  0  0  3  0  0  0  0  0  0
  183.9390  175.3860  137.0960 C   0  0  0  0  0  2  0  0  0  0  0  0
  183.1780  174.8970  138.2340 N   0  0  0  0  0  2  0  0  0  0  0  0
  181.8000  174.7230  137.7910 C   0  0  0  0  0  2  0  0  0  0  0  0
  181.4080  176.1450  139.8310 C   0  0  0  0  0  2  0  0  0  0  0  0
  179.3720  177.0590  138.2260 C   0  0  0  0  0  2  0  0  0  0  0  0
  180.8150  175.0950  138.8950 C   0  0  1  0  0  3  0  0  0  0  0  0
  179.6840  177.7560  139.4910 N   0  0  0  0  0  0  0  0  0  0  0  0
  180.3280  176.9250  140.4460 N   0  0  0  0  0  2  0  0  0  0  0  0
  179.4640  175.5340  138.3300 C   0  0  0  0  0  2  0  0  0  0  0  0
  180.5660  178.8770  139.1870 C   0  0  0  0  0  2  0  0  0  0  0  0
  179.9820  179.7160  138.0600 C   0  0  0  0  0  2  0  0  0  0  0  0
  180.7120  181.0440  137.9700 C   0  0  0  0  0  3  0  0  0  0  0  0
  182.1130  180.8870  138.5270 C   0  0  0  0  0  1  0  0  0  0  0  0
  180.7990  181.5020  136.5250 C   0  0  0  0  0  1  0  0  0  0  0  0
  183.2560  177.7780  136.7890 C   0  0  0  0  0  2  0  0  0  0  0  0
  181.5820  177.1840  135.1400 N   0  0  0  0  0  1  0  0  0  0  0  0
  182.9810  177.5170  135.3200 C   0  0  0  0  0  2  0  0  0  0  0  0
  1 10  1  0  0  0  0
  1 19  1  0  0  0  0
  3  1  2  0  0  0  0
  4  2  2  0  0  0  0
  5 16  1  6  0  0  0
  5  6  1  0  0  0  0
  5  7  1  0  0  0  0
  6  4  1  0  0  0  0
  8  9  2  0  0  0  0
  9  7  2  0  0  0  0
 11  7  1  1  0  0  0
 11  4  1  0  0  0  0
 11 13  1  0  0  0  0
 12  2  1  6  0  0  0
 12 10  1  0  0  0  0
 13 12  1  0  0  0  0
 13  3  1  0  0  0  0
 14 16  1  0  0  0  0
 16 17  1  0  0  0  0
 16 15  1  0  0  0  0
 17 15  1  0  0  0  0
 18 25  1  0  0  0  0
 19 18  1  0  0  0  0
 20 18  2  0  0  0  0
 21 19  1  0  0  0  0
 23 21  1  0  0  0  0
 23 22  1  0  0  0  0
 24 23  1  0  0  0  0
 26 30  1  1  0  0  0
 26 27  1  0  0  0  0
 27 29  2  0  0  0  0
 28 25  1  6  0  0  0
 28 26  1  0  0  0  0
 28 27  1  0  0  0  0
 31 30  1  0  0  0  0
 32 31  1  0  0  0  0
 33  8  1  6  0  0  0
 34 33  1  0  0  0  0
 34 35  1  0  0  0  0
 36 35  1  0  0  0  0
 37 41  1  0  0  0  0
 38 42  1  0  0  0  0
 38 40  1  0  0  0  0
 39 36  1  6  0  0  0
 39 37  1  0  0  0  0
 40 41  1  0  0  0  0
 42 39  1  0  0  0  0
 43 40  1  0  0  0  0
 44 43  1  0  0  0  0
 45 44  1  0  0  0  0
 45 46  1  0  0  0  0
 47 45  1  0  0  0  0
 48 33  1  0  0  0  0
 49 50  1  0  0  0  0
 50 48  1  0  0  0  0
M  END
>  <MODEL>
7

>  <REMARK>
 VINA RESULT:      -7.2      1.873      2.736
  Name = 
  18 active torsions:
  status: ('A' for Active; 'I' for Inactive)
    1  A    between atoms: C_1  and  C_47
    2  A    between atoms: C_3  and  C_47
    3  A    between atoms: C_4  and  C_21
    4  A    between atoms: C_6  and  C_31
    5  A    between atoms: C_6  and  C_35
    6  A    between atoms: C_7  and  C_21
    7  A    between atoms: C_12  and  N_32
    8  A    between atoms: C_17  and  C_30
    9  A    between atoms: C_18  and  C_36
   10  A    between atoms: C_22  and  C_33
   11  A    between atoms: N_23  and  C_25
   12  A    between atoms: C_24  and  C_31
   13  A    between atoms: C_25  and  C_48
   14  A    between atoms: N_26  and  C_30
   15  A    between atoms: N_26  and  C_50
   16  A    between atoms: C_31  and  C_50
   17  A    between atoms: N_32  and  C_33
   18  A    between atoms: C_38  and  C_48
                            x       y       z     vdW  Elec       q    Type
                         _______ _______ _______ _____ _____    ______ ____

>  <TORSDO>
F 18

$$$$
=
 OpenBabel11032421143D

 50 55  0  0  1  0  0  0  0  0999 V2000
  188.9350  177.6010  140.7630 C   0  0  0  0  0  0  0  0  0  0  0  0
  190.7660  175.6570  138.3320 N   0  0  0  0  0  0  0  0  0  0  0  0
  188.4560  177.8290  139.5520 C   0  0  0  0  0  3  0  0  0  0  0  0
  189.8800  175.5550  137.3970 C   0  0  0  0  0  0  0  0  0  0  0  0
  187.9540  174.5790  137.1300 C   0  0  1  0  0  3  0  0  0  0  0  0
  189.2220  174.3210  137.1470 N   0  0  0  0  0  2  0  0  0  0  0  0
  187.6620  176.0010  137.3680 C   0  0  0  0  0  0  0  0  0  0  0  0
  185.3950  177.1360  136.7670 C   0  0  0  0  0  3  0  0  0  0  0  0
  186.5270  176.5710  137.0660 C   0  0  0  0  0  0  0  0  0  0  0  0
  190.5480  176.8020  140.7750 S   0  0  0  0  0  0  0  0  0  0  0  0
  188.9700  176.7200  137.3130 C   0  0  1  0  0  3  0  0  0  0  0  0
  190.6350  176.9650  138.9580 C   0  0  2  0  0  3  0  0  0  0  0  0
  189.3440  177.4600  138.5070 N   0  0  0  0  0  0  0  0  0  0  0  0
  185.9860  173.1700  137.8190 O   0  0  0  0  0  1  0  0  0  0  0  0
  187.3250  172.4780  136.0450 O   0  0  0  0  0  0  0  0  0  0  0  0
  186.9400  173.5130  136.8590 C   0  0  0  0  0  0  0  0  0  0  0  0
  186.4940  173.4250  135.5640 O   0  0  0  0  0  0  0  0  0  0  0  0
  186.8910  178.4810  141.8980 C   0  0  0  0  0  0  0  0  0  0  0  0
  188.2370  177.9840  141.9670 N   0  0  0  0  0  0  0  0  0  0  0  0
  186.5840  179.3640  141.0530 O   0  0  0  0  0  0  0  0  0  0  0  0
  188.9240  177.9810  143.2610 C   0  0  0  0  0  2  0  0  0  0  0  0
  188.5160  175.6200  143.2410 F   0  0  0  0  0  0  0  0  0  0  0  0
  188.6370  176.7170  144.0680 C   0  0  0  0  0  3  0  0  0  0  0  0
  189.6210  176.4870  145.0130 F   0  0  0  0  0  0  0  0  0  0  0  0
  185.8230  177.9180  142.7710 C   0  0  0  0  0  2  0  0  0  0  0  0
  185.4010  178.2530  145.1330 C   0  0  1  0  0  3  0  0  0  0  0  0
  184.1060  178.6300  144.4150 C   0  0  0  0  0  0  0  0  0  0  0  0
  185.5050  178.9130  143.8700 C   0  0  2  0  0  3  0  0  0  0  0  0
  182.8900  178.6770  144.3380 O   0  0  0  0  0  0  0  0  0  0  0  0
  185.6650  179.2430  146.2520 C   0  0  0  0  0  2  0  0  0  0  0  0
  186.6720  178.6770  147.2390 C   0  0  0  0  0  2  0  0  0  0  0  0
  187.0020  177.3690  146.8830 O   0  0  0  0  0  1  0  0  0  0  0  0
  184.2170  176.9540  137.6550 C   0  0  2  0  0  3  0  0  0  0  0  0
  182.9540  177.2950  136.8730 C   0  0  0  0  0  2  0  0  0  0  0  0
  182.1200  176.1180  136.6990 N   0  0  0  0  0  2  0  0  0  0  0  0
  182.5230  175.4810  135.4530 C   0  0  0  0  0  2  0  0  0  0  0  0
  182.4470  173.3700  136.8210 C   0  0  0  0  0  2  0  0  0  0  0  0
  179.7860  173.6020  136.1740 C   0  0  0  0  0  2  0  0  0  0  0  0
  182.1770  173.9950  135.4550 C   0  0  1  0  0  3  0  0  0  0  0  0
  180.2190  172.5960  137.1640 N   0  0  0  0  0  0  0  0  0  0  0  0
  181.5760  172.2050  137.0120 N   0  0  0  0  0  2  0  0  0  0  0  0
  180.7430  173.7420  134.9860 C   0  0  0  0  0  2  0  0  0  0  0  0
  180.0510  173.1670  138.4960 C   0  0  0  0  0  2  0  0  0  0  0  0
  179.3550  174.5170  138.4060 C   0  0  0  0  0  2  0  0  0  0  0  0
  179.3400  175.1840  139.7690 C   0  0  0  0  0  3  0  0  0  0  0  0
  179.5940  174.1440  140.8430 C   0  0  0  0  0  1  0  0  0  0  0  0
  180.4180  176.2510  139.8470 C   0  0  0  0  0  1  0  0  0  0  0  0
  184.3620  177.8540  138.8700 C   0  0  0  0  0  2  0  0  0  0  0  0
  184.1870  180.2660  139.0340 N   0  0  0  0  0  1  0  0  0  0  0  0
  183.4430  179.0550  138.7480 C   0  0  0  0  0  2  0  0  0  0  0  0
  1 10  1  0  0  0  0
  1 19  1  0  0  0  0
  3  1  2  0  0  0  0
  4  2  2  0  0  0  0
  5 16  1  6  0  0  0
  5  6  1  0  0  0  0
  5  7  1  0  0  0  0
  6  4  1  0  0  0  0
  8  9  2  0  0  0  0
  9  7  2  0  0  0  0
 11  7  1  1  0  0  0
 11  4  1  0  0  0  0
 11 13  1  0  0  0  0
 12  2  1  6  0  0  0
 12 10  1  0  0  0  0
 13 12  1  0  0  0  0
 13  3  1  0  0  0  0
 15 16  1  0  0  0  0
 16 14  1  0  0  0  0
 17 15  1  0  0  0  0
 17 16  1  0  0  0  0
 18 19  1  0  0  0  0
 18 25  1  0  0  0  0
 19 21  1  0  0  0  0
 20 18  2  0  0  0  0
 21 23  1  0  0  0  0
 22 23  1  0  0  0  0
 23 24  1  0  0  0  0
 26 30  1  1  0  0  0
 27 26  1  0  0  0  0
 28 25  1  6  0  0  0
 28 27  1  0  0  0  0
 28 26  1  0  0  0  0
 29 27  2  0  0  0  0
 30 31  1  0  0  0  0
 32 31  1  0  0  0  0
 33  8  1  6  0  0  0
 33 48  1  0  0  0  0
 34 33  1  0  0  0  0
 35 34  1  0  0  0  0
 36 35  1  0  0  0  0
 37 41  1  0  0  0  0
 38 40  1  0  0  0  0
 39 36  1  1  0  0  0
 39 37  1  0  0  0  0
 40 43  1  0  0  0  0
 41 40  1  0  0  0  0
 42 39  1  0  0  0  0
 42 38  1  0  0  0  0
 44 43  1  0  0  0  0
 44 45  1  0  0  0  0
 45 47  1  0  0  0  0
 45 46  1  0  0  0  0
 50 48  1  0  0  0  0
 50 49  1  0  0  0  0
M  END
>  <MODEL>
8

>  <REMARK>
 VINA RESULT:      -7.1      2.295      3.668
  Name = 
  18 active torsions:
  status: ('A' for Active; 'I' for Inactive)
    1  A    between atoms: C_1  and  C_47
    2  A    between atoms: C_3  and  C_47
    3  A    between atoms: C_4  and  C_21
    4  A    between atoms: C_6  and  C_31
    5  A    between atoms: C_6  and  C_35
    6  A    between atoms: C_7  and  C_21
    7  A    between atoms: C_12  and  N_32
    8  A    between atoms: C_17  and  C_30
    9  A    between atoms: C_18  and  C_36
   10  A    between atoms: C_22  and  C_33
   11  A    between atoms: N_23  and  C_25
   12  A    between atoms: C_24  and  C_31
   13  A    between atoms: C_25  and  C_48
   14  A    between atoms: N_26  and  C_30
   15  A    between atoms: N_26  and  C_50
   16  A    between atoms: C_31  and  C_50
   17  A    between atoms: N_32  and  C_33
   18  A    between atoms: C_38  and  C_48
                            x       y       z     vdW  Elec       q    Type
                         _______ _______ _______ _____ _____    ______ ____

>  <TORSDO>
F 18

$$$$
=
 OpenBabel11032421143D

 50 55  0  0  1  0  0  0  0  0999 V2000
  188.7330  177.6640  140.6790 C   0  0  0  0  0  0  0  0  0  0  0  0
  190.6130  175.6330  138.3600 N   0  0  0  0  0  0  0  0  0  0  0  0
  188.3170  177.8900  139.4440 C   0  0  0  0  0  3  0  0  0  0  0  0
  189.7680  175.5440  137.3860 C   0  0  0  0  0  0  0  0  0  0  0  0
  187.8280  174.6230  137.0430 C   0  0  1  0  0  3  0  0  0  0  0  0
  189.0850  174.3270  137.1220 N   0  0  0  0  0  2  0  0  0  0  0  0
  187.5690  176.0560  137.2490 C   0  0  0  0  0  0  0  0  0  0  0  0
  185.3680  177.2510  136.5290 C   0  0  0  0  0  3  0  0  0  0  0  0
  186.4670  176.6560  136.8880 C   0  0  0  0  0  0  0  0  0  0  0  0
  190.3180  176.8180  140.7760 S   0  0  0  0  0  0  0  0  0  0  0  0
  188.8990  176.7350  137.2460 C   0  0  1  0  0  3  0  0  0  0  0  0
  190.4930  176.9520  138.9630 C   0  0  2  0  0  3  0  0  0  0  0  0
  189.2410  177.4800  138.4470 N   0  0  0  0  0  0  0  0  0  0  0  0
  186.1380  173.5650  135.5080 O   0  0  0  0  0  1  0  0  0  0  0  0
  186.0450  173.1230  137.7910 O   0  0  0  0  0  0  0  0  0  0  0  0
  186.7950  173.5840  136.7390 C   0  0  0  0  0  0  0  0  0  0  0  0
  187.0180  172.3420  137.2790 O   0  0  0  0  0  0  0  0  0  0  0  0
  186.6400  178.5520  141.7150 C   0  0  0  0  0  0  0  0  0  0  0  0
  187.9920  178.0860  141.8440 N   0  0  0  0  0  0  0  0  0  0  0  0
  186.3420  179.3910  140.8230 O   0  0  0  0  0  0  0  0  0  0  0  0
  188.6410  178.1530  143.1570 C   0  0  0  0  0  2  0  0  0  0  0  0
  189.0510  176.8750  145.1420 F   0  0  0  0  0  0  0  0  0  0  0  0
  188.8220  176.7730  143.7860 C   0  0  0  0  0  3  0  0  0  0  0  0
  187.7240  175.9640  143.5540 F   0  0  0  0  0  0  0  0  0  0  0  0
  185.5580  178.0060  142.5800 C   0  0  0  0  0  2  0  0  0  0  0  0
  185.2800  178.3290  144.9650 C   0  0  1  0  0  3  0  0  0  0  0  0
  183.9260  178.6520  144.3360 C   0  0  0  0  0  0  0  0  0  0  0  0
  185.2730  178.9900  143.6990 C   0  0  2  0  0  3  0  0  0  0  0  0
  182.7070  178.6500  144.3390 O   0  0  0  0  0  0  0  0  0  0  0  0
  185.5770  179.3310  146.0650 C   0  0  0  0  0  2  0  0  0  0  0  0
  186.2860  178.6550  147.2260 C   0  0  0  0  0  2  0  0  0  0  0  0
  186.7350  177.3920  146.8380 O   0  0  0  0  0  1  0  0  0  0  0  0
  184.1450  177.1170  137.3640 C   0  0  2  0  0  3  0  0  0  0  0  0
  184.3600  177.8660  138.6740 C   0  0  0  0  0  2  0  0  0  0  0  0
  183.1890  177.7590  139.5280 N   0  0  0  0  0  2  0  0  0  0  0  0
  182.7430  179.1140  139.8240 C   0  0  0  0  0  2  0  0  0  0  0  0
  180.8490  180.7370  139.4810 C   0  0  0  0  0  2  0  0  0  0  0  0
  180.7020  179.3420  137.1170 C   0  0  0  0  0  2  0  0  0  0  0  0
  181.2440  179.2660  139.5850 C   0  0  1  0  0  3  0  0  0  0  0  0
  179.8970  180.5670  137.3030 N   0  0  0  0  0  0  0  0  0  0  0  0
  179.6370  180.8670  138.6660 N   0  0  0  0  0  2  0  0  0  0  0  0
  180.7750  178.4640  138.3700 C   0  0  0  0  0  2  0  0  0  0  0  0
  180.6290  181.6850  136.7170 C   0  0  0  0  0  2  0  0  0  0  0  0
  179.7520  182.9290  136.6850 C   0  0  0  0  0  2  0  0  0  0  0  0
  180.5790  184.1540  137.0290 C   0  0  0  0  0  3  0  0  0  0  0  0
  181.9150  183.7180  137.5970 C   0  0  0  0  0  1  0  0  0  0  0  0
  180.8170  184.9960  135.7880 C   0  0  0  0  0  1  0  0  0  0  0  0
  183.8720  175.6450  137.6190 C   0  0  0  0  0  2  0  0  0  0  0  0
  182.2480  176.2520  135.9260 N   0  0  0  0  0  1  0  0  0  0  0  0
  182.7860  175.1420  136.6860 C   0  0  0  0  0  2  0  0  0  0  0  0
  1 10  1  0  0  0  0
  1 19  1  0  0  0  0
  3  1  2  0  0  0  0
  4  2  2  0  0  0  0
  5 16  1  6  0  0  0
  5  6  1  0  0  0  0
  5  7  1  0  0  0  0
  6  4  1  0  0  0  0
  8  9  2  0  0  0  0
  9  7  2  0  0  0  0
 11  7  1  1  0  0  0
 11  4  1  0  0  0  0
 11 13  1  0  0  0  0
 12  2  1  6  0  0  0
 12 10  1  0  0  0  0
 13 12  1  0  0  0  0
 13  3  1  0  0  0  0
 14 16  1  0  0  0  0
 16 17  1  0  0  0  0
 16 15  1  0  0  0  0
 17 15  1  0  0  0  0
 18 19  1  0  0  0  0
 18 25  1  0  0  0  0
 19 21  1  0  0  0  0
 20 18  2  0  0  0  0
 21 23  1  0  0  0  0
 23 22  1  0  0  0  0
 24 23  1  0  0  0  0
 26 30  1  1  0  0  0
 27 29  2  0  0  0  0
 27 26  1  0  0  0  0
 28 25  1  6  0  0  0
 28 27  1  0  0  0  0
 28 26  1  0  0  0  0
 30 31  1  0  0  0  0
 32 31  1  0  0  0  0
 33  8  1  6  0  0  0
 33 48  1  0  0  0  0
 33 34  1  0  0  0  0
 34 35  1  0  0  0  0
 35 36  1  0  0  0  0
 37 39  1  0  0  0  0
 38 40  1  0  0  0  0
 38 42  1  0  0  0  0
 39 36  1  6  0  0  0
 40 41  1  0  0  0  0
 41 37  1  0  0  0  0
 42 39  1  0  0  0  0
 43 40  1  0  0  0  0
 44 43  1  0  0  0  0
 44 45  1  0  0  0  0
 45 46  1  0  0  0  0
 47 45  1  0  0  0  0
 49 50  1  0  0  0  0
 50 48  1  0  0  0  0
M  END
>  <MODEL>
9

>  <REMARK>
 VINA RESULT:      -7.0      2.666      4.049
  Name = 
  18 active torsions:
  status: ('A' for Active; 'I' for Inactive)
    1  A    between atoms: C_1  and  C_47
    2  A    between atoms: C_3  and  C_47
    3  A    between atoms: C_4  and  C_21
    4  A    between atoms: C_6  and  C_31
    5  A    between atoms: C_6  and  C_35
    6  A    between atoms: C_7  and  C_21
    7  A    between atoms: C_12  and  N_32
    8  A    between atoms: C_17  and  C_30
    9  A    between atoms: C_18  and  C_36
   10  A    between atoms: C_22  and  C_33
   11  A    between atoms: N_23  and  C_25
   12  A    between atoms: C_24  and  C_31
   13  A    between atoms: C_25  and  C_48
   14  A    between atoms: N_26  and  C_30
   15  A    between atoms: N_26  and  C_50
   16  A    between atoms: C_31  and  C_50
   17  A    between atoms: N_32  and  C_33
   18  A    between atoms: C_38  and  C_48
                            x       y       z     vdW  Elec       q    Type
                         _______ _______ _______ _____ _____    ______ ____

>  <TORSDO>
F 18

$$$$
