=
 OpenBabel11042412013D

 28 31  0  0  1  0  0  0  0  0999 V2000
  190.4350  176.4310  144.9730 O   0  0  0  0  0  0  0  0  0  0  0  0
  186.4080  177.8610  145.3590 C   0  0  2  0  0  3  0  0  0  0  0  0
  188.3670  177.3230  142.0890 C   0  0  0  0  0  1  0  0  0  0  0  0
  186.7320  178.1000  146.8220 C   0  0  0  0  0  0  0  0  0  0  0  0
  189.8370  176.2660  147.6980 O   0  0  0  0  0  1  0  0  0  0  0  0
  187.3700  177.1280  144.6250 O   0  0  0  0  0  0  0  0  0  0  0  0
  189.2900  177.6410  143.2560 C   0  0  0  0  0  0  0  0  0  0  0  0
  188.5630  177.8790  144.5550 C   0  0  2  0  0  3  0  0  0  0  0  0
  189.5630  177.3590  145.5820 C   0  0  1  0  0  3  0  0  0  0  0  0
  191.3460  176.4150  142.8570 O   0  0  0  0  0  1  0  0  0  0  0  0
  190.1120  178.8780  142.9180 C   0  0  0  0  0  1  0  0  0  0  0  0
  188.3030  178.2320  148.7560 C   0  0  0  0  0  1  0  0  0  0  0  0
  185.8560  178.6690  147.5290 O   0  0  0  0  0  0  0  0  0  0  0  0
  190.1570  176.4400  143.5930 C   0  0  1  0  0  3  0  0  0  0  0  0
  187.9800  177.7060  147.4330 N   0  0  0  0  0  0  0  0  0  0  0  0
  188.8750  176.7350  146.7950 C   0  0  2  0  0  3  0  0  0  0  0  0
  185.9480  179.1360  144.6450 C   0  0  0  0  0  2  0  0  0  0  0  0
  183.1550  178.6020  142.3540 C   0  0  0  0  0  0  0  0  0  0  0  0
  178.9310  178.1410  140.9160 N   0  0  0  0  0  1  0  0  0  0  0  0
  182.6180  178.3890  141.1040 C   0  0  0  0  0  3  0  0  0  0  0  0
  180.1430  178.5040  142.9250 N   0  0  0  0  0  0  0  0  0  0  0  0
  180.1770  178.3100  141.5790 C   0  0  0  0  0  0  0  0  0  0  0  0
  181.3000  178.2690  140.8150 N   0  0  0  0  0  0  0  0  0  0  0  0
  184.6400  178.9260  143.9600 C   0  0  0  0  0  0  0  0  0  0  0  0
  181.1090  178.6980  143.8530 C   0  0  0  0  0  3  0  0  0  0  0  0
  182.4640  178.7440  143.6120 C   0  0  0  0  0  0  0  0  0  0  0  0
  183.4090  178.9500  144.5930 C   0  0  0  0  0  3  0  0  0  0  0  0
  184.5050  178.7230  142.5980 C   0  0  0  0  0  3  0  0  0  0  0  0
  2 17  1  6  0  0  0
  2  4  1  0  0  0  0
  3  7  1  0  0  0  0
  4 15  1  0  0  0  0
  4 13  2  0  0  0  0
  6  2  1  0  0  0  0
  7 14  1  0  0  0  0
  7  8  1  0  0  0  0
  8  6  1  6  0  0  0
  8  9  1  0  0  0  0
  9  1  1  6  0  0  0
  9 16  1  0  0  0  0
 11  7  1  0  0  0  0
 14 10  1  6  0  0  0
 14  1  1  0  0  0  0
 15 12  1  0  0  0  0
 16 15  1  0  0  0  0
 16  5  1  1  0  0  0
 18 28  2  0  0  0  0
 18 26  1  0  0  0  0
 19 22  1  0  0  0  0
 20 18  1  0  0  0  0
 21 25  1  0  0  0  0
 22 21  2  0  0  0  0
 23 20  2  0  0  0  0
 23 22  1  0  0  0  0
 24 27  2  0  0  0  0
 24 17  1  0  0  0  0
 26 25  2  0  0  0  0
 26 27  1  0  0  0  0
 28 24  1  0  0  0  0
M  END
>  <MODEL>
1

>  <REMARK>
 VINA RESULT:      -9.0      0.000      0.000
  Name = 
  2 active torsions:
  status: ('A' for Active; 'I' for Inactive)
    1  A    between atoms: C_2  and  C_3
    2  A    between atoms: C_3  and  C_22
                            x       y       z     vdW  Elec       q    Type
                         _______ _______ _______ _____ _____    ______ ____

>  <TORSDO>
F 2

$$$$
=
 OpenBabel11042412013D

 28 31  0  0  1  0  0  0  0  0999 V2000
  190.3920  176.4370  144.9820 O   0  0  0  0  0  0  0  0  0  0  0  0
  186.3770  177.9020  145.3570 C   0  0  2  0  0  3  0  0  0  0  0  0
  188.3480  177.3690  142.0940 C   0  0  0  0  0  1  0  0  0  0  0  0
  186.6960  178.1270  146.8240 C   0  0  0  0  0  0  0  0  0  0  0  0
  189.7780  176.2570  147.7020 O   0  0  0  0  0  1  0  0  0  0  0  0
  187.3360  177.1650  144.6230 O   0  0  0  0  0  0  0  0  0  0  0  0
  189.2680  177.6700  143.2680 C   0  0  0  0  0  0  0  0  0  0  0  0
  188.5370  177.9060  144.5650 C   0  0  2  0  0  3  0  0  0  0  0  0
  189.5260  177.3680  145.5930 C   0  0  1  0  0  3  0  0  0  0  0  0
  191.3150  176.4280  142.8710 O   0  0  0  0  0  1  0  0  0  0  0  0
  190.1040  178.9020  142.9430 C   0  0  0  0  0  1  0  0  0  0  0  0
  188.2580  178.2290  148.7670 C   0  0  0  0  0  1  0  0  0  0  0  0
  185.8210  178.6990  147.5300 O   0  0  0  0  0  0  0  0  0  0  0  0
  190.1220  176.4590  143.6010 C   0  0  1  0  0  3  0  0  0  0  0  0
  187.9360  177.7170  147.4380 N   0  0  0  0  0  0  0  0  0  0  0  0
  188.8260  176.7420  146.7980 C   0  0  2  0  0  3  0  0  0  0  0  0
  185.9330  179.1860  144.6510 C   0  0  0  0  0  2  0  0  0  0  0  0
  182.4580  178.7520  143.6170 C   0  0  0  0  0  0  0  0  0  0  0  0
  178.9310  178.0100  140.9450 N   0  0  0  0  0  1  0  0  0  0  0  0
  181.1050  178.6740  143.8640 C   0  0  0  0  0  3  0  0  0  0  0  0
  181.2960  178.1970  140.8330 N   0  0  0  0  0  0  0  0  0  0  0  0
  180.1730  178.2260  141.6010 C   0  0  0  0  0  0  0  0  0  0  0  0
  180.1410  178.4410  142.9430 N   0  0  0  0  0  0  0  0  0  0  0  0
  184.6310  178.9920  143.9510 C   0  0  0  0  0  0  0  0  0  0  0  0
  182.6100  178.3560  141.1150 C   0  0  0  0  0  2  0  0  0  0  0  0
  183.1460  178.6060  142.3580 C   0  0  0  0  0  0  0  0  0  0  0  0
  184.4950  178.7530  142.5940 C   0  0  0  0  0  3  0  0  0  0  0  0
  183.4030  178.9870  144.5900 C   0  0  0  0  0  2  0  0  0  0  0  0
  2 17  1  6  0  0  0
  2  4  1  0  0  0  0
  3  7  1  0  0  0  0
  4 15  1  0  0  0  0
  4 13  2  0  0  0  0
  6  2  1  0  0  0  0
  7 14  1  0  0  0  0
  7  8  1  0  0  0  0
  8  6  1  6  0  0  0
  8  9  1  0  0  0  0
  9  1  1  6  0  0  0
  9 16  1  0  0  0  0
 11  7  1  0  0  0  0
 14 10  1  6  0  0  0
 14  1  1  0  0  0  0
 15 12  1  0  0  0  0
 16 15  1  0  0  0  0
 16  5  1  1  0  0  0
 18 20  1  0  0  0  0
 18 28  1  0  0  0  0
 19 22  1  0  0  0  0
 21 25  1  0  0  0  0
 21 22  2  0  0  0  0
 22 23  1  0  0  0  0
 23 20  2  0  0  0  0
 24 28  1  0  0  0  0
 24 17  1  0  0  0  0
 25 26  1  0  0  0  0
 26 27  1  0  0  0  0
 26 18  2  0  0  0  0
 27 24  2  0  0  0  0
M  END
>  <MODEL>
2

>  <REMARK>
 VINA RESULT:      -9.0      0.053      1.285
  Name = 
  2 active torsions:
  status: ('A' for Active; 'I' for Inactive)
    1  A    between atoms: C_2  and  C_3
    2  A    between atoms: C_3  and  C_22
                            x       y       z     vdW  Elec       q    Type
                         _______ _______ _______ _____ _____    ______ ____

>  <TORSDO>
F 2

$$$$
=
 OpenBabel11042412013D

 28 31  0  0  1  0  0  0  0  0999 V2000
  189.5830  177.1820  145.9500 O   0  0  0  0  0  0  0  0  0  0  0  0
  187.8620  177.5050  142.0330 C   0  0  2  0  0  3  0  0  0  0  0  0
  191.5920  177.0960  142.8920 C   0  0  0  0  0  1  0  0  0  0  0  0
  186.6100  178.0110  142.7260 C   0  0  0  0  0  0  0  0  0  0  0  0
  186.8170  177.2180  146.3450 O   0  0  0  0  0  1  0  0  0  0  0  0
  188.8630  176.9710  142.8770 O   0  0  0  0  0  0  0  0  0  0  0  0
  190.8290  177.8020  144.0040 C   0  0  0  0  0  0  0  0  0  0  0  0
  189.3660  178.0020  143.7010 C   0  0  2  0  0  3  0  0  0  0  0  0
  188.7360  177.9100  145.0870 C   0  0  1  0  0  3  0  0  0  0  0  0
  191.8820  177.1380  146.0870 O   0  0  0  0  0  1  0  0  0  0  0  0
  191.4680  179.1610  144.2620 C   0  0  0  0  0  1  0  0  0  0  0  0
  185.3490  178.8150  144.7230 C   0  0  0  0  0  1  0  0  0  0  0  0
  185.6600  178.4090  141.9980 O   0  0  0  0  0  0  0  0  0  0  0  0
  190.7790  176.9350  145.2500 C   0  0  1  0  0  3  0  0  0  0  0  0
  186.4610  178.0540  144.1620 N   0  0  0  0  0  0  0  0  0  0  0  0
  187.3420  177.2870  145.0490 C   0  0  2  0  0  3  0  0  0  0  0  0
  188.4080  178.5030  141.0070 C   0  0  0  0  0  2  0  0  0  0  0  0
  190.4480  176.8970  138.4390 C   0  0  0  0  0  0  0  0  0  0  0  0
  191.5140  174.8440  134.5960 N   0  0  0  0  0  1  0  0  0  0  0  0
  191.6480  176.4660  137.9180 C   0  0  0  0  0  3  0  0  0  0  0  0
  189.6160  175.6890  135.7470 N   0  0  0  0  0  0  0  0  0  0  0  0
  190.9610  175.4870  135.7370 C   0  0  0  0  0  0  0  0  0  0  0  0
  191.8210  175.8510  136.7250 N   0  0  0  0  0  0  0  0  0  0  0  0
  188.9770  177.7990  139.8220 C   0  0  0  0  0  0  0  0  0  0  0  0
  188.7750  176.2550  136.6420 C   0  0  0  0  0  2  0  0  0  0  0  0
  189.1340  176.8020  137.8550 C   0  0  0  0  0  0  0  0  0  0  0  0
  188.2380  177.3740  138.7310 C   0  0  0  0  0  3  0  0  0  0  0  0
  190.3230  177.5250  139.6590 C   0  0  0  0  0  2  0  0  0  0  0  0
  2 17  1  1  0  0  0
  2  4  1  0  0  0  0
  2  6  1  0  0  0  0
  3  7  1  0  0  0  0
  4 15  1  0  0  0  0
  7 11  1  0  0  0  0
  7 14  1  0  0  0  0
  8  6  1  6  0  0  0
  8  7  1  0  0  0  0
  8  9  1  0  0  0  0
  9  1  1  1  0  0  0
 13  4  2  0  0  0  0
 14  1  1  0  0  0  0
 14 10  1  1  0  0  0
 15 12  1  0  0  0  0
 15 16  1  0  0  0  0
 16  9  1  0  0  0  0
 16  5  1  1  0  0  0
 18 28  1  0  0  0  0
 19 22  1  0  0  0  0
 20 18  1  0  0  0  0
 21 25  1  0  0  0  0
 22 21  2  0  0  0  0
 22 23  1  0  0  0  0
 23 20  2  0  0  0  0
 24 17  1  0  0  0  0
 25 26  1  0  0  0  0
 26 18  2  0  0  0  0
 26 27  1  0  0  0  0
 27 24  2  0  0  0  0
 28 24  1  0  0  0  0
M  END
>  <MODEL>
3

>  <REMARK>
 VINA RESULT:      -8.8      4.714      6.906
  Name = 
  2 active torsions:
  status: ('A' for Active; 'I' for Inactive)
    1  A    between atoms: C_2  and  C_3
    2  A    between atoms: C_3  and  C_22
                            x       y       z     vdW  Elec       q    Type
                         _______ _______ _______ _____ _____    ______ ____

>  <TORSDO>
F 2

$$$$
=
 OpenBabel11042412013D

 28 31  0  0  1  0  0  0  0  0999 V2000
  189.7800  176.8750  146.0370 O   0  0  0  0  0  0  0  0  0  0  0  0
  186.2450  177.8900  143.8280 C   0  0  2  0  0  3  0  0  0  0  0  0
  189.6720  176.9040  142.3790 C   0  0  0  0  0  1  0  0  0  0  0  0
  185.7110  178.4650  145.1280 C   0  0  0  0  0  0  0  0  0  0  0  0
  187.7720  177.2170  147.9500 O   0  0  0  0  0  1  0  0  0  0  0  0
  187.4350  177.1330  143.9310 O   0  0  0  0  0  0  0  0  0  0  0  0
  189.8030  177.5610  143.7450 C   0  0  0  0  0  0  0  0  0  0  0  0
  188.4850  177.9830  144.3430 C   0  0  2  0  0  3  0  0  0  0  0  0
  188.7390  177.8050  145.8360 C   0  0  1  0  0  3  0  0  0  0  0  0
  191.7090  176.5190  144.8280 O   0  0  0  0  0  1  0  0  0  0  0  0
  190.7030  178.7850  143.6250 C   0  0  0  0  0  1  0  0  0  0  0  0
  185.9540  179.1750  147.5070 C   0  0  0  0  0  1  0  0  0  0  0  0
  184.6030  179.0670  145.0880 O   0  0  0  0  0  0  0  0  0  0  0  0
  190.3120  176.5630  144.7710 C   0  0  1  0  0  3  0  0  0  0  0  0
  186.4040  178.3510  146.3890 N   0  0  0  0  0  0  0  0  0  0  0  0
  187.4810  177.3760  146.5900 C   0  0  2  0  0  3  0  0  0  0  0  0
  186.2850  178.9270  142.7020 C   0  0  0  0  0  2  0  0  0  0  0  0
  184.2910  178.4050  139.6870 C   0  0  0  0  0  0  0  0  0  0  0  0
  180.7370  177.4870  137.1070 N   0  0  0  0  0  1  0  0  0  0  0  0
  184.1160  178.3830  138.3210 C   0  0  0  0  0  3  0  0  0  0  0  0
  181.3430  177.6100  139.4000 N   0  0  0  0  0  0  0  0  0  0  0  0
  181.7240  177.7360  138.1000 C   0  0  0  0  0  0  0  0  0  0  0  0
  182.9660  178.0830  137.6720 N   0  0  0  0  0  0  0  0  0  0  0  0
  185.2540  178.6330  141.6650 C   0  0  0  0  0  0  0  0  0  0  0  0
  182.0000  177.7670  140.5730 C   0  0  0  0  0  3  0  0  0  0  0  0
  183.3220  178.1240  140.7170 C   0  0  0  0  0  0  0  0  0  0  0  0
  183.9440  178.2780  141.9370 C   0  0  0  0  0  3  0  0  0  0  0  0
  185.4820  178.7220  140.3020 C   0  0  0  0  0  3  0  0  0  0  0  0
  2 17  1  6  0  0  0
  2  6  1  0  0  0  0
  2  4  1  0  0  0  0
  3  7  1  0  0  0  0
  4 15  1  0  0  0  0
  7  8  1  0  0  0  0
  7 14  1  0  0  0  0
  8  6  1  6  0  0  0
  8  9  1  0  0  0  0
  9  1  1  6  0  0  0
  9 16  1  0  0  0  0
 11  7  1  0  0  0  0
 13  4  2  0  0  0  0
 14 10  1  1  0  0  0
 14  1  1  0  0  0  0
 15 16  1  0  0  0  0
 15 12  1  0  0  0  0
 16  5  1  1  0  0  0
 18 28  2  0  0  0  0
 18 26  1  0  0  0  0
 19 22  1  0  0  0  0
 20 18  1  0  0  0  0
 21 25  1  0  0  0  0
 22 21  2  0  0  0  0
 23 22  1  0  0  0  0
 23 20  2  0  0  0  0
 24 27  2  0  0  0  0
 24 17  1  0  0  0  0
 25 26  2  0  0  0  0
 26 27  1  0  0  0  0
 28 24  1  0  0  0  0
M  END
>  <MODEL>
4

>  <REMARK>
 VINA RESULT:      -7.8      1.898      2.465
  Name = 
  2 active torsions:
  status: ('A' for Active; 'I' for Inactive)
    1  A    between atoms: C_2  and  C_3
    2  A    between atoms: C_3  and  C_22
                            x       y       z     vdW  Elec       q    Type
                         _______ _______ _______ _____ _____    ______ ____

>  <TORSDO>
F 2

$$$$
=
 OpenBabel11042412013D

 28 31  0  0  1  0  0  0  0  0999 V2000
  188.9600  176.2840  135.6840 O   0  0  0  0  0  0  0  0  0  0  0  0
  189.4480  176.9030  139.9010 C   0  0  2  0  0  3  0  0  0  0  0  0
  186.2540  177.4860  137.8330 C   0  0  0  0  0  1  0  0  0  0  0  0
  190.9420  176.8370  139.6440 C   0  0  0  0  0  0  0  0  0  0  0  0
  191.5350  175.3790  136.2830 O   0  0  0  0  0  1  0  0  0  0  0  0
  188.6170  176.5330  138.8180 O   0  0  0  0  0  0  0  0  0  0  0  0
  187.5110  177.6640  136.9950 C   0  0  0  0  0  0  0  0  0  0  0  0
  188.7880  177.4650  137.7700 C   0  0  2  0  0  3  0  0  0  0  0  0
  189.7190  176.8850  136.7100 C   0  0  1  0  0  3  0  0  0  0  0  0
  186.9510  176.9200  134.7530 O   0  0  0  0  0  1  0  0  0  0  0  0
  187.5140  179.0630  136.3920 C   0  0  0  0  0  1  0  0  0  0  0  0
  192.9360  176.7590  138.1460 C   0  0  0  0  0  1  0  0  0  0  0  0
  191.7120  177.0710  140.6150 O   0  0  0  0  0  0  0  0  0  0  0  0
  187.6070  176.5750  135.9400 C   0  0  1  0  0  3  0  0  0  0  0  0
  191.5110  176.5180  138.3560 N   0  0  0  0  0  0  0  0  0  0  0  0
  190.7150  175.8870  137.2990 C   0  0  2  0  0  3  0  0  0  0  0  0
  189.0250  178.2190  140.5630 C   0  0  0  0  0  2  0  0  0  0  0  0
  187.8280  177.7070  143.9750 C   0  0  0  0  0  0  0  0  0  0  0  0
  187.8990  177.4000  148.4500 N   0  0  0  0  0  1  0  0  0  0  0  0
  186.8440  177.4520  144.9040 C   0  0  0  0  0  3  0  0  0  0  0  0
  189.3640  177.8130  146.6270 N   0  0  0  0  0  0  0  0  0  0  0  0
  188.1000  177.5380  147.0490 C   0  0  0  0  0  0  0  0  0  0  0  0
  187.0140  177.3880  146.2450 N   0  0  0  0  0  0  0  0  0  0  0  0
  188.8270  178.0430  142.0300 C   0  0  0  0  0  0  0  0  0  0  0  0
  189.9050  178.0060  145.4020 C   0  0  0  0  0  3  0  0  0  0  0  0
  189.2290  177.9620  144.2030 C   0  0  0  0  0  0  0  0  0  0  0  0
  189.8260  178.1730  142.9800 C   0  0  0  0  0  3  0  0  0  0  0  0
  187.6040  177.7670  142.6170 C   0  0  0  0  0  3  0  0  0  0  0  0
  1 14  1  0  0  0  0
  2 17  1  6  0  0  0
  4  2  1  0  0  0  0
  4 13  2  0  0  0  0
  6  2  1  0  0  0  0
  7  8  1  0  0  0  0
  7  3  1  0  0  0  0
  8  6  1  1  0  0  0
  9  1  1  6  0  0  0
  9 16  1  0  0  0  0
  9  8  1  0  0  0  0
 11  7  1  0  0  0  0
 12 15  1  0  0  0  0
 14 10  1  6  0  0  0
 14  7  1  0  0  0  0
 15  4  1  0  0  0  0
 16  5  1  6  0  0  0
 16 15  1  0  0  0  0
 17 24  1  0  0  0  0
 18 26  1  0  0  0  0
 18 20  1  0  0  0  0
 20 23  2  0  0  0  0
 21 22  2  0  0  0  0
 22 19  1  0  0  0  0
 23 22  1  0  0  0  0
 24 28  1  0  0  0  0
 24 27  2  0  0  0  0
 25 21  1  0  0  0  0
 26 25  2  0  0  0  0
 27 26  1  0  0  0  0
 28 18  2  0  0  0  0
M  END
>  <MODEL>
5

>  <REMARK>
 VINA RESULT:      -7.7      4.720      8.134
  Name = 
  2 active torsions:
  status: ('A' for Active; 'I' for Inactive)
    1  A    between atoms: C_2  and  C_3
    2  A    between atoms: C_3  and  C_22
                            x       y       z     vdW  Elec       q    Type
                         _______ _______ _______ _____ _____    ______ ____

>  <TORSDO>
F 2

$$$$
=
 OpenBabel11042412013D

 28 31  0  0  1  0  0  0  0  0999 V2000
  189.8770  176.9360  146.5770 O   0  0  0  0  0  0  0  0  0  0  0  0
  187.5890  177.6430  143.0170 C   0  0  2  0  0  3  0  0  0  0  0  0
  191.3510  176.8570  143.2290 C   0  0  0  0  0  1  0  0  0  0  0  0
  186.5190  178.2150  143.9300 C   0  0  0  0  0  0  0  0  0  0  0  0
  187.2260  177.1900  147.4250 O   0  0  0  0  0  1  0  0  0  0  0  0
  188.6560  176.9730  143.6600 O   0  0  0  0  0  0  0  0  0  0  0  0
  190.8480  177.5600  144.4820 C   0  0  0  0  0  0  0  0  0  0  0  0
  189.3820  177.9050  144.4340 C   0  0  2  0  0  3  0  0  0  0  0  0
  188.9770  177.7860  145.8990 C   0  0  1  0  0  3  0  0  0  0  0  0
  192.1530  176.6820  146.3300 O   0  0  0  0  0  1  0  0  0  0  0  0
  191.6490  178.8390  144.6920 C   0  0  0  0  0  1  0  0  0  0  0  0
  185.6780  179.0050  146.1420 C   0  0  0  0  0  1  0  0  0  0  0  0
  185.5080  178.7370  143.3870 O   0  0  0  0  0  0  0  0  0  0  0  0
  190.9160  176.6270  145.6790 C   0  0  1  0  0  3  0  0  0  0  0  0
  186.6070  178.1840  145.3700 N   0  0  0  0  0  0  0  0  0  0  0  0
  187.5410  177.2910  146.0650 C   0  0  2  0  0  3  0  0  0  0  0  0
  188.0570  178.6490  141.9610 C   0  0  0  0  0  2  0  0  0  0  0  0
  187.6390  177.5190  138.5140 C   0  0  0  0  0  0  0  0  0  0  0  0
  185.6400  176.6360  134.5950 N   0  0  0  0  0  1  0  0  0  0  0  0
  188.1090  176.9990  137.3280 C   0  0  0  0  0  3  0  0  0  0  0  0
  185.1320  177.5000  136.7480 N   0  0  0  0  0  0  0  0  0  0  0  0
  186.0680  176.9870  135.9050 C   0  0  0  0  0  0  0  0  0  0  0  0
  187.3770  176.7850  136.2090 N   0  0  0  0  0  0  0  0  0  0  0  0
  187.5960  178.2530  140.5990 C   0  0  0  0  0  0  0  0  0  0  0  0
  185.1820  177.9320  138.0290 C   0  0  0  0  0  2  0  0  0  0  0  0
  186.2990  177.9460  138.8340 C   0  0  0  0  0  0  0  0  0  0  0  0
  186.3000  178.4030  140.1330 C   0  0  0  0  0  3  0  0  0  0  0  0
  188.4250  177.7230  139.6260 C   0  0  0  0  0  2  0  0  0  0  0  0
  2 17  1  1  0  0  0
  2  6  1  0  0  0  0
  2  4  1  0  0  0  0
  3  7  1  0  0  0  0
  4 15  1  0  0  0  0
  7 11  1  0  0  0  0
  7 14  1  0  0  0  0
  8  6  1  6  0  0  0
  8  7  1  0  0  0  0
  8  9  1  0  0  0  0
  9 16  1  0  0  0  0
  9  1  1  1  0  0  0
 13  4  2  0  0  0  0
 14 10  1  1  0  0  0
 14  1  1  0  0  0  0
 15 16  1  0  0  0  0
 15 12  1  0  0  0  0
 16  5  1  1  0  0  0
 18 26  2  0  0  0  0
 18 28  1  0  0  0  0
 19 22  1  0  0  0  0
 20 18  1  0  0  0  0
 21 25  1  0  0  0  0
 22 23  1  0  0  0  0
 22 21  2  0  0  0  0
 23 20  2  0  0  0  0
 24 17  1  0  0  0  0
 25 26  1  0  0  0  0
 26 27  1  0  0  0  0
 27 24  2  0  0  0  0
 28 24  1  0  0  0  0
M  END
>  <MODEL>
6

>  <REMARK>
 VINA RESULT:      -7.6      3.434      4.805
  Name = 
  2 active torsions:
  status: ('A' for Active; 'I' for Inactive)
    1  A    between atoms: C_2  and  C_3
    2  A    between atoms: C_3  and  C_22
                            x       y       z     vdW  Elec       q    Type
                         _______ _______ _______ _____ _____    ______ ____

>  <TORSDO>
F 2

$$$$
=
 OpenBabel11042412013D

 28 31  0  0  1  0  0  0  0  0999 V2000
  189.0670  176.0970  135.6050 O   0  0  0  0  0  0  0  0  0  0  0  0
  191.4850  176.3280  139.1420 C   0  0  2  0  0  3  0  0  0  0  0  0
  187.8270  177.4650  138.7650 C   0  0  0  0  0  1  0  0  0  0  0  0
  192.6760  176.0930  138.2300 C   0  0  0  0  0  0  0  0  0  0  0  0
  191.4720  174.8320  134.9550 O   0  0  0  0  0  1  0  0  0  0  0  0
  190.2120  176.1500  138.5530 O   0  0  0  0  0  0  0  0  0  0  0  0
  188.5840  177.5460  137.4470 C   0  0  0  0  0  0  0  0  0  0  0  0
  190.0280  177.1290  137.5520 C   0  0  2  0  0  3  0  0  0  0  0  0
  190.2860  176.5180  136.1790 C   0  0  1  0  0  3  0  0  0  0  0  0
  186.9730  177.0520  135.7000 O   0  0  0  0  0  1  0  0  0  0  0  0
  188.5210  178.9750  136.9230 C   0  0  0  0  0  1  0  0  0  0  0  0
  193.7470  175.8790  135.9870 C   0  0  0  0  0  1  0  0  0  0  0  0
  193.8260  176.1540  138.7450 O   0  0  0  0  0  0  0  0  0  0  0  0
  188.0340  176.5370  136.4530 C   0  0  1  0  0  3  0  0  0  0  0  0
  192.5510  175.8040  136.8210 N   0  0  0  0  0  0  0  0  0  0  0  0
  191.2820  175.3610  136.2370 C   0  0  2  0  0  3  0  0  0  0  0  0
  191.6050  177.6330  139.9360 C   0  0  0  0  0  2  0  0  0  0  0  0
  189.7090  177.3130  143.0410 C   0  0  0  0  0  0  0  0  0  0  0  0
  188.8730  176.8480  147.4240 N   0  0  0  0  0  1  0  0  0  0  0  0
  188.5370  177.2730  143.7640 C   0  0  0  0  0  3  0  0  0  0  0  0
  190.7060  176.9540  145.9190 N   0  0  0  0  0  0  0  0  0  0  0  0
  189.3570  176.9800  146.0940 C   0  0  0  0  0  0  0  0  0  0  0  0
  188.4360  177.1250  145.1060 N   0  0  0  0  0  0  0  0  0  0  0  0
  191.1010  177.4610  141.3300 C   0  0  0  0  0  0  0  0  0  0  0  0
  191.4960  177.0510  144.8240 C   0  0  0  0  0  3  0  0  0  0  0  0
  191.0630  177.2120  143.5270 C   0  0  0  0  0  0  0  0  0  0  0  0
  191.9090  177.3120  142.4450 C   0  0  0  0  0  3  0  0  0  0  0  0
  189.7610  177.4710  141.6740 C   0  0  0  0  0  3  0  0  0  0  0  0
  1 14  1  0  0  0  0
  2 17  1  6  0  0  0
  4 13  2  0  0  0  0
  4  2  1  0  0  0  0
  6  2  1  0  0  0  0
  7  8  1  0  0  0  0
  7  3  1  0  0  0  0
  8  6  1  1  0  0  0
  9  1  1  1  0  0  0
  9 16  1  0  0  0  0
  9  8  1  0  0  0  0
 11  7  1  0  0  0  0
 12 15  1  0  0  0  0
 14 10  1  6  0  0  0
 14  7  1  0  0  0  0
 15  4  1  0  0  0  0
 16  5  1  6  0  0  0
 16 15  1  0  0  0  0
 17 24  1  0  0  0  0
 18 26  1  0  0  0  0
 18 20  1  0  0  0  0
 20 23  2  0  0  0  0
 21 22  2  0  0  0  0
 22 19  1  0  0  0  0
 23 22  1  0  0  0  0
 24 28  1  0  0  0  0
 24 27  2  0  0  0  0
 25 21  1  0  0  0  0
 26 25  2  0  0  0  0
 27 26  1  0  0  0  0
 28 18  2  0  0  0  0
M  END
>  <MODEL>
7

>  <REMARK>
 VINA RESULT:      -7.5      5.656      9.204
  Name = 
  2 active torsions:
  status: ('A' for Active; 'I' for Inactive)
    1  A    between atoms: C_2  and  C_3
    2  A    between atoms: C_3  and  C_22
                            x       y       z     vdW  Elec       q    Type
                         _______ _______ _______ _____ _____    ______ ____

>  <TORSDO>
F 2

$$$$
=
 OpenBabel11042412013D

 28 31  0  0  1  0  0  0  0  0999 V2000
  186.4250  179.0910  137.6180 O   0  0  0  0  0  0  0  0  0  0  0  0
  187.2430  178.1970  141.7340 C   0  0  2  0  0  3  0  0  0  0  0  0
  189.5740  177.5960  138.7290 C   0  0  0  0  0  1  0  0  0  0  0  0
  185.7520  178.3600  141.9690 C   0  0  0  0  0  0  0  0  0  0  0  0
  184.2420  180.0850  139.0510 O   0  0  0  0  0  1  0  0  0  0  0  0
  187.7160  178.5990  140.4620 O   0  0  0  0  0  0  0  0  0  0  0  0
  188.1070  177.5450  138.3270 C   0  0  0  0  0  0  0  0  0  0  0  0
  187.1570  177.7560  139.4770 C   0  0  2  0  0  3  0  0  0  0  0  0
  185.9850  178.4590  138.8000 C   0  0  1  0  0  3  0  0  0  0  0  0
  187.9870  178.4170  136.0650 O   0  0  0  0  0  1  0  0  0  0  0  0
  187.8130  176.1950  137.6850 C   0  0  0  0  0  1  0  0  0  0  0  0
  183.4000  178.6510  141.1890 C   0  0  0  0  0  1  0  0  0  0  0  0
  185.3110  178.0980  143.1210 O   0  0  0  0  0  0  0  0  0  0  0  0
  187.7640  178.7110  137.4150 C   0  0  1  0  0  3  0  0  0  0  0  0
  184.8320  178.8000  140.9470 N   0  0  0  0  0  0  0  0  0  0  0  0
  185.2990  179.4630  139.7250 C   0  0  2  0  0  3  0  0  0  0  0  0
  187.7540  176.8160  142.1580 C   0  0  0  0  0  2  0  0  0  0  0  0
  190.3300  176.7720  144.7460 C   0  0  0  0  0  0  0  0  0  0  0  0
  192.2280  177.1690  148.7920 N   0  0  0  0  0  1  0  0  0  0  0  0
  191.6130  176.5510  145.1960 C   0  0  0  0  0  3  0  0  0  0  0  0
  190.1250  177.4590  147.7270 N   0  0  0  0  0  0  0  0  0  0  0  0
  191.4360  177.1130  147.6130 C   0  0  0  0  0  0  0  0  0  0  0  0
  192.0490  176.7150  146.4670 N   0  0  0  0  0  0  0  0  0  0  0  0
  188.5880  176.9080  143.3910 C   0  0  0  0  0  0  0  0  0  0  0  0
  189.1060  177.5200  146.8390 C   0  0  0  0  0  3  0  0  0  0  0  0
  189.1830  177.2140  145.4990 C   0  0  0  0  0  0  0  0  0  0  0  0
  188.1120  177.2860  144.6350 C   0  0  0  0  0  3  0  0  0  0  0  0
  189.9330  176.5850  143.4400 C   0  0  0  0  0  3  0  0  0  0  0  0
  2  4  1  0  0  0  0
  2 17  1  6  0  0  0
  4 13  2  0  0  0  0
  6  2  1  0  0  0  0
  7  3  1  0  0  0  0
  7  8  1  0  0  0  0
  8  6  1  1  0  0  0
  9  1  1  6  0  0  0
  9  8  1  0  0  0  0
  9 16  1  0  0  0  0
 11  7  1  0  0  0  0
 14 10  1  6  0  0  0
 14  1  1  0  0  0  0
 14  7  1  0  0  0  0
 15 12  1  0  0  0  0
 15  4  1  0  0  0  0
 16  5  1  6  0  0  0
 16 15  1  0  0  0  0
 17 24  1  0  0  0  0
 18 20  1  0  0  0  0
 18 26  1  0  0  0  0
 20 23  2  0  0  0  0
 22 21  2  0  0  0  0
 22 19  1  0  0  0  0
 23 22  1  0  0  0  0
 24 28  1  0  0  0  0
 24 27  2  0  0  0  0
 25 21  1  0  0  0  0
 26 25  2  0  0  0  0
 27 26  1  0  0  0  0
 28 18  2  0  0  0  0
M  END
>  <MODEL>
8

>  <REMARK>
 VINA RESULT:      -7.5      3.667      8.056
  Name = 
  2 active torsions:
  status: ('A' for Active; 'I' for Inactive)
    1  A    between atoms: C_2  and  C_3
    2  A    between atoms: C_3  and  C_22
                            x       y       z     vdW  Elec       q    Type
                         _______ _______ _______ _____ _____    ______ ____

>  <TORSDO>
F 2

$$$$
=
 OpenBabel11042412013D

 28 31  0  0  1  0  0  0  0  0999 V2000
  188.4230  175.8830  135.4510 O   0  0  0  0  0  0  0  0  0  0  0  0
  189.2730  177.0100  139.5030 C   0  0  2  0  0  3  0  0  0  0  0  0
  185.9540  177.5000  137.6140 C   0  0  0  0  0  1  0  0  0  0  0  0
  190.7370  176.8290  139.1480 C   0  0  0  0  0  0  0  0  0  0  0  0
  190.9940  174.9220  135.9750 O   0  0  0  0  0  1  0  0  0  0  0  0
  188.3420  176.5510  138.5410 O   0  0  0  0  0  0  0  0  0  0  0  0
  187.1480  177.4980  136.6700 C   0  0  0  0  0  0  0  0  0  0  0  0
  188.4720  177.3300  137.3700 C   0  0  2  0  0  3  0  0  0  0  0  0
  189.2880  176.5680  136.3310 C   0  0  1  0  0  3  0  0  0  0  0  0
  186.3780  176.5060  134.5940 O   0  0  0  0  0  1  0  0  0  0  0  0
  187.1660  178.8070  135.8890 C   0  0  0  0  0  1  0  0  0  0  0  0
  192.6000  176.4490  137.5320 C   0  0  0  0  0  1  0  0  0  0  0  0
  191.5920  177.1420  140.0200 O   0  0  0  0  0  0  0  0  0  0  0  0
  187.1100  176.2800  135.7640 C   0  0  1  0  0  3  0  0  0  0  0  0
  191.1870  176.3170  137.8750 N   0  0  0  0  0  0  0  0  0  0  0  0
  190.2820  175.6000  136.9710 C   0  0  2  0  0  3  0  0  0  0  0  0
  188.9650  178.4220  140.0140 C   0  0  0  0  0  2  0  0  0  0  0  0
  186.4010  178.6400  142.6050 C   0  0  0  0  0  0  0  0  0  0  0  0
  184.4690  178.3130  146.6410 N   0  0  0  0  0  1  0  0  0  0  0  0
  185.1450  178.9700  143.0630 C   0  0  0  0  0  3  0  0  0  0  0  0
  186.5360  177.8520  145.5660 N   0  0  0  0  0  0  0  0  0  0  0  0
  185.2650  178.3260  145.4630 C   0  0  0  0  0  0  0  0  0  0  0  0
  184.6930  178.8130  144.3300 N   0  0  0  0  0  0  0  0  0  0  0  0
  188.1250  178.3750  141.2450 C   0  0  0  0  0  0  0  0  0  0  0  0
  187.5450  177.7190  144.6750 C   0  0  0  0  0  3  0  0  0  0  0  0
  187.5000  178.0680  143.3440 C   0  0  0  0  0  0  0  0  0  0  0  0
  188.5600  177.9190  142.4780 C   0  0  0  0  0  3  0  0  0  0  0  0
  186.8170  178.8250  141.3050 C   0  0  0  0  0  3  0  0  0  0  0  0
  1 14  1  0  0  0  0
  2 17  1  6  0  0  0
  4  2  1  0  0  0  0
  4 13  2  0  0  0  0
  6  2  1  0  0  0  0
  7  8  1  0  0  0  0
  7  3  1  0  0  0  0
  8  6  1  1  0  0  0
  9  1  1  6  0  0  0
  9 16  1  0  0  0  0
  9  8  1  0  0  0  0
 11  7  1  0  0  0  0
 12 15  1  0  0  0  0
 14 10  1  6  0  0  0
 14  7  1  0  0  0  0
 15  4  1  0  0  0  0
 16  5  1  6  0  0  0
 16 15  1  0  0  0  0
 17 24  1  0  0  0  0
 18 20  1  0  0  0  0
 18 26  1  0  0  0  0
 20 23  2  0  0  0  0
 22 21  2  0  0  0  0
 22 19  1  0  0  0  0
 23 22  1  0  0  0  0
 24 28  1  0  0  0  0
 24 27  2  0  0  0  0
 25 21  1  0  0  0  0
 26 25  2  0  0  0  0
 27 26  1  0  0  0  0
 28 18  2  0  0  0  0
M  END
>  <MODEL>
9

>  <REMARK>
 VINA RESULT:      -7.4      5.003      7.623
  Name = 
  2 active torsions:
  status: ('A' for Active; 'I' for Inactive)
    1  A    between atoms: C_2  and  C_3
    2  A    between atoms: C_3  and  C_22
                            x       y       z     vdW  Elec       q    Type
                         _______ _______ _______ _____ _____    ______ ____

>  <TORSDO>
F 2

$$$$
