=
 OpenBabel11032419493D

 27 30  0  0  1  0  0  0  0  0999 V2000
  190.5610  176.5500  140.0140 C   0  0  0  0  0  3  0  0  0  0  0  0
  188.7130  177.7530  141.1490 C   0  0  0  0  0  0  0  0  0  0  0  0
  186.7480  178.2250  142.6310 C   0  0  0  0  0  0  0  0  0  0  0  0
  182.6280  178.8550  143.1300 C   0  0  0  0  0  0  0  0  0  0  0  0
  188.7440  177.8490  144.1780 C   0  0  2  0  0  3  0  0  0  0  0  0
  186.0350  177.9250  145.0330 S   0  0  0  0  0  0  0  0  0  0  0  0
  187.2790  177.8860  143.8750 C   0  0  0  0  0  0  0  0  0  0  0  0
  183.4700  178.5140  144.2050 C   0  0  0  0  0  3  0  0  0  0  0  0
  185.3650  178.4580  142.6790 C   0  0  0  0  0  0  0  0  0  0  0  0
  189.4860  176.9570  143.2910 N   0  0  0  0  0  0  0  0  0  0  0  0
  189.5340  176.9830  141.9900 C   0  0  0  0  0  0  0  0  0  0  0  0
  183.1700  178.9950  141.8340 C   0  0  0  0  0  3  0  0  0  0  0  0
  184.8240  178.3190  143.9470 C   0  0  0  0  0  0  0  0  0  0  0  0
  189.3310  177.6160  139.5970 S   0  0  0  0  0  0  0  0  0  0  0  0
  187.5160  178.2970  141.3790 C   0  0  0  0  0  3  0  0  0  0  0  0
  190.5220  176.3070  141.3430 N   0  0  0  0  0  0  0  0  0  0  0  0
  184.5410  178.7980  141.6030 C   0  0  0  0  0  3  0  0  0  0  0  0
  180.4890  180.0790  142.6240 N   0  0  0  0  0  2  0  0  0  0  0  0
  181.1870  179.0680  143.3560 C   0  0  0  0  0  0  0  0  0  0  0  0
  180.5680  178.3590  144.1950 O   0  0  0  0  0  0  0  0  0  0  0  0
  179.0700  180.3260  142.8110 C   0  0  0  0  0  1  0  0  0  0  0  0
  189.0240  177.4680  145.6250 C   0  0  0  0  0  2  0  0  0  0  0  0
  190.4920  177.1280  145.8090 C   0  0  0  0  0  2  0  0  0  0  0  0
  190.7540  176.6550  147.2290 C   0  0  0  0  0  2  0  0  0  0  0  0
  192.0620  175.9440  147.3170 C   0  0  0  0  0  0  0  0  0  0  0  0
  192.9060  176.1740  148.3960 O   0  0  0  0  0  1  0  0  0  0  0  0
  192.4170  175.1590  146.3990 O   0  0  0  0  0  0  0  0  0  0  0  0
  1 16  2  0  0  0  0
  2 15  2  0  0  0  0
  2 11  1  0  0  0  0
  3  9  1  0  0  0  0
  3  7  2  0  0  0  0
  4 19  1  0  0  0  0
  4  8  1  0  0  0  0
  5 22  1  1  0  0  0
  7  5  1  0  0  0  0
  7  6  1  0  0  0  0
  9 13  1  0  0  0  0
 10  5  1  0  0  0  0
 11 10  2  0  0  0  0
 12  4  2  0  0  0  0
 13  8  2  0  0  0  0
 13  6  1  0  0  0  0
 14  1  1  0  0  0  0
 14  2  1  0  0  0  0
 15  3  1  0  0  0  0
 16 11  1  0  0  0  0
 17 12  1  0  0  0  0
 17  9  2  0  0  0  0
 18 21  1  0  0  0  0
 18 19  1  0  0  0  0
 19 20  2  0  0  0  0
 22 23  1  0  0  0  0
 23 24  1  0  0  0  0
 24 25  1  0  0  0  0
 25 26  1  0  0  0  0
 27 25  2  0  0  0  0
M  END
>  <MODEL>
1

>  <REMARK>
 VINA RESULT:      -8.9      0.000      0.000
  Name = 
  5 active torsions:
  status: ('A' for Active; 'I' for Inactive)
    1  A    between atoms: C_1  and  C_14
    2  A    between atoms: C_1  and  C_18
    3  A    between atoms: C_6  and  C_7
    4  A    between atoms: C_8  and  C_11
    5  A    between atoms: C_11  and  C_14
                            x       y       z     vdW  Elec       q    Type
                         _______ _______ _______ _____ _____    ______ ____

>  <TORSDO>
F 5

$$$$
=
 OpenBabel11032419493D

 27 30  0  0  1  0  0  0  0  0999 V2000
  189.4400  178.1110  148.4570 C   0  0  0  0  0  3  0  0  0  0  0  0
  187.6160  177.6570  146.8400 C   0  0  0  0  0  0  0  0  0  0  0  0
  186.1760  177.7820  144.7930 C   0  0  0  0  0  0  0  0  0  0  0  0
  182.6530  179.0400  142.8870 C   0  0  0  0  0  0  0  0  0  0  0  0
  188.3940  176.7580  144.0530 C   0  0  2  0  0  3  0  0  0  0  0  0
  186.3970  177.7310  142.2810 S   0  0  0  0  0  0  0  0  0  0  0  0
  187.1130  177.4900  143.8030 C   0  0  0  0  0  0  0  0  0  0  0  0
  183.7980  178.6500  142.1670 C   0  0  0  0  0  3  0  0  0  0  0  0
  184.9500  178.2180  144.2660 C   0  0  0  0  0  0  0  0  0  0  0  0
  189.2290  177.4000  145.0650 N   0  0  0  0  0  0  0  0  0  0  0  0
  188.9080  177.7010  146.2900 C   0  0  0  0  0  0  0  0  0  0  0  0
  182.6730  179.0120  144.2980 C   0  0  0  0  0  3  0  0  0  0  0  0
  184.9240  178.2510  142.8820 C   0  0  0  0  0  0  0  0  0  0  0  0
  187.7750  177.8960  148.4920 S   0  0  0  0  0  0  0  0  0  0  0  0
  186.4240  177.6950  146.2400 C   0  0  0  0  0  3  0  0  0  0  0  0
  189.8910  177.9810  147.1890 N   0  0  0  0  0  0  0  0  0  0  0  0
  183.8210  178.6010  144.9950 C   0  0  0  0  0  3  0  0  0  0  0  0
  180.4490  180.2520  142.8480 N   0  0  0  0  0  2  0  0  0  0  0  0
  181.4390  179.4720  142.1720 C   0  0  0  0  0  0  0  0  0  0  0  0
  181.2720  179.1550  140.9630 O   0  0  0  0  0  0  0  0  0  0  0  0
  179.2370  180.7020  142.1860 C   0  0  0  0  0  1  0  0  0  0  0  0
  189.2050  176.5650  142.7790 C   0  0  0  0  0  2  0  0  0  0  0  0
  190.1370  177.7440  142.5620 C   0  0  0  0  0  2  0  0  0  0  0  0
  191.1660  177.4170  141.4930 C   0  0  0  0  0  2  0  0  0  0  0  0
  190.5040  177.1580  140.1820 C   0  0  0  0  0  0  0  0  0  0  0  0
  189.6340  178.0980  139.6460 O   0  0  0  0  0  1  0  0  0  0  0  0
  190.7090  176.0730  139.5770 O   0  0  0  0  0  0  0  0  0  0  0  0
  1 14  1  0  0  0  0
  2 14  1  0  0  0  0
  3 15  1  0  0  0  0
  4 12  1  0  0  0  0
  5 22  1  6  0  0  0
  5 10  1  0  0  0  0
  6 13  1  0  0  0  0
  6  7  1  0  0  0  0
  7  5  1  0  0  0  0
  7  3  2  0  0  0  0
  8 13  1  0  0  0  0
  8  4  2  0  0  0  0
  9  3  1  0  0  0  0
  9 17  1  0  0  0  0
 10 11  2  0  0  0  0
 11  2  1  0  0  0  0
 11 16  1  0  0  0  0
 12 17  2  0  0  0  0
 13  9  2  0  0  0  0
 15  2  2  0  0  0  0
 16  1  2  0  0  0  0
 19 18  1  0  0  0  0
 19  4  1  0  0  0  0
 20 19  2  0  0  0  0
 21 18  1  0  0  0  0
 23 22  1  0  0  0  0
 24 23  1  0  0  0  0
 25 24  1  0  0  0  0
 26 25  1  0  0  0  0
 27 25  2  0  0  0  0
M  END
>  <MODEL>
2

>  <REMARK>
 VINA RESULT:      -8.6      2.923      4.636
  Name = 
  5 active torsions:
  status: ('A' for Active; 'I' for Inactive)
    1  A    between atoms: C_1  and  C_14
    2  A    between atoms: C_1  and  C_18
    3  A    between atoms: C_6  and  C_7
    4  A    between atoms: C_8  and  C_11
    5  A    between atoms: C_11  and  C_14
                            x       y       z     vdW  Elec       q    Type
                         _______ _______ _______ _____ _____    ______ ____

>  <TORSDO>
F 5

$$$$
=
 OpenBabel11032419493D

 27 30  0  0  1  0  0  0  0  0999 V2000
  180.2500  178.4860  142.2460 C   0  0  0  0  0  3  0  0  0  0  0  0
  182.5430  178.9040  143.0930 C   0  0  0  0  0  0  0  0  0  0  0  0
  184.9790  178.5960  143.5930 C   0  0  0  0  0  0  0  0  0  0  0  0
  188.0540  177.6480  146.2900 C   0  0  0  0  0  0  0  0  0  0  0  0
  184.8020  178.9670  141.0740 C   0  0  2  0  0  3  0  0  0  0  0  0
  187.1280  178.0230  142.4040 S   0  0  0  0  0  0  0  0  0  0  0  0
  185.4900  178.4630  142.3030 C   0  0  0  0  0  0  0  0  0  0  0  0
  188.2460  177.6290  144.8960 C   0  0  0  0  0  3  0  0  0  0  0  0
  185.9280  178.2990  144.5840 C   0  0  0  0  0  0  0  0  0  0  0  0
  183.4560  178.4240  140.9120 N   0  0  0  0  0  0  0  0  0  0  0  0
  182.4650  178.4820  141.7550 C   0  0  0  0  0  0  0  0  0  0  0  0
  186.7910  177.9950  146.8160 C   0  0  0  0  0  3  0  0  0  0  0  0
  187.1690  177.9540  144.0760 C   0  0  0  0  0  0  0  0  0  0  0  0
  180.9710  179.0250  143.6640 S   0  0  0  0  0  0  0  0  0  0  0  0
  183.5920  178.9630  143.9160 C   0  0  0  0  0  3  0  0  0  0  0  0
  181.2000  178.2300  141.3200 N   0  0  0  0  0  0  0  0  0  0  0  0
  185.7220  178.3230  145.9670 C   0  0  0  0  0  3  0  0  0  0  0  0
  190.3760  176.7590  146.6710 N   0  0  0  0  0  2  0  0  0  0  0  0
  189.1650  177.3090  147.1970 C   0  0  0  0  0  0  0  0  0  0  0  0
  189.0500  177.5050  148.4370 O   0  0  0  0  0  0  0  0  0  0  0  0
  191.4980  176.4100  147.5240 C   0  0  0  0  0  1  0  0  0  0  0  0
  185.6090  178.6990  139.8110 C   0  0  0  0  0  2  0  0  0  0  0  0
  184.6960  178.6600  138.5980 C   0  0  0  0  0  2  0  0  0  0  0  0
  185.2650  177.7370  137.5350 C   0  0  0  0  0  2  0  0  0  0  0  0
  186.7290  177.9650  137.3630 C   0  0  0  0  0  0  0  0  0  0  0  0
  187.1890  179.1840  136.8810 O   0  0  0  0  0  0  0  0  0  0  0  0
  187.5450  177.0450  137.6250 O   0  0  0  0  0  1  0  0  0  0  0  0
  1 14  1  0  0  0  0
  2 14  1  0  0  0  0
  2 15  2  0  0  0  0
  3 15  1  0  0  0  0
  3  9  1  0  0  0  0
  4 12  1  0  0  0  0
  4 19  1  0  0  0  0
  5 22  1  6  0  0  0
  5  7  1  0  0  0  0
  6 13  1  0  0  0  0
  7  6  1  0  0  0  0
  7  3  2  0  0  0  0
  8  4  2  0  0  0  0
  9 17  1  0  0  0  0
 10  5  1  0  0  0  0
 10 11  2  0  0  0  0
 11  2  1  0  0  0  0
 13  9  2  0  0  0  0
 13  8  1  0  0  0  0
 16 11  1  0  0  0  0
 16  1  2  0  0  0  0
 17 12  2  0  0  0  0
 18 19  1  0  0  0  0
 18 21  1  0  0  0  0
 19 20  2  0  0  0  0
 23 22  1  0  0  0  0
 24 23  1  0  0  0  0
 25 24  1  0  0  0  0
 25 27  1  0  0  0  0
 26 25  2  0  0  0  0
M  END
>  <MODEL>
3

>  <REMARK>
 VINA RESULT:      -8.5      3.594      8.153
  Name = 
  5 active torsions:
  status: ('A' for Active; 'I' for Inactive)
    1  A    between atoms: C_1  and  C_14
    2  A    between atoms: C_1  and  C_18
    3  A    between atoms: C_6  and  C_7
    4  A    between atoms: C_8  and  C_11
    5  A    between atoms: C_11  and  C_14
                            x       y       z     vdW  Elec       q    Type
                         _______ _______ _______ _____ _____    ______ ____

>  <TORSDO>
F 5

$$$$
=
 OpenBabel11032419493D

 27 30  0  0  1  0  0  0  0  0999 V2000
  190.8260  176.6060  137.5880 C   0  0  0  0  0  3  0  0  0  0  0  0
  189.4540  177.6480  139.3710 C   0  0  0  0  0  0  0  0  0  0  0  0
  187.9470  177.9100  141.3560 C   0  0  0  0  0  0  0  0  0  0  0  0
  184.1610  178.7320  142.9750 C   0  0  0  0  0  0  0  0  0  0  0  0
  190.1670  177.0210  142.2480 C   0  0  2  0  0  3  0  0  0  0  0  0
  187.7500  177.1070  143.7390 S   0  0  0  0  0  0  0  0  0  0  0  0
  188.6900  177.2450  142.3300 C   0  0  0  0  0  0  0  0  0  0  0  0
  185.1670  178.0780  143.7120 C   0  0  0  0  0  3  0  0  0  0  0  0
  186.6530  178.2350  141.7910 C   0  0  0  0  0  0  0  0  0  0  0  0
  190.5680  176.3080  141.0380 N   0  0  0  0  0  0  0  0  0  0  0  0
  190.3300  176.6380  139.8020 C   0  0  0  0  0  0  0  0  0  0  0  0
  184.4180  179.1310  141.6450 C   0  0  0  0  0  3  0  0  0  0  0  0
  186.3920  177.8430  143.0940 C   0  0  0  0  0  0  0  0  0  0  0  0
  189.6890  177.8350  137.7210 S   0  0  0  0  0  0  0  0  0  0  0  0
  188.4210  178.2160  139.9980 C   0  0  0  0  0  3  0  0  0  0  0  0
  191.0510  176.0580  138.8030 N   0  0  0  0  0  0  0  0  0  0  0  0
  185.6640  178.8860  141.0470 C   0  0  0  0  0  3  0  0  0  0  0  0
  181.6930  179.1680  142.7610 N   0  0  0  0  0  2  0  0  0  0  0  0
  182.8480  178.9990  143.5880 C   0  0  0  0  0  0  0  0  0  0  0  0
  182.7420  179.0790  144.8420 O   0  0  0  0  0  0  0  0  0  0  0  0
  180.3780  179.4330  143.3190 C   0  0  0  0  0  1  0  0  0  0  0  0
  190.7060  176.2860  143.4680 C   0  0  0  0  0  2  0  0  0  0  0  0
  191.6120  177.1980  144.2770 C   0  0  0  0  0  2  0  0  0  0  0  0
  190.8680  177.7530  145.4800 C   0  0  0  0  0  2  0  0  0  0  0  0
  190.9860  176.8330  146.6470 C   0  0  0  0  0  0  0  0  0  0  0  0
  192.2290  176.3320  147.0130 O   0  0  0  0  0  0  0  0  0  0  0  0
  189.9570  176.4840  147.2820 O   0  0  0  0  0  1  0  0  0  0  0  0
  1 14  1  0  0  0  0
  1 16  2  0  0  0  0
  2 11  1  0  0  0  0
  2 15  2  0  0  0  0
  3  9  1  0  0  0  0
  3  7  2  0  0  0  0
  4 19  1  0  0  0  0
  4  8  1  0  0  0  0
  5  7  1  0  0  0  0
  5 22  1  1  0  0  0
  7  6  1  0  0  0  0
  9 13  1  0  0  0  0
 10  5  1  0  0  0  0
 11 10  2  0  0  0  0
 12  4  2  0  0  0  0
 13  8  2  0  0  0  0
 13  6  1  0  0  0  0
 14  2  1  0  0  0  0
 15  3  1  0  0  0  0
 16 11  1  0  0  0  0
 17 12  1  0  0  0  0
 17  9  2  0  0  0  0
 18 21  1  0  0  0  0
 18 19  1  0  0  0  0
 19 20  2  0  0  0  0
 22 23  1  0  0  0  0
 23 24  1  0  0  0  0
 24 25  1  0  0  0  0
 25 26  2  0  0  0  0
 25 27  1  0  0  0  0
M  END
>  <MODEL>
4

>  <REMARK>
 VINA RESULT:      -8.4      1.502      2.048
  Name = 
  5 active torsions:
  status: ('A' for Active; 'I' for Inactive)
    1  A    between atoms: C_1  and  C_14
    2  A    between atoms: C_1  and  C_18
    3  A    between atoms: C_6  and  C_7
    4  A    between atoms: C_8  and  C_11
    5  A    between atoms: C_11  and  C_14
                            x       y       z     vdW  Elec       q    Type
                         _______ _______ _______ _____ _____    ______ ____

>  <TORSDO>
F 5

$$$$
=
 OpenBabel11032419493D

 27 30  0  0  1  0  0  0  0  0999 V2000
  188.1310  178.2860  139.2430 C   0  0  0  0  0  3  0  0  0  0  0  0
  188.5920  177.2870  141.4640 C   0  0  0  0  0  0  0  0  0  0  0  0
  188.9810  177.0640  143.9300 C   0  0  0  0  0  0  0  0  0  0  0  0
  191.5920  176.5450  147.1760 C   0  0  0  0  0  0  0  0  0  0  0  0
  186.5170  177.6650  143.6400 C   0  0  2  0  0  3  0  0  0  0  0  0
  187.9120  177.7400  146.1140 S   0  0  0  0  0  0  0  0  0  0  0  0
  187.7880  177.5900  144.4250 C   0  0  0  0  0  0  0  0  0  0  0  0
  190.2860  177.0450  147.3370 C   0  0  0  0  0  3  0  0  0  0  0  0
  189.9360  176.8500  144.9360 C   0  0  0  0  0  0  0  0  0  0  0  0
  186.6640  178.4030  142.3880 N   0  0  0  0  0  0  0  0  0  0  0  0
  187.5040  178.1740  141.4200 C   0  0  0  0  0  0  0  0  0  0  0  0
  192.0550  176.2010  145.8880 C   0  0  0  0  0  3  0  0  0  0  0  0
  189.4900  177.1880  146.2040 C   0  0  0  0  0  0  0  0  0  0  0  0
  189.2020  177.1760  139.9060 S   0  0  0  0  0  0  0  0  0  0  0  0
  189.2570  176.7930  142.5120 C   0  0  0  0  0  3  0  0  0  0  0  0
  187.2870  178.7340  140.1990 N   0  0  0  0  0  0  0  0  0  0  0  0
  191.2300  176.3510  144.7620 C   0  0  0  0  0  3  0  0  0  0  0  0
  192.7630  177.4980  149.1890 N   0  0  0  0  0  2  0  0  0  0  0  0
  192.4710  176.3790  148.3470 C   0  0  0  0  0  0  0  0  0  0  0  0
  192.9670  175.2490  148.6090 O   0  0  0  0  0  0  0  0  0  0  0  0
  193.6230  177.3830  150.3540 C   0  0  0  0  0  1  0  0  0  0  0  0
  185.3750  178.2660  144.4480 C   0  0  0  0  0  2  0  0  0  0  0  0
  184.2600  178.7280  143.5260 C   0  0  0  0  0  2  0  0  0  0  0  0
  182.9940  179.0020  144.3200 C   0  0  0  0  0  2  0  0  0  0  0  0
  181.7880  178.8850  143.4500 C   0  0  0  0  0  0  0  0  0  0  0  0
  181.9120  179.0010  142.0720 O   0  0  0  0  0  0  0  0  0  0  0  0
  180.6530  178.7110  143.9660 O   0  0  0  0  0  1  0  0  0  0  0  0
  1 14  1  0  0  0  0
  1 16  2  0  0  0  0
  2 15  2  0  0  0  0
  3  7  2  0  0  0  0
  3  9  1  0  0  0  0
  4  8  1  0  0  0  0
  4 19  1  0  0  0  0
  5  7  1  0  0  0  0
  5 22  1  1  0  0  0
  6 13  1  0  0  0  0
  7  6  1  0  0  0  0
  9 13  1  0  0  0  0
 10  5  1  0  0  0  0
 11  2  1  0  0  0  0
 11 10  2  0  0  0  0
 12  4  2  0  0  0  0
 13  8  2  0  0  0  0
 14  2  1  0  0  0  0
 15  3  1  0  0  0  0
 16 11  1  0  0  0  0
 17  9  2  0  0  0  0
 17 12  1  0  0  0  0
 18 21  1  0  0  0  0
 19 20  2  0  0  0  0
 19 18  1  0  0  0  0
 23 24  1  0  0  0  0
 23 22  1  0  0  0  0
 25 27  1  0  0  0  0
 25 24  1  0  0  0  0
 26 25  2  0  0  0  0
M  END
>  <MODEL>
5

>  <REMARK>
 VINA RESULT:      -8.3      2.095      8.305
  Name = 
  5 active torsions:
  status: ('A' for Active; 'I' for Inactive)
    1  A    between atoms: C_1  and  C_14
    2  A    between atoms: C_1  and  C_18
    3  A    between atoms: C_6  and  C_7
    4  A    between atoms: C_8  and  C_11
    5  A    between atoms: C_11  and  C_14
                            x       y       z     vdW  Elec       q    Type
                         _______ _______ _______ _____ _____    ______ ____

>  <TORSDO>
F 5

$$$$
=
 OpenBabel11032419493D

 27 30  0  0  1  0  0  0  0  0999 V2000
  179.4370  178.4750  142.4450 C   0  0  0  0  0  3  0  0  0  0  0  0
  181.7510  178.9490  143.2000 C   0  0  0  0  0  0  0  0  0  0  0  0
  184.2080  178.6910  143.6180 C   0  0  0  0  0  0  0  0  0  0  0  0
  187.3940  177.8490  146.2200 C   0  0  0  0  0  0  0  0  0  0  0  0
  183.9350  179.0110  141.1000 C   0  0  2  0  0  3  0  0  0  0  0  0
  186.3240  178.1320  142.3630 S   0  0  0  0  0  0  0  0  0  0  0  0
  184.6750  178.5420  142.3130 C   0  0  0  0  0  0  0  0  0  0  0  0
  187.5370  177.8060  144.8200 C   0  0  0  0  0  3  0  0  0  0  0  0
  185.1970  178.4300  144.5800 C   0  0  0  0  0  0  0  0  0  0  0  0
  182.5930  178.4420  140.9970 N   0  0  0  0  0  0  0  0  0  0  0  0
  181.6330  178.5000  141.8740 C   0  0  0  0  0  0  0  0  0  0  0  0
  186.1440  178.1850  146.7840 C   0  0  0  0  0  3  0  0  0  0  0  0
  186.4250  178.0960  144.0340 C   0  0  0  0  0  0  0  0  0  0  0  0
  180.1980  179.0540  143.8250 S   0  0  0  0  0  0  0  0  0  0  0  0
  182.8270  179.0410  143.9840 C   0  0  0  0  0  3  0  0  0  0  0  0
  180.3580  178.2170  141.4890 N   0  0  0  0  0  0  0  0  0  0  0  0
  185.0400  178.4780  145.9680 C   0  0  0  0  0  3  0  0  0  0  0  0
  189.7640  177.0640  146.5260 N   0  0  0  0  0  2  0  0  0  0  0  0
  188.5430  177.5460  147.0920 C   0  0  0  0  0  0  0  0  0  0  0  0
  188.4500  177.7140  148.3380 O   0  0  0  0  0  0  0  0  0  0  0  0
  190.9230  176.7530  147.3440 C   0  0  0  0  0  1  0  0  0  0  0  0
  184.7010  178.7310  139.8140 C   0  0  0  0  0  2  0  0  0  0  0  0
  183.7540  178.7180  138.6270 C   0  0  0  0  0  2  0  0  0  0  0  0
  184.0000  177.4910  137.7650 C   0  0  0  0  0  2  0  0  0  0  0  0
  183.0230  176.4120  138.0890 C   0  0  0  0  0  0  0  0  0  0  0  0
  181.6660  176.6980  138.1450 O   0  0  0  0  0  0  0  0  0  0  0  0
  183.4300  175.2480  138.3420 O   0  0  0  0  0  1  0  0  0  0  0  0
  1 14  1  0  0  0  0
  2 14  1  0  0  0  0
  2 15  2  0  0  0  0
  3 15  1  0  0  0  0
  3  9  1  0  0  0  0
  4 12  1  0  0  0  0
  4 19  1  0  0  0  0
  5 22  1  6  0  0  0
  5  7  1  0  0  0  0
  6 13  1  0  0  0  0
  7  6  1  0  0  0  0
  7  3  2  0  0  0  0
  8  4  2  0  0  0  0
  9 17  1  0  0  0  0
 10  5  1  0  0  0  0
 10 11  2  0  0  0  0
 11  2  1  0  0  0  0
 13  9  2  0  0  0  0
 13  8  1  0  0  0  0
 16 11  1  0  0  0  0
 16  1  2  0  0  0  0
 17 12  2  0  0  0  0
 18 19  1  0  0  0  0
 18 21  1  0  0  0  0
 19 20  2  0  0  0  0
 23 22  1  0  0  0  0
 24 25  1  0  0  0  0
 24 23  1  0  0  0  0
 25 26  2  0  0  0  0
 25 27  1  0  0  0  0
M  END
>  <MODEL>
6

>  <REMARK>
 VINA RESULT:      -8.2      3.133      8.572
  Name = 
  5 active torsions:
  status: ('A' for Active; 'I' for Inactive)
    1  A    between atoms: C_1  and  C_14
    2  A    between atoms: C_1  and  C_18
    3  A    between atoms: C_6  and  C_7
    4  A    between atoms: C_8  and  C_11
    5  A    between atoms: C_11  and  C_14
                            x       y       z     vdW  Elec       q    Type
                         _______ _______ _______ _____ _____    ______ ____

>  <TORSDO>
F 5

$$$$
=
 OpenBabel11032419493D

 27 30  0  0  1  0  0  0  0  0999 V2000
  191.2290  177.9890  145.2470 C   0  0  0  0  0  3  0  0  0  0  0  0
  188.9220  177.6180  144.4190 C   0  0  0  0  0  0  0  0  0  0  0  0
  186.7280  177.9870  143.2640 C   0  0  0  0  0  0  0  0  0  0  0  0
  182.6440  178.9490  143.4180 C   0  0  0  0  0  0  0  0  0  0  0  0
  188.4700  177.6860  141.4230 C   0  0  2  0  0  3  0  0  0  0  0  0
  185.8350  178.6620  141.0030 S   0  0  0  0  0  0  0  0  0  0  0  0
  187.1590  178.1740  141.9510 C   0  0  0  0  0  0  0  0  0  0  0  0
  183.3860  179.0160  142.2240 C   0  0  0  0  0  3  0  0  0  0  0  0
  185.3670  178.2830  143.4340 C   0  0  0  0  0  0  0  0  0  0  0  0
  189.6130  178.1910  142.1800 N   0  0  0  0  0  0  0  0  0  0  0  0
  189.8370  178.0770  143.4570 C   0  0  0  0  0  0  0  0  0  0  0  0
  183.2790  178.5470  144.6130 C   0  0  0  0  0  3  0  0  0  0  0  0
  184.7370  178.6820  142.2660 C   0  0  0  0  0  0  0  0  0  0  0  0
  189.7660  177.4300  145.8550 S   0  0  0  0  0  0  0  0  0  0  0  0
  187.5880  177.5670  144.3810 C   0  0  0  0  0  3  0  0  0  0  0  0
  191.0900  178.3030  143.9400 N   0  0  0  0  0  0  0  0  0  0  0  0
  184.6430  178.2120  144.6270 C   0  0  0  0  0  3  0  0  0  0  0  0
  180.6830  180.1640  142.4160 N   0  0  0  0  0  2  0  0  0  0  0  0
  181.2120  179.2950  143.4220 C   0  0  0  0  0  0  0  0  0  0  0  0
  180.4510  178.8260  144.3110 O   0  0  0  0  0  0  0  0  0  0  0  0
  179.2780  180.5330  142.3780 C   0  0  0  0  0  1  0  0  0  0  0  0
  188.6570  178.0170  139.9480 C   0  0  0  0  0  2  0  0  0  0  0  0
  190.0360  177.5860  139.4790 C   0  0  0  0  0  2  0  0  0  0  0  0
  189.9210  176.5270  138.3960 C   0  0  0  0  0  2  0  0  0  0  0  0
  191.2400  175.8750  138.1510 C   0  0  0  0  0  0  0  0  0  0  0  0
  192.3700  176.6540  137.9400 O   0  0  0  0  0  0  0  0  0  0  0  0
  191.3240  174.6200  138.1050 O   0  0  0  0  0  1  0  0  0  0  0  0
  1 14  1  0  0  0  0
  2 14  1  0  0  0  0
  3  9  1  0  0  0  0
  3 15  1  0  0  0  0
  4 19  1  0  0  0  0
  4 12  1  0  0  0  0
  5 22  1  6  0  0  0
  5  7  1  0  0  0  0
  5 10  1  0  0  0  0
  6  7  1  0  0  0  0
  6 13  1  0  0  0  0
  7  3  2  0  0  0  0
  8 13  1  0  0  0  0
  8  4  2  0  0  0  0
  9 17  1  0  0  0  0
 10 11  2  0  0  0  0
 11 16  1  0  0  0  0
 11  2  1  0  0  0  0
 12 17  2  0  0  0  0
 13  9  2  0  0  0  0
 15  2  2  0  0  0  0
 16  1  2  0  0  0  0
 18 19  1  0  0  0  0
 19 20  2  0  0  0  0
 21 18  1  0  0  0  0
 23 22  1  0  0  0  0
 24 23  1  0  0  0  0
 25 24  1  0  0  0  0
 26 25  2  0  0  0  0
 27 25  1  0  0  0  0
M  END
>  <MODEL>
7

>  <REMARK>
 VINA RESULT:      -8.0      3.008      4.628
  Name = 
  5 active torsions:
  status: ('A' for Active; 'I' for Inactive)
    1  A    between atoms: C_1  and  C_14
    2  A    between atoms: C_1  and  C_18
    3  A    between atoms: C_6  and  C_7
    4  A    between atoms: C_8  and  C_11
    5  A    between atoms: C_11  and  C_14
                            x       y       z     vdW  Elec       q    Type
                         _______ _______ _______ _____ _____    ______ ____

>  <TORSDO>
F 5

$$$$
=
 OpenBabel11032419493D

 27 30  0  0  1  0  0  0  0  0999 V2000
  190.8120  177.8050  145.6110 C   0  0  0  0  0  3  0  0  0  0  0  0
  188.5530  177.5340  144.6250 C   0  0  0  0  0  0  0  0  0  0  0  0
  186.4350  178.0260  143.3790 C   0  0  0  0  0  0  0  0  0  0  0  0
  182.3590  179.0340  143.3750 C   0  0  0  0  0  0  0  0  0  0  0  0
  188.2780  177.8440  141.6230 C   0  0  2  0  0  3  0  0  0  0  0  0
  185.6820  178.8900  141.1320 S   0  0  0  0  0  0  0  0  0  0  0  0
  186.9430  178.3100  142.1120 C   0  0  0  0  0  0  0  0  0  0  0  0
  183.1700  179.1830  142.2340 C   0  0  0  0  0  3  0  0  0  0  0  0
  185.0690  178.3290  143.4940 C   0  0  0  0  0  0  0  0  0  0  0  0
  189.3800  178.2710  142.4820 N   0  0  0  0  0  0  0  0  0  0  0  0
  189.5280  178.0540  143.7570 C   0  0  0  0  0  0  0  0  0  0  0  0
  182.9190  178.5300  144.5690 C   0  0  0  0  0  3  0  0  0  0  0  0
  184.5120  178.8270  142.3270 C   0  0  0  0  0  0  0  0  0  0  0  0
  189.3100  177.2220  146.0880 S   0  0  0  0  0  0  0  0  0  0  0  0
  187.2230  177.5070  144.5070 C   0  0  0  0  0  3  0  0  0  0  0  0
  190.7530  178.2220  144.3270 N   0  0  0  0  0  0  0  0  0  0  0  0
  184.2760  178.1740  144.6340 C   0  0  0  0  0  3  0  0  0  0  0  0
  180.4540  180.2770  142.3000 N   0  0  0  0  0  2  0  0  0  0  0  0
  180.9320  179.4010  143.3240 C   0  0  0  0  0  0  0  0  0  0  0  0
  180.1320  178.9410  144.1830 O   0  0  0  0  0  0  0  0  0  0  0  0
  179.0580  180.6660  142.2080 C   0  0  0  0  0  1  0  0  0  0  0  0
  188.5540  178.2880  140.1930 C   0  0  0  0  0  2  0  0  0  0  0  0
  189.0710  177.1220  139.3680 C   0  0  0  0  0  2  0  0  0  0  0  0
  189.7840  177.6270  138.1250 C   0  0  0  0  0  2  0  0  0  0  0  0
  188.8540  178.4100  137.2620 C   0  0  0  0  0  0  0  0  0  0  0  0
  187.9280  177.7520  136.4630 O   0  0  0  0  0  0  0  0  0  0  0  0
  188.9270  179.6660  137.2330 O   0  0  0  0  0  1  0  0  0  0  0  0
  1 14  1  0  0  0  0
  2 14  1  0  0  0  0
  3  9  1  0  0  0  0
  3 15  1  0  0  0  0
  4 12  1  0  0  0  0
  5 22  1  6  0  0  0
  5  7  1  0  0  0  0
  5 10  1  0  0  0  0
  6  7  1  0  0  0  0
  6 13  1  0  0  0  0
  7  3  2  0  0  0  0
  8 13  1  0  0  0  0
  8  4  2  0  0  0  0
  9 17  1  0  0  0  0
 10 11  2  0  0  0  0
 11 16  1  0  0  0  0
 11  2  1  0  0  0  0
 12 17  2  0  0  0  0
 13  9  2  0  0  0  0
 15  2  2  0  0  0  0
 16  1  2  0  0  0  0
 18 19  1  0  0  0  0
 19  4  1  0  0  0  0
 19 20  2  0  0  0  0
 21 18  1  0  0  0  0
 23 22  1  0  0  0  0
 24 23  1  0  0  0  0
 25 24  1  0  0  0  0
 26 25  2  0  0  0  0
 27 25  1  0  0  0  0
M  END
>  <MODEL>
8

>  <REMARK>
 VINA RESULT:      -7.9      3.511      5.213
  Name = 
  5 active torsions:
  status: ('A' for Active; 'I' for Inactive)
    1  A    between atoms: C_1  and  C_14
    2  A    between atoms: C_1  and  C_18
    3  A    between atoms: C_6  and  C_7
    4  A    between atoms: C_8  and  C_11
    5  A    between atoms: C_11  and  C_14
                            x       y       z     vdW  Elec       q    Type
                         _______ _______ _______ _____ _____    ______ ____

>  <TORSDO>
F 5

$$$$
=
 OpenBabel11032419493D

 27 30  0  0  1  0  0  0  0  0999 V2000
  183.9300  178.3130  138.8230 C   0  0  0  0  0  3  0  0  0  0  0  0
  185.7920  178.6410  140.4270 C   0  0  0  0  0  0  0  0  0  0  0  0
  187.8730  178.2290  141.7620 C   0  0  0  0  0  0  0  0  0  0  0  0
  189.7390  177.1980  145.3790 C   0  0  0  0  0  0  0  0  0  0  0  0
  188.6200  178.5520  139.3420 C   0  0  2  0  0  3  0  0  0  0  0  0
  190.2720  177.5290  141.4160 S   0  0  0  0  0  0  0  0  0  0  0  0
  188.8010  178.0430  140.7380 C   0  0  0  0  0  0  0  0  0  0  0  0
  190.4120  177.1390  144.1440 C   0  0  0  0  0  3  0  0  0  0  0  0
  188.3920  177.9100  143.0260 C   0  0  0  0  0  0  0  0  0  0  0  0
  187.3930  178.0700  138.7150 N   0  0  0  0  0  0  0  0  0  0  0  0
  186.1720  178.1930  139.1510 C   0  0  0  0  0  0  0  0  0  0  0  0
  188.3910  177.6160  145.4200 C   0  0  0  0  0  3  0  0  0  0  0  0
  189.7140  177.4960  142.9940 C   0  0  0  0  0  0  0  0  0  0  0  0
  184.1290  178.8490  140.4030 S   0  0  0  0  0  0  0  0  0  0  0  0
  186.4830  178.6680  141.5690 C   0  0  0  0  0  3  0  0  0  0  0  0
  185.1320  177.9910  138.2960 N   0  0  0  0  0  0  0  0  0  0  0  0
  187.7120  177.9750  144.2450 C   0  0  0  0  0  3  0  0  0  0  0  0
  191.6830  176.1260  146.5630 N   0  0  0  0  0  2  0  0  0  0  0  0
  190.4370  176.8270  146.6220 C   0  0  0  0  0  0  0  0  0  0  0  0
  189.9380  177.1280  147.7400 O   0  0  0  0  0  0  0  0  0  0  0  0
  192.4080  175.7400  147.7600 C   0  0  0  0  0  1  0  0  0  0  0  0
  189.8070  178.2180  138.4490 C   0  0  0  0  0  2  0  0  0  0  0  0
  189.6120  176.8600  137.7970 C   0  0  0  0  0  2  0  0  0  0  0  0
  190.9210  176.3620  137.2060 C   0  0  0  0  0  2  0  0  0  0  0  0
  191.1480  174.9300  137.5550 C   0  0  0  0  0  0  0  0  0  0  0  0
  192.4410  174.4540  137.7250 O   0  0  0  0  0  1  0  0  0  0  0  0
  190.1700  174.1450  137.6650 O   0  0  0  0  0  0  0  0  0  0  0  0
  1 14  1  0  0  0  0
  2 15  2  0  0  0  0
  3  9  1  0  0  0  0
  4 12  1  0  0  0  0
  4 19  1  0  0  0  0
  5 22  1  6  0  0  0
  5  7  1  0  0  0  0
  6 13  1  0  0  0  0
  7  6  1  0  0  0  0
  7  3  2  0  0  0  0
  8  4  2  0  0  0  0
  9 17  1  0  0  0  0
 10 11  2  0  0  0  0
 10  5  1  0  0  0  0
 11  2  1  0  0  0  0
 13  9  2  0  0  0  0
 13  8  1  0  0  0  0
 14  2  1  0  0  0  0
 15  3  1  0  0  0  0
 16  1  2  0  0  0  0
 16 11  1  0  0  0  0
 17 12  2  0  0  0  0
 18 19  1  0  0  0  0
 18 21  1  0  0  0  0
 19 20  2  0  0  0  0
 23 22  1  0  0  0  0
 24 25  1  0  0  0  0
 24 23  1  0  0  0  0
 25 27  2  0  0  0  0
 25 26  1  0  0  0  0
M  END
>  <MODEL>
9

>  <REMARK>
 VINA RESULT:      -7.8      3.731      7.571
  Name = 
  5 active torsions:
  status: ('A' for Active; 'I' for Inactive)
    1  A    between atoms: C_1  and  C_14
    2  A    between atoms: C_1  and  C_18
    3  A    between atoms: C_6  and  C_7
    4  A    between atoms: C_8  and  C_11
    5  A    between atoms: C_11  and  C_14
                            x       y       z     vdW  Elec       q    Type
                         _______ _______ _______ _____ _____    ______ ____

>  <TORSDO>
F 5

$$$$
