=
 OpenBabel11042412043D

 30 33  0  0  0  0  0  0  0  0999 V2000
  185.2680  178.2930  142.5470 C   0  0  0  0  0  3  0  0  0  0  0  0
  182.9690  178.7040  141.8770 C   0  0  0  0  0  0  0  0  0  0  0  0
  181.2400  178.9920  143.6490 N   0  0  0  0  0  2  0  0  0  0  0  0
  184.9080  178.3730  143.8990 C   0  0  0  0  0  0  0  0  0  0  0  0
  182.5920  178.7580  143.2340 C   0  0  0  0  0  0  0  0  0  0  0  0
  178.9310  178.8420  143.5220 O   0  0  0  0  0  0  0  0  0  0  0  0
  181.9670  178.9850  140.8060 C   0  0  0  0  0  2  0  0  0  0  0  0
  180.9000  177.9460  140.7990 C   0  0  0  0  0  3  0  0  0  0  0  0
  183.5660  178.6120  144.2260 C   0  0  0  0  0  3  0  0  0  0  0  0
  180.0470  177.8200  141.7680 N   0  0  0  0  0  0  0  0  0  0  0  0
  180.0360  178.5900  142.9780 C   0  0  0  0  0  0  0  0  0  0  0  0
  184.3170  178.4580  141.5400 C   0  0  0  0  0  0  0  0  0  0  0  0
  190.0430  177.3050  147.7170 C   0  0  0  0  0  3  0  0  0  0  0  0
  187.2190  177.7580  144.6550 C   0  0  0  0  0  3  0  0  0  0  0  0
  187.8120  177.9040  146.9960 C   0  0  0  0  0  0  0  0  0  0  0  0
  189.4580  177.1550  145.3690 C   0  0  0  0  0  3  0  0  0  0  0  0
  188.7530  177.7540  148.0180 C   0  0  0  0  0  3  0  0  0  0  0  0
  185.6190  178.4940  146.3030 C   0  0  0  0  0  3  0  0  0  0  0  0
  188.1680  177.6030  145.6650 C   0  0  0  0  0  0  0  0  0  0  0  0
  190.3950  177.0070  146.3970 C   0  0  0  0  0  3  0  0  0  0  0  0
  185.9260  178.2070  144.9630 C   0  0  0  0  0  0  0  0  0  0  0  0
  186.5550  178.3390  147.2790 N   0  0  0  0  0  0  0  0  0  0  0  0
  185.1160  178.3200  139.0210 C   0  0  0  0  0  0  0  0  0  0  0  0
  184.7490  178.3840  140.1680 C   0  0  0  0  0  0  0  0  0  0  0  0
  185.5670  178.2410  137.6290 C   0  0  0  0  0  2  0  0  0  0  0  0
  187.0500  178.4000  137.5540 C   0  0  0  0  0  0  0  0  0  0  0  0
  187.5410  179.2710  136.8520 O   0  0  0  0  0  0  0  0  0  0  0  0
  187.9310  177.4860  138.3420 C   0  0  0  0  0  2  0  0  0  0  0  0
  188.4690  178.2830  140.6220 C   0  0  0  0  0  1  0  0  0  0  0  0
  188.9130  178.2880  139.1740 C   0  0  0  0  0  2  0  0  0  0  0  0
  1  4  1  0  0  0  0
  2  5  2  0  0  0  0
  4  9  2  0  0  0  0
  4 21  1  0  0  0  0
  5  3  1  0  0  0  0
  5  9  1  0  0  0  0
  7  2  1  0  0  0  0
  8  7  1  0  0  0  0
  8 10  2  0  0  0  0
 10 11  1  0  0  0  0
 11  6  2  0  0  0  0
 11  3  1  0  0  0  0
 12  2  1  0  0  0  0
 12  1  2  0  0  0  0
 13 17  1  0  0  0  0
 14 21  2  0  0  0  0
 14 19  1  0  0  0  0
 15 22  1  0  0  0  0
 15 17  2  0  0  0  0
 16 19  2  0  0  0  0
 16 20  1  0  0  0  0
 18 22  2  0  0  0  0
 19 15  1  0  0  0  0
 20 13  2  0  0  0  0
 21 18  1  0  0  0  0
 23 24  3  0  0  0  0
 24 12  1  0  0  0  0
 25 23  1  0  0  0  0
 26 25  1  0  0  0  0
 26 28  1  0  0  0  0
 27 26  2  0  0  0  0
 28 30  1  0  0  0  0
 30 29  1  0  0  0  0
M  END
>  <MODEL>
1

>  <REMARK>
 VINA RESULT:      -9.6      0.000      0.000
  Name = 
  6 active torsions:
  status: ('A' for Active; 'I' for Inactive)
    1  A    between atoms: C_2  and  C_27
    2  A    between atoms: C_2  and  C_28
    3  A    between atoms: C_9  and  C_18
    4  A    between atoms: C_9  and  C_27
    5  A    between atoms: C_10  and  C_21
    6  A    between atoms: C_20  and  C_29
                            x       y       z     vdW  Elec       q    Type
                         _______ _______ _______ _____ _____    ______ ____

>  <TORSDO>
F 6

$$$$
=
 OpenBabel11042412043D

 30 33  0  0  0  0  0  0  0  0999 V2000
  187.4420  177.8200  143.3700 C   0  0  0  0  0  3  0  0  0  0  0  0
  189.1360  177.9180  141.6310 C   0  0  0  0  0  0  0  0  0  0  0  0
  188.4530  178.6020  139.3340 N   0  0  0  0  0  2  0  0  0  0  0  0
  186.4640  178.2550  142.4670 C   0  0  0  0  0  0  0  0  0  0  0  0
  188.1530  178.3280  140.7080 C   0  0  0  0  0  0  0  0  0  0  0  0
  189.5340  178.3120  137.3040 O   0  0  0  0  0  0  0  0  0  0  0  0
  190.5700  177.8420  141.2190 C   0  0  0  0  0  2  0  0  0  0  0  0
  190.7630  176.7920  140.1810 C   0  0  0  0  0  3  0  0  0  0  0  0
  186.8360  178.5090  141.1400 C   0  0  0  0  0  3  0  0  0  0  0  0
  190.2730  176.8990  138.9850 N   0  0  0  0  0  0  0  0  0  0  0  0
  189.4480  177.9730  138.5120 C   0  0  0  0  0  0  0  0  0  0  0  0
  188.7680  177.6520  142.9660 C   0  0  0  0  0  0  0  0  0  0  0  0
  180.0680  178.9770  143.2870 C   0  0  0  0  0  3  0  0  0  0  0  0
  184.0110  178.4410  141.9740 C   0  0  0  0  0  3  0  0  0  0  0  0
  182.4330  178.7950  143.7720 C   0  0  0  0  0  0  0  0  0  0  0  0
  181.6430  178.6220  141.4780 C   0  0  0  0  0  3  0  0  0  0  0  0
  181.1180  178.9740  144.2120 C   0  0  0  0  0  3  0  0  0  0  0  0
  184.7490  178.6200  144.2630 C   0  0  0  0  0  3  0  0  0  0  0  0
  182.6950  178.6180  142.3980 C   0  0  0  0  0  0  0  0  0  0  0  0
  180.3300  178.8010  141.9240 C   0  0  0  0  0  3  0  0  0  0  0  0
  185.0600  178.4400  142.9060 C   0  0  0  0  0  0  0  0  0  0  0  0
  183.4600  178.7910  144.6640 N   0  0  0  0  0  0  0  0  0  0  0  0
  190.5450  176.8650  144.7630 C   0  0  0  0  0  0  0  0  0  0  0  0
  189.7340  177.2210  143.9430 C   0  0  0  0  0  0  0  0  0  0  0  0
  191.5300  176.4390  145.7600 C   0  0  0  0  0  2  0  0  0  0  0  0
  191.0410  176.7440  147.1380 C   0  0  0  0  0  0  0  0  0  0  0  0
  191.8170  177.1430  147.9920 O   0  0  0  0  0  0  0  0  0  0  0  0
  189.5950  176.5580  147.4650 C   0  0  0  0  0  2  0  0  0  0  0  0
  187.6010  177.9940  147.1850 C   0  0  0  0  0  1  0  0  0  0  0  0
  188.9630  177.8840  147.8370 C   0  0  0  0  0  2  0  0  0  0  0  0
  2 12  2  0  0  0  0
  3  5  1  0  0  0  0
  4 21  1  0  0  0  0
  4  1  2  0  0  0  0
  5  9  2  0  0  0  0
  5  2  1  0  0  0  0
  6 11  2  0  0  0  0
  7  2  1  0  0  0  0
  8  7  1  0  0  0  0
  9  4  1  0  0  0  0
 10  8  2  0  0  0  0
 11 10  1  0  0  0  0
 11  3  1  0  0  0  0
 12  1  1  0  0  0  0
 12 24  1  0  0  0  0
 13 17  1  0  0  0  0
 14 19  1  0  0  0  0
 14 21  2  0  0  0  0
 15 17  2  0  0  0  0
 15 22  1  0  0  0  0
 16 20  1  0  0  0  0
 16 19  2  0  0  0  0
 18 22  2  0  0  0  0
 19 15  1  0  0  0  0
 20 13  2  0  0  0  0
 21 18  1  0  0  0  0
 23 25  1  0  0  0  0
 24 23  3  0  0  0  0
 25 26  1  0  0  0  0
 26 28  1  0  0  0  0
 26 27  2  0  0  0  0
 28 30  1  0  0  0  0
 29 30  1  0  0  0  0
M  END
>  <MODEL>
2

>  <REMARK>
 VINA RESULT:      -9.4      3.412      8.055
  Name = 
  6 active torsions:
  status: ('A' for Active; 'I' for Inactive)
    1  A    between atoms: C_2  and  C_27
    2  A    between atoms: C_2  and  C_28
    3  A    between atoms: C_9  and  C_18
    4  A    between atoms: C_9  and  C_27
    5  A    between atoms: C_10  and  C_21
    6  A    between atoms: C_20  and  C_29
                            x       y       z     vdW  Elec       q    Type
                         _______ _______ _______ _____ _____    ______ ____

>  <TORSDO>
F 6

$$$$
=
 OpenBabel11042412043D

 30 33  0  0  0  0  0  0  0  0999 V2000
  188.0810  177.6970  142.9330 C   0  0  0  0  0  3  0  0  0  0  0  0
  188.9470  177.6700  145.2020 C   0  0  0  0  0  0  0  0  0  0  0  0
  191.3650  177.1790  145.5530 N   0  0  0  0  0  2  0  0  0  0  0  0
  189.3560  177.4200  142.4230 C   0  0  0  0  0  0  0  0  0  0  0  0
  190.2280  177.3630  144.7010 C   0  0  0  0  0  0  0  0  0  0  0  0
  192.4930  176.5090  147.4650 O   0  0  0  0  0  0  0  0  0  0  0  0
  188.7490  177.9080  146.6640 C   0  0  0  0  0  2  0  0  0  0  0  0
  189.0190  176.6660  147.4400 C   0  0  0  0  0  3  0  0  0  0  0  0
  190.4210  177.2610  143.3200 C   0  0  0  0  0  3  0  0  0  0  0  0
  190.2050  176.1510  147.5360 N   0  0  0  0  0  0  0  0  0  0  0  0
  191.3850  176.6420  146.8850 C   0  0  0  0  0  0  0  0  0  0  0  0
  187.8690  177.8250  144.3060 C   0  0  0  0  0  0  0  0  0  0  0  0
  189.3420  177.4510  135.9350 C   0  0  0  0  0  3  0  0  0  0  0  0
  188.6620  177.8480  140.0500 C   0  0  0  0  0  3  0  0  0  0  0  0
  190.0210  177.0370  138.2210 C   0  0  0  0  0  0  0  0  0  0  0  0
  187.9740  178.2680  137.7630 C   0  0  0  0  0  3  0  0  0  0  0  0
  190.2490  176.9040  136.8490 C   0  0  0  0  0  3  0  0  0  0  0  0
  190.6990  176.6220  140.4580 C   0  0  0  0  0  3  0  0  0  0  0  0
  188.8770  177.7230  138.6790 C   0  0  0  0  0  0  0  0  0  0  0  0
  188.2080  178.1320  136.3900 C   0  0  0  0  0  3  0  0  0  0  0  0
  189.5750  177.2960  140.9620 C   0  0  0  0  0  0  0  0  0  0  0  0
  190.8970  176.5070  139.1170 N   0  0  0  0  0  0  0  0  0  0  0  0
  185.4270  178.3870  145.1570 C   0  0  0  0  0  0  0  0  0  0  0  0
  186.5400  178.1290  144.7710 C   0  0  0  0  0  0  0  0  0  0  0  0
  184.0730  178.7030  145.6200 C   0  0  0  0  0  2  0  0  0  0  0  0
  183.1590  178.8990  144.4550 C   0  0  0  0  0  0  0  0  0  0  0  0
  181.9890  178.5530  144.5260 O   0  0  0  0  0  0  0  0  0  0  0  0
  183.6830  179.5190  143.2010 C   0  0  0  0  0  2  0  0  0  0  0  0
  184.9820  178.7620  141.2360 C   0  0  0  0  0  1  0  0  0  0  0  0
  183.7660  178.4850  142.0960 C   0  0  0  0  0  2  0  0  0  0  0  0
  1 12  1  0  0  0  0
  2  7  1  0  0  0  0
  3 11  1  0  0  0  0
  4  1  2  0  0  0  0
  4  9  1  0  0  0  0
  5  2  1  0  0  0  0
  5  3  1  0  0  0  0
  7  8  1  0  0  0  0
  8 10  2  0  0  0  0
  9  5  2  0  0  0  0
 11  6  2  0  0  0  0
 11 10  1  0  0  0  0
 12 24  1  0  0  0  0
 12  2  2  0  0  0  0
 13 20  2  0  0  0  0
 13 17  1  0  0  0  0
 14 21  2  0  0  0  0
 15 19  1  0  0  0  0
 15 22  1  0  0  0  0
 16 19  2  0  0  0  0
 17 15  2  0  0  0  0
 18 21  1  0  0  0  0
 19 14  1  0  0  0  0
 20 16  1  0  0  0  0
 21  4  1  0  0  0  0
 22 18  2  0  0  0  0
 23 25  1  0  0  0  0
 24 23  3  0  0  0  0
 26 27  2  0  0  0  0
 26 25  1  0  0  0  0
 28 26  1  0  0  0  0
 29 30  1  0  0  0  0
 30 28  1  0  0  0  0
M  END
>  <MODEL>
3

>  <REMARK>
 VINA RESULT:      -9.1      3.687      8.474
  Name = 
  6 active torsions:
  status: ('A' for Active; 'I' for Inactive)
    1  A    between atoms: C_2  and  C_27
    2  A    between atoms: C_2  and  C_28
    3  A    between atoms: C_9  and  C_18
    4  A    between atoms: C_9  and  C_27
    5  A    between atoms: C_10  and  C_21
    6  A    between atoms: C_20  and  C_29
                            x       y       z     vdW  Elec       q    Type
                         _______ _______ _______ _____ _____    ______ ____

>  <TORSDO>
F 6

$$$$
=
 OpenBabel11042412043D

 30 33  0  0  0  0  0  0  0  0999 V2000
  187.3910  177.7290  142.3180 C   0  0  0  0  0  3  0  0  0  0  0  0
  189.3620  177.0220  143.5510 C   0  0  0  0  0  0  0  0  0  0  0  0
  189.2210  176.8510  146.0330 N   0  0  0  0  0  2  0  0  0  0  0  0
  186.6570  177.8190  143.5070 C   0  0  0  0  0  0  0  0  0  0  0  0
  188.6390  177.1370  144.7550 C   0  0  0  0  0  0  0  0  0  0  0  0
  190.9050  176.7760  147.6240 O   0  0  0  0  0  0  0  0  0  0  0  0
  190.7600  176.4970  143.5590 C   0  0  0  0  0  2  0  0  0  0  0  0
  191.6640  177.4260  144.2930 C   0  0  0  0  0  3  0  0  0  0  0  0
  187.2940  177.5150  144.7180 C   0  0  0  0  0  3  0  0  0  0  0  0
  191.5730  177.6190  145.5720 N   0  0  0  0  0  0  0  0  0  0  0  0
  190.5860  177.0400  146.4370 C   0  0  0  0  0  0  0  0  0  0  0  0
  188.7300  177.3330  142.3280 C   0  0  0  0  0  0  0  0  0  0  0  0
  180.4810  179.4040  142.3050 C   0  0  0  0  0  3  0  0  0  0  0  0
  184.5000  178.2190  142.2890 C   0  0  0  0  0  3  0  0  0  0  0  0
  182.5570  179.0170  143.4880 C   0  0  0  0  0  0  0  0  0  0  0  0
  182.4240  178.6040  141.0950 C   0  0  0  0  0  3  0  0  0  0  0  0
  181.2170  179.4130  143.4940 C   0  0  0  0  0  3  0  0  0  0  0  0
  184.5860  178.6440  144.6620 C   0  0  0  0  0  3  0  0  0  0  0  0
  183.1620  178.6110  142.2810 C   0  0  0  0  0  0  0  0  0  0  0  0
  181.0830  179.0010  141.1080 C   0  0  0  0  0  3  0  0  0  0  0  0
  185.2330  178.2310  143.4860 C   0  0  0  0  0  0  0  0  0  0  0  0
  183.2800  179.0240  144.6400 N   0  0  0  0  0  0  0  0  0  0  0  0
  190.0190  177.1640  140.0230 C   0  0  0  0  0  0  0  0  0  0  0  0
  189.4290  177.2390  141.0730 C   0  0  0  0  0  0  0  0  0  0  0  0
  190.7400  177.0740  138.7510 C   0  0  0  0  0  2  0  0  0  0  0  0
  189.8330  177.4150  137.6150 C   0  0  0  0  0  0  0  0  0  0  0  0
  189.7050  176.6430  136.6760 O   0  0  0  0  0  0  0  0  0  0  0  0
  189.0820  178.7070  137.6310 C   0  0  0  0  0  2  0  0  0  0  0  0
  186.7540  177.9900  138.0590 C   0  0  0  0  0  1  0  0  0  0  0  0
  187.7090  178.5270  137.0140 C   0  0  0  0  0  2  0  0  0  0  0  0
  1 12  2  0  0  0  0
  1  4  1  0  0  0  0
  2  7  1  0  0  0  0
  2  5  2  0  0  0  0
  3 11  1  0  0  0  0
  4  9  2  0  0  0  0
  5  3  1  0  0  0  0
  7  8  1  0  0  0  0
  8 10  2  0  0  0  0
  9  5  1  0  0  0  0
 10 11  1  0  0  0  0
 11  6  2  0  0  0  0
 12  2  1  0  0  0  0
 13 17  1  0  0  0  0
 14 21  2  0  0  0  0
 15 17  2  0  0  0  0
 15 22  1  0  0  0  0
 16 20  1  0  0  0  0
 16 19  2  0  0  0  0
 19 14  1  0  0  0  0
 19 15  1  0  0  0  0
 20 13  2  0  0  0  0
 21  4  1  0  0  0  0
 21 18  1  0  0  0  0
 22 18  2  0  0  0  0
 23 24  3  0  0  0  0
 24 12  1  0  0  0  0
 25 23  1  0  0  0  0
 26 28  1  0  0  0  0
 26 25  1  0  0  0  0
 27 26  2  0  0  0  0
 30 28  1  0  0  0  0
 30 29  1  0  0  0  0
M  END
>  <MODEL>
4

>  <REMARK>
 VINA RESULT:      -9.0      2.931      7.056
  Name = 
  6 active torsions:
  status: ('A' for Active; 'I' for Inactive)
    1  A    between atoms: C_2  and  C_27
    2  A    between atoms: C_2  and  C_28
    3  A    between atoms: C_9  and  C_18
    4  A    between atoms: C_9  and  C_27
    5  A    between atoms: C_10  and  C_21
    6  A    between atoms: C_20  and  C_29
                            x       y       z     vdW  Elec       q    Type
                         _______ _______ _______ _____ _____    ______ ____

>  <TORSDO>
F 6

$$$$
=
 OpenBabel11042412043D

 30 33  0  0  0  0  0  0  0  0999 V2000
  184.8400  178.0670  142.0570 C   0  0  0  0  0  3  0  0  0  0  0  0
  182.4830  178.6310  141.8910 C   0  0  0  0  0  0  0  0  0  0  0  0
  181.2280  179.1550  143.9790 N   0  0  0  0  0  2  0  0  0  0  0  0
  184.8050  178.2490  143.4450 C   0  0  0  0  0  0  0  0  0  0  0  0
  182.4310  178.7890  143.2900 C   0  0  0  0  0  0  0  0  0  0  0  0
  178.9460  179.1910  144.3840 O   0  0  0  0  0  0  0  0  0  0  0  0
  181.2840  178.9360  141.0530 C   0  0  0  0  0  2  0  0  0  0  0  0
  180.1750  177.9910  141.3600 C   0  0  0  0  0  3  0  0  0  0  0  0
  183.5930  178.6150  144.0470 C   0  0  0  0  0  3  0  0  0  0  0  0
  179.5590  177.9880  142.5010 N   0  0  0  0  0  0  0  0  0  0  0  0
  179.8780  178.8200  143.6250 C   0  0  0  0  0  0  0  0  0  0  0  0
  183.6970  178.2560  141.2790 C   0  0  0  0  0  0  0  0  0  0  0  0
  189.4870  177.6910  147.9010 C   0  0  0  0  0  3  0  0  0  0  0  0
  185.9950  178.2470  145.6540 C   0  0  0  0  0  3  0  0  0  0  0  0
  188.3460  177.6870  145.7670 C   0  0  0  0  0  0  0  0  0  0  0  0
  187.1310  178.2530  147.7970 C   0  0  0  0  0  3  0  0  0  0  0  0
  189.5110  177.5010  146.5160 C   0  0  0  0  0  3  0  0  0  0  0  0
  187.2400  177.6800  143.6670 C   0  0  0  0  0  3  0  0  0  0  0  0
  187.1500  178.0650  146.4130 C   0  0  0  0  0  0  0  0  0  0  0  0
  188.3010  178.0650  148.5410 C   0  0  0  0  0  3  0  0  0  0  0  0
  186.0260  178.0560  144.2640 C   0  0  0  0  0  0  0  0  0  0  0  0
  188.3600  177.5060  144.4190 N   0  0  0  0  0  0  0  0  0  0  0  0
  183.8800  177.9150  138.6610 C   0  0  0  0  0  0  0  0  0  0  0  0
  183.7980  178.0730  139.8540 C   0  0  0  0  0  0  0  0  0  0  0  0
  183.9750  177.7190  137.2120 C   0  0  0  0  0  2  0  0  0  0  0  0
  185.3750  177.3660  136.8260 C   0  0  0  0  0  0  0  0  0  0  0  0
  185.5970  176.3600  136.1700 O   0  0  0  0  0  0  0  0  0  0  0  0
  186.5020  178.2510  137.2500 C   0  0  0  0  0  2  0  0  0  0  0  0
  188.0400  178.2180  139.1870 C   0  0  0  0  0  1  0  0  0  0  0  0
  187.5600  177.4450  137.9760 C   0  0  0  0  0  2  0  0  0  0  0  0
  1  4  1  0  0  0  0
  2  5  2  0  0  0  0
  4  9  2  0  0  0  0
  4 21  1  0  0  0  0
  5  3  1  0  0  0  0
  5  9  1  0  0  0  0
  7  8  1  0  0  0  0
  7  2  1  0  0  0  0
  8 10  2  0  0  0  0
 10 11  1  0  0  0  0
 11  3  1  0  0  0  0
 11  6  2  0  0  0  0
 12  2  1  0  0  0  0
 12  1  2  0  0  0  0
 13 20  1  0  0  0  0
 14 19  1  0  0  0  0
 15 19  2  0  0  0  0
 15 17  1  0  0  0  0
 16 20  2  0  0  0  0
 17 13  2  0  0  0  0
 18 21  1  0  0  0  0
 18 22  2  0  0  0  0
 19 16  1  0  0  0  0
 21 14  2  0  0  0  0
 22 15  1  0  0  0  0
 23 24  3  0  0  0  0
 24 12  1  0  0  0  0
 25 23  1  0  0  0  0
 26 25  1  0  0  0  0
 26 28  1  0  0  0  0
 27 26  2  0  0  0  0
 28 30  1  0  0  0  0
 30 29  1  0  0  0  0
M  END
>  <MODEL>
5

>  <REMARK>
 VINA RESULT:      -8.9      1.225      1.766
  Name = 
  6 active torsions:
  status: ('A' for Active; 'I' for Inactive)
    1  A    between atoms: C_2  and  C_27
    2  A    between atoms: C_2  and  C_28
    3  A    between atoms: C_9  and  C_18
    4  A    between atoms: C_9  and  C_27
    5  A    between atoms: C_10  and  C_21
    6  A    between atoms: C_20  and  C_29
                            x       y       z     vdW  Elec       q    Type
                         _______ _______ _______ _____ _____    ______ ____

>  <TORSDO>
F 6

$$$$
=
 OpenBabel11042412043D

 30 33  0  0  0  0  0  0  0  0999 V2000
  185.2430  178.4300  142.7520 C   0  0  0  0  0  3  0  0  0  0  0  0
  182.9150  178.8200  142.1780 C   0  0  0  0  0  0  0  0  0  0  0  0
  181.2400  178.9780  144.0160 N   0  0  0  0  0  2  0  0  0  0  0  0
  184.9260  178.4340  144.1170 C   0  0  0  0  0  0  0  0  0  0  0  0
  182.5820  178.7980  143.5470 C   0  0  0  0  0  0  0  0  0  0  0  0
  178.9310  178.7800  143.9560 O   0  0  0  0  0  0  0  0  0  0  0  0
  181.8720  179.1310  141.1540 C   0  0  0  0  0  2  0  0  0  0  0  0
  180.8290  178.0690  141.1300 C   0  0  0  0  0  3  0  0  0  0  0  0
  183.5910  178.6240  144.4980 C   0  0  0  0  0  3  0  0  0  0  0  0
  180.0110  177.8750  142.1170 N   0  0  0  0  0  0  0  0  0  0  0  0
  180.0230  178.5820  143.3650 C   0  0  0  0  0  0  0  0  0  0  0  0
  184.2560  178.6230  141.7850 C   0  0  0  0  0  0  0  0  0  0  0  0
  190.1900  177.2390  147.7170 C   0  0  0  0  0  3  0  0  0  0  0  0
  187.2560  177.7740  144.7740 C   0  0  0  0  0  3  0  0  0  0  0  0
  187.9420  177.8810  147.0910 C   0  0  0  0  0  0  0  0  0  0  0  0
  189.5110  177.1290  145.3920 C   0  0  0  0  0  3  0  0  0  0  0  0
  188.9190  177.7030  148.0730 C   0  0  0  0  0  3  0  0  0  0  0  0
  185.7330  178.5120  146.4930 C   0  0  0  0  0  3  0  0  0  0  0  0
  188.2410  177.5920  145.7440 C   0  0  0  0  0  0  0  0  0  0  0  0
  190.4860  176.9530  146.3800 C   0  0  0  0  0  3  0  0  0  0  0  0
  185.9830  178.2390  145.1380 C   0  0  0  0  0  0  0  0  0  0  0  0
  186.7040  178.3310  147.4290 N   0  0  0  0  0  0  0  0  0  0  0  0
  184.9710  178.6270  139.2370 C   0  0  0  0  0  0  0  0  0  0  0  0
  184.6440  178.6280  140.3980 C   0  0  0  0  0  0  0  0  0  0  0  0
  185.3690  178.6200  137.8270 C   0  0  0  0  0  2  0  0  0  0  0  0
  185.1400  177.2700  137.2300 C   0  0  0  0  0  0  0  0  0  0  0  0
  186.0220  176.4250  137.2640 O   0  0  0  0  0  0  0  0  0  0  0  0
  183.8270  176.9600  136.5880 C   0  0  0  0  0  2  0  0  0  0  0  0
  182.8790  175.4970  138.3430 C   0  0  0  0  0  1  0  0  0  0  0  0
  182.7440  176.8310  137.6400 C   0  0  0  0  0  2  0  0  0  0  0  0
  1  4  1  0  0  0  0
  2  5  2  0  0  0  0
  4  9  2  0  0  0  0
  4 21  1  0  0  0  0
  5  3  1  0  0  0  0
  5  9  1  0  0  0  0
  7  2  1  0  0  0  0
  8  7  1  0  0  0  0
  8 10  2  0  0  0  0
 10 11  1  0  0  0  0
 11  6  2  0  0  0  0
 11  3  1  0  0  0  0
 12  2  1  0  0  0  0
 12  1  2  0  0  0  0
 13 17  1  0  0  0  0
 14 21  2  0  0  0  0
 14 19  1  0  0  0  0
 15 22  1  0  0  0  0
 15 17  2  0  0  0  0
 16 19  2  0  0  0  0
 16 20  1  0  0  0  0
 18 22  2  0  0  0  0
 19 15  1  0  0  0  0
 20 13  2  0  0  0  0
 21 18  1  0  0  0  0
 23 24  3  0  0  0  0
 24 12  1  0  0  0  0
 25 23  1  0  0  0  0
 26 27  2  0  0  0  0
 26 25  1  0  0  0  0
 28 26  1  0  0  0  0
 28 30  1  0  0  0  0
 30 29  1  0  0  0  0
M  END
>  <MODEL>
6

>  <REMARK>
 VINA RESULT:      -8.7      1.323      2.039
  Name = 
  6 active torsions:
  status: ('A' for Active; 'I' for Inactive)
    1  A    between atoms: C_2  and  C_27
    2  A    between atoms: C_2  and  C_28
    3  A    between atoms: C_9  and  C_18
    4  A    between atoms: C_9  and  C_27
    5  A    between atoms: C_10  and  C_21
    6  A    between atoms: C_20  and  C_29
                            x       y       z     vdW  Elec       q    Type
                         _______ _______ _______ _____ _____    ______ ____

>  <TORSDO>
F 6

$$$$
=
 OpenBabel11042412043D

 30 33  0  0  0  0  0  0  0  0999 V2000
  184.8370  178.1110  142.1090 C   0  0  0  0  0  3  0  0  0  0  0  0
  182.4680  178.6330  141.9800 C   0  0  0  0  0  0  0  0  0  0  0  0
  181.2240  179.0790  144.0930 N   0  0  0  0  0  2  0  0  0  0  0  0
  184.8120  178.2570  143.5020 C   0  0  0  0  0  0  0  0  0  0  0  0
  182.4260  178.7540  143.3830 C   0  0  0  0  0  0  0  0  0  0  0  0
  178.9460  179.0600  144.5200 O   0  0  0  0  0  0  0  0  0  0  0  0
  181.2550  178.9360  141.1620 C   0  0  0  0  0  2  0  0  0  0  0  0
  180.1680  177.9620  141.4540 C   0  0  0  0  0  3  0  0  0  0  0  0
  183.5990  178.5830  144.1240 C   0  0  0  0  0  3  0  0  0  0  0  0
  179.5630  177.9180  142.6000 N   0  0  0  0  0  0  0  0  0  0  0  0
  179.8770  178.7260  143.7430 C   0  0  0  0  0  0  0  0  0  0  0  0
  183.6830  178.2970  141.3470 C   0  0  0  0  0  0  0  0  0  0  0  0
  189.5530  177.6950  147.8960 C   0  0  0  0  0  3  0  0  0  0  0  0
  186.0290  178.2420  145.6960 C   0  0  0  0  0  3  0  0  0  0  0  0
  188.3850  177.7030  145.7750 C   0  0  0  0  0  0  0  0  0  0  0  0
  187.1900  178.2370  147.8260 C   0  0  0  0  0  3  0  0  0  0  0  0
  189.5610  177.5200  146.5080 C   0  0  0  0  0  3  0  0  0  0  0  0
  187.2540  177.7080  143.6880 C   0  0  0  0  0  3  0  0  0  0  0  0
  187.1950  178.0630  146.4390 C   0  0  0  0  0  0  0  0  0  0  0  0
  188.3710  178.0520  148.5530 C   0  0  0  0  0  3  0  0  0  0  0  0
  186.0440  178.0660  144.3040 C   0  0  0  0  0  0  0  0  0  0  0  0
  188.3850  177.5360  144.4260 N   0  0  0  0  0  0  0  0  0  0  0  0
  183.8520  178.0280  138.7200 C   0  0  0  0  0  0  0  0  0  0  0  0
  183.7730  178.1530  139.9170 C   0  0  0  0  0  0  0  0  0  0  0  0
  183.9520  177.8710  137.2660 C   0  0  0  0  0  2  0  0  0  0  0  0
  182.6130  177.5500  136.6860 C   0  0  0  0  0  0  0  0  0  0  0  0
  182.5290  176.9100  135.6490 O   0  0  0  0  0  0  0  0  0  0  0  0
  181.3760  178.0200  137.3810 C   0  0  0  0  0  2  0  0  0  0  0  0
  181.3030  180.4790  137.6450 C   0  0  0  0  0  1  0  0  0  0  0  0
  180.8870  179.3170  136.7670 C   0  0  0  0  0  2  0  0  0  0  0  0
  1  4  1  0  0  0  0
  2  5  2  0  0  0  0
  4  9  2  0  0  0  0
  4 21  1  0  0  0  0
  5  3  1  0  0  0  0
  5  9  1  0  0  0  0
  7  8  1  0  0  0  0
  7  2  1  0  0  0  0
  8 10  2  0  0  0  0
 10 11  1  0  0  0  0
 11  3  1  0  0  0  0
 11  6  2  0  0  0  0
 12  2  1  0  0  0  0
 12  1  2  0  0  0  0
 13 20  1  0  0  0  0
 14 19  1  0  0  0  0
 15 19  2  0  0  0  0
 15 17  1  0  0  0  0
 16 20  2  0  0  0  0
 17 13  2  0  0  0  0
 18 21  1  0  0  0  0
 18 22  2  0  0  0  0
 19 16  1  0  0  0  0
 21 14  2  0  0  0  0
 22 15  1  0  0  0  0
 23 24  3  0  0  0  0
 24 12  1  0  0  0  0
 25 23  1  0  0  0  0
 26 25  1  0  0  0  0
 26 28  1  0  0  0  0
 27 26  2  0  0  0  0
 30 28  1  0  0  0  0
 30 29  1  0  0  0  0
M  END
>  <MODEL>
7

>  <REMARK>
 VINA RESULT:      -8.6      2.030      3.162
  Name = 
  6 active torsions:
  status: ('A' for Active; 'I' for Inactive)
    1  A    between atoms: C_2  and  C_27
    2  A    between atoms: C_2  and  C_28
    3  A    between atoms: C_9  and  C_18
    4  A    between atoms: C_9  and  C_27
    5  A    between atoms: C_10  and  C_21
    6  A    between atoms: C_20  and  C_29
                            x       y       z     vdW  Elec       q    Type
                         _______ _______ _______ _____ _____    ______ ____

>  <TORSDO>
F 6

$$$$
=
 OpenBabel11042412043D

 30 33  0  0  0  0  0  0  0  0999 V2000
  186.1910  178.2720  142.7550 C   0  0  0  0  0  3  0  0  0  0  0  0
  188.2850  178.1020  141.5350 C   0  0  0  0  0  0  0  0  0  0  0  0
  188.2600  178.4260  139.0650 N   0  0  0  0  0  2  0  0  0  0  0  0
  185.5040  178.5630  141.5700 C   0  0  0  0  0  0  0  0  0  0  0  0
  187.5970  178.3660  140.3340 C   0  0  0  0  0  0  0  0  0  0  0  0
  189.8240  177.8290  137.4620 O   0  0  0  0  0  0  0  0  0  0  0  0
  189.7730  177.9630  141.5360 C   0  0  0  0  0  2  0  0  0  0  0  0
  190.1890  176.7670  140.7530 C   0  0  0  0  0  3  0  0  0  0  0  0
  186.2220  178.6120  140.3680 C   0  0  0  0  0  3  0  0  0  0  0  0
  190.0360  176.6890  139.4680 N   0  0  0  0  0  0  0  0  0  0  0  0
  189.4090  177.6780  138.6390 C   0  0  0  0  0  0  0  0  0  0  0  0
  187.5680  178.0440  142.7490 C   0  0  0  0  0  0  0  0  0  0  0  0
  179.1720  179.3670  142.7360 C   0  0  0  0  0  3  0  0  0  0  0  0
  183.3000  178.6480  142.7660 C   0  0  0  0  0  3  0  0  0  0  0  0
  181.2950  179.2910  141.5760 C   0  0  0  0  0  0  0  0  0  0  0  0
  181.1770  178.7220  143.9380 C   0  0  0  0  0  3  0  0  0  0  0  0
  179.9180  179.5310  141.5650 C   0  0  0  0  0  3  0  0  0  0  0  0
  183.3690  179.2190  140.4240 C   0  0  0  0  0  3  0  0  0  0  0  0
  181.9260  178.8840  142.7690 C   0  0  0  0  0  0  0  0  0  0  0  0
  179.7990  178.9640  143.9200 C   0  0  0  0  0  3  0  0  0  0  0  0
  184.0430  178.8140  141.5870 C   0  0  0  0  0  0  0  0  0  0  0  0
  182.0270  179.4470  140.4410 N   0  0  0  0  0  0  0  0  0  0  0  0
  188.7730  177.5310  145.0480 C   0  0  0  0  0  0  0  0  0  0  0  0
  188.2250  177.7680  144.0000 C   0  0  0  0  0  0  0  0  0  0  0  0
  189.4380  177.2380  146.3210 C   0  0  0  0  0  2  0  0  0  0  0  0
  188.6120  177.7300  147.4640 C   0  0  0  0  0  0  0  0  0  0  0  0
  189.1440  178.2860  148.4130 O   0  0  0  0  0  0  0  0  0  0  0  0
  187.1310  177.5380  147.4400 C   0  0  0  0  0  2  0  0  0  0  0  0
  185.2380  178.6660  146.3160 C   0  0  0  0  0  1  0  0  0  0  0  0
  186.4300  178.8650  147.2280 C   0  0  0  0  0  2  0  0  0  0  0  0
  2  7  1  0  0  0  0
  2 12  2  0  0  0  0
  3  5  1  0  0  0  0
  4 21  1  0  0  0  0
  4  1  2  0  0  0  0
  5  9  2  0  0  0  0
  5  2  1  0  0  0  0
  6 11  2  0  0  0  0
  8  7  1  0  0  0  0
  9  4  1  0  0  0  0
 10  8  2  0  0  0  0
 11  3  1  0  0  0  0
 11 10  1  0  0  0  0
 12  1  1  0  0  0  0
 12 24  1  0  0  0  0
 13 20  1  0  0  0  0
 14 19  1  0  0  0  0
 15 19  2  0  0  0  0
 17 15  1  0  0  0  0
 17 13  2  0  0  0  0
 18 22  2  0  0  0  0
 18 21  1  0  0  0  0
 19 16  1  0  0  0  0
 20 16  2  0  0  0  0
 21 14  2  0  0  0  0
 22 15  1  0  0  0  0
 23 25  1  0  0  0  0
 24 23  3  0  0  0  0
 25 26  1  0  0  0  0
 26 27  2  0  0  0  0
 28 26  1  0  0  0  0
 29 30  1  0  0  0  0
 30 28  1  0  0  0  0
M  END
>  <MODEL>
8

>  <REMARK>
 VINA RESULT:      -8.6      3.307      8.229
  Name = 
  6 active torsions:
  status: ('A' for Active; 'I' for Inactive)
    1  A    between atoms: C_2  and  C_27
    2  A    between atoms: C_2  and  C_28
    3  A    between atoms: C_9  and  C_18
    4  A    between atoms: C_9  and  C_27
    5  A    between atoms: C_10  and  C_21
    6  A    between atoms: C_20  and  C_29
                            x       y       z     vdW  Elec       q    Type
                         _______ _______ _______ _____ _____    ______ ____

>  <TORSDO>
F 6

$$$$
=
 OpenBabel11042412043D

 30 33  0  0  0  0  0  0  0  0999 V2000
  187.3100  177.8670  142.3840 C   0  0  0  0  0  3  0  0  0  0  0  0
  189.3490  177.1180  143.4720 C   0  0  0  0  0  0  0  0  0  0  0  0
  189.3350  176.7900  145.9420 N   0  0  0  0  0  2  0  0  0  0  0  0
  186.6340  177.8710  143.6120 C   0  0  0  0  0  0  0  0  0  0  0  0
  188.6860  177.1460  144.7150 C   0  0  0  0  0  0  0  0  0  0  0  0
  191.0980  176.6440  147.4410 O   0  0  0  0  0  0  0  0  0  0  0  0
  190.7530  176.6180  143.3780 C   0  0  0  0  0  2  0  0  0  0  0  0
  191.6800  177.5140  144.1240 C   0  0  0  0  0  3  0  0  0  0  0  0
  187.3360  177.5020  144.7680 C   0  0  0  0  0  3  0  0  0  0  0  0
  191.6510  177.6250  145.4160 N   0  0  0  0  0  0  0  0  0  0  0  0
  190.7160  176.9770  146.2890 C   0  0  0  0  0  0  0  0  0  0  0  0
  188.6520  177.4940  142.3040 C   0  0  0  0  0  0  0  0  0  0  0  0
  180.3710  179.3710  142.8260 C   0  0  0  0  0  3  0  0  0  0  0  0
  184.3990  178.2540  142.5380 C   0  0  0  0  0  3  0  0  0  0  0  0
  182.5230  178.9990  143.8700 C   0  0  0  0  0  0  0  0  0  0  0  0
  182.2470  178.6240  141.4820 C   0  0  0  0  0  3  0  0  0  0  0  0
  181.1800  179.3720  143.9670 C   0  0  0  0  0  3  0  0  0  0  0  0
  184.6270  178.6410  144.9080 C   0  0  0  0  0  3  0  0  0  0  0  0
  183.0580  178.6240  142.6210 C   0  0  0  0  0  0  0  0  0  0  0  0
  180.9030  178.9970  141.5870 C   0  0  0  0  0  3  0  0  0  0  0  0
  185.2060  178.2590  143.6870 C   0  0  0  0  0  0  0  0  0  0  0  0
  183.3160  178.9990  144.9750 N   0  0  0  0  0  0  0  0  0  0  0  0
  189.8210  177.4940  139.9300 C   0  0  0  0  0  0  0  0  0  0  0  0
  189.2880  177.4910  141.0120 C   0  0  0  0  0  0  0  0  0  0  0  0
  190.4680  177.5040  138.6150 C   0  0  0  0  0  2  0  0  0  0  0  0
  191.3780  176.3280  138.4760 C   0  0  0  0  0  0  0  0  0  0  0  0
  190.9220  175.1940  138.4780 O   0  0  0  0  0  0  0  0  0  0  0  0
  192.8490  176.5460  138.3350 C   0  0  0  0  0  2  0  0  0  0  0  0
  194.0130  176.0250  136.2150 C   0  0  0  0  0  1  0  0  0  0  0  0
  193.4690  175.4410  137.5020 C   0  0  0  0  0  2  0  0  0  0  0  0
  1  4  1  0  0  0  0
  2  5  2  0  0  0  0
  3 11  1  0  0  0  0
  4 21  1  0  0  0  0
  4  9  2  0  0  0  0
  5  9  1  0  0  0  0
  5  3  1  0  0  0  0
  7  2  1  0  0  0  0
  7  8  1  0  0  0  0
  8 10  2  0  0  0  0
 10 11  1  0  0  0  0
 11  6  2  0  0  0  0
 12  1  2  0  0  0  0
 12  2  1  0  0  0  0
 13 17  1  0  0  0  0
 14 19  1  0  0  0  0
 14 21  2  0  0  0  0
 15 17  2  0  0  0  0
 15 22  1  0  0  0  0
 16 20  1  0  0  0  0
 16 19  2  0  0  0  0
 18 22  2  0  0  0  0
 19 15  1  0  0  0  0
 20 13  2  0  0  0  0
 21 18  1  0  0  0  0
 23 24  3  0  0  0  0
 24 12  1  0  0  0  0
 25 23  1  0  0  0  0
 26 27  2  0  0  0  0
 26 25  1  0  0  0  0
 28 26  1  0  0  0  0
 29 30  1  0  0  0  0
 30 28  1  0  0  0  0
M  END
>  <MODEL>
9

>  <REMARK>
 VINA RESULT:      -8.6      3.436      7.302
  Name = 
  6 active torsions:
  status: ('A' for Active; 'I' for Inactive)
    1  A    between atoms: C_2  and  C_27
    2  A    between atoms: C_2  and  C_28
    3  A    between atoms: C_9  and  C_18
    4  A    between atoms: C_9  and  C_27
    5  A    between atoms: C_10  and  C_21
    6  A    between atoms: C_20  and  C_29
                            x       y       z     vdW  Elec       q    Type
                         _______ _______ _______ _____ _____    ______ ____

>  <TORSDO>
F 6

$$$$
