=
 OpenBabel11042413123D

 32 35  0  0  1  0  0  0  0  0999 V2000
  184.7870  178.7940  144.6950 C   0  0  0  0  0  0  0  0  0  0  0  0
  183.1230  178.5580  142.4340 C   0  0  0  0  0  3  0  0  0  0  0  0
  184.4650  178.1860  142.3580 C   0  0  0  0  0  3  0  0  0  0  0  0
  182.6100  179.0550  143.6280 C   0  0  0  0  0  3  0  0  0  0  0  0
  185.3060  178.3010  143.4730 C   0  0  0  0  0  0  0  0  0  0  0  0
  183.4370  179.1720  144.7460 C   0  0  0  0  0  3  0  0  0  0  0  0
  186.3130  177.8200  146.4430 N   0  0  0  0  0  2  0  0  0  0  0  0
  185.5940  178.9440  145.9280 C   0  0  0  0  0  0  0  0  0  0  0  0
  185.6660  180.0500  146.5260 O   0  0  0  0  0  0  0  0  0  0  0  0
  186.9480  177.8250  147.7550 C   0  0  0  0  0  2  0  0  0  0  0  0
  188.4530  177.9820  147.6240 C   0  0  0  0  0  2  0  0  0  0  0  0
  191.1320  176.5620  147.3770 C   0  0  0  0  0  2  0  0  0  0  0  0
  191.8720  176.7410  146.0470 C   0  0  0  0  0  2  0  0  0  0  0  0
  190.9020  177.0660  144.9080 C   0  0  1  0  0  3  0  0  0  0  0  0
  189.0190  177.0340  146.5770 C   0  0  1  0  0  3  0  0  0  0  0  0
  189.6860  177.8210  145.4330 C   0  0  0  0  0  2  0  0  0  0  0  0
  189.8450  176.0340  147.1570 O   0  0  0  0  0  0  0  0  0  0  0  0
  191.6080  177.8780  143.8420 C   0  0  0  0  0  3  0  0  0  0  0  0
  191.9900  179.0990  144.3590 O   0  0  0  0  0  0  0  0  0  0  0  0
  190.8920  179.0280  143.5890 O   0  0  0  0  0  0  0  0  0  0  0  0
  187.0150  177.8000  143.2570 S   0  0  0  0  0  0  0  0  0  0  0  0
  187.0850  178.3810  141.5380 C   0  0  0  0  0  2  0  0  0  0  0  0
  188.5120  178.7540  141.1710 C   0  0  0  0  0  2  0  0  0  0  0  0
  189.1090  177.7320  140.2060 C   0  0  0  0  0  0  0  0  0  0  0  0
  190.6130  177.5470  140.1570 C   0  0  0  0  0  2  0  0  0  0  0  0
  189.7500  176.5740  140.9420 C   0  0  0  0  0  2  0  0  0  0  0  0
  188.3420  177.2670  139.1140 O   0  0  0  0  0  0  0  0  0  0  0  0
  188.5040  178.0740  137.9570 C   0  0  0  0  0  0  0  0  0  0  0  0
  189.4300  177.5200  137.0700 O   0  0  0  0  0  1  0  0  0  0  0  0
  188.9840  179.3220  138.3590 O   0  0  0  0  0  1  0  0  0  0  0  0
  186.2040  178.7470  138.1170 O   0  0  0  0  0  1  0  0  0  0  0  0
  187.1790  178.2820  137.2310 C   0  0  0  0  0  2  0  0  0  0  0  0
  1  6  1  0  0  0  0
  1  8  1  0  0  0  0
  2  4  1  0  0  0  0
  3  2  2  0  0  0  0
  3  5  1  0  0  0  0
  4  6  2  0  0  0  0
  5  1  2  0  0  0  0
  7 10  1  0  0  0  0
  8  7  1  0  0  0  0
  8  9  2  0  0  0  0
 11 10  1  0  0  0  0
 13 12  1  0  0  0  0
 14 18  1  6  0  0  0
 14 16  1  0  0  0  0
 14 13  1  0  0  0  0
 15 17  1  0  0  0  0
 15 11  1  1  0  0  0
 16 15  1  0  0  0  0
 17 12  1  0  0  0  0
 18 19  1  0  0  0  0
 20 18  1  0  0  0  0
 20 19  1  0  0  0  0
 21  5  1  0  0  0  0
 22 21  1  0  0  0  0
 23 22  1  0  0  0  0
 24 26  1  0  0  0  0
 24 23  1  0  0  0  0
 25 24  1  0  0  0  0
 25 26  1  0  0  0  0
 27 24  1  0  0  0  0
 28 30  1  0  0  0  0
 28 27  1  0  0  0  0
 29 28  1  0  0  0  0
 32 28  1  0  0  0  0
 32 31  1  0  0  0  0
M  END
>  <MODEL>
1

>  <REMARK>
 VINA RESULT:      -8.1      0.000      0.000
  Name = 
  12 active torsions:
  status: ('A' for Active; 'I' for Inactive)
    1  A    between atoms: C_1  and  C_15
    2  A    between atoms: C_2  and  C_10
    3  A    between atoms: C_3  and  C_9
    4  A    between atoms: C_3  and  O_11
    5  A    between atoms: C_6  and  O_11
    6  A    between atoms: C_6  and  C_21
    7  A    between atoms: C_8  and  C_18
    8  A    between atoms: C_8  and  C_24
    9  A    between atoms: C_9  and  C_30
   10  A    between atoms: S_13  and  C_26
   11  A    between atoms: S_13  and  C_30
   12  A    between atoms: N_14  and  C_24
                            x       y       z     vdW  Elec       q    Type
                         _______ _______ _______ _____ _____    ______ ____

>  <TORSDO>
F 12

$$$$
=
 OpenBabel11042413123D

 32 35  0  0  1  0  0  0  0  0999 V2000
  184.3650  178.4710  142.7560 C   0  0  0  0  0  0  0  0  0  0  0  0
  184.2470  178.9280  145.5330 C   0  0  0  0  0  3  0  0  0  0  0  0
  185.4520  178.5620  144.9340 C   0  0  0  0  0  3  0  0  0  0  0  0
  183.1010  179.0590  144.7560 C   0  0  0  0  0  3  0  0  0  0  0  0
  185.5260  178.3280  143.5550 C   0  0  0  0  0  0  0  0  0  0  0  0
  183.1610  178.8310  143.3810 C   0  0  0  0  0  3  0  0  0  0  0  0
  185.1010  179.1180  140.4370 N   0  0  0  0  0  2  0  0  0  0  0  0
  184.3440  178.2540  141.2910 C   0  0  0  0  0  0  0  0  0  0  0  0
  183.6790  177.3130  140.7840 O   0  0  0  0  0  0  0  0  0  0  0  0
  184.9650  179.1080  138.9860 C   0  0  0  0  0  2  0  0  0  0  0  0
  185.9800  178.1710  138.3570 C   0  0  0  0  0  2  0  0  0  0  0  0
  188.4550  177.8880  136.6110 C   0  0  0  0  0  2  0  0  0  0  0  0
  189.7320  177.4250  137.3190 C   0  0  0  0  0  2  0  0  0  0  0  0
  189.7010  177.7710  138.8100 C   0  0  1  0  0  3  0  0  0  0  0  0
  187.3940  178.7190  138.4840 C   0  0  1  0  0  3  0  0  0  0  0  0
  188.2690  177.7770  139.3330 C   0  0  0  0  0  2  0  0  0  0  0  0
  187.9490  179.0530  137.2200 O   0  0  0  0  0  0  0  0  0  0  0  0
  190.5430  176.7810  139.5880 C   0  0  0  0  0  3  0  0  0  0  0  0
  191.5600  177.4440  140.2440 O   0  0  0  0  0  0  0  0  0  0  0  0
  191.8330  176.7910  139.1020 O   0  0  0  0  0  0  0  0  0  0  0  0
  187.1250  177.8540  142.8940 S   0  0  0  0  0  0  0  0  0  0  0  0
  187.6560  177.0670  144.4420 C   0  0  0  0  0  2  0  0  0  0  0  0
  188.9030  177.7530  144.9740 C   0  0  0  0  0  2  0  0  0  0  0  0
  189.2540  177.2360  146.3680 C   0  0  0  0  0  0  0  0  0  0  0  0
  189.1280  178.1660  147.5580 C   0  0  0  0  0  2  0  0  0  0  0  0
  188.0320  177.1590  147.2600 C   0  0  0  0  0  2  0  0  0  0  0  0
  190.0480  176.0760  146.5060 O   0  0  0  0  0  0  0  0  0  0  0  0
  191.4280  176.3370  146.2940 C   0  0  0  0  0  0  0  0  0  0  0  0
  191.6610  177.6920  146.0460 O   0  0  0  0  0  1  0  0  0  0  0  0
  191.8410  175.6160  145.1730 O   0  0  0  0  0  1  0  0  0  0  0  0
  192.4870  176.9660  148.3560 O   0  0  0  0  0  1  0  0  0  0  0  0
  192.2700  175.8950  147.4860 C   0  0  0  0  0  2  0  0  0  0  0  0
  1  6  2  0  0  0  0
  1  5  1  0  0  0  0
  3  2  1  0  0  0  0
  4  2  2  0  0  0  0
  5  3  2  0  0  0  0
  6  4  1  0  0  0  0
  7  8  1  0  0  0  0
  8  1  1  0  0  0  0
  9  8  2  0  0  0  0
 10  7  1  0  0  0  0
 11 10  1  0  0  0  0
 12 17  1  0  0  0  0
 12 13  1  0  0  0  0
 13 14  1  0  0  0  0
 14 16  1  0  0  0  0
 14 18  1  1  0  0  0
 15 11  1  6  0  0  0
 15 16  1  0  0  0  0
 17 15  1  0  0  0  0
 18 19  1  0  0  0  0
 20 18  1  0  0  0  0
 20 19  1  0  0  0  0
 21  5  1  0  0  0  0
 21 22  1  0  0  0  0
 22 23  1  0  0  0  0
 23 24  1  0  0  0  0
 24 27  1  0  0  0  0
 24 26  1  0  0  0  0
 24 25  1  0  0  0  0
 26 25  1  0  0  0  0
 28 27  1  0  0  0  0
 28 32  1  0  0  0  0
 29 28  1  0  0  0  0
 30 28  1  0  0  0  0
 32 31  1  0  0  0  0
M  END
>  <MODEL>
2

>  <REMARK>
 VINA RESULT:      -8.0      2.130      7.037
  Name = 
  12 active torsions:
  status: ('A' for Active; 'I' for Inactive)
    1  A    between atoms: C_1  and  C_15
    2  A    between atoms: C_2  and  C_10
    3  A    between atoms: C_3  and  C_9
    4  A    between atoms: C_3  and  O_11
    5  A    between atoms: C_6  and  O_11
    6  A    between atoms: C_6  and  C_21
    7  A    between atoms: C_8  and  C_18
    8  A    between atoms: C_8  and  C_24
    9  A    between atoms: C_9  and  C_30
   10  A    between atoms: S_13  and  C_26
   11  A    between atoms: S_13  and  C_30
   12  A    between atoms: N_14  and  C_24
                            x       y       z     vdW  Elec       q    Type
                         _______ _______ _______ _____ _____    ______ ____

>  <TORSDO>
F 12

$$$$
=
 OpenBabel11042413123D

 32 35  0  0  1  0  0  0  0  0999 V2000
  184.5630  178.4750  142.8550 C   0  0  0  0  0  0  0  0  0  0  0  0
  184.7770  178.7870  145.6450 C   0  0  0  0  0  3  0  0  0  0  0  0
  185.8810  178.3760  144.9000 C   0  0  0  0  0  3  0  0  0  0  0  0
  183.5660  179.0340  145.0080 C   0  0  0  0  0  3  0  0  0  0  0  0
  185.7900  178.2120  143.5120 C   0  0  0  0  0  0  0  0  0  0  0  0
  183.4620  178.8780  143.6250 C   0  0  0  0  0  3  0  0  0  0  0  0
  185.1310  179.1580  140.4990 N   0  0  0  0  0  2  0  0  0  0  0  0
  184.3690  178.3390  141.3920 C   0  0  0  0  0  0  0  0  0  0  0  0
  183.5520  177.5050  140.9200 O   0  0  0  0  0  0  0  0  0  0  0  0
  184.8490  179.2400  139.0720 C   0  0  0  0  0  2  0  0  0  0  0  0
  185.6280  178.1850  138.3070 C   0  0  0  0  0  2  0  0  0  0  0  0
  187.7270  178.2790  136.1070 C   0  0  0  0  0  2  0  0  0  0  0  0
  188.9890  177.4420  136.3400 C   0  0  0  0  0  2  0  0  0  0  0  0
  189.2410  177.2160  137.8330 C   0  0  1  0  0  3  0  0  0  0  0  0
  187.1210  178.4800  138.3250 C   0  0  1  0  0  3  0  0  0  0  0  0
  187.9270  177.1970  138.6060 C   0  0  0  0  0  2  0  0  0  0  0  0
  187.5360  179.1880  137.1650 O   0  0  0  0  0  0  0  0  0  0  0  0
  189.9940  175.9190  138.0410 C   0  0  0  0  0  3  0  0  0  0  0  0
  190.6900  175.9660  139.2320 O   0  0  0  0  0  0  0  0  0  0  0  0
  191.3490  176.1740  138.0800 O   0  0  0  0  0  0  0  0  0  0  0  0
  187.2700  177.6710  142.6560 S   0  0  0  0  0  0  0  0  0  0  0  0
  187.8990  176.7540  144.0910 C   0  0  0  0  0  2  0  0  0  0  0  0
  189.4110  176.6240  144.0060 C   0  0  0  0  0  2  0  0  0  0  0  0
  190.0970  177.6870  144.8620 C   0  0  0  0  0  0  0  0  0  0  0  0
  191.5860  177.9220  144.7030 C   0  0  0  0  0  2  0  0  0  0  0  0
  190.5920  178.8470  144.0230 C   0  0  0  0  0  2  0  0  0  0  0  0
  189.4670  178.1530  146.0380 O   0  0  0  0  0  0  0  0  0  0  0  0
  189.7640  177.3430  147.1660 C   0  0  0  0  0  0  0  0  0  0  0  0
  188.7650  176.3930  147.3940 O   0  0  0  0  0  1  0  0  0  0  0  0
  189.8380  178.1700  148.2890 O   0  0  0  0  0  1  0  0  0  0  0  0
  191.9590  176.9550  148.0620 O   0  0  0  0  0  1  0  0  0  0  0  0
  191.1040  176.6320  147.0060 C   0  0  0  0  0  2  0  0  0  0  0  0
  1  5  2  0  0  0  0
  1  6  1  0  0  0  0
  3  2  2  0  0  0  0
  4  2  1  0  0  0  0
  5  3  1  0  0  0  0
  6  4  2  0  0  0  0
  7  8  1  0  0  0  0
  8  1  1  0  0  0  0
  9  8  2  0  0  0  0
 10  7  1  0  0  0  0
 11 10  1  0  0  0  0
 12 13  1  0  0  0  0
 12 17  1  0  0  0  0
 13 14  1  0  0  0  0
 14 18  1  6  0  0  0
 14 16  1  0  0  0  0
 15 11  1  6  0  0  0
 15 16  1  0  0  0  0
 17 15  1  0  0  0  0
 18 20  1  0  0  0  0
 18 19  1  0  0  0  0
 20 19  1  0  0  0  0
 21  5  1  0  0  0  0
 21 22  1  0  0  0  0
 23 22  1  0  0  0  0
 23 24  1  0  0  0  0
 24 27  1  0  0  0  0
 25 24  1  0  0  0  0
 26 25  1  0  0  0  0
 26 24  1  0  0  0  0
 27 28  1  0  0  0  0
 28 29  1  0  0  0  0
 28 30  1  0  0  0  0
 32 28  1  0  0  0  0
 32 31  1  0  0  0  0
M  END
>  <MODEL>
3

>  <REMARK>
 VINA RESULT:      -7.9      2.208      7.160
  Name = 
  12 active torsions:
  status: ('A' for Active; 'I' for Inactive)
    1  A    between atoms: C_1  and  C_15
    2  A    between atoms: C_2  and  C_10
    3  A    between atoms: C_3  and  C_9
    4  A    between atoms: C_3  and  O_11
    5  A    between atoms: C_6  and  O_11
    6  A    between atoms: C_6  and  C_21
    7  A    between atoms: C_8  and  C_18
    8  A    between atoms: C_8  and  C_24
    9  A    between atoms: C_9  and  C_30
   10  A    between atoms: S_13  and  C_26
   11  A    between atoms: S_13  and  C_30
   12  A    between atoms: N_14  and  C_24
                            x       y       z     vdW  Elec       q    Type
                         _______ _______ _______ _____ _____    ______ ____

>  <TORSDO>
F 12

$$$$
=
 OpenBabel11042413123D

 32 35  0  0  1  0  0  0  0  0999 V2000
  184.0910  178.4420  142.4390 C   0  0  0  0  0  0  0  0  0  0  0  0
  183.8160  178.9650  145.1930 C   0  0  0  0  0  3  0  0  0  0  0  0
  185.0620  178.6280  144.6640 C   0  0  0  0  0  3  0  0  0  0  0  0
  182.7070  179.0350  144.3570 C   0  0  0  0  0  3  0  0  0  0  0  0
  185.2140  178.3610  143.2980 C   0  0  0  0  0  0  0  0  0  0  0  0
  182.8450  178.7750  142.9930 C   0  0  0  0  0  3  0  0  0  0  0  0
  185.0260  178.9700  140.1620 N   0  0  0  0  0  2  0  0  0  0  0  0
  184.1520  178.1870  140.9810 C   0  0  0  0  0  0  0  0  0  0  0  0
  183.4550  177.2830  140.4500 O   0  0  0  0  0  0  0  0  0  0  0  0
  184.9870  178.9310  138.7060 C   0  0  0  0  0  2  0  0  0  0  0  0
  186.0730  178.0200  138.1630 C   0  0  0  0  0  2  0  0  0  0  0  0
  188.6410  177.9570  136.5320 C   0  0  0  0  0  2  0  0  0  0  0  0
  189.8980  177.4840  137.2680 C   0  0  0  0  0  2  0  0  0  0  0  0
  189.7800  177.7120  138.7770 C   0  0  1  0  0  3  0  0  0  0  0  0
  187.4580  178.6050  138.4050 C   0  0  1  0  0  3  0  0  0  0  0  0
  188.3250  177.6300  139.2240 C   0  0  0  0  0  2  0  0  0  0  0  0
  188.0620  179.0540  137.2000 O   0  0  0  0  0  0  0  0  0  0  0  0
  190.6190  176.6940  139.5210 C   0  0  0  0  0  3  0  0  0  0  0  0
  191.5860  177.3380  140.2670 O   0  0  0  0  0  0  0  0  0  0  0  0
  191.9290  176.7770  139.0960 O   0  0  0  0  0  0  0  0  0  0  0  0
  186.8600  177.9290  142.7310 S   0  0  0  0  0  0  0  0  0  0  0  0
  187.4780  177.6200  144.4100 C   0  0  0  0  0  2  0  0  0  0  0  0
  188.7110  176.7320  144.3560 C   0  0  0  0  0  2  0  0  0  0  0  0
  189.9020  177.4160  145.0240 C   0  0  0  0  0  0  0  0  0  0  0  0
  191.3000  176.8870  144.7730 C   0  0  0  0  0  2  0  0  0  0  0  0
  190.7960  178.0990  144.0100 C   0  0  0  0  0  2  0  0  0  0  0  0
  189.6930  178.2480  146.1480 O   0  0  0  0  0  0  0  0  0  0  0  0
  189.7020  177.5210  147.3670 C   0  0  0  0  0  0  0  0  0  0  0  0
  191.0040  177.2190  147.7760 O   0  0  0  0  0  1  0  0  0  0  0  0
  189.0240  176.3180  147.1630 O   0  0  0  0  0  1  0  0  0  0  0  0
  187.8200  177.6320  148.8550 O   0  0  0  0  0  1  0  0  0  0  0  0
  188.9940  178.2880  148.4790 C   0  0  0  0  0  2  0  0  0  0  0  0
  1  6  2  0  0  0  0
  1  5  1  0  0  0  0
  3  2  1  0  0  0  0
  4  2  2  0  0  0  0
  5  3  2  0  0  0  0
  6  4  1  0  0  0  0
  7  8  1  0  0  0  0
  8  1  1  0  0  0  0
  9  8  2  0  0  0  0
 10  7  1  0  0  0  0
 11 10  1  0  0  0  0
 12 17  1  0  0  0  0
 12 13  1  0  0  0  0
 13 14  1  0  0  0  0
 14 16  1  0  0  0  0
 14 18  1  1  0  0  0
 15 11  1  6  0  0  0
 15 16  1  0  0  0  0
 17 15  1  0  0  0  0
 18 19  1  0  0  0  0
 20 18  1  0  0  0  0
 20 19  1  0  0  0  0
 21  5  1  0  0  0  0
 21 22  1  0  0  0  0
 23 22  1  0  0  0  0
 23 24  1  0  0  0  0
 24 27  1  0  0  0  0
 25 24  1  0  0  0  0
 26 25  1  0  0  0  0
 26 24  1  0  0  0  0
 27 28  1  0  0  0  0
 28 29  1  0  0  0  0
 28 32  1  0  0  0  0
 30 28  1  0  0  0  0
 32 31  1  0  0  0  0
M  END
>  <MODEL>
4

>  <REMARK>
 VINA RESULT:      -7.8      2.093      6.938
  Name = 
  12 active torsions:
  status: ('A' for Active; 'I' for Inactive)
    1  A    between atoms: C_1  and  C_15
    2  A    between atoms: C_2  and  C_10
    3  A    between atoms: C_3  and  C_9
    4  A    between atoms: C_3  and  O_11
    5  A    between atoms: C_6  and  O_11
    6  A    between atoms: C_6  and  C_21
    7  A    between atoms: C_8  and  C_18
    8  A    between atoms: C_8  and  C_24
    9  A    between atoms: C_9  and  C_30
   10  A    between atoms: S_13  and  C_26
   11  A    between atoms: S_13  and  C_30
   12  A    between atoms: N_14  and  C_24
                            x       y       z     vdW  Elec       q    Type
                         _______ _______ _______ _____ _____    ______ ____

>  <TORSDO>
F 12

$$$$
=
 OpenBabel11042413123D

 32 35  0  0  1  0  0  0  0  0999 V2000
  184.2770  178.4880  142.7000 C   0  0  0  0  0  0  0  0  0  0  0  0
  183.7010  179.0010  145.4090 C   0  0  0  0  0  3  0  0  0  0  0  0
  184.9650  178.5480  145.0360 C   0  0  0  0  0  3  0  0  0  0  0  0
  182.7210  179.1900  144.4410 C   0  0  0  0  0  3  0  0  0  0  0  0
  185.2660  178.2850  143.6930 C   0  0  0  0  0  0  0  0  0  0  0  0
  183.0080  178.9350  143.0990 C   0  0  0  0  0  3  0  0  0  0  0  0
  185.6020  178.8790  140.5960 N   0  0  0  0  0  2  0  0  0  0  0  0
  184.5010  178.2460  141.2560 C   0  0  0  0  0  0  0  0  0  0  0  0
  183.7440  177.4830  140.6010 O   0  0  0  0  0  0  0  0  0  0  0  0
  185.7650  178.8670  139.1480 C   0  0  0  0  0  2  0  0  0  0  0  0
  186.8500  177.8880  138.7360 C   0  0  0  0  0  2  0  0  0  0  0  0
  189.6520  176.9830  137.9720 C   0  0  0  0  0  2  0  0  0  0  0  0
  190.6250  176.7430  139.1310 C   0  0  0  0  0  2  0  0  0  0  0  0
  190.2340  177.5600  140.3650 C   0  0  1  0  0  3  0  0  0  0  0  0
  188.2330  178.4110  139.1010 C   0  0  1  0  0  3  0  0  0  0  0  0
  188.7260  177.7760  140.4150 C   0  0  0  0  0  2  0  0  0  0  0  0
  189.1460  178.2960  138.0180 O   0  0  0  0  0  0  0  0  0  0  0  0
  190.7090  176.8590  141.6210 C   0  0  0  0  0  3  0  0  0  0  0  0
  191.1340  177.7900  142.5460 O   0  0  0  0  0  0  0  0  0  0  0  0
  192.0470  177.1240  141.8200 O   0  0  0  0  0  0  0  0  0  0  0  0
  186.9220  177.6980  143.3300 S   0  0  0  0  0  0  0  0  0  0  0  0
  187.3130  177.3800  145.0740 C   0  0  0  0  0  2  0  0  0  0  0  0
  188.7720  177.7050  145.3490 C   0  0  0  0  0  2  0  0  0  0  0  0
  189.1300  177.4030  146.8030 C   0  0  0  0  0  0  0  0  0  0  0  0
  188.9110  178.4670  147.8590 C   0  0  0  0  0  2  0  0  0  0  0  0
  187.8990  177.3490  147.6840 C   0  0  0  0  0  2  0  0  0  0  0  0
  190.0060  176.3340  147.1010 O   0  0  0  0  0  0  0  0  0  0  0  0
  191.3710  176.7080  146.9950 C   0  0  0  0  0  0  0  0  0  0  0  0
  191.7980  177.4190  148.1200 O   0  0  0  0  0  1  0  0  0  0  0  0
  191.5110  177.5390  145.8820 O   0  0  0  0  0  1  0  0  0  0  0  0
  193.1750  175.3780  147.8600 O   0  0  0  0  0  1  0  0  0  0  0  0
  192.2700  175.4910  146.8020 C   0  0  0  0  0  2  0  0  0  0  0  0
  1  6  2  0  0  0  0
  1  5  1  0  0  0  0
  3  2  1  0  0  0  0
  4  2  2  0  0  0  0
  5  3  2  0  0  0  0
  6  4  1  0  0  0  0
  7  8  1  0  0  0  0
  8  1  1  0  0  0  0
  9  8  2  0  0  0  0
 10  7  1  0  0  0  0
 11 10  1  0  0  0  0
 12 17  1  0  0  0  0
 12 13  1  0  0  0  0
 13 14  1  0  0  0  0
 14 16  1  0  0  0  0
 14 18  1  1  0  0  0
 15 11  1  6  0  0  0
 15 16  1  0  0  0  0
 17 15  1  0  0  0  0
 18 20  1  0  0  0  0
 18 19  1  0  0  0  0
 20 19  1  0  0  0  0
 21  5  1  0  0  0  0
 21 22  1  0  0  0  0
 22 23  1  0  0  0  0
 23 24  1  0  0  0  0
 24 27  1  0  0  0  0
 24 26  1  0  0  0  0
 24 25  1  0  0  0  0
 26 25  1  0  0  0  0
 28 27  1  0  0  0  0
 28 29  1  0  0  0  0
 30 28  1  0  0  0  0
 32 28  1  0  0  0  0
 32 31  1  0  0  0  0
M  END
>  <MODEL>
5

>  <REMARK>
 VINA RESULT:      -7.8      1.952      6.767
  Name = 
  12 active torsions:
  status: ('A' for Active; 'I' for Inactive)
    1  A    between atoms: C_1  and  C_15
    2  A    between atoms: C_2  and  C_10
    3  A    between atoms: C_3  and  C_9
    4  A    between atoms: C_3  and  O_11
    5  A    between atoms: C_6  and  O_11
    6  A    between atoms: C_6  and  C_21
    7  A    between atoms: C_8  and  C_18
    8  A    between atoms: C_8  and  C_24
    9  A    between atoms: C_9  and  C_30
   10  A    between atoms: S_13  and  C_26
   11  A    between atoms: S_13  and  C_30
   12  A    between atoms: N_14  and  C_24
                            x       y       z     vdW  Elec       q    Type
                         _______ _______ _______ _____ _____    ______ ____

>  <TORSDO>
F 12

$$$$
=
 OpenBabel11042413123D

 32 35  0  0  1  0  0  0  0  0999 V2000
  189.4530  177.2960  146.7260 C   0  0  0  0  0  0  0  0  0  0  0  0
  191.8440  176.1840  145.7350 C   0  0  0  0  0  3  0  0  0  0  0  0
  190.8380  176.5800  144.8550 C   0  0  0  0  0  3  0  0  0  0  0  0
  191.6600  176.3320  147.1060 C   0  0  0  0  0  3  0  0  0  0  0  0
  189.6420  177.1310  145.3320 C   0  0  0  0  0  0  0  0  0  0  0  0
  190.4750  176.8820  147.5950 C   0  0  0  0  0  3  0  0  0  0  0  0
  187.0060  177.8680  146.5830 N   0  0  0  0  0  2  0  0  0  0  0  0
  188.2290  177.8750  147.3260 C   0  0  0  0  0  0  0  0  0  0  0  0
  188.2440  178.3650  148.4860 O   0  0  0  0  0  0  0  0  0  0  0  0
  185.8220  178.6030  147.0080 C   0  0  0  0  0  2  0  0  0  0  0  0
  184.6500  178.3150  146.0870 C   0  0  0  0  0  2  0  0  0  0  0  0
  182.6310  178.7700  143.8570 C   0  0  0  0  0  2  0  0  0  0  0  0
  183.1850  178.7460  142.4280 C   0  0  0  0  0  2  0  0  0  0  0  0
  184.6730  179.1040  142.4000 C   0  0  1  0  0  3  0  0  0  0  0  0
  184.6210  179.2790  144.9090 C   0  0  1  0  0  3  0  0  0  0  0  0
  185.3560  178.6790  143.6950 C   0  0  0  0  0  2  0  0  0  0  0  0
  183.3050  179.7360  144.6290 O   0  0  0  0  0  0  0  0  0  0  0  0
  185.3410  178.4470  141.2110 C   0  0  0  0  0  3  0  0  0  0  0  0
  185.5780  179.3850  140.2270 O   0  0  0  0  0  0  0  0  0  0  0  0
  184.5260  178.5590  140.1040 O   0  0  0  0  0  0  0  0  0  0  0  0
  188.4140  177.5950  144.1090 S   0  0  0  0  0  0  0  0  0  0  0  0
  189.6590  178.0970  142.8870 C   0  0  0  0  0  2  0  0  0  0  0  0
  188.9940  178.3760  141.5490 C   0  0  0  0  0  2  0  0  0  0  0  0
  189.5790  177.4840  140.4560 C   0  0  0  0  0  0  0  0  0  0  0  0
  191.0740  177.4910  140.2110 C   0  0  0  0  0  2  0  0  0  0  0  0
  190.4430  176.3830  141.0340 C   0  0  0  0  0  2  0  0  0  0  0  0
  188.7370  176.9780  139.4390 O   0  0  0  0  0  0  0  0  0  0  0  0
  188.6620  177.8460  138.3180 C   0  0  0  0  0  0  0  0  0  0  0  0
  189.6840  177.5890  137.4010 O   0  0  0  0  0  1  0  0  0  0  0  0
  188.8080  179.1580  138.7710 O   0  0  0  0  0  1  0  0  0  0  0  0
  187.1840  178.7260  136.6420 O   0  0  0  0  0  1  0  0  0  0  0  0
  187.3160  177.7290  137.6110 C   0  0  0  0  0  2  0  0  0  0  0  0
  1  8  1  0  0  0  0
  1  6  1  0  0  0  0
  2  4  1  0  0  0  0
  3  5  1  0  0  0  0
  3  2  2  0  0  0  0
  4  6  2  0  0  0  0
  5  1  2  0  0  0  0
  7 10  1  0  0  0  0
  7  8  1  0  0  0  0
  8  9  2  0  0  0  0
 11 10  1  0  0  0  0
 12 17  1  0  0  0  0
 13 12  1  0  0  0  0
 14 18  1  6  0  0  0
 14 13  1  0  0  0  0
 14 16  1  0  0  0  0
 15 11  1  1  0  0  0
 16 15  1  0  0  0  0
 17 15  1  0  0  0  0
 19 18  1  0  0  0  0
 20 19  1  0  0  0  0
 20 18  1  0  0  0  0
 21  5  1  0  0  0  0
 22 21  1  0  0  0  0
 23 22  1  0  0  0  0
 24 26  1  0  0  0  0
 24 23  1  0  0  0  0
 25 24  1  0  0  0  0
 25 26  1  0  0  0  0
 27 24  1  0  0  0  0
 28 30  1  0  0  0  0
 28 27  1  0  0  0  0
 29 28  1  0  0  0  0
 31 32  1  0  0  0  0
 32 28  1  0  0  0  0
M  END
>  <MODEL>
6

>  <REMARK>
 VINA RESULT:      -7.8      1.774      5.363
  Name = 
  12 active torsions:
  status: ('A' for Active; 'I' for Inactive)
    1  A    between atoms: C_1  and  C_15
    2  A    between atoms: C_2  and  C_10
    3  A    between atoms: C_3  and  C_9
    4  A    between atoms: C_3  and  O_11
    5  A    between atoms: C_6  and  O_11
    6  A    between atoms: C_6  and  C_21
    7  A    between atoms: C_8  and  C_18
    8  A    between atoms: C_8  and  C_24
    9  A    between atoms: C_9  and  C_30
   10  A    between atoms: S_13  and  C_26
   11  A    between atoms: S_13  and  C_30
   12  A    between atoms: N_14  and  C_24
                            x       y       z     vdW  Elec       q    Type
                         _______ _______ _______ _____ _____    ______ ____

>  <TORSDO>
F 12

$$$$
=
 OpenBabel11042413123D

 32 35  0  0  1  0  0  0  0  0999 V2000
  184.5380  178.7510  142.8050 C   0  0  0  0  0  0  0  0  0  0  0  0
  184.6830  178.4630  145.6030 C   0  0  0  0  0  3  0  0  0  0  0  0
  185.7820  178.1410  144.8080 C   0  0  0  0  0  3  0  0  0  0  0  0
  183.5110  178.9190  145.0100 C   0  0  0  0  0  3  0  0  0  0  0  0
  185.7240  178.2750  143.4150 C   0  0  0  0  0  0  0  0  0  0  0  0
  183.4410  179.0600  143.6230 C   0  0  0  0  0  3  0  0  0  0  0  0
  183.3190  178.2690  140.6560 N   0  0  0  0  0  2  0  0  0  0  0  0
  184.3830  178.9340  141.3430 C   0  0  0  0  0  0  0  0  0  0  0  0
  185.1680  179.6760  140.6950 O   0  0  0  0  0  0  0  0  0  0  0  0
  183.2270  178.2230  139.2020 C   0  0  0  0  0  2  0  0  0  0  0  0
  183.9610  177.0110  138.6550 C   0  0  0  0  0  2  0  0  0  0  0  0
  186.1260  175.4730  137.1700 C   0  0  0  0  0  2  0  0  0  0  0  0
  187.5030  176.1420  137.0990 C   0  0  0  0  0  2  0  0  0  0  0  0
  187.3920  177.6630  137.2340 C   0  0  1  0  0  3  0  0  0  0  0  0
  184.9070  177.4000  137.5270 C   0  0  1  0  0  3  0  0  0  0  0  0
  186.1890  178.0440  138.0900 C   0  0  0  0  0  2  0  0  0  0  0  0
  185.1380  176.3210  136.6320 O   0  0  0  0  0  0  0  0  0  0  0  0
  188.6650  178.2240  137.8330 C   0  0  0  0  0  3  0  0  0  0  0  0
  189.2750  179.0700  136.9300 O   0  0  0  0  0  0  0  0  0  0  0  0
  189.7460  177.8210  137.0780 O   0  0  0  0  0  0  0  0  0  0  0  0
  187.1950  177.8220  142.4920 S   0  0  0  0  0  0  0  0  0  0  0  0
  187.7780  176.6710  143.7700 C   0  0  0  0  0  2  0  0  0  0  0  0
  189.2970  176.6200  143.7710 C   0  0  0  0  0  2  0  0  0  0  0  0
  189.8740  177.6500  144.7410 C   0  0  0  0  0  0  0  0  0  0  0  0
  191.3770  177.8270  144.8290 C   0  0  0  0  0  2  0  0  0  0  0  0
  190.5430  178.7950  144.0080 C   0  0  0  0  0  2  0  0  0  0  0  0
  189.0800  178.1330  145.8050 O   0  0  0  0  0  0  0  0  0  0  0  0
  189.2310  177.3600  146.9860 C   0  0  0  0  0  0  0  0  0  0  0  0
  190.3480  176.5230  146.9130 O   0  0  0  0  0  1  0  0  0  0  0  0
  188.0990  176.5560  147.1300 O   0  0  0  0  0  1  0  0  0  0  0  0
  188.1630  178.2240  148.9560 O   0  0  0  0  0  1  0  0  0  0  0  0
  189.3510  178.2450  148.2220 C   0  0  0  0  0  2  0  0  0  0  0  0
  1  5  2  0  0  0  0
  1  6  1  0  0  0  0
  3  2  2  0  0  0  0
  4  2  1  0  0  0  0
  5  3  1  0  0  0  0
  6  4  2  0  0  0  0
  7  8  1  0  0  0  0
  8  1  1  0  0  0  0
  9  8  2  0  0  0  0
 10  7  1  0  0  0  0
 11 10  1  0  0  0  0
 13 12  1  0  0  0  0
 13 14  1  0  0  0  0
 14 18  1  1  0  0  0
 14 16  1  0  0  0  0
 15 16  1  0  0  0  0
 15 11  1  1  0  0  0
 17 12  1  0  0  0  0
 17 15  1  0  0  0  0
 19 20  1  0  0  0  0
 19 18  1  0  0  0  0
 20 18  1  0  0  0  0
 21  5  1  0  0  0  0
 21 22  1  0  0  0  0
 22 23  1  0  0  0  0
 23 24  1  0  0  0  0
 24 25  1  0  0  0  0
 24 27  1  0  0  0  0
 26 24  1  0  0  0  0
 26 25  1  0  0  0  0
 27 28  1  0  0  0  0
 28 30  1  0  0  0  0
 28 32  1  0  0  0  0
 29 28  1  0  0  0  0
 32 31  1  0  0  0  0
M  END
>  <MODEL>
7

>  <REMARK>
 VINA RESULT:      -7.8      2.244      7.306
  Name = 
  12 active torsions:
  status: ('A' for Active; 'I' for Inactive)
    1  A    between atoms: C_1  and  C_15
    2  A    between atoms: C_2  and  C_10
    3  A    between atoms: C_3  and  C_9
    4  A    between atoms: C_3  and  O_11
    5  A    between atoms: C_6  and  O_11
    6  A    between atoms: C_6  and  C_21
    7  A    between atoms: C_8  and  C_18
    8  A    between atoms: C_8  and  C_24
    9  A    between atoms: C_9  and  C_30
   10  A    between atoms: S_13  and  C_26
   11  A    between atoms: S_13  and  C_30
   12  A    between atoms: N_14  and  C_24
                            x       y       z     vdW  Elec       q    Type
                         _______ _______ _______ _____ _____    ______ ____

>  <TORSDO>
F 12

$$$$
=
 OpenBabel11042413123D

 32 35  0  0  1  0  0  0  0  0999 V2000
  188.8640  177.1840  138.5590 C   0  0  0  0  0  0  0  0  0  0  0  0
  191.6400  176.7990  138.8370 C   0  0  0  0  0  3  0  0  0  0  0  0
  190.8520  177.0460  139.9600 C   0  0  0  0  0  3  0  0  0  0  0  0
  191.0530  176.7510  137.5770 C   0  0  0  0  0  3  0  0  0  0  0  0
  189.4710  177.2440  139.8380 C   0  0  0  0  0  0  0  0  0  0  0  0
  189.6770  176.9430  137.4410 C   0  0  0  0  0  3  0  0  0  0  0  0
  186.7330  178.4640  138.9550 N   0  0  0  0  0  2  0  0  0  0  0  0
  187.4130  177.3710  138.3300 C   0  0  0  0  0  0  0  0  0  0  0  0
  186.7680  176.5890  137.5830 O   0  0  0  0  0  0  0  0  0  0  0  0
  185.2810  178.5920  138.9560 C   0  0  0  0  0  2  0  0  0  0  0  0
  184.8060  179.3190  140.2020 C   0  0  0  0  0  2  0  0  0  0  0  0
  182.5460  178.8730  142.1890 C   0  0  0  0  0  2  0  0  0  0  0  0
  182.9320  178.9060  143.6710 C   0  0  0  0  0  2  0  0  0  0  0  0
  184.4080  178.5500  143.8710 C   0  0  1  0  0  3  0  0  0  0  0  0
  184.6440  178.3610  141.3730 C   0  0  1  0  0  3  0  0  0  0  0  0
  185.2340  178.9690  142.6600 C   0  0  0  0  0  2  0  0  0  0  0  0
  183.3050  177.9040  141.5040 O   0  0  0  0  0  0  0  0  0  0  0  0
  184.9350  179.2160  145.1250 C   0  0  0  0  0  3  0  0  0  0  0  0
  185.2860  178.2560  146.0530 O   0  0  0  0  0  0  0  0  0  0  0  0
  184.1170  178.9040  146.1910 O   0  0  0  0  0  0  0  0  0  0  0  0
  188.5580  177.5640  141.3480 S   0  0  0  0  0  0  0  0  0  0  0  0
  189.8810  176.9270  142.4160 C   0  0  0  0  0  2  0  0  0  0  0  0
  189.3590  176.7200  143.8280 C   0  0  0  0  0  2  0  0  0  0  0  0
  190.0230  177.6930  144.8000 C   0  0  0  0  0  0  0  0  0  0  0  0
  191.5340  177.7150  144.9130 C   0  0  0  0  0  2  0  0  0  0  0  0
  190.8180  178.7570  144.0720 C   0  0  0  0  0  2  0  0  0  0  0  0
  189.2650  178.2640  145.8480 O   0  0  0  0  0  0  0  0  0  0  0  0
  189.2000  177.4210  146.9890 C   0  0  0  0  0  0  0  0  0  0  0  0
  190.2330  176.4790  146.9910 O   0  0  0  0  0  1  0  0  0  0  0  0
  187.9870  176.7320  146.9540 O   0  0  0  0  0  1  0  0  0  0  0  0
  187.9920  178.2940  148.8720 O   0  0  0  0  0  1  0  0  0  0  0  0
  189.2570  178.2270  148.2820 C   0  0  0  0  0  2  0  0  0  0  0  0
  1  5  1  0  0  0  0
  2  3  1  0  0  0  0
  4  2  2  0  0  0  0
  5  3  2  0  0  0  0
  5 21  1  0  0  0  0
  6  4  1  0  0  0  0
  6  1  2  0  0  0  0
  7 10  1  0  0  0  0
  8  1  1  0  0  0  0
  8  7  1  0  0  0  0
  9  8  2  0  0  0  0
 10 11  1  0  0  0  0
 12 13  1  0  0  0  0
 13 14  1  0  0  0  0
 14 18  1  1  0  0  0
 15 11  1  6  0  0  0
 15 17  1  0  0  0  0
 15 16  1  0  0  0  0
 16 14  1  0  0  0  0
 17 12  1  0  0  0  0
 18 19  1  0  0  0  0
 18 20  1  0  0  0  0
 19 20  1  0  0  0  0
 21 22  1  0  0  0  0
 22 23  1  0  0  0  0
 23 24  1  0  0  0  0
 24 25  1  0  0  0  0
 24 27  1  0  0  0  0
 26 24  1  0  0  0  0
 26 25  1  0  0  0  0
 27 28  1  0  0  0  0
 28 29  1  0  0  0  0
 28 32  1  0  0  0  0
 30 28  1  0  0  0  0
 32 31  1  0  0  0  0
M  END
>  <MODEL>
8

>  <REMARK>
 VINA RESULT:      -7.7      2.261      7.891
  Name = 
  12 active torsions:
  status: ('A' for Active; 'I' for Inactive)
    1  A    between atoms: C_1  and  C_15
    2  A    between atoms: C_2  and  C_10
    3  A    between atoms: C_3  and  C_9
    4  A    between atoms: C_3  and  O_11
    5  A    between atoms: C_6  and  O_11
    6  A    between atoms: C_6  and  C_21
    7  A    between atoms: C_8  and  C_18
    8  A    between atoms: C_8  and  C_24
    9  A    between atoms: C_9  and  C_30
   10  A    between atoms: S_13  and  C_26
   11  A    between atoms: S_13  and  C_30
   12  A    between atoms: N_14  and  C_24
                            x       y       z     vdW  Elec       q    Type
                         _______ _______ _______ _____ _____    ______ ____

>  <TORSDO>
F 12

$$$$
=
 OpenBabel11042413123D

 32 35  0  0  1  0  0  0  0  0999 V2000
  189.9580  177.0540  145.4570 C   0  0  0  0  0  0  0  0  0  0  0  0
  188.1040  177.7370  147.4650 C   0  0  0  0  0  3  0  0  0  0  0  0
  187.6730  177.5250  146.1560 C   0  0  0  0  0  3  0  0  0  0  0  0
  189.4540  177.6190  147.7750 C   0  0  0  0  0  3  0  0  0  0  0  0
  188.5830  177.1880  145.1460 C   0  0  0  0  0  0  0  0  0  0  0  0
  190.3720  177.2810  146.7790 C   0  0  0  0  0  3  0  0  0  0  0  0
  191.2120  177.5410  143.3300 N   0  0  0  0  0  2  0  0  0  0  0  0
  190.9940  176.6940  144.4620 C   0  0  0  0  0  0  0  0  0  0  0  0
  191.6960  175.6580  144.6010 O   0  0  0  0  0  0  0  0  0  0  0  0
  192.0510  177.1520  142.2040 C   0  0  0  0  0  2  0  0  0  0  0  0
  191.5400  177.7670  140.9130 C   0  0  0  0  0  2  0  0  0  0  0  0
  191.0630  176.5520  138.1650 C   0  0  0  0  0  2  0  0  0  0  0  0
  189.7310  176.9010  137.4940 C   0  0  0  0  0  2  0  0  0  0  0  0
  188.6640  177.2680  138.5270 C   0  0  1  0  0  3  0  0  0  0  0  0
  190.3870  176.9590  140.3340 C   0  0  1  0  0  3  0  0  0  0  0  0
  189.3010  177.8920  139.7640 C   0  0  0  0  0  2  0  0  0  0  0  0
  190.8400  175.9650  139.4260 O   0  0  0  0  0  0  0  0  0  0  0  0
  187.6560  178.2200  137.9160 C   0  0  0  0  0  3  0  0  0  0  0  0
  186.3920  177.6710  137.9830 O   0  0  0  0  0  0  0  0  0  0  0  0
  187.0650  177.6240  136.8220 O   0  0  0  0  0  0  0  0  0  0  0  0
  187.9180  176.9480  143.4970 S   0  0  0  0  0  0  0  0  0  0  0  0
  186.3780  177.8360  143.8680 C   0  0  0  0  0  2  0  0  0  0  0  0
  185.4300  177.7530  142.6840 C   0  0  0  0  0  2  0  0  0  0  0  0
  184.3660  178.8450  142.7620 C   0  0  0  0  0  0  0  0  0  0  0  0
  183.3690  178.8310  143.9030 C   0  0  0  0  0  2  0  0  0  0  0  0
  184.5780  179.7480  143.9600 C   0  0  0  0  0  2  0  0  0  0  0  0
  184.0550  179.6050  141.6120 O   0  0  0  0  0  0  0  0  0  0  0  0
  183.2090  178.9040  140.7130 C   0  0  0  0  0  0  0  0  0  0  0  0
  181.8700  178.9790  141.1040 O   0  0  0  0  0  1  0  0  0  0  0  0
  183.5860  177.5600  140.7180 O   0  0  0  0  0  1  0  0  0  0  0  0
  184.5490  180.1250  139.1370 O   0  0  0  0  0  1  0  0  0  0  0  0
  183.3450  179.4350  139.2890 C   0  0  0  0  0  2  0  0  0  0  0  0
  1  6  1  0  0  0  0
  2  4  1  0  0  0  0
  3  2  2  0  0  0  0
  5  1  2  0  0  0  0
  5  3  1  0  0  0  0
  6  4  2  0  0  0  0
  7  8  1  0  0  0  0
  8  9  2  0  0  0  0
  8  1  1  0  0  0  0
 10  7  1  0  0  0  0
 11 10  1  0  0  0  0
 12 17  1  0  0  0  0
 13 12  1  0  0  0  0
 13 14  1  0  0  0  0
 14 18  1  6  0  0  0
 14 16  1  0  0  0  0
 15 11  1  6  0  0  0
 16 15  1  0  0  0  0
 17 15  1  0  0  0  0
 18 19  1  0  0  0  0
 20 18  1  0  0  0  0
 20 19  1  0  0  0  0
 21 22  1  0  0  0  0
 21  5  1  0  0  0  0
 23 24  1  0  0  0  0
 23 22  1  0  0  0  0
 24 25  1  0  0  0  0
 24 26  1  0  0  0  0
 25 26  1  0  0  0  0
 27 24  1  0  0  0  0
 28 30  1  0  0  0  0
 28 29  1  0  0  0  0
 28 27  1  0  0  0  0
 31 32  1  0  0  0  0
 32 28  1  0  0  0  0
M  END
>  <MODEL>
9

>  <REMARK>
 VINA RESULT:      -7.7      2.283      6.578
  Name = 
  12 active torsions:
  status: ('A' for Active; 'I' for Inactive)
    1  A    between atoms: C_1  and  C_15
    2  A    between atoms: C_2  and  C_10
    3  A    between atoms: C_3  and  C_9
    4  A    between atoms: C_3  and  O_11
    5  A    between atoms: C_6  and  O_11
    6  A    between atoms: C_6  and  C_21
    7  A    between atoms: C_8  and  C_18
    8  A    between atoms: C_8  and  C_24
    9  A    between atoms: C_9  and  C_30
   10  A    between atoms: S_13  and  C_26
   11  A    between atoms: S_13  and  C_30
   12  A    between atoms: N_14  and  C_24
                            x       y       z     vdW  Elec       q    Type
                         _______ _______ _______ _____ _____    ______ ____

>  <TORSDO>
F 12

$$$$
