=
 OpenBabel11042413263D

 50 57  0  0  1  0  0  0  0  0999 V2000
  191.3350  178.0170  145.0370 C   0  0  0  0  0  2  0  0  0  0  0  0
  189.5690  177.2440  146.6420 C   0  0  0  0  0  0  0  0  0  0  0  0
  187.2570  177.8640  143.0450 C   0  0  0  0  0  0  0  0  0  0  0  0
  187.7240  177.5660  141.8670 N   0  0  0  0  0  0  0  0  0  0  0  0
  187.5240  178.0070  148.0130 C   0  0  0  0  0  1  0  0  0  0  0  0
  188.0200  177.5110  144.2620 C   0  0  0  0  0  0  0  0  0  0  0  0
  189.9460  176.9140  142.8150 C   0  0  2  0  0  3  0  0  0  0  0  0
  190.2280  177.0720  147.7020 O   0  0  0  0  0  0  0  0  0  0  0  0
  188.9350  176.7690  141.6620 C   0  0  2  0  0  3  0  0  0  0  0  0
  189.2670  177.0170  144.1510 C   0  0  0  0  0  0  0  0  0  0  0  0
  188.1650  177.6900  146.7070 C   0  0  0  0  0  0  0  0  0  0  0  0
  187.4530  177.8240  145.5880 C   0  0  0  0  0  3  0  0  0  0  0  0
  191.8530  177.8610  143.5930 C   0  0  0  0  0  2  0  0  0  0  0  0
  190.8020  178.0230  142.6580 O   0  0  0  0  0  0  0  0  0  0  0  0
  190.2290  176.9880  145.3130 C   0  0  1  0  0  3  0  0  0  0  0  0
  190.5290  176.3420  139.9260 O   0  0  0  0  0  0  0  0  0  0  0  0
  189.5550  177.0360  140.3260 C   0  0  0  0  0  0  0  0  0  0  0  0
  188.9730  178.0220  139.4690 N   0  0  0  0  0  2  0  0  0  0  0  0
  185.8250  177.5240  136.7220 C   0  0  1  0  0  3  0  0  0  0  0  0
  189.7070  177.5980  135.2970 C   0  0  0  0  0  2  0  0  0  0  0  0
  186.8360  177.6760  137.8630 C   0  0  0  0  0  2  0  0  0  0  0  0
  187.2810  177.2570  135.0020 C   0  0  0  0  0  2  0  0  0  0  0  0
  189.3660  178.1370  138.1260 N   0  0  0  0  0  0  0  0  0  0  0  0
  188.4880  177.5840  135.8420 C   0  0  0  0  0  0  0  0  0  0  0  0
  186.3050  176.5940  135.7760 O   0  0  0  0  0  0  0  0  0  0  0  0
  188.2250  177.9780  137.2720 C   0  0  1  0  0  0  0  0  0  0  0  0
  188.6780  179.2880  137.5870 N   0  0  0  0  0  2  0  0  0  0  0  0
  183.5970  176.8040  136.2530 O   0  0  0  0  0  1  0  0  0  0  0  0
  184.4950  177.0590  137.2880 C   0  0  0  0  0  2  0  0  0  0  0  0
  186.0540  178.5680  143.1750 O   0  0  0  0  0  0  0  0  0  0  0  0
  185.3180  179.0570  142.0560 C   0  0  0  0  0  2  0  0  0  0  0  0
  183.8550  178.6560  142.1590 C   0  0  0  0  0  2  0  0  0  0  0  0
  183.3930  178.0200  140.8620 C   0  0  0  0  0  2  0  0  0  0  0  0
  183.1330  179.1050  139.8350 C   0  0  0  0  0  2  0  0  0  0  0  0
  180.8530  183.1710  135.5300 N   0  0  0  0  0  0  0  0  0  0  0  0
  181.2650  180.5840  139.1140 C   0  0  0  0  0  2  0  0  0  0  0  0
  180.3060  185.3070  136.3530 N   0  0  0  0  0  0  0  0  0  0  0  0
  180.7670  184.5160  135.3500 C   0  0  0  0  0  3  0  0  0  0  0  0
  179.9310  184.7710  137.5440 C   0  0  0  0  0  0  0  0  0  0  0  0
  180.3250  178.9640  137.5880 C   0  0  1  0  0  3  0  0  0  0  0  0
  179.4500  185.6150  138.5820 N   0  0  0  0  0  1  0  0  0  0  0  0
  180.4900  182.5930  136.7040 C   0  0  0  0  0  0  0  0  0  0  0  0
  181.3540  178.2980  138.3790 N   0  0  0  0  0  0  0  0  0  0  0  0
  180.0150  183.3960  137.7460 C   0  0  0  0  0  3  0  0  0  0  0  0
  180.2120  180.4190  138.0450 C   0  0  2  0  0  3  0  0  0  0  0  0
  180.9080  180.3200  135.8040 N   0  0  0  0  0  0  0  0  0  0  0  0
  180.7510  177.0930  138.9280 C   0  0  0  0  0  1  0  0  0  0  0  0
  181.6510  179.1750  139.5050 C   0  0  1  0  0  3  0  0  0  0  0  0
  180.7820  179.0900  136.1650 C   0  0  0  0  0  3  0  0  0  0  0  0
  180.5820  181.1710  136.8570 N   0  0  0  0  0  0  0  0  0  0  0  0
  2 11  1  0  0  0  0
  2  8  2  0  0  0  0
  3 30  1  0  0  0  0
  3  6  1  0  0  0  0
  4  3  2  0  0  0  0
  6 12  1  0  0  0  0
  7 14  1  6  0  0  0
  7 10  1  0  0  0  0
  9 17  1  6  0  0  0
  9  4  1  0  0  0  0
  9  7  1  0  0  0  0
 10  6  2  0  0  0  0
 10 15  1  0  0  0  0
 11  5  1  0  0  0  0
 12 11  2  0  0  0  0
 13  1  1  0  0  0  0
 14 13  1  0  0  0  0
 15  1  1  6  0  0  0
 15  2  1  0  0  0  0
 16 17  2  0  0  0  0
 18 17  1  0  0  0  0
 19 29  1  1  0  0  0
 19 21  1  0  0  0  0
 20 24  2  0  0  0  0
 22 25  1  0  0  0  0
 22 24  1  0  0  0  0
 23 18  1  0  0  0  0
 24 26  1  0  0  0  0
 25 19  1  0  0  0  0
 26 27  1  0  0  0  0
 26 21  1  1  0  0  0
 26 23  1  0  0  0  0
 27 23  1  0  0  0  0
 28 29  1  0  0  0  0
 31 32  1  0  0  0  0
 31 30  1  0  0  0  0
 33 32  1  0  0  0  0
 34 33  1  0  0  0  0
 35 42  1  0  0  0  0
 36 48  1  0  0  0  0
 37 39  2  0  0  0  0
 38 35  2  0  0  0  0
 38 37  1  0  0  0  0
 39 44  1  0  0  0  0
 39 41  1  0  0  0  0
 40 49  1  6  0  0  0
 40 45  1  0  0  0  0
 40 43  1  0  0  0  0
 42 50  1  0  0  0  0
 42 44  2  0  0  0  0
 43 47  1  0  0  0  0
 43 48  1  0  0  0  0
 45 36  1  1  0  0  0
 46 49  2  0  0  0  0
 46 50  1  0  0  0  0
 48 34  1  6  0  0  0
 50 45  1  0  0  0  0
M  END
>  <MODEL>
1

>  <REMARK>
 VINA RESULT:     -10.5      0.000      0.000
  Name = 
  9 active torsions:
  status: ('A' for Active; 'I' for Inactive)
    1  A    between atoms: C_1  and  C_28
    2  A    between atoms: C_6  and  C_37
    3  A    between atoms: C_6  and  C_49
    4  A    between atoms: C_11  and  O_13
    5  A    between atoms: O_13  and  C_37
    6  A    between atoms: N_18  and  N_33
    7  A    between atoms: C_27  and  C_32
    8  A    between atoms: C_42  and  C_44
    9  A    between atoms: C_42  and  C_49
                            x       y       z     vdW  Elec       q    Type
                         _______ _______ _______ _____ _____    ______ ____

>  <TORSDO>
F 9

$$$$
=
 OpenBabel11042413263D

 50 57  0  0  1  0  0  0  0  0999 V2000
  191.1150  178.0330  145.0060 C   0  0  0  0  0  2  0  0  0  0  0  0
  189.2730  177.3170  146.5510 C   0  0  0  0  0  0  0  0  0  0  0  0
  187.1050  177.9950  142.8760 C   0  0  0  0  0  0  0  0  0  0  0  0
  187.6030  177.6800  141.7150 N   0  0  0  0  0  0  0  0  0  0  0  0
  187.2050  178.1450  147.8500 C   0  0  0  0  0  1  0  0  0  0  0  0
  187.8140  177.6230  144.1190 C   0  0  0  0  0  0  0  0  0  0  0  0
  189.7710  176.9650  142.7400 C   0  0  2  0  0  3  0  0  0  0  0  0
  189.8890  177.1290  147.6340 O   0  0  0  0  0  0  0  0  0  0  0  0
  188.7960  176.8470  141.5530 C   0  0  2  0  0  3  0  0  0  0  0  0
  189.0500  177.0920  144.0520 C   0  0  0  0  0  0  0  0  0  0  0  0
  187.8810  177.8050  146.5670 C   0  0  0  0  0  0  0  0  0  0  0  0
  187.2120  177.9560  145.4240 C   0  0  0  0  0  3  0  0  0  0  0  0
  191.6770  177.8580  143.5820 C   0  0  0  0  0  2  0  0  0  0  0  0
  190.6640  178.0480  142.6100 O   0  0  0  0  0  0  0  0  0  0  0  0
  189.9700  177.0380  145.2460 C   0  0  1  0  0  3  0  0  0  0  0  0
  190.4040  176.3380  139.8530 O   0  0  0  0  0  0  0  0  0  0  0  0
  189.4690  177.0910  140.2390 C   0  0  0  0  0  0  0  0  0  0  0  0
  188.9790  178.1290  139.3850 N   0  0  0  0  0  2  0  0  0  0  0  0
  186.0350  177.1630  136.5390 C   0  0  1  0  0  3  0  0  0  0  0  0
  189.9420  177.6340  135.2670 C   0  0  0  0  0  2  0  0  0  0  0  0
  186.9700  177.4740  137.7110 C   0  0  0  0  0  2  0  0  0  0  0  0
  187.5870  177.0020  134.8910 C   0  0  0  0  0  2  0  0  0  0  0  0
  189.4160  178.2370  138.0540 N   0  0  0  0  0  0  0  0  0  0  0  0
  188.7100  177.4990  135.7640 C   0  0  0  0  0  0  0  0  0  0  0  0
  186.6600  176.2590  135.6530 O   0  0  0  0  0  0  0  0  0  0  0  0
  188.3400  177.9140  137.1630 C   0  0  1  0  0  0  0  0  0  0  0  0
  188.6250  179.2780  137.4390 N   0  0  0  0  0  2  0  0  0  0  0  0
  184.5660  175.2810  136.5650 O   0  0  0  0  0  1  0  0  0  0  0  0
  184.7430  176.5670  137.0700 C   0  0  0  0  0  2  0  0  0  0  0  0
  185.9190  178.7340  142.9630 O   0  0  0  0  0  0  0  0  0  0  0  0
  184.6270  178.1340  142.9320 C   0  0  0  0  0  2  0  0  0  0  0  0
  183.7510  178.7970  141.8810 C   0  0  0  0  0  2  0  0  0  0  0  0
  184.0870  178.2590  140.5030 C   0  0  0  0  0  2  0  0  0  0  0  0
  184.0550  179.3940  139.4980 C   0  0  0  0  0  2  0  0  0  0  0  0
  179.2040  175.6920  141.2410 N   0  0  0  0  0  0  0  0  0  0  0  0
  182.0960  178.0210  138.8080 C   0  0  0  0  0  2  0  0  0  0  0  0
  179.2150  173.5220  140.3260 N   0  0  0  0  0  0  0  0  0  0  0  0
  178.9310  174.3640  141.3540 C   0  0  0  0  0  3  0  0  0  0  0  0
  179.7760  173.9890  139.1810 C   0  0  0  0  0  0  0  0  0  0  0  0
  180.4830  179.7660  139.2490 C   0  0  1  0  0  3  0  0  0  0  0  0
  180.0650  173.0930  138.1150 N   0  0  0  0  0  1  0  0  0  0  0  0
  179.7670  176.2010  140.1150 C   0  0  0  0  0  0  0  0  0  0  0  0
  181.8190  180.3480  139.3430 N   0  0  0  0  0  0  0  0  0  0  0  0
  180.0670  175.3450  139.0500 C   0  0  0  0  0  3  0  0  0  0  0  0
  180.6110  178.2890  138.8770 C   0  0  2  0  0  3  0  0  0  0  0  0
  179.6200  178.5150  140.9950 N   0  0  0  0  0  0  0  0  0  0  0  0
  181.8250  181.5310  138.4970 C   0  0  0  0  0  1  0  0  0  0  0  0
  182.7370  179.3900  138.7400 C   0  0  1  0  0  3  0  0  0  0  0  0
  179.8530  179.7220  140.6090 C   0  0  0  0  0  3  0  0  0  0  0  0
  180.0330  177.6060  140.0240 N   0  0  0  0  0  0  0  0  0  0  0  0
  2 11  1  0  0  0  0
  2  8  2  0  0  0  0
  3 30  1  0  0  0  0
  3  6  1  0  0  0  0
  4  3  2  0  0  0  0
  6 12  1  0  0  0  0
  7 14  1  6  0  0  0
  7 10  1  0  0  0  0
  9 17  1  6  0  0  0
  9  4  1  0  0  0  0
  9  7  1  0  0  0  0
 10  6  2  0  0  0  0
 10 15  1  0  0  0  0
 11  5  1  0  0  0  0
 12 11  2  0  0  0  0
 13  1  1  0  0  0  0
 14 13  1  0  0  0  0
 15  1  1  6  0  0  0
 15  2  1  0  0  0  0
 16 17  2  0  0  0  0
 18 17  1  0  0  0  0
 19 29  1  1  0  0  0
 19 21  1  0  0  0  0
 20 24  2  0  0  0  0
 22 25  1  0  0  0  0
 22 24  1  0  0  0  0
 23 18  1  0  0  0  0
 24 26  1  0  0  0  0
 25 19  1  0  0  0  0
 26 27  1  0  0  0  0
 26 21  1  1  0  0  0
 26 23  1  0  0  0  0
 27 23  1  0  0  0  0
 28 29  1  0  0  0  0
 31 30  1  0  0  0  0
 32 31  1  0  0  0  0
 33 32  1  0  0  0  0
 34 33  1  0  0  0  0
 35 38  1  0  0  0  0
 37 38  2  0  0  0  0
 39 37  1  0  0  0  0
 40 43  1  0  0  0  0
 40 49  1  1  0  0  0
 41 39  1  0  0  0  0
 42 35  2  0  0  0  0
 44 39  2  0  0  0  0
 44 42  1  0  0  0  0
 45 36  1  1  0  0  0
 45 40  1  0  0  0  0
 45 50  1  0  0  0  0
 47 43  1  0  0  0  0
 48 36  1  0  0  0  0
 48 43  1  0  0  0  0
 48 34  1  1  0  0  0
 49 46  2  0  0  0  0
 50 42  1  0  0  0  0
 50 46  1  0  0  0  0
M  END
>  <MODEL>
2

>  <REMARK>
 VINA RESULT:     -10.2      1.974      4.279
  Name = 
  9 active torsions:
  status: ('A' for Active; 'I' for Inactive)
    1  A    between atoms: C_1  and  C_28
    2  A    between atoms: C_6  and  C_37
    3  A    between atoms: C_6  and  C_49
    4  A    between atoms: C_11  and  O_13
    5  A    between atoms: O_13  and  C_37
    6  A    between atoms: N_18  and  N_33
    7  A    between atoms: C_27  and  C_32
    8  A    between atoms: C_42  and  C_44
    9  A    between atoms: C_42  and  C_49
                            x       y       z     vdW  Elec       q    Type
                         _______ _______ _______ _____ _____    ______ ____

>  <TORSDO>
F 9

$$$$
=
 OpenBabel11042413263D

 50 57  0  0  1  0  0  0  0  0999 V2000
  191.2290  178.4040  145.2420 C   0  0  0  0  0  2  0  0  0  0  0  0
  189.6210  177.4180  146.8950 C   0  0  0  0  0  0  0  0  0  0  0  0
  187.2110  177.5400  143.3110 C   0  0  0  0  0  0  0  0  0  0  0  0
  187.7090  177.2790  142.1370 N   0  0  0  0  0  0  0  0  0  0  0  0
  187.4910  177.8960  148.2680 C   0  0  0  0  0  1  0  0  0  0  0  0
  188.0300  177.3550  144.5280 C   0  0  0  0  0  0  0  0  0  0  0  0
  190.0140  177.0190  143.0760 C   0  0  2  0  0  3  0  0  0  0  0  0
  190.3060  177.3890  147.9520 O   0  0  0  0  0  0  0  0  0  0  0  0
  189.0300  176.6770  141.9420 C   0  0  2  0  0  3  0  0  0  0  0  0
  189.3390  177.0600  144.4180 C   0  0  0  0  0  0  0  0  0  0  0  0
  188.1640  177.6390  146.9640 C   0  0  0  0  0  0  0  0  0  0  0  0
  187.4310  177.6200  145.8510 C   0  0  0  0  0  3  0  0  0  0  0  0
  191.7540  178.2820  143.7980 C   0  0  0  0  0  2  0  0  0  0  0  0
  190.6830  178.2440  142.8710 O   0  0  0  0  0  0  0  0  0  0  0  0
  190.3020  177.2240  145.5660 C   0  0  1  0  0  3  0  0  0  0  0  0
  190.5890  176.3600  140.1520 O   0  0  0  0  0  0  0  0  0  0  0  0
  189.5890  176.9910  140.5900 C   0  0  0  0  0  0  0  0  0  0  0  0
  188.9230  177.9500  139.7630 N   0  0  0  0  0  2  0  0  0  0  0  0
  185.6320  177.7900  137.1460 C   0  0  1  0  0  3  0  0  0  0  0  0
  189.4450  177.6690  135.5470 C   0  0  0  0  0  2  0  0  0  0  0  0
  186.7000  177.8210  138.2440 C   0  0  0  0  0  2  0  0  0  0  0  0
  186.9910  177.5050  135.3510 C   0  0  0  0  0  2  0  0  0  0  0  0
  189.2640  178.0990  138.4090 N   0  0  0  0  0  0  0  0  0  0  0  0
  188.2530  177.7120  136.1470 C   0  0  0  0  0  0  0  0  0  0  0  0
  186.0050  176.8740  136.1390 O   0  0  0  0  0  0  0  0  0  0  0  0
  188.0790  178.0560  137.6030 C   0  0  1  0  0  0  0  0  0  0  0  0
  188.6350  179.3170  137.9520 N   0  0  0  0  0  2  0  0  0  0  0  0
  183.5410  178.5240  138.0340 O   0  0  0  0  0  1  0  0  0  0  0  0
  184.2990  177.3890  137.7510 C   0  0  0  0  0  2  0  0  0  0  0  0
  185.9130  178.0490  143.4330 O   0  0  0  0  0  0  0  0  0  0  0  0
  185.4240  179.1260  142.6360 C   0  0  0  0  0  2  0  0  0  0  0  0
  184.8660  178.6080  141.3200 C   0  0  0  0  0  2  0  0  0  0  0  0
  183.4420  178.1210  141.5090 C   0  0  0  0  0  2  0  0  0  0  0  0
  182.8040  178.8670  142.6640 C   0  0  0  0  0  2  0  0  0  0  0  0
  180.2520  177.5450  137.0070 N   0  0  0  0  0  0  0  0  0  0  0  0
  181.2260  179.5290  140.8570 C   0  0  0  0  0  2  0  0  0  0  0  0
  180.5630  179.1910  135.3520 N   0  0  0  0  0  0  0  0  0  0  0  0
  180.4420  177.8830  135.7040 C   0  0  0  0  0  3  0  0  0  0  0  0
  180.5020  180.1700  136.2910 C   0  0  0  0  0  0  0  0  0  0  0  0
  179.4510  178.0770  141.6200 C   0  0  1  0  0  3  0  0  0  0  0  0
  180.6290  181.5330  135.9050 N   0  0  0  0  0  1  0  0  0  0  0  0
  180.1860  178.4920  137.9780 C   0  0  0  0  0  0  0  0  0  0  0  0
  180.4940  178.0970  142.6420 N   0  0  0  0  0  0  0  0  0  0  0  0
  180.3110  179.8410  137.6310 C   0  0  0  0  0  3  0  0  0  0  0  0
  179.8630  179.0040  140.4760 C   0  0  2  0  0  3  0  0  0  0  0  0
  179.6980  176.7880  139.7140 N   0  0  0  0  0  0  0  0  0  0  0  0
  179.8400  178.4010  143.9060 C   0  0  0  0  0  1  0  0  0  0  0  0
  181.3650  179.2230  142.3320 C   0  0  1  0  0  3  0  0  0  0  0  0
  179.4080  176.7280  140.9670 C   0  0  0  0  0  3  0  0  0  0  0  0
  179.9740  178.1010  139.3400 N   0  0  0  0  0  0  0  0  0  0  0  0
  2 11  1  0  0  0  0
  2  8  2  0  0  0  0
  3 30  1  0  0  0  0
  3  6  1  0  0  0  0
  4  3  2  0  0  0  0
  6 12  1  0  0  0  0
  7 14  1  6  0  0  0
  7 10  1  0  0  0  0
  9 17  1  6  0  0  0
  9  4  1  0  0  0  0
  9  7  1  0  0  0  0
 10  6  2  0  0  0  0
 10 15  1  0  0  0  0
 11  5  1  0  0  0  0
 12 11  2  0  0  0  0
 13  1  1  0  0  0  0
 14 13  1  0  0  0  0
 15  1  1  6  0  0  0
 15  2  1  0  0  0  0
 16 17  2  0  0  0  0
 18 17  1  0  0  0  0
 19 29  1  1  0  0  0
 19 21  1  0  0  0  0
 20 24  2  0  0  0  0
 22 25  1  0  0  0  0
 22 24  1  0  0  0  0
 23 18  1  0  0  0  0
 24 26  1  0  0  0  0
 25 19  1  0  0  0  0
 26 27  1  0  0  0  0
 26 21  1  1  0  0  0
 26 23  1  0  0  0  0
 27 23  1  0  0  0  0
 29 28  1  0  0  0  0
 31 30  1  0  0  0  0
 32 33  1  0  0  0  0
 32 31  1  0  0  0  0
 33 34  1  0  0  0  0
 35 42  1  0  0  0  0
 36 48  1  0  0  0  0
 37 38  1  0  0  0  0
 37 39  2  0  0  0  0
 38 35  2  0  0  0  0
 39 44  1  0  0  0  0
 40 49  1  6  0  0  0
 40 43  1  0  0  0  0
 41 39  1  0  0  0  0
 42 50  1  0  0  0  0
 43 47  1  0  0  0  0
 44 42  2  0  0  0  0
 45 36  1  1  0  0  0
 45 40  1  0  0  0  0
 46 49  2  0  0  0  0
 48 43  1  0  0  0  0
 48 34  1  6  0  0  0
 50 46  1  0  0  0  0
 50 45  1  0  0  0  0
M  END
>  <MODEL>
3

>  <REMARK>
 VINA RESULT:     -10.0      1.654      2.749
  Name = 
  9 active torsions:
  status: ('A' for Active; 'I' for Inactive)
    1  A    between atoms: C_1  and  C_28
    2  A    between atoms: C_6  and  C_37
    3  A    between atoms: C_6  and  C_49
    4  A    between atoms: C_11  and  O_13
    5  A    between atoms: O_13  and  C_37
    6  A    between atoms: N_18  and  N_33
    7  A    between atoms: C_27  and  C_32
    8  A    between atoms: C_42  and  C_44
    9  A    between atoms: C_42  and  C_49
                            x       y       z     vdW  Elec       q    Type
                         _______ _______ _______ _____ _____    ______ ____

>  <TORSDO>
F 9

$$$$
=
 OpenBabel11042413263D

 50 57  0  0  1  0  0  0  0  0999 V2000
  183.7670  178.3250  145.1720 C   0  0  0  0  0  2  0  0  0  0  0  0
  185.8350  178.6490  146.5540 C   0  0  0  0  0  0  0  0  0  0  0  0
  187.5180  177.6200  142.7100 C   0  0  0  0  0  0  0  0  0  0  0  0
  186.9950  178.0420  141.5950 N   0  0  0  0  0  0  0  0  0  0  0  0
  187.8040  177.4180  147.6750 C   0  0  0  0  0  1  0  0  0  0  0  0
  186.9990  178.1030  144.0080 C   0  0  0  0  0  0  0  0  0  0  0  0
  185.1000  179.1470  142.7980 C   0  0  2  0  0  3  0  0  0  0  0  0
  185.3590  178.9360  147.6850 O   0  0  0  0  0  0  0  0  0  0  0  0
  185.9770  179.0920  141.5340 C   0  0  2  0  0  3  0  0  0  0  0  0
  185.8890  178.8640  144.0450 C   0  0  0  0  0  0  0  0  0  0  0  0
  187.1030  177.9010  146.4540 C   0  0  0  0  0  0  0  0  0  0  0  0
  187.6320  177.6400  145.2580 C   0  0  0  0  0  3  0  0  0  0  0  0
  183.1330  178.6260  143.8000 C   0  0  0  0  0  2  0  0  0  0  0  0
  184.0050  178.2590  142.7460 O   0  0  0  0  0  0  0  0  0  0  0  0
  185.0990  179.0760  145.3130 C   0  0  1  0  0  3  0  0  0  0  0  0
  185.7120  178.7200  139.1820 O   0  0  0  0  0  0  0  0  0  0  0  0
  185.1620  179.0020  140.2810 C   0  0  0  0  0  0  0  0  0  0  0  0
  183.7410  179.1480  140.3600 N   0  0  0  0  0  2  0  0  0  0  0  0
  179.6440  178.9480  141.3010 C   0  0  1  0  0  3  0  0  0  0  0  0
  180.8970  177.5860  137.6020 C   0  0  0  0  0  2  0  0  0  0  0  0
  181.1640  179.0640  141.1490 C   0  0  0  0  0  2  0  0  0  0  0  0
  179.1800  177.8910  139.3470 C   0  0  0  0  0  2  0  0  0  0  0  0
  182.9190  178.8340  139.2650 N   0  0  0  0  0  0  0  0  0  0  0  0
  180.5810  178.0450  138.8160 C   0  0  0  0  0  0  0  0  0  0  0  0
  179.1980  177.7280  140.7490 O   0  0  0  0  0  0  0  0  0  0  0  0
  181.5460  178.8150  139.6780 C   0  0  1  0  0  0  0  0  0  0  0  0
  182.0630  179.9770  139.0450 N   0  0  0  0  0  2  0  0  0  0  0  0
  179.6620  177.8510  143.4210 O   0  0  0  0  0  1  0  0  0  0  0  0
  179.2790  179.0230  142.7720 C   0  0  0  0  0  2  0  0  0  0  0  0
  188.5400  176.6640  142.6970 O   0  0  0  0  0  0  0  0  0  0  0  0
  189.8740  176.9610  142.2890 C   0  0  0  0  0  2  0  0  0  0  0  0
  190.1510  176.3910  140.9080 C   0  0  0  0  0  2  0  0  0  0  0  0
  190.4380  177.5110  139.9260 C   0  0  0  0  0  2  0  0  0  0  0  0
  189.1660  177.8660  139.1820 C   0  0  0  0  0  2  0  0  0  0  0  0
  193.6240  173.7850  137.2480 N   0  0  0  0  0  0  0  0  0  0  0  0
  190.6850  177.1100  137.3600 C   0  0  0  0  0  2  0  0  0  0  0  0
  195.6550  174.7620  136.5670 N   0  0  0  0  0  0  0  0  0  0  0  0
  194.9790  173.7360  137.1480 C   0  0  0  0  0  3  0  0  0  0  0  0
  194.9920  175.8460  136.0860 C   0  0  0  0  0  0  0  0  0  0  0  0
  189.2190  175.3360  136.6220 C   0  0  1  0  0  3  0  0  0  0  0  0
  195.7160  176.9090  135.4800 N   0  0  0  0  0  1  0  0  0  0  0  0
  192.9220  174.8500  136.7830 C   0  0  0  0  0  0  0  0  0  0  0  0
  188.4890  176.1590  137.5820 N   0  0  0  0  0  0  0  0  0  0  0  0
  193.6040  175.9140  136.1850 C   0  0  0  0  0  3  0  0  0  0  0  0
  190.6160  175.9260  136.4260 C   0  0  2  0  0  3  0  0  0  0  0  0
  190.7610  173.7710  137.3480 N   0  0  0  0  0  0  0  0  0  0  0  0
  187.2250  176.5160  136.9560 C   0  0  0  0  0  1  0  0  0  0  0  0
  189.2480  177.3930  137.7400 C   0  0  1  0  0  3  0  0  0  0  0  0
  189.4990  173.9890  137.2180 C   0  0  0  0  0  3  0  0  0  0  0  0
  191.4940  174.8660  136.8960 N   0  0  0  0  0  0  0  0  0  0  0  0
  2  8  2  0  0  0  0
  3  6  1  0  0  0  0
  4  3  2  0  0  0  0
  6 10  2  0  0  0  0
  6 12  1  0  0  0  0
  7 14  1  6  0  0  0
  7 10  1  0  0  0  0
  9 17  1  6  0  0  0
  9  4  1  0  0  0  0
  9  7  1  0  0  0  0
 10 15  1  0  0  0  0
 11  2  1  0  0  0  0
 11  5  1  0  0  0  0
 12 11  2  0  0  0  0
 13  1  1  0  0  0  0
 14 13  1  0  0  0  0
 15  1  1  6  0  0  0
 15  2  1  0  0  0  0
 16 17  2  0  0  0  0
 17 18  1  0  0  0  0
 19 29  1  1  0  0  0
 20 24  2  0  0  0  0
 21 19  1  0  0  0  0
 22 25  1  0  0  0  0
 23 26  1  0  0  0  0
 23 18  1  0  0  0  0
 24 22  1  0  0  0  0
 24 26  1  0  0  0  0
 25 19  1  0  0  0  0
 26 21  1  1  0  0  0
 27 23  1  0  0  0  0
 27 26  1  0  0  0  0
 29 28  1  0  0  0  0
 30  3  1  0  0  0  0
 31 30  1  0  0  0  0
 32 31  1  0  0  0  0
 33 32  1  0  0  0  0
 34 33  1  0  0  0  0
 36 48  1  0  0  0  0
 37 38  2  0  0  0  0
 38 35  1  0  0  0  0
 39 44  2  0  0  0  0
 39 37  1  0  0  0  0
 40 49  1  1  0  0  0
 40 43  1  0  0  0  0
 41 39  1  0  0  0  0
 42 50  1  0  0  0  0
 42 35  2  0  0  0  0
 43 48  1  0  0  0  0
 44 42  1  0  0  0  0
 45 40  1  0  0  0  0
 45 50  1  0  0  0  0
 45 36  1  1  0  0  0
 47 43  1  0  0  0  0
 48 34  1  1  0  0  0
 49 46  2  0  0  0  0
 50 46  1  0  0  0  0
M  END
>  <MODEL>
4

>  <REMARK>
 VINA RESULT:      -9.3      3.341      9.163
  Name = 
  9 active torsions:
  status: ('A' for Active; 'I' for Inactive)
    1  A    between atoms: C_1  and  C_28
    2  A    between atoms: C_6  and  C_37
    3  A    between atoms: C_6  and  C_49
    4  A    between atoms: C_11  and  O_13
    5  A    between atoms: O_13  and  C_37
    6  A    between atoms: N_18  and  N_33
    7  A    between atoms: C_27  and  C_32
    8  A    between atoms: C_42  and  C_44
    9  A    between atoms: C_42  and  C_49
                            x       y       z     vdW  Elec       q    Type
                         _______ _______ _______ _____ _____    ______ ____

>  <TORSDO>
F 9

$$$$
=
 OpenBabel11042413263D

 50 57  0  0  1  0  0  0  0  0999 V2000
  191.5790  177.7510  144.7020 C   0  0  0  0  0  2  0  0  0  0  0  0
  189.8130  176.9850  146.3090 C   0  0  0  0  0  0  0  0  0  0  0  0
  187.4550  177.9070  142.8080 C   0  0  0  0  0  0  0  0  0  0  0  0
  187.8790  177.6490  141.6050 N   0  0  0  0  0  0  0  0  0  0  0  0
  187.8410  177.7770  147.7690 C   0  0  0  0  0  1  0  0  0  0  0  0
  188.2260  177.4540  143.9860 C   0  0  0  0  0  0  0  0  0  0  0  0
  190.0850  176.8370  142.4620 C   0  0  2  0  0  3  0  0  0  0  0  0
  190.4850  176.7250  147.3430 O   0  0  0  0  0  0  0  0  0  0  0  0
  189.0420  176.8040  141.3290 C   0  0  2  0  0  3  0  0  0  0  0  0
  189.4430  176.9040  143.8190 C   0  0  0  0  0  0  0  0  0  0  0  0
  188.4350  177.4970  146.4330 C   0  0  0  0  0  0  0  0  0  0  0  0
  187.7060  177.7250  145.3400 C   0  0  0  0  0  3  0  0  0  0  0  0
  192.0560  177.6450  143.2400 C   0  0  0  0  0  2  0  0  0  0  0  0
  190.9940  177.9080  142.3400 O   0  0  0  0  0  0  0  0  0  0  0  0
  190.4280  176.7660  144.9530 C   0  0  1  0  0  3  0  0  0  0  0  0
  189.6770  178.2930  139.5630 O   0  0  0  0  0  0  0  0  0  0  0  0
  189.6450  177.1080  139.9940 C   0  0  0  0  0  0  0  0  0  0  0  0
  190.2680  176.0550  139.2520 N   0  0  0  0  0  2  0  0  0  0  0  0
  189.3310  173.6860  135.9040 C   0  0  1  0  0  3  0  0  0  0  0  0
  192.7550  176.0030  135.7960 C   0  0  0  0  0  2  0  0  0  0  0  0
  189.5300  174.4490  137.2160 C   0  0  0  0  0  2  0  0  0  0  0  0
  191.2600  174.2760  134.8640 C   0  0  0  0  0  2  0  0  0  0  0  0
  191.0520  176.3330  138.1200 N   0  0  0  0  0  0  0  0  0  0  0  0
  191.6350  175.2870  135.9160 C   0  0  0  0  0  0  0  0  0  0  0  0
  190.5700  173.1900  135.4430 O   0  0  0  0  0  0  0  0  0  0  0  0
  190.6420  175.4970  137.0290 C   0  0  1  0  0  0  0  0  0  0  0  0
  190.1540  176.8290  137.1020 N   0  0  0  0  0  2  0  0  0  0  0  0
  187.8420  172.6010  137.4220 O   0  0  0  0  0  1  0  0  0  0  0  0
  188.3600  172.5410  136.1300 C   0  0  0  0  0  2  0  0  0  0  0  0
  186.2930  178.6630  143.0040 O   0  0  0  0  0  0  0  0  0  0  0  0
  185.0470  178.0850  143.3850 C   0  0  0  0  0  2  0  0  0  0  0  0
  184.3410  178.9570  144.4110 C   0  0  0  0  0  2  0  0  0  0  0  0
  182.9780  179.3760  143.8940 C   0  0  0  0  0  2  0  0  0  0  0  0
  182.4470  178.3120  142.9550 C   0  0  0  0  0  2  0  0  0  0  0  0
  184.5630  175.9170  137.4730 N   0  0  0  0  0  0  0  0  0  0  0  0
  183.1980  178.7350  140.6200 C   0  0  0  0  0  2  0  0  0  0  0  0
  186.6510  176.7350  136.7570 N   0  0  0  0  0  0  0  0  0  0  0  0
  185.7520  175.7190  136.8440 C   0  0  0  0  0  3  0  0  0  0  0  0
  186.3790  177.9510  137.2970 C   0  0  0  0  0  0  0  0  0  0  0  0
  181.0560  178.2020  139.6370 C   0  0  1  0  0  3  0  0  0  0  0  0
  187.3320  179.0020  137.1940 N   0  0  0  0  0  1  0  0  0  0  0  0
  184.2510  177.1160  138.0280 C   0  0  0  0  0  0  0  0  0  0  0  0
  180.8860  178.2720  141.0850 N   0  0  0  0  0  0  0  0  0  0  0  0
  185.1670  178.1690  137.9480 C   0  0  0  0  0  3  0  0  0  0  0  0
  182.5110  178.5220  139.2930 C   0  0  2  0  0  3  0  0  0  0  0  0
  181.9840  176.3240  138.6520 N   0  0  0  0  0  0  0  0  0  0  0  0
  179.7640  179.1640  141.3360 C   0  0  0  0  0  1  0  0  0  0  0  0
  182.0760  178.9270  141.6160 C   0  0  1  0  0  3  0  0  0  0  0  0
  180.9020  176.7830  139.1780 C   0  0  0  0  0  3  0  0  0  0  0  0
  182.9850  177.2940  138.6750 N   0  0  0  0  0  0  0  0  0  0  0  0
  2 11  1  0  0  0  0
  2  8  2  0  0  0  0
  3 30  1  0  0  0  0
  3  6  1  0  0  0  0
  4  3  2  0  0  0  0
  6 12  1  0  0  0  0
  7 14  1  6  0  0  0
  7 10  1  0  0  0  0
  9 17  1  6  0  0  0
  9  4  1  0  0  0  0
  9  7  1  0  0  0  0
 10  6  2  0  0  0  0
 10 15  1  0  0  0  0
 11  5  1  0  0  0  0
 12 11  2  0  0  0  0
 13  1  1  0  0  0  0
 14 13  1  0  0  0  0
 15  1  1  6  0  0  0
 15  2  1  0  0  0  0
 16 17  2  0  0  0  0
 18 17  1  0  0  0  0
 19 29  1  1  0  0  0
 19 21  1  0  0  0  0
 20 24  2  0  0  0  0
 22 25  1  0  0  0  0
 22 24  1  0  0  0  0
 23 18  1  0  0  0  0
 24 26  1  0  0  0  0
 25 19  1  0  0  0  0
 26 27  1  0  0  0  0
 26 21  1  1  0  0  0
 26 23  1  0  0  0  0
 27 23  1  0  0  0  0
 29 28  1  0  0  0  0
 30 31  1  0  0  0  0
 31 32  1  0  0  0  0
 33 32  1  0  0  0  0
 34 33  1  0  0  0  0
 35 42  1  0  0  0  0
 36 48  1  0  0  0  0
 37 38  1  0  0  0  0
 37 39  2  0  0  0  0
 38 35  2  0  0  0  0
 39 44  1  0  0  0  0
 40 49  1  1  0  0  0
 40 43  1  0  0  0  0
 41 39  1  0  0  0  0
 42 50  1  0  0  0  0
 43 47  1  0  0  0  0
 43 48  1  0  0  0  0
 44 42  2  0  0  0  0
 45 40  1  0  0  0  0
 45 36  1  1  0  0  0
 46 50  1  0  0  0  0
 46 49  2  0  0  0  0
 48 34  1  1  0  0  0
 50 45  1  0  0  0  0
M  END
>  <MODEL>
5

>  <REMARK>
 VINA RESULT:      -9.2      3.273      4.400
  Name = 
  9 active torsions:
  status: ('A' for Active; 'I' for Inactive)
    1  A    between atoms: C_1  and  C_28
    2  A    between atoms: C_6  and  C_37
    3  A    between atoms: C_6  and  C_49
    4  A    between atoms: C_11  and  O_13
    5  A    between atoms: O_13  and  C_37
    6  A    between atoms: N_18  and  N_33
    7  A    between atoms: C_27  and  C_32
    8  A    between atoms: C_42  and  C_44
    9  A    between atoms: C_42  and  C_49
                            x       y       z     vdW  Elec       q    Type
                         _______ _______ _______ _____ _____    ______ ____

>  <TORSDO>
F 9

$$$$
=
 OpenBabel11042413263D

 50 57  0  0  1  0  0  0  0  0999 V2000
  190.2760  175.8430  137.1050 C   0  0  0  0  0  2  0  0  0  0  0  0
  189.0160  177.5480  135.7640 C   0  0  0  0  0  0  0  0  0  0  0  0
  187.5360  178.3170  139.7490 C   0  0  0  0  0  0  0  0  0  0  0  0
  188.3080  178.2520  140.7950 N   0  0  0  0  0  0  0  0  0  0  0  0
  186.6880  178.1700  134.8470 C   0  0  0  0  0  1  0  0  0  0  0  0
  188.1040  178.1840  138.3910 C   0  0  0  0  0  0  0  0  0  0  0  0
  190.2560  177.4950  139.4190 C   0  0  2  0  0  3  0  0  0  0  0  0
  189.4280  177.3260  134.5940 O   0  0  0  0  0  0  0  0  0  0  0  0
  189.7680  178.1780  140.7100 C   0  0  2  0  0  3  0  0  0  0  0  0
  189.3980  177.8460  138.2360 C   0  0  0  0  0  0  0  0  0  0  0  0
  187.6350  178.0160  135.9860 C   0  0  0  0  0  0  0  0  0  0  0  0
  187.2150  178.2980  137.2190 C   0  0  0  0  0  3  0  0  0  0  0  0
  191.0580  175.6270  138.4150 C   0  0  0  0  0  2  0  0  0  0  0  0
  190.3180  176.0910  139.5300 O   0  0  0  0  0  0  0  0  0  0  0  0
  189.9460  177.3320  136.9280 C   0  0  1  0  0  3  0  0  0  0  0  0
  191.5490  177.1280  141.9200 O   0  0  0  0  0  0  0  0  0  0  0  0
  190.3650  177.5640  141.9370 C   0  0  0  0  0  0  0  0  0  0  0  0
  189.6130  177.5610  143.1540 N   0  0  0  0  0  2  0  0  0  0  0  0
  186.9740  177.6140  146.4310 C   0  0  1  0  0  3  0  0  0  0  0  0
  191.0310  177.2750  147.1590 C   0  0  0  0  0  2  0  0  0  0  0  0
  187.7800  177.6490  145.1290 C   0  0  0  0  0  2  0  0  0  0  0  0
  188.6990  177.5790  147.9050 C   0  0  0  0  0  2  0  0  0  0  0  0
  190.2150  177.2210  144.3760 N   0  0  0  0  0  0  0  0  0  0  0  0
  189.7410  177.3890  146.8330 C   0  0  0  0  0  0  0  0  0  0  0  0
  187.6340  178.3690  147.4240 O   0  0  0  0  0  0  0  0  0  0  0  0
  189.2350  177.2420  145.4230 C   0  0  1  0  0  0  0  0  0  0  0  0
  189.5850  176.0010  144.8260 N   0  0  0  0  0  2  0  0  0  0  0  0
  185.4240  179.3760  146.8700 O   0  0  0  0  0  1  0  0  0  0  0  0
  185.5870  178.1770  146.1790 C   0  0  0  0  0  2  0  0  0  0  0  0
  186.1510  178.4600  139.8980 O   0  0  0  0  0  0  0  0  0  0  0  0
  185.5540  179.0920  141.0280 C   0  0  0  0  0  2  0  0  0  0  0  0
  184.4670  178.2110  141.6230 C   0  0  0  0  0  2  0  0  0  0  0  0
  183.4240  177.8830  140.5710 C   0  0  0  0  0  2  0  0  0  0  0  0
  182.9400  179.1660  139.9240 C   0  0  0  0  0  2  0  0  0  0  0  0
  183.4070  173.4430  137.2240 N   0  0  0  0  0  0  0  0  0  0  0  0
  183.6210  177.8180  137.9460 C   0  0  0  0  0  2  0  0  0  0  0  0
  185.5830  172.8000  136.5970 N   0  0  0  0  0  0  0  0  0  0  0  0
  184.3460  172.4740  137.0550 C   0  0  0  0  0  3  0  0  0  0  0  0
  185.8990  174.0890  136.3080 C   0  0  0  0  0  0  0  0  0  0  0  0
  181.3880  177.6970  137.0280 C   0  0  1  0  0  3  0  0  0  0  0  0
  187.1980  174.4110  135.8290 N   0  0  0  0  0  1  0  0  0  0  0  0
  183.6800  174.7440  136.9490 C   0  0  0  0  0  0  0  0  0  0  0  0
  181.3760  178.6550  138.1290 N   0  0  0  0  0  0  0  0  0  0  0  0
  184.9500  175.0940  136.4790 C   0  0  0  0  0  3  0  0  0  0  0  0
  182.8100  177.1600  136.8550 C   0  0  2  0  0  3  0  0  0  0  0  0
  181.3470  175.4210  137.4510 N   0  0  0  0  0  0  0  0  0  0  0  0
  180.7650  179.8740  137.6190 C   0  0  0  0  0  1  0  0  0  0  0  0
  182.7670  178.9700  138.4280 C   0  0  1  0  0  3  0  0  0  0  0  0
  180.6080  176.4750  137.4120 C   0  0  0  0  0  3  0  0  0  0  0  0
  182.6650  175.7390  137.1280 N   0  0  0  0  0  0  0  0  0  0  0  0
  1 13  1  0  0  0  0
  2 11  1  0  0  0  0
  2 15  1  0  0  0  0
  3 30  1  0  0  0  0
  3  4  2  0  0  0  0
  5 11  1  0  0  0  0
  6  3  1  0  0  0  0
  7 10  1  6  0  0  0
  7 14  1  0  0  0  0
  7  9  1  0  0  0  0
  8  2  2  0  0  0  0
  9  4  1  0  0  0  0
  9 17  1  1  0  0  0
 10  6  2  0  0  0  0
 11 12  2  0  0  0  0
 12  6  1  0  0  0  0
 13 14  1  0  0  0  0
 15  1  1  1  0  0  0
 15 10  1  0  0  0  0
 16 17  2  0  0  0  0
 17 18  1  0  0  0  0
 18 23  1  0  0  0  0
 19 29  1  6  0  0  0
 19 25  1  0  0  0  0
 21 19  1  0  0  0  0
 23 27  1  0  0  0  0
 23 26  1  0  0  0  0
 24 20  2  0  0  0  0
 24 22  1  0  0  0  0
 25 22  1  0  0  0  0
 26 21  1  6  0  0  0
 26 24  1  0  0  0  0
 27 26  1  0  0  0  0
 29 28  1  0  0  0  0
 30 31  1  0  0  0  0
 31 32  1  0  0  0  0
 33 32  1  0  0  0  0
 34 33  1  0  0  0  0
 36 48  1  0  0  0  0
 37 38  2  0  0  0  0
 38 35  1  0  0  0  0
 39 44  2  0  0  0  0
 39 37  1  0  0  0  0
 40 49  1  1  0  0  0
 40 43  1  0  0  0  0
 41 39  1  0  0  0  0
 42 50  1  0  0  0  0
 42 35  2  0  0  0  0
 43 48  1  0  0  0  0
 44 42  1  0  0  0  0
 45 40  1  0  0  0  0
 45 50  1  0  0  0  0
 45 36  1  1  0  0  0
 47 43  1  0  0  0  0
 48 34  1  1  0  0  0
 49 46  2  0  0  0  0
 50 46  1  0  0  0  0
M  END
>  <MODEL>
6

>  <REMARK>
 VINA RESULT:      -9.2      2.639      7.938
  Name = 
  9 active torsions:
  status: ('A' for Active; 'I' for Inactive)
    1  A    between atoms: C_1  and  C_28
    2  A    between atoms: C_6  and  C_37
    3  A    between atoms: C_6  and  C_49
    4  A    between atoms: C_11  and  O_13
    5  A    between atoms: O_13  and  C_37
    6  A    between atoms: N_18  and  N_33
    7  A    between atoms: C_27  and  C_32
    8  A    between atoms: C_42  and  C_44
    9  A    between atoms: C_42  and  C_49
                            x       y       z     vdW  Elec       q    Type
                         _______ _______ _______ _____ _____    ______ ____

>  <TORSDO>
F 9

$$$$
=
 OpenBabel11042413263D

 50 57  0  0  1  0  0  0  0  0999 V2000
  183.9350  178.6290  145.5710 C   0  0  0  0  0  2  0  0  0  0  0  0
  186.0770  178.8190  146.8610 C   0  0  0  0  0  0  0  0  0  0  0  0
  187.4860  177.3180  143.0630 C   0  0  0  0  0  0  0  0  0  0  0  0
  186.9720  177.7110  141.9330 N   0  0  0  0  0  0  0  0  0  0  0  0
  187.9390  177.4600  148.0180 C   0  0  0  0  0  1  0  0  0  0  0  0
  187.0750  177.9530  144.3330 C   0  0  0  0  0  0  0  0  0  0  0  0
  185.2590  179.1120  143.1010 C   0  0  2  0  0  3  0  0  0  0  0  0
  185.6800  179.2430  147.9790 O   0  0  0  0  0  0  0  0  0  0  0  0
  186.0750  178.8620  141.8190 C   0  0  2  0  0  3  0  0  0  0  0  0
  186.0590  178.8360  144.3430 C   0  0  0  0  0  0  0  0  0  0  0  0
  187.2490  177.9260  146.7830 C   0  0  0  0  0  0  0  0  0  0  0  0
  187.7000  177.5170  145.5970 C   0  0  0  0  0  3  0  0  0  0  0  0
  183.2860  178.8970  144.1980 C   0  0  0  0  0  2  0  0  0  0  0  0
  184.0710  178.3530  143.1520 O   0  0  0  0  0  0  0  0  0  0  0  0
  185.3470  179.2320  145.6120 C   0  0  1  0  0  3  0  0  0  0  0  0
  185.7240  178.6250  139.4610 O   0  0  0  0  0  0  0  0  0  0  0  0
  185.2080  178.7720  140.6030 C   0  0  0  0  0  0  0  0  0  0  0  0
  183.7860  178.7600  140.7570 N   0  0  0  0  0  2  0  0  0  0  0  0
  179.6880  178.8470  141.7100 C   0  0  1  0  0  3  0  0  0  0  0  0
  180.8470  177.2190  138.0890 C   0  0  0  0  0  2  0  0  0  0  0  0
  181.2110  178.8670  141.5510 C   0  0  0  0  0  2  0  0  0  0  0  0
  179.1570  177.7150  139.8160 C   0  0  0  0  0  2  0  0  0  0  0  0
  182.9430  178.4360  139.6810 N   0  0  0  0  0  0  0  0  0  0  0  0
  180.5620  177.7600  139.2760 C   0  0  0  0  0  0  0  0  0  0  0  0
  179.1700  177.6270  141.2250 O   0  0  0  0  0  0  0  0  0  0  0  0
  181.5730  178.5180  140.0960 C   0  0  1  0  0  0  0  0  0  0  0  0
  182.1530  179.6130  139.4010 N   0  0  0  0  0  2  0  0  0  0  0  0
  179.6800  177.8780  143.8920 O   0  0  0  0  0  1  0  0  0  0  0  0
  179.3330  179.0220  143.1760 C   0  0  0  0  0  2  0  0  0  0  0  0
  188.3950  176.2530  143.0960 O   0  0  0  0  0  0  0  0  0  0  0  0
  189.4900  176.1410  142.1910 C   0  0  0  0  0  2  0  0  0  0  0  0
  190.2530  177.4530  142.1050 C   0  0  0  0  0  2  0  0  0  0  0  0
  191.0750  177.4990  140.8310 C   0  0  0  0  0  2  0  0  0  0  0  0
  190.1650  177.7890  139.6540 C   0  0  0  0  0  2  0  0  0  0  0  0
  185.6740  177.2340  135.2060 N   0  0  0  0  0  0  0  0  0  0  0  0
  188.6610  176.2920  138.3510 C   0  0  0  0  0  2  0  0  0  0  0  0
  183.6680  176.2290  135.9200 N   0  0  0  0  0  0  0  0  0  0  0  0
  184.3200  177.1300  135.1380 C   0  0  0  0  0  3  0  0  0  0  0  0
  184.3540  175.4290  136.7760 C   0  0  0  0  0  0  0  0  0  0  0  0
  190.1110  176.2120  136.4200 C   0  0  1  0  0  3  0  0  0  0  0  0
  183.6560  174.4910  137.5850 N   0  0  0  0  0  1  0  0  0  0  0  0
  186.3990  176.4550  136.0490 C   0  0  0  0  0  0  0  0  0  0  0  0
  190.8390  176.8580  137.5070 N   0  0  0  0  0  0  0  0  0  0  0  0
  185.7420  175.5250  136.8610 C   0  0  0  0  0  3  0  0  0  0  0  0
  188.7260  175.8050  136.9240 C   0  0  2  0  0  3  0  0  0  0  0  0
  188.5340  177.3870  135.1980 N   0  0  0  0  0  0  0  0  0  0  0  0
  192.1180  176.1740  137.6240 C   0  0  0  0  0  1  0  0  0  0  0  0
  190.0970  176.5840  138.7310 C   0  0  1  0  0  3  0  0  0  0  0  0
  189.8020  177.2160  135.3490 C   0  0  0  0  0  3  0  0  0  0  0  0
  187.8260  176.5830  136.0880 N   0  0  0  0  0  0  0  0  0  0  0  0
  2  8  2  0  0  0  0
  3 30  1  0  0  0  0
  3  6  1  0  0  0  0
  4  3  2  0  0  0  0
  6 10  2  0  0  0  0
  6 12  1  0  0  0  0
  7 14  1  6  0  0  0
  7 10  1  0  0  0  0
  9 17  1  6  0  0  0
  9  4  1  0  0  0  0
  9  7  1  0  0  0  0
 10 15  1  0  0  0  0
 11  2  1  0  0  0  0
 11  5  1  0  0  0  0
 12 11  2  0  0  0  0
 13  1  1  0  0  0  0
 14 13  1  0  0  0  0
 15  1  1  6  0  0  0
 15  2  1  0  0  0  0
 16 17  2  0  0  0  0
 17 18  1  0  0  0  0
 19 29  1  1  0  0  0
 20 24  2  0  0  0  0
 21 19  1  0  0  0  0
 22 25  1  0  0  0  0
 23 26  1  0  0  0  0
 23 18  1  0  0  0  0
 24 22  1  0  0  0  0
 24 26  1  0  0  0  0
 25 19  1  0  0  0  0
 26 21  1  1  0  0  0
 27 23  1  0  0  0  0
 27 26  1  0  0  0  0
 29 28  1  0  0  0  0
 31 30  1  0  0  0  0
 32 31  1  0  0  0  0
 33 32  1  0  0  0  0
 34 33  1  0  0  0  0
 35 42  1  0  0  0  0
 36 48  1  0  0  0  0
 37 39  2  0  0  0  0
 38 35  2  0  0  0  0
 38 37  1  0  0  0  0
 39 44  1  0  0  0  0
 39 41  1  0  0  0  0
 40 49  1  6  0  0  0
 40 45  1  0  0  0  0
 40 43  1  0  0  0  0
 42 50  1  0  0  0  0
 42 44  2  0  0  0  0
 43 47  1  0  0  0  0
 43 48  1  0  0  0  0
 45 36  1  1  0  0  0
 46 49  2  0  0  0  0
 46 50  1  0  0  0  0
 48 34  1  1  0  0  0
 50 45  1  0  0  0  0
M  END
>  <MODEL>
7

>  <REMARK>
 VINA RESULT:      -9.2      3.229      7.400
  Name = 
  9 active torsions:
  status: ('A' for Active; 'I' for Inactive)
    1  A    between atoms: C_1  and  C_28
    2  A    between atoms: C_6  and  C_37
    3  A    between atoms: C_6  and  C_49
    4  A    between atoms: C_11  and  O_13
    5  A    between atoms: O_13  and  C_37
    6  A    between atoms: N_18  and  N_33
    7  A    between atoms: C_27  and  C_32
    8  A    between atoms: C_42  and  C_44
    9  A    between atoms: C_42  and  C_49
                            x       y       z     vdW  Elec       q    Type
                         _______ _______ _______ _____ _____    ______ ____

>  <TORSDO>
F 9

$$$$
=
 OpenBabel11042413263D

 50 57  0  0  1  0  0  0  0  0999 V2000
  190.2430  176.3130  137.8090 C   0  0  0  0  0  2  0  0  0  0  0  0
  189.0670  177.6560  136.0470 C   0  0  0  0  0  0  0  0  0  0  0  0
  186.6150  178.4450  139.5160 C   0  0  0  0  0  0  0  0  0  0  0  0
  187.1290  178.6000  140.7020 N   0  0  0  0  0  0  0  0  0  0  0  0
  186.9400  177.7760  134.5940 C   0  0  0  0  0  1  0  0  0  0  0  0
  187.4910  178.3140  138.3320 C   0  0  0  0  0  0  0  0  0  0  0  0
  189.4340  178.1060  139.8630 C   0  0  2  0  0  3  0  0  0  0  0  0
  189.7640  177.4240  135.0240 O   0  0  0  0  0  0  0  0  0  0  0  0
  188.5630  178.7850  140.9350 C   0  0  2  0  0  3  0  0  0  0  0  0
  188.8240  178.2050  138.4930 C   0  0  0  0  0  0  0  0  0  0  0  0
  187.6150  177.8820  135.9180 C   0  0  0  0  0  0  0  0  0  0  0  0
  186.8860  178.1770  136.9940 C   0  0  0  0  0  3  0  0  0  0  0  0
  190.7310  176.3420  139.2710 C   0  0  0  0  0  2  0  0  0  0  0  0
  189.6920  176.7480  140.1440 O   0  0  0  0  0  0  0  0  0  0  0  0
  189.7300  177.7010  137.3980 C   0  0  1  0  0  3  0  0  0  0  0  0
  190.0130  178.8330  142.8420 O   0  0  0  0  0  0  0  0  0  0  0  0
  188.9540  178.3840  142.3230 C   0  0  0  0  0  0  0  0  0  0  0  0
  188.0700  177.5590  143.0890 N   0  0  0  0  0  2  0  0  0  0  0  0
  184.6900  178.3720  145.4580 C   0  0  1  0  0  3  0  0  0  0  0  0
  188.3270  177.7700  147.3330 C   0  0  0  0  0  2  0  0  0  0  0  0
  185.8080  178.1270  144.4410 C   0  0  0  0  0  2  0  0  0  0  0  0
  185.9430  178.4050  147.3500 C   0  0  0  0  0  2  0  0  0  0  0  0
  188.2760  177.3590  144.4630 N   0  0  0  0  0  0  0  0  0  0  0  0
  187.1960  177.9530  146.6470 C   0  0  0  0  0  0  0  0  0  0  0  0
  185.1580  179.2080  146.4950 O   0  0  0  0  0  0  0  0  0  0  0  0
  187.0660  177.6360  145.1810 C   0  0  1  0  0  0  0  0  0  0  0  0
  187.3920  176.2890  144.8660 N   0  0  0  0  0  2  0  0  0  0  0  0
  183.9470  180.0270  143.9060 O   0  0  0  0  0  1  0  0  0  0  0  0
  183.5070  179.0170  144.7590 C   0  0  0  0  0  2  0  0  0  0  0  0
  185.2280  178.3460  139.3510 O   0  0  0  0  0  0  0  0  0  0  0  0
  184.2970  178.9860  140.2200 C   0  0  0  0  0  2  0  0  0  0  0  0
  183.5150  177.9570  141.0200 C   0  0  0  0  0  2  0  0  0  0  0  0
  182.2260  177.6030  140.3020 C   0  0  0  0  0  2  0  0  0  0  0  0
  182.3740  176.2450  139.6430 C   0  0  0  0  0  2  0  0  0  0  0  0
  185.0790  171.8810  135.9150 N   0  0  0  0  0  0  0  0  0  0  0  0
  183.6540  175.7470  137.5670 C   0  0  0  0  0  2  0  0  0  0  0  0
  187.3860  172.1680  135.5390 N   0  0  0  0  0  0  0  0  0  0  0  0
  186.3140  171.3490  135.7050 C   0  0  0  0  0  3  0  0  0  0  0  0
  187.2420  173.5180  135.5840 C   0  0  0  0  0  0  0  0  0  0  0  0
  181.6960  175.1400  136.2860 C   0  0  1  0  0  3  0  0  0  0  0  0
  188.3760  174.3580  135.4070 N   0  0  0  0  0  1  0  0  0  0  0  0
  184.8910  173.2240  135.9690 C   0  0  0  0  0  0  0  0  0  0  0  0
  181.2510  175.7270  137.5450 N   0  0  0  0  0  0  0  0  0  0  0  0
  185.9860  174.0780  135.8020 C   0  0  0  0  0  3  0  0  0  0  0  0
  183.2250  175.1620  136.2430 C   0  0  2  0  0  3  0  0  0  0  0  0
  182.4380  172.9490  136.2070 N   0  0  0  0  0  0  0  0  0  0  0  0
  180.2890  176.7670  137.2100 C   0  0  0  0  0  1  0  0  0  0  0  0
  182.4080  176.3930  138.1310 C   0  0  1  0  0  3  0  0  0  0  0  0
  181.3760  173.6750  136.2680 C   0  0  0  0  0  3  0  0  0  0  0  0
  183.5760  173.7520  136.1820 N   0  0  0  0  0  0  0  0  0  0  0  0
  1 13  1  0  0  0  0
  2 15  1  0  0  0  0
  3  4  2  0  0  0  0
  4  9  1  0  0  0  0
  5 11  1  0  0  0  0
  6 10  2  0  0  0  0
  6  3  1  0  0  0  0
  7 10  1  6  0  0  0
  7 14  1  0  0  0  0
  7  9  1  0  0  0  0
  8  2  2  0  0  0  0
  9 17  1  1  0  0  0
 11  2  1  0  0  0  0
 11 12  2  0  0  0  0
 12  6  1  0  0  0  0
 13 14  1  0  0  0  0
 15  1  1  1  0  0  0
 15 10  1  0  0  0  0
 17 16  2  0  0  0  0
 17 18  1  0  0  0  0
 18 23  1  0  0  0  0
 19 29  1  6  0  0  0
 19 25  1  0  0  0  0
 21 19  1  0  0  0  0
 23 27  1  0  0  0  0
 23 26  1  0  0  0  0
 24 20  2  0  0  0  0
 24 22  1  0  0  0  0
 25 22  1  0  0  0  0
 26 21  1  6  0  0  0
 26 24  1  0  0  0  0
 27 26  1  0  0  0  0
 28 29  1  0  0  0  0
 30  3  1  0  0  0  0
 30 31  1  0  0  0  0
 31 32  1  0  0  0  0
 33 32  1  0  0  0  0
 34 33  1  0  0  0  0
 35 42  1  0  0  0  0
 36 48  1  0  0  0  0
 37 39  2  0  0  0  0
 37 38  1  0  0  0  0
 38 35  2  0  0  0  0
 39 44  1  0  0  0  0
 40 49  1  1  0  0  0
 40 43  1  0  0  0  0
 41 39  1  0  0  0  0
 42 50  1  0  0  0  0
 43 48  1  0  0  0  0
 44 42  2  0  0  0  0
 45 40  1  0  0  0  0
 45 36  1  1  0  0  0
 46 49  2  0  0  0  0
 47 43  1  0  0  0  0
 48 34  1  1  0  0  0
 50 46  1  0  0  0  0
 50 45  1  0  0  0  0
M  END
>  <MODEL>
8

>  <REMARK>
 VINA RESULT:      -9.1      3.820      8.246
  Name = 
  9 active torsions:
  status: ('A' for Active; 'I' for Inactive)
    1  A    between atoms: C_1  and  C_28
    2  A    between atoms: C_6  and  C_37
    3  A    between atoms: C_6  and  C_49
    4  A    between atoms: C_11  and  O_13
    5  A    between atoms: O_13  and  C_37
    6  A    between atoms: N_18  and  N_33
    7  A    between atoms: C_27  and  C_32
    8  A    between atoms: C_42  and  C_44
    9  A    between atoms: C_42  and  C_49
                            x       y       z     vdW  Elec       q    Type
                         _______ _______ _______ _____ _____    ______ ____

>  <TORSDO>
F 9

$$$$
=
 OpenBabel11042413263D

 50 57  0  0  1  0  0  0  0  0999 V2000
  190.2230  175.7830  137.1550 C   0  0  0  0  0  2  0  0  0  0  0  0
  188.9920  177.4570  135.7500 C   0  0  0  0  0  0  0  0  0  0  0  0
  187.4430  178.3290  139.6880 C   0  0  0  0  0  0  0  0  0  0  0  0
  188.1970  178.2890  140.7490 N   0  0  0  0  0  0  0  0  0  0  0  0
  186.6820  178.0610  134.7770 C   0  0  0  0  0  1  0  0  0  0  0  0
  188.0350  178.1600  138.3440 C   0  0  0  0  0  0  0  0  0  0  0  0
  190.1670  177.4930  139.4260 C   0  0  2  0  0  3  0  0  0  0  0  0
  189.4230  177.2050  134.5940 O   0  0  0  0  0  0  0  0  0  0  0  0
  189.6580  178.2090  140.6910 C   0  0  2  0  0  3  0  0  0  0  0  0
  189.3310  177.8160  138.2200 C   0  0  0  0  0  0  0  0  0  0  0  0
  187.6080  177.9330  135.9360 C   0  0  0  0  0  0  0  0  0  0  0  0
  187.1670  178.2480  137.1540 C   0  0  0  0  0  3  0  0  0  0  0  0
  190.9810  175.5990  138.4840 C   0  0  0  0  0  2  0  0  0  0  0  0
  190.2230  176.0920  139.5740 O   0  0  0  0  0  0  0  0  0  0  0  0
  189.9000  177.2680  136.9350 C   0  0  1  0  0  3  0  0  0  0  0  0
  191.4620  177.3570  142.0170 O   0  0  0  0  0  0  0  0  0  0  0  0
  190.2320  177.6250  141.9440 C   0  0  0  0  0  0  0  0  0  0  0  0
  189.3890  177.4600  143.0880 N   0  0  0  0  0  2  0  0  0  0  0  0
  186.6640  177.8700  146.2680 C   0  0  1  0  0  3  0  0  0  0  0  0
  190.6640  177.2980  147.1480 C   0  0  0  0  0  2  0  0  0  0  0  0
  187.5080  177.7790  144.9930 C   0  0  0  0  0  2  0  0  0  0  0  0
  188.3380  177.7990  147.7980 C   0  0  0  0  0  2  0  0  0  0  0  0
  189.9300  177.1470  144.3460 N   0  0  0  0  0  0  0  0  0  0  0  0
  189.3950  177.4810  146.7740 C   0  0  0  0  0  0  0  0  0  0  0  0
  187.3440  178.6320  147.2410 O   0  0  0  0  0  0  0  0  0  0  0  0
  188.9220  177.2910  145.3570 C   0  0  1  0  0  0  0  0  0  0  0  0
  189.2040  175.9990  144.8380 N   0  0  0  0  0  2  0  0  0  0  0  0
  184.4350  178.3220  146.9940 O   0  0  0  0  0  1  0  0  0  0  0  0
  185.3270  178.5100  145.9400 C   0  0  0  0  0  2  0  0  0  0  0  0
  186.0570  178.4780  139.8090 O   0  0  0  0  0  0  0  0  0  0  0  0
  185.4460  179.2320  140.8540 C   0  0  0  0  0  2  0  0  0  0  0  0
  184.5270  178.3510  141.6840 C   0  0  0  0  0  2  0  0  0  0  0  0
  183.2790  178.0040  140.8950 C   0  0  0  0  0  2  0  0  0  0  0  0
  183.0500  179.0560  139.8270 C   0  0  0  0  0  2  0  0  0  0  0  0
  180.8570  183.2410  135.5910 N   0  0  0  0  0  0  0  0  0  0  0  0
  181.2160  180.5900  139.1340 C   0  0  0  0  0  2  0  0  0  0  0  0
  180.3620  185.3770  136.4500 N   0  0  0  0  0  0  0  0  0  0  0  0
  180.8030  184.5900  135.4320 C   0  0  0  0  0  3  0  0  0  0  0  0
  179.9760  184.8310  137.6320 C   0  0  0  0  0  0  0  0  0  0  0  0
  180.2360  179.0160  137.5840 C   0  0  1  0  0  3  0  0  0  0  0  0
  179.5160  185.6690  138.6850 N   0  0  0  0  0  1  0  0  0  0  0  0
  180.4830  182.6530  136.7570 C   0  0  0  0  0  0  0  0  0  0  0  0
  181.2510  178.3140  138.3630 N   0  0  0  0  0  0  0  0  0  0  0  0
  180.0290  183.4500  137.8130 C   0  0  0  0  0  3  0  0  0  0  0  0
  180.1570  180.4650  138.0650 C   0  0  2  0  0  3  0  0  0  0  0  0
  180.8470  180.3860  135.8200 N   0  0  0  0  0  0  0  0  0  0  0  0
  180.6210  177.1150  138.8940 C   0  0  0  0  0  1  0  0  0  0  0  0
  181.5700  179.1650  139.5020 C   0  0  1  0  0  3  0  0  0  0  0  0
  180.6940  179.1530  136.1620 C   0  0  0  0  0  3  0  0  0  0  0  0
  180.5430  181.2280  136.8880 N   0  0  0  0  0  0  0  0  0  0  0  0
  1 13  1  0  0  0  0
  2 11  1  0  0  0  0
  2 15  1  0  0  0  0
  3 30  1  0  0  0  0
  3  4  2  0  0  0  0
  5 11  1  0  0  0  0
  6  3  1  0  0  0  0
  7 10  1  6  0  0  0
  7 14  1  0  0  0  0
  7  9  1  0  0  0  0
  8  2  2  0  0  0  0
  9  4  1  0  0  0  0
  9 17  1  1  0  0  0
 10  6  2  0  0  0  0
 11 12  2  0  0  0  0
 12  6  1  0  0  0  0
 13 14  1  0  0  0  0
 15  1  1  1  0  0  0
 15 10  1  0  0  0  0
 17 16  2  0  0  0  0
 17 18  1  0  0  0  0
 18 23  1  0  0  0  0
 19 29  1  6  0  0  0
 19 25  1  0  0  0  0
 21 19  1  0  0  0  0
 23 27  1  0  0  0  0
 23 26  1  0  0  0  0
 24 20  2  0  0  0  0
 24 22  1  0  0  0  0
 25 22  1  0  0  0  0
 26 21  1  6  0  0  0
 26 24  1  0  0  0  0
 27 26  1  0  0  0  0
 29 28  1  0  0  0  0
 30 31  1  0  0  0  0
 31 32  1  0  0  0  0
 33 32  1  0  0  0  0
 34 33  1  0  0  0  0
 35 42  1  0  0  0  0
 36 48  1  0  0  0  0
 37 39  2  0  0  0  0
 38 35  2  0  0  0  0
 38 37  1  0  0  0  0
 39 44  1  0  0  0  0
 39 41  1  0  0  0  0
 40 49  1  6  0  0  0
 40 45  1  0  0  0  0
 40 43  1  0  0  0  0
 42 50  1  0  0  0  0
 42 44  2  0  0  0  0
 43 47  1  0  0  0  0
 43 48  1  0  0  0  0
 45 36  1  1  0  0  0
 46 49  2  0  0  0  0
 46 50  1  0  0  0  0
 48 34  1  6  0  0  0
 50 45  1  0  0  0  0
M  END
>  <MODEL>
9

>  <REMARK>
 VINA RESULT:      -8.8      1.605      6.403
  Name = 
  9 active torsions:
  status: ('A' for Active; 'I' for Inactive)
    1  A    between atoms: C_1  and  C_28
    2  A    between atoms: C_6  and  C_37
    3  A    between atoms: C_6  and  C_49
    4  A    between atoms: C_11  and  O_13
    5  A    between atoms: O_13  and  C_37
    6  A    between atoms: N_18  and  N_33
    7  A    between atoms: C_27  and  C_32
    8  A    between atoms: C_42  and  C_44
    9  A    between atoms: C_42  and  C_49
                            x       y       z     vdW  Elec       q    Type
                         _______ _______ _______ _____ _____    ______ ____

>  <TORSDO>
F 9

$$$$
