=
 OpenBabel11032419073D

 42 46  0  0  1  0  0  0  0  0999 V2000
  189.0240  175.1230  137.5560 N   0  0  0  0  0  2  0  0  0  0  0  0
  189.2360  176.2690  136.6890 C   0  0  2  0  0  3  0  0  0  0  0  0
  188.2780  174.1680  136.7310 C   0  0  2  0  0  3  0  0  0  0  0  0
  188.7450  174.3530  134.9520 S   0  0  0  0  0  0  0  0  0  0  0  0
  189.7920  175.7790  135.3560 C   0  0  2  0  0  3  0  0  0  0  0  0
  191.2390  175.3390  135.3970 C   0  0  0  0  0  0  0  0  0  0  0  0
  193.5450  175.7690  134.6930 C   0  0  2  0  0  3  0  0  0  0  0  0
  192.9350  173.6800  135.8000 N   0  0  0  0  0  0  0  0  0  0  0  0
  193.8890  174.4710  135.3880 C   0  0  0  0  0  0  0  0  0  0  0  0
  195.3010  174.0900  135.5170 C   0  0  0  0  0  3  0  0  0  0  0  0
  195.8890  176.4380  135.1210 C   0  0  0  0  0  3  0  0  0  0  0  0
  194.6220  176.8030  134.8970 C   0  0  0  0  0  3  0  0  0  0  0  0
  192.2780  176.2420  135.1530 O   0  0  0  0  0  0  0  0  0  0  0  0
  191.5530  174.0700  135.7120 C   0  0  0  0  0  3  0  0  0  0  0  0
  196.2560  175.0130  135.3250 C   0  0  0  0  0  0  0  0  0  0  0  0
  198.4580  175.2550  136.1970 O   0  0  0  0  0  0  0  0  0  0  0  0
  198.1930  173.5840  134.5940 N   0  0  0  0  0  1  0  0  0  0  0  0
  197.6840  174.6440  135.4130 C   0  0  0  0  0  0  0  0  0  0  0  0
  189.9650  177.4580  137.3510 C   0  0  2  0  0  3  0  0  0  0  0  0
  190.4900  176.0220  140.5820 O   0  0  0  0  0  0  0  0  0  0  0  0
  190.9010  177.0860  138.5200 C   0  0  0  0  0  2  0  0  0  0  0  0
  190.1600  176.9160  139.8120 C   0  0  0  0  0  0  0  0  0  0  0  0
  189.0910  177.9160  140.1780 C   0  0  1  0  0  3  0  0  0  0  0  0
  188.9580  178.5360  137.7510 C   0  0  0  0  0  2  0  0  0  0  0  0
  188.1600  178.1270  138.9910 C   0  0  0  0  0  2  0  0  0  0  0  0
  189.7280  178.5120  142.8760 O   0  0  0  0  0  0  0  0  0  0  0  0
  188.7420  177.7480  142.6700 C   0  0  0  0  0  0  0  0  0  0  0  0
  188.3260  177.4680  141.3330 N   0  0  0  0  0  2  0  0  0  0  0  0
  187.9800  177.1500  143.8200 C   0  0  0  0  0  2  0  0  0  0  0  0
  188.7910  177.1560  145.1230 C   0  0  0  0  0  2  0  0  0  0  0  0
  188.2630  177.1050  147.5190 N   0  0  0  0  0  1  0  0  0  0  0  0
  187.9780  177.7690  146.2600 C   0  0  2  0  0  3  0  0  0  0  0  0
  186.4820  177.7700  145.9480 C   0  0  0  0  0  2  0  0  0  0  0  0
  185.6630  178.7130  146.8190 C   0  0  0  0  0  2  0  0  0  0  0  0
  184.3320  178.7240  146.4010 O   0  0  0  0  0  1  0  0  0  0  0  0
  184.9390  175.4570  135.8790 C   0  0  0  0  0  3  0  0  0  0  0  0
  186.0780  175.5730  136.8320 C   0  0  0  0  0  2  0  0  0  0  0  0
  186.1880  173.1820  137.4920 C   0  0  0  0  0  3  0  0  0  0  0  0
  183.7910  173.6730  137.1730 C   0  0  0  0  0  3  0  0  0  0  0  0
  184.7870  173.0810  137.7790 N   0  0  0  0  0  0  0  0  0  0  0  0
  183.9090  174.6350  136.0620 C   0  0  0  0  0  3  0  0  0  0  0  0
  186.8050  174.2680  137.0130 C   0  0  0  0  0  0  0  0  0  0  0  0
  2 19  1  0  0  0  0
  2  1  1  1  0  0  0
  3 42  1  6  0  0  0
  3  1  1  0  0  0  0
  4  5  1  0  0  0  0
  4  3  1  0  0  0  0
  5  6  1  1  0  0  0
  5  2  1  0  0  0  0
  6 14  2  0  0  0  0
  7 12  1  1  0  0  0
  7 13  1  0  0  0  0
  7  9  1  0  0  0  0
  9 10  1  0  0  0  0
  9  8  2  0  0  0  0
 11 15  1  0  0  0  0
 12 11  2  0  0  0  0
 13  6  1  0  0  0  0
 14  8  1  0  0  0  0
 15 18  1  0  0  0  0
 15 10  2  0  0  0  0
 17 18  1  0  0  0  0
 18 16  2  0  0  0  0
 19 24  1  1  0  0  0
 19 21  1  0  0  0  0
 21 22  1  0  0  0  0
 22 23  1  0  0  0  0
 22 20  2  0  0  0  0
 23 28  1  1  0  0  0
 24 25  1  0  0  0  0
 25 23  1  0  0  0  0
 27 26  2  0  0  0  0
 27 29  1  0  0  0  0
 28 27  1  0  0  0  0
 29 30  1  0  0  0  0
 30 32  1  0  0  0  0
 32 31  1  1  0  0  0
 33 32  1  0  0  0  0
 33 34  1  0  0  0  0
 35 34  1  0  0  0  0
 36 41  2  0  0  0  0
 36 37  1  0  0  0  0
 37 42  1  0  0  0  0
 38 40  1  0  0  0  0
 39 40  2  0  0  0  0
 41 39  1  0  0  0  0
 42 38  2  0  0  0  0
M  END
>  <MODEL>
1

>  <REMARK>
 VINA RESULT:      -7.6      0.000      0.000
  Name = 
  10 active torsions:
  status: ('A' for Active; 'I' for Inactive)
    1  A    between atoms: C_1  and  C_24
    2  A    between atoms: C_6  and  C_11
    3  A    between atoms: C_9  and  C_21
    4  A    between atoms: C_13  and  C_28
    5  A    between atoms: C_18  and  C_38
    6  A    between atoms: C_20  and  N_34
    7  A    between atoms: C_21  and  C_35
    8  A    between atoms: C_27  and  C_42
    9  A    between atoms: C_28  and  C_33
   10  A    between atoms: C_33  and  C_35
                            x       y       z     vdW  Elec       q    Type
                         _______ _______ _______ _____ _____    ______ ____

>  <TORSDO>
F 10

$$$$
=
 OpenBabel11032419073D

 42 46  0  0  1  0  0  0  0  0999 V2000
  189.1610  176.6220  139.8480 N   0  0  0  0  0  2  0  0  0  0  0  0
  190.2840  177.5170  140.0600 C   0  0  2  0  0  3  0  0  0  0  0  0
  188.4370  177.1990  138.7100 C   0  0  2  0  0  3  0  0  0  0  0  0
  189.6090  178.0660  137.5750 S   0  0  0  0  0  0  0  0  0  0  0  0
  190.9800  177.7570  138.7240 C   0  0  2  0  0  3  0  0  0  0  0  0
  191.7990  176.5890  138.2190 C   0  0  0  0  0  0  0  0  0  0  0  0
  191.8160  174.2720  137.4260 C   0  0  2  0  0  3  0  0  0  0  0  0
  193.8980  175.4480  137.9230 N   0  0  0  0  0  0  0  0  0  0  0  0
  193.3210  174.4060  137.3860 C   0  0  0  0  0  0  0  0  0  0  0  0
  194.1130  173.3160  136.8040 C   0  0  0  0  0  3  0  0  0  0  0  0
  192.0790  172.5480  135.6700 C   0  0  0  0  0  3  0  0  0  0  0  0
  191.3050  173.4660  136.2600 C   0  0  0  0  0  3  0  0  0  0  0  0
  191.2170  175.5690  137.4630 O   0  0  0  0  0  0  0  0  0  0  0  0
  193.1220  176.5360  138.4570 C   0  0  0  0  0  3  0  0  0  0  0  0
  193.5080  172.3920  136.0400 C   0  0  0  0  0  0  0  0  0  0  0  0
  193.7600  170.1240  135.3640 O   0  0  0  0  0  0  0  0  0  0  0  0
  195.6330  171.4750  135.0530 N   0  0  0  0  0  1  0  0  0  0  0  0
  194.2790  171.2660  135.4740 C   0  0  0  0  0  0  0  0  0  0  0  0
  191.1860  177.1540  141.2590 C   0  0  2  0  0  3  0  0  0  0  0  0
  188.8050  175.2940  143.1670 O   0  0  0  0  0  0  0  0  0  0  0  0
  190.7810  175.8770  142.0230 C   0  0  0  0  0  2  0  0  0  0  0  0
  189.6870  176.1300  143.0160 C   0  0  0  0  0  0  0  0  0  0  0  0
  189.7580  177.3640  143.8820 C   0  0  1  0  0  3  0  0  0  0  0  0
  191.3270  178.3560  142.1940 C   0  0  0  0  0  2  0  0  0  0  0  0
  190.0550  178.5800  143.0140 C   0  0  0  0  0  2  0  0  0  0  0  0
  189.4780  177.1930  146.6980 O   0  0  0  0  0  0  0  0  0  0  0  0
  188.4280  177.3990  146.0250 C   0  0  0  0  0  0  0  0  0  0  0  0
  188.5130  177.5680  144.6090 N   0  0  0  0  0  2  0  0  0  0  0  0
  187.0890  177.4980  146.7010 C   0  0  0  0  0  2  0  0  0  0  0  0
  185.9370  177.6340  145.6960 C   0  0  0  0  0  2  0  0  0  0  0  0
  185.5670  179.6250  147.0810 N   0  0  0  0  0  1  0  0  0  0  0  0
  185.2990  179.0170  145.7900 C   0  0  2  0  0  3  0  0  0  0  0  0
  183.8030  178.9690  145.4870 C   0  0  0  0  0  2  0  0  0  0  0  0
  183.4380  179.3980  144.0710 C   0  0  0  0  0  2  0  0  0  0  0  0
  182.2350  178.8100  143.6830 O   0  0  0  0  0  1  0  0  0  0  0  0
  184.8700  178.0920  138.6040 C   0  0  0  0  0  3  0  0  0  0  0  0
  186.2420  178.5300  138.2270 C   0  0  0  0  0  2  0  0  0  0  0  0
  187.2600  178.3760  140.4860 C   0  0  0  0  0  3  0  0  0  0  0  0
  184.9460  179.1460  140.8520 C   0  0  0  0  0  3  0  0  0  0  0  0
  186.2240  179.1300  141.1270 N   0  0  0  0  0  0  0  0  0  0  0  0
  184.2900  178.4040  139.7590 C   0  0  0  0  0  3  0  0  0  0  0  0
  187.2850  178.0350  139.1920 C   0  0  0  0  0  0  0  0  0  0  0  0
  2  1  1  6  0  0  0
  2 19  1  0  0  0  0
  3 42  1  1  0  0  0
  3  1  1  0  0  0  0
  4  3  1  0  0  0  0
  4  5  1  0  0  0  0
  5  6  1  6  0  0  0
  5  2  1  0  0  0  0
  6 14  2  0  0  0  0
  7 12  1  6  0  0  0
  7 13  1  0  0  0  0
  8 14  1  0  0  0  0
  9  7  1  0  0  0  0
  9  8  2  0  0  0  0
 10  9  1  0  0  0  0
 11 15  1  0  0  0  0
 11 12  2  0  0  0  0
 13  6  1  0  0  0  0
 15 10  2  0  0  0  0
 16 18  2  0  0  0  0
 17 18  1  0  0  0  0
 18 15  1  0  0  0  0
 19 21  1  1  0  0  0
 19 24  1  0  0  0  0
 21 22  1  0  0  0  0
 22 20  2  0  0  0  0
 22 23  1  0  0  0  0
 23 28  1  6  0  0  0
 24 25  1  0  0  0  0
 25 23  1  0  0  0  0
 27 26  2  0  0  0  0
 27 29  1  0  0  0  0
 28 27  1  0  0  0  0
 30 32  1  0  0  0  0
 30 29  1  0  0  0  0
 32 31  1  1  0  0  0
 33 32  1  0  0  0  0
 34 33  1  0  0  0  0
 35 34  1  0  0  0  0
 36 41  2  0  0  0  0
 37 36  1  0  0  0  0
 37 42  1  0  0  0  0
 38 40  1  0  0  0  0
 39 40  2  0  0  0  0
 41 39  1  0  0  0  0
 42 38  2  0  0  0  0
M  END
>  <MODEL>
2

>  <REMARK>
 VINA RESULT:      -7.6      3.120      4.128
  Name = 
  10 active torsions:
  status: ('A' for Active; 'I' for Inactive)
    1  A    between atoms: C_1  and  C_24
    2  A    between atoms: C_6  and  C_11
    3  A    between atoms: C_9  and  C_21
    4  A    between atoms: C_13  and  C_28
    5  A    between atoms: C_18  and  C_38
    6  A    between atoms: C_20  and  N_34
    7  A    between atoms: C_21  and  C_35
    8  A    between atoms: C_27  and  C_42
    9  A    between atoms: C_28  and  C_33
   10  A    between atoms: C_33  and  C_35
                            x       y       z     vdW  Elec       q    Type
                         _______ _______ _______ _____ _____    ______ ____

>  <TORSDO>
F 10

$$$$
=
 OpenBabel11032419073D

 42 46  0  0  1  0  0  0  0  0999 V2000
  181.7910  179.7470  138.8120 N   0  0  0  0  0  2  0  0  0  0  0  0
  180.8090  178.7620  139.2290 C   0  0  2  0  0  3  0  0  0  0  0  0
  181.0960  181.0330  138.9260 C   0  0  2  0  0  3  0  0  0  0  0  0
  179.8490  180.9720  140.2880 S   0  0  0  0  0  0  0  0  0  0  0  0
  180.1940  179.2100  140.5500 C   0  0  2  0  0  3  0  0  0  0  0  0
  181.0970  179.0540  141.7540 C   0  0  0  0  0  0  0  0  0  0  0  0
  183.3190  178.4670  142.6020 C   0  0  2  0  0  3  0  0  0  0  0  0
  181.4420  178.8160  144.1250 N   0  0  0  0  0  0  0  0  0  0  0  0
  182.7320  178.6680  143.9800 C   0  0  0  0  0  0  0  0  0  0  0  0
  183.6250  178.6170  145.1450 C   0  0  0  0  0  3  0  0  0  0  0  0
  185.5040  179.0250  143.6220 C   0  0  0  0  0  3  0  0  0  0  0  0
  184.7360  178.9780  142.5290 C   0  0  0  0  0  3  0  0  0  0  0  0
  182.4880  179.1000  141.6270 O   0  0  0  0  0  0  0  0  0  0  0  0
  180.5710  178.9090  142.9830 C   0  0  0  0  0  3  0  0  0  0  0  0
  184.9510  178.7210  144.9660 C   0  0  0  0  0  0  0  0  0  0  0  0
  186.8940  177.9000  146.0720 O   0  0  0  0  0  0  0  0  0  0  0  0
  185.5920  179.3890  147.3060 N   0  0  0  0  0  1  0  0  0  0  0  0
  185.8710  178.6340  146.1200 C   0  0  0  0  0  0  0  0  0  0  0  0
  181.2840  177.2950  139.1460 C   0  0  2  0  0  3  0  0  0  0  0  0
  184.8070  177.8870  139.0430 O   0  0  0  0  0  0  0  0  0  0  0  0
  182.7060  177.0340  139.6840 C   0  0  0  0  0  2  0  0  0  0  0  0
  183.7660  177.3580  138.6740 C   0  0  0  0  0  0  0  0  0  0  0  0
  183.5650  176.9290  137.2420 C   0  0  1  0  0  3  0  0  0  0  0  0
  181.1080  176.7650  137.7220 C   0  0  0  0  0  2  0  0  0  0  0  0
  182.1710  177.3310  136.7780 C   0  0  0  0  0  2  0  0  0  0  0  0
  185.9900  175.6810  136.4650 O   0  0  0  0  0  0  0  0  0  0  0  0
  185.8000  176.8680  136.0730 C   0  0  0  0  0  0  0  0  0  0  0  0
  184.5670  177.5260  136.3690 N   0  0  0  0  0  2  0  0  0  0  0  0
  186.8470  177.5890  135.2710 C   0  0  0  0  0  2  0  0  0  0  0  0
  188.2050  177.6270  135.9850 C   0  0  0  0  0  2  0  0  0  0  0  0
  188.9570  179.5250  137.3470 N   0  0  0  0  0  1  0  0  0  0  0  0
  188.0920  178.3600  137.3200 C   0  0  2  0  0  3  0  0  0  0  0  0
  188.3630  177.4270  138.4990 C   0  0  0  0  0  2  0  0  0  0  0  0
  188.3970  178.1250  139.8520 C   0  0  0  0  0  2  0  0  0  0  0  0
  189.0140  177.3100  140.8010 O   0  0  0  0  0  1  0  0  0  0  0  0
  180.2290  183.6770  136.5190 C   0  0  0  0  0  3  0  0  0  0  0  0
  179.6760  182.6710  137.4680 C   0  0  0  0  0  2  0  0  0  0  0  0
  180.8280  180.6810  136.5330 C   0  0  0  0  0  3  0  0  0  0  0  0
  180.2890  182.1070  134.5940 C   0  0  0  0  0  3  0  0  0  0  0  0
  180.4330  180.9480  135.1810 N   0  0  0  0  0  0  0  0  0  0  0  0
  180.4610  183.4250  135.2340 C   0  0  0  0  0  3  0  0  0  0  0  0
  180.5550  181.4560  137.5890 C   0  0  0  0  0  0  0  0  0  0  0  0
  1  3  1  0  0  0  0
  2  1  1  1  0  0  0
  2  5  1  0  0  0  0
  3 42  1  6  0  0  0
  3  4  1  0  0  0  0
  4  5  1  0  0  0  0
  5  6  1  1  0  0  0
  6 14  2  0  0  0  0
  7 12  1  1  0  0  0
  7  9  1  0  0  0  0
  9  8  2  0  0  0  0
  9 10  1  0  0  0  0
 11 15  1  0  0  0  0
 12 11  2  0  0  0  0
 13  6  1  0  0  0  0
 13  7  1  0  0  0  0
 14  8  1  0  0  0  0
 15 10  2  0  0  0  0
 15 18  1  0  0  0  0
 16 18  2  0  0  0  0
 18 17  1  0  0  0  0
 19 24  1  6  0  0  0
 19  2  1  0  0  0  0
 19 21  1  0  0  0  0
 22 20  2  0  0  0  0
 22 21  1  0  0  0  0
 23 28  1  6  0  0  0
 23 22  1  0  0  0  0
 25 23  1  0  0  0  0
 25 24  1  0  0  0  0
 27 28  1  0  0  0  0
 27 26  2  0  0  0  0
 29 30  1  0  0  0  0
 29 27  1  0  0  0  0
 30 32  1  0  0  0  0
 32 31  1  6  0  0  0
 32 33  1  0  0  0  0
 33 34  1  0  0  0  0
 34 35  1  0  0  0  0
 36 37  1  0  0  0  0
 37 42  1  0  0  0  0
 38 42  2  0  0  0  0
 39 40  2  0  0  0  0
 39 41  1  0  0  0  0
 40 38  1  0  0  0  0
 41 36  2  0  0  0  0
M  END
>  <MODEL>
3

>  <REMARK>
 VINA RESULT:      -7.3      5.673     10.945
  Name = 
  10 active torsions:
  status: ('A' for Active; 'I' for Inactive)
    1  A    between atoms: C_1  and  C_24
    2  A    between atoms: C_6  and  C_11
    3  A    between atoms: C_9  and  C_21
    4  A    between atoms: C_13  and  C_28
    5  A    between atoms: C_18  and  C_38
    6  A    between atoms: C_20  and  N_34
    7  A    between atoms: C_21  and  C_35
    8  A    between atoms: C_27  and  C_42
    9  A    between atoms: C_28  and  C_33
   10  A    between atoms: C_33  and  C_35
                            x       y       z     vdW  Elec       q    Type
                         _______ _______ _______ _____ _____    ______ ____

>  <TORSDO>
F 10

$$$$
=
 OpenBabel11032419073D

 42 46  0  0  1  0  0  0  0  0999 V2000
  189.2680  175.2880  137.3050 N   0  0  0  0  0  2  0  0  0  0  0  0
  189.4280  176.4500  136.4500 C   0  0  2  0  0  3  0  0  0  0  0  0
  188.7680  174.2380  136.4120 C   0  0  2  0  0  3  0  0  0  0  0  0
  189.4230  174.4830  134.7010 S   0  0  0  0  0  0  0  0  0  0  0  0
  190.2070  176.0400  135.2050 C   0  0  2  0  0  3  0  0  0  0  0  0
  191.6840  175.8030  135.4310 C   0  0  0  0  0  0  0  0  0  0  0  0
  193.4540  175.1740  137.0030 C   0  0  2  0  0  3  0  0  0  0  0  0
  193.9900  176.0560  134.7900 N   0  0  0  0  0  0  0  0  0  0  0  0
  194.4160  175.4650  135.8750 C   0  0  0  0  0  0  0  0  0  0  0  0
  195.8370  175.1430  136.0550 C   0  0  0  0  0  3  0  0  0  0  0  0
  195.1820  173.6280  137.8700 C   0  0  0  0  0  3  0  0  0  0  0  0
  193.8910  173.9730  137.8020 C   0  0  0  0  0  3  0  0  0  0  0  0
  192.1360  174.9970  136.4800 O   0  0  0  0  0  0  0  0  0  0  0  0
  192.5920  176.3350  134.5940 C   0  0  0  0  0  3  0  0  0  0  0  0
  196.2080  174.3190  137.0480 C   0  0  0  0  0  0  0  0  0  0  0  0
  198.4770  174.9360  137.4190 O   0  0  0  0  0  0  0  0  0  0  0  0
  198.0660  172.6430  137.3140 N   0  0  0  0  0  1  0  0  0  0  0  0
  197.6360  174.0100  137.2720 C   0  0  0  0  0  0  0  0  0  0  0  0
  189.9000  177.7290  137.1750 C   0  0  2  0  0  3  0  0  0  0  0  0
  190.8490  176.2510  140.2880 O   0  0  0  0  0  0  0  0  0  0  0  0
  190.9380  177.5050  138.2940 C   0  0  0  0  0  2  0  0  0  0  0  0
  190.3010  177.0940  139.5880 C   0  0  0  0  0  0  0  0  0  0  0  0
  189.0520  177.8060  140.0450 C   0  0  1  0  0  3  0  0  0  0  0  0
  188.6940  178.5290  137.6700 C   0  0  0  0  0  2  0  0  0  0  0  0
  188.0540  177.8770  138.8970 C   0  0  0  0  0  2  0  0  0  0  0  0
  187.2290  178.9980  141.8610 O   0  0  0  0  0  0  0  0  0  0  0  0
  187.5900  177.8100  142.1000 C   0  0  0  0  0  0  0  0  0  0  0  0
  188.4480  177.1290  141.1840 N   0  0  0  0  0  2  0  0  0  0  0  0
  187.1000  177.0900  143.3260 C   0  0  0  0  0  2  0  0  0  0  0  0
  187.5810  177.7550  144.6230 C   0  0  0  0  0  2  0  0  0  0  0  0
  189.0290  176.9700  146.4420 N   0  0  0  0  0  1  0  0  0  0  0  0
  188.9610  177.2350  145.0160 C   0  0  2  0  0  3  0  0  0  0  0  0
  190.0700  178.1820  144.5630 C   0  0  0  0  0  2  0  0  0  0  0  0
  191.3360  177.4810  144.0890 C   0  0  0  0  0  2  0  0  0  0  0  0
  191.0300  176.2160  143.5870 O   0  0  0  0  0  1  0  0  0  0  0  0
  185.7330  172.2550  137.0380 C   0  0  0  0  0  3  0  0  0  0  0  0
  186.5520  172.9220  135.9880 C   0  0  0  0  0  2  0  0  0  0  0  0
  186.6070  175.1820  137.0110 C   0  0  0  0  0  3  0  0  0  0  0  0
  184.3720  174.2750  137.5270 C   0  0  0  0  0  3  0  0  0  0  0  0
  185.1900  175.2470  137.2170 N   0  0  0  0  0  0  0  0  0  0  0  0
  184.7410  172.8560  137.6890 C   0  0  0  0  0  3  0  0  0  0  0  0
  187.2710  174.1350  136.5090 C   0  0  0  0  0  0  0  0  0  0  0  0
  2 19  1  0  0  0  0
  2  1  1  1  0  0  0
  3 42  1  6  0  0  0
  3  1  1  0  0  0  0
  4  5  1  0  0  0  0
  4  3  1  0  0  0  0
  5  6  1  1  0  0  0
  5  2  1  0  0  0  0
  6 13  1  0  0  0  0
  7 12  1  6  0  0  0
  8  9  2  0  0  0  0
  9 10  1  0  0  0  0
  9  7  1  0  0  0  0
 10 15  2  0  0  0  0
 12 11  2  0  0  0  0
 13  7  1  0  0  0  0
 14  8  1  0  0  0  0
 14  6  2  0  0  0  0
 15 18  1  0  0  0  0
 15 11  1  0  0  0  0
 18 17  1  0  0  0  0
 18 16  2  0  0  0  0
 19 24  1  1  0  0  0
 19 21  1  0  0  0  0
 21 22  1  0  0  0  0
 22 23  1  0  0  0  0
 22 20  2  0  0  0  0
 23 28  1  1  0  0  0
 24 25  1  0  0  0  0
 25 23  1  0  0  0  0
 26 27  2  0  0  0  0
 27 29  1  0  0  0  0
 28 27  1  0  0  0  0
 29 30  1  0  0  0  0
 30 32  1  0  0  0  0
 32 31  1  1  0  0  0
 33 32  1  0  0  0  0
 34 33  1  0  0  0  0
 35 34  1  0  0  0  0
 36 41  2  0  0  0  0
 37 42  1  0  0  0  0
 37 36  1  0  0  0  0
 38 40  1  0  0  0  0
 39 41  1  0  0  0  0
 40 39  2  0  0  0  0
 42 38  2  0  0  0  0
M  END
>  <MODEL>
4

>  <REMARK>
 VINA RESULT:      -7.0      1.636      2.440
  Name = 
  10 active torsions:
  status: ('A' for Active; 'I' for Inactive)
    1  A    between atoms: C_1  and  C_24
    2  A    between atoms: C_6  and  C_11
    3  A    between atoms: C_9  and  C_21
    4  A    between atoms: C_13  and  C_28
    5  A    between atoms: C_18  and  C_38
    6  A    between atoms: C_20  and  N_34
    7  A    between atoms: C_21  and  C_35
    8  A    between atoms: C_27  and  C_42
    9  A    between atoms: C_28  and  C_33
   10  A    between atoms: C_33  and  C_35
                            x       y       z     vdW  Elec       q    Type
                         _______ _______ _______ _____ _____    ______ ____

>  <TORSDO>
F 10

$$$$
=
 OpenBabel11032419073D

 42 46  0  0  1  0  0  0  0  0999 V2000
  181.7120  179.0330  138.6650 N   0  0  0  0  0  2  0  0  0  0  0  0
  180.5390  178.4010  139.2420 C   0  0  2  0  0  3  0  0  0  0  0  0
  181.3440  180.4450  138.5280 C   0  0  2  0  0  3  0  0  0  0  0  0
  180.1570  180.9320  139.8590 S   0  0  0  0  0  0  0  0  0  0  0  0
  180.0850  179.2170  140.4480 C   0  0  2  0  0  3  0  0  0  0  0  0
  180.9610  179.0750  141.6730 C   0  0  0  0  0  0  0  0  0  0  0  0
  183.1390  178.4250  142.5860 C   0  0  2  0  0  3  0  0  0  0  0  0
  181.2580  178.9320  144.0580 N   0  0  0  0  0  0  0  0  0  0  0  0
  182.5410  178.7170  143.9430 C   0  0  0  0  0  0  0  0  0  0  0  0
  183.4120  178.6780  145.1250 C   0  0  0  0  0  3  0  0  0  0  0  0
  185.3320  178.9260  143.6190 C   0  0  0  0  0  3  0  0  0  0  0  0
  184.5790  178.8650  142.5150 C   0  0  0  0  0  3  0  0  0  0  0  0
  182.3550  179.0500  141.5690 O   0  0  0  0  0  0  0  0  0  0  0  0
  180.4090  179.0110  142.8980 C   0  0  0  0  0  3  0  0  0  0  0  0
  184.7450  178.7110  144.9660 C   0  0  0  0  0  0  0  0  0  0  0  0
  185.3050  179.1490  147.2370 O   0  0  0  0  0  0  0  0  0  0  0  0
  186.9080  177.9750  146.0190 N   0  0  0  0  0  1  0  0  0  0  0  0
  185.6410  178.6350  146.1380 C   0  0  0  0  0  0  0  0  0  0  0  0
  180.6530  176.8740  139.4380 C   0  0  2  0  0  3  0  0  0  0  0  0
  184.0510  176.4630  138.4080 O   0  0  0  0  0  0  0  0  0  0  0  0
  182.0810  176.3510  139.6970 C   0  0  0  0  0  2  0  0  0  0  0  0
  182.8610  176.1720  138.4290 C   0  0  0  0  0  0  0  0  0  0  0  0
  182.1850  175.5410  137.2380 C   0  0  1  0  0  3  0  0  0  0  0  0
  179.9810  176.1420  138.2760 C   0  0  0  0  0  2  0  0  0  0  0  0
  180.8330  176.2040  137.0060 C   0  0  0  0  0  2  0  0  0  0  0  0
  184.2850  173.7730  136.5270 O   0  0  0  0  0  0  0  0  0  0  0  0
  184.0940  174.7750  135.7790 C   0  0  0  0  0  0  0  0  0  0  0  0
  183.0060  175.6620  136.0420 N   0  0  0  0  0  2  0  0  0  0  0  0
  184.9840  175.0290  134.5940 C   0  0  0  0  0  2  0  0  0  0  0  0
  185.7770  176.3350  134.7300 C   0  0  0  0  0  2  0  0  0  0  0  0
  186.9000  175.5730  136.7740 N   0  0  0  0  0  1  0  0  0  0  0  0
  187.1090  176.0870  135.4330 C   0  0  2  0  0  3  0  0  0  0  0  0
  187.9860  177.3380  135.4360 C   0  0  0  0  0  2  0  0  0  0  0  0
  187.7620  178.2540  136.6320 C   0  0  0  0  0  2  0  0  0  0  0  0
  188.9760  178.7810  137.0710 O   0  0  0  0  0  1  0  0  0  0  0  0
  180.1420  179.2730  135.2540 C   0  0  0  0  0  3  0  0  0  0  0  0
  181.3040  179.8520  135.9840 C   0  0  0  0  0  2  0  0  0  0  0  0
  180.1360  181.8280  136.9300 C   0  0  0  0  0  3  0  0  0  0  0  0
  179.1500  181.4820  134.6960 C   0  0  0  0  0  3  0  0  0  0  0  0
  179.5730  182.2350  135.6770 N   0  0  0  0  0  0  0  0  0  0  0  0
  179.2110  180.0090  134.6530 C   0  0  0  0  0  3  0  0  0  0  0  0
  180.8790  180.7320  137.1280 C   0  0  0  0  0  0  0  0  0  0  0  0
  2  1  1  1  0  0  0
  2 19  1  0  0  0  0
  2  5  1  0  0  0  0
  3 42  1  6  0  0  0
  3  1  1  0  0  0  0
  3  4  1  0  0  0  0
  4  5  1  0  0  0  0
  5  6  1  1  0  0  0
  6 14  2  0  0  0  0
  7 12  1  1  0  0  0
  7  9  1  0  0  0  0
  9  8  2  0  0  0  0
  9 10  1  0  0  0  0
 11 15  1  0  0  0  0
 12 11  2  0  0  0  0
 13  6  1  0  0  0  0
 13  7  1  0  0  0  0
 14  8  1  0  0  0  0
 15 10  2  0  0  0  0
 15 18  1  0  0  0  0
 17 18  1  0  0  0  0
 18 16  2  0  0  0  0
 19 24  1  6  0  0  0
 19 21  1  0  0  0  0
 20 22  2  0  0  0  0
 22 21  1  0  0  0  0
 23 28  1  6  0  0  0
 23 22  1  0  0  0  0
 25 23  1  0  0  0  0
 25 24  1  0  0  0  0
 27 28  1  0  0  0  0
 27 26  2  0  0  0  0
 29 30  1  0  0  0  0
 29 27  1  0  0  0  0
 30 32  1  0  0  0  0
 32 33  1  0  0  0  0
 32 31  1  1  0  0  0
 33 34  1  0  0  0  0
 34 35  1  0  0  0  0
 36 37  1  0  0  0  0
 37 42  1  0  0  0  0
 38 42  2  0  0  0  0
 39 40  2  0  0  0  0
 40 38  1  0  0  0  0
 41 39  1  0  0  0  0
 41 36  2  0  0  0  0
M  END
>  <MODEL>
5

>  <REMARK>
 VINA RESULT:      -6.4      5.467     11.331
  Name = 
  10 active torsions:
  status: ('A' for Active; 'I' for Inactive)
    1  A    between atoms: C_1  and  C_24
    2  A    between atoms: C_6  and  C_11
    3  A    between atoms: C_9  and  C_21
    4  A    between atoms: C_13  and  C_28
    5  A    between atoms: C_18  and  C_38
    6  A    between atoms: C_20  and  N_34
    7  A    between atoms: C_21  and  C_35
    8  A    between atoms: C_27  and  C_42
    9  A    between atoms: C_28  and  C_33
   10  A    between atoms: C_33  and  C_35
                            x       y       z     vdW  Elec       q    Type
                         _______ _______ _______ _____ _____    ______ ____

>  <TORSDO>
F 10

$$$$
=
 OpenBabel11032419073D

 42 46  0  0  1  0  0  0  0  0999 V2000
  185.2280  176.8020  136.4570 N   0  0  0  0  0  2  0  0  0  0  0  0
  185.0260  177.2090  137.8360 C   0  0  2  0  0  3  0  0  0  0  0  0
  184.5270  175.5190  136.3440 C   0  0  2  0  0  3  0  0  0  0  0  0
  183.0770  175.4750  137.4890 S   0  0  0  0  0  0  0  0  0  0  0  0
  183.5440  177.0900  138.1720 C   0  0  2  0  0  3  0  0  0  0  0  0
  182.6680  178.1610  137.5590 C   0  0  0  0  0  0  0  0  0  0  0  0
  181.3760  180.2140  137.9020 C   0  0  2  0  0  3  0  0  0  0  0  0
  181.2460  178.9810  135.7990 N   0  0  0  0  0  0  0  0  0  0  0  0
  180.9720  180.0780  136.4520 C   0  0  0  0  0  0  0  0  0  0  0  0
  180.2070  181.1640  135.8260 C   0  0  0  0  0  3  0  0  0  0  0  0
  180.9850  182.6420  137.6220 C   0  0  0  0  0  3  0  0  0  0  0  0
  181.6100  181.6560  138.2750 C   0  0  0  0  0  3  0  0  0  0  0  0
  182.5350  179.4180  138.1570 O   0  0  0  0  0  0  0  0  0  0  0  0
  182.0310  177.9340  136.3970 C   0  0  0  0  0  3  0  0  0  0  0  0
  180.1590  182.3670  136.4190 C   0  0  0  0  0  0  0  0  0  0  0  0
  179.0620  183.4480  134.6040 O   0  0  0  0  0  0  0  0  0  0  0  0
  178.9420  184.5570  136.6500 N   0  0  0  0  0  1  0  0  0  0  0  0
  179.3650  183.4640  135.8260 C   0  0  0  0  0  0  0  0  0  0  0  0
  185.7250  178.5280  138.2320 C   0  0  2  0  0  3  0  0  0  0  0  0
  188.8740  177.1730  139.2450 O   0  0  0  0  0  0  0  0  0  0  0  0
  187.2660  178.5050  138.1520 C   0  0  0  0  0  2  0  0  0  0  0  0
  187.8910  177.8930  139.3690 C   0  0  0  0  0  0  0  0  0  0  0  0
  187.3540  178.2640  140.7300 C   0  0  1  0  0  3  0  0  0  0  0  0
  185.2340  178.9920  139.6040 C   0  0  0  0  0  2  0  0  0  0  0  0
  185.8360  178.1480  140.7300 C   0  0  0  0  0  2  0  0  0  0  0  0
  186.8060  178.5040  143.5020 O   0  0  0  0  0  0  0  0  0  0  0  0
  187.6490  177.6280  143.1530 C   0  0  0  0  0  0  0  0  0  0  0  0
  187.9140  177.4080  141.7670 N   0  0  0  0  0  2  0  0  0  0  0  0
  188.3580  176.7920  144.1820 C   0  0  0  0  0  2  0  0  0  0  0  0
  189.2290  177.6360  145.1210 C   0  0  0  0  0  2  0  0  0  0  0  0
  190.9990  176.6770  146.5240 N   0  0  0  0  0  1  0  0  0  0  0  0
  190.6520  177.0890  145.1760 C   0  0  2  0  0  3  0  0  0  0  0  0
  191.6620  178.0870  144.6120 C   0  0  0  0  0  2  0  0  0  0  0  0
  191.6370  178.2130  143.0950 C   0  0  0  0  0  2  0  0  0  0  0  0
  191.6390  176.9490  142.5050 O   0  0  0  0  0  1  0  0  0  0  0  0
  185.2700  171.9180  136.2240 C   0  0  0  0  0  3  0  0  0  0  0  0
  185.0540  173.0830  137.1260 C   0  0  0  0  0  2  0  0  0  0  0  0
  186.7630  174.5820  136.1290 C   0  0  0  0  0  3  0  0  0  0  0  0
  187.7130  172.3090  135.9910 C   0  0  0  0  0  3  0  0  0  0  0  0
  187.8080  173.6020  136.1670 N   0  0  0  0  0  0  0  0  0  0  0  0
  186.4630  171.5620  135.7570 C   0  0  0  0  0  3  0  0  0  0  0  0
  185.4940  174.3780  136.5010 C   0  0  0  0  0  0  0  0  0  0  0  0
  2  1  1  6  0  0  0
  2  5  1  0  0  0  0
  2 19  1  0  0  0  0
  3  1  1  0  0  0  0
  3 42  1  1  0  0  0
  3  4  1  0  0  0  0
  4  5  1  0  0  0  0
  5  6  1  6  0  0  0
  6 13  1  0  0  0  0
  7 13  1  0  0  0  0
  7 12  1  6  0  0  0
  8 14  1  0  0  0  0
  8  9  2  0  0  0  0
  9  7  1  0  0  0  0
 10 15  2  0  0  0  0
 10  9  1  0  0  0  0
 11 12  2  0  0  0  0
 14  6  2  0  0  0  0
 15 11  1  0  0  0  0
 16 18  2  0  0  0  0
 18 15  1  0  0  0  0
 18 17  1  0  0  0  0
 19 21  1  1  0  0  0
 19 24  1  0  0  0  0
 20 22  2  0  0  0  0
 21 22  1  0  0  0  0
 22 23  1  0  0  0  0
 23 25  1  0  0  0  0
 23 28  1  1  0  0  0
 24 25  1  0  0  0  0
 27 26  2  0  0  0  0
 27 29  1  0  0  0  0
 28 27  1  0  0  0  0
 29 30  1  0  0  0  0
 30 32  1  0  0  0  0
 32 31  1  1  0  0  0
 33 32  1  0  0  0  0
 34 33  1  0  0  0  0
 35 34  1  0  0  0  0
 36 37  1  0  0  0  0
 38 40  1  0  0  0  0
 38 42  2  0  0  0  0
 39 40  2  0  0  0  0
 41 39  1  0  0  0  0
 41 36  2  0  0  0  0
 42 37  1  0  0  0  0
M  END
>  <MODEL>
6

>  <REMARK>
 VINA RESULT:      -6.1      5.125      9.435
  Name = 
  10 active torsions:
  status: ('A' for Active; 'I' for Inactive)
    1  A    between atoms: C_1  and  C_24
    2  A    between atoms: C_6  and  C_11
    3  A    between atoms: C_9  and  C_21
    4  A    between atoms: C_13  and  C_28
    5  A    between atoms: C_18  and  C_38
    6  A    between atoms: C_20  and  N_34
    7  A    between atoms: C_21  and  C_35
    8  A    between atoms: C_27  and  C_42
    9  A    between atoms: C_28  and  C_33
   10  A    between atoms: C_33  and  C_35
                            x       y       z     vdW  Elec       q    Type
                         _______ _______ _______ _____ _____    ______ ____

>  <TORSDO>
F 10

$$$$
=
 OpenBabel11032419073D

 42 46  0  0  1  0  0  0  0  0999 V2000
  185.5980  176.2710  135.5670 N   0  0  0  0  0  2  0  0  0  0  0  0
  185.7150  176.5450  136.9880 C   0  0  2  0  0  3  0  0  0  0  0  0
  184.8920  174.9880  135.4940 C   0  0  2  0  0  3  0  0  0  0  0  0
  183.7410  174.8050  136.9280 S   0  0  0  0  0  0  0  0  0  0  0  0
  184.3480  176.3610  137.6380 C   0  0  2  0  0  3  0  0  0  0  0  0
  183.3540  177.4630  137.3440 C   0  0  0  0  0  0  0  0  0  0  0  0
  182.1160  179.4030  138.1860 C   0  0  2  0  0  3  0  0  0  0  0  0
  181.6090  178.4360  136.0010 N   0  0  0  0  0  0  0  0  0  0  0  0
  181.4460  179.4320  136.8310 C   0  0  0  0  0  0  0  0  0  0  0  0
  180.5570  180.5540  136.5050 C   0  0  0  0  0  3  0  0  0  0  0  0
  181.6380  181.8280  138.3010 C   0  0  0  0  0  3  0  0  0  0  0  0
  182.3930  180.7950  138.6920 C   0  0  0  0  0  3  0  0  0  0  0  0
  183.3160  178.6300  138.1130 O   0  0  0  0  0  0  0  0  0  0  0  0
  182.5110  177.3560  136.3020 C   0  0  0  0  0  3  0  0  0  0  0  0
  180.6030  181.6720  137.2480 C   0  0  0  0  0  0  0  0  0  0  0  0
  179.3190  183.5730  137.8820 O   0  0  0  0  0  0  0  0  0  0  0  0
  179.2250  183.0100  135.6220 N   0  0  0  0  0  1  0  0  0  0  0  0
  179.6920  182.8000  136.9610 C   0  0  0  0  0  0  0  0  0  0  0  0
  186.4830  177.8380  137.3390 C   0  0  2  0  0  3  0  0  0  0  0  0
  188.9670  177.6890  134.7730 O   0  0  0  0  0  0  0  0  0  0  0  0
  187.2420  178.4900  136.1650 C   0  0  0  0  0  2  0  0  0  0  0  0
  188.5760  177.8510  135.9230 C   0  0  0  0  0  0  0  0  0  0  0  0
  189.4500  177.5150  137.1060 C   0  0  1  0  0  3  0  0  0  0  0  0
  187.3950  177.5980  138.5420 C   0  0  0  0  0  2  0  0  0  0  0  0
  188.6290  176.7800  138.1570 C   0  0  0  0  0  2  0  0  0  0  0  0
  191.6620  176.8880  138.7650 O   0  0  0  0  0  0  0  0  0  0  0  0
  191.7010  176.4770  137.5700 C   0  0  0  0  0  0  0  0  0  0  0  0
  190.5860  176.6970  136.7050 N   0  0  0  0  0  2  0  0  0  0  0  0
  192.9000  175.7310  137.0530 C   0  0  0  0  0  2  0  0  0  0  0  0
  193.2610  174.5260  137.9320 C   0  0  0  0  0  2  0  0  0  0  0  0
  195.2010  173.1290  138.4840 N   0  0  0  0  0  1  0  0  0  0  0  0
  194.5220  173.8400  137.4160 C   0  0  2  0  0  3  0  0  0  0  0  0
  195.4530  174.8270  136.7130 C   0  0  0  0  0  2  0  0  0  0  0  0
  196.9050  174.7490  137.1680 C   0  0  0  0  0  2  0  0  0  0  0  0
  197.6700  175.7140  136.5120 O   0  0  0  0  0  1  0  0  0  0  0  0
  188.0220  173.2960  136.4320 C   0  0  0  0  0  3  0  0  0  0  0  0
  187.3520  174.1160  135.3840 C   0  0  0  0  0  2  0  0  0  0  0  0
  185.3810  172.6470  135.0400 C   0  0  0  0  0  3  0  0  0  0  0  0
  187.2710  171.1260  135.4830 C   0  0  0  0  0  3  0  0  0  0  0  0
  186.1570  171.4530  134.8820 N   0  0  0  0  0  0  0  0  0  0  0  0
  188.0110  171.9660  136.4430 C   0  0  0  0  0  3  0  0  0  0  0  0
  185.8720  173.8610  135.3200 C   0  0  0  0  0  0  0  0  0  0  0  0
  2  1  1  6  0  0  0
  2 19  1  0  0  0  0
  2  5  1  0  0  0  0
  3 42  1  1  0  0  0
  3  1  1  0  0  0  0
  3  4  1  0  0  0  0
  4  5  1  0  0  0  0
  5  6  1  6  0  0  0
  6 13  1  0  0  0  0
  7 12  1  6  0  0  0
  8 14  1  0  0  0  0
  8  9  2  0  0  0  0
  9  7  1  0  0  0  0
 10  9  1  0  0  0  0
 10 15  2  0  0  0  0
 11 12  2  0  0  0  0
 13  7  1  0  0  0  0
 14  6  2  0  0  0  0
 15 11  1  0  0  0  0
 17 18  1  0  0  0  0
 18 15  1  0  0  0  0
 18 16  2  0  0  0  0
 19 21  1  6  0  0  0
 19 24  1  0  0  0  0
 20 22  2  0  0  0  0
 22 21  1  0  0  0  0
 22 23  1  0  0  0  0
 23 28  1  6  0  0  0
 23 25  1  0  0  0  0
 25 24  1  0  0  0  0
 27 26  2  0  0  0  0
 28 27  1  0  0  0  0
 29 27  1  0  0  0  0
 29 30  1  0  0  0  0
 32 30  1  0  0  0  0
 32 31  1  1  0  0  0
 33 34  1  0  0  0  0
 33 32  1  0  0  0  0
 35 34  1  0  0  0  0
 36 41  2  0  0  0  0
 37 36  1  0  0  0  0
 38 42  2  0  0  0  0
 39 41  1  0  0  0  0
 40 38  1  0  0  0  0
 40 39  2  0  0  0  0
 42 37  1  0  0  0  0
M  END
>  <MODEL>
7

>  <REMARK>
 VINA RESULT:      -6.0      4.615     10.375
  Name = 
  10 active torsions:
  status: ('A' for Active; 'I' for Inactive)
    1  A    between atoms: C_1  and  C_24
    2  A    between atoms: C_6  and  C_11
    3  A    between atoms: C_9  and  C_21
    4  A    between atoms: C_13  and  C_28
    5  A    between atoms: C_18  and  C_38
    6  A    between atoms: C_20  and  N_34
    7  A    between atoms: C_21  and  C_35
    8  A    between atoms: C_27  and  C_42
    9  A    between atoms: C_28  and  C_33
   10  A    between atoms: C_33  and  C_35
                            x       y       z     vdW  Elec       q    Type
                         _______ _______ _______ _____ _____    ______ ____

>  <TORSDO>
F 10

$$$$
=
 OpenBabel11032419073D

 42 46  0  0  1  0  0  0  0  0999 V2000
  189.3690  174.4740  137.2830 N   0  0  0  0  0  2  0  0  0  0  0  0
  189.8220  175.4200  136.2790 C   0  0  2  0  0  3  0  0  0  0  0  0
  188.6460  173.4480  136.5260 C   0  0  2  0  0  3  0  0  0  0  0  0
  189.3710  173.2640  134.8360 S   0  0  0  0  0  0  0  0  0  0  0  0
  190.5000  174.6510  135.1510 C   0  0  2  0  0  3  0  0  0  0  0  0
  191.8710  174.1080  135.4890 C   0  0  0  0  0  0  0  0  0  0  0  0
  194.2970  174.4440  135.4160 C   0  0  2  0  0  3  0  0  0  0  0  0
  193.3410  172.3030  136.1000 N   0  0  0  0  0  0  0  0  0  0  0  0
  194.4010  173.0630  136.0220 C   0  0  0  0  0  0  0  0  0  0  0  0
  195.7190  172.5730  136.4440 C   0  0  0  0  0  3  0  0  0  0  0  0
  196.4880  174.9020  136.4710 C   0  0  0  0  0  3  0  0  0  0  0  0
  195.3330  175.3750  135.9910 C   0  0  0  0  0  3  0  0  0  0  0  0
  192.9760  174.9560  135.6080 O   0  0  0  0  0  0  0  0  0  0  0  0
  192.0420  172.7950  135.7250 C   0  0  0  0  0  3  0  0  0  0  0  0
  196.7310  173.4420  136.5940 C   0  0  0  0  0  0  0  0  0  0  0  0
  199.0350  173.7750  137.0940 O   0  0  0  0  0  0  0  0  0  0  0  0
  198.2900  171.5710  137.2280 N   0  0  0  0  0  1  0  0  0  0  0  0
  198.0760  172.9660  136.9820 C   0  0  0  0  0  0  0  0  0  0  0  0
  190.5760  176.6460  136.8350 C   0  0  2  0  0  3  0  0  0  0  0  0
  190.0010  176.0840  140.3180 O   0  0  0  0  0  0  0  0  0  0  0  0
  191.1050  176.4940  138.2770 C   0  0  0  0  0  2  0  0  0  0  0  0
  190.0490  176.7700  139.3040 C   0  0  0  0  0  0  0  0  0  0  0  0
  189.1330  177.9530  139.1100 C   0  0  1  0  0  3  0  0  0  0  0  0
  189.7250  177.9060  136.6730 C   0  0  0  0  0  2  0  0  0  0  0  0
  188.5830  177.9470  137.6900 C   0  0  0  0  0  2  0  0  0  0  0  0
  189.2640  178.9630  141.7570 O   0  0  0  0  0  0  0  0  0  0  0  0
  188.1900  178.3940  141.4080 C   0  0  0  0  0  0  0  0  0  0  0  0
  188.0350  177.9300  140.0660 N   0  0  0  0  0  2  0  0  0  0  0  0
  187.0580  178.2250  142.3830 C   0  0  0  0  0  2  0  0  0  0  0  0
  185.7610  178.8790  141.8890 C   0  0  0  0  0  2  0  0  0  0  0  0
  185.2700  178.4170  144.2480 N   0  0  0  0  0  1  0  0  0  0  0  0
  184.7630  179.0290  143.0340 C   0  0  2  0  0  3  0  0  0  0  0  0
  183.3860  178.4830  142.6570 C   0  0  0  0  0  2  0  0  0  0  0  0
  183.0170  178.6770  141.1920 C   0  0  0  0  0  2  0  0  0  0  0  0
  182.7810  177.4430  140.5860 O   0  0  0  0  0  1  0  0  0  0  0  0
  185.1820  172.2530  136.8600 C   0  0  0  0  0  3  0  0  0  0  0  0
  186.2020  172.7680  135.9040 C   0  0  0  0  0  2  0  0  0  0  0  0
  186.7550  174.8600  137.1200 C   0  0  0  0  0  3  0  0  0  0  0  0
  184.3380  174.5090  137.4690 C   0  0  0  0  0  3  0  0  0  0  0  0
  185.3880  175.2630  137.2750 N   0  0  0  0  0  0  0  0  0  0  0  0
  184.3340  173.0350  137.5210 C   0  0  0  0  0  3  0  0  0  0  0  0
  187.1670  173.7180  136.5560 C   0  0  0  0  0  0  0  0  0  0  0  0
  2 19  1  0  0  0  0
  2  1  1  1  0  0  0
  3 42  1  6  0  0  0
  3  1  1  0  0  0  0
  4  5  1  0  0  0  0
  4  3  1  0  0  0  0
  5  6  1  1  0  0  0
  5  2  1  0  0  0  0
  6 13  1  0  0  0  0
  6 14  2  0  0  0  0
  7 13  1  0  0  0  0
  7 12  1  1  0  0  0
  7  9  1  0  0  0  0
  9  8  2  0  0  0  0
  9 10  1  0  0  0  0
 10 15  2  0  0  0  0
 11 15  1  0  0  0  0
 12 11  2  0  0  0  0
 14  8  1  0  0  0  0
 15 18  1  0  0  0  0
 18 16  2  0  0  0  0
 18 17  1  0  0  0  0
 19 24  1  1  0  0  0
 19 21  1  0  0  0  0
 21 22  1  0  0  0  0
 22 20  2  0  0  0  0
 23 22  1  0  0  0  0
 23 28  1  1  0  0  0
 24 25  1  0  0  0  0
 25 23  1  0  0  0  0
 27 26  2  0  0  0  0
 27 29  1  0  0  0  0
 28 27  1  0  0  0  0
 30 29  1  0  0  0  0
 30 32  1  0  0  0  0
 32 31  1  1  0  0  0
 33 32  1  0  0  0  0
 34 33  1  0  0  0  0
 35 34  1  0  0  0  0
 36 41  2  0  0  0  0
 37 42  1  0  0  0  0
 37 36  1  0  0  0  0
 38 40  1  0  0  0  0
 39 41  1  0  0  0  0
 40 39  2  0  0  0  0
 42 38  2  0  0  0  0
M  END
>  <MODEL>
8

>  <REMARK>
 VINA RESULT:      -5.9      2.199      2.545
  Name = 
  10 active torsions:
  status: ('A' for Active; 'I' for Inactive)
    1  A    between atoms: C_1  and  C_24
    2  A    between atoms: C_6  and  C_11
    3  A    between atoms: C_9  and  C_21
    4  A    between atoms: C_13  and  C_28
    5  A    between atoms: C_18  and  C_38
    6  A    between atoms: C_20  and  N_34
    7  A    between atoms: C_21  and  C_35
    8  A    between atoms: C_27  and  C_42
    9  A    between atoms: C_28  and  C_33
   10  A    between atoms: C_33  and  C_35
                            x       y       z     vdW  Elec       q    Type
                         _______ _______ _______ _____ _____    ______ ____

>  <TORSDO>
F 10

$$$$
=
 OpenBabel11032419073D

 42 46  0  0  1  0  0  0  0  0999 V2000
  187.8810  176.4190  135.4660 N   0  0  0  0  0  2  0  0  0  0  0  0
  187.7490  176.4930  136.9100 C   0  0  2  0  0  3  0  0  0  0  0  0
  187.6780  175.0020  135.1480 C   0  0  2  0  0  3  0  0  0  0  0  0
  186.5210  174.2290  136.3640 S   0  0  0  0  0  0  0  0  0  0  0  0
  186.4730  175.7690  137.3240 C   0  0  2  0  0  3  0  0  0  0  0  0
  185.1930  176.5120  137.0080 C   0  0  0  0  0  0  0  0  0  0  0  0
  183.2330  177.7020  137.8700 C   0  0  2  0  0  3  0  0  0  0  0  0
  183.4070  177.1090  135.5080 N   0  0  0  0  0  0  0  0  0  0  0  0
  182.7840  177.7930  136.4300 C   0  0  0  0  0  0  0  0  0  0  0  0
  181.5990  178.5960  136.1070 C   0  0  0  0  0  3  0  0  0  0  0  0
  181.8910  179.7460  138.2540 C   0  0  0  0  0  3  0  0  0  0  0  0
  182.9120  178.9660  138.6260 C   0  0  0  0  0  3  0  0  0  0  0  0
  184.6300  177.4070  137.9220 O   0  0  0  0  0  0  0  0  0  0  0  0
  184.5930  176.3530  135.8150 C   0  0  0  0  0  3  0  0  0  0  0  0
  181.1340  179.4810  137.0040 C   0  0  0  0  0  0  0  0  0  0  0  0
  179.0920  179.8860  135.8500 O   0  0  0  0  0  0  0  0  0  0  0  0
  179.6900  181.4980  137.4240 N   0  0  0  0  0  1  0  0  0  0  0  0
  179.9210  180.2740  136.7160 C   0  0  0  0  0  0  0  0  0  0  0  0
  187.9790  177.8950  137.5120 C   0  0  2  0  0  3  0  0  0  0  0  0
  191.4000  177.5030  138.4730 O   0  0  0  0  0  0  0  0  0  0  0  0
  189.4430  178.3840  137.4990 C   0  0  0  0  0  2  0  0  0  0  0  0
  190.2350  177.8410  138.6500 C   0  0  0  0  0  0  0  0  0  0  0  0
  189.6090  177.8200  140.0220 C   0  0  1  0  0  3  0  0  0  0  0  0
  187.3660  177.9750  138.9110 C   0  0  0  0  0  2  0  0  0  0  0  0
  188.2120  177.2200  139.9380 C   0  0  0  0  0  2  0  0  0  0  0  0
  190.1300  178.5670  142.7070 O   0  0  0  0  0  0  0  0  0  0  0  0
  190.6990  177.5230  142.2780 C   0  0  0  0  0  0  0  0  0  0  0  0
  190.4200  177.0530  140.9580 N   0  0  0  0  0  2  0  0  0  0  0  0
  191.6460  176.7490  143.1520 C   0  0  0  0  0  2  0  0  0  0  0  0
  190.9600  176.1930  144.4070 C   0  0  0  0  0  2  0  0  0  0  0  0
  192.0510  176.3570  146.5990 N   0  0  0  0  0  1  0  0  0  0  0  0
  191.2570  177.0740  145.6180 C   0  0  2  0  0  3  0  0  0  0  0  0
  189.9760  177.6390  146.2300 C   0  0  0  0  0  2  0  0  0  0  0  0
  188.6960  177.1300  145.5820 C   0  0  0  0  0  2  0  0  0  0  0  0
  187.5970  177.4170  146.3910 O   0  0  0  0  0  1  0  0  0  0  0  0
  191.2930  174.8250  135.8040 C   0  0  0  0  0  3  0  0  0  0  0  0
  190.2600  175.0910  134.7650 C   0  0  0  0  0  2  0  0  0  0  0  0
  189.0020  172.9650  135.0120 C   0  0  0  0  0  3  0  0  0  0  0  0
  191.3710  172.3790  135.3710 C   0  0  0  0  0  3  0  0  0  0  0  0
  190.1670  172.1350  134.9240 N   0  0  0  0  0  0  0  0  0  0  0  0
  191.8070  173.6200  136.0380 C   0  0  0  0  0  3  0  0  0  0  0  0
  189.0000  174.3030  134.9980 C   0  0  0  0  0  0  0  0  0  0  0  0
  2  1  1  6  0  0  0
  2  5  1  0  0  0  0
  2 19  1  0  0  0  0
  3 42  1  1  0  0  0
  3  1  1  0  0  0  0
  3  4  1  0  0  0  0
  4  5  1  0  0  0  0
  5  6  1  6  0  0  0
  6 13  1  0  0  0  0
  7 13  1  0  0  0  0
  7 12  1  6  0  0  0
  8 14  1  0  0  0  0
  8  9  2  0  0  0  0
  9  7  1  0  0  0  0
 10  9  1  0  0  0  0
 10 15  2  0  0  0  0
 11 12  2  0  0  0  0
 14  6  2  0  0  0  0
 15 11  1  0  0  0  0
 16 18  2  0  0  0  0
 18 15  1  0  0  0  0
 18 17  1  0  0  0  0
 19 21  1  1  0  0  0
 19 24  1  0  0  0  0
 20 22  2  0  0  0  0
 21 22  1  0  0  0  0
 22 23  1  0  0  0  0
 23 28  1  1  0  0  0
 24 25  1  0  0  0  0
 25 23  1  0  0  0  0
 27 26  2  0  0  0  0
 27 29  1  0  0  0  0
 28 27  1  0  0  0  0
 29 30  1  0  0  0  0
 30 32  1  0  0  0  0
 32 33  1  0  0  0  0
 32 31  1  1  0  0  0
 34 33  1  0  0  0  0
 34 35  1  0  0  0  0
 36 41  2  0  0  0  0
 37 42  1  0  0  0  0
 37 36  1  0  0  0  0
 39 41  1  0  0  0  0
 40 38  1  0  0  0  0
 40 39  2  0  0  0  0
 42 38  2  0  0  0  0
M  END
>  <MODEL>
9

>  <REMARK>
 VINA RESULT:      -5.9      3.798      8.331
  Name = 
  10 active torsions:
  status: ('A' for Active; 'I' for Inactive)
    1  A    between atoms: C_1  and  C_24
    2  A    between atoms: C_6  and  C_11
    3  A    between atoms: C_9  and  C_21
    4  A    between atoms: C_13  and  C_28
    5  A    between atoms: C_18  and  C_38
    6  A    between atoms: C_20  and  N_34
    7  A    between atoms: C_21  and  C_35
    8  A    between atoms: C_27  and  C_42
    9  A    between atoms: C_28  and  C_33
   10  A    between atoms: C_33  and  C_35
                            x       y       z     vdW  Elec       q    Type
                         _______ _______ _______ _____ _____    ______ ____

>  <TORSDO>
F 10

$$$$
