=
 OpenBabel11042411093D

 33 36  0  0  1  0  0  0  0  0999 V2000
  183.4220  178.9970  145.5290 N   0  0  0  0  0  1  0  0  0  0  0  0
  185.4920  178.5980  146.9520 C   0  0  0  0  0  2  0  0  0  0  0  0
  186.1290  178.2290  142.2630 N   0  0  0  0  0  0  0  0  0  0  0  0
  187.9140  177.9560  143.8800 C   0  0  0  0  0  0  0  0  0  0  0  0
  185.2010  178.4320  143.1520 C   0  0  0  0  0  0  0  0  0  0  0  0
  187.5180  177.9870  142.5810 C   0  0  0  0  0  0  0  0  0  0  0  0
  187.2590  178.2230  146.6350 S   0  0  0  0  0  0  0  0  0  0  0  0
  186.9230  178.1270  144.9070 N   0  0  0  0  0  0  0  0  0  0  0  0
  184.8010  178.6490  145.6300 C   0  0  0  0  0  0  0  0  0  0  0  0
  185.5760  178.4010  144.5800 C   0  0  0  0  0  0  0  0  0  0  0  0
  191.1370  176.1890  144.2250 C   0  0  0  0  0  2  0  0  0  0  0  0
  191.5550  178.4590  143.6690 C   0  0  0  0  0  2  0  0  0  0  0  0
  190.2010  178.9150  144.2090 C   0  0  0  0  0  2  0  0  0  0  0  0
  189.7590  176.5090  144.8020 C   0  0  0  0  0  2  0  0  0  0  0  0
  192.0430  177.3170  144.4390 N   0  0  0  0  0  2  0  0  0  0  0  0
  189.2880  177.7780  144.2520 N   0  0  0  0  0  0  0  0  0  0  0  0
  189.2070  176.5170  141.4440 C   0  0  0  0  0  2  0  0  0  0  0  0
  190.4870  176.7750  140.6680 C   0  0  0  0  0  2  0  0  0  0  0  0
  189.1790  178.1430  139.1490 C   0  0  0  0  0  0  0  0  0  0  0  0
  188.4340  177.7570  141.4970 N   0  0  0  0  0  0  0  0  0  0  0  0
  190.1620  177.3130  139.3530 N   0  0  0  0  0  0  0  0  0  0  0  0
  188.2570  178.5540  140.2780 C   0  0  0  0  0  2  0  0  0  0  0  0
  188.9090  178.6240  137.7850 C   0  0  0  0  0  0  0  0  0  0  0  0
  188.9960  179.8550  137.5220 O   0  0  0  0  0  0  0  0  0  0  0  0
  189.6630  177.5290  135.8280 O   0  0  0  0  0  1  0  0  0  0  0  0
  188.5740  177.6580  136.6920 C   0  0  2  0  0  3  0  0  0  0  0  0
  187.4550  178.0980  135.9800 O   0  0  0  0  0  0  0  0  0  0  0  0
  186.5710  175.7560  137.1780 O   0  0  0  0  0  1  0  0  0  0  0  0
  185.0030  177.2270  135.6950 O   0  0  0  0  0  0  0  0  0  0  0  0
  185.6090  178.1800  138.0330 F   0  0  0  0  0  0  0  0  0  0  0  0
  186.1320  177.3160  136.6960 P   0  0  2  0  0  0  0  0  0  0  0  0
  183.6220  178.0110  141.4500 O   0  0  0  0  0  1  0  0  0  0  0  0
  183.7970  178.6250  142.6910 C   0  0  0  0  0  2  0  0  0  0  0  0
  1  9  1  0  0  0  0
  3  6  1  0  0  0  0
  3  5  2  0  0  0  0
  4 16  1  0  0  0  0
  4  8  1  0  0  0  0
  5 10  1  0  0  0  0
  6  4  2  0  0  0  0
  7  2  1  0  0  0  0
  8  7  1  0  0  0  0
  9  2  1  0  0  0  0
 10  8  1  0  0  0  0
 10  9  2  0  0  0  0
 11 15  1  0  0  0  0
 11 14  1  0  0  0  0
 12 13  1  0  0  0  0
 12 15  1  0  0  0  0
 13 16  1  0  0  0  0
 16 14  1  0  0  0  0
 17 20  1  0  0  0  0
 18 17  1  0  0  0  0
 19 21  2  0  0  0  0
 19 22  1  0  0  0  0
 20  6  1  0  0  0  0
 21 18  1  0  0  0  0
 22 20  1  0  0  0  0
 23 19  1  0  0  0  0
 24 23  2  0  0  0  0
 26 25  1  6  0  0  0
 26 23  1  0  0  0  0
 27 26  1  0  0  0  0
 27 31  1  0  0  0  0
 31 29  2  6  0  0  0
 31 28  1  0  0  0  0
 31 30  1  0  0  0  0
 32 33  1  0  0  0  0
 33  5  1  0  0  0  0
M  END
>  <MODEL>
1

>  <REMARK>
 VINA RESULT:      -7.6      0.000      0.000
  Name = 
  7 active torsions:
  status: ('A' for Active; 'I' for Inactive)
    1  A    between atoms: C_10  and  N_33
    2  A    between atoms: C_12  and  C_17
    3  A    between atoms: C_12  and  C_21
    4  A    between atoms: CA_14  and  C_19
    5  A    between atoms: C_18  and  N_26
    6  A    between atoms: P_20  and  O_29
    7  A    between atoms: C_21  and  O_29
                            x       y       z     vdW  Elec       q    Type
                         _______ _______ _______ _____ _____    ______ ____

>  <TORSDO>
F 7

$$$$
=
 OpenBabel11042411093D

 33 36  0  0  1  0  0  0  0  0999 V2000
  182.4010  178.2820  137.5290 N   0  0  0  0  0  1  0  0  0  0  0  0
  183.4260  176.7890  135.7430 C   0  0  0  0  0  2  0  0  0  0  0  0
  186.3990  178.2560  139.1390 N   0  0  0  0  0  0  0  0  0  0  0  0
  187.0590  176.7840  137.3290 C   0  0  0  0  0  0  0  0  0  0  0  0
  185.1690  178.3860  138.7370 C   0  0  0  0  0  0  0  0  0  0  0  0
  187.3930  177.4530  138.4630 C   0  0  0  0  0  0  0  0  0  0  0  0
  185.0780  176.0610  135.4200 S   0  0  0  0  0  0  0  0  0  0  0  0
  185.7260  176.9290  136.8120 N   0  0  0  0  0  0  0  0  0  0  0  0
  183.5400  177.6350  136.9680 C   0  0  0  0  0  0  0  0  0  0  0  0
  184.7540  177.6860  137.5040 C   0  0  0  0  0  0  0  0  0  0  0  0
  190.1030  175.8980  135.4400 C   0  0  0  0  0  2  0  0  0  0  0  0
  189.6580  174.1950  137.0320 C   0  0  0  0  0  2  0  0  0  0  0  0
  188.1770  174.5570  137.1120 C   0  0  0  0  0  2  0  0  0  0  0  0
  188.6480  176.3610  135.4210 C   0  0  0  0  0  2  0  0  0  0  0  0
  190.1670  174.4590  135.6880 N   0  0  0  0  0  2  0  0  0  0  0  0
  187.9870  175.9280  136.6500 N   0  0  0  0  0  0  0  0  0  0  0  0
  189.8190  178.0830  138.3080 C   0  0  0  0  0  2  0  0  0  0  0  0
  191.1210  177.3900  138.6690 C   0  0  0  0  0  2  0  0  0  0  0  0
  190.2850  177.2110  140.9410 C   0  0  0  0  0  0  0  0  0  0  0  0
  188.7230  177.4160  139.0080 N   0  0  0  0  0  0  0  0  0  0  0  0
  191.2820  177.3750  140.1190 N   0  0  0  0  0  0  0  0  0  0  0  0
  188.8640  177.0890  140.4320 C   0  0  0  0  0  2  0  0  0  0  0  0
  190.5340  177.2270  142.3910 C   0  0  0  0  0  0  0  0  0  0  0  0
  191.3370  176.3990  142.9020 O   0  0  0  0  0  0  0  0  0  0  0  0
  190.7890  179.2500  143.5920 O   0  0  0  0  0  1  0  0  0  0  0  0
  189.8740  178.2480  143.2640 C   0  0  2  0  0  3  0  0  0  0  0  0
  189.3880  177.6520  144.4300 O   0  0  0  0  0  0  0  0  0  0  0  0
  187.1050  178.2560  142.9710 O   0  0  0  0  0  0  0  0  0  0  0  0
  186.9830  177.1390  145.3280 O   0  0  0  0  0  1  0  0  0  0  0  0
  187.8150  175.6370  143.3810 F   0  0  0  0  0  0  0  0  0  0  0  0
  187.8050  177.1690  144.0600 P   0  0  2  0  0  0  0  0  0  0  0  0
  184.3160  180.5730  138.9760 O   0  0  0  0  0  1  0  0  0  0  0  0
  184.2550  179.2810  139.5020 C   0  0  0  0  0  2  0  0  0  0  0  0
  2  9  1  0  0  0  0
  4  6  2  0  0  0  0
  5  3  2  0  0  0  0
  5 33  1  0  0  0  0
  6 20  1  0  0  0  0
  6  3  1  0  0  0  0
  7  2  1  0  0  0  0
  7  8  1  0  0  0  0
  8  4  1  0  0  0  0
  8 10  1  0  0  0  0
  9 10  2  0  0  0  0
  9  1  1  0  0  0  0
 10  5  1  0  0  0  0
 11 15  1  0  0  0  0
 12 13  1  0  0  0  0
 14 11  1  0  0  0  0
 14 16  1  0  0  0  0
 15 12  1  0  0  0  0
 16 13  1  0  0  0  0
 16  4  1  0  0  0  0
 17 18  1  0  0  0  0
 17 20  1  0  0  0  0
 18 21  1  0  0  0  0
 19 23  1  0  0  0  0
 20 22  1  0  0  0  0
 21 19  2  0  0  0  0
 22 19  1  0  0  0  0
 23 24  2  0  0  0  0
 23 26  1  0  0  0  0
 26 25  1  1  0  0  0
 26 27  1  0  0  0  0
 30 31  1  0  0  0  0
 31 28  2  6  0  0  0
 31 27  1  0  0  0  0
 31 29  1  0  0  0  0
 32 33  1  0  0  0  0
M  END
>  <MODEL>
2

>  <REMARK>
 VINA RESULT:      -6.8      4.554      7.027
  Name = 
  7 active torsions:
  status: ('A' for Active; 'I' for Inactive)
    1  A    between atoms: C_10  and  N_33
    2  A    between atoms: C_12  and  C_17
    3  A    between atoms: C_12  and  C_21
    4  A    between atoms: CA_14  and  C_19
    5  A    between atoms: C_18  and  N_26
    6  A    between atoms: P_20  and  O_29
    7  A    between atoms: C_21  and  O_29
                            x       y       z     vdW  Elec       q    Type
                         _______ _______ _______ _____ _____    ______ ____

>  <TORSDO>
F 7

$$$$
=
 OpenBabel11042411093D

 33 36  0  0  1  0  0  0  0  0999 V2000
  182.6910  178.0900  137.2600 N   0  0  0  0  0  1  0  0  0  0  0  0
  183.7260  176.5280  135.5410 C   0  0  0  0  0  2  0  0  0  0  0  0
  186.6640  178.0750  138.9320 N   0  0  0  0  0  0  0  0  0  0  0  0
  187.3340  176.5370  137.1820 C   0  0  0  0  0  0  0  0  0  0  0  0
  185.4410  178.2050  138.5070 C   0  0  0  0  0  0  0  0  0  0  0  0
  187.6590  177.2400  138.2980 C   0  0  0  0  0  0  0  0  0  0  0  0
  185.3750  175.7730  135.2680 S   0  0  0  0  0  0  0  0  0  0  0  0
  186.0110  176.6790  136.6400 N   0  0  0  0  0  0  0  0  0  0  0  0
  183.8310  177.4130  136.7380 C   0  0  0  0  0  0  0  0  0  0  0  0
  185.0370  177.4690  137.2910 C   0  0  0  0  0  0  0  0  0  0  0  0
  190.3870  175.5590  135.3520 C   0  0  0  0  0  2  0  0  0  0  0  0
  189.9240  173.9260  137.0130 C   0  0  0  0  0  2  0  0  0  0  0  0
  188.4440  174.2980  137.0670 C   0  0  0  0  0  2  0  0  0  0  0  0
  188.9340  176.0260  135.3040 C   0  0  0  0  0  2  0  0  0  0  0  0
  190.4430  174.1310  135.6620 N   0  0  0  0  0  2  0  0  0  0  0  0
  188.2630  175.6490  136.5460 N   0  0  0  0  0  0  0  0  0  0  0  0
  190.1220  177.6790  138.0850 C   0  0  0  0  0  2  0  0  0  0  0  0
  191.3730  176.9710  138.5760 C   0  0  0  0  0  2  0  0  0  0  0  0
  190.5130  177.2190  140.8320 C   0  0  0  0  0  0  0  0  0  0  0  0
  188.9800  177.2060  138.8650 N   0  0  0  0  0  0  0  0  0  0  0  0
  191.5230  177.1830  140.0110 N   0  0  0  0  0  0  0  0  0  0  0  0
  189.0900  177.1080  140.3250 C   0  0  0  0  0  2  0  0  0  0  0  0
  190.7520  177.4550  142.2640 C   0  0  0  0  0  0  0  0  0  0  0  0
  191.3210  178.5160  142.6420 O   0  0  0  0  0  0  0  0  0  0  0  0
  190.2660  175.1860  142.7260 O   0  0  0  0  0  1  0  0  0  0  0  0
  190.2860  176.4640  143.2850 C   0  0  2  0  0  3  0  0  0  0  0  0
  189.0090  176.8000  143.7420 O   0  0  0  0  0  0  0  0  0  0  0  0
  190.3090  176.4330  146.1670 O   0  0  0  0  0  1  0  0  0  0  0  0
  187.9130  177.4620  146.0250 O   0  0  0  0  0  0  0  0  0  0  0  0
  189.8660  178.9710  145.2200 F   0  0  0  0  0  0  0  0  0  0  0  0
  189.2400  177.4190  145.3040 P   0  0  2  0  0  0  0  0  0  0  0  0
  185.1860  179.6820  140.3280 O   0  0  0  0  0  1  0  0  0  0  0  0
  184.5260  179.1340  139.2270 C   0  0  0  0  0  2  0  0  0  0  0  0
  2  9  1  0  0  0  0
  4  6  2  0  0  0  0
  5  3  2  0  0  0  0
  5 33  1  0  0  0  0
  6 20  1  0  0  0  0
  6  3  1  0  0  0  0
  7  2  1  0  0  0  0
  7  8  1  0  0  0  0
  8  4  1  0  0  0  0
  8 10  1  0  0  0  0
  9  1  1  0  0  0  0
  9 10  2  0  0  0  0
 10  5  1  0  0  0  0
 11 15  1  0  0  0  0
 12 13  1  0  0  0  0
 14 11  1  0  0  0  0
 14 16  1  0  0  0  0
 15 12  1  0  0  0  0
 16 13  1  0  0  0  0
 16  4  1  0  0  0  0
 17 18  1  0  0  0  0
 17 20  1  0  0  0  0
 18 21  1  0  0  0  0
 19 23  1  0  0  0  0
 20 22  1  0  0  0  0
 21 19  2  0  0  0  0
 22 19  1  0  0  0  0
 23 24  2  0  0  0  0
 23 26  1  0  0  0  0
 26 25  1  6  0  0  0
 26 27  1  0  0  0  0
 27 31  1  0  0  0  0
 31 30  1  6  0  0  0
 31 29  2  0  0  0  0
 31 28  1  0  0  0  0
 33 32  1  0  0  0  0
M  END
>  <MODEL>
3

>  <REMARK>
 VINA RESULT:      -6.4      4.874      7.314
  Name = 
  7 active torsions:
  status: ('A' for Active; 'I' for Inactive)
    1  A    between atoms: C_10  and  N_33
    2  A    between atoms: C_12  and  C_17
    3  A    between atoms: C_12  and  C_21
    4  A    between atoms: CA_14  and  C_19
    5  A    between atoms: C_18  and  N_26
    6  A    between atoms: P_20  and  O_29
    7  A    between atoms: C_21  and  O_29
                            x       y       z     vdW  Elec       q    Type
                         _______ _______ _______ _____ _____    ______ ____

>  <TORSDO>
F 7

$$$$
=
 OpenBabel11042411093D

 33 36  0  0  1  0  0  0  0  0999 V2000
  182.9550  178.8460  141.8970 N   0  0  0  0  0  1  0  0  0  0  0  0
  183.8900  178.8170  139.5320 C   0  0  0  0  0  2  0  0  0  0  0  0
  187.0450  178.0330  142.9900 N   0  0  0  0  0  0  0  0  0  0  0  0
  187.6130  178.0180  140.6340 C   0  0  0  0  0  0  0  0  0  0  0  0
  185.7910  178.3230  142.8020 C   0  0  0  0  0  0  0  0  0  0  0  0
  188.0070  177.8650  141.9240 C   0  0  0  0  0  0  0  0  0  0  0  0
  185.5290  178.5230  138.7650 S   0  0  0  0  0  0  0  0  0  0  0  0
  186.2490  178.3840  140.3680 N   0  0  0  0  0  0  0  0  0  0  0  0
  184.0670  178.7370  141.0120 C   0  0  0  0  0  0  0  0  0  0  0  0
  185.3110  178.5080  141.4180 C   0  0  0  0  0  0  0  0  0  0  0  0
  188.9980  176.3250  137.6600 C   0  0  0  0  0  2  0  0  0  0  0  0
  189.1220  178.6730  137.3400 C   0  0  0  0  0  2  0  0  0  0  0  0
  189.0880  178.9520  138.8420 C   0  0  0  0  0  2  0  0  0  0  0  0
  188.9600  176.4610  139.1810 C   0  0  0  0  0  2  0  0  0  0  0  0
  189.7970  177.4040  137.0820 N   0  0  0  0  0  2  0  0  0  0  0  0
  188.5100  177.8050  139.5350 N   0  0  0  0  0  0  0  0  0  0  0  0
  190.4590  178.3720  141.7320 C   0  0  0  0  0  2  0  0  0  0  0  0
  191.7180  177.5240  141.6940 C   0  0  0  0  0  2  0  0  0  0  0  0
  191.0580  176.6160  143.8460 C   0  0  0  0  0  0  0  0  0  0  0  0
  189.3680  177.5660  142.2780 N   0  0  0  0  0  0  0  0  0  0  0  0
  191.9950  176.9990  143.0260 N   0  0  0  0  0  0  0  0  0  0  0  0
  189.5950  176.7590  143.4820 C   0  0  0  0  0  2  0  0  0  0  0  0
  191.4250  176.1140  145.1790 C   0  0  0  0  0  0  0  0  0  0  0  0
  192.1200  175.0670  145.2900 O   0  0  0  0  0  0  0  0  0  0  0  0
  192.0960  176.9390  147.2930 O   0  0  0  0  0  1  0  0  0  0  0  0
  191.0180  176.8620  146.4110 C   0  0  2  0  0  3  0  0  0  0  0  0
  189.9420  176.2240  147.0340 O   0  0  0  0  0  0  0  0  0  0  0  0
  187.5710  176.8310  148.3420 O   0  0  0  0  0  1  0  0  0  0  0  0
  188.4110  178.2140  146.2920 O   0  0  0  0  0  0  0  0  0  0  0  0
  189.7090  178.5440  148.5160 F   0  0  0  0  0  0  0  0  0  0  0  0
  188.8990  177.4720  147.5150 P   0  0  2  0  0  0  0  0  0  0  0  0
  184.8520  179.8700  144.3160 O   0  0  0  0  0  1  0  0  0  0  0  0
  184.9130  178.5140  143.9910 C   0  0  0  0  0  2  0  0  0  0  0  0
  2  9  1  0  0  0  0
  4  6  2  0  0  0  0
  5  3  2  0  0  0  0
  5 33  1  0  0  0  0
  6 20  1  0  0  0  0
  6  3  1  0  0  0  0
  7  2  1  0  0  0  0
  7  8  1  0  0  0  0
  8  4  1  0  0  0  0
  8 10  1  0  0  0  0
  9 10  2  0  0  0  0
  9  1  1  0  0  0  0
 10  5  1  0  0  0  0
 11 14  1  0  0  0  0
 12 13  1  0  0  0  0
 13 16  1  0  0  0  0
 14 16  1  0  0  0  0
 15 12  1  0  0  0  0
 15 11  1  0  0  0  0
 16  4  1  0  0  0  0
 17 20  1  0  0  0  0
 18 17  1  0  0  0  0
 18 21  1  0  0  0  0
 19 23  1  0  0  0  0
 20 22  1  0  0  0  0
 21 19  2  0  0  0  0
 22 19  1  0  0  0  0
 23 24  2  0  0  0  0
 23 26  1  0  0  0  0
 26 27  1  0  0  0  0
 26 25  1  1  0  0  0
 27 31  1  0  0  0  0
 31 29  2  6  0  0  0
 31 28  1  0  0  0  0
 31 30  1  0  0  0  0
 33 32  1  0  0  0  0
M  END
>  <MODEL>
4

>  <REMARK>
 VINA RESULT:      -6.4      4.913      6.877
  Name = 
  7 active torsions:
  status: ('A' for Active; 'I' for Inactive)
    1  A    between atoms: C_10  and  N_33
    2  A    between atoms: C_12  and  C_17
    3  A    between atoms: C_12  and  C_21
    4  A    between atoms: CA_14  and  C_19
    5  A    between atoms: C_18  and  N_26
    6  A    between atoms: P_20  and  O_29
    7  A    between atoms: C_21  and  O_29
                            x       y       z     vdW  Elec       q    Type
                         _______ _______ _______ _____ _____    ______ ____

>  <TORSDO>
F 7

$$$$
=
 OpenBabel11042411093D

 33 36  0  0  1  0  0  0  0  0999 V2000
  187.0560  177.9090  149.0110 N   0  0  0  0  0  1  0  0  0  0  0  0
  189.3790  177.2690  148.1980 C   0  0  0  0  0  2  0  0  0  0  0  0
  186.2420  178.3320  144.7990 N   0  0  0  0  0  0  0  0  0  0  0  0
  188.5480  177.7340  144.3500 C   0  0  0  0  0  0  0  0  0  0  0  0
  186.3390  178.1970  146.0890 C   0  0  0  0  0  0  0  0  0  0  0  0
  187.3320  178.1120  143.8760 C   0  0  0  0  0  0  0  0  0  0  0  0
  190.2190  177.1360  146.5730 S   0  0  0  0  0  0  0  0  0  0  0  0
  188.7010  177.5240  145.7630 N   0  0  0  0  0  0  0  0  0  0  0  0
  187.9590  177.6510  147.9390 C   0  0  0  0  0  0  0  0  0  0  0  0
  187.6360  177.7790  146.6570 C   0  0  0  0  0  0  0  0  0  0  0  0
  191.9610  178.3110  143.0680 C   0  0  0  0  0  2  0  0  0  0  0  0
  191.4640  175.9940  142.9280 C   0  0  0  0  0  2  0  0  0  0  0  0
  189.9570  176.2450  142.9170 C   0  0  0  0  0  2  0  0  0  0  0  0
  190.4850  178.7020  143.0610 C   0  0  0  0  0  2  0  0  0  0  0  0
  192.1610  177.1000  142.2740 N   0  0  0  0  0  2  0  0  0  0  0  0
  189.6800  177.5590  143.4870 N   0  0  0  0  0  0  0  0  0  0  0  0
  187.8200  177.4820  141.4950 C   0  0  0  0  0  2  0  0  0  0  0  0
  187.8760  178.2470  140.1840 C   0  0  0  0  0  2  0  0  0  0  0  0
  185.5770  178.9130  140.5840 C   0  0  0  0  0  0  0  0  0  0  0  0
  187.0780  178.2780  142.4710 N   0  0  0  0  0  0  0  0  0  0  0  0
  186.5240  178.5800  139.7530 N   0  0  0  0  0  0  0  0  0  0  0  0
  185.8130  178.9100  142.0790 C   0  0  0  0  0  2  0  0  0  0  0  0
  184.2340  179.2180  140.0650 C   0  0  0  0  0  0  0  0  0  0  0  0
  184.0900  180.0770  139.1530 O   0  0  0  0  0  0  0  0  0  0  0  0
  182.9320  177.2460  139.9390 O   0  0  0  0  0  1  0  0  0  0  0  0
  183.0370  178.4810  140.5800 C   0  0  2  0  0  3  0  0  0  0  0  0
  181.8760  179.2270  140.3610 O   0  0  0  0  0  0  0  0  0  0  0  0
  179.9050  177.7880  141.6840 O   0  0  0  0  0  0  0  0  0  0  0  0
  180.1940  180.3630  142.0150 O   0  0  0  0  0  1  0  0  0  0  0  0
  182.0060  178.8500  143.0950 F   0  0  0  0  0  0  0  0  0  0  0  0
  180.9780  179.0900  141.7940 P   0  0  2  0  0  0  0  0  0  0  0  0
  184.0830  178.8870  146.1270 O   0  0  0  0  0  1  0  0  0  0  0  0
  185.1240  178.4100  146.9250 C   0  0  0  0  0  2  0  0  0  0  0  0
  3  5  2  0  0  0  0
  4  8  1  0  0  0  0
  5 10  1  0  0  0  0
  5 33  1  0  0  0  0
  6  4  2  0  0  0  0
  6  3  1  0  0  0  0
  7  2  1  0  0  0  0
  8  7  1  0  0  0  0
  8 10  1  0  0  0  0
  9  2  1  0  0  0  0
  9  1  1  0  0  0  0
 10  9  2  0  0  0  0
 13 12  1  0  0  0  0
 13 16  1  0  0  0  0
 14 11  1  0  0  0  0
 14 16  1  0  0  0  0
 15 12  1  0  0  0  0
 15 11  1  0  0  0  0
 16  4  1  0  0  0  0
 17 20  1  0  0  0  0
 18 17  1  0  0  0  0
 19 22  1  0  0  0  0
 20  6  1  0  0  0  0
 21 18  1  0  0  0  0
 21 19  2  0  0  0  0
 22 20  1  0  0  0  0
 23 26  1  0  0  0  0
 23 19  1  0  0  0  0
 24 23  2  0  0  0  0
 26 25  1  6  0  0  0
 27 26  1  0  0  0  0
 27 31  1  0  0  0  0
 31 28  2  6  0  0  0
 31 29  1  0  0  0  0
 31 30  1  0  0  0  0
 32 33  1  0  0  0  0
M  END
>  <MODEL>
5

>  <REMARK>
 VINA RESULT:      -6.3      3.190      4.566
  Name = 
  7 active torsions:
  status: ('A' for Active; 'I' for Inactive)
    1  A    between atoms: C_10  and  N_33
    2  A    between atoms: C_12  and  C_17
    3  A    between atoms: C_12  and  C_21
    4  A    between atoms: CA_14  and  C_19
    5  A    between atoms: C_18  and  N_26
    6  A    between atoms: P_20  and  O_29
    7  A    between atoms: C_21  and  O_29
                            x       y       z     vdW  Elec       q    Type
                         _______ _______ _______ _____ _____    ______ ____

>  <TORSDO>
F 7

$$$$
=
 OpenBabel11042411093D

 33 36  0  0  1  0  0  0  0  0999 V2000
  194.2100  172.1190  135.9630 N   0  0  0  0  0  1  0  0  0  0  0  0
  191.9170  171.5110  135.0480 C   0  0  0  0  0  2  0  0  0  0  0  0
  192.1210  175.5420  137.5450 N   0  0  0  0  0  0  0  0  0  0  0  0
  190.0940  174.7180  136.5000 C   0  0  0  0  0  0  0  0  0  0  0  0
  192.8580  174.5390  137.1690 C   0  0  0  0  0  0  0  0  0  0  0  0
  190.7170  175.6800  137.2290 C   0  0  0  0  0  0  0  0  0  0  0  0
  190.2470  172.2680  135.0630 S   0  0  0  0  0  0  0  0  0  0  0  0
  190.8490  173.5630  136.0970 N   0  0  0  0  0  0  0  0  0  0  0  0
  192.8170  172.3940  135.8470 C   0  0  0  0  0  0  0  0  0  0  0  0
  192.2290  173.4590  136.3800 C   0  0  0  0  0  0  0  0  0  0  0  0
  186.4950  175.4250  136.9080 C   0  0  0  0  0  2  0  0  0  0  0  0
  187.1930  176.1800  134.7690 C   0  0  0  0  0  2  0  0  0  0  0  0
  188.3880  175.2280  134.7440 C   0  0  0  0  0  2  0  0  0  0  0  0
  187.6440  174.4250  137.0110 C   0  0  0  0  0  2  0  0  0  0  0  0
  186.0890  175.5780  135.5120 N   0  0  0  0  0  2  0  0  0  0  0  0
  188.7190  174.8310  136.1080 N   0  0  0  0  0  0  0  0  0  0  0  0
  189.3120  177.7170  136.8040 C   0  0  0  0  0  2  0  0  0  0  0  0
  189.2420  179.1050  137.4160 C   0  0  0  0  0  2  0  0  0  0  0  0
  188.8210  178.0380  139.5540 C   0  0  0  0  0  0  0  0  0  0  0  0
  190.0170  176.8320  137.7290 N   0  0  0  0  0  0  0  0  0  0  0  0
  188.6210  179.0290  138.7330 N   0  0  0  0  0  0  0  0  0  0  0  0
  189.6740  176.8520  139.1560 C   0  0  0  0  0  2  0  0  0  0  0  0
  188.1400  178.0320  140.8590 C   0  0  0  0  0  0  0  0  0  0  0  0
  187.0610  178.6670  141.0100 O   0  0  0  0  0  0  0  0  0  0  0  0
  187.6660  176.8850  142.8730 O   0  0  0  0  0  1  0  0  0  0  0  0
  188.6960  177.2380  142.0010 C   0  0  2  0  0  3  0  0  0  0  0  0
  189.6610  177.9810  142.6850 O   0  0  0  0  0  0  0  0  0  0  0  0
  190.4390  175.3190  142.7950 O   0  0  0  0  0  0  0  0  0  0  0  0
  191.5640  177.1500  144.2790 O   0  0  0  0  0  1  0  0  0  0  0  0
  192.1400  177.2010  141.7480 F   0  0  0  0  0  0  0  0  0  0  0  0
  190.9660  176.9210  142.9100 P   0  0  2  0  0  0  0  0  0  0  0  0
  194.5790  175.6290  138.3590 O   0  0  0  0  0  1  0  0  0  0  0  0
  194.2840  174.4950  137.6000 C   0  0  0  0  0  2  0  0  0  0  0  0
  2  7  1  0  0  0  0
  2  9  1  0  0  0  0
  4  6  2  0  0  0  0
  5  3  2  0  0  0  0
  5 33  1  0  0  0  0
  6  3  1  0  0  0  0
  6 20  1  0  0  0  0
  7  8  1  0  0  0  0
  8 10  1  0  0  0  0
  8  4  1  0  0  0  0
  9  1  1  0  0  0  0
  9 10  2  0  0  0  0
 10  5  1  0  0  0  0
 11 14  1  0  0  0  0
 12 15  1  0  0  0  0
 13 12  1  0  0  0  0
 13 16  1  0  0  0  0
 15 11  1  0  0  0  0
 16  4  1  0  0  0  0
 16 14  1  0  0  0  0
 17 18  1  0  0  0  0
 17 20  1  0  0  0  0
 18 21  1  0  0  0  0
 19 23  1  0  0  0  0
 20 22  1  0  0  0  0
 21 19  2  0  0  0  0
 22 19  1  0  0  0  0
 23 24  2  0  0  0  0
 23 26  1  0  0  0  0
 26 27  1  0  0  0  0
 26 25  1  1  0  0  0
 27 31  1  0  0  0  0
 28 31  2  0  0  0  0
 31 30  1  6  0  0  0
 31 29  1  0  0  0  0
 33 32  1  0  0  0  0
M  END
>  <MODEL>
6

>  <REMARK>
 VINA RESULT:      -6.2      5.214      9.136
  Name = 
  7 active torsions:
  status: ('A' for Active; 'I' for Inactive)
    1  A    between atoms: C_10  and  N_33
    2  A    between atoms: C_12  and  C_17
    3  A    between atoms: C_12  and  C_21
    4  A    between atoms: CA_14  and  C_19
    5  A    between atoms: C_18  and  N_26
    6  A    between atoms: P_20  and  O_29
    7  A    between atoms: C_21  and  O_29
                            x       y       z     vdW  Elec       q    Type
                         _______ _______ _______ _____ _____    ______ ____

>  <TORSDO>
F 7

$$$$
=
 OpenBabel11042411093D

 33 36  0  0  1  0  0  0  0  0999 V2000
  186.4280  177.6780  144.9630 N   0  0  0  0  0  1  0  0  0  0  0  0
  185.3610  178.4900  142.8010 C   0  0  0  0  0  2  0  0  0  0  0  0
  189.8660  177.0430  142.4420 N   0  0  0  0  0  0  0  0  0  0  0  0
  188.5590  177.8230  140.5560 C   0  0  0  0  0  0  0  0  0  0  0  0
  188.9240  177.2300  143.3190 C   0  0  0  0  0  0  0  0  0  0  0  0
  189.7290  177.3240  141.0310 C   0  0  0  0  0  0  0  0  0  0  0  0
  185.8790  178.6390  141.0490 S   0  0  0  0  0  0  0  0  0  0  0  0
  187.4980  178.0940  141.4860 N   0  0  0  0  0  0  0  0  0  0  0  0
  186.5320  177.9770  143.5730 C   0  0  0  0  0  0  0  0  0  0  0  0
  187.6320  177.7780  142.8570 C   0  0  0  0  0  0  0  0  0  0  0  0
  189.4450  178.7900  137.1060 C   0  0  0  0  0  2  0  0  0  0  0  0
  187.9660  176.9340  137.0330 C   0  0  0  0  0  2  0  0  0  0  0  0
  187.3990  177.2410  138.4170 C   0  0  0  0  0  2  0  0  0  0  0  0
  188.9640  179.2110  138.4930 C   0  0  0  0  0  2  0  0  0  0  0  0
  188.3470  178.1750  136.3610 N   0  0  0  0  0  2  0  0  0  0  0  0
  188.3470  178.0660  139.1580 N   0  0  0  0  0  0  0  0  0  0  0  0
  192.1870  177.5600  140.5750 C   0  0  0  0  0  2  0  0  0  0  0  0
  193.0180  177.7900  139.3240 C   0  0  0  0  0  2  0  0  0  0  0  0
  192.0280  175.7710  138.4110 C   0  0  0  0  0  0  0  0  0  0  0  0
  190.8620  177.0890  140.1770 N   0  0  0  0  0  0  0  0  0  0  0  0
  193.0510  176.5690  138.5270 N   0  0  0  0  0  0  0  0  0  0  0  0
  190.7410  176.0350  139.1630 C   0  0  0  0  0  2  0  0  0  0  0  0
  192.1530  174.5490  137.6000 C   0  0  0  0  0  0  0  0  0  0  0  0
  191.1280  173.8670  137.3260 O   0  0  0  0  0  0  0  0  0  0  0  0
  193.3040  173.3790  135.8960 O   0  0  0  0  0  1  0  0  0  0  0  0
  193.4840  174.1310  137.0570 C   0  0  2  0  0  3  0  0  0  0  0  0
  194.1810  173.3780  138.0050 O   0  0  0  0  0  0  0  0  0  0  0  0
  195.8130  174.9140  139.6430 O   0  0  0  0  0  1  0  0  0  0  0  0
  195.8560  175.1440  137.0410 O   0  0  0  0  0  0  0  0  0  0  0  0
  196.9160  172.9890  138.0270 F   0  0  0  0  0  0  0  0  0  0  0  0
  195.6950  174.1290  138.1500 P   0  0  2  0  0  0  0  0  0  0  0  0
  190.5800  176.7360  144.9250 O   0  0  0  0  0  1  0  0  0  0  0  0
  189.2100  176.9410  144.7520 C   0  0  0  0  0  2  0  0  0  0  0  0
  2  9  1  0  0  0  0
  3  5  2  0  0  0  0
  4  6  2  0  0  0  0
  4  8  1  0  0  0  0
  5 33  1  0  0  0  0
  6  3  1  0  0  0  0
  7  8  1  0  0  0  0
  7  2  1  0  0  0  0
  8 10  1  0  0  0  0
  9  1  1  0  0  0  0
 10  5  1  0  0  0  0
 10  9  2  0  0  0  0
 11 14  1  0  0  0  0
 12 13  1  0  0  0  0
 13 16  1  0  0  0  0
 14 16  1  0  0  0  0
 15 12  1  0  0  0  0
 15 11  1  0  0  0  0
 16  4  1  0  0  0  0
 18 17  1  0  0  0  0
 19 21  2  0  0  0  0
 19 22  1  0  0  0  0
 20 17  1  0  0  0  0
 20  6  1  0  0  0  0
 21 18  1  0  0  0  0
 22 20  1  0  0  0  0
 23 19  1  0  0  0  0
 24 23  2  0  0  0  0
 26 25  1  6  0  0  0
 26 23  1  0  0  0  0
 26 27  1  0  0  0  0
 27 31  1  0  0  0  0
 30 31  1  0  0  0  0
 31 29  2  6  0  0  0
 31 28  1  0  0  0  0
 33 32  1  0  0  0  0
M  END
>  <MODEL>
7

>  <REMARK>
 VINA RESULT:      -6.1      4.491      6.282
  Name = 
  7 active torsions:
  status: ('A' for Active; 'I' for Inactive)
    1  A    between atoms: C_10  and  N_33
    2  A    between atoms: C_12  and  C_17
    3  A    between atoms: C_12  and  C_21
    4  A    between atoms: CA_14  and  C_19
    5  A    between atoms: C_18  and  N_26
    6  A    between atoms: P_20  and  O_29
    7  A    between atoms: C_21  and  O_29
                            x       y       z     vdW  Elec       q    Type
                         _______ _______ _______ _____ _____    ______ ____

>  <TORSDO>
F 7

$$$$
=
 OpenBabel11042411093D

 33 36  0  0  1  0  0  0  0  0999 V2000
  184.6230  178.6000  146.9320 N   0  0  0  0  0  1  0  0  0  0  0  0
  187.0160  177.7880  147.2230 C   0  0  0  0  0  2  0  0  0  0  0  0
  185.6560  178.5890  142.7470 N   0  0  0  0  0  0  0  0  0  0  0  0
  187.8860  177.8590  143.3560 C   0  0  0  0  0  0  0  0  0  0  0  0
  185.2010  178.5920  143.9660 C   0  0  0  0  0  0  0  0  0  0  0  0
  187.0090  178.2290  142.3870 C   0  0  0  0  0  0  0  0  0  0  0  0
  188.4380  177.4470  146.1160 S   0  0  0  0  0  0  0  0  0  0  0  0
  187.4250  177.8000  144.7160 N   0  0  0  0  0  0  0  0  0  0  0  0
  185.8650  178.1920  146.3630 C   0  0  0  0  0  0  0  0  0  0  0  0
  186.1110  178.1910  145.0580 C   0  0  0  0  0  0  0  0  0  0  0  0
  191.5580  178.1050  143.6410 C   0  0  0  0  0  2  0  0  0  0  0  0
  190.9550  175.8260  143.3610 C   0  0  0  0  0  2  0  0  0  0  0  0
  189.6250  176.1850  142.7000 C   0  0  0  0  0  2  0  0  0  0  0  0
  190.2670  178.6020  142.9950 C   0  0  0  0  0  2  0  0  0  0  0  0
  191.9620  176.8350  143.0400 N   0  0  0  0  0  2  0  0  0  0  0  0
  189.2560  177.5490  143.0640 N   0  0  0  0  0  0  0  0  0  0  0  0
  188.7080  177.8250  140.5830 C   0  0  0  0  0  2  0  0  0  0  0  0
  189.0570  178.5210  139.2790 C   0  0  0  0  0  2  0  0  0  0  0  0
  186.7610  178.1590  138.5800 C   0  0  0  0  0  0  0  0  0  0  0  0
  187.3710  178.2490  140.9960 N   0  0  0  0  0  0  0  0  0  0  0  0
  188.0270  178.2440  138.2850 N   0  0  0  0  0  0  0  0  0  0  0  0
  186.2830  178.2800  140.0110 C   0  0  0  0  0  2  0  0  0  0  0  0
  185.7890  177.8590  137.5170 C   0  0  0  0  0  0  0  0  0  0  0  0
  186.1230  177.9760  136.3060 O   0  0  0  0  0  0  0  0  0  0  0  0
  183.9340  176.5600  136.8310 O   0  0  0  0  0  1  0  0  0  0  0  0
  184.4160  177.3710  137.8600 C   0  0  2  0  0  3  0  0  0  0  0  0
  183.5510  178.4500  138.0560 O   0  0  0  0  0  0  0  0  0  0  0  0
  181.6590  179.1950  139.9460 O   0  0  0  0  0  0  0  0  0  0  0  0
  183.0270  176.9800  140.1570 O   0  0  0  0  0  1  0  0  0  0  0  0
  181.1940  177.0330  138.3190 F   0  0  0  0  0  0  0  0  0  0  0  0
  182.3750  177.8910  139.1420 P   0  0  2  0  0  0  0  0  0  0  0  0
  183.0710  178.8690  142.9900 O   0  0  0  0  0  1  0  0  0  0  0  0
  183.7710  178.9410  144.1960 C   0  0  0  0  0  2  0  0  0  0  0  0
  3  5  2  0  0  0  0
  4  8  1  0  0  0  0
  5 33  1  0  0  0  0
  5 10  1  0  0  0  0
  6  3  1  0  0  0  0
  6  4  2  0  0  0  0
  7  2  1  0  0  0  0
  8 10  1  0  0  0  0
  8  7  1  0  0  0  0
  9  1  1  0  0  0  0
  9  2  1  0  0  0  0
 10  9  2  0  0  0  0
 13 16  1  0  0  0  0
 13 12  1  0  0  0  0
 14 16  1  0  0  0  0
 14 11  1  0  0  0  0
 15 12  1  0  0  0  0
 15 11  1  0  0  0  0
 16  4  1  0  0  0  0
 17 20  1  0  0  0  0
 18 17  1  0  0  0  0
 19 22  1  0  0  0  0
 20  6  1  0  0  0  0
 21 19  2  0  0  0  0
 21 18  1  0  0  0  0
 22 20  1  0  0  0  0
 23 26  1  0  0  0  0
 23 19  1  0  0  0  0
 24 23  2  0  0  0  0
 26 25  1  6  0  0  0
 26 27  1  0  0  0  0
 27 31  1  0  0  0  0
 31 30  1  6  0  0  0
 31 28  2  0  0  0  0
 31 29  1  0  0  0  0
 32 33  1  0  0  0  0
M  END
>  <MODEL>
8

>  <REMARK>
 VINA RESULT:      -6.1      2.043      2.946
  Name = 
  7 active torsions:
  status: ('A' for Active; 'I' for Inactive)
    1  A    between atoms: C_10  and  N_33
    2  A    between atoms: C_12  and  C_17
    3  A    between atoms: C_12  and  C_21
    4  A    between atoms: CA_14  and  C_19
    5  A    between atoms: C_18  and  N_26
    6  A    between atoms: P_20  and  O_29
    7  A    between atoms: C_21  and  O_29
                            x       y       z     vdW  Elec       q    Type
                         _______ _______ _______ _____ _____    ______ ____

>  <TORSDO>
F 7

$$$$
=
 OpenBabel11042411093D

 33 36  0  0  1  0  0  0  0  0999 V2000
  187.1750  177.8610  148.8980 N   0  0  0  0  0  1  0  0  0  0  0  0
  189.4600  177.2460  147.9640 C   0  0  0  0  0  2  0  0  0  0  0  0
  186.1420  178.2910  144.7350 N   0  0  0  0  0  0  0  0  0  0  0  0
  188.4280  177.7170  144.1660 C   0  0  0  0  0  0  0  0  0  0  0  0
  186.3060  178.1520  146.0180 C   0  0  0  0  0  0  0  0  0  0  0  0
  187.1860  178.0850  143.7560 C   0  0  0  0  0  0  0  0  0  0  0  0
  190.2160  177.1280  146.2980 S   0  0  0  0  0  0  0  0  0  0  0  0
  188.6550  177.5030  145.5690 N   0  0  0  0  0  0  0  0  0  0  0  0
  188.0250  177.6150  147.7800 C   0  0  0  0  0  0  0  0  0  0  0  0
  187.6360  177.7440  146.5170 C   0  0  0  0  0  0  0  0  0  0  0  0
  191.7970  178.2690  142.7620 C   0  0  0  0  0  2  0  0  0  0  0  0
  191.2280  175.9760  142.5300 C   0  0  0  0  0  2  0  0  0  0  0  0
  189.7300  176.2660  142.5980 C   0  0  0  0  0  2  0  0  0  0  0  0
  190.3330  178.6990  142.8410 C   0  0  0  0  0  2  0  0  0  0  0  0
  191.9270  177.0950  141.9010 N   0  0  0  0  0  2  0  0  0  0  0  0
  189.5160  177.5560  143.2450 N   0  0  0  0  0  0  0  0  0  0  0  0
  185.7380  179.1070  141.9780 C   0  0  0  0  0  2  0  0  0  0  0  0
  185.2020  178.6280  140.6400 C   0  0  0  0  0  2  0  0  0  0  0  0
  187.5020  178.2610  139.9570 C   0  0  0  0  0  0  0  0  0  0  0  0
  186.8580  178.2530  142.3660 N   0  0  0  0  0  0  0  0  0  0  0  0
  186.2820  178.6060  139.6600 N   0  0  0  0  0  0  0  0  0  0  0  0
  187.8930  177.9210  141.3800 C   0  0  0  0  0  2  0  0  0  0  0  0
  188.5360  178.2830  138.9100 C   0  0  0  0  0  0  0  0  0  0  0  0
  189.0550  179.3780  138.5600 O   0  0  0  0  0  0  0  0  0  0  0  0
  187.9340  176.1350  138.1210 O   0  0  0  0  0  1  0  0  0  0  0  0
  189.0100  177.0080  138.2850 C   0  0  2  0  0  3  0  0  0  0  0  0
  189.9870  176.4090  139.0840 O   0  0  0  0  0  0  0  0  0  0  0  0
  191.5460  174.4010  137.9690 O   0  0  0  0  0  0  0  0  0  0  0  0
  192.5250  176.7530  138.5440 O   0  0  0  0  0  1  0  0  0  0  0  0
  190.9320  176.6370  136.4980 F   0  0  0  0  0  0  0  0  0  0  0  0
  191.2770  176.0690  138.0370 P   0  0  2  0  0  0  0  0  0  0  0  0
  184.0560  178.8420  146.1790 O   0  0  0  0  0  1  0  0  0  0  0  0
  185.1340  178.3500  146.9160 C   0  0  0  0  0  2  0  0  0  0  0  0
  3  5  2  0  0  0  0
  4  8  1  0  0  0  0
  5 10  1  0  0  0  0
  5 33  1  0  0  0  0
  6  4  2  0  0  0  0
  6  3  1  0  0  0  0
  7  2  1  0  0  0  0
  8  7  1  0  0  0  0
  8 10  1  0  0  0  0
  9  2  1  0  0  0  0
  9  1  1  0  0  0  0
 10  9  2  0  0  0  0
 11 14  1  0  0  0  0
 12 13  1  0  0  0  0
 13 16  1  0  0  0  0
 14 16  1  0  0  0  0
 15 12  1  0  0  0  0
 15 11  1  0  0  0  0
 16  4  1  0  0  0  0
 17 20  1  0  0  0  0
 18 17  1  0  0  0  0
 19 22  1  0  0  0  0
 20  6  1  0  0  0  0
 21 19  2  0  0  0  0
 21 18  1  0  0  0  0
 22 20  1  0  0  0  0
 23 19  1  0  0  0  0
 24 23  2  0  0  0  0
 26 25  1  1  0  0  0
 26 23  1  0  0  0  0
 26 27  1  0  0  0  0
 28 31  2  0  0  0  0
 31 30  1  6  0  0  0
 31 29  1  0  0  0  0
 31 27  1  0  0  0  0
 32 33  1  0  0  0  0
M  END
>  <MODEL>
9

>  <REMARK>
 VINA RESULT:      -6.1      2.630      3.697
  Name = 
  7 active torsions:
  status: ('A' for Active; 'I' for Inactive)
    1  A    between atoms: C_10  and  N_33
    2  A    between atoms: C_12  and  C_17
    3  A    between atoms: C_12  and  C_21
    4  A    between atoms: CA_14  and  C_19
    5  A    between atoms: C_18  and  N_26
    6  A    between atoms: P_20  and  O_29
    7  A    between atoms: C_21  and  O_29
                            x       y       z     vdW  Elec       q    Type
                         _______ _______ _______ _____ _____    ______ ____

>  <TORSDO>
F 7

$$$$
