=
 OpenBabel11042410373D

 44 46  0  0  1  0  0  0  0  0999 V2000
  186.8230  175.6800  136.5970 C   0  0  0  0  0  0  0  0  0  0  0  0
  188.0460  175.7290  135.9080 C   0  0  0  0  0  0  0  0  0  0  0  0
  187.4580  177.7410  137.8710 N   0  0  0  0  0  0  0  0  0  0  0  0
  187.5840  173.6540  134.9050 N   0  0  0  0  0  0  0  0  0  0  0  0
  185.5090  172.3840  135.3170 C   0  0  0  0  0  1  0  0  0  0  0  0
  189.0140  176.8450  136.1350 C   0  0  0  0  0  2  0  0  0  0  0  0
  188.2980  178.0700  136.7050 C   0  0  2  0  0  3  0  0  0  0  0  0
  189.2910  179.1770  137.0260 C   0  0  0  0  0  1  0  0  0  0  0  0
  186.3860  176.7960  137.5160 C   0  0  1  0  0  3  0  0  0  0  0  0
  185.9880  174.5790  136.4030 C   0  0  0  0  0  3  0  0  0  0  0  0
  186.3870  173.5620  135.5410 C   0  0  0  0  0  0  0  0  0  0  0  0
  188.3900  174.7010  135.0880 N   0  0  0  0  0  0  0  0  0  0  0  0
  185.1860  177.5460  136.9490 C   0  0  0  0  0  2  0  0  0  0  0  0
  183.9270  177.1750  137.7170 C   0  0  0  0  0  2  0  0  0  0  0  0
  184.1360  179.2600  139.1570 C   0  0  0  0  0  2  0  0  0  0  0  0
  182.1540  177.3790  140.0150 C   0  0  0  0  0  2  0  0  0  0  0  0
  184.1280  178.7400  140.5620 C   0  0  0  0  0  0  0  0  0  0  0  0
  185.1910  178.9030  141.2960 N   0  0  0  0  0  0  0  0  0  0  0  0
  182.8420  178.1910  141.1040 C   0  0  0  0  0  2  0  0  0  0  0  0
  181.9620  178.1590  138.8550 O   0  0  0  0  0  0  0  0  0  0  0  0
  183.2200  178.4240  138.2540 C   0  0  2  0  0  3  0  0  0  0  0  0
  185.3640  178.5220  142.6690 C   0  0  0  0  0  0  0  0  0  0  0  0
  185.9420  177.4480  142.9920 O   0  0  0  0  0  0  0  0  0  0  0  0
  184.8800  179.4380  143.7410 C   0  0  0  0  0  2  0  0  0  0  0  0
  184.3390  179.1260  146.0970 N   0  0  0  0  0  1  0  0  0  0  0  0
  184.0240  178.6860  144.7480 C   0  0  1  0  0  3  0  0  0  0  0  0
  182.5620  178.9590  144.4620 C   0  0  0  0  0  1  0  0  0  0  0  0
  188.2430  177.1720  138.9670 C   0  0  0  0  0  2  0  0  0  0  0  0
  188.2110  178.0430  140.0590 O   0  0  0  0  0  0  0  0  0  0  0  0
  189.4110  177.8270  140.7420 C   0  0  1  0  0  3  0  0  0  0  0  0
  189.1730  176.9320  141.9520 C   0  0  0  0  0  2  0  0  0  0  0  0
  189.3170  177.7330  143.2410 C   0  0  0  0  0  2  0  0  0  0  0  0
  190.7690  178.0520  143.5960 C   0  0  1  0  0  3  0  0  0  0  0  0
  190.9570  179.5100  143.9780 C   0  0  0  0  0  1  0  0  0  0  0  0
  191.2820  177.1690  144.6480 C   0  0  0  0  0  0  0  0  0  0  0  0
  191.6920  176.4740  145.4790 N   0  0  0  0  0  0  0  0  0  0  0  0
  190.4320  177.1950  139.8030 C   0  0  0  0  0  2  0  0  0  0  0  0
  191.7780  177.3170  140.3500 N   0  0  0  0  0  2  0  0  0  0  0  0
  192.7190  177.1250  139.2570 C   0  0  0  0  0  2  0  0  0  0  0  0
  192.1160  176.2710  138.1930 C   0  0  0  0  0  3  0  0  0  0  0  0
  192.7180  175.2000  137.7830 N   0  0  0  0  0  0  0  0  0  0  0  0
  190.8670  173.6920  136.9790 C   0  0  0  0  0  1  0  0  0  0  0  0
  192.1710  174.3700  136.7560 C   0  0  0  0  0  0  0  0  0  0  0  0
  192.7800  174.1990  135.6650 O   0  0  0  0  0  0  0  0  0  0  0  0
  1  9  1  0  0  0  0
  2  6  1  0  0  0  0
  2  1  2  0  0  0  0
  3 28  1  0  0  0  0
  4 12  2  0  0  0  0
  4 11  1  0  0  0  0
  5 11  1  0  0  0  0
  6  7  1  0  0  0  0
  7  8  1  1  0  0  0
  7  3  1  0  0  0  0
  9 13  1  6  0  0  0
  9  3  1  0  0  0  0
 10  1  1  0  0  0  0
 11 10  2  0  0  0  0
 12  2  1  0  0  0  0
 13 14  1  0  0  0  0
 15 17  1  0  0  0  0
 16 19  1  0  0  0  0
 17 19  1  0  0  0  0
 17 18  2  0  0  0  0
 18 22  1  0  0  0  0
 20 16  1  0  0  0  0
 21 14  1  1  0  0  0
 21 20  1  0  0  0  0
 21 15  1  0  0  0  0
 22 23  2  0  0  0  0
 22 24  1  0  0  0  0
 24 26  1  0  0  0  0
 26 27  1  6  0  0  0
 26 25  1  0  0  0  0
 28 29  1  0  0  0  0
 29 30  1  0  0  0  0
 30 37  1  6  0  0  0
 30 31  1  0  0  0  0
 31 32  1  0  0  0  0
 32 33  1  0  0  0  0
 33 34  1  1  0  0  0
 33 35  1  0  0  0  0
 35 36  3  0  0  0  0
 37 38  1  0  0  0  0
 39 38  1  0  0  0  0
 40 39  1  0  0  0  0
 41 40  2  0  0  0  0
 43 42  1  0  0  0  0
 43 41  1  0  0  0  0
 44 43  2  0  0  0  0
M  END
>  <MODEL>
1

>  <REMARK>
 VINA RESULT:      -6.2      0.000      0.000
  Name = 
  18 active torsions:
  status: ('A' for Active; 'I' for Inactive)
    1  A    between atoms: C_1  and  C_4
    2  A    between atoms: C_2  and  C_44
    3  A    between atoms: C_4  and  C_18
    4  A    between atoms: C_8  and  C_27
    5  A    between atoms: C_8  and  N_28
    6  A    between atoms: N_9  and  C_42
    7  A    between atoms: C_11  and  C_29
    8  A    between atoms: C_11  and  C_43
    9  A    between atoms: C_12  and  C_18
   10  A    between atoms: C_12  and  C_19
   11  A    between atoms: C_17  and  N_22
   12  A    between atoms: C_19  and  C_25
   13  A    between atoms: C_19  and  O_36
   14  A    between atoms: C_24  and  C_29
   15  A    between atoms: C_25  and  N_30
   16  A    between atoms: C_27  and  C_32
   17  A    between atoms: N_30  and  C_44
   18  A    between atoms: O_36  and  C_42
                            x       y       z     vdW  Elec       q    Type
                         _______ _______ _______ _____ _____    ______ ____

>  <TORSDO>
F 18

$$$$
=
 OpenBabel11042410373D

 44 46  0  0  1  0  0  0  0  0999 V2000
  185.5640  174.4610  136.4330 C   0  0  0  0  0  0  0  0  0  0  0  0
  186.4240  174.0740  135.3920 C   0  0  0  0  0  0  0  0  0  0  0  0
  186.8600  176.5870  136.7140 N   0  0  0  0  0  0  0  0  0  0  0  0
  185.3910  171.9650  135.2980 N   0  0  0  0  0  0  0  0  0  0  0  0
  183.5120  171.3140  136.7580 C   0  0  0  0  0  1  0  0  0  0  0  0
  187.5190  174.9770  134.9220 C   0  0  0  0  0  2  0  0  0  0  0  0
  187.2160  176.4290  135.2920 C   0  0  2  0  0  3  0  0  0  0  0  0
  188.3680  177.3400  134.9000 C   0  0  0  0  0  1  0  0  0  0  0  0
  185.6380  175.8370  137.0530 C   0  0  1  0  0  3  0  0  0  0  0  0
  184.6050  173.5530  136.8830 C   0  0  0  0  0  3  0  0  0  0  0  0
  184.5290  172.2930  136.2960 C   0  0  0  0  0  0  0  0  0  0  0  0
  186.3130  172.8270  134.8640 N   0  0  0  0  0  0  0  0  0  0  0  0
  184.4010  176.6640  136.7220 C   0  0  0  0  0  2  0  0  0  0  0  0
  183.5060  176.7760  137.9470 C   0  0  0  0  0  2  0  0  0  0  0  0
  184.3550  178.9520  138.9520 C   0  0  0  0  0  2  0  0  0  0  0  0
  182.0460  177.8370  140.2290 C   0  0  0  0  0  2  0  0  0  0  0  0
  184.3380  178.7070  140.4300 C   0  0  0  0  0  0  0  0  0  0  0  0
  185.4670  178.7110  141.0780 N   0  0  0  0  0  0  0  0  0  0  0  0
  183.0070  178.6180  141.1150 C   0  0  0  0  0  2  0  0  0  0  0  0
  181.9560  178.4240  138.9490 O   0  0  0  0  0  0  0  0  0  0  0  0
  183.1840  178.2410  138.2610 C   0  0  2  0  0  3  0  0  0  0  0  0
  185.6570  178.5440  142.4910 C   0  0  0  0  0  0  0  0  0  0  0  0
  186.4110  177.6470  142.9570 O   0  0  0  0  0  0  0  0  0  0  0  0
  184.9710  179.4790  143.4280 C   0  0  0  0  0  2  0  0  0  0  0  0
  185.0580  179.2670  145.8550 N   0  0  0  0  0  1  0  0  0  0  0  0
  184.4490  178.7340  144.6470 C   0  0  1  0  0  3  0  0  0  0  0  0
  182.9460  178.9050  144.7290 C   0  0  0  0  0  1  0  0  0  0  0  0
  187.9410  176.1500  137.5990 C   0  0  0  0  0  2  0  0  0  0  0  0
  188.2070  177.1550  138.5330 O   0  0  0  0  0  0  0  0  0  0  0  0
  189.4850  176.8760  139.0240 C   0  0  1  0  0  3  0  0  0  0  0  0
  190.5250  177.0750  137.9290 C   0  0  0  0  0  2  0  0  0  0  0  0
  191.8090  176.3280  138.2730 C   0  0  0  0  0  2  0  0  0  0  0  0
  192.1310  175.1970  137.2960 C   0  0  1  0  0  3  0  0  0  0  0  0
  193.4440  174.5100  137.6300 C   0  0  0  0  0  1  0  0  0  0  0  0
  191.0410  174.2210  137.2120 C   0  0  0  0  0  0  0  0  0  0  0  0
  190.1760  173.4530  137.1490 N   0  0  0  0  0  0  0  0  0  0  0  0
  189.7880  177.7760  140.2160 C   0  0  0  0  0  2  0  0  0  0  0  0
  189.4290  177.1140  141.4650 N   0  0  0  0  0  2  0  0  0  0  0  0
  189.7990  178.0010  142.5580 C   0  0  0  0  0  2  0  0  0  0  0  0
  190.0180  177.2220  143.8110 C   0  0  0  0  0  3  0  0  0  0  0  0
  189.9210  177.7920  144.9700 N   0  0  0  0  0  0  0  0  0  0  0  0
  191.5050  176.5880  146.5170 C   0  0  0  0  0  1  0  0  0  0  0  0
  190.1390  177.0740  146.1870 C   0  0  0  0  0  0  0  0  0  0  0  0
  189.1900  176.8420  146.9830 O   0  0  0  0  0  0  0  0  0  0  0  0
  1 10  1  0  0  0  0
  1  9  1  0  0  0  0
  2  1  2  0  0  0  0
  3  9  1  0  0  0  0
  3 28  1  0  0  0  0
  4 11  1  0  0  0  0
  6  7  1  0  0  0  0
  6  2  1  0  0  0  0
  7  8  1  1  0  0  0
  7  3  1  0  0  0  0
  9 13  1  6  0  0  0
 11  5  1  0  0  0  0
 11 10  2  0  0  0  0
 12  4  2  0  0  0  0
 12  2  1  0  0  0  0
 13 14  1  0  0  0  0
 15 17  1  0  0  0  0
 16 19  1  0  0  0  0
 17 18  2  0  0  0  0
 17 19  1  0  0  0  0
 18 22  1  0  0  0  0
 20 16  1  0  0  0  0
 21 14  1  1  0  0  0
 21 20  1  0  0  0  0
 21 15  1  0  0  0  0
 22 23  2  0  0  0  0
 22 24  1  0  0  0  0
 24 26  1  0  0  0  0
 26 27  1  1  0  0  0
 26 25  1  0  0  0  0
 28 29  1  0  0  0  0
 29 30  1  0  0  0  0
 30 31  1  6  0  0  0
 30 37  1  0  0  0  0
 31 32  1  0  0  0  0
 33 34  1  1  0  0  0
 33 32  1  0  0  0  0
 35 33  1  0  0  0  0
 36 35  3  0  0  0  0
 37 38  1  0  0  0  0
 38 39  1  0  0  0  0
 39 40  1  0  0  0  0
 40 41  2  0  0  0  0
 41 43  1  0  0  0  0
 43 42  1  0  0  0  0
 43 44  2  0  0  0  0
M  END
>  <MODEL>
2

>  <REMARK>
 VINA RESULT:      -6.1      1.646      4.465
  Name = 
  18 active torsions:
  status: ('A' for Active; 'I' for Inactive)
    1  A    between atoms: C_1  and  C_4
    2  A    between atoms: C_2  and  C_44
    3  A    between atoms: C_4  and  C_18
    4  A    between atoms: C_8  and  C_27
    5  A    between atoms: C_8  and  N_28
    6  A    between atoms: N_9  and  C_42
    7  A    between atoms: C_11  and  C_29
    8  A    between atoms: C_11  and  C_43
    9  A    between atoms: C_12  and  C_18
   10  A    between atoms: C_12  and  C_19
   11  A    between atoms: C_17  and  N_22
   12  A    between atoms: C_19  and  C_25
   13  A    between atoms: C_19  and  O_36
   14  A    between atoms: C_24  and  C_29
   15  A    between atoms: C_25  and  N_30
   16  A    between atoms: C_27  and  C_32
   17  A    between atoms: N_30  and  C_44
   18  A    between atoms: O_36  and  C_42
                            x       y       z     vdW  Elec       q    Type
                         _______ _______ _______ _____ _____    ______ ____

>  <TORSDO>
F 18

$$$$
=
 OpenBabel11042410373D

 44 46  0  0  1  0  0  0  0  0999 V2000
  186.9690  178.1650  139.3430 C   0  0  0  0  0  0  0  0  0  0  0  0
  186.3960  178.6920  138.1740 C   0  0  0  0  0  0  0  0  0  0  0  0
  188.7740  177.0930  137.9760 N   0  0  0  0  0  0  0  0  0  0  0  0
  184.5540  179.4720  139.4090 N   0  0  0  0  0  0  0  0  0  0  0  0
  184.3350  179.1720  141.8480 C   0  0  0  0  0  1  0  0  0  0  0  0
  187.0390  178.4860  136.8410 C   0  0  0  0  0  2  0  0  0  0  0  0
  188.5260  178.1740  137.0030 C   0  0  2  0  0  3  0  0  0  0  0  0
  189.1670  177.8720  135.6580 C   0  0  0  0  0  1  0  0  0  0  0  0
  188.3050  177.4600  139.3230 C   0  0  1  0  0  3  0  0  0  0  0  0
  186.2920  178.3220  140.5530 C   0  0  0  0  0  3  0  0  0  0  0  0
  185.0700  178.9890  140.5690 C   0  0  0  0  0  0  0  0  0  0  0  0
  185.1940  179.3220  138.2480 N   0  0  0  0  0  0  0  0  0  0  0  0
  189.3720  178.2680  140.0520 C   0  0  0  0  0  2  0  0  0  0  0  0
  189.1590  178.1780  141.5560 C   0  0  0  0  0  2  0  0  0  0  0  0
  189.4100  176.3240  143.2780 C   0  0  0  0  0  2  0  0  0  0  0  0
  191.1050  178.5990  143.6770 C   0  0  0  0  0  2  0  0  0  0  0  0
  189.4340  177.0430  144.5930 C   0  0  0  0  0  0  0  0  0  0  0  0
  188.4710  176.8270  145.4410 N   0  0  0  0  0  0  0  0  0  0  0  0
  190.6460  177.8610  144.9280 C   0  0  0  0  0  2  0  0  0  0  0  0
  191.3390  177.6940  142.6200 O   0  0  0  0  0  0  0  0  0  0  0  0
  190.1030  177.1490  142.1850 C   0  0  2  0  0  3  0  0  0  0  0  0
  188.3370  177.3780  146.7600 C   0  0  0  0  0  0  0  0  0  0  0  0
  189.1370  177.0800  147.6880 O   0  0  0  0  0  0  0  0  0  0  0  0
  187.2430  178.3550  147.0280 C   0  0  0  0  0  2  0  0  0  0  0  0
  184.8070  178.3870  147.1070 N   0  0  0  0  0  1  0  0  0  0  0  0
  185.9560  177.9250  146.3440 C   0  0  1  0  0  3  0  0  0  0  0  0
  185.9060  178.5240  144.9530 C   0  0  0  0  0  1  0  0  0  0  0  0
  188.1280  175.8420  137.5770 C   0  0  0  0  0  2  0  0  0  0  0  0
  189.1020  174.8550  137.4020 O   0  0  0  0  0  0  0  0  0  0  0  0
  188.5160  173.8980  136.5700 C   0  0  1  0  0  3  0  0  0  0  0  0
  186.9970  173.9970  136.6440 C   0  0  0  0  0  2  0  0  0  0  0  0
  186.4190  172.7730  137.3450 C   0  0  0  0  0  2  0  0  0  0  0  0
  184.9510  172.9380  137.7380 C   0  0  1  0  0  3  0  0  0  0  0  0
  184.4270  174.3290  137.4220 C   0  0  0  0  0  1  0  0  0  0  0  0
  184.1020  171.9120  137.1230 C   0  0  0  0  0  0  0  0  0  0  0  0
  183.4370  171.0980  136.6360 N   0  0  0  0  0  0  0  0  0  0  0  0
  188.9940  174.0980  135.1370 C   0  0  0  0  0  2  0  0  0  0  0  0
  190.4380  174.2970  135.1000 N   0  0  0  0  0  2  0  0  0  0  0  0
  191.0610  173.1350  135.7160 C   0  0  0  0  0  2  0  0  0  0  0  0
  192.4170  173.4810  136.2310 C   0  0  0  0  0  3  0  0  0  0  0  0
  192.5550  174.2080  137.2940 N   0  0  0  0  0  0  0  0  0  0  0  0
  194.8060  173.4990  138.1780 C   0  0  0  0  0  1  0  0  0  0  0  0
  193.8420  174.5670  137.8040 C   0  0  0  0  0  0  0  0  0  0  0  0
  194.1700  175.7760  137.9460 O   0  0  0  0  0  0  0  0  0  0  0  0
  1 10  1  0  0  0  0
  2 12  1  0  0  0  0
  2  1  2  0  0  0  0
  3  9  1  0  0  0  0
  4 11  1  0  0  0  0
  6  7  1  0  0  0  0
  6  2  1  0  0  0  0
  7  8  1  6  0  0  0
  7  3  1  0  0  0  0
  9  1  1  0  0  0  0
  9 13  1  6  0  0  0
 10 11  2  0  0  0  0
 11  5  1  0  0  0  0
 12  4  2  0  0  0  0
 13 14  1  0  0  0  0
 15 17  1  0  0  0  0
 16 19  1  0  0  0  0
 17 19  1  0  0  0  0
 17 18  2  0  0  0  0
 18 22  1  0  0  0  0
 20 16  1  0  0  0  0
 21 14  1  1  0  0  0
 21 20  1  0  0  0  0
 21 15  1  0  0  0  0
 22 24  1  0  0  0  0
 22 23  2  0  0  0  0
 26 27  1  6  0  0  0
 26 24  1  0  0  0  0
 26 25  1  0  0  0  0
 28  3  1  0  0  0  0
 29 28  1  0  0  0  0
 30 37  1  6  0  0  0
 30 31  1  0  0  0  0
 30 29  1  0  0  0  0
 31 32  1  0  0  0  0
 32 33  1  0  0  0  0
 33 34  1  6  0  0  0
 35 33  1  0  0  0  0
 36 35  3  0  0  0  0
 38 37  1  0  0  0  0
 38 39  1  0  0  0  0
 39 40  1  0  0  0  0
 40 41  2  0  0  0  0
 41 43  1  0  0  0  0
 43 44  2  0  0  0  0
 43 42  1  0  0  0  0
M  END
>  <MODEL>
3

>  <REMARK>
 VINA RESULT:      -6.0      2.500      6.398
  Name = 
  18 active torsions:
  status: ('A' for Active; 'I' for Inactive)
    1  A    between atoms: C_1  and  C_4
    2  A    between atoms: C_2  and  C_44
    3  A    between atoms: C_4  and  C_18
    4  A    between atoms: C_8  and  C_27
    5  A    between atoms: C_8  and  N_28
    6  A    between atoms: N_9  and  C_42
    7  A    between atoms: C_11  and  C_29
    8  A    between atoms: C_11  and  C_43
    9  A    between atoms: C_12  and  C_18
   10  A    between atoms: C_12  and  C_19
   11  A    between atoms: C_17  and  N_22
   12  A    between atoms: C_19  and  C_25
   13  A    between atoms: C_19  and  O_36
   14  A    between atoms: C_24  and  C_29
   15  A    between atoms: C_25  and  N_30
   16  A    between atoms: C_27  and  C_32
   17  A    between atoms: N_30  and  C_44
   18  A    between atoms: O_36  and  C_42
                            x       y       z     vdW  Elec       q    Type
                         _______ _______ _______ _____ _____    ______ ____

>  <TORSDO>
F 18

$$$$
=
 OpenBabel11042410373D

 44 46  0  0  1  0  0  0  0  0999 V2000
  187.0290  175.9860  137.3030 C   0  0  0  0  0  0  0  0  0  0  0  0
  188.2570  176.0770  136.6270 C   0  0  0  0  0  0  0  0  0  0  0  0
  187.4130  178.2480  138.3070 N   0  0  0  0  0  0  0  0  0  0  0  0
  188.0390  173.8530  135.8950 N   0  0  0  0  0  0  0  0  0  0  0  0
  186.0980  172.4330  136.4440 C   0  0  0  0  0  1  0  0  0  0  0  0
  189.0970  177.3090  136.7200 C   0  0  0  0  0  2  0  0  0  0  0  0
  188.2440  178.5130  137.1190 C   0  0  2  0  0  3  0  0  0  0  0  0
  189.1070  179.7510  137.3060 C   0  0  0  0  0  1  0  0  0  0  0  0
  186.4540  177.1570  138.0640 C   0  0  1  0  0  3  0  0  0  0  0  0
  186.3170  174.7870  137.2430 C   0  0  0  0  0  3  0  0  0  0  0  0
  186.8420  173.7160  136.5240 C   0  0  0  0  0  0  0  0  0  0  0  0
  188.7270  174.9950  135.9510 N   0  0  0  0  0  0  0  0  0  0  0  0
  185.1980  177.6960  137.3910 C   0  0  0  0  0  2  0  0  0  0  0  0
  184.1110  177.9340  138.4290 C   0  0  0  0  0  2  0  0  0  0  0  0
  182.0790  178.4680  136.9940 C   0  0  0  0  0  2  0  0  0  0  0  0
  181.5390  178.0850  139.7820 C   0  0  0  0  0  2  0  0  0  0  0  0
  181.3340  179.5020  137.7810 C   0  0  0  0  0  0  0  0  0  0  0  0
  181.2040  180.6960  137.2800 N   0  0  0  0  0  0  0  0  0  0  0  0
  180.6430  179.0680  139.0400 C   0  0  0  0  0  2  0  0  0  0  0  0
  181.8820  176.9960  138.9510 O   0  0  0  0  0  0  0  0  0  0  0  0
  182.7500  177.4450  137.9220 C   0  0  2  0  0  3  0  0  0  0  0  0
  180.4920  181.8040  137.8510 C   0  0  0  0  0  0  0  0  0  0  0  0
  180.3610  181.9380  139.0980 O   0  0  0  0  0  0  0  0  0  0  0  0
  179.9240  182.8430  136.9440 C   0  0  0  0  0  2  0  0  0  0  0  0
  180.5340  184.2800  135.0730 N   0  0  0  0  0  1  0  0  0  0  0  0
  181.0310  183.6480  136.2840 C   0  0  1  0  0  3  0  0  0  0  0  0
  181.5110  184.7170  137.2440 C   0  0  0  0  0  1  0  0  0  0  0  0
  188.2250  177.9090  139.4770 C   0  0  0  0  0  2  0  0  0  0  0  0
  188.1530  178.9500  140.4060 O   0  0  0  0  0  0  0  0  0  0  0  0
  187.8850  178.3360  141.6320 C   0  0  1  0  0  3  0  0  0  0  0  0
  186.3820  178.2800  141.8740 C   0  0  0  0  0  2  0  0  0  0  0  0
  186.0890  178.1180  143.3610 C   0  0  0  0  0  2  0  0  0  0  0  0
  184.9530  179.0130  143.8550 C   0  0  1  0  0  3  0  0  0  0  0  0
  183.6640  178.7780  143.0880 C   0  0  0  0  0  1  0  0  0  0  0  0
  184.7320  178.8680  145.2980 C   0  0  0  0  0  0  0  0  0  0  0  0
  184.5630  178.7540  146.4380 N   0  0  0  0  0  0  0  0  0  0  0  0
  188.4790  176.9320  141.6460 C   0  0  0  0  0  2  0  0  0  0  0  0
  188.9500  176.5870  142.9820 N   0  0  0  0  0  2  0  0  0  0  0  0
  189.8030  177.6730  143.4450 C   0  0  0  0  0  2  0  0  0  0  0  0
  189.8000  177.7410  144.9350 C   0  0  0  0  0  3  0  0  0  0  0  0
  190.6740  177.0830  145.6280 N   0  0  0  0  0  0  0  0  0  0  0  0
  189.4440  177.4600  147.7950 C   0  0  0  0  0  1  0  0  0  0  0  0
  190.6890  177.1180  147.0580 C   0  0  0  0  0  0  0  0  0  0  0  0
  191.7420  176.8660  147.7030 O   0  0  0  0  0  0  0  0  0  0  0  0
  1  9  1  0  0  0  0
  2  6  1  0  0  0  0
  2  1  2  0  0  0  0
  3 28  1  0  0  0  0
  4 12  2  0  0  0  0
  4 11  1  0  0  0  0
  5 11  1  0  0  0  0
  6  7  1  0  0  0  0
  7  8  1  1  0  0  0
  7  3  1  0  0  0  0
  9 13  1  6  0  0  0
  9  3  1  0  0  0  0
 10  1  1  0  0  0  0
 11 10  2  0  0  0  0
 12  2  1  0  0  0  0
 13 14  1  0  0  0  0
 15 17  1  0  0  0  0
 15 21  1  0  0  0  0
 17 19  1  0  0  0  0
 18 17  2  0  0  0  0
 18 22  1  0  0  0  0
 19 16  1  0  0  0  0
 20 16  1  0  0  0  0
 21 14  1  1  0  0  0
 21 20  1  0  0  0  0
 22 23  2  0  0  0  0
 24 22  1  0  0  0  0
 25 26  1  0  0  0  0
 26 24  1  0  0  0  0
 26 27  1  1  0  0  0
 28 29  1  0  0  0  0
 29 30  1  0  0  0  0
 30 37  1  6  0  0  0
 30 31  1  0  0  0  0
 31 32  1  0  0  0  0
 32 33  1  0  0  0  0
 33 34  1  6  0  0  0
 33 35  1  0  0  0  0
 35 36  3  0  0  0  0
 37 38  1  0  0  0  0
 38 39  1  0  0  0  0
 39 40  1  0  0  0  0
 40 41  2  0  0  0  0
 41 43  1  0  0  0  0
 43 44  2  0  0  0  0
 43 42  1  0  0  0  0
M  END
>  <MODEL>
4

>  <REMARK>
 VINA RESULT:      -6.0      3.027      5.715
  Name = 
  18 active torsions:
  status: ('A' for Active; 'I' for Inactive)
    1  A    between atoms: C_1  and  C_4
    2  A    between atoms: C_2  and  C_44
    3  A    between atoms: C_4  and  C_18
    4  A    between atoms: C_8  and  C_27
    5  A    between atoms: C_8  and  N_28
    6  A    between atoms: N_9  and  C_42
    7  A    between atoms: C_11  and  C_29
    8  A    between atoms: C_11  and  C_43
    9  A    between atoms: C_12  and  C_18
   10  A    between atoms: C_12  and  C_19
   11  A    between atoms: C_17  and  N_22
   12  A    between atoms: C_19  and  C_25
   13  A    between atoms: C_19  and  O_36
   14  A    between atoms: C_24  and  C_29
   15  A    between atoms: C_25  and  N_30
   16  A    between atoms: C_27  and  C_32
   17  A    between atoms: N_30  and  C_44
   18  A    between atoms: O_36  and  C_42
                            x       y       z     vdW  Elec       q    Type
                         _______ _______ _______ _____ _____    ______ ____

>  <TORSDO>
F 18

$$$$
=
 OpenBabel11042410373D

 44 46  0  0  1  0  0  0  0  0999 V2000
  181.1810  177.5290  139.6130 C   0  0  0  0  0  0  0  0  0  0  0  0
  180.4170  178.0410  138.5520 C   0  0  0  0  0  0  0  0  0  0  0  0
  182.6100  179.5860  139.5770 N   0  0  0  0  0  0  0  0  0  0  0  0
  179.2430  176.0100  138.3950 N   0  0  0  0  0  0  0  0  0  0  0  0
  179.6690  174.0830  139.8760 C   0  0  0  0  0  1  0  0  0  0  0  0
  180.6870  179.4000  137.9940 C   0  0  0  0  0  2  0  0  0  0  0  0
  181.4280  180.2640  139.0150 C   0  0  2  0  0  3  0  0  0  0  0  0
  181.7890  181.6160  138.4210 C   0  0  0  0  0  1  0  0  0  0  0  0
  182.2370  178.3600  140.3030 C   0  0  1  0  0  3  0  0  0  0  0  0
  180.9360  176.2260  140.0500 C   0  0  0  0  0  3  0  0  0  0  0  0
  179.9490  175.4710  139.4230 C   0  0  0  0  0  0  0  0  0  0  0  0
  179.4740  177.2530  137.9690 N   0  0  0  0  0  0  0  0  0  0  0  0
  181.8340  178.6960  141.7340 C   0  0  0  0  0  2  0  0  0  0  0  0
  182.9230  178.2520  142.7010 C   0  0  0  0  0  2  0  0  0  0  0  0
  185.1930  179.3720  142.4580 C   0  0  0  0  0  2  0  0  0  0  0  0
  184.5250  178.5270  145.1130 C   0  0  0  0  0  2  0  0  0  0  0  0
  186.1220  178.4960  143.2410 C   0  0  0  0  0  0  0  0  0  0  0  0
  187.0750  177.8740  142.6110 N   0  0  0  0  0  0  0  0  0  0  0  0
  186.0010  178.4970  144.7370 C   0  0  0  0  0  2  0  0  0  0  0  0
  183.8800  179.6320  144.5180 O   0  0  0  0  0  0  0  0  0  0  0  0
  183.8070  179.4330  143.1140 C   0  0  2  0  0  3  0  0  0  0  0  0
  188.0880  177.0320  143.1820 C   0  0  0  0  0  0  0  0  0  0  0  0
  187.9840  175.7750  143.1830 O   0  0  0  0  0  0  0  0  0  0  0  0
  189.3120  177.6610  143.7560 C   0  0  0  0  0  2  0  0  0  0  0  0
  191.2390  176.8560  145.0130 N   0  0  0  0  0  1  0  0  0  0  0  0
  189.7860  176.8990  144.9830 C   0  0  1  0  0  3  0  0  0  0  0  0
  189.2810  177.5960  146.2290 C   0  0  0  0  0  1  0  0  0  0  0  0
  183.5850  179.2410  138.5410 C   0  0  0  0  0  2  0  0  0  0  0  0
  184.4290  178.2350  139.0180 O   0  0  0  0  0  0  0  0  0  0  0  0
  185.4630  178.1430  138.0820 C   0  0  1  0  0  3  0  0  0  0  0  0
  186.7880  177.8810  138.7870 C   0  0  0  0  0  2  0  0  0  0  0  0
  187.7350  177.1160  137.8700 C   0  0  0  0  0  2  0  0  0  0  0  0
  189.2100  177.4160  138.1360 C   0  0  1  0  0  3  0  0  0  0  0  0
  189.4070  178.2420  139.3960 C   0  0  0  0  0  1  0  0  0  0  0  0
  190.0170  176.1930  138.1860 C   0  0  0  0  0  0  0  0  0  0  0  0
  190.6570  175.2280  138.2200 N   0  0  0  0  0  0  0  0  0  0  0  0
  185.1600  177.0300  137.0860 C   0  0  0  0  0  2  0  0  0  0  0  0
  184.3120  176.0130  137.6950 N   0  0  0  0  0  2  0  0  0  0  0  0
  183.1030  175.9060  136.8910 C   0  0  0  0  0  2  0  0  0  0  0  0
  182.4950  174.5510  137.0390 C   0  0  0  0  0  3  0  0  0  0  0  0
  183.1870  173.4850  136.7870 N   0  0  0  0  0  0  0  0  0  0  0  0
  183.4600  170.9900  136.5740 C   0  0  0  0  0  1  0  0  0  0  0  0
  182.6280  172.1750  136.9080 C   0  0  0  0  0  0  0  0  0  0  0  0
  181.4380  172.0090  137.2880 O   0  0  0  0  0  0  0  0  0  0  0  0
  1 10  1  0  0  0  0
  1  9  1  0  0  0  0
  2  1  2  0  0  0  0
  3  9  1  0  0  0  0
  4 11  1  0  0  0  0
  6  2  1  0  0  0  0
  6  7  1  0  0  0  0
  7  8  1  6  0  0  0
  7  3  1  0  0  0  0
  9 13  1  1  0  0  0
 11  5  1  0  0  0  0
 11 10  2  0  0  0  0
 12  4  2  0  0  0  0
 12  2  1  0  0  0  0
 13 14  1  0  0  0  0
 15 21  1  0  0  0  0
 15 17  1  0  0  0  0
 17 19  1  0  0  0  0
 18 22  1  0  0  0  0
 18 17  2  0  0  0  0
 19 16  1  0  0  0  0
 20 16  1  0  0  0  0
 21 14  1  1  0  0  0
 21 20  1  0  0  0  0
 22 23  2  0  0  0  0
 22 24  1  0  0  0  0
 24 26  1  0  0  0  0
 26 25  1  0  0  0  0
 26 27  1  1  0  0  0
 28 29  1  0  0  0  0
 28  3  1  0  0  0  0
 30 37  1  6  0  0  0
 30 31  1  0  0  0  0
 30 29  1  0  0  0  0
 32 33  1  0  0  0  0
 32 31  1  0  0  0  0
 33 35  1  0  0  0  0
 33 34  1  1  0  0  0
 35 36  3  0  0  0  0
 37 38  1  0  0  0  0
 39 40  1  0  0  0  0
 39 38  1  0  0  0  0
 41 43  1  0  0  0  0
 41 40  2  0  0  0  0
 42 43  1  0  0  0  0
 43 44  2  0  0  0  0
M  END
>  <MODEL>
5

>  <REMARK>
 VINA RESULT:      -5.9      2.825      6.843
  Name = 
  18 active torsions:
  status: ('A' for Active; 'I' for Inactive)
    1  A    between atoms: C_1  and  C_4
    2  A    between atoms: C_2  and  C_44
    3  A    between atoms: C_4  and  C_18
    4  A    between atoms: C_8  and  C_27
    5  A    between atoms: C_8  and  N_28
    6  A    between atoms: N_9  and  C_42
    7  A    between atoms: C_11  and  C_29
    8  A    between atoms: C_11  and  C_43
    9  A    between atoms: C_12  and  C_18
   10  A    between atoms: C_12  and  C_19
   11  A    between atoms: C_17  and  N_22
   12  A    between atoms: C_19  and  C_25
   13  A    between atoms: C_19  and  O_36
   14  A    between atoms: C_24  and  C_29
   15  A    between atoms: C_25  and  N_30
   16  A    between atoms: C_27  and  C_32
   17  A    between atoms: N_30  and  C_44
   18  A    between atoms: O_36  and  C_42
                            x       y       z     vdW  Elec       q    Type
                         _______ _______ _______ _____ _____    ______ ____

>  <TORSDO>
F 18

$$$$
=
 OpenBabel11042410373D

 44 46  0  0  1  0  0  0  0  0999 V2000
  187.5790  177.8650  139.2700 C   0  0  0  0  0  0  0  0  0  0  0  0
  186.8640  178.3240  138.1520 C   0  0  0  0  0  0  0  0  0  0  0  0
  189.1580  176.6410  137.7590 N   0  0  0  0  0  0  0  0  0  0  0  0
  185.2240  179.2500  139.5590 N   0  0  0  0  0  0  0  0  0  0  0  0
  185.3310  179.1330  142.0210 C   0  0  0  0  0  1  0  0  0  0  0  0
  187.3150  178.0020  136.7640 C   0  0  0  0  0  2  0  0  0  0  0  0
  188.8040  177.6550  136.7490 C   0  0  2  0  0  3  0  0  0  0  0  0
  189.2490  177.2370  135.3570 C   0  0  0  0  0  1  0  0  0  0  0  0
  188.8840  177.1190  139.1250 C   0  0  1  0  0  3  0  0  0  0  0  0
  187.0760  178.1310  140.5440 C   0  0  0  0  0  3  0  0  0  0  0  0
  185.8820  178.8360  140.6730 C   0  0  0  0  0  0  0  0  0  0  0  0
  185.6970  178.9960  138.3370 N   0  0  0  0  0  0  0  0  0  0  0  0
  190.0580  177.9430  139.6420 C   0  0  0  0  0  2  0  0  0  0  0  0
  189.9730  178.0810  141.1550 C   0  0  0  0  0  2  0  0  0  0  0  0
  189.5970  176.1630  142.7830 C   0  0  0  0  0  2  0  0  0  0  0  0
  191.6120  178.0470  143.5580 C   0  0  0  0  0  2  0  0  0  0  0  0
  189.5540  176.8240  144.1260 C   0  0  0  0  0  0  0  0  0  0  0  0
  188.4480  176.7770  144.8110 N   0  0  0  0  0  0  0  0  0  0  0  0
  190.8330  177.3770  144.6830 C   0  0  0  0  0  2  0  0  0  0  0  0
  191.8300  177.1450  142.4950 O   0  0  0  0  0  0  0  0  0  0  0  0
  190.5950  176.8670  141.8530 C   0  0  2  0  0  3  0  0  0  0  0  0
  188.2190  177.3040  146.1270 C   0  0  0  0  0  0  0  0  0  0  0  0
  188.6160  176.7020  147.1610 O   0  0  0  0  0  0  0  0  0  0  0  0
  187.5250  178.6160  146.2690 C   0  0  0  0  0  2  0  0  0  0  0  0
  185.7070  179.3790  147.7030 N   0  0  0  0  0  1  0  0  0  0  0  0
  186.0730  178.4170  146.6760 C   0  0  1  0  0  3  0  0  0  0  0  0
  185.1840  178.6160  145.4650 C   0  0  0  0  0  1  0  0  0  0  0  0
  188.4370  175.3850  137.5460 C   0  0  0  0  0  2  0  0  0  0  0  0
  189.3430  174.3220  137.5770 O   0  0  0  0  0  0  0  0  0  0  0  0
  189.3580  173.8080  136.2770 C   0  0  1  0  0  3  0  0  0  0  0  0
  190.7830  173.4550  135.8690 C   0  0  0  0  0  2  0  0  0  0  0  0
  191.7110  174.6420  136.1020 C   0  0  0  0  0  2  0  0  0  0  0  0
  192.6380  174.4580  137.3040 C   0  0  1  0  0  3  0  0  0  0  0  0
  193.8780  173.6540  136.9520 C   0  0  0  0  0  1  0  0  0  0  0  0
  193.0070  175.7410  137.9100 C   0  0  0  0  0  0  0  0  0  0  0  0
  193.3040  176.7530  138.3890 N   0  0  0  0  0  0  0  0  0  0  0  0
  188.4610  172.5790  136.1990 C   0  0  0  0  0  2  0  0  0  0  0  0
  187.1160  172.9510  135.7750 N   0  0  0  0  0  2  0  0  0  0  0  0
  186.1870  172.4890  136.7970 C   0  0  0  0  0  2  0  0  0  0  0  0
  185.2770  173.5940  137.2130 C   0  0  0  0  0  3  0  0  0  0  0  0
  184.6880  174.3350  136.3280 N   0  0  0  0  0  0  0  0  0  0  0  0
  182.5620  175.1170  137.4320 C   0  0  0  0  0  1  0  0  0  0  0  0
  183.8200  175.4090  136.6970 C   0  0  0  0  0  0  0  0  0  0  0  0
  184.1030  176.6020  136.4030 O   0  0  0  0  0  0  0  0  0  0  0  0
  1 10  1  0  0  0  0
  2 12  1  0  0  0  0
  2  1  2  0  0  0  0
  3  9  1  0  0  0  0
  4 11  1  0  0  0  0
  6  2  1  0  0  0  0
  7  8  1  6  0  0  0
  7  6  1  0  0  0  0
  7  3  1  0  0  0  0
  9  1  1  0  0  0  0
  9 13  1  6  0  0  0
 10 11  2  0  0  0  0
 11  5  1  0  0  0  0
 12  4  2  0  0  0  0
 13 14  1  0  0  0  0
 15 17  1  0  0  0  0
 16 19  1  0  0  0  0
 17 19  1  0  0  0  0
 17 18  2  0  0  0  0
 18 22  1  0  0  0  0
 20 16  1  0  0  0  0
 21 14  1  1  0  0  0
 21 20  1  0  0  0  0
 21 15  1  0  0  0  0
 22 24  1  0  0  0  0
 22 23  2  0  0  0  0
 24 26  1  0  0  0  0
 26 27  1  6  0  0  0
 26 25  1  0  0  0  0
 28 29  1  0  0  0  0
 28  3  1  0  0  0  0
 30 31  1  1  0  0  0
 30 29  1  0  0  0  0
 31 32  1  0  0  0  0
 32 33  1  0  0  0  0
 33 34  1  6  0  0  0
 33 35  1  0  0  0  0
 35 36  3  0  0  0  0
 37 30  1  0  0  0  0
 38 37  1  0  0  0  0
 38 39  1  0  0  0  0
 39 40  1  0  0  0  0
 41 43  1  0  0  0  0
 41 40  2  0  0  0  0
 43 42  1  0  0  0  0
 44 43  2  0  0  0  0
M  END
>  <MODEL>
6

>  <REMARK>
 VINA RESULT:      -5.7      2.195      6.602
  Name = 
  18 active torsions:
  status: ('A' for Active; 'I' for Inactive)
    1  A    between atoms: C_1  and  C_4
    2  A    between atoms: C_2  and  C_44
    3  A    between atoms: C_4  and  C_18
    4  A    between atoms: C_8  and  C_27
    5  A    between atoms: C_8  and  N_28
    6  A    between atoms: N_9  and  C_42
    7  A    between atoms: C_11  and  C_29
    8  A    between atoms: C_11  and  C_43
    9  A    between atoms: C_12  and  C_18
   10  A    between atoms: C_12  and  C_19
   11  A    between atoms: C_17  and  N_22
   12  A    between atoms: C_19  and  C_25
   13  A    between atoms: C_19  and  O_36
   14  A    between atoms: C_24  and  C_29
   15  A    between atoms: C_25  and  N_30
   16  A    between atoms: C_27  and  C_32
   17  A    between atoms: N_30  and  C_44
   18  A    between atoms: O_36  and  C_42
                            x       y       z     vdW  Elec       q    Type
                         _______ _______ _______ _____ _____    ______ ____

>  <TORSDO>
F 18

$$$$
=
 OpenBabel11042410373D

 44 46  0  0  1  0  0  0  0  0999 V2000
  185.4830  175.4370  136.5690 C   0  0  0  0  0  0  0  0  0  0  0  0
  186.5130  175.5580  135.6200 C   0  0  0  0  0  0  0  0  0  0  0  0
  186.1120  177.6620  137.5340 N   0  0  0  0  0  0  0  0  0  0  0  0
  186.1120  173.3630  134.8800 N   0  0  0  0  0  0  0  0  0  0  0  0
  184.3520  171.9160  135.8280 C   0  0  0  0  0  1  0  0  0  0  0  0
  187.3570  176.7890  135.5530 C   0  0  0  0  0  2  0  0  0  0  0  0
  186.6330  177.9740  136.1910 C   0  0  2  0  0  3  0  0  0  0  0  0
  187.5230  179.2070  136.2100 C   0  0  0  0  0  1  0  0  0  0  0  0
  185.1170  176.5770  137.4900 C   0  0  1  0  0  3  0  0  0  0  0  0
  184.7720  174.2390  136.6380 C   0  0  0  0  0  3  0  0  0  0  0  0
  185.1010  173.1980  135.7740 C   0  0  0  0  0  0  0  0  0  0  0  0
  186.7990  174.5040  134.8110 N   0  0  0  0  0  0  0  0  0  0  0  0
  183.7380  177.1380  137.1610 C   0  0  0  0  0  2  0  0  0  0  0  0
  182.8360  177.0570  138.3830 C   0  0  0  0  0  2  0  0  0  0  0  0
  181.5230  179.1160  139.0920 C   0  0  0  0  0  2  0  0  0  0  0  0
  180.2140  176.6120  139.5630 C   0  0  0  0  0  2  0  0  0  0  0  0
  180.9970  178.7680  140.4510 C   0  0  0  0  0  0  0  0  0  0  0  0
  181.4030  179.4620  141.4750 N   0  0  0  0  0  0  0  0  0  0  0  0
  179.9130  177.7360  140.5450 C   0  0  0  0  0  2  0  0  0  0  0  0
  180.3660  177.1180  138.2550 O   0  0  0  0  0  0  0  0  0  0  0  0
  181.5600  177.8810  138.1810 C   0  0  2  0  0  3  0  0  0  0  0  0
  180.9860  179.3170  142.8410 C   0  0  0  0  0  0  0  0  0  0  0  0
  179.9120  179.8230  143.2640 O   0  0  0  0  0  0  0  0  0  0  0  0
  181.8310  178.5170  143.7740 C   0  0  0  0  0  2  0  0  0  0  0  0
  183.6480  179.0620  145.3040 N   0  0  0  0  0  1  0  0  0  0  0  0
  183.2120  179.1370  143.9190 C   0  0  1  0  0  3  0  0  0  0  0  0
  184.1920  178.3830  143.0450 C   0  0  0  0  0  1  0  0  0  0  0  0
  187.1810  177.2820  138.4590 C   0  0  0  0  0  2  0  0  0  0  0  0
  187.3330  178.2810  139.4240 O   0  0  0  0  0  0  0  0  0  0  0  0
  188.4270  177.8870  140.1990 C   0  0  1  0  0  3  0  0  0  0  0  0
  189.7240  178.1250  139.4350 C   0  0  0  0  0  2  0  0  0  0  0  0
  190.5780  176.8620  139.4330 C   0  0  0  0  0  2  0  0  0  0  0  0
  191.0470  176.4510  138.0370 C   0  0  1  0  0  3  0  0  0  0  0  0
  192.5610  176.4060  137.9330 C   0  0  0  0  0  1  0  0  0  0  0  0
  190.4600  175.1740  137.6180 C   0  0  0  0  0  0  0  0  0  0  0  0
  189.9910  174.1670  137.2900 N   0  0  0  0  0  0  0  0  0  0  0  0
  188.4340  178.6580  141.5130 C   0  0  0  0  0  2  0  0  0  0  0  0
  188.1190  177.7740  142.6290 N   0  0  0  0  0  2  0  0  0  0  0  0
  189.3770  177.3310  143.2120 C   0  0  0  0  0  2  0  0  0  0  0  0
  189.2500  177.2010  144.6920 C   0  0  0  0  0  3  0  0  0  0  0  0
  188.3780  177.9010  145.3450 N   0  0  0  0  0  0  0  0  0  0  0  0
  189.3240  177.1740  147.5650 C   0  0  0  0  0  1  0  0  0  0  0  0
  188.2420  177.8070  146.7650 C   0  0  0  0  0  0  0  0  0  0  0  0
  187.2170  178.2500  147.3500 O   0  0  0  0  0  0  0  0  0  0  0  0
  1 10  1  0  0  0  0
  1  9  1  0  0  0  0
  2  1  2  0  0  0  0
  3 28  1  0  0  0  0
  4 11  1  0  0  0  0
  6  2  1  0  0  0  0
  6  7  1  0  0  0  0
  7  8  1  1  0  0  0
  7  3  1  0  0  0  0
  9 13  1  6  0  0  0
  9  3  1  0  0  0  0
 11  5  1  0  0  0  0
 11 10  2  0  0  0  0
 12  4  2  0  0  0  0
 12  2  1  0  0  0  0
 13 14  1  0  0  0  0
 15 17  1  0  0  0  0
 16 19  1  0  0  0  0
 17 19  1  0  0  0  0
 17 18  2  0  0  0  0
 18 22  1  0  0  0  0
 20 16  1  0  0  0  0
 21 20  1  0  0  0  0
 21 14  1  1  0  0  0
 21 15  1  0  0  0  0
 22 23  2  0  0  0  0
 22 24  1  0  0  0  0
 24 26  1  0  0  0  0
 26 27  1  6  0  0  0
 26 25  1  0  0  0  0
 28 29  1  0  0  0  0
 29 30  1  0  0  0  0
 30 31  1  6  0  0  0
 30 37  1  0  0  0  0
 32 31  1  0  0  0  0
 33 34  1  1  0  0  0
 33 32  1  0  0  0  0
 35 33  1  0  0  0  0
 36 35  3  0  0  0  0
 37 38  1  0  0  0  0
 38 39  1  0  0  0  0
 39 40  1  0  0  0  0
 40 41  2  0  0  0  0
 41 43  1  0  0  0  0
 43 44  2  0  0  0  0
 43 42  1  0  0  0  0
M  END
>  <MODEL>
7

>  <REMARK>
 VINA RESULT:      -5.6      2.220      4.842
  Name = 
  18 active torsions:
  status: ('A' for Active; 'I' for Inactive)
    1  A    between atoms: C_1  and  C_4
    2  A    between atoms: C_2  and  C_44
    3  A    between atoms: C_4  and  C_18
    4  A    between atoms: C_8  and  C_27
    5  A    between atoms: C_8  and  N_28
    6  A    between atoms: N_9  and  C_42
    7  A    between atoms: C_11  and  C_29
    8  A    between atoms: C_11  and  C_43
    9  A    between atoms: C_12  and  C_18
   10  A    between atoms: C_12  and  C_19
   11  A    between atoms: C_17  and  N_22
   12  A    between atoms: C_19  and  C_25
   13  A    between atoms: C_19  and  O_36
   14  A    between atoms: C_24  and  C_29
   15  A    between atoms: C_25  and  N_30
   16  A    between atoms: C_27  and  C_32
   17  A    between atoms: N_30  and  C_44
   18  A    between atoms: O_36  and  C_42
                            x       y       z     vdW  Elec       q    Type
                         _______ _______ _______ _____ _____    ______ ____

>  <TORSDO>
F 18

$$$$
=
 OpenBabel11042410373D

 44 46  0  0  1  0  0  0  0  0999 V2000
  188.5240  177.6530  145.6670 C   0  0  0  0  0  0  0  0  0  0  0  0
  189.4140  177.2950  146.6930 C   0  0  0  0  0  0  0  0  0  0  0  0
  190.1940  176.9040  143.9560 N   0  0  0  0  0  0  0  0  0  0  0  0
  187.9750  178.2400  148.2940 N   0  0  0  0  0  0  0  0  0  0  0  0
  185.8200  179.2950  147.7200 C   0  0  0  0  0  1  0  0  0  0  0  0
  190.7300  176.6580  146.3830 C   0  0  0  0  0  2  0  0  0  0  0  0
  190.6970  175.9980  145.0050 C   0  0  2  0  0  3  0  0  0  0  0  0
  192.0600  175.4280  144.6440 C   0  0  0  0  0  1  0  0  0  0  0  0
  188.8060  177.3190  144.2200 C   0  0  1  0  0  3  0  0  0  0  0  0
  187.3410  178.3110  146.0040 C   0  0  0  0  0  3  0  0  0  0  0  0
  187.0760  178.5990  147.3400 C   0  0  0  0  0  0  0  0  0  0  0  0
  189.1100  177.6130  147.9790 N   0  0  0  0  0  0  0  0  0  0  0  0
  187.8310  176.2750  143.6900 C   0  0  0  0  0  2  0  0  0  0  0  0
  187.1520  176.7880  142.4290 C   0  0  0  0  0  2  0  0  0  0  0  0
  185.4370  178.5850  142.9760 C   0  0  0  0  0  2  0  0  0  0  0  0
  186.4190  178.6120  140.2840 C   0  0  0  0  0  2  0  0  0  0  0  0
  184.4920  178.5580  141.8140 C   0  0  0  0  0  0  0  0  0  0  0  0
  183.2540  178.2160  142.0220 N   0  0  0  0  0  0  0  0  0  0  0  0
  184.9830  179.0750  140.4930 C   0  0  0  0  0  2  0  0  0  0  0  0
  187.2360  179.0180  141.3610 O   0  0  0  0  0  0  0  0  0  0  0  0
  186.8750  178.2920  142.5250 C   0  0  2  0  0  3  0  0  0  0  0  0
  182.1920  178.1730  141.0570 C   0  0  0  0  0  0  0  0  0  0  0  0
  182.2080  177.3690  140.0870 O   0  0  0  0  0  0  0  0  0  0  0  0
  181.0220  179.0820  141.2300 C   0  0  0  0  0  2  0  0  0  0  0  0
  180.0290  180.6220  142.8380 N   0  0  0  0  0  1  0  0  0  0  0  0
  180.7920  179.3920  142.7010 C   0  0  1  0  0  3  0  0  0  0  0  0
  180.0220  178.2530  143.3360 C   0  0  0  0  0  1  0  0  0  0  0  0
  191.0260  178.1000  143.8240 C   0  0  0  0  0  2  0  0  0  0  0  0
  190.8120  178.6750  142.5680 O   0  0  0  0  0  0  0  0  0  0  0  0
  190.8150  177.6080  141.6660 C   0  0  1  0  0  3  0  0  0  0  0  0
  190.1460  178.0220  140.3610 C   0  0  0  0  0  2  0  0  0  0  0  0
  189.5290  176.8090  139.6730 C   0  0  0  0  0  2  0  0  0  0  0  0
  189.4530  176.9490  138.1530 C   0  0  1  0  0  3  0  0  0  0  0  0
  188.5400  175.9090  137.5280 C   0  0  0  0  0  1  0  0  0  0  0  0
  189.0550  178.3000  137.7480 C   0  0  0  0  0  0  0  0  0  0  0  0
  188.7440  179.3680  137.4230 N   0  0  0  0  0  0  0  0  0  0  0  0
  192.2470  177.1530  141.4090 C   0  0  0  0  0  2  0  0  0  0  0  0
  192.7530  177.7230  140.1670 N   0  0  0  0  0  2  0  0  0  0  0  0
  193.6410  176.7430  139.5590 C   0  0  0  0  0  2  0  0  0  0  0  0
  193.1640  176.3820  138.1930 C   0  0  0  0  0  3  0  0  0  0  0  0
  194.0060  176.1750  137.2310 N   0  0  0  0  0  0  0  0  0  0  0  0
  192.1330  175.6200  135.6400 C   0  0  0  0  0  1  0  0  0  0  0  0
  193.5780  175.8410  135.9090 C   0  0  0  0  0  0  0  0  0  0  0  0
  194.4080  175.7260  134.9670 O   0  0  0  0  0  0  0  0  0  0  0  0
  1 10  2  0  0  0  0
  1  2  1  0  0  0  0
  2 12  2  0  0  0  0
  3  9  1  0  0  0  0
  3  7  1  0  0  0  0
  6  2  1  0  0  0  0
  7  8  1  6  0  0  0
  7  6  1  0  0  0  0
  9 13  1  1  0  0  0
  9  1  1  0  0  0  0
 10 11  1  0  0  0  0
 11  5  1  0  0  0  0
 11  4  2  0  0  0  0
 12  4  1  0  0  0  0
 14 13  1  0  0  0  0
 16 19  1  0  0  0  0
 16 20  1  0  0  0  0
 17 18  2  0  0  0  0
 17 15  1  0  0  0  0
 19 17  1  0  0  0  0
 20 21  1  0  0  0  0
 21 14  1  6  0  0  0
 21 15  1  0  0  0  0
 22 24  1  0  0  0  0
 22 18  1  0  0  0  0
 23 22  2  0  0  0  0
 24 26  1  0  0  0  0
 26 25  1  0  0  0  0
 26 27  1  6  0  0  0
 28  3  1  0  0  0  0
 29 28  1  0  0  0  0
 30 31  1  6  0  0  0
 30 29  1  0  0  0  0
 32 31  1  0  0  0  0
 33 34  1  1  0  0  0
 33 32  1  0  0  0  0
 35 33  1  0  0  0  0
 36 35  3  0  0  0  0
 37 30  1  0  0  0  0
 38 37  1  0  0  0  0
 39 38  1  0  0  0  0
 40 39  1  0  0  0  0
 41 40  2  0  0  0  0
 42 43  1  0  0  0  0
 43 41  1  0  0  0  0
 44 43  2  0  0  0  0
M  END
>  <MODEL>
8

>  <REMARK>
 VINA RESULT:      -5.6      2.472      6.845
  Name = 
  18 active torsions:
  status: ('A' for Active; 'I' for Inactive)
    1  A    between atoms: C_1  and  C_4
    2  A    between atoms: C_2  and  C_44
    3  A    between atoms: C_4  and  C_18
    4  A    between atoms: C_8  and  C_27
    5  A    between atoms: C_8  and  N_28
    6  A    between atoms: N_9  and  C_42
    7  A    between atoms: C_11  and  C_29
    8  A    between atoms: C_11  and  C_43
    9  A    between atoms: C_12  and  C_18
   10  A    between atoms: C_12  and  C_19
   11  A    between atoms: C_17  and  N_22
   12  A    between atoms: C_19  and  C_25
   13  A    between atoms: C_19  and  O_36
   14  A    between atoms: C_24  and  C_29
   15  A    between atoms: C_25  and  N_30
   16  A    between atoms: C_27  and  C_32
   17  A    between atoms: N_30  and  C_44
   18  A    between atoms: O_36  and  C_42
                            x       y       z     vdW  Elec       q    Type
                         _______ _______ _______ _____ _____    ______ ____

>  <TORSDO>
F 18

$$$$
=
 OpenBabel11042410373D

 44 46  0  0  1  0  0  0  0  0999 V2000
  187.4940  175.5530  136.9600 C   0  0  0  0  0  0  0  0  0  0  0  0
  188.6920  175.8550  136.2900 C   0  0  0  0  0  0  0  0  0  0  0  0
  187.5820  177.7720  138.1180 N   0  0  0  0  0  0  0  0  0  0  0  0
  188.7670  173.6780  135.4070 N   0  0  0  0  0  0  0  0  0  0  0  0
  187.0400  171.9740  135.8590 C   0  0  0  0  0  1  0  0  0  0  0  0
  189.3600  177.1800  136.4670 C   0  0  0  0  0  2  0  0  0  0  0  0
  188.3570  178.2280  136.9490 C   0  0  2  0  0  3  0  0  0  0  0  0
  189.0480  179.5550  137.2200 C   0  0  0  0  0  1  0  0  0  0  0  0
  186.7760  176.5810  137.8010 C   0  0  1  0  0  3  0  0  0  0  0  0
  186.9500  174.2760  136.8180 C   0  0  0  0  0  3  0  0  0  0  0  0
  187.6060  173.3380  136.0260 C   0  0  0  0  0  0  0  0  0  0  0  0
  189.2960  174.8950  135.5400 N   0  0  0  0  0  0  0  0  0  0  0  0
  185.4510  176.9910  137.1690 C   0  0  0  0  0  2  0  0  0  0  0  0
  184.2910  176.3980  137.9540 C   0  0  0  0  0  2  0  0  0  0  0  0
  182.3430  177.4640  136.7150 C   0  0  0  0  0  2  0  0  0  0  0  0
  181.6140  175.5670  138.7340 C   0  0  0  0  0  2  0  0  0  0  0  0
  181.3730  177.8290  137.7970 C   0  0  0  0  0  0  0  0  0  0  0  0
  181.1020  179.0860  137.9970 N   0  0  0  0  0  0  0  0  0  0  0  0
  180.6460  176.7190  138.4970 C   0  0  0  0  0  2  0  0  0  0  0  0
  182.2000  175.1480  137.5210 O   0  0  0  0  0  0  0  0  0  0  0  0
  183.0780  176.1590  137.0490 C   0  0  2  0  0  3  0  0  0  0  0  0
  180.1740  179.6340  138.9450 C   0  0  0  0  0  0  0  0  0  0  0  0
  178.9410  179.7200  138.6930 O   0  0  0  0  0  0  0  0  0  0  0  0
  180.6780  180.0790  140.2760 C   0  0  0  0  0  2  0  0  0  0  0  0
  181.4940  178.9870  142.2960 N   0  0  0  0  0  1  0  0  0  0  0  0
  180.4020  179.0260  141.3370 C   0  0  1  0  0  3  0  0  0  0  0  0
  179.1160  179.3710  142.0590 C   0  0  0  0  0  1  0  0  0  0  0  0
  188.4440  177.4680  139.2600 C   0  0  0  0  0  2  0  0  0  0  0  0
  188.0710  178.2630  140.3460 O   0  0  0  0  0  0  0  0  0  0  0  0
  188.3140  177.4820  141.4790 C   0  0  1  0  0  3  0  0  0  0  0  0
  189.8120  177.2700  141.6590 C   0  0  0  0  0  2  0  0  0  0  0  0
  190.0740  176.0460  142.5300 C   0  0  0  0  0  2  0  0  0  0  0  0
  190.7970  176.3780  143.8360 C   0  0  1  0  0  3  0  0  0  0  0  0
  191.9470  175.4250  144.1110 C   0  0  0  0  0  1  0  0  0  0  0  0
  191.2560  177.7700  143.8680 C   0  0  0  0  0  0  0  0  0  0  0  0
  191.6250  178.8680  143.8970 N   0  0  0  0  0  0  0  0  0  0  0  0
  187.7210  178.1590  142.7090 C   0  0  0  0  0  2  0  0  0  0  0  0
  186.2790  177.9490  142.7660 N   0  0  0  0  0  2  0  0  0  0  0  0
  185.8970  177.8770  144.1690 C   0  0  0  0  0  2  0  0  0  0  0  0
  187.1020  177.9700  145.0430 C   0  0  0  0  0  3  0  0  0  0  0  0
  187.0200  177.7190  146.3110 N   0  0  0  0  0  0  0  0  0  0  0  0
  187.9500  177.8830  148.6470 C   0  0  0  0  0  1  0  0  0  0  0  0
  188.1540  177.8130  147.1770 C   0  0  0  0  0  0  0  0  0  0  0  0
  189.3250  177.8420  146.7110 O   0  0  0  0  0  0  0  0  0  0  0  0
  1  9  1  0  0  0  0
  2  6  1  0  0  0  0
  2  1  2  0  0  0  0
  3 28  1  0  0  0  0
  4 12  2  0  0  0  0
  4 11  1  0  0  0  0
  5 11  1  0  0  0  0
  6  7  1  0  0  0  0
  7  8  1  1  0  0  0
  7  3  1  0  0  0  0
  9 13  1  6  0  0  0
  9  3  1  0  0  0  0
 10  1  1  0  0  0  0
 11 10  2  0  0  0  0
 12  2  1  0  0  0  0
 13 14  1  0  0  0  0
 15 21  1  0  0  0  0
 15 17  1  0  0  0  0
 17 18  2  0  0  0  0
 17 19  1  0  0  0  0
 18 22  1  0  0  0  0
 19 16  1  0  0  0  0
 20 16  1  0  0  0  0
 21 20  1  0  0  0  0
 21 14  1  1  0  0  0
 22 24  1  0  0  0  0
 23 22  2  0  0  0  0
 24 26  1  0  0  0  0
 26 27  1  1  0  0  0
 26 25  1  0  0  0  0
 28 29  1  0  0  0  0
 29 30  1  0  0  0  0
 30 31  1  1  0  0  0
 30 37  1  0  0  0  0
 31 32  1  0  0  0  0
 32 33  1  0  0  0  0
 33 35  1  0  0  0  0
 33 34  1  6  0  0  0
 35 36  3  0  0  0  0
 37 38  1  0  0  0  0
 38 39  1  0  0  0  0
 39 40  1  0  0  0  0
 40 41  2  0  0  0  0
 41 43  1  0  0  0  0
 43 42  1  0  0  0  0
 44 43  2  0  0  0  0
M  END
>  <MODEL>
9

>  <REMARK>
 VINA RESULT:      -5.3      2.495      5.018
  Name = 
  18 active torsions:
  status: ('A' for Active; 'I' for Inactive)
    1  A    between atoms: C_1  and  C_4
    2  A    between atoms: C_2  and  C_44
    3  A    between atoms: C_4  and  C_18
    4  A    between atoms: C_8  and  C_27
    5  A    between atoms: C_8  and  N_28
    6  A    between atoms: N_9  and  C_42
    7  A    between atoms: C_11  and  C_29
    8  A    between atoms: C_11  and  C_43
    9  A    between atoms: C_12  and  C_18
   10  A    between atoms: C_12  and  C_19
   11  A    between atoms: C_17  and  N_22
   12  A    between atoms: C_19  and  C_25
   13  A    between atoms: C_19  and  O_36
   14  A    between atoms: C_24  and  C_29
   15  A    between atoms: C_25  and  N_30
   16  A    between atoms: C_27  and  C_32
   17  A    between atoms: N_30  and  C_44
   18  A    between atoms: O_36  and  C_42
                            x       y       z     vdW  Elec       q    Type
                         _______ _______ _______ _____ _____    ______ ____

>  <TORSDO>
F 18

$$$$
