=
 OpenBabel11042411323D

 36 40  0  0  0  0  0  0  0  0999 V2000
  183.8960  177.2290  138.3880 C   0  0  0  0  0  2  0  0  0  0  0  0
  185.4920  178.9220  141.1250 C   0  0  0  0  0  0  0  0  0  0  0  0
  184.2090  178.5910  141.5380 C   0  0  0  0  0  0  0  0  0  0  0  0
  182.7440  176.6360  139.1730 C   0  0  0  0  0  0  0  0  0  0  0  0
  182.5760  177.1790  140.3390 N   0  0  0  0  0  0  0  0  0  0  0  0
  185.5570  178.7140  139.7460 C   0  0  0  0  0  0  0  0  0  0  0  0
  186.5520  179.2370  141.9670 O   0  0  0  0  0  1  0  0  0  0  0  0
  184.3080  178.2450  139.3920 C   0  0  0  0  0  0  0  0  0  0  0  0
  183.5170  178.1970  140.4530 N   0  0  0  0  0  0  0  0  0  0  0  0
  181.9390  175.5480  138.7210 N   0  0  0  0  0  2  0  0  0  0  0  0
  189.1080  177.7190  138.5420 C   0  0  0  0  0  0  0  0  0  0  0  0
  189.6290  177.3320  140.5810 C   0  0  0  0  0  0  0  0  0  0  0  0
  190.1580  177.2950  139.3950 N   0  0  0  0  0  0  0  0  0  0  0  0
  186.7360  178.5890  138.9430 N   0  0  0  0  0  2  0  0  0  0  0  0
  189.2760  178.0930  137.3030 C   0  0  0  0  0  0  0  0  0  0  0  0
  189.4350  178.4480  136.1280 O   0  0  0  0  0  0  0  0  0  0  0  0
  188.2720  177.7950  140.6170 N   0  0  0  0  0  0  0  0  0  0  0  0
  187.9720  178.0170  139.3820 C   0  0  0  0  0  0  0  0  0  0  0  0
  191.7070  177.1100  143.4450 N   0  0  0  0  0  0  0  0  0  0  0  0
  191.2420  177.7800  142.4070 N   0  0  0  0  0  0  0  0  0  0  0  0
  191.1140  175.9000  143.4430 C   0  0  0  0  0  3  0  0  0  0  0  0
  190.3730  176.9650  141.7890 C   0  0  0  0  0  0  0  0  0  0  0  0
  190.2600  175.7740  142.4060 N   0  0  0  0  0  2  0  0  0  0  0  0
  182.1400  174.9820  137.5070 O   0  0  0  0  0  0  0  0  0  0  0  0
  181.0340  175.3650  136.7440 C   0  0  0  0  0  1  0  0  0  0  0  0
  183.7950  178.3280  142.9460 C   0  0  0  0  0  2  0  0  0  0  0  0
  183.8070  179.5670  143.7020 N   0  0  0  0  0  2  0  0  0  0  0  0
  183.8850  179.2000  145.1050 C   0  0  0  0  0  2  0  0  0  0  0  0
  185.3380  179.1400  145.5500 C   0  0  0  0  0  2  0  0  0  0  0  0
  185.6740  177.7870  146.1650 C   0  0  0  0  0  2  0  0  0  0  0  0
  187.5740  178.0470  147.8610 C   0  0  0  0  0  3  0  0  0  0  0  0
  189.4710  177.6730  146.3090 C   0  0  0  0  0  2  0  0  0  0  0  0
  187.0790  177.7240  146.5400 N   0  0  0  0  0  0  0  0  0  0  0  0
  189.1030  177.9420  147.7740 C   0  0  0  0  0  3  0  0  0  0  0  0
  188.1590  177.5440  145.6510 C   0  0  0  0  0  0  0  0  0  0  0  0
  188.0110  177.3160  144.4220 O   0  0  0  0  0  0  0  0  0  0  0  0
  1  4  1  0  0  0  0
  1  8  1  0  0  0  0
  2  3  2  0  0  0  0
  2  7  1  0  0  0  0
  3 26  1  0  0  0  0
  4  5  2  0  0  0  0
  5  9  1  0  0  0  0
  6  2  1  0  0  0  0
  8  6  2  0  0  0  0
  8  9  1  0  0  0  0
  9  3  1  0  0  0  0
 10  4  1  0  0  0  0
 11 18  1  0  0  0  0
 11 13  1  0  0  0  0
 12 17  1  0  0  0  0
 12 22  1  0  0  0  0
 13 12  2  0  0  0  0
 14 18  1  0  0  0  0
 14  6  1  0  0  0  0
 15 11  2  0  0  0  0
 16 15  2  0  0  0  0
 18 17  2  0  0  0  0
 20 19  1  0  0  0  0
 21 19  2  0  0  0  0
 22 23  1  0  0  0  0
 22 20  2  0  0  0  0
 23 21  1  0  0  0  0
 24 10  1  0  0  0  0
 25 24  1  0  0  0  0
 26 27  1  0  0  0  0
 27 28  1  0  0  0  0
 28 29  1  0  0  0  0
 29 30  1  0  0  0  0
 30 33  1  0  0  0  0
 32 34  1  0  0  0  0
 33 31  1  0  0  0  0
 34 31  2  0  0  0  0
 35 32  1  0  0  0  0
 35 33  1  0  0  0  0
 36 35  2  0  0  0  0
M  END
>  <MODEL>
1

>  <REMARK>
 VINA RESULT:      -8.3      0.000      0.000
  Name = 
  9 active torsions:
  status: ('A' for Active; 'I' for Inactive)
    1  A    between atoms: O_3  and  N_33
    2  A    between atoms: C_6  and  N_13
    3  A    between atoms: C_6  and  C_34
    4  A    between atoms: C_9  and  C_32
    5  A    between atoms: C_10  and  C_19
    6  A    between atoms: C_17  and  N_20
    7  A    between atoms: C_21  and  N_28
    8  A    between atoms: C_21  and  C_34
    9  A    between atoms: N_28  and  C_32
                            x       y       z     vdW  Elec       q    Type
                         _______ _______ _______ _____ _____    ______ ____

>  <TORSDO>
F 9

$$$$
=
 OpenBabel11042411323D

 36 40  0  0  0  0  0  0  0  0999 V2000
  190.6290  176.9140  142.4870 C   0  0  0  0  0  2  0  0  0  0  0  0
  188.3600  177.9130  139.8870 C   0  0  0  0  0  0  0  0  0  0  0  0
  187.7380  178.1750  141.1000 C   0  0  0  0  0  0  0  0  0  0  0  0
  189.9470  177.6410  143.6280 C   0  0  0  0  0  0  0  0  0  0  0  0
  188.7390  178.0240  143.3520 N   0  0  0  0  0  0  0  0  0  0  0  0
  189.4840  177.1290  140.1520 C   0  0  0  0  0  0  0  0  0  0  0  0
  188.0120  178.4780  138.6660 O   0  0  0  0  0  1  0  0  0  0  0  0
  189.4980  176.9690  141.5230 C   0  0  0  0  0  0  0  0  0  0  0  0
  188.4530  177.5720  142.0670 N   0  0  0  0  0  0  0  0  0  0  0  0
  190.5690  177.9370  144.8780 N   0  0  0  0  0  2  0  0  0  0  0  0
  191.6540  175.9290  137.1680 C   0  0  0  0  0  0  0  0  0  0  0  0
  190.1540  174.4630  136.7410 C   0  0  0  0  0  0  0  0  0  0  0  0
  191.3040  174.8700  136.2930 N   0  0  0  0  0  0  0  0  0  0  0  0
  190.6040  176.8990  139.2900 N   0  0  0  0  0  2  0  0  0  0  0  0
  192.8510  176.4400  137.2570 C   0  0  0  0  0  0  0  0  0  0  0  0
  193.9860  176.9270  137.3430 O   0  0  0  0  0  0  0  0  0  0  0  0
  189.6880  175.1530  137.9090 N   0  0  0  0  0  0  0  0  0  0  0  0
  190.5980  176.0360  138.1480 C   0  0  0  0  0  0  0  0  0  0  0  0
  187.7780  172.1170  135.5510 N   0  0  0  0  0  0  0  0  0  0  0  0
  188.0810  173.2060  136.2320 N   0  0  0  0  0  0  0  0  0  0  0  0
  188.9250  171.6280  135.0400 C   0  0  0  0  0  3  0  0  0  0  0  0
  189.4100  173.3620  136.1230 C   0  0  0  0  0  0  0  0  0  0  0  0
  189.9810  172.3930  135.3830 N   0  0  0  0  0  2  0  0  0  0  0  0
  191.8370  177.5430  145.1430 O   0  0  0  0  0  0  0  0  0  0  0  0
  191.7070  176.5110  146.0750 C   0  0  0  0  0  1  0  0  0  0  0  0
  186.7230  179.2410  141.3380 C   0  0  0  0  0  2  0  0  0  0  0  0
  185.4250  178.6390  141.5860 N   0  0  0  0  0  2  0  0  0  0  0  0
  184.9330  179.2030  142.8300 C   0  0  0  0  0  2  0  0  0  0  0  0
  185.1080  178.2030  143.9620 C   0  0  0  0  0  2  0  0  0  0  0  0
  185.0100  178.8820  145.3230 C   0  0  0  0  0  2  0  0  0  0  0  0
  186.9080  177.2930  145.9760 C   0  0  0  0  0  3  0  0  0  0  0  0
  187.5380  178.3760  148.1160 C   0  0  0  0  0  2  0  0  0  0  0  0
  186.1210  178.4900  146.1780 N   0  0  0  0  0  0  0  0  0  0  0  0
  187.8880  177.2320  147.1570 C   0  0  0  0  0  3  0  0  0  0  0  0
  186.4570  179.0870  147.4110 C   0  0  0  0  0  0  0  0  0  0  0  0
  185.8770  180.1080  147.8650 O   0  0  0  0  0  0  0  0  0  0  0  0
  1  4  1  0  0  0  0
  2  6  1  0  0  0  0
  2  3  2  0  0  0  0
  3 26  1  0  0  0  0
  3  9  1  0  0  0  0
  4 10  1  0  0  0  0
  5  4  2  0  0  0  0
  6  8  2  0  0  0  0
  7  2  1  0  0  0  0
  8  9  1  0  0  0  0
  8  1  1  0  0  0  0
  9  5  1  0  0  0  0
 10 24  1  0  0  0  0
 11 15  2  0  0  0  0
 11 18  1  0  0  0  0
 12 17  1  0  0  0  0
 13 12  2  0  0  0  0
 13 11  1  0  0  0  0
 14  6  1  0  0  0  0
 15 16  2  0  0  0  0
 17 18  2  0  0  0  0
 18 14  1  0  0  0  0
 19 20  1  0  0  0  0
 21 23  1  0  0  0  0
 21 19  2  0  0  0  0
 22 20  2  0  0  0  0
 22 12  1  0  0  0  0
 23 22  1  0  0  0  0
 24 25  1  0  0  0  0
 26 27  1  0  0  0  0
 27 28  1  0  0  0  0
 28 29  1  0  0  0  0
 29 30  1  0  0  0  0
 30 33  1  0  0  0  0
 31 33  1  0  0  0  0
 31 34  2  0  0  0  0
 33 35  1  0  0  0  0
 34 32  1  0  0  0  0
 35 36  2  0  0  0  0
 35 32  1  0  0  0  0
M  END
>  <MODEL>
2

>  <REMARK>
 VINA RESULT:      -8.2      3.246      6.167
  Name = 
  9 active torsions:
  status: ('A' for Active; 'I' for Inactive)
    1  A    between atoms: O_3  and  N_33
    2  A    between atoms: C_6  and  N_13
    3  A    between atoms: C_6  and  C_34
    4  A    between atoms: C_9  and  C_32
    5  A    between atoms: C_10  and  C_19
    6  A    between atoms: C_17  and  N_20
    7  A    between atoms: C_21  and  N_28
    8  A    between atoms: C_21  and  C_34
    9  A    between atoms: N_28  and  C_32
                            x       y       z     vdW  Elec       q    Type
                         _______ _______ _______ _____ _____    ______ ____

>  <TORSDO>
F 9

$$$$
=
 OpenBabel11042411323D

 36 40  0  0  0  0  0  0  0  0999 V2000
  185.1930  178.6160  142.5260 C   0  0  0  0  0  2  0  0  0  0  0  0
  185.5680  178.4880  138.9550 C   0  0  0  0  0  0  0  0  0  0  0  0
  186.8370  178.3790  139.5070 C   0  0  0  0  0  0  0  0  0  0  0  0
  186.5680  178.0870  142.8830 C   0  0  0  0  0  0  0  0  0  0  0  0
  187.4070  178.1100  141.8940 N   0  0  0  0  0  0  0  0  0  0  0  0
  184.6980  178.8730  139.9770 C   0  0  0  0  0  0  0  0  0  0  0  0
  185.2180  178.1150  137.6640 O   0  0  0  0  0  1  0  0  0  0  0  0
  185.4840  178.9580  141.1080 C   0  0  0  0  0  0  0  0  0  0  0  0
  186.7450  178.6850  140.8140 N   0  0  0  0  0  0  0  0  0  0  0  0
  186.9170  177.5570  144.1610 N   0  0  0  0  0  2  0  0  0  0  0  0
  180.9630  179.5060  139.1380 C   0  0  0  0  0  0  0  0  0  0  0  0
  181.5230  181.4140  138.3470 C   0  0  0  0  0  0  0  0  0  0  0  0
  180.4640  180.6830  138.5280 N   0  0  0  0  0  0  0  0  0  0  0  0
  183.2680  178.7810  139.9790 N   0  0  0  0  0  2  0  0  0  0  0  0
  180.2180  178.6210  139.7420 C   0  0  0  0  0  0  0  0  0  0  0  0
  179.5120  177.7800  140.3150 O   0  0  0  0  0  0  0  0  0  0  0  0
  182.7410  180.8310  138.8310 N   0  0  0  0  0  0  0  0  0  0  0  0
  182.3880  179.6810  139.2980 C   0  0  0  0  0  0  0  0  0  0  0  0
  181.9750  184.7630  137.2760 N   0  0  0  0  0  0  0  0  0  0  0  0
  182.3330  183.7310  138.0180 N   0  0  0  0  0  0  0  0  0  0  0  0
  180.9030  184.3860  136.5520 C   0  0  0  0  0  3  0  0  0  0  0  0
  181.4710  182.7420  137.7320 C   0  0  0  0  0  0  0  0  0  0  0  0
  180.5550  183.1090  136.8160 N   0  0  0  0  0  2  0  0  0  0  0  0
  186.0220  177.5260  145.1780 O   0  0  0  0  0  0  0  0  0  0  0  0
  186.7050  178.0550  146.2750 C   0  0  0  0  0  1  0  0  0  0  0  0
  187.9920  177.6700  138.8840 C   0  0  0  0  0  2  0  0  0  0  0  0
  189.1460  178.5500  138.8450 N   0  0  0  0  0  2  0  0  0  0  0  0
  190.3220  177.7010  138.9360 C   0  0  0  0  0  2  0  0  0  0  0  0
  190.2900  176.9020  140.2300 C   0  0  0  0  0  2  0  0  0  0  0  0
  191.4050  177.3340  141.1750 C   0  0  0  0  0  2  0  0  0  0  0  0
  190.9420  178.6770  143.3050 C   0  0  0  0  0  3  0  0  0  0  0  0
  190.2170  176.7940  144.7450 C   0  0  0  0  0  2  0  0  0  0  0  0
  190.9110  177.4490  142.5390 N   0  0  0  0  0  0  0  0  0  0  0  0
  190.4220  178.3130  144.7030 C   0  0  0  0  0  3  0  0  0  0  0  0
  190.5310  176.3730  143.3680 C   0  0  0  0  0  0  0  0  0  0  0  0
  190.4850  175.1790  142.9720 O   0  0  0  0  0  0  0  0  0  0  0  0
  1  4  1  0  0  0  0
  2  3  2  0  0  0  0
  2  6  1  0  0  0  0
  3  9  1  0  0  0  0
  4 10  1  0  0  0  0
  5  4  2  0  0  0  0
  6 14  1  0  0  0  0
  6  8  2  0  0  0  0
  7  2  1  0  0  0  0
  8  1  1  0  0  0  0
  9  8  1  0  0  0  0
  9  5  1  0  0  0  0
 10 24  1  0  0  0  0
 11 18  1  0  0  0  0
 11 15  2  0  0  0  0
 12 13  2  0  0  0  0
 12 17  1  0  0  0  0
 13 11  1  0  0  0  0
 15 16  2  0  0  0  0
 17 18  2  0  0  0  0
 18 14  1  0  0  0  0
 19 20  1  0  0  0  0
 21 23  1  0  0  0  0
 21 19  2  0  0  0  0
 22 20  2  0  0  0  0
 22 12  1  0  0  0  0
 23 22  1  0  0  0  0
 24 25  1  0  0  0  0
 26  3  1  0  0  0  0
 27 26  1  0  0  0  0
 27 28  1  0  0  0  0
 28 29  1  0  0  0  0
 29 30  1  0  0  0  0
 30 33  1  0  0  0  0
 31 34  2  0  0  0  0
 33 31  1  0  0  0  0
 33 35  1  0  0  0  0
 34 32  1  0  0  0  0
 35 32  1  0  0  0  0
 36 35  2  0  0  0  0
M  END
>  <MODEL>
3

>  <REMARK>
 VINA RESULT:      -8.1      3.363      7.827
  Name = 
  9 active torsions:
  status: ('A' for Active; 'I' for Inactive)
    1  A    between atoms: O_3  and  N_33
    2  A    between atoms: C_6  and  N_13
    3  A    between atoms: C_6  and  C_34
    4  A    between atoms: C_9  and  C_32
    5  A    between atoms: C_10  and  C_19
    6  A    between atoms: C_17  and  N_20
    7  A    between atoms: C_21  and  N_28
    8  A    between atoms: C_21  and  C_34
    9  A    between atoms: N_28  and  C_32
                            x       y       z     vdW  Elec       q    Type
                         _______ _______ _______ _____ _____    ______ ____

>  <TORSDO>
F 9

$$$$
=
 OpenBabel11042411323D

 36 40  0  0  0  0  0  0  0  0999 V2000
  187.1850  177.2350  137.1660 C   0  0  0  0  0  2  0  0  0  0  0  0
  190.0080  176.9490  139.3700 C   0  0  0  0  0  0  0  0  0  0  0  0
  189.1520  177.8940  139.9170 C   0  0  0  0  0  0  0  0  0  0  0  0
  186.2630  177.9580  138.1260 C   0  0  0  0  0  0  0  0  0  0  0  0
  186.8750  178.4630  139.1530 N   0  0  0  0  0  0  0  0  0  0  0  0
  189.5720  176.6920  138.0680 C   0  0  0  0  0  0  0  0  0  0  0  0
  191.0040  176.2700  140.0610 O   0  0  0  0  0  1  0  0  0  0  0  0
  188.4550  177.4840  137.8980 C   0  0  0  0  0  0  0  0  0  0  0  0
  188.2310  178.2030  138.9860 N   0  0  0  0  0  0  0  0  0  0  0  0
  184.8470  178.0420  137.9700 N   0  0  0  0  0  2  0  0  0  0  0  0
  191.6180  174.1170  136.0080 C   0  0  0  0  0  0  0  0  0  0  0  0
  193.1990  175.5550  135.8890 C   0  0  0  0  0  0  0  0  0  0  0  0
  192.9200  174.3470  135.4980 N   0  0  0  0  0  0  0  0  0  0  0  0
  189.9130  175.5690  137.2460 N   0  0  0  0  0  2  0  0  0  0  0  0
  190.8410  173.1420  135.6230 C   0  0  0  0  0  0  0  0  0  0  0  0
  190.1040  172.2170  135.2580 O   0  0  0  0  0  0  0  0  0  0  0  0
  192.1480  176.2050  136.6170 N   0  0  0  0  0  0  0  0  0  0  0  0
  191.2080  175.3250  136.6860 C   0  0  0  0  0  0  0  0  0  0  0  0
  196.5320  176.7420  135.6830 N   0  0  0  0  0  0  0  0  0  0  0  0
  195.6140  175.9750  136.2410 N   0  0  0  0  0  0  0  0  0  0  0  0
  195.9350  177.4310  134.6910 C   0  0  0  0  0  3  0  0  0  0  0  0
  194.4710  176.2120  135.5780 C   0  0  0  0  0  0  0  0  0  0  0  0
  194.6260  177.1190  134.5960 N   0  0  0  0  0  2  0  0  0  0  0  0
  184.2240  177.4940  136.9000 O   0  0  0  0  0  0  0  0  0  0  0  0
  182.8740  177.8100  137.0680 C   0  0  0  0  0  1  0  0  0  0  0  0
  189.0230  178.2050  141.3700 C   0  0  0  0  0  2  0  0  0  0  0  0
  188.5010  177.0480  142.0760 N   0  0  0  0  0  2  0  0  0  0  0  0
  188.8850  177.2000  143.4690 C   0  0  0  0  0  2  0  0  0  0  0  0
  187.7460  176.7580  144.3750 C   0  0  0  0  0  2  0  0  0  0  0  0
  187.2060  177.9240  145.1950 C   0  0  0  0  0  2  0  0  0  0  0  0
  185.3590  178.3190  143.4660 C   0  0  0  0  0  3  0  0  0  0  0  0
  183.5640  179.0020  145.0340 C   0  0  0  0  0  2  0  0  0  0  0  0
  185.8270  178.2180  144.8320 N   0  0  0  0  0  0  0  0  0  0  0  0
  183.8850  178.7380  143.5580 C   0  0  0  0  0  3  0  0  0  0  0  0
  184.8170  178.6380  145.7200 C   0  0  0  0  0  0  0  0  0  0  0  0
  184.9790  178.7110  146.9670 O   0  0  0  0  0  0  0  0  0  0  0  0
  1  8  1  0  0  0  0
  1  4  1  0  0  0  0
  2  3  2  0  0  0  0
  2  7  1  0  0  0  0
  3 26  1  0  0  0  0
  4  5  2  0  0  0  0
  6  2  1  0  0  0  0
  8  6  2  0  0  0  0
  8  9  1  0  0  0  0
  9  5  1  0  0  0  0
  9  3  1  0  0  0  0
 10  4  1  0  0  0  0
 11 18  1  0  0  0  0
 12 17  1  0  0  0  0
 13 12  2  0  0  0  0
 13 11  1  0  0  0  0
 14  6  1  0  0  0  0
 15 11  2  0  0  0  0
 16 15  2  0  0  0  0
 17 18  2  0  0  0  0
 18 14  1  0  0  0  0
 19 20  1  0  0  0  0
 21 19  2  0  0  0  0
 22 12  1  0  0  0  0
 22 20  2  0  0  0  0
 23 21  1  0  0  0  0
 23 22  1  0  0  0  0
 24 25  1  0  0  0  0
 24 10  1  0  0  0  0
 26 27  1  0  0  0  0
 27 28  1  0  0  0  0
 28 29  1  0  0  0  0
 29 30  1  0  0  0  0
 31 34  2  0  0  0  0
 31 33  1  0  0  0  0
 32 35  1  0  0  0  0
 33 30  1  0  0  0  0
 33 35  1  0  0  0  0
 34 32  1  0  0  0  0
 35 36  2  0  0  0  0
M  END
>  <MODEL>
4

>  <REMARK>
 VINA RESULT:      -8.0      3.735      5.579
  Name = 
  9 active torsions:
  status: ('A' for Active; 'I' for Inactive)
    1  A    between atoms: O_3  and  N_33
    2  A    between atoms: C_6  and  N_13
    3  A    between atoms: C_6  and  C_34
    4  A    between atoms: C_9  and  C_32
    5  A    between atoms: C_10  and  C_19
    6  A    between atoms: C_17  and  N_20
    7  A    between atoms: C_21  and  N_28
    8  A    between atoms: C_21  and  C_34
    9  A    between atoms: N_28  and  C_32
                            x       y       z     vdW  Elec       q    Type
                         _______ _______ _______ _____ _____    ______ ____

>  <TORSDO>
F 9

$$$$
=
 OpenBabel11042411323D

 36 40  0  0  0  0  0  0  0  0999 V2000
  185.7980  178.3810  140.7540 C   0  0  0  0  0  2  0  0  0  0  0  0
  184.2280  178.6550  143.9740 C   0  0  0  0  0  0  0  0  0  0  0  0
  185.5530  178.3030  144.1900 C   0  0  0  0  0  0  0  0  0  0  0  0
  187.2340  178.4060  141.2370 C   0  0  0  0  0  0  0  0  0  0  0  0
  187.3580  178.1870  142.5100 N   0  0  0  0  0  0  0  0  0  0  0  0
  183.9690  178.4970  142.6120 C   0  0  0  0  0  0  0  0  0  0  0  0
  183.3820  179.2200  144.9200 O   0  0  0  0  0  1  0  0  0  0  0  0
  185.1620  178.0740  142.0630 C   0  0  0  0  0  0  0  0  0  0  0  0
  186.0820  177.9440  143.0060 N   0  0  0  0  0  0  0  0  0  0  0  0
  188.3560  178.6940  140.4040 N   0  0  0  0  0  2  0  0  0  0  0  0
  180.8640  178.8060  140.3050 C   0  0  0  0  0  0  0  0  0  0  0  0
  181.3680  176.9020  139.4670 C   0  0  0  0  0  0  0  0  0  0  0  0
  180.4710  177.8350  139.3500 N   0  0  0  0  0  0  0  0  0  0  0  0
  182.8760  179.0480  141.8680 N   0  0  0  0  0  2  0  0  0  0  0  0
  180.4100  180.0290  140.3370 C   0  0  0  0  0  0  0  0  0  0  0  0
  179.9790  181.1890  140.3680 O   0  0  0  0  0  0  0  0  0  0  0  0
  182.3960  177.1780  140.4290 N   0  0  0  0  0  0  0  0  0  0  0  0
  182.0750  178.3230  140.9280 C   0  0  0  0  0  0  0  0  0  0  0  0
  181.9880  174.1640  137.3040 N   0  0  0  0  0  2  0  0  0  0  0  0
  182.3670  175.2950  137.8700 N   0  0  0  0  0  0  0  0  0  0  0  0
  180.7500  173.8820  137.7540 C   0  0  0  0  0  3  0  0  0  0  0  0
  181.3500  175.6830  138.6560 C   0  0  0  0  0  0  0  0  0  0  0  0
  180.3130  174.8250  138.6140 N   0  0  0  0  0  0  0  0  0  0  0  0
  188.2060  178.9360  139.0800 O   0  0  0  0  0  0  0  0  0  0  0  0
  188.7760  177.8300  138.4440 C   0  0  0  0  0  1  0  0  0  0  0  0
  186.3510  178.6440  145.4040 C   0  0  0  0  0  2  0  0  0  0  0  0
  186.5550  177.4530  146.2080 N   0  0  0  0  0  2  0  0  0  0  0  0
  186.8700  177.9050  147.5520 C   0  0  0  0  0  2  0  0  0  0  0  0
  188.0850  177.1610  148.0830 C   0  0  0  0  0  2  0  0  0  0  0  0
  189.3680  177.9430  147.8270 C   0  0  0  0  0  2  0  0  0  0  0  0
  191.3300  176.3360  147.4710 C   0  0  0  0  0  3  0  0  0  0  0  0
  191.4910  176.5340  145.0050 C   0  0  0  0  0  2  0  0  0  0  0  0
  190.2720  177.1880  146.9710 N   0  0  0  0  0  0  0  0  0  0  0  0
  192.0830  175.8290  146.2320 C   0  0  0  0  0  3  0  0  0  0  0  0
  190.3850  177.3260  145.5720 C   0  0  0  0  0  0  0  0  0  0  0  0
  189.6290  178.0640  144.8880 O   0  0  0  0  0  0  0  0  0  0  0  0
  1  4  1  0  0  0  0
  1  8  1  0  0  0  0
  2  3  2  0  0  0  0
  2  7  1  0  0  0  0
  3 26  1  0  0  0  0
  4  5  2  0  0  0  0
  5  9  1  0  0  0  0
  6  2  1  0  0  0  0
  8  6  2  0  0  0  0
  8  9  1  0  0  0  0
  9  3  1  0  0  0  0
 10  4  1  0  0  0  0
 11 15  2  0  0  0  0
 11 18  1  0  0  0  0
 12 17  1  0  0  0  0
 13 12  2  0  0  0  0
 13 11  1  0  0  0  0
 14  6  1  0  0  0  0
 15 16  2  0  0  0  0
 17 18  2  0  0  0  0
 18 14  1  0  0  0  0
 19 21  1  0  0  0  0
 19 20  1  0  0  0  0
 20 22  2  0  0  0  0
 21 23  2  0  0  0  0
 22 12  1  0  0  0  0
 23 22  1  0  0  0  0
 24 10  1  0  0  0  0
 25 24  1  0  0  0  0
 26 27  1  0  0  0  0
 27 28  1  0  0  0  0
 28 29  1  0  0  0  0
 30 29  1  0  0  0  0
 32 35  1  0  0  0  0
 32 34  1  0  0  0  0
 33 31  1  0  0  0  0
 33 30  1  0  0  0  0
 34 31  2  0  0  0  0
 35 33  1  0  0  0  0
 36 35  2  0  0  0  0
M  END
>  <MODEL>
5

>  <REMARK>
 VINA RESULT:      -7.9      2.342      6.647
  Name = 
  9 active torsions:
  status: ('A' for Active; 'I' for Inactive)
    1  A    between atoms: O_3  and  N_33
    2  A    between atoms: C_6  and  N_13
    3  A    between atoms: C_6  and  C_34
    4  A    between atoms: C_9  and  C_32
    5  A    between atoms: C_10  and  C_19
    6  A    between atoms: C_17  and  N_20
    7  A    between atoms: C_21  and  N_28
    8  A    between atoms: C_21  and  C_34
    9  A    between atoms: N_28  and  C_32
                            x       y       z     vdW  Elec       q    Type
                         _______ _______ _______ _____ _____    ______ ____

>  <TORSDO>
F 9

$$$$
=
 OpenBabel11042411323D

 36 40  0  0  0  0  0  0  0  0999 V2000
  182.0530  175.3460  138.3850 C   0  0  0  0  0  2  0  0  0  0  0  0
  184.3840  178.0570  138.7270 C   0  0  0  0  0  0  0  0  0  0  0  0
  184.8780  177.2110  137.7440 C   0  0  0  0  0  0  0  0  0  0  0  0
  182.5590  174.8230  137.0560 C   0  0  0  0  0  0  0  0  0  0  0  0
  183.7320  175.2710  136.7340 N   0  0  0  0  0  0  0  0  0  0  0  0
  183.3410  177.3900  139.3710 C   0  0  0  0  0  0  0  0  0  0  0  0
  184.7580  179.3830  138.9090 O   0  0  0  0  0  1  0  0  0  0  0  0
  183.2400  176.1720  138.7290 C   0  0  0  0  0  0  0  0  0  0  0  0
  184.1650  176.0710  137.7870 N   0  0  0  0  0  0  0  0  0  0  0  0
  181.8130  173.9620  136.1950 N   0  0  0  0  0  2  0  0  0  0  0  0
  181.5640  179.2150  142.2980 C   0  0  0  0  0  0  0  0  0  0  0  0
  183.2920  178.8400  143.5050 C   0  0  0  0  0  0  0  0  0  0  0  0
  182.1240  179.4020  143.5870 N   0  0  0  0  0  0  0  0  0  0  0  0
  182.3230  177.9650  140.1980 N   0  0  0  0  0  2  0  0  0  0  0  0
  180.3010  179.3760  142.0170 C   0  0  0  0  0  0  0  0  0  0  0  0
  179.1020  179.5300  141.7490 O   0  0  0  0  0  0  0  0  0  0  0  0
  183.5750  178.2320  142.2370 N   0  0  0  0  0  0  0  0  0  0  0  0
  182.5290  178.4720  141.5210 C   0  0  0  0  0  0  0  0  0  0  0  0
  184.9710  178.8680  146.6270 N   0  0  0  0  0  0  0  0  0  0  0  0
  183.8670  178.9720  145.9100 N   0  0  0  0  0  0  0  0  0  0  0  0
  185.9860  178.6310  145.7720 C   0  0  0  0  0  3  0  0  0  0  0  0
  184.2300  178.7980  144.6290 C   0  0  0  0  0  0  0  0  0  0  0  0
  185.5520  178.5810  144.4960 N   0  0  0  0  0  2  0  0  0  0  0  0
  180.5820  173.5170  136.5410 O   0  0  0  0  0  0  0  0  0  0  0  0
  179.6920  174.3410  135.8490 C   0  0  0  0  0  1  0  0  0  0  0  0
  185.7430  177.6250  136.6020 C   0  0  0  0  0  2  0  0  0  0  0  0
  187.0510  177.0080  136.7270 N   0  0  0  0  0  2  0  0  0  0  0  0
  187.8770  177.9280  137.4900 C   0  0  0  0  0  2  0  0  0  0  0  0
  188.6880  177.1650  138.5250 C   0  0  0  0  0  2  0  0  0  0  0  0
  189.3260  178.1120  139.5350 C   0  0  0  0  0  2  0  0  0  0  0  0
  190.2350  176.6040  141.3950 C   0  0  0  0  0  3  0  0  0  0  0  0
  188.3650  176.8760  142.9990 C   0  0  0  0  0  2  0  0  0  0  0  0
  189.2700  177.5510  140.8770 N   0  0  0  0  0  0  0  0  0  0  0  0
  189.7320  176.2130  142.7920 C   0  0  0  0  0  3  0  0  0  0  0  0
  188.1910  177.6790  141.7760 C   0  0  0  0  0  0  0  0  0  0  0  0
  187.1790  178.3910  141.5430 O   0  0  0  0  0  0  0  0  0  0  0  0
  1  8  1  0  0  0  0
  2  7  1  0  0  0  0
  2  6  1  0  0  0  0
  3  9  1  0  0  0  0
  3  2  2  0  0  0  0
  4  1  1  0  0  0  0
  5  4  2  0  0  0  0
  5  9  1  0  0  0  0
  6 14  1  0  0  0  0
  8  6  2  0  0  0  0
  9  8  1  0  0  0  0
 10 24  1  0  0  0  0
 10  4  1  0  0  0  0
 11 13  1  0  0  0  0
 12 13  2  0  0  0  0
 12 22  1  0  0  0  0
 14 18  1  0  0  0  0
 15 11  2  0  0  0  0
 16 15  2  0  0  0  0
 17 12  1  0  0  0  0
 18 17  2  0  0  0  0
 18 11  1  0  0  0  0
 20 19  1  0  0  0  0
 21 19  2  0  0  0  0
 22 20  2  0  0  0  0
 23 22  1  0  0  0  0
 23 21  1  0  0  0  0
 25 24  1  0  0  0  0
 26 27  1  0  0  0  0
 26  3  1  0  0  0  0
 27 28  1  0  0  0  0
 28 29  1  0  0  0  0
 29 30  1  0  0  0  0
 30 33  1  0  0  0  0
 31 34  2  0  0  0  0
 33 31  1  0  0  0  0
 33 35  1  0  0  0  0
 34 32  1  0  0  0  0
 35 32  1  0  0  0  0
 36 35  2  0  0  0  0
M  END
>  <MODEL>
6

>  <REMARK>
 VINA RESULT:      -7.8      2.238      6.145
  Name = 
  9 active torsions:
  status: ('A' for Active; 'I' for Inactive)
    1  A    between atoms: O_3  and  N_33
    2  A    between atoms: C_6  and  N_13
    3  A    between atoms: C_6  and  C_34
    4  A    between atoms: C_9  and  C_32
    5  A    between atoms: C_10  and  C_19
    6  A    between atoms: C_17  and  N_20
    7  A    between atoms: C_21  and  N_28
    8  A    between atoms: C_21  and  C_34
    9  A    between atoms: N_28  and  C_32
                            x       y       z     vdW  Elec       q    Type
                         _______ _______ _______ _____ _____    ______ ____

>  <TORSDO>
F 9

$$$$
=
 OpenBabel11042411323D

 36 40  0  0  0  0  0  0  0  0999 V2000
  188.9470  177.9710  137.6580 C   0  0  0  0  0  2  0  0  0  0  0  0
  189.9500  177.0460  140.9810 C   0  0  0  0  0  0  0  0  0  0  0  0
  188.6860  177.6120  141.0750 C   0  0  0  0  0  0  0  0  0  0  0  0
  187.4710  178.1600  137.9470 C   0  0  0  0  0  0  0  0  0  0  0  0
  187.1980  178.2520  139.2120 N   0  0  0  0  0  0  0  0  0  0  0  0
  190.4320  177.3060  139.6970 C   0  0  0  0  0  0  0  0  0  0  0  0
  190.5380  176.2290  141.9380 O   0  0  0  0  0  1  0  0  0  0  0  0
  189.4220  178.0040  139.0660 C   0  0  0  0  0  0  0  0  0  0  0  0
  188.4080  178.1960  139.8950 N   0  0  0  0  0  0  0  0  0  0  0  0
  186.4530  178.1830  136.9470 N   0  0  0  0  0  2  0  0  0  0  0  0
  192.4320  175.0780  137.2290 C   0  0  0  0  0  0  0  0  0  0  0  0
  190.6310  173.9870  136.8440 C   0  0  0  0  0  0  0  0  0  0  0  0
  191.8810  174.0020  136.4880 N   0  0  0  0  0  0  0  0  0  0  0  0
  191.5150  176.6490  139.0280 N   0  0  0  0  0  2  0  0  0  0  0  0
  193.7110  175.2780  137.3900 C   0  0  0  0  0  0  0  0  0  0  0  0
  194.9250  175.4680  137.5430 O   0  0  0  0  0  0  0  0  0  0  0  0
  190.2760  174.9720  137.8250 N   0  0  0  0  0  0  0  0  0  0  0  0
  191.3690  175.6240  138.0400 C   0  0  0  0  0  0  0  0  0  0  0  0
  187.8690  171.9030  136.0750 N   0  0  0  0  0  0  0  0  0  0  0  0
  188.4300  172.8530  136.8000 N   0  0  0  0  0  0  0  0  0  0  0  0
  188.7750  171.5070  135.1590 C   0  0  0  0  0  3  0  0  0  0  0  0
  189.6700  173.0180  136.3120 C   0  0  0  0  0  0  0  0  0  0  0  0
  189.9290  172.1930  135.2810 N   0  0  0  0  0  2  0  0  0  0  0  0
  186.7560  178.0700  135.6320 O   0  0  0  0  0  0  0  0  0  0  0  0
  185.7430  177.2730  135.0960 C   0  0  0  0  0  1  0  0  0  0  0  0
  187.6710  177.2910  142.1190 C   0  0  0  0  0  2  0  0  0  0  0  0
  186.8160  178.4420  142.3440 N   0  0  0  0  0  2  0  0  0  0  0  0
  186.1500  178.2250  143.6170 C   0  0  0  0  0  2  0  0  0  0  0  0
  186.9960  177.3230  144.5020 C   0  0  0  0  0  2  0  0  0  0  0  0
  187.6720  178.1140  145.6150 C   0  0  0  0  0  2  0  0  0  0  0  0
  189.1680  176.7520  147.1840 C   0  0  0  0  0  3  0  0  0  0  0  0
  191.3190  177.1180  146.0080 C   0  0  0  0  0  2  0  0  0  0  0  0
  188.9490  177.5150  145.9740 N   0  0  0  0  0  0  0  0  0  0  0  0
  190.6640  176.4060  147.1980 C   0  0  0  0  0  3  0  0  0  0  0  0
  190.1780  177.7510  145.3230 C   0  0  0  0  0  0  0  0  0  0  0  0
  190.2840  178.4440  144.2780 O   0  0  0  0  0  0  0  0  0  0  0  0
  1  4  1  0  0  0  0
  1  8  1  0  0  0  0
  2  3  2  0  0  0  0
  2  7  1  0  0  0  0
  3 26  1  0  0  0  0
  4  5  2  0  0  0  0
  5  9  1  0  0  0  0
  6  2  1  0  0  0  0
  8  6  2  0  0  0  0
  8  9  1  0  0  0  0
  9  3  1  0  0  0  0
 10  4  1  0  0  0  0
 11 15  2  0  0  0  0
 11 18  1  0  0  0  0
 12 17  1  0  0  0  0
 13 12  2  0  0  0  0
 13 11  1  0  0  0  0
 14  6  1  0  0  0  0
 15 16  2  0  0  0  0
 17 18  2  0  0  0  0
 18 14  1  0  0  0  0
 19 20  1  0  0  0  0
 21 23  1  0  0  0  0
 21 19  2  0  0  0  0
 22 20  2  0  0  0  0
 22 12  1  0  0  0  0
 23 22  1  0  0  0  0
 24 10  1  0  0  0  0
 25 24  1  0  0  0  0
 26 27  1  0  0  0  0
 27 28  1  0  0  0  0
 28 29  1  0  0  0  0
 29 30  1  0  0  0  0
 30 33  1  0  0  0  0
 31 34  2  0  0  0  0
 32 34  1  0  0  0  0
 33 31  1  0  0  0  0
 35 33  1  0  0  0  0
 35 32  1  0  0  0  0
 36 35  2  0  0  0  0
M  END
>  <MODEL>
7

>  <REMARK>
 VINA RESULT:      -7.8      3.456      5.159
  Name = 
  9 active torsions:
  status: ('A' for Active; 'I' for Inactive)
    1  A    between atoms: O_3  and  N_33
    2  A    between atoms: C_6  and  N_13
    3  A    between atoms: C_6  and  C_34
    4  A    between atoms: C_9  and  C_32
    5  A    between atoms: C_10  and  C_19
    6  A    between atoms: C_17  and  N_20
    7  A    between atoms: C_21  and  N_28
    8  A    between atoms: C_21  and  C_34
    9  A    between atoms: N_28  and  C_32
                            x       y       z     vdW  Elec       q    Type
                         _______ _______ _______ _____ _____    ______ ____

>  <TORSDO>
F 9

$$$$
=
 OpenBabel11042411323D

 36 40  0  0  0  0  0  0  0  0999 V2000
  185.1170  178.4560  140.9030 C   0  0  0  0  0  2  0  0  0  0  0  0
  184.0640  178.7770  144.3230 C   0  0  0  0  0  0  0  0  0  0  0  0
  185.3840  178.3480  144.3370 C   0  0  0  0  0  0  0  0  0  0  0  0
  186.6080  178.3940  141.1660 C   0  0  0  0  0  0  0  0  0  0  0  0
  186.9080  178.1520  142.4050 N   0  0  0  0  0  0  0  0  0  0  0  0
  183.5950  178.6510  143.0140 C   0  0  0  0  0  0  0  0  0  0  0  0
  183.4010  179.3770  145.3870 O   0  0  0  0  0  1  0  0  0  0  0  0
  184.6670  178.1690  142.2910 C   0  0  0  0  0  0  0  0  0  0  0  0
  185.7080  177.9740  143.0860 N   0  0  0  0  0  0  0  0  0  0  0  0
  187.6090  178.6280  140.1760 N   0  0  0  0  0  2  0  0  0  0  0  0
  180.2360  179.1740  141.1440 C   0  0  0  0  0  0  0  0  0  0  0  0
  180.5590  177.3020  140.1580 C   0  0  0  0  0  0  0  0  0  0  0  0
  179.6900  178.2660  140.2020 N   0  0  0  0  0  0  0  0  0  0  0  0
  182.4370  179.2720  142.4440 N   0  0  0  0  0  2  0  0  0  0  0  0
  179.8340  180.4060  141.2920 C   0  0  0  0  0  0  0  0  0  0  0  0
  179.4530  181.5750  141.4340 O   0  0  0  0  0  0  0  0  0  0  0  0
  181.7110  177.4960  140.9910 N   0  0  0  0  0  0  0  0  0  0  0  0
  181.4970  178.6230  141.5820 C   0  0  0  0  0  0  0  0  0  0  0  0
  180.0180  174.1160  138.6990 N   0  0  0  0  0  0  0  0  0  0  0  0
  180.0790  174.9060  139.7560 N   0  0  0  0  0  0  0  0  0  0  0  0
  180.2960  174.8700  137.6170 C   0  0  0  0  0  3  0  0  0  0  0  0
  180.3940  176.1270  139.2980 C   0  0  0  0  0  0  0  0  0  0  0  0
  180.5390  176.1510  137.9600 N   0  0  0  0  0  2  0  0  0  0  0  0
  187.2770  178.8950  138.8900 O   0  0  0  0  0  0  0  0  0  0  0  0
  187.6960  177.7750  138.1690 C   0  0  0  0  0  1  0  0  0  0  0  0
  186.3710  178.6270  145.4190 C   0  0  0  0  0  2  0  0  0  0  0  0
  186.6420  177.4100  146.1640 N   0  0  0  0  0  2  0  0  0  0  0  0
  187.9580  177.5680  146.7590 C   0  0  0  0  0  2  0  0  0  0  0  0
  188.9560  178.0210  145.7050 C   0  0  0  0  0  2  0  0  0  0  0  0
  190.0720  176.9990  145.5240 C   0  0  0  0  0  2  0  0  0  0  0  0
  191.6270  177.7660  143.6400 C   0  0  0  0  0  3  0  0  0  0  0  0
  190.4890  176.6110  141.7650 C   0  0  0  0  0  2  0  0  0  0  0  0
  190.5280  176.9700  144.1410 N   0  0  0  0  0  0  0  0  0  0  0  0
  191.6870  177.4960  142.1290 C   0  0  0  0  0  3  0  0  0  0  0  0
  189.8610  176.3400  143.0700 C   0  0  0  0  0  0  0  0  0  0  0  0
  188.8270  175.6360  143.2180 O   0  0  0  0  0  0  0  0  0  0  0  0
  1  4  1  0  0  0  0
  1  8  1  0  0  0  0
  2  3  2  0  0  0  0
  2  7  1  0  0  0  0
  3 26  1  0  0  0  0
  4  5  2  0  0  0  0
  5  9  1  0  0  0  0
  6  2  1  0  0  0  0
  8  6  2  0  0  0  0
  8  9  1  0  0  0  0
  9  3  1  0  0  0  0
 10  4  1  0  0  0  0
 11 15  2  0  0  0  0
 11 18  1  0  0  0  0
 12 13  2  0  0  0  0
 12 17  1  0  0  0  0
 13 11  1  0  0  0  0
 14  6  1  0  0  0  0
 15 16  2  0  0  0  0
 17 18  2  0  0  0  0
 18 14  1  0  0  0  0
 19 20  1  0  0  0  0
 21 23  1  0  0  0  0
 21 19  2  0  0  0  0
 22 20  2  0  0  0  0
 22 12  1  0  0  0  0
 23 22  1  0  0  0  0
 24 10  1  0  0  0  0
 25 24  1  0  0  0  0
 26 27  1  0  0  0  0
 27 28  1  0  0  0  0
 29 28  1  0  0  0  0
 30 29  1  0  0  0  0
 31 33  1  0  0  0  0
 32 34  1  0  0  0  0
 32 35  1  0  0  0  0
 33 30  1  0  0  0  0
 34 31  2  0  0  0  0
 35 36  2  0  0  0  0
 35 33  1  0  0  0  0
M  END
>  <MODEL>
8

>  <REMARK>
 VINA RESULT:      -7.8      2.449      7.116
  Name = 
  9 active torsions:
  status: ('A' for Active; 'I' for Inactive)
    1  A    between atoms: O_3  and  N_33
    2  A    between atoms: C_6  and  N_13
    3  A    between atoms: C_6  and  C_34
    4  A    between atoms: C_9  and  C_32
    5  A    between atoms: C_10  and  C_19
    6  A    between atoms: C_17  and  N_20
    7  A    between atoms: C_21  and  N_28
    8  A    between atoms: C_21  and  C_34
    9  A    between atoms: N_28  and  C_32
                            x       y       z     vdW  Elec       q    Type
                         _______ _______ _______ _____ _____    ______ ____

>  <TORSDO>
F 9

$$$$
=
 OpenBabel11042411323D

 36 40  0  0  0  0  0  0  0  0999 V2000
  192.6070  177.0660  140.4240 C   0  0  0  0  0  2  0  0  0  0  0  0
  189.0890  177.5510  140.9680 C   0  0  0  0  0  0  0  0  0  0  0  0
  189.2930  177.5210  139.5960 C   0  0  0  0  0  0  0  0  0  0  0  0
  192.5230  176.6700  138.9640 C   0  0  0  0  0  0  0  0  0  0  0  0
  191.3850  176.9560  138.4120 N   0  0  0  0  0  0  0  0  0  0  0  0
  190.3410  177.6540  141.5770 C   0  0  0  0  0  0  0  0  0  0  0  0
  187.8710  177.3430  141.6050 O   0  0  0  0  0  1  0  0  0  0  0  0
  191.2490  177.6610  140.5380 C   0  0  0  0  0  0  0  0  0  0  0  0
  190.6180  177.6040  139.3760 N   0  0  0  0  0  0  0  0  0  0  0  0
  193.5610  175.9950  138.2550 N   0  0  0  0  0  2  0  0  0  0  0  0
  189.9960  176.9300  145.3730 C   0  0  0  0  0  0  0  0  0  0  0  0
  188.0210  177.7510  145.2920 C   0  0  0  0  0  0  0  0  0  0  0  0
  188.8450  177.2230  146.1470 N   0  0  0  0  0  0  0  0  0  0  0  0
  190.6650  177.3800  142.9450 N   0  0  0  0  0  2  0  0  0  0  0  0
  191.1660  176.6460  145.8770 C   0  0  0  0  0  0  0  0  0  0  0  0
  192.2760  176.3770  146.3550 O   0  0  0  0  0  0  0  0  0  0  0  0
  188.5410  177.8800  143.9620 N   0  0  0  0  0  0  0  0  0  0  0  0
  189.7270  177.3760  144.0260 C   0  0  0  0  0  0  0  0  0  0  0  0
  185.0470  178.8580  146.8720 N   0  0  0  0  0  0  0  0  0  0  0  0
  186.3090  178.4740  146.9290 N   0  0  0  0  0  0  0  0  0  0  0  0
  184.6730  178.8210  145.5780 C   0  0  0  0  0  3  0  0  0  0  0  0
  186.6810  178.2100  145.6670 C   0  0  0  0  0  0  0  0  0  0  0  0
  185.6850  178.4140  144.7850 N   0  0  0  0  0  2  0  0  0  0  0  0
  194.7380  175.6890  138.8530 O   0  0  0  0  0  0  0  0  0  0  0  0
  195.0630  174.4160  138.3790 C   0  0  0  0  0  1  0  0  0  0  0  0
  188.2940  177.0740  138.5830 C   0  0  0  0  0  2  0  0  0  0  0  0
  187.4750  178.2000  138.1700 N   0  0  0  0  0  2  0  0  0  0  0  0
  186.5750  177.7070  137.1420 C   0  0  0  0  0  2  0  0  0  0  0  0
  185.1850  177.4970  137.7220 C   0  0  0  0  0  2  0  0  0  0  0  0
  184.6110  178.7980  138.2700 C   0  0  0  0  0  2  0  0  0  0  0  0
  182.5980  178.0970  139.6900 C   0  0  0  0  0  3  0  0  0  0  0  0
  183.5010  178.7460  141.9060 C   0  0  0  0  0  2  0  0  0  0  0  0
  183.9570  178.5760  139.5520 N   0  0  0  0  0  0  0  0  0  0  0  0
  182.2990  178.1110  141.1960 C   0  0  0  0  0  3  0  0  0  0  0  0
  184.4570  178.9760  140.8080 C   0  0  0  0  0  0  0  0  0  0  0  0
  185.5950  179.4910  140.9660 O   0  0  0  0  0  0  0  0  0  0  0  0
  1  8  1  0  0  0  0
  2  6  1  0  0  0  0
  2  7  1  0  0  0  0
  3  2  2  0  0  0  0
  4  1  1  0  0  0  0
  5  4  2  0  0  0  0
  5  9  1  0  0  0  0
  6 14  1  0  0  0  0
  8  6  2  0  0  0  0
  9  3  1  0  0  0  0
  9  8  1  0  0  0  0
 10 24  1  0  0  0  0
 10  4  1  0  0  0  0
 11 15  2  0  0  0  0
 11 13  1  0  0  0  0
 12 22  1  0  0  0  0
 12 13  2  0  0  0  0
 14 18  1  0  0  0  0
 15 16  2  0  0  0  0
 17 18  2  0  0  0  0
 17 12  1  0  0  0  0
 18 11  1  0  0  0  0
 19 20  1  0  0  0  0
 21 19  2  0  0  0  0
 22 20  2  0  0  0  0
 23 21  1  0  0  0  0
 23 22  1  0  0  0  0
 25 24  1  0  0  0  0
 26  3  1  0  0  0  0
 27 26  1  0  0  0  0
 28 29  1  0  0  0  0
 28 27  1  0  0  0  0
 29 30  1  0  0  0  0
 30 33  1  0  0  0  0
 31 34  2  0  0  0  0
 33 31  1  0  0  0  0
 33 35  1  0  0  0  0
 34 32  1  0  0  0  0
 35 36  2  0  0  0  0
 35 32  1  0  0  0  0
M  END
>  <MODEL>
9

>  <REMARK>
 VINA RESULT:      -7.8      2.440      7.798
  Name = 
  9 active torsions:
  status: ('A' for Active; 'I' for Inactive)
    1  A    between atoms: O_3  and  N_33
    2  A    between atoms: C_6  and  N_13
    3  A    between atoms: C_6  and  C_34
    4  A    between atoms: C_9  and  C_32
    5  A    between atoms: C_10  and  C_19
    6  A    between atoms: C_17  and  N_20
    7  A    between atoms: C_21  and  N_28
    8  A    between atoms: C_21  and  C_34
    9  A    between atoms: N_28  and  C_32
                            x       y       z     vdW  Elec       q    Type
                         _______ _______ _______ _____ _____    ______ ____

>  <TORSDO>
F 9

$$$$
