=
 OpenBabel11032419173D

 30 31  0  0  1  0  0  0  0  0999 V2000
  189.8840  176.2990  143.1090 N   0  0  0  0  0  0  0  0  0  0  0  0
  189.9240  176.8600  141.7840 C   0  0  0  0  0  0  0  0  0  0  0  0
  190.4840  176.2280  140.8480 O   0  0  0  0  0  0  0  0  0  0  0  0
  190.6240  175.0730  143.3840 C   0  0  0  0  0  1  0  0  0  0  0  0
  185.4630  178.8500  146.9910 N   0  0  0  0  0  0  0  0  0  0  0  0
  186.7700  178.5580  147.2330 C   0  0  0  0  0  3  0  0  0  0  0  0
  189.1110  176.8890  144.1660 C   0  0  0  0  0  0  0  0  0  0  0  0
  186.9840  177.7520  144.9630 C   0  0  0  0  0  0  0  0  0  0  0  0
  185.6400  178.0600  144.7400 C   0  0  0  0  0  3  0  0  0  0  0  0
  187.7590  177.1970  143.9460 C   0  0  0  0  0  3  0  0  0  0  0  0
  183.5190  178.9360  145.5680 N   0  0  0  0  0  1  0  0  0  0  0  0
  188.8990  177.6990  146.4520 C   0  0  0  0  0  3  0  0  0  0  0  0
  187.5570  178.0040  146.2240 C   0  0  0  0  0  0  0  0  0  0  0  0
  189.6860  177.1410  145.4290 C   0  0  0  0  0  0  0  0  0  0  0  0
  184.8880  178.6150  145.7800 C   0  0  0  0  0  0  0  0  0  0  0  0
  191.0370  176.8440  145.6440 O   0  0  0  0  0  0  0  0  0  0  0  0
  191.5270  176.3280  146.8750 C   0  0  0  0  0  1  0  0  0  0  0  0
  189.3280  178.2030  141.4880 C   0  0  0  0  0  2  0  0  0  0  0  0
  188.3690  178.1310  140.3110 C   0  0  0  0  0  2  0  0  0  0  0  0
  189.0740  178.5130  139.0210 C   0  0  0  0  0  2  0  0  0  0  0  0
  188.2230  179.3590  136.9930 O   0  0  0  0  0  0  0  0  0  0  0  0
  188.1020  178.5380  137.8890 C   0  0  0  0  0  0  0  0  0  0  0  0
  186.9810  177.5550  137.8610 C   0  0  0  0  0  2  0  0  0  0  0  0
  185.6590  178.2680  137.6060 C   0  0  0  0  0  2  0  0  0  0  0  0
  183.4360  177.3780  137.8680 O   0  0  0  0  0  1  0  0  0  0  0  0
  184.5620  177.8180  138.5670 C   0  0  2  0  0  3  0  0  0  0  0  0
  183.6390  180.5160  138.8770 O   0  0  0  0  0  0  0  0  0  0  0  0
  184.1050  179.1360  139.7370 P   0  0  0  0  0  0  0  0  0  0  0  0
  182.8230  178.6250  140.7160 O   0  0  0  0  0  1  0  0  0  0  0  0
  185.2950  179.4690  140.6060 O   0  0  0  0  0  1  0  0  0  0  0  0
  1  4  1  0  0  0  0
  1  7  1  0  0  0  0
  2  1  1  0  0  0  0
  3  2  2  0  0  0  0
  5  6  1  0  0  0  0
  7 14  1  0  0  0  0
  8 13  1  0  0  0  0
  9  8  2  0  0  0  0
  9 15  1  0  0  0  0
 10  7  2  0  0  0  0
 10  8  1  0  0  0  0
 11 15  1  0  0  0  0
 13 12  1  0  0  0  0
 13  6  2  0  0  0  0
 14 16  1  0  0  0  0
 14 12  2  0  0  0  0
 15  5  2  0  0  0  0
 16 17  1  0  0  0  0
 18  2  1  0  0  0  0
 19 18  1  0  0  0  0
 20 19  1  0  0  0  0
 21 22  2  0  0  0  0
 22 20  1  0  0  0  0
 23 22  1  0  0  0  0
 24 23  1  0  0  0  0
 24 26  1  0  0  0  0
 26 25  1  6  0  0  0
 26 28  1  0  0  0  0
 27 28  2  0  0  0  0
 28 30  1  0  0  0  0
 28 29  1  0  0  0  0
M  END
>  <MODEL>
1

>  <REMARK>
 VINA RESULT:      -8.1      0.000      0.000
  Name = 
  10 active torsions:
  status: ('A' for Active; 'I' for Inactive)
    1  A    between atoms: O_2  and  C_25
    2  A    between atoms: N_5  and  C_13
    3  A    between atoms: C_7  and  C_20
    4  A    between atoms: C_7  and  C_23
    5  A    between atoms: P_8  and  C_18
    6  A    between atoms: C_10  and  C_29
    7  A    between atoms: C_18  and  C_23
    8  A    between atoms: C_20  and  C_24
    9  A    between atoms: C_24  and  C_30
   10  A    between atoms: C_29  and  C_30
                            x       y       z     vdW  Elec       q    Type
                         _______ _______ _______ _____ _____    ______ ____

>  <TORSDO>
F 10

$$$$
=
 OpenBabel11032419173D

 30 31  0  0  1  0  0  0  0  0999 V2000
  189.8630  176.3470  143.1350 N   0  0  0  0  0  0  0  0  0  0  0  0
  189.8630  176.8870  141.8000 C   0  0  0  0  0  0  0  0  0  0  0  0
  190.4450  176.2670  140.8690 O   0  0  0  0  0  0  0  0  0  0  0  0
  190.6620  175.1630  143.4220 C   0  0  0  0  0  1  0  0  0  0  0  0
  185.3830  178.8460  146.9820 N   0  0  0  0  0  0  0  0  0  0  0  0
  186.6800  178.5310  147.2470 C   0  0  0  0  0  3  0  0  0  0  0  0
  189.0720  176.9180  144.1890 C   0  0  0  0  0  0  0  0  0  0  0  0
  186.9370  177.7860  144.9600 C   0  0  0  0  0  0  0  0  0  0  0  0
  185.6040  178.1170  144.7150 C   0  0  0  0  0  3  0  0  0  0  0  0
  187.7290  177.2490  143.9460 C   0  0  0  0  0  3  0  0  0  0  0  0
  183.4740  178.9970  145.5180 N   0  0  0  0  0  1  0  0  0  0  0  0
  188.8170  177.6660  146.4920 C   0  0  0  0  0  3  0  0  0  0  0  0
  187.4840  177.9950  146.2410 C   0  0  0  0  0  0  0  0  0  0  0  0
  189.6200  177.1270  145.4720 C   0  0  0  0  0  0  0  0  0  0  0  0
  184.8340  178.6530  145.7520 C   0  0  0  0  0  0  0  0  0  0  0  0
  190.9630  176.8070  145.7100 O   0  0  0  0  0  0  0  0  0  0  0  0
  191.4570  176.4640  146.9980 C   0  0  0  0  0  1  0  0  0  0  0  0
  189.2020  178.1950  141.4880 C   0  0  0  0  0  2  0  0  0  0  0  0
  188.3420  178.0910  140.2390 C   0  0  0  0  0  2  0  0  0  0  0  0
  189.0280  178.7570  139.0590 C   0  0  0  0  0  2  0  0  0  0  0  0
  187.4470  178.7440  137.3120 O   0  0  0  0  0  0  0  0  0  0  0  0
  188.4610  178.2470  137.7760 C   0  0  0  0  0  0  0  0  0  0  0  0
  189.1410  177.1250  137.0660 C   0  0  0  0  0  2  0  0  0  0  0  0
  190.5970  177.0270  137.5040 C   0  0  0  0  0  2  0  0  0  0  0  0
  190.6620  174.6680  137.9870 O   0  0  0  0  0  1  0  0  0  0  0  0
  191.2090  175.6680  137.1800 C   0  0  2  0  0  3  0  0  0  0  0  0
  193.4710  176.7960  138.5370 O   0  0  0  0  0  1  0  0  0  0  0  0
  193.0230  175.6870  137.3420 P   0  0  0  0  0  0  0  0  0  0  0  0
  193.5850  174.1490  137.7650 O   0  0  0  0  0  1  0  0  0  0  0  0
  193.6390  176.0980  136.0240 O   0  0  0  0  0  0  0  0  0  0  0  0
  1  4  1  0  0  0  0
  1  7  1  0  0  0  0
  2  1  1  0  0  0  0
  3  2  2  0  0  0  0
  5  6  1  0  0  0  0
  7 14  1  0  0  0  0
  8 13  1  0  0  0  0
  9  8  2  0  0  0  0
  9 15  1  0  0  0  0
 10  7  2  0  0  0  0
 10  8  1  0  0  0  0
 11 15  1  0  0  0  0
 13 12  1  0  0  0  0
 13  6  2  0  0  0  0
 14 16  1  0  0  0  0
 14 12  2  0  0  0  0
 15  5  2  0  0  0  0
 16 17  1  0  0  0  0
 18  2  1  0  0  0  0
 19 18  1  0  0  0  0
 20 19  1  0  0  0  0
 21 22  2  0  0  0  0
 22 20  1  0  0  0  0
 23 24  1  0  0  0  0
 23 22  1  0  0  0  0
 26 28  1  0  0  0  0
 26 24  1  0  0  0  0
 26 25  1  1  0  0  0
 28 29  1  0  0  0  0
 28 27  1  0  0  0  0
 30 28  2  0  0  0  0
M  END
>  <MODEL>
2

>  <REMARK>
 VINA RESULT:      -8.1      2.662      4.463
  Name = 
  10 active torsions:
  status: ('A' for Active; 'I' for Inactive)
    1  A    between atoms: O_2  and  C_25
    2  A    between atoms: N_5  and  C_13
    3  A    between atoms: C_7  and  C_20
    4  A    between atoms: C_7  and  C_23
    5  A    between atoms: P_8  and  C_18
    6  A    between atoms: C_10  and  C_29
    7  A    between atoms: C_18  and  C_23
    8  A    between atoms: C_20  and  C_24
    9  A    between atoms: C_24  and  C_30
   10  A    between atoms: C_29  and  C_30
                            x       y       z     vdW  Elec       q    Type
                         _______ _______ _______ _____ _____    ______ ____

>  <TORSDO>
F 10

$$$$
=
 OpenBabel11032419173D

 30 31  0  0  1  0  0  0  0  0999 V2000
  188.9100  177.8850  147.3030 N   0  0  0  0  0  0  0  0  0  0  0  0
  187.4800  177.9510  147.4590 C   0  0  0  0  0  0  0  0  0  0  0  0
  186.9830  178.3550  148.5440 O   0  0  0  0  0  0  0  0  0  0  0  0
  189.7640  178.1480  148.4550 C   0  0  0  0  0  1  0  0  0  0  0  0
  190.6400  177.2100  141.1640 N   0  0  0  0  0  0  0  0  0  0  0  0
  191.3050  176.8630  142.2990 C   0  0  0  0  0  3  0  0  0  0  0  0
  189.5280  177.6020  146.0370 C   0  0  0  0  0  0  0  0  0  0  0  0
  189.4560  177.7060  143.6100 C   0  0  0  0  0  0  0  0  0  0  0  0
  188.7940  178.0530  142.4310 C   0  0  0  0  0  3  0  0  0  0  0  0
  188.8670  177.9540  144.8490 C   0  0  0  0  0  3  0  0  0  0  0  0
  188.7490  178.1390  139.9930 N   0  0  0  0  0  1  0  0  0  0  0  0
  191.3920  176.7540  144.7210 C   0  0  0  0  0  3  0  0  0  0  0  0
  190.7270  177.1040  143.5460 C   0  0  0  0  0  0  0  0  0  0  0  0
  190.8020  176.9990  145.9730 C   0  0  0  0  0  0  0  0  0  0  0  0
  189.4110  177.7930  141.2040 C   0  0  0  0  0  0  0  0  0  0  0  0
  191.4560  176.6390  147.1580 O   0  0  0  0  0  0  0  0  0  0  0  0
  192.3710  175.5540  147.2340 C   0  0  0  0  0  1  0  0  0  0  0  0
  186.5560  177.5240  146.3600 C   0  0  0  0  0  2  0  0  0  0  0  0
  185.2560  178.3110  146.3990 C   0  0  0  0  0  2  0  0  0  0  0  0
  185.2620  179.4060  145.3450 C   0  0  0  0  0  2  0  0  0  0  0  0
  183.2530  179.6440  144.1360 O   0  0  0  0  0  0  0  0  0  0  0  0
  184.3210  179.0620  144.2390 C   0  0  0  0  0  0  0  0  0  0  0  0
  184.6940  177.9990  143.2610 C   0  0  0  0  0  2  0  0  0  0  0  0
  184.1700  178.3490  141.8750 C   0  0  0  0  0  2  0  0  0  0  0  0
  186.0010  179.8050  141.3020 O   0  0  0  0  0  1  0  0  0  0  0  0
  185.2930  178.6730  140.8940 C   0  0  2  0  0  3  0  0  0  0  0  0
  183.3890  177.8250  138.9220 O   0  0  0  0  0  1  0  0  0  0  0  0
  184.6670  178.8970  139.1990 P   0  0  0  0  0  0  0  0  0  0  0  0
  184.1240  180.4850  138.9850 O   0  0  0  0  0  1  0  0  0  0  0  0
  185.7780  178.6130  138.2130 O   0  0  0  0  0  0  0  0  0  0  0  0
  1  2  1  0  0  0  0
  1  4  1  0  0  0  0
  2  3  2  0  0  0  0
  5 15  2  0  0  0  0
  5  6  1  0  0  0  0
  6 13  2  0  0  0  0
  7  1  1  0  0  0  0
  8 10  1  0  0  0  0
  9  8  2  0  0  0  0
 10  7  2  0  0  0  0
 11 15  1  0  0  0  0
 12 14  2  0  0  0  0
 13  8  1  0  0  0  0
 13 12  1  0  0  0  0
 14  7  1  0  0  0  0
 14 16  1  0  0  0  0
 15  9  1  0  0  0  0
 16 17  1  0  0  0  0
 18 19  1  0  0  0  0
 18  2  1  0  0  0  0
 20 19  1  0  0  0  0
 21 22  2  0  0  0  0
 22 20  1  0  0  0  0
 23 22  1  0  0  0  0
 24 23  1  0  0  0  0
 26 25  1  1  0  0  0
 26 24  1  0  0  0  0
 27 28  1  0  0  0  0
 28 26  1  0  0  0  0
 29 28  1  0  0  0  0
 30 28  2  0  0  0  0
M  END
>  <MODEL>
3

>  <REMARK>
 VINA RESULT:      -8.0      2.406      5.234
  Name = 
  10 active torsions:
  status: ('A' for Active; 'I' for Inactive)
    1  A    between atoms: O_2  and  C_25
    2  A    between atoms: N_5  and  C_13
    3  A    between atoms: C_7  and  C_20
    4  A    between atoms: C_7  and  C_23
    5  A    between atoms: P_8  and  C_18
    6  A    between atoms: C_10  and  C_29
    7  A    between atoms: C_18  and  C_23
    8  A    between atoms: C_20  and  C_24
    9  A    between atoms: C_24  and  C_30
   10  A    between atoms: C_29  and  C_30
                            x       y       z     vdW  Elec       q    Type
                         _______ _______ _______ _____ _____    ______ ____

>  <TORSDO>
F 10

$$$$
=
 OpenBabel11032419173D

 30 31  0  0  1  0  0  0  0  0999 V2000
  189.8540  176.3190  143.0930 N   0  0  0  0  0  0  0  0  0  0  0  0
  189.8600  176.8730  141.7640 C   0  0  0  0  0  0  0  0  0  0  0  0
  190.4190  176.2470  140.8230 O   0  0  0  0  0  0  0  0  0  0  0  0
  190.6230  175.1100  143.3630 C   0  0  0  0  0  1  0  0  0  0  0  0
  185.4530  178.8440  147.0150 N   0  0  0  0  0  0  0  0  0  0  0  0
  186.7580  178.5410  147.2510 C   0  0  0  0  0  3  0  0  0  0  0  0
  189.0850  176.9000  144.1590 C   0  0  0  0  0  0  0  0  0  0  0  0
  186.9640  177.7640  144.9700 C   0  0  0  0  0  0  0  0  0  0  0  0
  185.6220  178.0820  144.7530 C   0  0  0  0  0  3  0  0  0  0  0  0
  187.7340  177.2170  143.9450 C   0  0  0  0  0  3  0  0  0  0  0  0
  183.5070  178.9590  145.5960 N   0  0  0  0  0  1  0  0  0  0  0  0
  188.8820  177.6800  146.4560 C   0  0  0  0  0  3  0  0  0  0  0  0
  187.5410  177.9960  146.2330 C   0  0  0  0  0  0  0  0  0  0  0  0
  189.6640  177.1310  145.4240 C   0  0  0  0  0  0  0  0  0  0  0  0
  184.8750  178.6280  145.8020 C   0  0  0  0  0  0  0  0  0  0  0  0
  191.0140  176.8240  145.6330 O   0  0  0  0  0  0  0  0  0  0  0  0
  191.5180  176.3770  146.8850 C   0  0  0  0  0  1  0  0  0  0  0  0
  189.2320  178.2010  141.4700 C   0  0  0  0  0  2  0  0  0  0  0  0
  188.2820  178.1080  140.2870 C   0  0  0  0  0  2  0  0  0  0  0  0
  188.9660  178.5750  139.0130 C   0  0  0  0  0  2  0  0  0  0  0  0
  187.1860  178.8750  137.4980 O   0  0  0  0  0  0  0  0  0  0  0  0
  188.1510  178.2000  137.8210 C   0  0  0  0  0  0  0  0  0  0  0  0
  188.5210  176.9910  137.0290 C   0  0  0  0  0  2  0  0  0  0  0  0
  190.0320  176.9170  136.8510 C   0  0  0  0  0  2  0  0  0  0  0  0
  189.4340  175.4270  135.0560 O   0  0  0  0  0  1  0  0  0  0  0  0
  190.4540  175.7610  135.9490 C   0  0  2  0  0  3  0  0  0  0  0  0
  189.5830  173.4060  137.3360 O   0  0  0  0  0  1  0  0  0  0  0  0
  190.9550  174.2990  136.9120 P   0  0  0  0  0  0  0  0  0  0  0  0
  191.9950  173.3290  135.9970 O   0  0  0  0  0  0  0  0  0  0  0  0
  191.6660  174.7470  138.1690 O   0  0  0  0  0  1  0  0  0  0  0  0
  1  4  1  0  0  0  0
  1  7  1  0  0  0  0
  2  1  1  0  0  0  0
  3  2  2  0  0  0  0
  5  6  1  0  0  0  0
  7 14  1  0  0  0  0
  8 13  1  0  0  0  0
  9  8  2  0  0  0  0
  9 15  1  0  0  0  0
 10  7  2  0  0  0  0
 10  8  1  0  0  0  0
 11 15  1  0  0  0  0
 13 12  1  0  0  0  0
 13  6  2  0  0  0  0
 14 16  1  0  0  0  0
 14 12  2  0  0  0  0
 15  5  2  0  0  0  0
 16 17  1  0  0  0  0
 18  2  1  0  0  0  0
 19 18  1  0  0  0  0
 20 19  1  0  0  0  0
 21 22  2  0  0  0  0
 22 20  1  0  0  0  0
 23 22  1  0  0  0  0
 24 23  1  0  0  0  0
 26 25  1  6  0  0  0
 26 24  1  0  0  0  0
 26 28  1  0  0  0  0
 28 27  1  0  0  0  0
 28 30  1  0  0  0  0
 29 28  2  0  0  0  0
M  END
>  <MODEL>
4

>  <REMARK>
 VINA RESULT:      -7.8      2.547      4.041
  Name = 
  10 active torsions:
  status: ('A' for Active; 'I' for Inactive)
    1  A    between atoms: O_2  and  C_25
    2  A    between atoms: N_5  and  C_13
    3  A    between atoms: C_7  and  C_20
    4  A    between atoms: C_7  and  C_23
    5  A    between atoms: P_8  and  C_18
    6  A    between atoms: C_10  and  C_29
    7  A    between atoms: C_18  and  C_23
    8  A    between atoms: C_20  and  C_24
    9  A    between atoms: C_24  and  C_30
   10  A    between atoms: C_29  and  C_30
                            x       y       z     vdW  Elec       q    Type
                         _______ _______ _______ _____ _____    ______ ____

>  <TORSDO>
F 10

$$$$
=
 OpenBabel11032419173D

 30 31  0  0  1  0  0  0  0  0999 V2000
  189.6250  177.2140  145.9830 N   0  0  0  0  0  0  0  0  0  0  0  0
  190.7210  177.6100  145.1370 C   0  0  0  0  0  0  0  0  0  0  0  0
  191.8440  177.0500  145.2550 O   0  0  0  0  0  0  0  0  0  0  0  0
  189.8700  176.2730  147.0690 C   0  0  0  0  0  1  0  0  0  0  0  0
  183.7850  178.8260  143.8820 N   0  0  0  0  0  0  0  0  0  0  0  0
  184.3490  179.0050  145.1070 C   0  0  0  0  0  3  0  0  0  0  0  0
  188.2870  177.6920  145.7730 C   0  0  0  0  0  0  0  0  0  0  0  0
  186.3720  177.9540  144.3000 C   0  0  0  0  0  0  0  0  0  0  0  0
  185.7710  177.7810  143.0520 C   0  0  0  0  0  3  0  0  0  0  0  0
  187.6770  177.5160  144.5210 C   0  0  0  0  0  3  0  0  0  0  0  0
  183.8330  178.0630  141.5960 N   0  0  0  0  0  1  0  0  0  0  0  0
  186.2520  178.7490  146.5900 C   0  0  0  0  0  3  0  0  0  0  0  0
  185.6550  178.5730  145.3410 C   0  0  0  0  0  0  0  0  0  0  0  0
  187.5680  178.3110  146.8170 C   0  0  0  0  0  0  0  0  0  0  0  0
  184.4600  178.2300  142.8610 C   0  0  0  0  0  0  0  0  0  0  0  0
  188.1810  178.4960  148.0630 O   0  0  0  0  0  0  0  0  0  0  0  0
  187.7160  177.8690  149.2510 C   0  0  0  0  0  1  0  0  0  0  0  0
  190.5660  178.7000  144.1200 C   0  0  0  0  0  2  0  0  0  0  0  0
  191.4120  178.4250  142.8870 C   0  0  0  0  0  2  0  0  0  0  0  0
  190.7000  177.4600  141.9540 C   0  0  0  0  0  2  0  0  0  0  0  0
  192.5830  177.3020  140.5470 O   0  0  0  0  0  0  0  0  0  0  0  0
  191.3720  177.4380  140.6220 C   0  0  0  0  0  0  0  0  0  0  0  0
  190.5540  177.5870  139.3840 C   0  0  0  0  0  2  0  0  0  0  0  0
  189.0930  177.2700  139.6740 C   0  0  0  0  0  2  0  0  0  0  0  0
  189.2330  176.2490  137.4970 O   0  0  0  0  0  1  0  0  0  0  0  0
  188.3470  176.7860  138.4330 C   0  0  2  0  0  3  0  0  0  0  0  0
  188.3750  179.3860  137.2200 O   0  0  0  0  0  1  0  0  0  0  0  0
  187.3580  178.1140  137.6770 P   0  0  0  0  0  0  0  0  0  0  0  0
  186.5440  177.5290  136.3140 O   0  0  0  0  0  0  0  0  0  0  0  0
  186.3480  178.6200  138.6820 O   0  0  0  0  0  1  0  0  0  0  0  0
  1  4  1  0  0  0  0
  2  3  2  0  0  0  0
  2  1  1  0  0  0  0
  5  6  1  0  0  0  0
  6 13  2  0  0  0  0
  7  1  1  0  0  0  0
  7 14  1  0  0  0  0
  8 10  1  0  0  0  0
  8 13  1  0  0  0  0
  9  8  2  0  0  0  0
 10  7  2  0  0  0  0
 11 15  1  0  0  0  0
 12 14  2  0  0  0  0
 13 12  1  0  0  0  0
 14 16  1  0  0  0  0
 15  9  1  0  0  0  0
 15  5  2  0  0  0  0
 16 17  1  0  0  0  0
 18  2  1  0  0  0  0
 19 18  1  0  0  0  0
 20 19  1  0  0  0  0
 21 22  2  0  0  0  0
 22 20  1  0  0  0  0
 23 24  1  0  0  0  0
 23 22  1  0  0  0  0
 26 25  1  6  0  0  0
 26 24  1  0  0  0  0
 27 28  1  0  0  0  0
 28 26  1  0  0  0  0
 28 30  1  0  0  0  0
 29 28  2  0  0  0  0
M  END
>  <MODEL>
5

>  <REMARK>
 VINA RESULT:      -7.5      2.227      3.799
  Name = 
  10 active torsions:
  status: ('A' for Active; 'I' for Inactive)
    1  A    between atoms: O_2  and  C_25
    2  A    between atoms: N_5  and  C_13
    3  A    between atoms: C_7  and  C_20
    4  A    between atoms: C_7  and  C_23
    5  A    between atoms: P_8  and  C_18
    6  A    between atoms: C_10  and  C_29
    7  A    between atoms: C_18  and  C_23
    8  A    between atoms: C_20  and  C_24
    9  A    between atoms: C_24  and  C_30
   10  A    between atoms: C_29  and  C_30
                            x       y       z     vdW  Elec       q    Type
                         _______ _______ _______ _____ _____    ______ ____

>  <TORSDO>
F 10

$$$$
=
 OpenBabel11032419173D

 30 31  0  0  1  0  0  0  0  0999 V2000
  189.6990  176.3970  142.9340 N   0  0  0  0  0  0  0  0  0  0  0  0
  189.6850  176.9250  141.5950 C   0  0  0  0  0  0  0  0  0  0  0  0
  190.2830  176.3130  140.6690 O   0  0  0  0  0  0  0  0  0  0  0  0
  190.5300  175.2380  143.2320 C   0  0  0  0  0  1  0  0  0  0  0  0
  185.1630  178.8640  146.7390 N   0  0  0  0  0  0  0  0  0  0  0  0
  186.4520  178.5310  147.0230 C   0  0  0  0  0  3  0  0  0  0  0  0
  188.8910  176.9550  143.9840 C   0  0  0  0  0  0  0  0  0  0  0  0
  186.7500  177.8280  144.7280 C   0  0  0  0  0  0  0  0  0  0  0  0
  185.4240  178.1780  144.4620 C   0  0  0  0  0  3  0  0  0  0  0  0
  187.5570  177.3030  143.7200 C   0  0  0  0  0  3  0  0  0  0  0  0
  183.2870  179.0630  145.2380 N   0  0  0  0  0  1  0  0  0  0  0  0
  188.5950  177.6600  146.2950 C   0  0  0  0  0  3  0  0  0  0  0  0
  187.2710  178.0060  146.0230 C   0  0  0  0  0  0  0  0  0  0  0  0
  189.4150  177.1320  145.2810 C   0  0  0  0  0  0  0  0  0  0  0  0
  184.6390  178.7010  145.4930 C   0  0  0  0  0  0  0  0  0  0  0  0
  190.7490  176.7950  145.5400 O   0  0  0  0  0  0  0  0  0  0  0  0
  191.2760  176.6910  146.8560 C   0  0  0  0  0  1  0  0  0  0  0  0
  188.9870  178.2110  141.2710 C   0  0  0  0  0  2  0  0  0  0  0  0
  188.2810  178.1300  139.9280 C   0  0  0  0  0  2  0  0  0  0  0  0
  189.1040  178.8120  138.8480 C   0  0  0  0  0  2  0  0  0  0  0  0
  189.5970  177.4900  136.9610 O   0  0  0  0  0  0  0  0  0  0  0  0
  188.7920  178.2250  137.5130 C   0  0  0  0  0  0  0  0  0  0  0  0
  187.4920  178.5430  136.8540 C   0  0  0  0  0  2  0  0  0  0  0  0
  186.8540  177.2760  136.3020 C   0  0  0  0  0  2  0  0  0  0  0  0
  185.2500  177.6710  138.0550 O   0  0  0  0  0  1  0  0  0  0  0  0
  185.4260  177.0790  136.8020 C   0  0  2  0  0  3  0  0  0  0  0  0
  186.3260  174.3960  137.2770 O   0  0  0  0  0  1  0  0  0  0  0  0
  184.9680  175.3180  136.8680 P   0  0  0  0  0  0  0  0  0  0  0  0
  183.7570  175.0750  138.0220 O   0  0  0  0  0  1  0  0  0  0  0  0
  184.4610  174.8820  135.5120 O   0  0  0  0  0  0  0  0  0  0  0  0
  1  4  1  0  0  0  0
  1  7  1  0  0  0  0
  2  1  1  0  0  0  0
  3  2  2  0  0  0  0
  5  6  1  0  0  0  0
  7 14  1  0  0  0  0
  8 13  1  0  0  0  0
  9  8  2  0  0  0  0
  9 15  1  0  0  0  0
 10  7  2  0  0  0  0
 10  8  1  0  0  0  0
 11 15  1  0  0  0  0
 13 12  1  0  0  0  0
 13  6  2  0  0  0  0
 14 16  1  0  0  0  0
 14 12  2  0  0  0  0
 15  5  2  0  0  0  0
 16 17  1  0  0  0  0
 18  2  1  0  0  0  0
 19 18  1  0  0  0  0
 20 19  1  0  0  0  0
 21 22  2  0  0  0  0
 22 20  1  0  0  0  0
 23 22  1  0  0  0  0
 24 26  1  0  0  0  0
 24 23  1  0  0  0  0
 26 28  1  0  0  0  0
 26 25  1  1  0  0  0
 28 27  1  0  0  0  0
 28 29  1  0  0  0  0
 30 28  2  0  0  0  0
M  END
>  <MODEL>
6

>  <REMARK>
 VINA RESULT:      -7.4      1.626      2.323
  Name = 
  10 active torsions:
  status: ('A' for Active; 'I' for Inactive)
    1  A    between atoms: O_2  and  C_25
    2  A    between atoms: N_5  and  C_13
    3  A    between atoms: C_7  and  C_20
    4  A    between atoms: C_7  and  C_23
    5  A    between atoms: P_8  and  C_18
    6  A    between atoms: C_10  and  C_29
    7  A    between atoms: C_18  and  C_23
    8  A    between atoms: C_20  and  C_24
    9  A    between atoms: C_24  and  C_30
   10  A    between atoms: C_29  and  C_30
                            x       y       z     vdW  Elec       q    Type
                         _______ _______ _______ _____ _____    ______ ____

>  <TORSDO>
F 10

$$$$
=
 OpenBabel11032419173D

 30 31  0  0  1  0  0  0  0  0999 V2000
  184.7680  178.2720  141.5230 N   0  0  0  0  0  0  0  0  0  0  0  0
  185.8570  178.6240  140.6490 C   0  0  0  0  0  0  0  0  0  0  0  0
  185.6690  178.6920  139.4040 O   0  0  0  0  0  0  0  0  0  0  0  0
  183.4970  177.8550  140.9440 C   0  0  0  0  0  1  0  0  0  0  0  0
  186.4440  178.1500  147.7120 N   0  0  0  0  0  0  0  0  0  0  0  0
  185.3070  178.6140  147.1270 C   0  0  0  0  0  3  0  0  0  0  0  0
  184.8810  178.3520  142.9530 C   0  0  0  0  0  0  0  0  0  0  0  0
  186.1850  177.9710  144.9680 C   0  0  0  0  0  0  0  0  0  0  0  0
  187.3420  177.5020  145.5920 C   0  0  0  0  0  3  0  0  0  0  0  0
  186.0450  177.8850  143.5830 C   0  0  0  0  0  3  0  0  0  0  0  0
  188.6260  177.1280  147.6330 N   0  0  0  0  0  1  0  0  0  0  0  0
  183.9940  179.0030  145.1250 C   0  0  0  0  0  3  0  0  0  0  0  0
  185.1540  178.5340  145.7430 C   0  0  0  0  0  0  0  0  0  0  0  0
  183.8470  178.9170  143.7290 C   0  0  0  0  0  0  0  0  0  0  0  0
  187.4540  177.6020  146.9820 C   0  0  0  0  0  0  0  0  0  0  0  0
  182.6820  179.3720  143.1010 O   0  0  0  0  0  0  0  0  0  0  0  0
  181.3780  179.0500  143.5680 C   0  0  0  0  0  1  0  0  0  0  0  0
  187.2300  178.8920  141.1830 C   0  0  0  0  0  2  0  0  0  0  0  0
  188.2860  178.6980  140.1060 C   0  0  0  0  0  2  0  0  0  0  0  0
  188.8160  177.2740  140.1270 C   0  0  0  0  0  2  0  0  0  0  0  0
  190.5470  177.3310  138.5290 O   0  0  0  0  0  0  0  0  0  0  0  0
  190.2480  177.2500  139.7110 C   0  0  0  0  0  0  0  0  0  0  0  0
  191.3130  177.1240  140.7480 C   0  0  0  0  0  2  0  0  0  0  0  0
  190.7350  176.5470  142.0320 C   0  0  0  0  0  2  0  0  0  0  0  0
  191.7930  175.5130  143.9340 O   0  0  0  0  0  1  0  0  0  0  0  0
  191.6810  176.7080  143.2190 C   0  0  2  0  0  3  0  0  0  0  0  0
  189.6410  178.6270  143.8390 O   0  0  0  0  0  0  0  0  0  0  0  0
  191.1580  178.0570  144.3230 P   0  0  0  0  0  0  0  0  0  0  0  0
  191.0650  177.5000  145.9180 O   0  0  0  0  0  1  0  0  0  0  0  0
  192.1620  179.1840  144.2470 O   0  0  0  0  0  1  0  0  0  0  0  0
  1  7  1  0  0  0  0
  2 18  1  0  0  0  0
  2  1  1  0  0  0  0
  3  2  2  0  0  0  0
  4  1  1  0  0  0  0
  6  5  1  0  0  0  0
  7 10  2  0  0  0  0
  7 14  1  0  0  0  0
  8  9  2  0  0  0  0
  8 13  1  0  0  0  0
  9 15  1  0  0  0  0
 10  8  1  0  0  0  0
 12 13  1  0  0  0  0
 13  6  2  0  0  0  0
 14 12  2  0  0  0  0
 15 11  1  0  0  0  0
 15  5  2  0  0  0  0
 16 17  1  0  0  0  0
 16 14  1  0  0  0  0
 19 20  1  0  0  0  0
 19 18  1  0  0  0  0
 21 22  2  0  0  0  0
 22 20  1  0  0  0  0
 22 23  1  0  0  0  0
 23 24  1  0  0  0  0
 24 26  1  0  0  0  0
 26 25  1  1  0  0  0
 26 28  1  0  0  0  0
 27 28  2  0  0  0  0
 28 29  1  0  0  0  0
 30 28  1  0  0  0  0
M  END
>  <MODEL>
7

>  <REMARK>
 VINA RESULT:      -7.2      2.750      6.015
  Name = 
  10 active torsions:
  status: ('A' for Active; 'I' for Inactive)
    1  A    between atoms: O_2  and  C_25
    2  A    between atoms: N_5  and  C_13
    3  A    between atoms: C_7  and  C_20
    4  A    between atoms: C_7  and  C_23
    5  A    between atoms: P_8  and  C_18
    6  A    between atoms: C_10  and  C_29
    7  A    between atoms: C_18  and  C_23
    8  A    between atoms: C_20  and  C_24
    9  A    between atoms: C_24  and  C_30
   10  A    between atoms: C_29  and  C_30
                            x       y       z     vdW  Elec       q    Type
                         _______ _______ _______ _____ _____    ______ ____

>  <TORSDO>
F 10

$$$$
=
 OpenBabel11032419173D

 30 31  0  0  1  0  0  0  0  0999 V2000
  189.6530  177.0100  144.7630 N   0  0  0  0  0  0  0  0  0  0  0  0
  189.8810  176.4130  143.4730 C   0  0  0  0  0  0  0  0  0  0  0  0
  190.9970  175.8880  143.2090 O   0  0  0  0  0  0  0  0  0  0  0  0
  190.7660  177.1300  145.6970 C   0  0  0  0  0  1  0  0  0  0  0  0
  183.5620  178.9250  145.3660 N   0  0  0  0  0  0  0  0  0  0  0  0
  184.5090  178.7190  146.3210 C   0  0  0  0  0  3  0  0  0  0  0  0
  188.3530  177.4610  145.1770 C   0  0  0  0  0  0  0  0  0  0  0  0
  186.0820  178.0970  144.5930 C   0  0  0  0  0  0  0  0  0  0  0  0
  185.0930  178.3150  143.6320 C   0  0  0  0  0  3  0  0  0  0  0  0
  187.3560  177.6780  144.2130 C   0  0  0  0  0  3  0  0  0  0  0  0
  182.8070  178.9620  143.0770 N   0  0  0  0  0  1  0  0  0  0  0  0
  186.7720  178.0850  146.9200 C   0  0  0  0  0  3  0  0  0  0  0  0
  185.7880  178.3010  145.9540 C   0  0  0  0  0  0  0  0  0  0  0  0
  188.0600  177.6650  146.5410 C   0  0  0  0  0  0  0  0  0  0  0  0
  183.8250  178.7340  144.0440 C   0  0  0  0  0  0  0  0  0  0  0  0
  189.0580  177.4590  147.5010 O   0  0  0  0  0  0  0  0  0  0  0  0
  189.1290  178.2020  148.7110 C   0  0  0  0  0  1  0  0  0  0  0  0
  188.8220  176.4190  142.4130 C   0  0  0  0  0  2  0  0  0  0  0  0
  189.3100  177.1170  141.1540 C   0  0  0  0  0  2  0  0  0  0  0  0
  188.4400  178.3230  140.8390 C   0  0  0  0  0  2  0  0  0  0  0  0
  187.0090  178.3710  138.9680 O   0  0  0  0  0  0  0  0  0  0  0  0
  188.1600  178.3890  139.3750 C   0  0  0  0  0  0  0  0  0  0  0  0
  189.2960  178.4760  138.4120 C   0  0  0  0  0  2  0  0  0  0  0  0
  188.8590  177.9970  137.0340 C   0  0  0  0  0  2  0  0  0  0  0  0
  190.0430  177.0910  135.1420 O   0  0  0  0  0  1  0  0  0  0  0  0
  189.7560  176.8870  136.4940 C   0  0  2  0  0  3  0  0  0  0  0  0
  188.7220  174.5230  135.2390 O   0  0  0  0  0  0  0  0  0  0  0  0
  189.0190  175.2410  136.7420 P   0  0  0  0  0  0  0  0  0  0  0  0
  190.0710  174.2610  137.6330 O   0  0  0  0  0  1  0  0  0  0  0  0
  187.7150  175.3840  137.4920 O   0  0  0  0  0  1  0  0  0  0  0  0
  1  7  1  0  0  0  0
  1  4  1  0  0  0  0
  2  1  1  0  0  0  0
  3  2  2  0  0  0  0
  5  6  1  0  0  0  0
  7 14  1  0  0  0  0
  8 13  1  0  0  0  0
  9 15  1  0  0  0  0
  9  8  2  0  0  0  0
 10  8  1  0  0  0  0
 10  7  2  0  0  0  0
 11 15  1  0  0  0  0
 13  6  2  0  0  0  0
 13 12  1  0  0  0  0
 14 12  2  0  0  0  0
 14 16  1  0  0  0  0
 15  5  2  0  0  0  0
 16 17  1  0  0  0  0
 18  2  1  0  0  0  0
 19 18  1  0  0  0  0
 20 19  1  0  0  0  0
 21 22  2  0  0  0  0
 22 20  1  0  0  0  0
 23 22  1  0  0  0  0
 24 23  1  0  0  0  0
 26 25  1  6  0  0  0
 26 28  1  0  0  0  0
 26 24  1  0  0  0  0
 27 28  2  0  0  0  0
 28 30  1  0  0  0  0
 28 29  1  0  0  0  0
M  END
>  <MODEL>
8

>  <REMARK>
 VINA RESULT:      -7.2      2.446      3.826
  Name = 
  10 active torsions:
  status: ('A' for Active; 'I' for Inactive)
    1  A    between atoms: O_2  and  C_25
    2  A    between atoms: N_5  and  C_13
    3  A    between atoms: C_7  and  C_20
    4  A    between atoms: C_7  and  C_23
    5  A    between atoms: P_8  and  C_18
    6  A    between atoms: C_10  and  C_29
    7  A    between atoms: C_18  and  C_23
    8  A    between atoms: C_20  and  C_24
    9  A    between atoms: C_24  and  C_30
   10  A    between atoms: C_29  and  C_30
                            x       y       z     vdW  Elec       q    Type
                         _______ _______ _______ _____ _____    ______ ____

>  <TORSDO>
F 10

$$$$
=
 OpenBabel11032419173D

 30 31  0  0  1  0  0  0  0  0999 V2000
  190.1700  176.5500  143.3280 N   0  0  0  0  0  0  0  0  0  0  0  0
  189.9300  176.9730  141.9730 C   0  0  0  0  0  0  0  0  0  0  0  0
  190.5640  176.4380  141.0230 O   0  0  0  0  0  0  0  0  0  0  0  0
  191.2510  175.6120  143.5980 C   0  0  0  0  0  1  0  0  0  0  0  0
  185.6090  178.6270  147.3300 N   0  0  0  0  0  0  0  0  0  0  0  0
  186.8920  178.2550  147.5900 C   0  0  0  0  0  3  0  0  0  0  0  0
  189.3540  176.9980  144.4230 C   0  0  0  0  0  0  0  0  0  0  0  0
  187.2110  177.8020  145.2350 C   0  0  0  0  0  0  0  0  0  0  0  0
  185.8910  178.1890  144.9950 C   0  0  0  0  0  3  0  0  0  0  0  0
  188.0260  177.3840  144.1850 C   0  0  0  0  0  3  0  0  0  0  0  0
  183.7510  179.0020  145.8410 N   0  0  0  0  0  1  0  0  0  0  0  0
  189.0370  177.4500  146.7940 C   0  0  0  0  0  3  0  0  0  0  0  0
  187.7190  177.8350  146.5480 C   0  0  0  0  0  0  0  0  0  0  0  0
  189.8650  177.0300  145.7380 C   0  0  0  0  0  0  0  0  0  0  0  0
  185.0970  178.6030  146.0690 C   0  0  0  0  0  0  0  0  0  0  0  0
  191.1930  176.6550  145.9730 O   0  0  0  0  0  0  0  0  0  0  0  0
  191.6940  176.3630  147.2710 C   0  0  0  0  0  1  0  0  0  0  0  0
  188.9500  178.0620  141.6580 C   0  0  0  0  0  2  0  0  0  0  0  0
  187.8030  177.5390  140.8070 C   0  0  0  0  0  2  0  0  0  0  0  0
  186.9090  178.6810  140.3530 C   0  0  0  0  0  2  0  0  0  0  0  0
  185.7950  180.0300  141.9310 O   0  0  0  0  0  0  0  0  0  0  0  0
  185.8530  178.9460  141.3720 C   0  0  0  0  0  0  0  0  0  0  0  0
  184.8680  177.8760  141.7050 C   0  0  0  0  0  2  0  0  0  0  0  0
  183.4460  178.3890  141.5200 C   0  0  0  0  0  2  0  0  0  0  0  0
  183.6850  177.0720  139.5170 O   0  0  0  0  0  1  0  0  0  0  0  0
  182.8520  177.9800  140.1750 C   0  0  2  0  0  3  0  0  0  0  0  0
  183.8830  180.4310  139.0990 O   0  0  0  0  0  1  0  0  0  0  0  0
  182.5260  179.4210  139.1120 P   0  0  0  0  0  0  0  0  0  0  0  0
  182.1870  178.9150  137.5350 O   0  0  0  0  0  0  0  0  0  0  0  0
  181.3410  180.1860  139.6560 O   0  0  0  0  0  1  0  0  0  0  0  0
  1  4  1  0  0  0  0
  1  7  1  0  0  0  0
  2  1  1  0  0  0  0
  3  2  2  0  0  0  0
  5  6  1  0  0  0  0
  7 14  1  0  0  0  0
  8 13  1  0  0  0  0
  9  8  2  0  0  0  0
  9 15  1  0  0  0  0
 10  7  2  0  0  0  0
 10  8  1  0  0  0  0
 11 15  1  0  0  0  0
 13 12  1  0  0  0  0
 13  6  2  0  0  0  0
 14 16  1  0  0  0  0
 14 12  2  0  0  0  0
 15  5  2  0  0  0  0
 16 17  1  0  0  0  0
 18  2  1  0  0  0  0
 19 18  1  0  0  0  0
 20 19  1  0  0  0  0
 20 22  1  0  0  0  0
 22 23  1  0  0  0  0
 22 21  2  0  0  0  0
 24 23  1  0  0  0  0
 26 25  1  6  0  0  0
 26 24  1  0  0  0  0
 27 28  1  0  0  0  0
 28 30  1  0  0  0  0
 28 26  1  0  0  0  0
 29 28  2  0  0  0  0
M  END
>  <MODEL>
9

>  <REMARK>
 VINA RESULT:      -7.1      1.603      2.141
  Name = 
  10 active torsions:
  status: ('A' for Active; 'I' for Inactive)
    1  A    between atoms: O_2  and  C_25
    2  A    between atoms: N_5  and  C_13
    3  A    between atoms: C_7  and  C_20
    4  A    between atoms: C_7  and  C_23
    5  A    between atoms: P_8  and  C_18
    6  A    between atoms: C_10  and  C_29
    7  A    between atoms: C_18  and  C_23
    8  A    between atoms: C_20  and  C_24
    9  A    between atoms: C_24  and  C_30
   10  A    between atoms: C_29  and  C_30
                            x       y       z     vdW  Elec       q    Type
                         _______ _______ _______ _____ _____    ______ ____

>  <TORSDO>
F 10

$$$$
