=
 OpenBabel11032419073D

 42 48  0  0  1  0  0  0  0  0999 V2000
  190.8140  176.2990  138.2410 N   0  0  0  0  0  0  0  0  0  0  0  0
  194.1530  175.2230  135.8120 C   0  0  0  0  0  0  0  0  0  0  0  0
  192.9490  175.6260  135.2260 C   0  0  0  0  0  3  0  0  0  0  0  0
  193.1640  175.5690  138.0100 C   0  0  0  0  0  3  0  0  0  0  0  0
  196.3040  174.0310  135.3500 C   0  0  0  0  0  2  0  0  0  0  0  0
  197.7120  175.8710  136.7860 O   0  0  0  0  0  0  0  0  0  0  0  0
  191.8600  175.9850  136.0210 C   0  0  0  0  0  3  0  0  0  0  0  0
  197.8940  173.3980  137.6720 O   0  0  0  0  0  1  0  0  0  0  0  0
  195.2140  174.8640  134.9610 O   0  0  0  0  0  0  0  0  0  0  0  0
  191.9490  175.9500  137.4200 C   0  0  0  0  0  0  0  0  0  0  0  0
  194.2660  175.2120  137.2260 C   0  0  0  0  0  0  0  0  0  0  0  0
  196.9330  174.5850  136.9480 P   0  0  2  0  0  0  0  0  0  0  0  0
  195.4900  174.8740  137.8860 N   0  0  0  0  0  2  0  0  0  0  0  0
  190.9750  177.0980  139.4510 C   0  0  0  0  0  2  0  0  0  0  0  0
  190.7480  176.2940  140.5970 O   0  0  0  0  0  0  0  0  0  0  0  0
  191.0340  176.8520  144.7050 N   0  0  0  0  0  0  0  0  0  0  0  0
  188.9380  177.0390  143.7320 C   0  0  0  0  0  0  0  0  0  0  0  0
  191.2050  176.6200  143.4350 C   0  0  0  0  0  3  0  0  0  0  0  0
  187.6270  177.6620  146.0830 C   0  0  0  0  0  0  0  0  0  0  0  0
  189.7130  176.5850  141.4590 N   0  0  0  0  0  0  0  0  0  0  0  0
  186.9630  177.9830  147.2580 O   0  0  0  0  0  1  0  0  0  0  0  0
  186.9080  177.5870  144.8700 C   0  0  0  0  0  3  0  0  0  0  0  0
  187.5650  177.2710  143.6670 C   0  0  0  0  0  3  0  0  0  0  0  0
  189.6450  177.1150  144.9050 C   0  0  0  0  0  0  0  0  0  0  0  0
  189.0150  177.4240  146.1080 C   0  0  0  0  0  3  0  0  0  0  0  0
  189.9200  176.7190  142.7280 C   0  0  0  0  0  0  0  0  0  0  0  0
  189.4610  175.8700  137.9060 C   0  0  0  0  0  2  0  0  0  0  0  0
  187.9830  177.8230  134.9880 C   0  0  0  0  0  2  0  0  0  0  0  0
  188.6930  177.0120  137.2520 C   0  0  1  0  0  3  0  0  0  0  0  0
  186.2590  177.7850  136.7150 C   0  0  1  0  0  3  0  0  0  0  0  0
  186.6750  175.2780  137.3220 C   0  0  0  0  0  1  0  0  0  0  0  0
  188.2360  176.5990  135.8560 C   0  0  1  0  0  3  0  0  0  0  0  0
  186.8590  178.6350  135.6100 C   0  0  0  0  0  2  0  0  0  0  0  0
  187.2320  176.6540  136.9810 C   0  0  2  0  0  0  0  0  0  0  0  0
  186.0820  178.5800  137.9270 N   0  0  0  0  0  2  0  0  0  0  0  0
  183.9180  177.7180  138.5250 C   0  0  0  0  0  3  0  0  0  0  0  0
  183.2340  177.3280  140.7740 O   0  0  0  0  0  0  0  0  0  0  0  0
  185.3140  178.9510  140.5700 S   0  0  0  0  0  0  0  0  0  0  0  0
  182.7710  177.5300  139.4690 C   0  0  0  0  0  2  0  0  0  0  0  0
  183.6410  178.5930  141.2080 C   0  0  2  0  0  3  0  0  0  0  0  0
  183.6670  178.6280  142.9870 Cl  0  0  0  0  0  0  0  0  0  0  0  0
  185.0300  178.3770  138.8770 C   0  0  0  0  0  0  0  0  0  0  0  0
  1 14  1  0  0  0  0
  2 11  1  0  0  0  0
  3  2  2  0  0  0  0
  3  7  1  0  0  0  0
  5 12  1  0  0  0  0
  7 10  2  0  0  0  0
  9  5  1  0  0  0  0
  9  2  1  0  0  0  0
 10  4  1  0  0  0  0
 10  1  1  0  0  0  0
 11 13  1  0  0  0  0
 11  4  2  0  0  0  0
 12  6  2  6  0  0  0
 12  8  1  0  0  0  0
 12 13  1  0  0  0  0
 14 15  1  0  0  0  0
 15 20  1  0  0  0  0
 16 24  1  0  0  0  0
 17 24  1  0  0  0  0
 18 16  2  0  0  0  0
 19 25  1  0  0  0  0
 19 21  1  0  0  0  0
 20 26  2  0  0  0  0
 22 19  2  0  0  0  0
 23 17  2  0  0  0  0
 23 22  1  0  0  0  0
 24 25  2  0  0  0  0
 26 18  1  0  0  0  0
 26 17  1  0  0  0  0
 27  1  1  0  0  0  0
 28 33  1  0  0  0  0
 29 27  1  1  0  0  0
 30 34  1  0  0  0  0
 30 35  1  1  0  0  0
 32 28  1  6  0  0  0
 32 34  1  0  0  0  0
 32 29  1  0  0  0  0
 33 30  1  0  0  0  0
 34 29  1  0  0  0  0
 34 31  1  1  0  0  0
 35 42  1  0  0  0  0
 36 42  2  0  0  0  0
 36 39  1  0  0  0  0
 37 40  1  0  0  0  0
 38 40  1  0  0  0  0
 39 37  1  0  0  0  0
 40 41  1  1  0  0  0
 42 38  1  0  0  0  0
M  END
>  <MODEL>
1

>  <REMARK>
 VINA RESULT:      -9.0      0.000      0.000
  Name = 
  8 active torsions:
  status: ('A' for Active; 'I' for Inactive)
    1  A    between atoms: C_10  and  C_29
    2  A    between atoms: N_13  and  C_14
    3  A    between atoms: N_13  and  C_38
    4  A    between atoms: N_18  and  O_30
    5  A    between atoms: C_23  and  O_30
    6  A    between atoms: C_23  and  N_35
    7  A    between atoms: C_27  and  N_35
    8  A    between atoms: C_29  and  N_35
                            x       y       z     vdW  Elec       q    Type
                         _______ _______ _______ _____ _____    ______ ____

>  <TORSDO>
F 8

$$$$
=
 OpenBabel11032419073D

 42 48  0  0  1  0  0  0  0  0999 V2000
  186.6440  178.4310  139.6290 N   0  0  0  0  0  0  0  0  0  0  0  0
  183.7360  179.0930  142.6810 C   0  0  0  0  0  0  0  0  0  0  0  0
  185.0890  179.3420  142.9240 C   0  0  0  0  0  3  0  0  0  0  0  0
  184.2950  178.4420  140.4020 C   0  0  0  0  0  3  0  0  0  0  0  0
  181.5360  178.7080  143.8090 C   0  0  0  0  0  2  0  0  0  0  0  0
  180.2500  180.2790  141.9920 O   0  0  0  0  0  0  0  0  0  0  0  0
  186.0400  179.1320  141.9240 C   0  0  0  0  0  3  0  0  0  0  0  0
  179.4070  177.7870  142.0950 O   0  0  0  0  0  1  0  0  0  0  0  0
  182.8240  179.3130  143.7290 O   0  0  0  0  0  0  0  0  0  0  0  0
  185.6570  178.6700  140.6560 C   0  0  0  0  0  0  0  0  0  0  0  0
  183.3320  178.6530  141.3940 C   0  0  0  0  0  0  0  0  0  0  0  0
  180.7100  178.8560  142.2120 P   0  0  2  0  0  0  0  0  0  0  0  0
  181.9560  178.4450  141.0610 N   0  0  0  0  0  2  0  0  0  0  0  0
  188.0680  178.4220  139.9410 C   0  0  0  0  0  2  0  0  0  0  0  0
  188.4100  177.2260  140.6230 O   0  0  0  0  0  0  0  0  0  0  0  0
  191.7810  176.9070  143.0320 N   0  0  0  0  0  0  0  0  0  0  0  0
  189.7140  177.0390  144.0760 C   0  0  0  0  0  0  0  0  0  0  0  0
  190.8980  176.9810  142.0770 C   0  0  0  0  0  3  0  0  0  0  0  0
  190.7270  176.9650  146.6450 C   0  0  0  0  0  0  0  0  0  0  0  0
  188.4320  177.1910  142.0000 N   0  0  0  0  0  0  0  0  0  0  0  0
  191.2290  176.9370  147.9380 O   0  0  0  0  0  1  0  0  0  0  0  0
  189.3340  177.0670  146.4360 C   0  0  0  0  0  3  0  0  0  0  0  0
  188.8080  177.1060  145.1330 C   0  0  0  0  0  3  0  0  0  0  0  0
  191.0690  176.9440  144.2690 C   0  0  0  0  0  0  0  0  0  0  0  0
  191.6120  176.9030  145.5510 C   0  0  0  0  0  3  0  0  0  0  0  0
  189.5460  177.0700  142.6450 C   0  0  0  0  0  0  0  0  0  0  0  0
  186.2670  178.1930  138.2410 C   0  0  0  0  0  2  0  0  0  0  0  0
  186.3680  175.1120  136.0030 C   0  0  0  0  0  2  0  0  0  0  0  0
  186.7720  176.8300  137.7840 C   0  0  1  0  0  3  0  0  0  0  0  0
  188.6950  175.7260  136.4080 C   0  0  1  0  0  3  0  0  0  0  0  0
  188.2530  178.2850  136.1190 C   0  0  0  0  0  1  0  0  0  0  0  0
  186.3960  176.6000  136.3240 C   0  0  1  0  0  3  0  0  0  0  0  0
  187.7630  174.5450  136.2060 C   0  0  0  0  0  2  0  0  0  0  0  0
  187.8230  176.9360  136.6800 C   0  0  2  0  0  0  0  0  0  0  0  0
  189.5780  175.4870  137.5460 N   0  0  0  0  0  2  0  0  0  0  0  0
  191.4930  176.4350  138.6490 C   0  0  0  0  0  3  0  0  0  0  0  0
  193.7420  175.9370  138.0390 O   0  0  0  0  0  0  0  0  0  0  0  0
  191.9790  175.3300  136.1600 S   0  0  0  0  0  0  0  0  0  0  0  0
  192.9270  176.8620  138.7010 C   0  0  0  0  0  2  0  0  0  0  0  0
  193.5150  176.1700  136.6790 C   0  0  2  0  0  3  0  0  0  0  0  0
  194.8840  175.5370  135.7350 Cl  0  0  0  0  0  0  0  0  0  0  0  0
  190.9670  175.8320  137.5740 C   0  0  0  0  0  0  0  0  0  0  0  0
  1 14  1  0  0  0  0
  1 10  1  0  0  0  0
  2  3  1  0  0  0  0
  2  9  1  0  0  0  0
  4 10  2  0  0  0  0
  4 11  1  0  0  0  0
  7  3  2  0  0  0  0
  8 12  1  0  0  0  0
  9  5  1  0  0  0  0
 10  7  1  0  0  0  0
 11  2  2  0  0  0  0
 12  6  2  6  0  0  0
 12  5  1  0  0  0  0
 13 11  1  0  0  0  0
 13 12  1  0  0  0  0
 14 15  1  0  0  0  0
 15 20  1  0  0  0  0
 16 24  1  0  0  0  0
 17 24  2  0  0  0  0
 17 23  1  0  0  0  0
 18 26  1  0  0  0  0
 18 16  2  0  0  0  0
 19 21  1  0  0  0  0
 20 26  2  0  0  0  0
 22 19  1  0  0  0  0
 23 22  2  0  0  0  0
 24 25  1  0  0  0  0
 25 19  2  0  0  0  0
 26 17  1  0  0  0  0
 27  1  1  0  0  0  0
 28 33  1  0  0  0  0
 29 27  1  6  0  0  0
 30 34  1  0  0  0  0
 30 35  1  1  0  0  0
 32 28  1  1  0  0  0
 32 34  1  0  0  0  0
 32 29  1  0  0  0  0
 33 30  1  0  0  0  0
 34 31  1  6  0  0  0
 34 29  1  0  0  0  0
 35 42  1  0  0  0  0
 36 39  1  0  0  0  0
 37 39  1  0  0  0  0
 38 40  1  0  0  0  0
 38 42  1  0  0  0  0
 40 41  1  6  0  0  0
 40 37  1  0  0  0  0
 42 36  2  0  0  0  0
M  END
>  <MODEL>
2

>  <REMARK>
 VINA RESULT:      -8.7      4.304      9.006
  Name = 
  8 active torsions:
  status: ('A' for Active; 'I' for Inactive)
    1  A    between atoms: C_10  and  C_29
    2  A    between atoms: N_13  and  C_14
    3  A    between atoms: N_13  and  C_38
    4  A    between atoms: N_18  and  O_30
    5  A    between atoms: C_23  and  O_30
    6  A    between atoms: C_23  and  N_35
    7  A    between atoms: C_27  and  N_35
    8  A    between atoms: C_29  and  N_35
                            x       y       z     vdW  Elec       q    Type
                         _______ _______ _______ _____ _____    ______ ____

>  <TORSDO>
F 8

$$$$
=
 OpenBabel11032419073D

 42 48  0  0  1  0  0  0  0  0999 V2000
  181.8090  178.1540  139.3220 N   0  0  0  0  0  0  0  0  0  0  0  0
  179.9440  181.9730  138.9380 C   0  0  0  0  0  0  0  0  0  0  0  0
  179.6550  181.1480  140.0280 C   0  0  0  0  0  3  0  0  0  0  0  0
  181.5010  180.2900  138.1160 C   0  0  0  0  0  3  0  0  0  0  0  0
  179.1140  183.9480  137.6440 C   0  0  0  0  0  2  0  0  0  0  0  0
  181.6370  184.9580  137.4340 O   0  0  0  0  0  1  0  0  0  0  0  0
  180.2700  179.9020  140.1580 C   0  0  0  0  0  3  0  0  0  0  0  0
  180.4540  184.4410  135.1390 O   0  0  0  0  0  0  0  0  0  0  0  0
  179.2870  183.2130  138.8550 O   0  0  0  0  0  0  0  0  0  0  0  0
  181.1910  179.4530  139.1990 C   0  0  0  0  0  0  0  0  0  0  0  0
  180.8960  181.5430  137.9770 C   0  0  0  0  0  0  0  0  0  0  0  0
  180.6820  184.0020  136.7540 P   0  0  2  0  0  0  0  0  0  0  0  0
  181.2850  182.3690  136.8740 N   0  0  0  0  0  2  0  0  0  0  0  0
  182.3870  177.7110  140.5850 C   0  0  0  0  0  2  0  0  0  0  0  0
  183.2440  178.7150  141.1060 O   0  0  0  0  0  0  0  0  0  0  0  0
  183.4750  179.2090  145.2260 N   0  0  0  0  0  0  0  0  0  0  0  0
  185.3000  178.2710  144.1450 C   0  0  0  0  0  0  0  0  0  0  0  0
  183.1680  179.1780  143.9600 C   0  0  0  0  0  3  0  0  0  0  0  0
  186.7820  177.8910  146.4450 C   0  0  0  0  0  0  0  0  0  0  0  0
  184.3070  178.3740  141.9140 N   0  0  0  0  0  0  0  0  0  0  0  0
  187.5300  177.6900  147.5970 O   0  0  0  0  0  1  0  0  0  0  0  0
  187.3040  177.4980  145.1930 C   0  0  0  0  0  3  0  0  0  0  0  0
  186.5580  177.6870  144.0160 C   0  0  0  0  0  3  0  0  0  0  0  0
  184.7830  178.6520  145.3570 C   0  0  0  0  0  0  0  0  0  0  0  0
  185.5040  178.4770  146.5350 C   0  0  0  0  0  3  0  0  0  0  0  0
  184.2730  178.5930  143.1870 C   0  0  0  0  0  0  0  0  0  0  0  0
  181.8890  177.2310  138.1960 C   0  0  0  0  0  2  0  0  0  0  0  0
  184.5750  174.6860  137.2920 C   0  0  0  0  0  2  0  0  0  0  0  0
  183.3170  176.7250  138.0310 C   0  0  1  0  0  3  0  0  0  0  0  0
  185.3320  176.8180  136.3750 C   0  0  1  0  0  3  0  0  0  0  0  0
  182.9600  177.4840  135.5060 C   0  0  0  0  0  1  0  0  0  0  0  0
  183.3410  175.5460  137.0630 C   0  0  1  0  0  3  0  0  0  0  0  0
  185.8110  175.5250  137.0130 C   0  0  0  0  0  2  0  0  0  0  0  0
  183.8350  176.8950  136.6030 C   0  0  2  0  0  0  0  0  0  0  0  0
  185.9870  177.9630  136.9990 N   0  0  0  0  0  2  0  0  0  0  0  0
  188.3810  177.7680  137.1220 C   0  0  0  0  0  3  0  0  0  0  0  0
  189.6550  178.4040  139.0320 O   0  0  0  0  0  0  0  0  0  0  0  0
  187.0840  178.0520  139.5490 S   0  0  0  0  0  0  0  0  0  0  0  0
  189.6720  177.6280  137.8690 C   0  0  0  0  0  2  0  0  0  0  0  0
  188.8360  177.7000  139.9210 C   0  0  2  0  0  3  0  0  0  0  0  0
  189.2000  178.2040  141.5870 Cl  0  0  0  0  0  0  0  0  0  0  0  0
  187.2030  177.8850  137.7500 C   0  0  0  0  0  0  0  0  0  0  0  0
  1 14  1  0  0  0  0
  2  3  1  0  0  0  0
  3  7  2  0  0  0  0
  4 10  2  0  0  0  0
  5  9  1  0  0  0  0
  9  2  1  0  0  0  0
 10  1  1  0  0  0  0
 10  7  1  0  0  0  0
 11  4  1  0  0  0  0
 11  2  2  0  0  0  0
 12  8  2  6  0  0  0
 12 13  1  0  0  0  0
 12  6  1  0  0  0  0
 12  5  1  0  0  0  0
 13 11  1  0  0  0  0
 14 15  1  0  0  0  0
 15 20  1  0  0  0  0
 16 24  1  0  0  0  0
 17 24  1  0  0  0  0
 18 16  2  0  0  0  0
 19 25  1  0  0  0  0
 19 21  1  0  0  0  0
 20 26  2  0  0  0  0
 22 19  2  0  0  0  0
 23 17  2  0  0  0  0
 23 22  1  0  0  0  0
 24 25  2  0  0  0  0
 26 18  1  0  0  0  0
 26 17  1  0  0  0  0
 27  1  1  0  0  0  0
 29 27  1  6  0  0  0
 30 34  1  0  0  0  0
 30 35  1  1  0  0  0
 30 33  1  0  0  0  0
 32 28  1  1  0  0  0
 32 29  1  0  0  0  0
 33 28  1  0  0  0  0
 34 31  1  6  0  0  0
 34 32  1  0  0  0  0
 34 29  1  0  0  0  0
 35 42  1  0  0  0  0
 36 42  2  0  0  0  0
 36 39  1  0  0  0  0
 37 40  1  0  0  0  0
 38 40  1  0  0  0  0
 39 37  1  0  0  0  0
 40 41  1  1  0  0  0
 42 38  1  0  0  0  0
M  END
>  <MODEL>
3

>  <REMARK>
 VINA RESULT:      -8.6      5.146      9.944
  Name = 
  8 active torsions:
  status: ('A' for Active; 'I' for Inactive)
    1  A    between atoms: C_10  and  C_29
    2  A    between atoms: N_13  and  C_14
    3  A    between atoms: N_13  and  C_38
    4  A    between atoms: N_18  and  O_30
    5  A    between atoms: C_23  and  O_30
    6  A    between atoms: C_23  and  N_35
    7  A    between atoms: C_27  and  N_35
    8  A    between atoms: C_29  and  N_35
                            x       y       z     vdW  Elec       q    Type
                         _______ _______ _______ _____ _____    ______ ____

>  <TORSDO>
F 8

$$$$
=
 OpenBabel11032419073D

 42 48  0  0  1  0  0  0  0  0999 V2000
  183.5780  178.4160  139.2370 N   0  0  0  0  0  0  0  0  0  0  0  0
  180.4810  180.5460  137.2160 C   0  0  0  0  0  0  0  0  0  0  0  0
  180.5280  179.1500  137.1730 C   0  0  0  0  0  3  0  0  0  0  0  0
  182.4630  180.5380  138.6320 C   0  0  0  0  0  3  0  0  0  0  0  0
  179.5030  182.5540  136.0870 C   0  0  0  0  0  2  0  0  0  0  0  0
  179.0050  183.7460  138.4870 O   0  0  0  0  0  1  0  0  0  0  0  0
  181.5360  178.4530  137.8400 C   0  0  0  0  0  3  0  0  0  0  0  0
  180.6110  185.0920  136.8920 O   0  0  0  0  0  0  0  0  0  0  0  0
  179.4480  181.1950  136.5170 O   0  0  0  0  0  0  0  0  0  0  0  0
  182.5210  179.1380  138.5670 C   0  0  0  0  0  0  0  0  0  0  0  0
  181.4550  181.2490  137.9730 C   0  0  0  0  0  0  0  0  0  0  0  0
  180.0910  183.5830  137.4470 P   0  0  2  0  0  0  0  0  0  0  0  0
  181.4230  182.6730  138.1120 N   0  0  0  0  0  2  0  0  0  0  0  0
  183.3270  177.6960  140.4810 C   0  0  0  0  0  2  0  0  0  0  0  0
  183.6150  178.5300  141.5920 O   0  0  0  0  0  0  0  0  0  0  0  0
  183.7860  179.1230  145.7010 N   0  0  0  0  0  0  0  0  0  0  0  0
  185.6560  178.2350  144.6580 C   0  0  0  0  0  0  0  0  0  0  0  0
  183.4920  179.0530  144.4340 C   0  0  0  0  0  3  0  0  0  0  0  0
  187.1300  177.9630  146.9790 C   0  0  0  0  0  0  0  0  0  0  0  0
  184.6820  178.2490  142.4170 N   0  0  0  0  0  0  0  0  0  0  0  0
  187.8740  177.8170  148.1420 O   0  0  0  0  0  1  0  0  0  0  0  0
  187.6790  177.5640  145.7410 C   0  0  0  0  0  3  0  0  0  0  0  0
  186.9380  177.6970  144.5540 C   0  0  0  0  0  3  0  0  0  0  0  0
  185.1130  178.6210  145.8570 C   0  0  0  0  0  0  0  0  0  0  0  0
  185.8300  178.5000  147.0450 C   0  0  0  0  0  3  0  0  0  0  0  0
  184.6270  178.4950  143.6840 C   0  0  0  0  0  0  0  0  0  0  0  0
  184.9370  178.3770  138.7110 C   0  0  0  0  0  2  0  0  0  0  0  0
  184.4650  176.2060  135.6170 C   0  0  0  0  0  2  0  0  0  0  0  0
  185.1310  177.1370  137.8470 C   0  0  1  0  0  3  0  0  0  0  0  0
  186.8320  176.0550  136.1900 C   0  0  1  0  0  3  0  0  0  0  0  0
  187.0450  178.6050  136.7220 C   0  0  0  0  0  1  0  0  0  0  0  0
  184.8260  177.4670  136.3890 C   0  0  1  0  0  3  0  0  0  0  0  0
  185.6610  175.2700  135.6280 C   0  0  0  0  0  2  0  0  0  0  0  0
  186.2600  177.3040  136.8310 C   0  0  2  0  0  0  0  0  0  0  0  0
  187.5390  175.2640  137.1930 N   0  0  0  0  0  2  0  0  0  0  0  0
  189.7110  175.9400  137.9720 C   0  0  0  0  0  3  0  0  0  0  0  0
  191.6170  174.5110  137.9570 O   0  0  0  0  0  0  0  0  0  0  0  0
  189.6720  173.6930  136.3600 S   0  0  0  0  0  0  0  0  0  0  0  0
  191.2060  175.8470  138.0060 C   0  0  0  0  0  2  0  0  0  0  0  0
  191.4260  174.1260  136.6270 C   0  0  2  0  0  3  0  0  0  0  0  0
  192.4450  172.7130  136.2670 Cl  0  0  0  0  0  0  0  0  0  0  0  0
  188.9610  175.1070  137.2390 C   0  0  0  0  0  0  0  0  0  0  0  0
  1 14  1  0  0  0  0
  2 11  1  0  0  0  0
  3  2  2  0  0  0  0
  3  7  1  0  0  0  0
  5  9  1  0  0  0  0
  5 12  1  0  0  0  0
  7 10  2  0  0  0  0
  9  2  1  0  0  0  0
 10  4  1  0  0  0  0
 10  1  1  0  0  0  0
 11 13  1  0  0  0  0
 11  4  2  0  0  0  0
 12  8  2  6  0  0  0
 12 13  1  0  0  0  0
 12  6  1  0  0  0  0
 14 15  1  0  0  0  0
 15 20  1  0  0  0  0
 16 24  1  0  0  0  0
 17 24  1  0  0  0  0
 18 16  2  0  0  0  0
 19 25  1  0  0  0  0
 19 21  1  0  0  0  0
 20 26  2  0  0  0  0
 22 19  2  0  0  0  0
 23 17  2  0  0  0  0
 23 22  1  0  0  0  0
 24 25  2  0  0  0  0
 26 18  1  0  0  0  0
 26 17  1  0  0  0  0
 27  1  1  0  0  0  0
 28 33  1  0  0  0  0
 29 27  1  1  0  0  0
 30 34  1  0  0  0  0
 30 35  1  1  0  0  0
 32 28  1  6  0  0  0
 32 34  1  0  0  0  0
 32 29  1  0  0  0  0
 33 30  1  0  0  0  0
 34 31  1  1  0  0  0
 34 29  1  0  0  0  0
 35 42  1  0  0  0  0
 36 39  1  0  0  0  0
 37 39  1  0  0  0  0
 38 40  1  0  0  0  0
 38 42  1  0  0  0  0
 40 41  1  1  0  0  0
 40 37  1  0  0  0  0
 42 36  2  0  0  0  0
M  END
>  <MODEL>
4

>  <REMARK>
 VINA RESULT:      -8.6      5.137      9.933
  Name = 
  8 active torsions:
  status: ('A' for Active; 'I' for Inactive)
    1  A    between atoms: C_10  and  C_29
    2  A    between atoms: N_13  and  C_14
    3  A    between atoms: N_13  and  C_38
    4  A    between atoms: N_18  and  O_30
    5  A    between atoms: C_23  and  O_30
    6  A    between atoms: C_23  and  N_35
    7  A    between atoms: C_27  and  N_35
    8  A    between atoms: C_29  and  N_35
                            x       y       z     vdW  Elec       q    Type
                         _______ _______ _______ _____ _____    ______ ____

>  <TORSDO>
F 8

$$$$
=
 OpenBabel11032419073D

 42 48  0  0  1  0  0  0  0  0999 V2000
  184.1660  178.2920  139.3560 N   0  0  0  0  0  0  0  0  0  0  0  0
  180.6320  175.9020  139.3460 C   0  0  0  0  0  0  0  0  0  0  0  0
  180.6770  177.0990  140.0650 C   0  0  0  0  0  3  0  0  0  0  0  0
  182.9140  176.3000  138.5960 C   0  0  0  0  0  3  0  0  0  0  0  0
  179.3760  173.7490  139.1160 C   0  0  0  0  0  2  0  0  0  0  0  0
  179.5110  173.8810  136.3970 O   0  0  0  0  0  0  0  0  0  0  0  0
  181.8300  177.8840  140.0630 C   0  0  0  0  0  3  0  0  0  0  0  0
  180.6340  171.7500  137.4610 O   0  0  0  0  0  1  0  0  0  0  0  0
  179.4460  175.1460  139.3930 O   0  0  0  0  0  0  0  0  0  0  0  0
  182.9650  177.4900  139.3390 C   0  0  0  0  0  0  0  0  0  0  0  0
  181.7630  175.5060  138.5850 C   0  0  0  0  0  0  0  0  0  0  0  0
  180.2900  173.3980  137.6000 P   0  0  2  0  0  0  0  0  0  0  0  0
  181.7570  174.3270  137.7750 N   0  0  0  0  0  2  0  0  0  0  0  0
  184.5800  179.0040  140.5590 C   0  0  0  0  0  2  0  0  0  0  0  0
  184.3450  178.2000  141.7040 O   0  0  0  0  0  0  0  0  0  0  0  0
  184.0490  179.0030  145.7710 N   0  0  0  0  0  0  0  0  0  0  0  0
  186.0660  178.1790  144.9750 C   0  0  0  0  0  0  0  0  0  0  0  0
  183.8950  178.8520  144.4860 C   0  0  0  0  0  3  0  0  0  0  0  0
  187.3000  178.1120  147.4450 C   0  0  0  0  0  0  0  0  0  0  0  0
  185.3330  178.0250  142.6480 N   0  0  0  0  0  0  0  0  0  0  0  0
  187.9250  178.0680  148.6840 O   0  0  0  0  0  1  0  0  0  0  0  0
  187.9980  177.6870  146.2930 C   0  0  0  0  0  3  0  0  0  0  0  0
  187.3790  177.7160  145.0310 C   0  0  0  0  0  3  0  0  0  0  0  0
  185.3790  178.5900  146.0890 C   0  0  0  0  0  0  0  0  0  0  0  0
  185.9720  178.5710  147.3490 C   0  0  0  0  0  3  0  0  0  0  0  0
  185.1310  178.3280  143.8880 C   0  0  0  0  0  0  0  0  0  0  0  0
  185.0150  178.4320  138.1780 C   0  0  0  0  0  2  0  0  0  0  0  0
  187.4780  175.6120  137.4820 C   0  0  0  0  0  2  0  0  0  0  0  0
  186.3060  177.6460  138.3630 C   0  0  1  0  0  3  0  0  0  0  0  0
  188.8140  177.6490  137.6400 C   0  0  1  0  0  3  0  0  0  0  0  0
  187.1100  179.0800  136.2700 C   0  0  0  0  0  1  0  0  0  0  0  0
  186.5680  176.7810  137.1340 C   0  0  1  0  0  3  0  0  0  0  0  0
  188.8180  176.1600  137.9410 C   0  0  0  0  0  2  0  0  0  0  0  0
  187.3780  178.0360  137.3450 C   0  0  2  0  0  0  0  0  0  0  0  0
  189.3030  178.4010  138.7910 N   0  0  0  0  0  2  0  0  0  0  0  0
  191.4230  177.7400  139.7150 C   0  0  0  0  0  3  0  0  0  0  0  0
  191.7960  177.4080  142.0440 O   0  0  0  0  0  0  0  0  0  0  0  0
  189.2370  177.3710  141.3700 S   0  0  0  0  0  0  0  0  0  0  0  0
  192.2820  177.1090  140.7670 C   0  0  0  0  0  2  0  0  0  0  0  0
  190.6680  176.5950  142.1970 C   0  0  2  0  0  3  0  0  0  0  0  0
  190.3130  176.3950  143.9290 Cl  0  0  0  0  0  0  0  0  0  0  0  0
  190.0930  177.8380  139.8450 C   0  0  0  0  0  0  0  0  0  0  0  0
  1 14  1  0  0  0  0
  2  9  1  0  0  0  0
  2  3  1  0  0  0  0
  4 10  2  0  0  0  0
  5  9  1  0  0  0  0
  7  3  2  0  0  0  0
  8 12  1  0  0  0  0
 10  1  1  0  0  0  0
 10  7  1  0  0  0  0
 11  4  1  0  0  0  0
 11  2  2  0  0  0  0
 12  6  2  6  0  0  0
 12 13  1  0  0  0  0
 12  5  1  0  0  0  0
 13 11  1  0  0  0  0
 14 15  1  0  0  0  0
 15 20  1  0  0  0  0
 16 24  1  0  0  0  0
 17 23  2  0  0  0  0
 17 24  1  0  0  0  0
 18 16  2  0  0  0  0
 19 21  1  0  0  0  0
 20 26  2  0  0  0  0
 22 19  2  0  0  0  0
 23 22  1  0  0  0  0
 24 25  2  0  0  0  0
 25 19  1  0  0  0  0
 26 18  1  0  0  0  0
 26 17  1  0  0  0  0
 27  1  1  0  0  0  0
 28 33  1  0  0  0  0
 29 27  1  6  0  0  0
 30 33  1  0  0  0  0
 30 35  1  1  0  0  0
 32 34  1  0  0  0  0
 32 28  1  1  0  0  0
 32 29  1  0  0  0  0
 34 31  1  6  0  0  0
 34 30  1  0  0  0  0
 34 29  1  0  0  0  0
 35 42  1  0  0  0  0
 36 42  2  0  0  0  0
 36 39  1  0  0  0  0
 37 40  1  0  0  0  0
 38 40  1  0  0  0  0
 39 37  1  0  0  0  0
 40 41  1  1  0  0  0
 42 38  1  0  0  0  0
M  END
>  <MODEL>
5

>  <REMARK>
 VINA RESULT:      -8.6      4.552      8.934
  Name = 
  8 active torsions:
  status: ('A' for Active; 'I' for Inactive)
    1  A    between atoms: C_10  and  C_29
    2  A    between atoms: N_13  and  C_14
    3  A    between atoms: N_13  and  C_38
    4  A    between atoms: N_18  and  O_30
    5  A    between atoms: C_23  and  O_30
    6  A    between atoms: C_23  and  N_35
    7  A    between atoms: C_27  and  N_35
    8  A    between atoms: C_29  and  N_35
                            x       y       z     vdW  Elec       q    Type
                         _______ _______ _______ _____ _____    ______ ____

>  <TORSDO>
F 8

$$$$
=
 OpenBabel11032419073D

 42 48  0  0  1  0  0  0  0  0999 V2000
  190.4470  176.9720  138.3870 N   0  0  0  0  0  0  0  0  0  0  0  0
  186.2530  176.8790  137.6050 C   0  0  0  0  0  0  0  0  0  0  0  0
  187.1060  175.9440  137.0130 C   0  0  0  0  0  3  0  0  0  0  0  0
  188.1670  177.8560  138.7500 C   0  0  0  0  0  3  0  0  0  0  0  0
  183.9770  177.9040  137.4330 C   0  0  0  0  0  2  0  0  0  0  0  0
  183.6570  177.8160  140.1380 O   0  0  0  0  0  1  0  0  0  0  0  0
  188.4770  175.9700  137.2740 C   0  0  0  0  0  3  0  0  0  0  0  0
  183.5340  180.2260  139.0850 O   0  0  0  0  0  0  0  0  0  0  0  0
  184.8820  176.8110  137.2970 O   0  0  0  0  0  0  0  0  0  0  0  0
  189.0250  176.9310  138.1350 C   0  0  0  0  0  0  0  0  0  0  0  0
  186.7910  177.8390  138.5010 C   0  0  0  0  0  0  0  0  0  0  0  0
  184.2270  178.6860  139.0390 P   0  0  2  0  0  0  0  0  0  0  0  0
  185.9620  178.7800  139.1910 N   0  0  0  0  0  2  0  0  0  0  0  0
  190.9690  177.2400  139.7210 C   0  0  0  0  0  2  0  0  0  0  0  0
  190.5450  176.2280  140.6220 O   0  0  0  0  0  0  0  0  0  0  0  0
  191.3880  176.7730  144.6540 N   0  0  0  0  0  0  0  0  0  0  0  0
  189.1790  176.9630  143.9760 C   0  0  0  0  0  0  0  0  0  0  0  0
  191.3840  176.5460  143.3710 C   0  0  0  0  0  3  0  0  0  0  0  0
  188.1990  177.5770  146.4850 C   0  0  0  0  0  0  0  0  0  0  0  0
  189.6370  176.5160  141.6170 N   0  0  0  0  0  0  0  0  0  0  0  0
  187.7010  177.8940  147.7410 O   0  0  0  0  0  1  0  0  0  0  0  0
  187.3220  177.5050  145.3800 C   0  0  0  0  0  3  0  0  0  0  0  0
  187.8100  177.1940  144.0990 C   0  0  0  0  0  3  0  0  0  0  0  0
  190.0390  177.0350  145.0420 C   0  0  0  0  0  0  0  0  0  0  0  0
  189.5780  177.3390  146.3200 C   0  0  0  0  0  3  0  0  0  0  0  0
  190.0150  176.6460  142.8460 C   0  0  0  0  0  0  0  0  0  0  0  0
  191.4220  176.7520  137.3250 C   0  0  0  0  0  2  0  0  0  0  0  0
  190.9540  173.3660  135.6460 C   0  0  0  0  0  2  0  0  0  0  0  0
  191.6600  175.2600  137.1280 C   0  0  1  0  0  3  0  0  0  0  0  0
  193.3510  173.5920  136.0470 C   0  0  1  0  0  3  0  0  0  0  0  0
  193.4140  176.0990  135.3110 C   0  0  0  0  0  1  0  0  0  0  0  0
  191.2650  174.8540  135.7120 C   0  0  1  0  0  3  0  0  0  0  0  0
  192.2110  172.5900  136.0040 C   0  0  0  0  0  2  0  0  0  0  0  0
  192.7260  174.9730  136.0710 C   0  0  2  0  0  0  0  0  0  0  0  0
  194.1560  173.3930  137.2480 N   0  0  0  0  0  2  0  0  0  0  0  0
  196.2640  174.0700  136.3100 C   0  0  0  0  0  3  0  0  0  0  0  0
  197.8930  175.3300  137.5080 O   0  0  0  0  0  0  0  0  0  0  0  0
  196.1090  174.1550  139.0700 S   0  0  0  0  0  0  0  0  0  0  0  0
  197.7010  174.4810  136.4130 C   0  0  0  0  0  2  0  0  0  0  0  0
  197.8480  174.4890  138.6250 C   0  0  2  0  0  3  0  0  0  0  0  0
  198.6680  175.2770  139.9920 Cl  0  0  0  0  0  0  0  0  0  0  0  0
  195.5100  173.8350  137.3920 C   0  0  0  0  0  0  0  0  0  0  0  0
  1 14  1  0  0  0  0
  2 11  1  0  0  0  0
  3  7  1  0  0  0  0
  3  2  2  0  0  0  0
  5 12  1  0  0  0  0
  7 10  2  0  0  0  0
  9  5  1  0  0  0  0
  9  2  1  0  0  0  0
 10  1  1  0  0  0  0
 10  4  1  0  0  0  0
 11  4  2  0  0  0  0
 11 13  1  0  0  0  0
 12  8  2  1  0  0  0
 12 13  1  0  0  0  0
 12  6  1  0  0  0  0
 14 15  1  0  0  0  0
 15 20  1  0  0  0  0
 16 24  1  0  0  0  0
 17 23  2  0  0  0  0
 17 24  1  0  0  0  0
 18 16  2  0  0  0  0
 19 21  1  0  0  0  0
 20 26  2  0  0  0  0
 22 19  2  0  0  0  0
 23 22  1  0  0  0  0
 24 25  2  0  0  0  0
 25 19  1  0  0  0  0
 26 18  1  0  0  0  0
 26 17  1  0  0  0  0
 27  1  1  0  0  0  0
 28 33  1  0  0  0  0
 29 27  1  6  0  0  0
 30 34  1  0  0  0  0
 30 35  1  1  0  0  0
 32 28  1  1  0  0  0
 32 34  1  0  0  0  0
 32 29  1  0  0  0  0
 33 30  1  0  0  0  0
 34 31  1  6  0  0  0
 34 29  1  0  0  0  0
 35 42  1  0  0  0  0
 36 39  1  0  0  0  0
 36 42  2  0  0  0  0
 37 40  1  0  0  0  0
 39 37  1  0  0  0  0
 40 38  1  0  0  0  0
 40 41  1  1  0  0  0
 42 38  1  0  0  0  0
M  END
>  <MODEL>
6

>  <REMARK>
 VINA RESULT:      -8.5      3.984      8.491
  Name = 
  8 active torsions:
  status: ('A' for Active; 'I' for Inactive)
    1  A    between atoms: C_10  and  C_29
    2  A    between atoms: N_13  and  C_14
    3  A    between atoms: N_13  and  C_38
    4  A    between atoms: N_18  and  O_30
    5  A    between atoms: C_23  and  O_30
    6  A    between atoms: C_23  and  N_35
    7  A    between atoms: C_27  and  N_35
    8  A    between atoms: C_29  and  N_35
                            x       y       z     vdW  Elec       q    Type
                         _______ _______ _______ _____ _____    ______ ____

>  <TORSDO>
F 8

$$$$
=
 OpenBabel11032419073D

 42 48  0  0  1  0  0  0  0  0999 V2000
  187.6110  178.1920  139.1380 N   0  0  0  0  0  0  0  0  0  0  0  0
  183.4840  178.8080  140.0290 C   0  0  0  0  0  0  0  0  0  0  0  0
  184.4600  179.0210  141.0050 C   0  0  0  0  0  3  0  0  0  0  0  0
  185.2380  178.2240  138.4440 C   0  0  0  0  0  3  0  0  0  0  0  0
  181.0330  178.4280  139.6960 C   0  0  0  0  0  2  0  0  0  0  0  0
  180.9990  180.0860  137.5340 O   0  0  0  0  0  1  0  0  0  0  0  0
  185.8100  178.8260  140.7120 C   0  0  0  0  0  3  0  0  0  0  0  0
  180.2530  177.6090  137.0430 O   0  0  0  0  0  0  0  0  0  0  0  0
  182.1380  179.0100  140.3840 O   0  0  0  0  0  0  0  0  0  0  0  0
  186.2150  178.4160  139.4330 C   0  0  0  0  0  0  0  0  0  0  0  0
  183.8820  178.4200  138.7230 C   0  0  0  0  0  0  0  0  0  0  0  0
  181.2580  178.6470  137.9200 P   0  0  2  0  0  0  0  0  0  0  0  0
  182.9380  178.2510  137.6610 N   0  0  0  0  0  2  0  0  0  0  0  0
  188.6380  178.3980  140.1520 C   0  0  0  0  0  2  0  0  0  0  0  0
  188.6900  177.2820  141.0260 O   0  0  0  0  0  0  0  0  0  0  0  0
  190.7050  177.2910  144.6600 N   0  0  0  0  0  0  0  0  0  0  0  0
  188.3900  177.4090  144.7070 C   0  0  0  0  0  0  0  0  0  0  0  0
  190.3170  177.2550  143.4170 C   0  0  0  0  0  3  0  0  0  0  0  0
  188.2050  177.5710  147.4590 C   0  0  0  0  0  0  0  0  0  0  0  0
  188.1200  177.3500  142.2790 N   0  0  0  0  0  0  0  0  0  0  0  0
  188.1040  177.6610  148.8400 O   0  0  0  0  0  1  0  0  0  0  0  0
  187.0350  177.5950  146.6680 C   0  0  0  0  0  3  0  0  0  0  0  0
  187.1180  177.5140  145.2670 C   0  0  0  0  0  3  0  0  0  0  0  0
  189.5320  177.3890  145.4670 C   0  0  0  0  0  0  0  0  0  0  0  0
  189.4740  177.4660  146.8570 C   0  0  0  0  0  3  0  0  0  0  0  0
  188.8510  177.3260  143.3450 C   0  0  0  0  0  0  0  0  0  0  0  0
  188.0590  177.7580  137.8200 C   0  0  0  0  0  2  0  0  0  0  0  0
  186.8870  174.3150  136.6860 C   0  0  0  0  0  2  0  0  0  0  0  0
  188.0960  176.2360  137.7520 C   0  0  1  0  0  3  0  0  0  0  0  0
  189.3230  174.2820  136.5330 C   0  0  1  0  0  3  0  0  0  0  0  0
  189.4660  176.6840  135.5140 C   0  0  0  0  0  1  0  0  0  0  0  0
  187.3510  175.7540  136.5100 C   0  0  1  0  0  3  0  0  0  0  0  0
  188.1090  173.4280  136.8530 C   0  0  0  0  0  2  0  0  0  0  0  0
  188.8600  175.7250  136.5300 C   0  0  2  0  0  0  0  0  0  0  0  0
  190.3560  174.0960  137.5470 N   0  0  0  0  0  2  0  0  0  0  0  0
  191.8510  175.8470  138.2410 C   0  0  0  0  0  3  0  0  0  0  0  0
  194.2240  175.6850  138.0960 O   0  0  0  0  0  0  0  0  0  0  0  0
  192.9510  173.9360  136.5710 S   0  0  0  0  0  0  0  0  0  0  0  0
  193.1560  176.5820  138.2020 C   0  0  0  0  0  2  0  0  0  0  0  0
  194.1990  175.2550  136.7660 C   0  0  2  0  0  3  0  0  0  0  0  0
  195.8010  174.6230  136.3190 Cl  0  0  0  0  0  0  0  0  0  0  0  0
  191.6360  174.7380  137.5210 C   0  0  0  0  0  0  0  0  0  0  0  0
  1 10  1  0  0  0  0
  1 14  1  0  0  0  0
  2  9  1  0  0  0  0
  2  3  1  0  0  0  0
  4 11  1  0  0  0  0
  4 10  2  0  0  0  0
  5  9  1  0  0  0  0
  6 12  1  0  0  0  0
  7  3  2  0  0  0  0
 10  7  1  0  0  0  0
 11  2  2  0  0  0  0
 12  8  2  6  0  0  0
 12  5  1  0  0  0  0
 13 12  1  0  0  0  0
 13 11  1  0  0  0  0
 14 15  1  0  0  0  0
 15 20  1  0  0  0  0
 16 24  1  0  0  0  0
 17 23  2  0  0  0  0
 17 24  1  0  0  0  0
 18 16  2  0  0  0  0
 19 21  1  0  0  0  0
 20 26  2  0  0  0  0
 22 19  2  0  0  0  0
 23 22  1  0  0  0  0
 24 25  2  0  0  0  0
 25 19  1  0  0  0  0
 26 18  1  0  0  0  0
 26 17  1  0  0  0  0
 27  1  1  0  0  0  0
 28 33  1  0  0  0  0
 29 27  1  6  0  0  0
 30 33  1  0  0  0  0
 30 35  1  1  0  0  0
 32 34  1  0  0  0  0
 32 28  1  1  0  0  0
 32 29  1  0  0  0  0
 34 31  1  6  0  0  0
 34 30  1  0  0  0  0
 34 29  1  0  0  0  0
 37 39  1  0  0  0  0
 38 40  1  0  0  0  0
 38 42  1  0  0  0  0
 39 36  1  0  0  0  0
 40 41  1  1  0  0  0
 40 37  1  0  0  0  0
 42 35  1  0  0  0  0
 42 36  2  0  0  0  0
M  END
>  <MODEL>
7

>  <REMARK>
 VINA RESULT:      -8.5      4.152      8.601
  Name = 
  8 active torsions:
  status: ('A' for Active; 'I' for Inactive)
    1  A    between atoms: C_10  and  C_29
    2  A    between atoms: N_13  and  C_14
    3  A    between atoms: N_13  and  C_38
    4  A    between atoms: N_18  and  O_30
    5  A    between atoms: C_23  and  O_30
    6  A    between atoms: C_23  and  N_35
    7  A    between atoms: C_27  and  N_35
    8  A    between atoms: C_29  and  N_35
                            x       y       z     vdW  Elec       q    Type
                         _______ _______ _______ _____ _____    ______ ____

>  <TORSDO>
F 8

$$$$
=
 OpenBabel11032419073D

 42 48  0  0  1  0  0  0  0  0999 V2000
  183.6760  179.1790  142.4670 N   0  0  0  0  0  0  0  0  0  0  0  0
  185.5960  178.4630  138.7240 C   0  0  0  0  0  0  0  0  0  0  0  0
  184.2140  178.6640  138.7860 C   0  0  0  0  0  3  0  0  0  0  0  0
  185.7190  178.7730  141.1360 C   0  0  0  0  0  3  0  0  0  0  0  0
  187.4250  177.5610  137.2740 C   0  0  0  0  0  2  0  0  0  0  0  0
  189.0560  179.6480  137.9150 O   0  0  0  0  0  0  0  0  0  0  0  0
  183.5870  178.9060  140.0090 C   0  0  0  0  0  3  0  0  0  0  0  0
  189.9930  177.2710  138.5530 O   0  0  0  0  0  1  0  0  0  0  0  0
  186.1710  178.2130  137.4650 O   0  0  0  0  0  0  0  0  0  0  0  0
  184.3290  178.9520  141.1990 C   0  0  0  0  0  0  0  0  0  0  0  0
  186.3610  178.5360  139.9160 C   0  0  0  0  0  0  0  0  0  0  0  0
  188.6430  178.2750  138.3960 P   0  0  2  0  0  0  0  0  0  0  0  0
  187.7860  178.4050  139.9110 N   0  0  0  0  0  2  0  0  0  0  0  0
  184.4480  179.4440  143.6750 C   0  0  0  0  0  2  0  0  0  0  0  0
  184.6190  178.2450  144.4150 O   0  0  0  0  0  0  0  0  0  0  0  0
  188.5250  176.9310  143.8840 N   0  0  0  0  0  0  0  0  0  0  0  0
  187.8850  177.5880  146.0140 C   0  0  0  0  0  0  0  0  0  0  0  0
  187.2720  177.2770  143.7930 C   0  0  0  0  0  3  0  0  0  0  0  0
  190.3590  177.1510  147.1630 C   0  0  0  0  0  0  0  0  0  0  0  0
  185.5930  178.1580  145.3850 N   0  0  0  0  0  0  0  0  0  0  0  0
  191.6010  176.9420  147.7450 O   0  0  0  0  0  1  0  0  0  0  0  0
  189.2900  177.6380  147.9470 C   0  0  0  0  0  3  0  0  0  0  0  0
  188.0270  177.8640  147.3720 C   0  0  0  0  0  3  0  0  0  0  0  0
  188.9190  177.1200  145.2430 C   0  0  0  0  0  0  0  0  0  0  0  0
  190.1780  176.8870  145.7910 C   0  0  0  0  0  3  0  0  0  0  0  0
  186.7740  177.7140  145.1050 C   0  0  0  0  0  0  0  0  0  0  0  0
  182.2240  179.1500  142.6000 C   0  0  0  0  0  2  0  0  0  0  0  0
  179.8960  176.7050  140.8360 C   0  0  0  0  0  2  0  0  0  0  0  0
  181.5980  178.4600  141.3950 C   0  0  1  0  0  3  0  0  0  0  0  0
  179.7440  178.7980  139.5900 C   0  0  1  0  0  3  0  0  0  0  0  0
  179.6860  180.2780  141.7420 C   0  0  0  0  0  1  0  0  0  0  0  0
  180.2650  177.8310  141.7920 C   0  0  1  0  0  3  0  0  0  0  0  0
  179.7250  177.2870  139.4430 C   0  0  0  0  0  2  0  0  0  0  0  0
  180.2750  179.1010  140.9770 C   0  0  2  0  0  0  0  0  0  0  0  0
  180.6190  179.3940  138.5850 N   0  0  0  0  0  2  0  0  0  0  0  0
  179.2970  180.8730  137.2260 C   0  0  0  0  0  3  0  0  0  0  0  0
  179.4870  183.2470  137.2990 O   0  0  0  0  0  0  0  0  0  0  0  0
  181.5740  181.9900  138.3310 S   0  0  0  0  0  0  0  0  0  0  0  0
  179.0450  182.1710  136.5220 C   0  0  0  0  0  2  0  0  0  0  0  0
  180.8800  183.2260  137.1810 C   0  0  2  0  0  3  0  0  0  0  0  0
  181.5320  184.8330  137.5760 Cl  0  0  0  0  0  0  0  0  0  0  0  0
  180.3910  180.6680  137.9720 C   0  0  0  0  0  0  0  0  0  0  0  0
  1 27  1  0  0  0  0
  1 14  1  0  0  0  0
  2  3  2  0  0  0  0
  2 11  1  0  0  0  0
  3  7  1  0  0  0  0
  4 10  1  0  0  0  0
  5  9  1  0  0  0  0
  5 12  1  0  0  0  0
  7 10  2  0  0  0  0
  9  2  1  0  0  0  0
 10  1  1  0  0  0  0
 11  4  2  0  0  0  0
 12  6  2  6  0  0  0
 12  8  1  0  0  0  0
 12 13  1  0  0  0  0
 13 11  1  0  0  0  0
 14 15  1  0  0  0  0
 15 20  1  0  0  0  0
 16 24  1  0  0  0  0
 17 23  1  0  0  0  0
 18 16  2  0  0  0  0
 18 26  1  0  0  0  0
 19 21  1  0  0  0  0
 19 22  1  0  0  0  0
 23 22  2  0  0  0  0
 24 25  1  0  0  0  0
 24 17  2  0  0  0  0
 25 19  2  0  0  0  0
 26 20  2  0  0  0  0
 26 17  1  0  0  0  0
 29 32  1  0  0  0  0
 29 27  1  1  0  0  0
 30 35  1  6  0  0  0
 30 34  1  0  0  0  0
 32 28  1  6  0  0  0
 33 30  1  0  0  0  0
 33 28  1  0  0  0  0
 34 29  1  0  0  0  0
 34 31  1  1  0  0  0
 34 32  1  0  0  0  0
 36 42  2  0  0  0  0
 39 36  1  0  0  0  0
 39 37  1  0  0  0  0
 40 37  1  0  0  0  0
 40 41  1  1  0  0  0
 40 38  1  0  0  0  0
 42 38  1  0  0  0  0
 42 35  1  0  0  0  0
M  END
>  <MODEL>
8

>  <REMARK>
 VINA RESULT:      -8.5      4.674      7.511
  Name = 
  8 active torsions:
  status: ('A' for Active; 'I' for Inactive)
    1  A    between atoms: C_10  and  C_29
    2  A    between atoms: N_13  and  C_14
    3  A    between atoms: N_13  and  C_38
    4  A    between atoms: N_18  and  O_30
    5  A    between atoms: C_23  and  O_30
    6  A    between atoms: C_23  and  N_35
    7  A    between atoms: C_27  and  N_35
    8  A    between atoms: C_29  and  N_35
                            x       y       z     vdW  Elec       q    Type
                         _______ _______ _______ _____ _____    ______ ____

>  <TORSDO>
F 8

$$$$
=
 OpenBabel11032419073D

 42 48  0  0  1  0  0  0  0  0999 V2000
  184.5770  179.0350  139.5550 N   0  0  0  0  0  0  0  0  0  0  0  0
  186.9150  176.4370  137.1080 C   0  0  0  0  0  0  0  0  0  0  0  0
  185.5680  176.6660  136.8150 C   0  0  0  0  0  3  0  0  0  0  0  0
  186.7320  177.9580  139.0000 C   0  0  0  0  0  3  0  0  0  0  0  0
  188.8230  174.8780  136.6680 C   0  0  0  0  0  2  0  0  0  0  0  0
  190.5610  176.9640  136.4280 O   0  0  0  0  0  0  0  0  0  0  0  0
  184.8050  177.5220  137.6110 C   0  0  0  0  0  3  0  0  0  0  0  0
  191.1410  175.2520  138.3430 O   0  0  0  0  0  1  0  0  0  0  0  0
  187.6320  175.5570  136.2760 O   0  0  0  0  0  0  0  0  0  0  0  0
  185.3730  178.1690  138.7180 C   0  0  0  0  0  0  0  0  0  0  0  0
  187.5100  177.1080  138.2080 C   0  0  0  0  0  0  0  0  0  0  0  0
  189.9410  176.0510  137.4620 P   0  0  2  0  0  0  0  0  0  0  0  0
  188.8990  176.9680  138.5200 N   0  0  0  0  0  2  0  0  0  0  0  0
  185.0040  179.3780  140.9070 C   0  0  0  0  0  2  0  0  0  0  0  0
  184.8690  178.2520  141.7590 O   0  0  0  0  0  0  0  0  0  0  0  0
  184.4950  179.0030  145.8290 N   0  0  0  0  0  0  0  0  0  0  0  0
  186.4780  178.0620  145.0810 C   0  0  0  0  0  0  0  0  0  0  0  0
  184.3730  178.8850  144.5370 C   0  0  0  0  0  3  0  0  0  0  0  0
  187.6250  177.8720  147.5870 C   0  0  0  0  0  0  0  0  0  0  0  0
  185.8130  177.9960  142.7300 N   0  0  0  0  0  0  0  0  0  0  0  0
  188.2040  177.7650  148.8440 O   0  0  0  0  0  1  0  0  0  0  0  0
  188.3300  177.4210  146.4490 C   0  0  0  0  0  3  0  0  0  0  0  0
  187.7560  177.5130  145.1690 C   0  0  0  0  0  3  0  0  0  0  0  0
  185.7840  178.4980  146.1800 C   0  0  0  0  0  0  0  0  0  0  0  0
  186.3330  178.4180  147.4580 C   0  0  0  0  0  3  0  0  0  0  0  0
  185.5910  178.2910  143.9680 C   0  0  0  0  0  0  0  0  0  0  0  0
  183.3150  179.6020  139.0950 C   0  0  0  0  0  2  0  0  0  0  0  0
  179.7850  179.2400  140.4810 C   0  0  0  0  0  2  0  0  0  0  0  0
  182.1430  178.8550  139.7200 C   0  0  1  0  0  3  0  0  0  0  0  0
  180.1680  177.2710  139.0900 C   0  0  1  0  0  3  0  0  0  0  0  0
  181.3460  178.6240  137.1920 C   0  0  0  0  0  1  0  0  0  0  0  0
  180.8440  179.6090  139.4510 C   0  0  1  0  0  3  0  0  0  0  0  0
  179.4810  177.7570  140.3550 C   0  0  0  0  0  2  0  0  0  0  0  0
  181.1480  178.3500  138.6760 C   0  0  2  0  0  0  0  0  0  0  0  0
  180.8840  176.0250  139.3490 N   0  0  0  0  0  2  0  0  0  0  0  0
  182.1070  174.8780  137.6250 C   0  0  0  0  0  3  0  0  0  0  0  0
  181.7140  172.6060  137.0240 O   0  0  0  0  0  0  0  0  0  0  0  0
  179.7180  173.7010  138.3730 S   0  0  0  0  0  0  0  0  0  0  0  0
  182.2640  173.8140  136.5820 C   0  0  0  0  0  2  0  0  0  0  0  0
  180.3310  172.7830  136.9190 C   0  0  2  0  0  3  0  0  0  0  0  0
  179.5360  171.1930  136.8440 Cl  0  0  0  0  0  0  0  0  0  0  0  0
  181.0170  174.9610  138.4000 C   0  0  0  0  0  0  0  0  0  0  0  0
  1 14  1  0  0  0  0
  2 11  1  0  0  0  0
  3  2  2  0  0  0  0
  3  7  1  0  0  0  0
  5 12  1  0  0  0  0
  7 10  2  0  0  0  0
  9  5  1  0  0  0  0
  9  2  1  0  0  0  0
 10  4  1  0  0  0  0
 10  1  1  0  0  0  0
 11 13  1  0  0  0  0
 11  4  2  0  0  0  0
 12  6  2  6  0  0  0
 12  8  1  0  0  0  0
 12 13  1  0  0  0  0
 14 15  1  0  0  0  0
 15 20  1  0  0  0  0
 16 24  1  0  0  0  0
 17 23  2  0  0  0  0
 17 24  1  0  0  0  0
 18 16  2  0  0  0  0
 19 21  1  0  0  0  0
 20 26  2  0  0  0  0
 22 19  2  0  0  0  0
 23 22  1  0  0  0  0
 24 25  2  0  0  0  0
 25 19  1  0  0  0  0
 26 18  1  0  0  0  0
 26 17  1  0  0  0  0
 27  1  1  0  0  0  0
 29 27  1  6  0  0  0
 30 35  1  1  0  0  0
 30 33  1  0  0  0  0
 32 29  1  0  0  0  0
 32 28  1  1  0  0  0
 33 28  1  0  0  0  0
 34 31  1  6  0  0  0
 34 30  1  0  0  0  0
 34 32  1  0  0  0  0
 34 29  1  0  0  0  0
 36 42  2  0  0  0  0
 38 42  1  0  0  0  0
 39 37  1  0  0  0  0
 39 36  1  0  0  0  0
 40 41  1  1  0  0  0
 40 37  1  0  0  0  0
 40 38  1  0  0  0  0
 42 35  1  0  0  0  0
M  END
>  <MODEL>
9

>  <REMARK>
 VINA RESULT:      -8.4      4.167      6.581
  Name = 
  8 active torsions:
  status: ('A' for Active; 'I' for Inactive)
    1  A    between atoms: C_10  and  C_29
    2  A    between atoms: N_13  and  C_14
    3  A    between atoms: N_13  and  C_38
    4  A    between atoms: N_18  and  O_30
    5  A    between atoms: C_23  and  O_30
    6  A    between atoms: C_23  and  N_35
    7  A    between atoms: C_27  and  N_35
    8  A    between atoms: C_29  and  N_35
                            x       y       z     vdW  Elec       q    Type
                         _______ _______ _______ _____ _____    ______ ____

>  <TORSDO>
F 8

$$$$
