=
 OpenBabel11042413213D

 50 57  0  0  1  0  0  0  0  0999 V2000
  189.8840  175.7030  137.9650 C   0  0  1  0  0  3  0  0  0  0  0  0
  190.3660  177.0550  139.7990 C   0  0  2  0  0  3  0  0  0  0  0  0
  189.2990  175.7480  136.5750 C   0  0  0  0  0  0  0  0  0  0  0  0
  187.9250  176.2960  136.3870 C   0  0  0  0  0  2  0  0  0  0  0  0
  191.3540  175.9240  138.0440 C   0  0  0  0  0  0  0  0  0  0  0  0
  189.2580  176.6610  138.9120 N   0  0  1  0  0  0  0  0  0  0  0  0
  187.6790  177.5970  137.1550 C   0  0  1  0  0  0  0  0  0  0  0  0
  189.8770  175.2380  135.6290 O   0  0  0  0  0  0  0  0  0  0  0  0
  188.7840  177.8800  138.2130 C   0  0  1  0  0  3  0  0  0  0  0  0
  191.6190  176.6730  139.0960 C   0  0  0  0  0  0  0  0  0  0  0  0
  187.6820  178.6340  136.2200 O   0  0  0  0  0  1  0  0  0  0  0  0
  192.3680  175.2760  137.1440 C   0  0  1  0  0  3  0  0  0  0  0  0
  193.1920  176.3010  136.4810 N   0  0  0  0  0  2  0  0  0  0  0  0
  196.1740  174.7130  135.6450 O   0  0  0  0  0  0  0  0  0  0  0  0
  196.2300  175.8400  134.8020 C   0  0  0  0  0  2  0  0  0  0  0  0
  194.8920  176.5580  134.9070 C   0  0  0  0  0  2  0  0  0  0  0  0
  195.0590  174.9790  136.4440 C   0  0  1  0  0  3  0  0  0  0  0  0
  194.0650  175.6220  135.6160 N   0  0  1  0  0  0  0  0  0  0  0  0
  193.2360  174.2590  137.9190 C   0  0  0  0  0  2  0  0  0  0  0  0
  194.4200  173.7550  137.0780 C   0  0  2  0  0  3  0  0  0  0  0  0
  195.3380  173.1060  137.9050 O   0  0  0  0  0  0  0  0  0  0  0  0
  195.5820  174.0100  138.9400 C   0  0  0  0  0  1  0  0  0  0  0  0
  186.3560  177.4820  137.7730 N   0  0  0  0  0  2  0  0  0  0  0  0
  184.0690  176.8420  137.7850 N   0  0  0  0  0  0  0  0  0  0  0  0
  183.7110  175.8480  135.6980 N   0  0  2  0  0  0  0  0  0  0  0  0
  185.1090  176.2950  135.8170 C   0  0  0  0  0  2  0  0  0  0  0  0
  185.1890  176.9090  137.1720 C   0  0  0  0  0  0  0  0  0  0  0  0
  183.1590  176.2180  136.9380 N   0  0  0  0  0  2  0  0  0  0  0  0
  182.6900  173.7960  136.6100 C   0  0  0  0  0  2  0  0  0  0  0  0
  185.0810  173.8140  135.9540 C   0  0  0  0  0  2  0  0  0  0  0  0
  182.6510  172.3400  136.4800 N   0  0  0  0  0  2  0  0  0  0  0  0
  185.0380  172.2890  135.9460 C   0  0  0  0  0  2  0  0  0  0  0  0
  183.7000  174.3840  135.6190 C   0  0  2  0  0  3  0  0  0  0  0  0
  183.9470  171.8040  136.8940 C   0  0  0  0  0  2  0  0  0  0  0  0
  188.4250  179.0270  139.1730 C   0  0  0  0  0  2  0  0  0  0  0  0
  187.5590  178.5830  140.1750 O   0  0  0  0  0  1  0  0  0  0  0  0
  192.9380  177.0800  139.5180 C   0  0  0  0  0  0  0  0  0  0  0  0
  194.0400  177.4210  139.8680 C   0  0  0  0  0  3  0  0  0  0  0  0
  190.2420  176.3200  141.1270 C   0  0  0  0  0  2  0  0  0  0  0  0
  190.1600  177.3130  142.2690 C   0  0  0  0  0  2  0  0  0  0  0  0
  189.9470  176.5710  143.5730 C   0  0  0  0  0  2  0  0  0  0  0  0
  187.4680  177.2290  143.4790 C   0  0  0  0  0  3  0  0  0  0  0  0
  187.5150  177.7450  146.2090 N   0  0  0  0  0  0  0  0  0  0  0  0
  189.7890  177.2030  146.5230 C   0  0  0  0  0  3  0  0  0  0  0  0
  188.7160  177.0740  144.2510 C   0  0  0  0  0  0  0  0  0  0  0  0
  189.0940  177.5720  147.8440 C   0  0  0  0  0  3  0  0  0  0  0  0
  186.3490  177.7010  144.0460 C   0  0  0  0  0  3  0  0  0  0  0  0
  187.7040  177.9850  147.5740 N   0  0  0  0  0  0  0  0  0  0  0  0
  186.3040  178.1450  145.4910 C   0  0  0  0  0  3  0  0  0  0  0  0
  188.6890  177.3280  145.5620 C   0  0  0  0  0  0  0  0  0  0  0  0
  1  3  1  6  0  0  0
  1  5  1  0  0  0  0
  1  6  1  0  0  0  0
  2 39  1  1  0  0  0
  4  3  1  0  0  0  0
  4  7  1  0  0  0  0
  5 10  2  0  0  0  0
  6  2  1  0  0  0  0
  7 23  1  0  0  0  0
  7  9  1  0  0  0  0
  8  3  2  0  0  0  0
  9  6  1  0  0  0  0
  9 35  1  0  0  0  0
 10 37  1  0  0  0  0
 10  2  1  0  0  0  0
 11  7  1  0  0  0  0
 12 19  1  0  0  0  0
 12  5  1  0  0  0  0
 13 12  1  0  0  0  0
 14 17  1  0  0  0  0
 15 16  1  0  0  0  0
 15 14  1  0  0  0  0
 16 18  1  0  0  0  0
 17 20  1  0  0  0  0
 18 17  1  0  0  0  0
 18 13  1  0  0  0  0
 20 21  1  0  0  0  0
 20 19  1  0  0  0  0
 21 22  1  0  0  0  0
 25 26  1  0  0  0  0
 25 28  1  0  0  0  0
 26 27  1  0  0  0  0
 27 23  1  0  0  0  0
 27 24  2  0  0  0  0
 28 24  1  0  0  0  0
 31 29  1  0  0  0  0
 31 34  1  0  0  0  0
 32 30  1  0  0  0  0
 32 34  1  0  0  0  0
 33 25  1  0  0  0  0
 33 30  1  0  0  0  0
 33 29  1  0  0  0  0
 35 36  1  0  0  0  0
 37 38  3  0  0  0  0
 39 40  1  0  0  0  0
 40 41  1  0  0  0  0
 41 45  1  0  0  0  0
 42 47  1  0  0  0  0
 42 45  2  0  0  0  0
 43 48  1  0  0  0  0
 44 46  1  0  0  0  0
 45 50  1  0  0  0  0
 47 49  2  0  0  0  0
 48 46  2  0  0  0  0
 49 43  1  0  0  0  0
 50 43  1  0  0  0  0
 50 44  2  0  0  0  0
M  END
>  <MODEL>
1

>  <REMARK>
 VINA RESULT:      -7.8      0.000      0.000
  Name = 
  10 active torsions:
  status: ('A' for Active; 'I' for Inactive)
    1  A    between atoms: C_1  and  C_44
    2  A    between atoms: C_3  and  C_46
    3  A    between atoms: C_4  and  C_27
    4  A    between atoms: N_5  and  C_29
    5  A    between atoms: C_9  and  C_26
    6  A    between atoms: C_12  and  C_27
    7  A    between atoms: C_12  and  C_31
    8  A    between atoms: N_18  and  C_41
    9  A    between atoms: C_20  and  C_31
   10  A    between atoms: O_33  and  C_49
                            x       y       z     vdW  Elec       q    Type
                         _______ _______ _______ _____ _____    ______ ____

>  <TORSDO>
F 10

$$$$
=
 OpenBabel11042413213D

 50 57  0  0  1  0  0  0  0  0999 V2000
  184.1520  177.8200  138.6830 C   0  0  1  0  0  3  0  0  0  0  0  0
  183.3660  176.8810  136.7020 C   0  0  2  0  0  3  0  0  0  0  0  0
  185.2170  178.7450  139.2200 C   0  0  0  0  0  0  0  0  0  0  0  0
  186.6480  178.4450  138.9290 C   0  0  0  0  0  2  0  0  0  0  0  0
  182.8750  178.4790  138.2960 C   0  0  0  0  0  0  0  0  0  0  0  0
  184.5900  177.0180  137.5120 N   0  0  1  0  0  0  0  0  0  0  0  0
  186.9050  178.0640  137.4690 C   0  0  1  0  0  0  0  0  0  0  0  0
  184.9370  179.6550  139.9830 O   0  0  0  0  0  0  0  0  0  0  0  0
  185.5900  177.7500  136.6990 C   0  0  1  0  0  3  0  0  0  0  0  0
  182.4270  177.9270  137.1850 C   0  0  0  0  0  0  0  0  0  0  0  0
  187.5260  179.1570  136.8620 O   0  0  0  0  0  1  0  0  0  0  0  0
  182.1550  179.5070  139.1230 C   0  0  1  0  0  3  0  0  0  0  0  0
  181.5630  180.5380  138.2550 N   0  0  0  0  0  2  0  0  0  0  0  0
  178.9320  181.9040  140.0790 O   0  0  0  0  0  0  0  0  0  0  0  0
  179.1280  182.9050  139.1070 C   0  0  0  0  0  2  0  0  0  0  0  0
  180.3860  182.5490  138.3280 C   0  0  0  0  0  2  0  0  0  0  0  0
  179.7750  180.8790  139.6400 C   0  0  1  0  0  3  0  0  0  0  0  0
  180.9680  181.4880  139.1020 N   0  0  1  0  0  0  0  0  0  0  0  0
  181.0940  178.8490  140.0350 C   0  0  0  0  0  2  0  0  0  0  0  0
  180.1960  179.8940  140.7170 C   0  0  2  0  0  3  0  0  0  0  0  0
  179.0750  179.2630  141.2590 O   0  0  0  0  0  0  0  0  0  0  0  0
  179.5640  178.0690  141.7910 C   0  0  0  0  0  1  0  0  0  0  0  0
  187.8120  176.9140  137.4830 N   0  0  0  0  0  2  0  0  0  0  0  0
  189.7350  175.7380  138.2290 N   0  0  0  0  0  0  0  0  0  0  0  0
  190.7370  177.1580  139.7970 N   0  0  2  0  0  0  0  0  0  0  0  0
  189.5190  177.7790  139.2500 C   0  0  0  0  0  2  0  0  0  0  0  0
  188.9990  176.7820  138.2720 C   0  0  0  0  0  0  0  0  0  0  0  0
  190.7850  175.9230  139.1230 N   0  0  0  0  0  2  0  0  0  0  0  0
  189.1990  177.5020  141.6950 C   0  0  0  0  0  2  0  0  0  0  0  0
  191.6510  177.4750  142.0640 C   0  0  0  0  0  2  0  0  0  0  0  0
  188.9690  177.1730  143.1000 N   0  0  0  0  0  2  0  0  0  0  0  0
  191.3730  177.2540  143.5480 C   0  0  0  0  0  2  0  0  0  0  0  0
  190.5180  176.8840  141.2190 C   0  0  2  0  0  3  0  0  0  0  0  0
  190.0040  177.8230  143.9020 C   0  0  0  0  0  2  0  0  0  0  0  0
  185.8330  177.1110  135.3200 C   0  0  0  0  0  2  0  0  0  0  0  0
  186.2500  175.7850  135.4540 O   0  0  0  0  0  1  0  0  0  0  0  0
  181.1990  178.2820  136.5150 C   0  0  0  0  0  0  0  0  0  0  0  0
  180.1740  178.5800  135.9540 C   0  0  0  0  0  3  0  0  0  0  0  0
  182.7780  175.4900  136.8980 C   0  0  0  0  0  2  0  0  0  0  0  0
  183.8280  174.5540  137.4650 C   0  0  0  0  0  2  0  0  0  0  0  0
  183.7820  173.2330  136.7250 C   0  0  0  0  0  2  0  0  0  0  0  0
  186.2800  173.3120  137.3130 C   0  0  0  0  0  3  0  0  0  0  0  0
  186.6970  171.0240  135.7930 N   0  0  0  0  0  0  0  0  0  0  0  0
  184.4530  170.7670  135.1130 C   0  0  0  0  0  3  0  0  0  0  0  0
  185.1620  172.6790  136.5870 C   0  0  0  0  0  0  0  0  0  0  0  0
  185.3480  169.6300  134.5940 C   0  0  0  0  0  3  0  0  0  0  0  0
  187.5360  172.8590  137.1950 C   0  0  0  0  0  3  0  0  0  0  0  0
  186.7490  169.8900  134.9750 N   0  0  0  0  0  0  0  0  0  0  0  0
  187.8940  171.7070  136.2830 C   0  0  0  0  0  3  0  0  0  0  0  0
  185.4090  171.5770  135.8740 C   0  0  0  0  0  0  0  0  0  0  0  0
  1  5  1  6  0  0  0
  1  3  1  0  0  0  0
  2 39  1  1  0  0  0
  2 10  1  0  0  0  0
  2  6  1  0  0  0  0
  3  8  2  0  0  0  0
  4  3  1  0  0  0  0
  5 12  1  0  0  0  0
  6  1  1  0  0  0  0
  7 23  1  0  0  0  0
  7  4  1  0  0  0  0
  9  7  1  0  0  0  0
  9  6  1  0  0  0  0
 10  5  2  0  0  0  0
 11  7  1  0  0  0  0
 12 19  1  0  0  0  0
 13 18  1  0  0  0  0
 13 12  1  0  0  0  0
 15 14  1  0  0  0  0
 16 18  1  0  0  0  0
 16 15  1  0  0  0  0
 17 14  1  0  0  0  0
 17 20  1  0  0  0  0
 18 17  1  0  0  0  0
 19 20  1  0  0  0  0
 20 21  1  0  0  0  0
 21 22  1  0  0  0  0
 23 27  1  0  0  0  0
 24 27  2  0  0  0  0
 24 28  1  0  0  0  0
 25 33  1  0  0  0  0
 26 25  1  0  0  0  0
 27 26  1  0  0  0  0
 28 25  1  0  0  0  0
 29 31  1  0  0  0  0
 30 32  1  0  0  0  0
 31 34  1  0  0  0  0
 32 34  1  0  0  0  0
 33 29  1  0  0  0  0
 33 30  1  0  0  0  0
 35 36  1  0  0  0  0
 35  9  1  0  0  0  0
 37 10  1  0  0  0  0
 38 37  3  0  0  0  0
 39 40  1  0  0  0  0
 41 40  1  0  0  0  0
 43 50  1  0  0  0  0
 43 49  1  0  0  0  0
 44 50  2  0  0  0  0
 45 41  1  0  0  0  0
 45 42  2  0  0  0  0
 46 48  2  0  0  0  0
 46 44  1  0  0  0  0
 47 42  1  0  0  0  0
 48 43  1  0  0  0  0
 49 47  2  0  0  0  0
 50 45  1  0  0  0  0
M  END
>  <MODEL>
2

>  <REMARK>
 VINA RESULT:      -7.5      3.918     10.953
  Name = 
  10 active torsions:
  status: ('A' for Active; 'I' for Inactive)
    1  A    between atoms: C_1  and  C_44
    2  A    between atoms: C_3  and  C_46
    3  A    between atoms: C_4  and  C_27
    4  A    between atoms: N_5  and  C_29
    5  A    between atoms: C_9  and  C_26
    6  A    between atoms: C_12  and  C_27
    7  A    between atoms: C_12  and  C_31
    8  A    between atoms: N_18  and  C_41
    9  A    between atoms: C_20  and  C_31
   10  A    between atoms: O_33  and  C_49
                            x       y       z     vdW  Elec       q    Type
                         _______ _______ _______ _____ _____    ______ ____

>  <TORSDO>
F 10

$$$$
=
 OpenBabel11042413213D

 50 57  0  0  1  0  0  0  0  0999 V2000
  187.6010  178.6290  138.4840 C   0  0  1  0  0  3  0  0  0  0  0  0
  187.9210  178.2440  140.7590 C   0  0  2  0  0  3  0  0  0  0  0  0
  187.7480  177.9710  137.1340 C   0  0  0  0  0  0  0  0  0  0  0  0
  189.0780  177.4250  136.7380 C   0  0  0  0  0  2  0  0  0  0  0  0
  186.2800  178.4370  139.1440 C   0  0  0  0  0  0  0  0  0  0  0  0
  188.6330  178.2160  139.4690 N   0  0  1  0  0  0  0  0  0  0  0  0
  189.7590  176.6190  137.8460 C   0  0  1  0  0  0  0  0  0  0  0  0
  186.8390  177.9850  136.3210 O   0  0  0  0  0  0  0  0  0  0  0  0
  189.0810  176.8230  139.2310 C   0  0  1  0  0  3  0  0  0  0  0  0
  186.4700  178.2400  140.4340 C   0  0  0  0  0  0  0  0  0  0  0  0
  189.6580  175.2710  137.4950 O   0  0  0  0  0  1  0  0  0  0  0  0
  184.9500  178.5860  138.4600 C   0  0  1  0  0  3  0  0  0  0  0  0
  184.2200  177.3070  138.4790 N   0  0  0  0  0  2  0  0  0  0  0  0
  180.8550  178.1440  138.1790 O   0  0  0  0  0  0  0  0  0  0  0  0
  180.8220  176.7810  137.8230 C   0  0  0  0  0  2  0  0  0  0  0  0
  182.2610  176.2980  137.7190 C   0  0  0  0  0  2  0  0  0  0  0  0
  182.1720  178.3170  138.6140 C   0  0  1  0  0  3  0  0  0  0  0  0
  183.0250  177.5130  137.7700 N   0  0  1  0  0  0  0  0  0  0  0  0
  184.1210  179.7270  139.0920 C   0  0  0  0  0  2  0  0  0  0  0  0
  182.6770  179.7490  138.5630 C   0  0  2  0  0  3  0  0  0  0  0  0
  181.8930  180.5660  139.3790 O   0  0  0  0  0  0  0  0  0  0  0  0
  181.4970  181.6160  138.5500 C   0  0  0  0  0  1  0  0  0  0  0  0
  191.1660  177.0280  137.8670 N   0  0  0  0  0  2  0  0  0  0  0  0
  193.5000  176.5980  137.8190 N   0  0  0  0  0  0  0  0  0  0  0  0
  193.6810  174.2730  137.6270 N   0  0  2  0  0  0  0  0  0  0  0  0
  192.2640  174.6740  137.6690 C   0  0  0  0  0  2  0  0  0  0  0  0
  192.3010  176.1580  137.8010 C   0  0  0  0  0  0  0  0  0  0  0  0
  194.3550  175.5050  137.7200 N   0  0  0  0  0  2  0  0  0  0  0  0
  193.2440  172.3640  136.1270 C   0  0  0  0  0  2  0  0  0  0  0  0
  195.4640  173.4690  136.1280 C   0  0  0  0  0  2  0  0  0  0  0  0
  193.4900  171.8400  134.7850 N   0  0  0  0  0  2  0  0  0  0  0  0
  195.7380  172.8060  134.7810 C   0  0  0  0  0  2  0  0  0  0  0  0
  193.9610  173.7060  136.3060 C   0  0  2  0  0  3  0  0  0  0  0  0
  194.9140  171.5290  134.6630 C   0  0  0  0  0  2  0  0  0  0  0  0
  189.8990  176.2430  140.3980 C   0  0  0  0  0  2  0  0  0  0  0  0
  190.9250  177.1150  140.7670 O   0  0  0  0  0  1  0  0  0  0  0  0
  185.4250  178.0410  141.4090 C   0  0  0  0  0  0  0  0  0  0  0  0
  184.5520  177.8730  142.2230 C   0  0  0  0  0  3  0  0  0  0  0  0
  188.3030  179.5030  141.5250 C   0  0  0  0  0  2  0  0  0  0  0  0
  188.9670  179.1360  142.8380 C   0  0  0  0  0  2  0  0  0  0  0  0
  188.5960  177.7160  143.2140 C   0  0  0  0  0  2  0  0  0  0  0  0
  187.2520  177.7770  145.4000 C   0  0  0  0  0  3  0  0  0  0  0  0
  189.5320  177.0380  146.8070 N   0  0  0  0  0  0  0  0  0  0  0  0
  190.9580  176.9360  144.9300 C   0  0  0  0  0  3  0  0  0  0  0  0
  188.5360  177.5820  144.7000 C   0  0  0  0  0  0  0  0  0  0  0  0
  191.6760  176.5220  146.2250 C   0  0  0  0  0  3  0  0  0  0  0  0
  187.1640  177.6900  146.7350 C   0  0  0  0  0  3  0  0  0  0  0  0
  190.7630  176.6900  147.3720 N   0  0  0  0  0  0  0  0  0  0  0  0
  188.3720  177.4320  147.6070 C   0  0  0  0  0  3  0  0  0  0  0  0
  189.6040  177.2220  145.4170 C   0  0  0  0  0  0  0  0  0  0  0  0
  1  3  1  6  0  0  0
  1  5  1  0  0  0  0
  1  6  1  0  0  0  0
  2 39  1  6  0  0  0
  4  3  1  0  0  0  0
  4  7  1  0  0  0  0
  5 10  2  0  0  0  0
  6  2  1  0  0  0  0
  7 23  1  0  0  0  0
  7  9  1  0  0  0  0
  8  3  2  0  0  0  0
  9  6  1  0  0  0  0
  9 35  1  0  0  0  0
 10  2  1  0  0  0  0
 10 37  1  0  0  0  0
 11  7  1  0  0  0  0
 12 13  1  0  0  0  0
 12 19  1  0  0  0  0
 12  5  1  0  0  0  0
 14 17  1  0  0  0  0
 15 14  1  0  0  0  0
 16 18  1  0  0  0  0
 16 15  1  0  0  0  0
 18 13  1  0  0  0  0
 18 17  1  0  0  0  0
 20 17  1  0  0  0  0
 20 19  1  0  0  0  0
 20 21  1  0  0  0  0
 22 21  1  0  0  0  0
 25 26  1  0  0  0  0
 25 28  1  0  0  0  0
 26 27  1  0  0  0  0
 27 24  2  0  0  0  0
 27 23  1  0  0  0  0
 28 24  1  0  0  0  0
 29 33  1  0  0  0  0
 30 33  1  0  0  0  0
 31 29  1  0  0  0  0
 32 30  1  0  0  0  0
 33 25  1  0  0  0  0
 34 32  1  0  0  0  0
 34 31  1  0  0  0  0
 35 36  1  0  0  0  0
 37 38  3  0  0  0  0
 39 40  1  0  0  0  0
 40 41  1  0  0  0  0
 41 45  1  0  0  0  0
 42 47  1  0  0  0  0
 43 48  1  0  0  0  0
 43 49  1  0  0  0  0
 44 50  2  0  0  0  0
 44 46  1  0  0  0  0
 45 42  2  0  0  0  0
 45 50  1  0  0  0  0
 46 48  2  0  0  0  0
 47 49  2  0  0  0  0
 50 43  1  0  0  0  0
M  END
>  <MODEL>
3

>  <REMARK>
 VINA RESULT:      -7.0      2.652      8.320
  Name = 
  10 active torsions:
  status: ('A' for Active; 'I' for Inactive)
    1  A    between atoms: C_1  and  C_44
    2  A    between atoms: C_3  and  C_46
    3  A    between atoms: C_4  and  C_27
    4  A    between atoms: N_5  and  C_29
    5  A    between atoms: C_9  and  C_26
    6  A    between atoms: C_12  and  C_27
    7  A    between atoms: C_12  and  C_31
    8  A    between atoms: N_18  and  C_41
    9  A    between atoms: C_20  and  C_31
   10  A    between atoms: O_33  and  C_49
                            x       y       z     vdW  Elec       q    Type
                         _______ _______ _______ _____ _____    ______ ____

>  <TORSDO>
F 10

$$$$
=
 OpenBabel11042413213D

 50 57  0  0  1  0  0  0  0  0999 V2000
  192.4550  176.7580  137.7870 C   0  0  1  0  0  3  0  0  0  0  0  0
  190.8600  175.8090  136.3800 C   0  0  2  0  0  3  0  0  0  0  0  0
  192.8230  176.8970  139.2440 C   0  0  0  0  0  0  0  0  0  0  0  0
  191.8180  177.4570  140.1930 C   0  0  0  0  0  2  0  0  0  0  0  0
  193.0460  175.5820  137.0920 C   0  0  0  0  0  0  0  0  0  0  0  0
  190.9910  176.7070  137.5410 N   0  0  1  0  0  0  0  0  0  0  0  0
  190.4170  176.8720  140.0100 C   0  0  1  0  0  0  0  0  0  0  0  0
  193.9580  176.6750  139.6330 O   0  0  0  0  0  0  0  0  0  0  0  0
  190.2730  176.0820  138.6770 C   0  0  1  0  0  3  0  0  0  0  0  0
  192.1430  175.0640  136.2820 C   0  0  0  0  0  0  0  0  0  0  0  0
  190.1950  175.9950  141.0730 O   0  0  0  0  0  1  0  0  0  0  0  0
  194.4830  175.1540  137.2010 C   0  0  1  0  0  3  0  0  0  0  0  0
  194.5670  173.7010  137.4190 N   0  0  0  0  0  2  0  0  0  0  0  0
  197.7200  172.7630  136.2810 O   0  0  0  0  0  0  0  0  0  0  0  0
  197.3880  171.6530  137.0830 C   0  0  0  0  0  2  0  0  0  0  0  0
  196.0980  171.9880  137.8180 C   0  0  0  0  0  2  0  0  0  0  0  0
  196.5320  173.4990  136.2650 C   0  0  1  0  0  3  0  0  0  0  0  0
  195.9290  173.3930  137.5730 N   0  0  1  0  0  0  0  0  0  0  0  0
  195.2940  175.5940  135.9600 C   0  0  0  0  0  2  0  0  0  0  0  0
  196.7000  174.9750  135.9450 C   0  0  2  0  0  3  0  0  0  0  0  0
  197.2660  175.1320  134.6780 O   0  0  0  0  0  0  0  0  0  0  0  0
  198.6360  175.2510  134.9150 C   0  0  0  0  0  1  0  0  0  0  0  0
  189.4750  177.9920  140.0790 N   0  0  0  0  0  2  0  0  0  0  0  0
  187.6160  179.1470  141.0010 N   0  0  0  0  0  0  0  0  0  0  0  0
  186.8700  177.7850  142.7510 N   0  0  2  0  0  0  0  0  0  0  0  0
  188.0340  177.1730  142.0880 C   0  0  0  0  0  2  0  0  0  0  0  0
  188.3900  178.1300  141.0030 C   0  0  0  0  0  0  0  0  0  0  0  0
  186.6920  178.9780  142.0270 N   0  0  0  0  0  2  0  0  0  0  0  0
  188.3200  177.1810  144.6540 C   0  0  0  0  0  2  0  0  0  0  0  0
  186.0410  178.0740  145.0540 C   0  0  0  0  0  2  0  0  0  0  0  0
  188.7290  177.5860  145.9980 N   0  0  0  0  0  2  0  0  0  0  0  0
  186.4660  178.3720  146.4900 C   0  0  0  0  0  2  0  0  0  0  0  0
  187.2530  178.1430  144.1190 C   0  0  2  0  0  3  0  0  0  0  0  0
  187.5880  177.4250  146.8970 C   0  0  0  0  0  2  0  0  0  0  0  0
  188.8160  175.7160  138.3440 C   0  0  0  0  0  2  0  0  0  0  0  0
  188.1090  176.8370  137.9060 O   0  0  0  0  0  1  0  0  0  0  0  0
  192.3530  173.9280  135.4180 C   0  0  0  0  0  0  0  0  0  0  0  0
  192.5310  172.9780  134.6960 C   0  0  0  0  0  3  0  0  0  0  0  0
  190.6130  176.6330  135.1230 C   0  0  0  0  0  2  0  0  0  0  0  0
  189.1550  176.5450  134.7180 C   0  0  0  0  0  2  0  0  0  0  0  0
  188.7500  175.0910  134.5940 C   0  0  0  0  0  2  0  0  0  0  0  0
  186.4100  176.0900  134.9430 C   0  0  0  0  0  3  0  0  0  0  0  0
  185.4490  173.5700  135.6120 N   0  0  0  0  0  0  0  0  0  0  0  0
  187.5090  172.4460  135.3660 C   0  0  0  0  0  3  0  0  0  0  0  0
  187.3170  174.9260  134.9830 C   0  0  0  0  0  0  0  0  0  0  0  0
  186.3640  171.4840  135.7220 C   0  0  0  0  0  3  0  0  0  0  0  0
  185.1250  175.9860  135.3080 C   0  0  0  0  0  3  0  0  0  0  0  0
  185.1250  172.2510  135.9490 N   0  0  0  0  0  0  0  0  0  0  0  0
  184.5350  174.6930  135.8230 C   0  0  0  0  0  3  0  0  0  0  0  0
  186.8090  173.7330  135.3040 C   0  0  0  0  0  0  0  0  0  0  0  0
  1  5  1  1  0  0  0
  1  3  1  0  0  0  0
  2 39  1  6  0  0  0
  2  6  1  0  0  0  0
  3  8  2  0  0  0  0
  3  4  1  0  0  0  0
  5 12  1  0  0  0  0
  6  1  1  0  0  0  0
  6  9  1  0  0  0  0
  7 23  1  0  0  0  0
  7  4  1  0  0  0  0
  7 11  1  0  0  0  0
  9  7  1  0  0  0  0
 10  2  1  0  0  0  0
 10  5  2  0  0  0  0
 12 13  1  0  0  0  0
 13 18  1  0  0  0  0
 14 15  1  0  0  0  0
 15 16  1  0  0  0  0
 17 14  1  0  0  0  0
 17 18  1  0  0  0  0
 18 16  1  0  0  0  0
 19 12  1  0  0  0  0
 20 19  1  0  0  0  0
 20 17  1  0  0  0  0
 21 22  1  0  0  0  0
 21 20  1  0  0  0  0
 23 27  1  0  0  0  0
 24 27  2  0  0  0  0
 24 28  1  0  0  0  0
 25 33  1  0  0  0  0
 26 25  1  0  0  0  0
 27 26  1  0  0  0  0
 28 25  1  0  0  0  0
 29 31  1  0  0  0  0
 30 32  1  0  0  0  0
 31 34  1  0  0  0  0
 32 34  1  0  0  0  0
 33 29  1  0  0  0  0
 33 30  1  0  0  0  0
 35  9  1  0  0  0  0
 36 35  1  0  0  0  0
 37 10  1  0  0  0  0
 38 37  3  0  0  0  0
 40 39  1  0  0  0  0
 41 40  1  0  0  0  0
 41 45  1  0  0  0  0
 42 45  2  0  0  0  0
 42 47  1  0  0  0  0
 43 49  1  0  0  0  0
 43 48  1  0  0  0  0
 44 46  1  0  0  0  0
 45 50  1  0  0  0  0
 46 48  2  0  0  0  0
 47 49  2  0  0  0  0
 50 44  2  0  0  0  0
 50 43  1  0  0  0  0
M  END
>  <MODEL>
4

>  <REMARK>
 VINA RESULT:      -6.9      2.186      7.396
  Name = 
  10 active torsions:
  status: ('A' for Active; 'I' for Inactive)
    1  A    between atoms: C_1  and  C_44
    2  A    between atoms: C_3  and  C_46
    3  A    between atoms: C_4  and  C_27
    4  A    between atoms: N_5  and  C_29
    5  A    between atoms: C_9  and  C_26
    6  A    between atoms: C_12  and  C_27
    7  A    between atoms: C_12  and  C_31
    8  A    between atoms: N_18  and  C_41
    9  A    between atoms: C_20  and  C_31
   10  A    between atoms: O_33  and  C_49
                            x       y       z     vdW  Elec       q    Type
                         _______ _______ _______ _____ _____    ______ ____

>  <TORSDO>
F 10

$$$$
=
 OpenBabel11042413213D

 50 57  0  0  1  0  0  0  0  0999 V2000
  184.7630  177.4510  138.2950 C   0  0  1  0  0  3  0  0  0  0  0  0
  184.4480  176.6370  136.1350 C   0  0  2  0  0  3  0  0  0  0  0  0
  185.5940  178.4310  139.0870 C   0  0  0  0  0  0  0  0  0  0  0  0
  187.0800  178.3280  139.0320 C   0  0  0  0  0  2  0  0  0  0  0  0
  183.4940  177.9960  137.7410 C   0  0  0  0  0  0  0  0  0  0  0  0
  185.4910  176.8290  137.1590 N   0  0  1  0  0  0  0  0  0  0  0  0
  187.6240  178.1310  137.6160 C   0  0  1  0  0  0  0  0  0  0  0  0
  185.0740  179.2190  139.8600 O   0  0  0  0  0  0  0  0  0  0  0  0
  186.5090  177.7500  136.6000 C   0  0  1  0  0  3  0  0  0  0  0  0
  183.3130  177.5140  136.5270 C   0  0  0  0  0  0  0  0  0  0  0  0
  188.1910  179.3440  137.2200 O   0  0  0  0  0  1  0  0  0  0  0  0
  182.5180  178.8440  138.5080 C   0  0  1  0  0  3  0  0  0  0  0  0
  182.1960  180.0640  137.7490 N   0  0  0  0  0  2  0  0  0  0  0  0
  179.0830  181.0980  138.9130 O   0  0  0  0  0  0  0  0  0  0  0  0
  179.5420  182.2810  138.2990 C   0  0  0  0  0  2  0  0  0  0  0  0
  180.9910  182.0550  137.8940 C   0  0  0  0  0  2  0  0  0  0  0  0
  180.0530  180.1620  138.5440 C   0  0  1  0  0  3  0  0  0  0  0  0
  181.3350  180.8270  138.5560 N   0  0  1  0  0  0  0  0  0  0  0  0
  181.2460  178.0450  138.8720 C   0  0  0  0  0  2  0  0  0  0  0  0
  180.1460  178.9490  139.4530 C   0  0  2  0  0  3  0  0  0  0  0  0
  178.9330  178.2590  139.4630 O   0  0  0  0  0  0  0  0  0  0  0  0
  178.9830  177.4380  138.3360 C   0  0  0  0  0  1  0  0  0  0  0  0
  188.6580  177.0970  137.6970 N   0  0  0  0  0  2  0  0  0  0  0  0
  190.5290  176.0440  138.7110 N   0  0  0  0  0  0  0  0  0  0  0  0
  190.9820  177.3250  140.6150 N   0  0  2  0  0  0  0  0  0  0  0  0
  189.8290  177.8810  139.8880 C   0  0  0  0  0  2  0  0  0  0  0  0
  189.6640  176.9840  138.7100 C   0  0  0  0  0  0  0  0  0  0  0  0
  191.3380  176.2130  139.8300 N   0  0  0  0  0  2  0  0  0  0  0  0
  188.9920  176.9560  142.0260 C   0  0  0  0  0  2  0  0  0  0  0  0
  191.1440  177.6290  143.0560 C   0  0  0  0  0  2  0  0  0  0  0  0
  188.5370  176.4060  143.3010 N   0  0  0  0  0  2  0  0  0  0  0  0
  190.5910  177.1570  144.3970 C   0  0  0  0  0  2  0  0  0  0  0  0
  190.5140  176.8290  141.9120 C   0  0  2  0  0  3  0  0  0  0  0  0
  189.0690  177.2380  144.3800 C   0  0  0  0  0  2  0  0  0  0  0  0
  187.0600  177.2880  135.2400 C   0  0  0  0  0  2  0  0  0  0  0  0
  187.7290  178.3300  134.5950 O   0  0  0  0  0  1  0  0  0  0  0  0
  182.1790  177.7930  135.6800 C   0  0  0  0  0  0  0  0  0  0  0  0
  181.2310  178.0290  134.9730 C   0  0  0  0  0  3  0  0  0  0  0  0
  184.0220  175.1750  136.1090 C   0  0  0  0  0  2  0  0  0  0  0  0
  183.7840  174.6750  137.5210 C   0  0  0  0  0  2  0  0  0  0  0  0
  183.4690  173.1930  137.4880 C   0  0  0  0  0  2  0  0  0  0  0  0
  181.0420  173.9950  137.7270 C   0  0  0  0  0  3  0  0  0  0  0  0
  180.1830  171.7840  136.2810 N   0  0  0  0  0  0  0  0  0  0  0  0
  182.3260  170.8550  135.9540 C   0  0  0  0  0  3  0  0  0  0  0  0
  182.0090  172.9880  137.2500 C   0  0  0  0  0  0  0  0  0  0  0  0
  181.2290  170.0370  135.2530 C   0  0  0  0  0  3  0  0  0  0  0  0
  179.7230  173.8340  137.5550 C   0  0  0  0  0  3  0  0  0  0  0  0
  179.9070  170.6140  135.5650 N   0  0  0  0  0  0  0  0  0  0  0  0
  179.1400  172.5990  136.9060 C   0  0  0  0  0  3  0  0  0  0  0  0
  181.5510  171.9440  136.5540 C   0  0  0  0  0  0  0  0  0  0  0  0
  1  5  1  6  0  0  0
  1  3  1  0  0  0  0
  2 39  1  1  0  0  0
  2 10  1  0  0  0  0
  2  6  1  0  0  0  0
  3  8  2  0  0  0  0
  4  3  1  0  0  0  0
  5 12  1  0  0  0  0
  6  1  1  0  0  0  0
  7 23  1  0  0  0  0
  7  4  1  0  0  0  0
  9  6  1  0  0  0  0
  9  7  1  0  0  0  0
 10  5  2  0  0  0  0
 11  7  1  0  0  0  0
 12 19  1  0  0  0  0
 13 12  1  0  0  0  0
 13 18  1  0  0  0  0
 15 14  1  0  0  0  0
 16 15  1  0  0  0  0
 16 18  1  0  0  0  0
 17 18  1  0  0  0  0
 17 14  1  0  0  0  0
 17 20  1  0  0  0  0
 19 20  1  0  0  0  0
 20 21  1  0  0  0  0
 22 21  1  0  0  0  0
 23 27  1  0  0  0  0
 24 28  1  0  0  0  0
 25 33  1  0  0  0  0
 26 25  1  0  0  0  0
 27 24  2  0  0  0  0
 27 26  1  0  0  0  0
 28 25  1  0  0  0  0
 29 31  1  0  0  0  0
 30 32  1  0  0  0  0
 31 34  1  0  0  0  0
 33 29  1  0  0  0  0
 33 30  1  0  0  0  0
 34 32  1  0  0  0  0
 35  9  1  0  0  0  0
 36 35  1  0  0  0  0
 37 10  1  0  0  0  0
 38 37  3  0  0  0  0
 39 40  1  0  0  0  0
 41 40  1  0  0  0  0
 43 50  1  0  0  0  0
 43 49  1  0  0  0  0
 44 50  2  0  0  0  0
 45 41  1  0  0  0  0
 45 42  2  0  0  0  0
 46 48  2  0  0  0  0
 46 44  1  0  0  0  0
 47 42  1  0  0  0  0
 48 43  1  0  0  0  0
 49 47  2  0  0  0  0
 50 45  1  0  0  0  0
M  END
>  <MODEL>
5

>  <REMARK>
 VINA RESULT:      -6.5      3.618     10.911
  Name = 
  10 active torsions:
  status: ('A' for Active; 'I' for Inactive)
    1  A    between atoms: C_1  and  C_44
    2  A    between atoms: C_3  and  C_46
    3  A    between atoms: C_4  and  C_27
    4  A    between atoms: N_5  and  C_29
    5  A    between atoms: C_9  and  C_26
    6  A    between atoms: C_12  and  C_27
    7  A    between atoms: C_12  and  C_31
    8  A    between atoms: N_18  and  C_41
    9  A    between atoms: C_20  and  C_31
   10  A    between atoms: O_33  and  C_49
                            x       y       z     vdW  Elec       q    Type
                         _______ _______ _______ _____ _____    ______ ____

>  <TORSDO>
F 10

$$$$
=
 OpenBabel11042413213D

 50 57  0  0  1  0  0  0  0  0999 V2000
  189.1620  176.4340  139.3170 C   0  0  1  0  0  3  0  0  0  0  0  0
  191.0450  175.8280  138.0870 C   0  0  2  0  0  3  0  0  0  0  0  0
  188.6970  177.3950  140.3840 C   0  0  0  0  0  0  0  0  0  0  0  0
  189.4200  177.4330  141.6870 C   0  0  0  0  0  2  0  0  0  0  0  0
  189.0150  176.9180  137.9170 C   0  0  0  0  0  0  0  0  0  0  0  0
  190.5750  176.0030  139.4730 N   0  0  1  0  0  0  0  0  0  0  0  0
  190.9430  177.4360  141.5380 C   0  0  1  0  0  0  0  0  0  0  0  0
  187.6760  178.0480  140.2440 O   0  0  0  0  0  0  0  0  0  0  0  0
  191.3990  177.0660  140.0970 C   0  0  1  0  0  3  0  0  0  0  0  0
  190.0750  176.5520  137.2230 C   0  0  0  0  0  0  0  0  0  0  0  0
  191.3820  178.7300  141.8240 O   0  0  0  0  0  1  0  0  0  0  0  0
  187.7880  177.5890  137.3670 C   0  0  1  0  0  3  0  0  0  0  0  0
  187.2570  176.8260  136.2260 N   0  0  0  0  0  2  0  0  0  0  0  0
  183.8830  177.6590  136.0290 O   0  0  0  0  0  0  0  0  0  0  0  0
  184.0990  177.1250  134.7430 C   0  0  0  0  0  2  0  0  0  0  0  0
  185.5930  176.8780  134.5940 C   0  0  0  0  0  2  0  0  0  0  0  0
  185.0850  177.3810  136.6850 C   0  0  1  0  0  3  0  0  0  0  0  0
  186.1580  177.5480  135.7320 N   0  0  1  0  0  0  0  0  0  0  0  0
  186.7200  177.7940  138.4660 C   0  0  0  0  0  2  0  0  0  0  0  0
  185.3800  178.2680  137.8820 C   0  0  2  0  0  3  0  0  0  0  0  0
  184.3770  178.1290  138.8430 O   0  0  0  0  0  0  0  0  0  0  0  0
  183.9490  179.4320  139.0990 C   0  0  0  0  0  1  0  0  0  0  0  0
  191.4700  176.4960  142.5300 N   0  0  0  0  0  2  0  0  0  0  0  0
  191.9060  175.7810  144.7520 N   0  0  0  0  0  0  0  0  0  0  0  0
  191.0190  177.4660  146.1110 N   0  0  2  0  0  0  0  0  0  0  0  0
  190.8120  177.7940  144.6910 C   0  0  0  0  0  2  0  0  0  0  0  0
  191.4270  176.6560  143.9530 C   0  0  0  0  0  0  0  0  0  0  0  0
  191.6860  176.2290  146.0510 N   0  0  0  0  0  2  0  0  0  0  0  0
  188.5860  177.7560  145.8240 C   0  0  0  0  0  2  0  0  0  0  0  0
  189.6120  177.9720  148.0710 C   0  0  0  0  0  2  0  0  0  0  0  0
  187.2860  177.4740  146.4300 N   0  0  0  0  0  2  0  0  0  0  0  0
  188.2190  177.7960  148.6680 C   0  0  0  0  0  2  0  0  0  0  0  0
  189.7090  177.2400  146.7290 C   0  0  2  0  0  3  0  0  0  0  0  0
  187.1700  178.2530  147.6620 C   0  0  0  0  0  2  0  0  0  0  0  0
  192.9110  176.8020  139.9890 C   0  0  0  0  0  2  0  0  0  0  0  0
  193.5470  177.8360  139.3010 O   0  0  0  0  0  1  0  0  0  0  0  0
  190.2840  176.8170  135.8200 C   0  0  0  0  0  0  0  0  0  0  0  0
  190.4570  177.0390  134.6480 C   0  0  0  0  0  3  0  0  0  0  0  0
  191.0760  174.3450  137.7430 C   0  0  0  0  0  2  0  0  0  0  0  0
  192.2230  174.0510  136.7970 C   0  0  0  0  0  2  0  0  0  0  0  0
  193.5390  174.2110  137.5300 C   0  0  0  0  0  2  0  0  0  0  0  0
  193.9760  176.0040  135.7450 C   0  0  0  0  0  3  0  0  0  0  0  0
  196.7120  175.6650  136.0940 N   0  0  0  0  0  0  0  0  0  0  0  0
  196.5450  173.9860  137.7420 C   0  0  0  0  0  3  0  0  0  0  0  0
  194.4930  175.0020  136.6970 C   0  0  0  0  0  0  0  0  0  0  0  0
  198.0050  174.3760  137.4600 C   0  0  0  0  0  3  0  0  0  0  0  0
  194.8000  176.7160  134.9640 C   0  0  0  0  0  3  0  0  0  0  0  0
  198.0510  175.3620  136.3640 N   0  0  0  0  0  0  0  0  0  0  0  0
  196.2980  176.5090  134.9720 C   0  0  0  0  0  3  0  0  0  0  0  0
  195.8160  174.8780  136.8350 C   0  0  0  0  0  0  0  0  0  0  0  0
  1  5  1  6  0  0  0
  1  6  1  0  0  0  0
  1  3  1  0  0  0  0
  2 39  1  6  0  0  0
  2  6  1  0  0  0  0
  3  4  1  0  0  0  0
  6  9  1  0  0  0  0
  7  4  1  0  0  0  0
  7 11  1  0  0  0  0
  7 23  1  0  0  0  0
  8  3  2  0  0  0  0
  9  7  1  0  0  0  0
 10  5  2  0  0  0  0
 10  2  1  0  0  0  0
 12  5  1  0  0  0  0
 12 19  1  0  0  0  0
 13 12  1  0  0  0  0
 14 17  1  0  0  0  0
 15 14  1  0  0  0  0
 16 15  1  0  0  0  0
 16 18  1  0  0  0  0
 17 20  1  0  0  0  0
 18 13  1  0  0  0  0
 18 17  1  0  0  0  0
 20 19  1  0  0  0  0
 20 21  1  0  0  0  0
 21 22  1  0  0  0  0
 23 27  1  0  0  0  0
 24 28  1  0  0  0  0
 25 33  1  0  0  0  0
 26 25  1  0  0  0  0
 27 26  1  0  0  0  0
 27 24  2  0  0  0  0
 28 25  1  0  0  0  0
 29 31  1  0  0  0  0
 29 33  1  0  0  0  0
 30 32  1  0  0  0  0
 31 34  1  0  0  0  0
 33 30  1  0  0  0  0
 34 32  1  0  0  0  0
 35  9  1  0  0  0  0
 36 35  1  0  0  0  0
 37 10  1  0  0  0  0
 38 37  3  0  0  0  0
 40 41  1  0  0  0  0
 40 39  1  0  0  0  0
 42 45  2  0  0  0  0
 43 48  1  0  0  0  0
 43 50  1  0  0  0  0
 45 50  1  0  0  0  0
 45 41  1  0  0  0  0
 46 44  1  0  0  0  0
 47 49  2  0  0  0  0
 47 42  1  0  0  0  0
 48 46  2  0  0  0  0
 49 43  1  0  0  0  0
 50 44  2  0  0  0  0
M  END
>  <MODEL>
6

>  <REMARK>
 VINA RESULT:      -6.5      2.650      9.669
  Name = 
  10 active torsions:
  status: ('A' for Active; 'I' for Inactive)
    1  A    between atoms: C_1  and  C_44
    2  A    between atoms: C_3  and  C_46
    3  A    between atoms: C_4  and  C_27
    4  A    between atoms: N_5  and  C_29
    5  A    between atoms: C_9  and  C_26
    6  A    between atoms: C_12  and  C_27
    7  A    between atoms: C_12  and  C_31
    8  A    between atoms: N_18  and  C_41
    9  A    between atoms: C_20  and  C_31
   10  A    between atoms: O_33  and  C_49
                            x       y       z     vdW  Elec       q    Type
                         _______ _______ _______ _____ _____    ______ ____

>  <TORSDO>
F 10

$$$$
=
 OpenBabel11042413213D

 50 57  0  0  1  0  0  0  0  0999 V2000
  185.9130  179.0050  139.3440 C   0  0  1  0  0  3  0  0  0  0  0  0
  187.0660  177.7260  137.7750 C   0  0  2  0  0  3  0  0  0  0  0  0
  184.6620  179.0070  140.1880 C   0  0  0  0  0  0  0  0  0  0  0  0
  183.3400  178.8420  139.5210 C   0  0  0  0  0  2  0  0  0  0  0  0
  187.1120  178.3980  139.9850 C   0  0  0  0  0  0  0  0  0  0  0  0
  185.7480  178.3340  138.0290 N   0  0  1  0  0  0  0  0  0  0  0  0
  183.3220  177.7250  138.4750 C   0  0  1  0  0  0  0  0  0  0  0  0
  184.7060  179.2620  141.3810 O   0  0  0  0  0  0  0  0  0  0  0  0
  184.7520  177.2380  138.1020 C   0  0  1  0  0  3  0  0  0  0  0  0
  187.7690  177.6930  139.0850 C   0  0  0  0  0  0  0  0  0  0  0  0
  182.6180  176.6540  139.0280 O   0  0  0  0  0  1  0  0  0  0  0  0
  187.5610  178.6690  141.3930 C   0  0  1  0  0  3  0  0  0  0  0  0
  186.8720  177.7670  142.3320 N   0  0  0  0  0  2  0  0  0  0  0  0
  188.9400  177.5620  145.1240 O   0  0  0  0  0  0  0  0  0  0  0  0
  187.7220  177.0990  145.6620 C   0  0  0  0  0  2  0  0  0  0  0  0
  186.6470  177.3030  144.6050 C   0  0  0  0  0  2  0  0  0  0  0  0
  188.6570  177.6610  143.7590 C   0  0  1  0  0  3  0  0  0  0  0  0
  187.2960  178.1250  143.6220 N   0  0  1  0  0  0  0  0  0  0  0  0
  189.0980  178.5620  141.5210 C   0  0  0  0  0  2  0  0  0  0  0  0
  189.5560  178.6110  142.9880 C   0  0  2  0  0  3  0  0  0  0  0  0
  190.8860  178.1950  143.0750 O   0  0  0  0  0  0  0  0  0  0  0  0
  191.4810  179.0940  143.9600 C   0  0  0  0  0  1  0  0  0  0  0  0
  182.6070  178.2460  137.3080 N   0  0  0  0  0  2  0  0  0  0  0  0
  180.9500  179.5860  136.2590 N   0  0  0  0  0  0  0  0  0  0  0  0
  179.8630  180.6820  138.0170 N   0  0  2  0  0  0  0  0  0  0  0  0
  180.9250  179.8080  138.5400 C   0  0  0  0  0  2  0  0  0  0  0  0
  181.5170  179.1740  137.3280 C   0  0  0  0  0  0  0  0  0  0  0  0
  179.9540  180.4850  136.6270 N   0  0  0  0  0  2  0  0  0  0  0  0
  178.9790  182.9580  138.3750 C   0  0  0  0  0  2  0  0  0  0  0  0
  181.1350  182.6270  137.1960 C   0  0  0  0  0  2  0  0  0  0  0  0
  179.3580  184.3290  138.7110 N   0  0  0  0  0  2  0  0  0  0  0  0
  181.4460  184.0980  137.4580 C   0  0  0  0  0  2  0  0  0  0  0  0
  180.2280  182.0730  138.2980 C   0  0  2  0  0  3  0  0  0  0  0  0
  180.1430  184.8760  137.6070 C   0  0  0  0  0  2  0  0  0  0  0  0
  184.7770  176.3150  136.8720 C   0  0  0  0  0  2  0  0  0  0  0  0
  184.8310  174.9740  137.2580 O   0  0  0  0  0  1  0  0  0  0  0  0
  188.9990  176.9770  139.3230 C   0  0  0  0  0  0  0  0  0  0  0  0
  190.0280  176.3790  139.5200 C   0  0  0  0  0  3  0  0  0  0  0  0
  187.8330  178.5730  136.7680 C   0  0  0  0  0  2  0  0  0  0  0  0
  187.8090  177.9130  135.4040 C   0  0  0  0  0  2  0  0  0  0  0  0
  189.1720  177.3240  135.1010 C   0  0  0  0  0  2  0  0  0  0  0  0
  188.0860  175.0550  135.6140 C   0  0  0  0  0  3  0  0  0  0  0  0
  190.5120  174.1350  136.6100 N   0  0  0  0  0  0  0  0  0  0  0  0
  191.7050  176.1360  136.2410 C   0  0  0  0  0  3  0  0  0  0  0  0
  189.2650  175.9420  135.6590 C   0  0  0  0  0  0  0  0  0  0  0  0
  192.6030  175.0230  136.8060 C   0  0  0  0  0  3  0  0  0  0  0  0
  188.1240  173.8170  136.1260 C   0  0  0  0  0  3  0  0  0  0  0  0
  191.7870  173.8300  137.0980 N   0  0  0  0  0  0  0  0  0  0  0  0
  189.3510  173.2680  136.8180 C   0  0  0  0  0  3  0  0  0  0  0  0
  190.4110  175.4540  136.1410 C   0  0  0  0  0  0  0  0  0  0  0  0
  1  5  1  1  0  0  0
  1  3  1  0  0  0  0
  2 39  1  6  0  0  0
  2  6  1  0  0  0  0
  2 10  1  0  0  0  0
  3  8  2  0  0  0  0
  4  3  1  0  0  0  0
  5 12  1  0  0  0  0
  6  9  1  0  0  0  0
  6  1  1  0  0  0  0
  7 11  1  0  0  0  0
  7  4  1  0  0  0  0
  9  7  1  0  0  0  0
 10 37  1  0  0  0  0
 10  5  2  0  0  0  0
 12 19  1  0  0  0  0
 12 13  1  0  0  0  0
 13 18  1  0  0  0  0
 14 15  1  0  0  0  0
 16 15  1  0  0  0  0
 17 14  1  0  0  0  0
 18 17  1  0  0  0  0
 18 16  1  0  0  0  0
 19 20  1  0  0  0  0
 20 21  1  0  0  0  0
 20 17  1  0  0  0  0
 21 22  1  0  0  0  0
 23 27  1  0  0  0  0
 23  7  1  0  0  0  0
 24 28  1  0  0  0  0
 24 27  2  0  0  0  0
 25 33  1  0  0  0  0
 25 26  1  0  0  0  0
 27 26  1  0  0  0  0
 28 25  1  0  0  0  0
 29 31  1  0  0  0  0
 30 32  1  0  0  0  0
 30 33  1  0  0  0  0
 32 34  1  0  0  0  0
 33 29  1  0  0  0  0
 34 31  1  0  0  0  0
 35 36  1  0  0  0  0
 35  9  1  0  0  0  0
 37 38  3  0  0  0  0
 40 39  1  0  0  0  0
 41 40  1  0  0  0  0
 41 45  1  0  0  0  0
 42 45  2  0  0  0  0
 42 47  1  0  0  0  0
 43 49  1  0  0  0  0
 43 48  1  0  0  0  0
 44 46  1  0  0  0  0
 45 50  1  0  0  0  0
 46 48  2  0  0  0  0
 47 49  2  0  0  0  0
 50 44  2  0  0  0  0
 50 43  1  0  0  0  0
M  END
>  <MODEL>
7

>  <REMARK>
 VINA RESULT:      -6.3      3.977      8.457
  Name = 
  10 active torsions:
  status: ('A' for Active; 'I' for Inactive)
    1  A    between atoms: C_1  and  C_44
    2  A    between atoms: C_3  and  C_46
    3  A    between atoms: C_4  and  C_27
    4  A    between atoms: N_5  and  C_29
    5  A    between atoms: C_9  and  C_26
    6  A    between atoms: C_12  and  C_27
    7  A    between atoms: C_12  and  C_31
    8  A    between atoms: N_18  and  C_41
    9  A    between atoms: C_20  and  C_31
   10  A    between atoms: O_33  and  C_49
                            x       y       z     vdW  Elec       q    Type
                         _______ _______ _______ _____ _____    ______ ____

>  <TORSDO>
F 10

$$$$
=
 OpenBabel11042413213D

 50 57  0  0  1  0  0  0  0  0999 V2000
  186.6760  178.6280  139.0870 C   0  0  1  0  0  3  0  0  0  0  0  0
  188.1690  177.3630  137.8240 C   0  0  2  0  0  3  0  0  0  0  0  0
  185.3040  178.5720  139.7130 C   0  0  0  0  0  0  0  0  0  0  0  0
  184.1290  178.2550  138.8520 C   0  0  0  0  0  2  0  0  0  0  0  0
  187.7900  178.1640  139.9580 C   0  0  0  0  0  0  0  0  0  0  0  0
  186.7850  177.8700  137.8140 N   0  0  1  0  0  0  0  0  0  0  0  0
  184.3710  177.0820  137.9000 C   0  0  1  0  0  0  0  0  0  0  0  0
  185.1260  178.8990  140.8750 O   0  0  0  0  0  0  0  0  0  0  0  0
  185.8770  176.6990  137.8030 C   0  0  1  0  0  3  0  0  0  0  0  0
  188.6420  177.4670  139.2300 C   0  0  0  0  0  0  0  0  0  0  0  0
  183.6660  175.9890  138.4070 O   0  0  0  0  0  1  0  0  0  0  0  0
  187.9740  178.5550  141.3970 C   0  0  1  0  0  3  0  0  0  0  0  0
  187.4030  177.5260  142.2820 N   0  0  0  0  0  2  0  0  0  0  0  0
  189.0760  177.8650  145.3160 O   0  0  0  0  0  0  0  0  0  0  0  0
  187.9440  177.1280  145.7190 C   0  0  0  0  0  2  0  0  0  0  0  0
  186.9990  177.0520  144.5290 C   0  0  0  0  0  2  0  0  0  0  0  0
  188.9590  177.8740  143.9230 C   0  0  1  0  0  3  0  0  0  0  0  0
  187.5570  177.9930  143.5980 N   0  0  1  0  0  0  0  0  0  0  0  0
  189.4610  178.8250  141.7190 C   0  0  0  0  0  2  0  0  0  0  0  0
  189.6990  179.0030  143.2280 C   0  0  2  0  0  3  0  0  0  0  0  0
  191.0660  178.9220  143.4980 O   0  0  0  0  0  0  0  0  0  0  0  0
  191.4070  177.6010  143.2030 C   0  0  0  0  0  1  0  0  0  0  0  0
  183.8270  177.4710  136.5970 N   0  0  0  0  0  2  0  0  0  0  0  0
  182.1070  178.2760  135.1720 N   0  0  0  0  0  0  0  0  0  0  0  0
  180.2930  178.6860  136.5920 N   0  0  2  0  0  0  0  0  0  0  0  0
  181.4380  178.1750  137.3620 C   0  0  0  0  0  2  0  0  0  0  0  0
  182.5020  177.9510  136.3430 C   0  0  0  0  0  0  0  0  0  0  0  0
  180.7920  178.7170  135.2760 N   0  0  0  0  0  2  0  0  0  0  0  0
  180.0250  181.0060  135.7960 C   0  0  0  0  0  2  0  0  0  0  0  0
  181.1210  180.5510  137.9740 C   0  0  0  0  0  2  0  0  0  0  0  0
  179.7120  182.3690  136.2230 N   0  0  0  0  0  2  0  0  0  0  0  0
  180.8870  182.0140  138.3390 C   0  0  0  0  0  2  0  0  0  0  0  0
  180.0350  180.0670  137.0080 C   0  0  2  0  0  3  0  0  0  0  0  0
  180.8030  182.8510  137.0680 C   0  0  0  0  0  2  0  0  0  0  0  0
  186.1770  175.7100  136.6630 C   0  0  0  0  0  2  0  0  0  0  0  0
  186.4150  174.4290  137.1660 O   0  0  0  0  0  1  0  0  0  0  0  0
  189.8640  176.8750  139.7180 C   0  0  0  0  0  0  0  0  0  0  0  0
  190.8850  176.3780  140.1230 C   0  0  0  0  0  3  0  0  0  0  0  0
  189.0290  178.2120  136.8980 C   0  0  0  0  0  2  0  0  0  0  0  0
  189.6090  177.3550  135.7900 C   0  0  0  0  0  2  0  0  0  0  0  0
  189.7170  175.9200  136.2620 C   0  0  0  0  0  2  0  0  0  0  0  0
  192.1770  176.3720  136.8420 C   0  0  0  0  0  3  0  0  0  0  0  0
  192.8560  173.8630  135.8600 N   0  0  0  0  0  0  0  0  0  0  0  0
  190.6680  173.2440  135.2320 C   0  0  0  0  0  3  0  0  0  0  0  0
  191.1470  175.4900  136.2610 C   0  0  0  0  0  0  0  0  0  0  0  0
  191.6830  172.1170  134.9800 C   0  0  0  0  0  3  0  0  0  0  0  0
  193.4730  176.0320  136.8370 C   0  0  0  0  0  3  0  0  0  0  0  0
  193.0410  172.5910  135.3080 N   0  0  0  0  0  0  0  0  0  0  0  0
  193.9670  174.7520  136.2010 C   0  0  0  0  0  3  0  0  0  0  0  0
  191.5190  174.2900  135.8060 C   0  0  0  0  0  0  0  0  0  0  0  0
  1  3  1  1  0  0  0
  1  5  1  0  0  0  0
  2 39  1  6  0  0  0
  2 10  1  0  0  0  0
  3  8  2  0  0  0  0
  4  3  1  0  0  0  0
  5 12  1  0  0  0  0
  6  2  1  0  0  0  0
  6  1  1  0  0  0  0
  7 11  1  0  0  0  0
  7  4  1  0  0  0  0
  9  6  1  0  0  0  0
  9  7  1  0  0  0  0
 10 37  1  0  0  0  0
 10  5  2  0  0  0  0
 12 19  1  0  0  0  0
 12 13  1  0  0  0  0
 13 18  1  0  0  0  0
 14 15  1  0  0  0  0
 16 15  1  0  0  0  0
 17 14  1  0  0  0  0
 18 17  1  0  0  0  0
 18 16  1  0  0  0  0
 19 20  1  0  0  0  0
 20 21  1  0  0  0  0
 20 17  1  0  0  0  0
 22 21  1  0  0  0  0
 23  7  1  0  0  0  0
 24 28  1  0  0  0  0
 24 27  2  0  0  0  0
 25 33  1  0  0  0  0
 25 26  1  0  0  0  0
 27 23  1  0  0  0  0
 27 26  1  0  0  0  0
 28 25  1  0  0  0  0
 29 31  1  0  0  0  0
 29 33  1  0  0  0  0
 30 32  1  0  0  0  0
 31 34  1  0  0  0  0
 33 30  1  0  0  0  0
 34 32  1  0  0  0  0
 35 36  1  0  0  0  0
 35  9  1  0  0  0  0
 37 38  3  0  0  0  0
 40 41  1  0  0  0  0
 40 39  1  0  0  0  0
 43 49  1  0  0  0  0
 44 50  2  0  0  0  0
 45 41  1  0  0  0  0
 45 42  2  0  0  0  0
 46 44  1  0  0  0  0
 46 48  2  0  0  0  0
 47 42  1  0  0  0  0
 48 43  1  0  0  0  0
 49 47  2  0  0  0  0
 50 43  1  0  0  0  0
 50 45  1  0  0  0  0
M  END
>  <MODEL>
8

>  <REMARK>
 VINA RESULT:      -5.9      3.314      8.199
  Name = 
  10 active torsions:
  status: ('A' for Active; 'I' for Inactive)
    1  A    between atoms: C_1  and  C_44
    2  A    between atoms: C_3  and  C_46
    3  A    between atoms: C_4  and  C_27
    4  A    between atoms: N_5  and  C_29
    5  A    between atoms: C_9  and  C_26
    6  A    between atoms: C_12  and  C_27
    7  A    between atoms: C_12  and  C_31
    8  A    between atoms: N_18  and  C_41
    9  A    between atoms: C_20  and  C_31
   10  A    between atoms: O_33  and  C_49
                            x       y       z     vdW  Elec       q    Type
                         _______ _______ _______ _____ _____    ______ ____

>  <TORSDO>
F 10

$$$$
=
 OpenBabel11042413213D

 50 57  0  0  1  0  0  0  0  0999 V2000
  186.9750  177.4820  139.0310 C   0  0  1  0  0  3  0  0  0  0  0  0
  185.1900  177.8280  137.5750 C   0  0  2  0  0  3  0  0  0  0  0  0
  188.4050  177.8960  139.2790 C   0  0  0  0  0  0  0  0  0  0  0  0
  189.4080  177.7200  138.1900 C   0  0  0  0  0  2  0  0  0  0  0  0
  185.9450  178.3200  139.7030 C   0  0  0  0  0  0  0  0  0  0  0  0
  186.6080  177.4260  137.5930 N   0  0  1  0  0  0  0  0  0  0  0  0
  188.9070  178.1850  136.8210 C   0  0  1  0  0  0  0  0  0  0  0  0
  188.7750  178.2550  140.3850 O   0  0  0  0  0  0  0  0  0  0  0  0
  187.3690  178.4220  136.8010 C   0  0  1  0  0  3  0  0  0  0  0  0
  184.9290  178.4930  138.8790 C   0  0  0  0  0  0  0  0  0  0  0  0
  189.5470  179.3920  136.5360 O   0  0  0  0  0  1  0  0  0  0  0  0
  186.0050  178.7690  141.1360 C   0  0  1  0  0  3  0  0  0  0  0  0
  184.6530  178.8060  141.7170 N   0  0  0  0  0  2  0  0  0  0  0  0
  185.0990  178.4810  145.1530 O   0  0  0  0  0  0  0  0  0  0  0  0
  183.7910  179.0030  145.1040 C   0  0  0  0  0  2  0  0  0  0  0  0
  183.5020  179.3850  143.6600 C   0  0  0  0  0  2  0  0  0  0  0  0
  185.3830  178.2320  143.8080 C   0  0  1  0  0  3  0  0  0  0  0  0
  184.7890  179.2930  143.0270 N   0  0  1  0  0  0  0  0  0  0  0  0
  186.9580  177.8750  141.9630 C   0  0  0  0  0  2  0  0  0  0  0  0
  186.8620  178.1720  143.4680 C   0  0  2  0  0  3  0  0  0  0  0  0
  187.4800  177.1480  144.1860 O   0  0  0  0  0  0  0  0  0  0  0  0
  188.1280  176.3790  143.2190 C   0  0  0  0  0  1  0  0  0  0  0  0
  189.3080  177.1630  135.8510 N   0  0  0  0  0  2  0  0  0  0  0  0
  189.7030  174.9220  135.1730 N   0  0  0  0  0  0  0  0  0  0  0  0
  189.1540  173.6220  137.0390 N   0  0  2  0  0  0  0  0  0  0  0  0
  188.9520  175.0510  137.3340 C   0  0  0  0  0  2  0  0  0  0  0  0
  189.3450  175.7490  136.0780 C   0  0  0  0  0  0  0  0  0  0  0  0
  189.6060  173.6410  135.7070 N   0  0  0  0  0  2  0  0  0  0  0  0
  187.6110  172.1840  135.7590 C   0  0  0  0  0  2  0  0  0  0  0  0
  186.7220  173.9810  137.2180 C   0  0  0  0  0  2  0  0  0  0  0  0
  186.3310  171.4820  135.8210 N   0  0  0  0  0  2  0  0  0  0  0  0
  185.3650  173.2860  137.1610 C   0  0  0  0  0  2  0  0  0  0  0  0
  187.8490  172.9560  137.0610 C   0  0  2  0  0  3  0  0  0  0  0  0
  185.2600  172.4760  135.8750 C   0  0  0  0  0  2  0  0  0  0  0  0
  186.8060  178.6280  135.3850 C   0  0  0  0  0  2  0  0  0  0  0  0
  186.5700  177.4010  134.7610 O   0  0  0  0  0  1  0  0  0  0  0  0
  183.7260  179.2290  139.1840 C   0  0  0  0  0  0  0  0  0  0  0  0
  182.7210  179.8440  139.4400 C   0  0  0  0  0  3  0  0  0  0  0  0
  184.3130  176.5940  137.4090 C   0  0  0  0  0  2  0  0  0  0  0  0
  183.4050  176.7560  136.2060 C   0  0  0  0  0  2  0  0  0  0  0  0
  181.9770  176.9540  136.6710 C   0  0  0  0  0  2  0  0  0  0  0  0
  181.6120  174.4340  136.3440 C   0  0  0  0  0  3  0  0  0  0  0  0
  180.3010  174.3200  138.7920 N   0  0  0  0  0  0  0  0  0  0  0  0
  180.5090  176.6160  139.2900 C   0  0  0  0  0  3  0  0  0  0  0  0
  181.4110  175.6560  137.1460 C   0  0  0  0  0  0  0  0  0  0  0  0
  179.8280  175.8370  140.4270 C   0  0  0  0  0  3  0  0  0  0  0  0
  181.0990  173.2560  136.7260 C   0  0  0  0  0  3  0  0  0  0  0  0
  179.6470  174.4300  140.0240 N   0  0  0  0  0  0  0  0  0  0  0  0
  180.2490  173.1110  137.9680 C   0  0  0  0  0  3  0  0  0  0  0  0
  180.7800  175.5520  138.3190 C   0  0  0  0  0  0  0  0  0  0  0  0
  1  3  1  6  0  0  0
  1  5  1  0  0  0  0
  2 39  1  1  0  0  0
  2  6  1  0  0  0  0
  2 10  1  0  0  0  0
  3  8  2  0  0  0  0
  4  3  1  0  0  0  0
  5 12  1  0  0  0  0
  6  1  1  0  0  0  0
  7  4  1  0  0  0  0
  9  7  1  0  0  0  0
  9  6  1  0  0  0  0
 10 37  1  0  0  0  0
 10  5  2  0  0  0  0
 11  7  1  0  0  0  0
 12 13  1  0  0  0  0
 12 19  1  0  0  0  0
 13 18  1  0  0  0  0
 15 14  1  0  0  0  0
 16 15  1  0  0  0  0
 17 14  1  0  0  0  0
 18 16  1  0  0  0  0
 18 17  1  0  0  0  0
 19 20  1  0  0  0  0
 20 17  1  0  0  0  0
 20 21  1  0  0  0  0
 22 21  1  0  0  0  0
 23 27  1  0  0  0  0
 23  7  1  0  0  0  0
 24 28  1  0  0  0  0
 24 27  2  0  0  0  0
 25 33  1  0  0  0  0
 25 26  1  0  0  0  0
 27 26  1  0  0  0  0
 28 25  1  0  0  0  0
 29 31  1  0  0  0  0
 29 33  1  0  0  0  0
 31 34  1  0  0  0  0
 32 30  1  0  0  0  0
 33 30  1  0  0  0  0
 34 32  1  0  0  0  0
 35  9  1  0  0  0  0
 36 35  1  0  0  0  0
 37 38  3  0  0  0  0
 40 41  1  0  0  0  0
 40 39  1  0  0  0  0
 41 45  1  0  0  0  0
 42 47  1  0  0  0  0
 42 45  2  0  0  0  0
 43 48  1  0  0  0  0
 44 46  1  0  0  0  0
 45 50  1  0  0  0  0
 47 49  2  0  0  0  0
 48 46  2  0  0  0  0
 49 43  1  0  0  0  0
 50 43  1  0  0  0  0
 50 44  2  0  0  0  0
M  END
>  <MODEL>
9

>  <REMARK>
 VINA RESULT:      -5.7      3.696      8.519
  Name = 
  10 active torsions:
  status: ('A' for Active; 'I' for Inactive)
    1  A    between atoms: C_1  and  C_44
    2  A    between atoms: C_3  and  C_46
    3  A    between atoms: C_4  and  C_27
    4  A    between atoms: N_5  and  C_29
    5  A    between atoms: C_9  and  C_26
    6  A    between atoms: C_12  and  C_27
    7  A    between atoms: C_12  and  C_31
    8  A    between atoms: N_18  and  C_41
    9  A    between atoms: C_20  and  C_31
   10  A    between atoms: O_33  and  C_49
                            x       y       z     vdW  Elec       q    Type
                         _______ _______ _______ _____ _____    ______ ____

>  <TORSDO>
F 10

$$$$
