=
 OpenBabel11042411383D

 45 49  0  0  1  0  0  0  0  0999 V2000
  191.4930  177.3360  140.4560 C   0  0  0  0  0  0  0  0  0  0  0  0
  190.8620  177.1340  139.1740 N   0  0  0  0  0  0  0  0  0  0  0  0
  192.7250  177.6100  140.4950 O   0  0  0  0  0  0  0  0  0  0  0  0
  190.7480  177.2310  141.7310 C   0  0  0  0  0  0  0  0  0  0  0  0
  190.1660  176.0120  142.1050 C   0  0  0  0  0  3  0  0  0  0  0  0
  189.4670  175.9090  143.2670 N   0  0  0  0  0  0  0  0  0  0  0  0
  188.5600  176.8000  145.3120 N   0  0  0  0  0  2  0  0  0  0  0  0
  189.8470  178.2120  143.7570 C   0  0  0  0  0  3  0  0  0  0  0  0
  189.2960  176.9710  144.0990 C   0  0  0  0  0  0  0  0  0  0  0  0
  190.5690  178.3370  142.5700 C   0  0  0  0  0  3  0  0  0  0  0  0
  188.3270  177.8810  146.2580 C   0  0  0  0  0  2  0  0  0  0  0  0
  186.1590  178.3010  145.0870 N   0  0  0  0  0  0  0  0  0  0  0  0
  186.1320  178.6370  147.3000 C   0  0  0  0  0  3  0  0  0  0  0  0
  186.8960  178.2870  146.2100 C   0  0  0  0  0  0  0  0  0  0  0  0
  184.8860  178.8930  146.8580 N   0  0  0  0  0  2  0  0  0  0  0  0
  183.7720  178.8470  144.6290 C   0  0  0  0  0  1  0  0  0  0  0  0
  184.9450  178.6820  145.5280 C   0  0  0  0  0  0  0  0  0  0  0  0
  189.4230  177.2630  138.9750 C   0  0  0  0  0  2  0  0  0  0  0  0
  189.0590  178.7060  138.6650 C   0  0  0  0  0  2  0  0  0  0  0  0
  188.6330  178.8340  137.2150 C   0  0  0  0  0  2  0  0  0  0  0  0
  186.6070  177.3300  137.1390 C   0  0  0  0  0  3  0  0  0  0  0  0
  185.9240  178.1400  137.8850 N   0  0  0  0  0  0  0  0  0  0  0  0
  187.9610  177.6180  136.7860 N   0  0  0  0  0  2  0  0  0  0  0  0
  184.5660  177.8790  138.2570 C   0  0  0  0  0  0  0  0  0  0  0  0
  183.8470  177.1290  137.5390 O   0  0  0  0  0  0  0  0  0  0  0  0
  184.0200  178.4690  139.4520 N   0  0  0  0  0  0  0  0  0  0  0  0
  182.1050  179.2450  140.6190 O   0  0  0  0  0  0  0  0  0  0  0  0
  181.6850  179.2290  139.2800 C   0  0  0  0  0  0  0  0  0  0  0  0
  182.1780  180.4710  138.5530 C   0  0  0  0  0  1  0  0  0  0  0  0
  180.2220  178.8570  139.1790 C   0  0  0  0  0  1  0  0  0  0  0  0
  182.6210  178.1990  139.8180 C   0  0  1  0  0  3  0  0  0  0  0  0
  184.9190  179.1480  140.3490 C   0  0  0  0  0  3  0  0  0  0  0  0
  185.4600  178.5600  141.4110 C   0  0  0  0  0  2  0  0  0  0  0  0
  191.6750  176.7870  138.0160 C   0  0  0  0  0  2  0  0  0  0  0  0
  194.6330  171.6950  136.6020 C   0  0  0  0  0  2  0  0  0  0  0  0
  193.6210  174.2840  136.3230 C   0  0  0  0  0  0  0  0  0  0  0  0
  193.8370  171.9600  135.3270 C   0  0  2  0  0  3  0  0  0  0  0  0
  192.7430  174.8010  137.1400 C   0  0  0  0  0  0  0  0  0  0  0  0
  195.9270  172.2290  136.4980 O   0  0  0  0  0  0  0  0  0  0  0  0
  195.5610  173.3300  138.7020 C   0  0  0  0  0  1  0  0  0  0  0  0
  196.0010  173.4310  137.2410 C   0  0  2  0  0  3  0  0  0  0  0  0
  195.3120  174.8790  136.3580 S   0  0  0  0  0  0  0  0  0  0  0  0
  193.1990  173.3550  135.2190 C   0  0  1  0  0  3  0  0  0  0  0  0
  191.8700  175.3120  137.9590 C   0  0  0  0  0  3  0  0  0  0  0  0
  192.3920  172.1680  135.7210 C   0  0  0  0  0  2  0  0  0  0  0  0
  1  3  2  0  0  0  0
  1  4  1  0  0  0  0
  2  1  1  0  0  0  0
  4  5  2  0  0  0  0
  4 10  1  0  0  0  0
  5  6  1  0  0  0  0
  6  9  2  0  0  0  0
  7 11  1  0  0  0  0
  8  9  1  0  0  0  0
  9  7  1  0  0  0  0
 10  8  2  0  0  0  0
 12 17  2  0  0  0  0
 12 14  1  0  0  0  0
 14 11  1  0  0  0  0
 14 13  2  0  0  0  0
 15 13  1  0  0  0  0
 16 17  1  0  0  0  0
 17 15  1  0  0  0  0
 18  2  1  0  0  0  0
 19 18  1  0  0  0  0
 20 19  1  0  0  0  0
 21 22  2  0  0  0  0
 22 24  1  0  0  0  0
 23 21  1  0  0  0  0
 23 20  1  0  0  0  0
 24 26  1  0  0  0  0
 25 24  2  0  0  0  0
 26 32  1  0  0  0  0
 28 31  1  0  0  0  0
 28 27  1  0  0  0  0
 29 28  1  0  0  0  0
 30 28  1  0  0  0  0
 31 26  1  6  0  0  0
 31 27  1  0  0  0  0
 32 33  2  0  0  0  0
 34  2  1  0  0  0  0
 36 42  1  0  0  0  0
 36 38  2  0  0  0  0
 37 45  1  1  0  0  0
 37 35  1  0  0  0  0
 38 44  2  0  0  0  0
 39 35  1  0  0  0  0
 39 41  1  0  0  0  0
 41 40  1  1  0  0  0
 42 41  1  0  0  0  0
 43 37  1  0  0  0  0
 43 45  1  1  0  0  0
 43 36  1  0  0  0  0
 44 34  1  0  0  0  0
M  END
>  <MODEL>
1

>  <REMARK>
 VINA RESULT:      -7.9      0.000      0.000
  Name = 
  12 active torsions:
  status: ('A' for Active; 'I' for Inactive)
    1  A    between atoms: C_3  and  C_20
    2  A    between atoms: C_5  and  C_7
    3  A    between atoms: C_7  and  N_32
    4  A    between atoms: C_9  and  N_45
    5  A    between atoms: N_11  and  C_38
    6  A    between atoms: C_15  and  C_26
    7  A    between atoms: C_15  and  C_29
    8  A    between atoms: N_17  and  C_29
    9  A    between atoms: C_26  and  N_34
   10  A    between atoms: C_27  and  N_34
   11  A    between atoms: C_27  and  C_41
   12  A    between atoms: C_36  and  N_45
                            x       y       z     vdW  Elec       q    Type
                         _______ _______ _______ _____ _____    ______ ____

>  <TORSDO>
F 12

$$$$
=
 OpenBabel11042411383D

 45 49  0  0  1  0  0  0  0  0999 V2000
  191.4750  177.3130  140.4940 C   0  0  0  0  0  0  0  0  0  0  0  0
  190.9170  177.1050  139.1810 N   0  0  0  0  0  0  0  0  0  0  0  0
  192.7060  177.5760  140.6010 O   0  0  0  0  0  0  0  0  0  0  0  0
  190.6590  177.2260  141.7260 C   0  0  0  0  0  0  0  0  0  0  0  0
  190.0840  176.0060  142.1020 C   0  0  0  0  0  3  0  0  0  0  0  0
  189.3190  175.9190  143.2230 N   0  0  0  0  0  0  0  0  0  0  0  0
  188.2730  176.8460  145.1830 N   0  0  0  0  0  2  0  0  0  0  0  0
  189.6170  178.2440  143.6650 C   0  0  0  0  0  3  0  0  0  0  0  0
  189.0750  177.0000  144.0110 C   0  0  0  0  0  0  0  0  0  0  0  0
  190.4050  178.3520  142.5190 C   0  0  0  0  0  3  0  0  0  0  0  0
  187.9590  177.9480  146.0800 C   0  0  0  0  0  2  0  0  0  0  0  0
  185.8780  178.3640  144.7590 N   0  0  0  0  0  0  0  0  0  0  0  0
  185.6660  178.5950  146.9770 C   0  0  0  0  0  3  0  0  0  0  0  0
  186.5240  178.3170  145.9360 C   0  0  0  0  0  0  0  0  0  0  0  0
  184.4510  178.8370  146.4480 N   0  0  0  0  0  2  0  0  0  0  0  0
  183.5190  178.8650  144.1370 C   0  0  0  0  0  1  0  0  0  0  0  0
  184.6210  178.6900  145.1190 C   0  0  0  0  0  0  0  0  0  0  0  0
  189.4930  177.2450  138.8990 C   0  0  0  0  0  2  0  0  0  0  0  0
  189.1600  178.6880  138.5610 C   0  0  0  0  0  2  0  0  0  0  0  0
  188.6990  178.7920  137.1200 C   0  0  0  0  0  2  0  0  0  0  0  0
  186.3980  177.8730  136.6320 C   0  0  0  0  0  3  0  0  0  0  0  0
  186.8890  176.7410  136.2350 N   0  0  0  0  0  0  0  0  0  0  0  0
  187.2520  178.9310  137.0710 N   0  0  0  0  0  2  0  0  0  0  0  0
  186.0600  175.6600  135.7890 C   0  0  0  0  0  0  0  0  0  0  0  0
  184.8340  175.8590  135.5580 O   0  0  0  0  0  0  0  0  0  0  0  0
  186.6250  174.3490  135.6000 N   0  0  0  0  0  0  0  0  0  0  0  0
  186.2190  172.0120  135.6650 O   0  0  0  0  0  0  0  0  0  0  0  0
  185.0840  172.5550  136.2860 C   0  0  0  0  0  0  0  0  0  0  0  0
  185.3850  172.8980  137.7380 C   0  0  0  0  0  1  0  0  0  0  0  0
  183.8520  171.7360  135.9710 C   0  0  0  0  0  1  0  0  0  0  0  0
  185.7600  173.2480  135.1510 C   0  0  1  0  0  3  0  0  0  0  0  0
  188.0550  174.2060  135.6750 C   0  0  0  0  0  3  0  0  0  0  0  0
  188.7080  174.0630  136.8230 C   0  0  0  0  0  2  0  0  0  0  0  0
  191.7900  176.7390  138.0740 C   0  0  0  0  0  2  0  0  0  0  0  0
  194.1100  171.4600  136.2230 C   0  0  0  0  0  2  0  0  0  0  0  0
  193.3810  174.1560  136.1460 C   0  0  0  0  0  0  0  0  0  0  0  0
  193.3000  171.8910  135.0030 C   0  0  2  0  0  3  0  0  0  0  0  0
  192.5980  174.7100  137.0320 C   0  0  0  0  0  0  0  0  0  0  0  0
  195.4510  171.8560  136.0940 O   0  0  0  0  0  0  0  0  0  0  0  0
  195.2930  172.8450  138.3740 C   0  0  0  0  0  1  0  0  0  0  0  0
  195.6850  172.9930  136.9030 C   0  0  2  0  0  3  0  0  0  0  0  0
  195.1270  174.5610  136.1420 S   0  0  0  0  0  0  0  0  0  0  0  0
  192.8170  173.3510  135.0090 C   0  0  1  0  0  3  0  0  0  0  0  0
  191.8190  175.2590  137.9190 C   0  0  0  0  0  3  0  0  0  0  0  0
  191.9040  172.2280  135.4750 C   0  0  0  0  0  2  0  0  0  0  0  0
  1  3  2  0  0  0  0
  1  4  1  0  0  0  0
  2  1  1  0  0  0  0
  4  5  2  0  0  0  0
  4 10  1  0  0  0  0
  5  6  1  0  0  0  0
  6  9  2  0  0  0  0
  7 11  1  0  0  0  0
  8  9  1  0  0  0  0
  9  7  1  0  0  0  0
 10  8  2  0  0  0  0
 12 17  2  0  0  0  0
 12 14  1  0  0  0  0
 14 11  1  0  0  0  0
 14 13  2  0  0  0  0
 15 13  1  0  0  0  0
 16 17  1  0  0  0  0
 17 15  1  0  0  0  0
 18  2  1  0  0  0  0
 19 18  1  0  0  0  0
 20 19  1  0  0  0  0
 21 23  1  0  0  0  0
 22 21  2  0  0  0  0
 23 20  1  0  0  0  0
 24 22  1  0  0  0  0
 25 24  2  0  0  0  0
 26 32  1  0  0  0  0
 26 24  1  0  0  0  0
 27 28  1  0  0  0  0
 28 29  1  0  0  0  0
 30 28  1  0  0  0  0
 31 26  1  1  0  0  0
 31 27  1  0  0  0  0
 31 28  1  0  0  0  0
 32 33  2  0  0  0  0
 34  2  1  0  0  0  0
 36 38  2  0  0  0  0
 37 43  1  0  0  0  0
 37 45  1  1  0  0  0
 37 35  1  0  0  0  0
 38 44  2  0  0  0  0
 39 35  1  0  0  0  0
 39 41  1  0  0  0  0
 41 40  1  1  0  0  0
 42 36  1  0  0  0  0
 42 41  1  0  0  0  0
 43 45  1  1  0  0  0
 43 36  1  0  0  0  0
 44 34  1  0  0  0  0
M  END
>  <MODEL>
2

>  <REMARK>
 VINA RESULT:      -7.8      2.226      3.456
  Name = 
  12 active torsions:
  status: ('A' for Active; 'I' for Inactive)
    1  A    between atoms: C_3  and  C_20
    2  A    between atoms: C_5  and  C_7
    3  A    between atoms: C_7  and  N_32
    4  A    between atoms: C_9  and  N_45
    5  A    between atoms: N_11  and  C_38
    6  A    between atoms: C_15  and  C_26
    7  A    between atoms: C_15  and  C_29
    8  A    between atoms: N_17  and  C_29
    9  A    between atoms: C_26  and  N_34
   10  A    between atoms: C_27  and  N_34
   11  A    between atoms: C_27  and  C_41
   12  A    between atoms: C_36  and  N_45
                            x       y       z     vdW  Elec       q    Type
                         _______ _______ _______ _____ _____    ______ ____

>  <TORSDO>
F 12

$$$$
=
 OpenBabel11042411383D

 45 49  0  0  1  0  0  0  0  0999 V2000
  185.8790  177.4850  136.5840 C   0  0  0  0  0  0  0  0  0  0  0  0
  184.9800  177.8250  137.6600 N   0  0  0  0  0  0  0  0  0  0  0  0
  185.4280  177.4250  135.4060 O   0  0  0  0  0  0  0  0  0  0  0  0
  187.3140  177.1970  136.8090 C   0  0  0  0  0  0  0  0  0  0  0  0
  188.2740  178.1880  136.5680 C   0  0  0  0  0  3  0  0  0  0  0  0
  189.5960  177.9290  136.7560 N   0  0  0  0  0  0  0  0  0  0  0  0
  191.4370  176.5010  137.3630 N   0  0  0  0  0  2  0  0  0  0  0  0
  189.1130  175.6860  137.4090 C   0  0  0  0  0  3  0  0  0  0  0  0
  190.0370  176.7110  137.1710 C   0  0  0  0  0  0  0  0  0  0  0  0
  187.7530  175.9340  137.2220 C   0  0  0  0  0  3  0  0  0  0  0  0
  191.9960  175.2310  137.8020 C   0  0  0  0  0  2  0  0  0  0  0  0
  194.2940  174.2580  137.9360 N   0  0  0  0  0  0  0  0  0  0  0  0
  194.0650  175.9820  136.5250 C   0  0  0  0  0  3  0  0  0  0  0  0
  193.4380  175.1680  137.4420 C   0  0  0  0  0  0  0  0  0  0  0  0
  195.3510  175.5880  136.4450 N   0  0  0  0  0  2  0  0  0  0  0  0
  196.7100  173.8060  137.5340 C   0  0  0  0  0  1  0  0  0  0  0  0
  195.4470  174.5550  137.3060 C   0  0  0  0  0  0  0  0  0  0  0  0
  185.4450  178.3530  138.9370 C   0  0  0  0  0  2  0  0  0  0  0  0
  184.3630  179.2010  139.5850 C   0  0  0  0  0  2  0  0  0  0  0  0
  184.1490  178.7640  141.0210 C   0  0  0  0  0  2  0  0  0  0  0  0
  186.1140  178.9640  142.5950 C   0  0  0  0  0  3  0  0  0  0  0  0
  186.3960  177.7060  142.4700 N   0  0  0  0  0  0  0  0  0  0  0  0
  185.0010  179.5410  141.9080 N   0  0  0  0  0  2  0  0  0  0  0  0
  187.5030  177.0980  143.1460 C   0  0  0  0  0  0  0  0  0  0  0  0
  187.3990  176.7700  144.3610 O   0  0  0  0  0  0  0  0  0  0  0  0
  188.7340  176.8560  142.4390 N   0  0  0  0  0  0  0  0  0  0  0  0
  191.0960  176.7110  142.6300 O   0  0  0  0  0  0  0  0  0  0  0  0
  190.7020  177.2450  143.8680 C   0  0  0  0  0  0  0  0  0  0  0  0
  190.4520  178.7400  143.7470 C   0  0  0  0  0  1  0  0  0  0  0  0
  191.5950  176.7420  144.9800 C   0  0  0  0  0  1  0  0  0  0  0  0
  189.8660  176.2400  143.1480 C   0  0  1  0  0  3  0  0  0  0  0  0
  188.7520  177.0520  141.0130 C   0  0  0  0  0  3  0  0  0  0  0  0
  188.9790  178.2330  140.4490 C   0  0  0  0  0  2  0  0  0  0  0  0
  183.5460  177.6420  137.4880 C   0  0  0  0  0  2  0  0  0  0  0  0
  183.1990  171.6110  137.0490 C   0  0  0  0  0  2  0  0  0  0  0  0
  183.1750  174.2880  136.2490 C   0  0  0  0  0  0  0  0  0  0  0  0
  181.9710  172.0540  136.2600 C   0  0  2  0  0  3  0  0  0  0  0  0
  183.1620  175.2860  137.0910 C   0  0  0  0  0  0  0  0  0  0  0  0
  184.2910  171.4030  136.1910 O   0  0  0  0  0  0  0  0  0  0  0  0
  185.6500  172.8410  137.7040 C   0  0  0  0  0  1  0  0  0  0  0  0
  185.1820  172.4980  136.2890 C   0  0  2  0  0  3  0  0  0  0  0  0
  184.6630  173.9530  135.3070 S   0  0  0  0  0  0  0  0  0  0  0  0
  181.9130  173.5490  135.9040 C   0  0  1  0  0  3  0  0  0  0  0  0
  183.1520  176.2780  137.9350 C   0  0  0  0  0  3  0  0  0  0  0  0
  181.1880  173.0130  137.1280 C   0  0  0  0  0  2  0  0  0  0  0  0
  1  4  1  0  0  0  0
  1  2  1  0  0  0  0
  2 18  1  0  0  0  0
  3  1  2  0  0  0  0
  4 10  1  0  0  0  0
  5  6  1  0  0  0  0
  5  4  2  0  0  0  0
  6  9  2  0  0  0  0
  7 11  1  0  0  0  0
  9  7  1  0  0  0  0
  9  8  1  0  0  0  0
 10  8  2  0  0  0  0
 13 14  2  0  0  0  0
 14 11  1  0  0  0  0
 14 12  1  0  0  0  0
 15 13  1  0  0  0  0
 15 17  1  0  0  0  0
 17 16  1  0  0  0  0
 17 12  2  0  0  0  0
 18 19  1  0  0  0  0
 19 20  1  0  0  0  0
 20 23  1  0  0  0  0
 22 21  2  0  0  0  0
 22 24  1  0  0  0  0
 23 21  1  0  0  0  0
 24 25  2  0  0  0  0
 26 24  1  0  0  0  0
 27 31  1  0  0  0  0
 27 28  1  0  0  0  0
 28 30  1  0  0  0  0
 29 28  1  0  0  0  0
 31 26  1  6  0  0  0
 31 28  1  0  0  0  0
 32 26  1  0  0  0  0
 33 32  2  0  0  0  0
 34  2  1  0  0  0  0
 34 44  1  0  0  0  0
 36 38  2  0  0  0  0
 37 35  1  1  0  0  0
 37 45  1  0  0  0  0
 38 44  2  0  0  0  0
 39 41  1  0  0  0  0
 39 35  1  0  0  0  0
 41 40  1  1  0  0  0
 42 36  1  0  0  0  0
 42 41  1  0  0  0  0
 43 36  1  0  0  0  0
 43 37  1  0  0  0  0
 43 45  1  1  0  0  0
M  END
>  <MODEL>
3

>  <REMARK>
 VINA RESULT:      -7.6      3.562      9.314
  Name = 
  12 active torsions:
  status: ('A' for Active; 'I' for Inactive)
    1  A    between atoms: C_3  and  C_20
    2  A    between atoms: C_5  and  C_7
    3  A    between atoms: C_7  and  N_32
    4  A    between atoms: C_9  and  N_45
    5  A    between atoms: N_11  and  C_38
    6  A    between atoms: C_15  and  C_26
    7  A    between atoms: C_15  and  C_29
    8  A    between atoms: N_17  and  C_29
    9  A    between atoms: C_26  and  N_34
   10  A    between atoms: C_27  and  N_34
   11  A    between atoms: C_27  and  C_41
   12  A    between atoms: C_36  and  N_45
                            x       y       z     vdW  Elec       q    Type
                         _______ _______ _______ _____ _____    ______ ____

>  <TORSDO>
F 12

$$$$
=
 OpenBabel11042411383D

 45 49  0  0  1  0  0  0  0  0999 V2000
  182.1060  179.0160  142.1340 C   0  0  0  0  0  0  0  0  0  0  0  0
  182.0460  178.9370  140.6940 N   0  0  0  0  0  0  0  0  0  0  0  0
  181.0600  179.3210  142.7730 O   0  0  0  0  0  0  0  0  0  0  0  0
  183.3510  178.7580  142.8920 C   0  0  0  0  0  0  0  0  0  0  0  0
  183.3590  178.8720  144.2880 C   0  0  0  0  0  3  0  0  0  0  0  0
  184.5020  178.6540  144.9920 N   0  0  0  0  0  0  0  0  0  0  0  0
  186.8380  178.1000  145.1720 N   0  0  0  0  0  2  0  0  0  0  0  0
  185.7140  178.2200  142.9840 C   0  0  0  0  0  3  0  0  0  0  0  0
  185.6720  178.3300  144.3790 C   0  0  0  0  0  0  0  0  0  0  0  0
  184.5510  178.4400  142.2450 C   0  0  0  0  0  3  0  0  0  0  0  0
  188.1300  177.7520  144.6000 C   0  0  0  0  0  2  0  0  0  0  0  0
  190.2540  176.7690  145.4770 N   0  0  0  0  0  0  0  0  0  0  0  0
  188.8870  177.6300  147.0270 C   0  0  0  0  0  3  0  0  0  0  0  0
  189.0710  177.3700  145.6880 C   0  0  0  0  0  0  0  0  0  0  0  0
  189.9710  177.1720  147.6820 N   0  0  0  0  0  2  0  0  0  0  0  0
  192.0880  176.0470  147.0000 C   0  0  0  0  0  1  0  0  0  0  0  0
  190.7640  176.6640  146.7190 C   0  0  0  0  0  0  0  0  0  0  0  0
  183.0150  178.1830  139.9060 C   0  0  0  0  0  2  0  0  0  0  0  0
  182.5420  176.7510  139.7160 C   0  0  0  0  0  2  0  0  0  0  0  0
  182.5170  176.4040  138.2400 C   0  0  0  0  0  2  0  0  0  0  0  0
  184.5470  175.2890  137.2340 C   0  0  0  0  0  3  0  0  0  0  0  0
  184.9510  176.4030  136.7110 N   0  0  0  0  0  0  0  0  0  0  0  0
  183.3380  175.2290  137.9930 N   0  0  0  0  0  2  0  0  0  0  0  0
  186.1580  176.4960  135.9440 C   0  0  0  0  0  0  0  0  0  0  0  0
  186.2930  175.8090  134.8920 O   0  0  0  0  0  0  0  0  0  0  0  0
  187.2160  177.3750  136.3690 N   0  0  0  0  0  0  0  0  0  0  0  0
  189.5640  177.7210  136.4120 O   0  0  0  0  0  0  0  0  0  0  0  0
  189.4390  176.3990  135.9560 C   0  0  0  0  0  0  0  0  0  0  0  0
  189.2040  175.4530  137.1230 C   0  0  0  0  0  1  0  0  0  0  0  0
  190.5260  176.0680  134.9570 C   0  0  0  0  0  1  0  0  0  0  0  0
  188.4530  177.4530  135.5770 C   0  0  1  0  0  3  0  0  0  0  0  0
  186.9510  178.2890  137.4490 C   0  0  0  0  0  3  0  0  0  0  0  0
  187.1910  177.9920  138.7220 C   0  0  0  0  0  2  0  0  0  0  0  0
  180.9850  179.6280  139.9760 C   0  0  0  0  0  2  0  0  0  0  0  0
  181.0080  183.1890  135.0770 C   0  0  0  0  0  2  0  0  0  0  0  0
  179.9930  181.6110  137.1460 C   0  0  0  0  0  0  0  0  0  0  0  0
  180.0510  182.0790  134.6530 C   0  0  2  0  0  3  0  0  0  0  0  0
  180.7430  180.8600  137.9070 C   0  0  0  0  0  0  0  0  0  0  0  0
  180.2990  184.2790  135.6090 O   0  0  0  0  0  0  0  0  0  0  0  0
  181.8320  184.2140  137.5710 C   0  0  0  0  0  1  0  0  0  0  0  0
  180.4060  184.2660  137.0190 C   0  0  2  0  0  3  0  0  0  0  0  0
  179.2550  183.0950  137.8300 S   0  0  0  0  0  0  0  0  0  0  0  0
  179.5690  181.1500  135.7800 C   0  0  1  0  0  3  0  0  0  0  0  0
  181.4950  180.1150  138.6650 C   0  0  0  0  0  3  0  0  0  0  0  0
  180.7440  180.7570  134.8970 C   0  0  0  0  0  2  0  0  0  0  0  0
  1  3  2  0  0  0  0
  1  4  1  0  0  0  0
  2  1  1  0  0  0  0
  4  5  2  0  0  0  0
  5  6  1  0  0  0  0
  8  9  1  0  0  0  0
  9  6  2  0  0  0  0
  9  7  1  0  0  0  0
 10  4  1  0  0  0  0
 10  8  2  0  0  0  0
 11  7  1  0  0  0  0
 11 14  1  0  0  0  0
 12 14  1  0  0  0  0
 12 17  2  0  0  0  0
 13 15  1  0  0  0  0
 14 13  2  0  0  0  0
 17 16  1  0  0  0  0
 17 15  1  0  0  0  0
 18  2  1  0  0  0  0
 19 18  1  0  0  0  0
 20 19  1  0  0  0  0
 21 23  1  0  0  0  0
 22 21  2  0  0  0  0
 23 20  1  0  0  0  0
 24 26  1  0  0  0  0
 24 22  1  0  0  0  0
 25 24  2  0  0  0  0
 26 32  1  0  0  0  0
 28 27  1  0  0  0  0
 28 29  1  0  0  0  0
 30 28  1  0  0  0  0
 31 28  1  0  0  0  0
 31 26  1  1  0  0  0
 31 27  1  0  0  0  0
 32 33  2  0  0  0  0
 34  2  1  0  0  0  0
 35 39  1  0  0  0  0
 36 42  1  0  0  0  0
 36 38  2  0  0  0  0
 37 45  1  6  0  0  0
 37 35  1  0  0  0  0
 37 43  1  0  0  0  0
 38 44  2  0  0  0  0
 39 41  1  0  0  0  0
 41 40  1  6  0  0  0
 41 42  1  0  0  0  0
 43 45  1  6  0  0  0
 43 36  1  0  0  0  0
 44 34  1  0  0  0  0
M  END
>  <MODEL>
4

>  <REMARK>
 VINA RESULT:      -7.4      4.302     10.037
  Name = 
  12 active torsions:
  status: ('A' for Active; 'I' for Inactive)
    1  A    between atoms: C_3  and  C_20
    2  A    between atoms: C_5  and  C_7
    3  A    between atoms: C_7  and  N_32
    4  A    between atoms: C_9  and  N_45
    5  A    between atoms: N_11  and  C_38
    6  A    between atoms: C_15  and  C_26
    7  A    between atoms: C_15  and  C_29
    8  A    between atoms: N_17  and  C_29
    9  A    between atoms: C_26  and  N_34
   10  A    between atoms: C_27  and  N_34
   11  A    between atoms: C_27  and  C_41
   12  A    between atoms: C_36  and  N_45
                            x       y       z     vdW  Elec       q    Type
                         _______ _______ _______ _____ _____    ______ ____

>  <TORSDO>
F 12

$$$$
=
 OpenBabel11042411383D

 45 49  0  0  1  0  0  0  0  0999 V2000
  189.6620  175.7530  135.8910 C   0  0  0  0  0  0  0  0  0  0  0  0
  190.9290  175.4400  136.5080 N   0  0  0  0  0  0  0  0  0  0  0  0
  189.4250  175.3220  134.7280 O   0  0  0  0  0  0  0  0  0  0  0  0
  188.6290  176.5670  136.5700 C   0  0  0  0  0  0  0  0  0  0  0  0
  188.8170  177.9460  136.7320 C   0  0  0  0  0  3  0  0  0  0  0  0
  187.8820  178.7000  137.3690 N   0  0  0  0  0  0  0  0  0  0  0  0
  185.7920  178.9990  138.5270 N   0  0  0  0  0  2  0  0  0  0  0  0
  186.5220  176.7770  137.7520 C   0  0  0  0  0  3  0  0  0  0  0  0
  186.7440  178.1540  137.8780 C   0  0  0  0  0  0  0  0  0  0  0  0
  187.4700  175.9880  137.1010 C   0  0  0  0  0  3  0  0  0  0  0  0
  184.5510  178.4990  139.1020 C   0  0  0  0  0  2  0  0  0  0  0  0
  183.4490  178.6660  141.3390 N   0  0  0  0  0  0  0  0  0  0  0  0
  185.6630  179.0010  141.3350 C   0  0  0  0  0  3  0  0  0  0  0  0
  184.5490  178.7380  140.5710 C   0  0  0  0  0  0  0  0  0  0  0  0
  185.2600  179.1110  142.6160 N   0  0  0  0  0  2  0  0  0  0  0  0
  183.0670  178.9330  143.7860 C   0  0  0  0  0  1  0  0  0  0  0  0
  183.9290  178.9060  142.5750 C   0  0  0  0  0  0  0  0  0  0  0  0
  191.1340  175.4830  137.9510 C   0  0  0  0  0  2  0  0  0  0  0  0
  191.9820  176.6870  138.3280 C   0  0  0  0  0  2  0  0  0  0  0  0
  191.7920  177.0160  139.7960 C   0  0  0  0  0  2  0  0  0  0  0  0
  189.9920  177.9310  141.3130 C   0  0  0  0  0  3  0  0  0  0  0  0
  190.7760  177.8790  142.3440 N   0  0  0  0  0  0  0  0  0  0  0  0
  190.4410  177.5030  140.0250 N   0  0  0  0  0  2  0  0  0  0  0  0
  190.3560  178.3000  143.6470 C   0  0  0  0  0  0  0  0  0  0  0  0
  190.7890  179.3830  144.1320 O   0  0  0  0  0  0  0  0  0  0  0  0
  189.4370  177.4900  144.4040 N   0  0  0  0  0  0  0  0  0  0  0  0
  188.6710  176.8180  146.5480 O   0  0  0  0  0  0  0  0  0  0  0  0
  189.9160  177.4050  146.8180 C   0  0  0  0  0  0  0  0  0  0  0  0
  191.0420  176.4240  146.5260 C   0  0  0  0  0  1  0  0  0  0  0  0
  189.8990  178.1180  148.1520 C   0  0  0  0  0  1  0  0  0  0  0  0
  189.0210  177.9290  145.7450 C   0  0  1  0  0  3  0  0  0  0  0  0
  188.8080  176.3750  143.7460 C   0  0  0  0  0  3  0  0  0  0  0  0
  187.5270  176.3730  143.3930 C   0  0  0  0  0  2  0  0  0  0  0  0
  192.0630  175.0620  135.6760 C   0  0  0  0  0  2  0  0  0  0  0  0
  196.8930  171.8730  137.4580 C   0  0  0  0  0  2  0  0  0  0  0  0
  195.3100  173.5300  135.8610 C   0  0  0  0  0  0  0  0  0  0  0  0
  196.7630  171.4540  135.9960 C   0  0  2  0  0  3  0  0  0  0  0  0
  194.0320  173.7110  136.0650 C   0  0  0  0  0  0  0  0  0  0  0  0
  197.8050  172.9330  137.5910 O   0  0  0  0  0  0  0  0  0  0  0  0
  196.0800  174.1400  138.9220 C   0  0  0  0  0  1  0  0  0  0  0  0
  197.0940  174.1430  137.7780 C   0  0  2  0  0  3  0  0  0  0  0  0
  196.4540  174.8620  136.2220 S   0  0  0  0  0  0  0  0  0  0  0  0
  195.8140  172.3110  135.1420 C   0  0  1  0  0  3  0  0  0  0  0  0
  192.7600  173.8900  136.2730 C   0  0  0  0  0  3  0  0  0  0  0  0
  195.3350  171.0120  135.7700 C   0  0  0  0  0  2  0  0  0  0  0  0
  1  2  1  0  0  0  0
  1  4  1  0  0  0  0
  2 18  1  0  0  0  0
  3  1  2  0  0  0  0
  4  5  2  0  0  0  0
  4 10  1  0  0  0  0
  5  6  1  0  0  0  0
  6  9  2  0  0  0  0
  7 11  1  0  0  0  0
  8  9  1  0  0  0  0
  9  7  1  0  0  0  0
 10  8  2  0  0  0  0
 11 14  1  0  0  0  0
 12 17  2  0  0  0  0
 13 15  1  0  0  0  0
 14 13  2  0  0  0  0
 14 12  1  0  0  0  0
 17 15  1  0  0  0  0
 17 16  1  0  0  0  0
 18 19  1  0  0  0  0
 19 20  1  0  0  0  0
 20 23  1  0  0  0  0
 21 22  2  0  0  0  0
 22 24  1  0  0  0  0
 23 21  1  0  0  0  0
 24 25  2  0  0  0  0
 24 26  1  0  0  0  0
 27 28  1  0  0  0  0
 28 30  1  0  0  0  0
 29 28  1  0  0  0  0
 31 26  1  6  0  0  0
 31 27  1  0  0  0  0
 31 28  1  0  0  0  0
 32 26  1  0  0  0  0
 33 32  2  0  0  0  0
 34 44  1  0  0  0  0
 34  2  1  0  0  0  0
 35 39  1  0  0  0  0
 36 38  2  0  0  0  0
 36 42  1  0  0  0  0
 37 45  1  1  0  0  0
 37 35  1  0  0  0  0
 38 44  2  0  0  0  0
 39 41  1  0  0  0  0
 41 40  1  1  0  0  0
 42 41  1  0  0  0  0
 43 45  1  1  0  0  0
 43 36  1  0  0  0  0
 43 37  1  0  0  0  0
M  END
>  <MODEL>
5

>  <REMARK>
 VINA RESULT:      -7.4      2.568      6.080
  Name = 
  12 active torsions:
  status: ('A' for Active; 'I' for Inactive)
    1  A    between atoms: C_3  and  C_20
    2  A    between atoms: C_5  and  C_7
    3  A    between atoms: C_7  and  N_32
    4  A    between atoms: C_9  and  N_45
    5  A    between atoms: N_11  and  C_38
    6  A    between atoms: C_15  and  C_26
    7  A    between atoms: C_15  and  C_29
    8  A    between atoms: N_17  and  C_29
    9  A    between atoms: C_26  and  N_34
   10  A    between atoms: C_27  and  N_34
   11  A    between atoms: C_27  and  C_41
   12  A    between atoms: C_36  and  N_45
                            x       y       z     vdW  Elec       q    Type
                         _______ _______ _______ _____ _____    ______ ____

>  <TORSDO>
F 12

$$$$
=
 OpenBabel11042411383D

 45 49  0  0  1  0  0  0  0  0999 V2000
  187.7760  178.2590  137.5390 C   0  0  0  0  0  0  0  0  0  0  0  0
  188.6470  177.3520  138.2460 N   0  0  0  0  0  0  0  0  0  0  0  0
  188.1640  179.4430  137.3310 O   0  0  0  0  0  0  0  0  0  0  0  0
  186.4380  177.8560  137.0520 C   0  0  0  0  0  0  0  0  0  0  0  0
  186.2610  177.4890  135.7120 C   0  0  0  0  0  3  0  0  0  0  0  0
  185.0320  177.1330  135.2500 N   0  0  0  0  0  0  0  0  0  0  0  0
  182.6730  176.7330  135.5160 N   0  0  0  0  0  2  0  0  0  0  0  0
  184.0640  177.5030  137.3980 C   0  0  0  0  0  3  0  0  0  0  0  0
  183.9360  177.1280  136.0550 C   0  0  0  0  0  0  0  0  0  0  0  0
  185.3160  177.8710  137.8900 C   0  0  0  0  0  3  0  0  0  0  0  0
  181.4500  176.7010  136.3040 C   0  0  0  0  0  2  0  0  0  0  0  0
  181.8900  174.2410  136.3490 N   0  0  0  0  0  0  0  0  0  0  0  0
  180.2220  174.9390  137.6690 C   0  0  0  0  0  3  0  0  0  0  0  0
  181.1790  175.3080  136.7520 C   0  0  0  0  0  0  0  0  0  0  0  0
  180.3160  173.6070  137.8430 N   0  0  0  0  0  2  0  0  0  0  0  0
  181.7810  171.8170  136.9130 C   0  0  0  0  0  1  0  0  0  0  0  0
  181.3260  173.2280  137.0340 C   0  0  0  0  0  0  0  0  0  0  0  0
  188.5180  175.9020  138.1510 C   0  0  0  0  0  2  0  0  0  0  0  0
  189.1650  175.3960  136.8730 C   0  0  0  0  0  2  0  0  0  0  0  0
  189.3250  173.8890  136.9320 C   0  0  0  0  0  2  0  0  0  0  0  0
  191.3170  173.2380  135.5240 C   0  0  0  0  0  3  0  0  0  0  0  0
  192.1420  173.5420  136.4770 N   0  0  0  0  0  0  0  0  0  0  0  0
  189.9080  173.4030  135.6920 N   0  0  0  0  0  2  0  0  0  0  0  0
  193.5600  173.3890  136.3400 C   0  0  0  0  0  0  0  0  0  0  0  0
  194.0550  172.2460  136.1330 O   0  0  0  0  0  0  0  0  0  0  0  0
  194.4210  174.5390  136.4340 N   0  0  0  0  0  0  0  0  0  0  0  0
  196.5650  175.3680  137.0240 O   0  0  0  0  0  0  0  0  0  0  0  0
  196.5380  174.0930  137.6090 C   0  0  0  0  0  0  0  0  0  0  0  0
  195.7760  174.1270  138.9250 C   0  0  0  0  0  1  0  0  0  0  0  0
  197.9100  173.4560  137.5780 C   0  0  0  0  0  1  0  0  0  0  0  0
  195.8760  174.3670  136.3010 C   0  0  1  0  0  3  0  0  0  0  0  0
  193.8140  175.8450  136.4650 C   0  0  0  0  0  3  0  0  0  0  0  0
  193.2470  176.3520  137.5550 C   0  0  0  0  0  2  0  0  0  0  0  0
  189.7060  177.8800  139.0940 C   0  0  0  0  0  2  0  0  0  0  0  0
  188.9840  177.9200  145.1070 C   0  0  0  0  0  2  0  0  0  0  0  0
  189.3160  176.8960  142.5300 C   0  0  0  0  0  0  0  0  0  0  0  0
  187.9620  176.8720  144.6760 C   0  0  2  0  0  3  0  0  0  0  0  0
  189.2230  177.6270  141.4520 C   0  0  0  0  0  0  0  0  0  0  0  0
  190.1970  177.3120  145.4660 O   0  0  0  0  0  0  0  0  0  0  0  0
  191.3560  178.9250  143.9640 C   0  0  0  0  0  1  0  0  0  0  0  0
  191.1360  177.4830  144.4210 C   0  0  2  0  0  3  0  0  0  0  0  0
  190.9240  176.2940  143.0460 S   0  0  0  0  0  0  0  0  0  0  0  0
  188.0870  176.3800  143.2240 C   0  0  1  0  0  3  0  0  0  0  0  0
  189.1320  178.3620  140.3810 C   0  0  0  0  0  3  0  0  0  0  0  0
  187.1070  177.4830  143.5900 C   0  0  0  0  0  2  0  0  0  0  0  0
  1  2  1  0  0  0  0
  2 34  1  0  0  0  0
  3  1  2  0  0  0  0
  4  1  1  0  0  0  0
  4 10  1  0  0  0  0
  5  4  2  0  0  0  0
  6  5  1  0  0  0  0
  6  9  2  0  0  0  0
  7  9  1  0  0  0  0
  7 11  1  0  0  0  0
  8 10  2  0  0  0  0
  9  8  1  0  0  0  0
 11 14  1  0  0  0  0
 12 14  1  0  0  0  0
 12 17  2  0  0  0  0
 13 15  1  0  0  0  0
 14 13  2  0  0  0  0
 16 17  1  0  0  0  0
 17 15  1  0  0  0  0
 18  2  1  0  0  0  0
 19 20  1  0  0  0  0
 19 18  1  0  0  0  0
 21 23  1  0  0  0  0
 21 22  2  0  0  0  0
 23 20  1  0  0  0  0
 24 26  1  0  0  0  0
 24 22  1  0  0  0  0
 25 24  2  0  0  0  0
 26 32  1  0  0  0  0
 27 28  1  0  0  0  0
 28 29  1  0  0  0  0
 30 28  1  0  0  0  0
 31 26  1  1  0  0  0
 31 27  1  0  0  0  0
 31 28  1  0  0  0  0
 32 33  2  0  0  0  0
 34 44  1  0  0  0  0
 35 39  1  0  0  0  0
 36 42  1  0  0  0  0
 36 43  1  0  0  0  0
 37 45  1  6  0  0  0
 37 35  1  0  0  0  0
 38 36  2  0  0  0  0
 41 40  1  6  0  0  0
 41 39  1  0  0  0  0
 42 41  1  0  0  0  0
 43 45  1  6  0  0  0
 43 37  1  0  0  0  0
 44 38  2  0  0  0  0
M  END
>  <MODEL>
6

>  <REMARK>
 VINA RESULT:      -7.1      3.606      9.975
  Name = 
  12 active torsions:
  status: ('A' for Active; 'I' for Inactive)
    1  A    between atoms: C_3  and  C_20
    2  A    between atoms: C_5  and  C_7
    3  A    between atoms: C_7  and  N_32
    4  A    between atoms: C_9  and  N_45
    5  A    between atoms: N_11  and  C_38
    6  A    between atoms: C_15  and  C_26
    7  A    between atoms: C_15  and  C_29
    8  A    between atoms: N_17  and  C_29
    9  A    between atoms: C_26  and  N_34
   10  A    between atoms: C_27  and  N_34
   11  A    between atoms: C_27  and  C_41
   12  A    between atoms: C_36  and  N_45
                            x       y       z     vdW  Elec       q    Type
                         _______ _______ _______ _____ _____    ______ ____

>  <TORSDO>
F 12

$$$$
=
 OpenBabel11042411383D

 45 49  0  0  1  0  0  0  0  0999 V2000
  187.5140  176.3980  135.7160 C   0  0  0  0  0  0  0  0  0  0  0  0
  186.7650  177.4340  136.3840 N   0  0  0  0  0  0  0  0  0  0  0  0
  186.9920  175.8040  134.7310 O   0  0  0  0  0  0  0  0  0  0  0  0
  188.8730  175.9990  136.1460 C   0  0  0  0  0  0  0  0  0  0  0  0
  189.0370  175.0490  137.1630 C   0  0  0  0  0  3  0  0  0  0  0  0
  190.2810  174.6880  137.5760 N   0  0  0  0  0  0  0  0  0  0  0  0
  192.6850  174.8060  137.5020 N   0  0  0  0  0  2  0  0  0  0  0  0
  191.2870  176.1980  136.0270 C   0  0  0  0  0  3  0  0  0  0  0  0
  191.4040  175.2330  137.0350 C   0  0  0  0  0  0  0  0  0  0  0  0
  190.0190  176.5800  135.5890 C   0  0  0  0  0  3  0  0  0  0  0  0
  193.9360  175.3370  136.9820 C   0  0  0  0  0  2  0  0  0  0  0  0
  196.3370  174.9430  137.5570 N   0  0  0  0  0  0  0  0  0  0  0  0
  194.9680  173.2070  137.9160 C   0  0  0  0  0  3  0  0  0  0  0  0
  195.0710  174.5020  137.4600 C   0  0  0  0  0  0  0  0  0  0  0  0
  196.1980  172.8120  138.2990 N   0  0  0  0  0  2  0  0  0  0  0  0
  198.4470  173.8860  138.3530 C   0  0  0  0  0  1  0  0  0  0  0  0
  196.9880  173.8800  138.0660 C   0  0  0  0  0  0  0  0  0  0  0  0
  187.3990  178.4620  137.2010 C   0  0  0  0  0  2  0  0  0  0  0  0
  187.6040  177.9580  138.6200 C   0  0  0  0  0  2  0  0  0  0  0  0
  188.8380  178.5980  139.2260 C   0  0  0  0  0  2  0  0  0  0  0  0
  189.9350  176.9960  140.8410 C   0  0  0  0  0  3  0  0  0  0  0  0
  189.1670  177.3820  141.8100 N   0  0  0  0  0  0  0  0  0  0  0  0
  189.8240  177.5750  139.5390 N   0  0  0  0  0  2  0  0  0  0  0  0
  189.2540  176.8230  143.1270 C   0  0  0  0  0  0  0  0  0  0  0  0
  188.9590  175.6100  143.3180 O   0  0  0  0  0  0  0  0  0  0  0  0
  189.6800  177.6420  144.2310 N   0  0  0  0  0  0  0  0  0  0  0  0
  189.6970  178.0690  146.5660 O   0  0  0  0  0  0  0  0  0  0  0  0
  188.5260  177.3170  146.3810 C   0  0  0  0  0  0  0  0  0  0  0  0
  187.3990  178.2020  145.8720 C   0  0  0  0  0  1  0  0  0  0  0  0
  188.2680  176.4210  147.5730 C   0  0  0  0  0  1  0  0  0  0  0  0
  189.7560  177.0570  145.5790 C   0  0  1  0  0  3  0  0  0  0  0  0
  190.2000  178.9540  143.9460 C   0  0  0  0  0  3  0  0  0  0  0  0
  191.5010  179.2180  143.8870 C   0  0  0  0  0  2  0  0  0  0  0  0
  185.3150  177.4770  136.2520 C   0  0  0  0  0  2  0  0  0  0  0  0
  181.3720  177.8260  140.8360 C   0  0  0  0  0  2  0  0  0  0  0  0
  183.2000  178.6740  138.9010 C   0  0  0  0  0  0  0  0  0  0  0  0
  182.5240  178.6870  141.3470 C   0  0  2  0  0  3  0  0  0  0  0  0
  183.9420  177.8520  138.2090 C   0  0  0  0  0  0  0  0  0  0  0  0
  180.3980  178.6210  140.2120 O   0  0  0  0  0  0  0  0  0  0  0  0
  180.4890  177.0640  138.2690 C   0  0  0  0  0  1  0  0  0  0  0  0
  180.5180  178.4960  138.8070 C   0  0  2  0  0  3  0  0  0  0  0  0
  181.8480  179.5300  138.0920 S   0  0  0  0  0  0  0  0  0  0  0  0
  183.5810  179.0720  140.2990 C   0  0  1  0  0  3  0  0  0  0  0  0
  184.6780  177.0270  137.5200 C   0  0  0  0  0  3  0  0  0  0  0  0
  183.7950  177.8790  141.2170 C   0  0  0  0  0  2  0  0  0  0  0  0
  1  4  1  0  0  0  0
  1  2  1  0  0  0  0
  2 18  1  0  0  0  0
  3  1  2  0  0  0  0
  4  5  2  0  0  0  0
  5  6  1  0  0  0  0
  8  9  1  0  0  0  0
  9  7  1  0  0  0  0
  9  6  2  0  0  0  0
 10  8  2  0  0  0  0
 10  4  1  0  0  0  0
 11 14  1  0  0  0  0
 11  7  1  0  0  0  0
 12 17  2  0  0  0  0
 13 15  1  0  0  0  0
 14 12  1  0  0  0  0
 14 13  2  0  0  0  0
 17 15  1  0  0  0  0
 17 16  1  0  0  0  0
 18 19  1  0  0  0  0
 19 20  1  0  0  0  0
 20 23  1  0  0  0  0
 21 22  2  0  0  0  0
 22 24  1  0  0  0  0
 23 21  1  0  0  0  0
 24 25  2  0  0  0  0
 24 26  1  0  0  0  0
 28 27  1  0  0  0  0
 28 30  1  0  0  0  0
 29 28  1  0  0  0  0
 31 26  1  6  0  0  0
 31 28  1  0  0  0  0
 31 27  1  0  0  0  0
 32 26  1  0  0  0  0
 33 32  2  0  0  0  0
 34  2  1  0  0  0  0
 34 44  1  0  0  0  0
 36 43  1  0  0  0  0
 37 35  1  6  0  0  0
 38 36  2  0  0  0  0
 39 35  1  0  0  0  0
 41 40  1  1  0  0  0
 41 39  1  0  0  0  0
 42 41  1  0  0  0  0
 42 36  1  0  0  0  0
 43 45  1  1  0  0  0
 43 37  1  0  0  0  0
 44 38  2  0  0  0  0
 45 37  1  0  0  0  0
M  END
>  <MODEL>
7

>  <REMARK>
 VINA RESULT:      -7.0      3.416     10.299
  Name = 
  12 active torsions:
  status: ('A' for Active; 'I' for Inactive)
    1  A    between atoms: C_3  and  C_20
    2  A    between atoms: C_5  and  C_7
    3  A    between atoms: C_7  and  N_32
    4  A    between atoms: C_9  and  N_45
    5  A    between atoms: N_11  and  C_38
    6  A    between atoms: C_15  and  C_26
    7  A    between atoms: C_15  and  C_29
    8  A    between atoms: N_17  and  C_29
    9  A    between atoms: C_26  and  N_34
   10  A    between atoms: C_27  and  N_34
   11  A    between atoms: C_27  and  C_41
   12  A    between atoms: C_36  and  N_45
                            x       y       z     vdW  Elec       q    Type
                         _______ _______ _______ _____ _____    ______ ____

>  <TORSDO>
F 12

$$$$
=
 OpenBabel11042411383D

 45 49  0  0  1  0  0  0  0  0999 V2000
  182.4570  178.8860  143.8690 C   0  0  0  0  0  0  0  0  0  0  0  0
  183.8920  178.7390  143.8560 N   0  0  0  0  0  0  0  0  0  0  0  0
  181.8310  178.6800  144.9460 O   0  0  0  0  0  0  0  0  0  0  0  0
  181.6880  179.2670  142.6620 C   0  0  0  0  0  0  0  0  0  0  0  0
  180.4490  179.9070  142.7940 C   0  0  0  0  0  3  0  0  0  0  0  0
  179.7270  180.2460  141.6920 N   0  0  0  0  0  0  0  0  0  0  0  0
  179.3690  180.3630  139.3140 N   0  0  0  0  0  2  0  0  0  0  0  0
  181.3920  179.3200  140.2560 C   0  0  0  0  0  3  0  0  0  0  0  0
  180.1660  179.9730  140.4340 C   0  0  0  0  0  0  0  0  0  0  0  0
  182.1470  178.9650  141.3740 C   0  0  0  0  0  3  0  0  0  0  0  0
  179.7600  180.1090  137.9350 C   0  0  0  0  0  2  0  0  0  0  0  0
  180.7330  182.4110  137.9120 N   0  0  0  0  0  0  0  0  0  0  0  0
  179.9750  181.6720  135.9390 C   0  0  0  0  0  3  0  0  0  0  0  0
  180.1340  181.3900  137.2770 C   0  0  0  0  0  0  0  0  0  0  0  0
  180.4710  182.9050  135.7220 N   0  0  0  0  0  2  0  0  0  0  0  0
  181.5510  184.6370  137.1530 C   0  0  0  0  0  1  0  0  0  0  0  0
  180.9140  183.3130  136.9290 C   0  0  0  0  0  0  0  0  0  0  0  0
  184.7400  179.3650  142.8470 C   0  0  0  0  0  2  0  0  0  0  0  0
  185.2340  178.3270  141.8530 C   0  0  0  0  0  2  0  0  0  0  0  0
  185.9650  179.0070  140.7120 C   0  0  0  0  0  2  0  0  0  0  0  0
  185.9580  178.2420  138.3060 C   0  0  0  0  0  3  0  0  0  0  0  0
  187.2330  178.0160  138.3290 N   0  0  0  0  0  0  0  0  0  0  0  0
  185.2780  178.7460  139.4570 N   0  0  0  0  0  2  0  0  0  0  0  0
  187.9440  177.5120  137.1920 C   0  0  0  0  0  0  0  0  0  0  0  0
  187.3420  177.3430  136.0950 O   0  0  0  0  0  0  0  0  0  0  0  0
  189.3460  177.2010  137.2980 N   0  0  0  0  0  0  0  0  0  0  0  0
  191.0940  175.7950  136.5240 O   0  0  0  0  0  0  0  0  0  0  0  0
  189.9390  175.1930  136.0020 C   0  0  0  0  0  0  0  0  0  0  0  0
  189.2530  174.3460  137.0630 C   0  0  0  0  0  1  0  0  0  0  0  0
  190.2150  174.5800  134.6460 C   0  0  0  0  0  1  0  0  0  0  0  0
  190.0610  176.6750  136.1250 C   0  0  1  0  0  3  0  0  0  0  0  0
  190.0430  177.5940  138.4940 C   0  0  0  0  0  3  0  0  0  0  0  0
  190.2710  176.7620  139.5050 C   0  0  0  0  0  2  0  0  0  0  0  0
  184.5450  177.9370  144.8810 C   0  0  0  0  0  2  0  0  0  0  0  0
  190.5980  178.1550  144.8500 C   0  0  0  0  0  2  0  0  0  0  0  0
  188.0310  177.0640  145.0050 C   0  0  0  0  0  0  0  0  0  0  0  0
  190.3220  177.2860  146.0730 C   0  0  2  0  0  3  0  0  0  0  0  0
  186.9500  177.7900  145.1080 C   0  0  0  0  0  0  0  0  0  0  0  0
  190.8280  177.3570  143.7170 O   0  0  0  0  0  0  0  0  0  0  0  0
  189.1520  178.7410  142.5020 C   0  0  0  0  0  1  0  0  0  0  0  0
  189.6750  177.3590  142.8980 C   0  0  2  0  0  3  0  0  0  0  0  0
  188.3700  176.2090  143.4670 S   0  0  0  0  0  0  0  0  0  0  0  0
  188.8810  176.7660  146.2080 C   0  0  1  0  0  3  0  0  0  0  0  0
  185.8760  178.5190  145.2080 C   0  0  0  0  0  3  0  0  0  0  0  0
  189.3270  178.0200  146.9430 C   0  0  0  0  0  2  0  0  0  0  0  0
  1  3  2  0  0  0  0
  2  1  1  0  0  0  0
  2 34  1  0  0  0  0
  4  5  2  0  0  0  0
  4  1  1  0  0  0  0
  6  5  1  0  0  0  0
  7  9  1  0  0  0  0
  8  9  1  0  0  0  0
  8 10  2  0  0  0  0
  9  6  2  0  0  0  0
 10  4  1  0  0  0  0
 11  7  1  0  0  0  0
 13 14  2  0  0  0  0
 14 12  1  0  0  0  0
 14 11  1  0  0  0  0
 15 13  1  0  0  0  0
 15 17  1  0  0  0  0
 17 16  1  0  0  0  0
 17 12  2  0  0  0  0
 18  2  1  0  0  0  0
 19 18  1  0  0  0  0
 20 19  1  0  0  0  0
 21 22  2  0  0  0  0
 21 23  1  0  0  0  0
 23 20  1  0  0  0  0
 24 26  1  0  0  0  0
 24 22  1  0  0  0  0
 25 24  2  0  0  0  0
 26 32  1  0  0  0  0
 28 31  1  0  0  0  0
 28 27  1  0  0  0  0
 28 29  1  0  0  0  0
 30 28  1  0  0  0  0
 31 27  1  0  0  0  0
 31 26  1  1  0  0  0
 32 33  2  0  0  0  0
 34 44  1  0  0  0  0
 36 38  2  0  0  0  0
 36 43  1  0  0  0  0
 37 35  1  6  0  0  0
 37 43  1  0  0  0  0
 37 45  1  0  0  0  0
 38 44  2  0  0  0  0
 39 35  1  0  0  0  0
 41 40  1  1  0  0  0
 41 42  1  0  0  0  0
 41 39  1  0  0  0  0
 42 36  1  0  0  0  0
 43 45  1  1  0  0  0
M  END
>  <MODEL>
8

>  <REMARK>
 VINA RESULT:      -6.8      3.367      9.514
  Name = 
  12 active torsions:
  status: ('A' for Active; 'I' for Inactive)
    1  A    between atoms: C_3  and  C_20
    2  A    between atoms: C_5  and  C_7
    3  A    between atoms: C_7  and  N_32
    4  A    between atoms: C_9  and  N_45
    5  A    between atoms: N_11  and  C_38
    6  A    between atoms: C_15  and  C_26
    7  A    between atoms: C_15  and  C_29
    8  A    between atoms: N_17  and  C_29
    9  A    between atoms: C_26  and  N_34
   10  A    between atoms: C_27  and  N_34
   11  A    between atoms: C_27  and  C_41
   12  A    between atoms: C_36  and  N_45
                            x       y       z     vdW  Elec       q    Type
                         _______ _______ _______ _____ _____    ______ ____

>  <TORSDO>
F 12

$$$$
=
 OpenBabel11042411383D

 45 49  0  0  1  0  0  0  0  0999 V2000
  186.3520  177.3940  136.3130 C   0  0  0  0  0  0  0  0  0  0  0  0
  184.9590  177.4110  136.6900 N   0  0  0  0  0  0  0  0  0  0  0  0
  186.6580  177.5350  135.0960 O   0  0  0  0  0  0  0  0  0  0  0  0
  187.4390  177.2120  137.3020 C   0  0  0  0  0  0  0  0  0  0  0  0
  187.9770  175.9380  137.5260 C   0  0  0  0  0  3  0  0  0  0  0  0
  188.9650  175.7580  138.4430 N   0  0  0  0  0  0  0  0  0  0  0  0
  190.5040  176.5410  140.1210 N   0  0  0  0  0  2  0  0  0  0  0  0
  188.9380  178.0770  139.0000 C   0  0  0  0  0  3  0  0  0  0  0  0
  189.4580  176.7900  139.1800 C   0  0  0  0  0  0  0  0  0  0  0  0
  187.9260  178.2820  138.0620 C   0  0  0  0  0  3  0  0  0  0  0  0
  191.0870  177.5840  140.9520 C   0  0  0  0  0  2  0  0  0  0  0  0
  191.4630  177.0530  143.3650 N   0  0  0  0  0  0  0  0  0  0  0  0
  189.3700  177.6410  142.8280 C   0  0  0  0  0  3  0  0  0  0  0  0
  190.6440  177.4080  142.3610 C   0  0  0  0  0  0  0  0  0  0  0  0
  189.3770  177.4150  144.1560 N   0  0  0  0  0  2  0  0  0  0  0  0
  191.1110  176.7270  145.8090 C   0  0  0  0  0  1  0  0  0  0  0  0
  190.6480  177.0640  144.4370 C   0  0  0  0  0  0  0  0  0  0  0  0
  184.5140  177.7070  138.0460 C   0  0  0  0  0  2  0  0  0  0  0  0
  183.0040  177.8750  138.0830 C   0  0  0  0  0  2  0  0  0  0  0  0
  182.4530  177.3450  139.3920 C   0  0  0  0  0  2  0  0  0  0  0  0
  181.9170  178.8130  141.3750 C   0  0  0  0  0  3  0  0  0  0  0  0
  182.8830  178.3000  142.0700 N   0  0  0  0  0  0  0  0  0  0  0  0
  181.6500  178.3670  140.0440 N   0  0  0  0  0  2  0  0  0  0  0  0
  183.1750  178.7240  143.4070 C   0  0  0  0  0  0  0  0  0  0  0  0
  182.2410  178.8510  144.2470 O   0  0  0  0  0  0  0  0  0  0  0  0
  184.5330  179.0030  143.7940 N   0  0  0  0  0  0  0  0  0  0  0  0
  184.2850  178.5320  146.1060 O   0  0  0  0  0  0  0  0  0  0  0  0
  185.6740  178.4780  145.9120 C   0  0  0  0  0  0  0  0  0  0  0  0
  186.0770  177.1350  145.3230 C   0  0  0  0  0  1  0  0  0  0  0  0
  186.4100  178.9900  147.1300 C   0  0  0  0  0  1  0  0  0  0  0  0
  184.8170  179.4470  145.1670 C   0  0  1  0  0  3  0  0  0  0  0  0
  185.5880  178.6550  142.8780 C   0  0  0  0  0  3  0  0  0  0  0  0
  185.7720  179.2750  141.7180 C   0  0  0  0  0  2  0  0  0  0  0  0
  183.9380  177.1250  135.6920 C   0  0  0  0  0  2  0  0  0  0  0  0
  182.2750  171.3030  135.8450 C   0  0  0  0  0  2  0  0  0  0  0  0
  182.8850  173.8640  136.7800 C   0  0  0  0  0  0  0  0  0  0  0  0
  183.2950  171.3680  136.9780 C   0  0  2  0  0  3  0  0  0  0  0  0
  183.4480  174.7810  136.0390 C   0  0  0  0  0  0  0  0  0  0  0  0
  180.9720  171.4730  136.3410 O   0  0  0  0  0  0  0  0  0  0  0  0
  180.6200  173.2120  134.5940 C   0  0  0  0  0  1  0  0  0  0  0  0
  180.5290  172.7870  136.0600 C   0  0  2  0  0  3  0  0  0  0  0  0
  181.1600  174.0390  137.2350 S   0  0  0  0  0  0  0  0  0  0  0  0
  183.7030  172.7810  137.4260 C   0  0  1  0  0  3  0  0  0  0  0  0
  184.0060  175.6920  135.2950 C   0  0  0  0  0  3  0  0  0  0  0  0
  184.5510  172.0060  136.4290 C   0  0  0  0  0  2  0  0  0  0  0  0
  1  2  1  0  0  0  0
  1  4  1  0  0  0  0
  2 18  1  0  0  0  0
  3  1  2  0  0  0  0
  4  5  2  0  0  0  0
  4 10  1  0  0  0  0
  5  6  1  0  0  0  0
  6  9  2  0  0  0  0
  7 11  1  0  0  0  0
  8  9  1  0  0  0  0
  9  7  1  0  0  0  0
 10  8  2  0  0  0  0
 11 14  1  0  0  0  0
 12 17  2  0  0  0  0
 13 15  1  0  0  0  0
 14 13  2  0  0  0  0
 14 12  1  0  0  0  0
 15 17  1  0  0  0  0
 17 16  1  0  0  0  0
 18 19  1  0  0  0  0
 19 20  1  0  0  0  0
 20 23  1  0  0  0  0
 21 22  2  0  0  0  0
 22 24  1  0  0  0  0
 23 21  1  0  0  0  0
 24 26  1  0  0  0  0
 24 25  2  0  0  0  0
 28 27  1  0  0  0  0
 28 30  1  0  0  0  0
 29 28  1  0  0  0  0
 31 26  1  6  0  0  0
 31 28  1  0  0  0  0
 31 27  1  0  0  0  0
 32 26  1  0  0  0  0
 33 32  2  0  0  0  0
 34  2  1  0  0  0  0
 35 39  1  0  0  0  0
 36 42  1  0  0  0  0
 36 43  1  0  0  0  0
 37 35  1  6  0  0  0
 37 43  1  0  0  0  0
 38 36  2  0  0  0  0
 41 40  1  6  0  0  0
 41 39  1  0  0  0  0
 41 42  1  0  0  0  0
 43 45  1  6  0  0  0
 44 34  1  0  0  0  0
 44 38  2  0  0  0  0
 45 37  1  0  0  0  0
M  END
>  <MODEL>
9

>  <REMARK>
 VINA RESULT:      -6.6      4.340      8.029
  Name = 
  12 active torsions:
  status: ('A' for Active; 'I' for Inactive)
    1  A    between atoms: C_3  and  C_20
    2  A    between atoms: C_5  and  C_7
    3  A    between atoms: C_7  and  N_32
    4  A    between atoms: C_9  and  N_45
    5  A    between atoms: N_11  and  C_38
    6  A    between atoms: C_15  and  C_26
    7  A    between atoms: C_15  and  C_29
    8  A    between atoms: N_17  and  C_29
    9  A    between atoms: C_26  and  N_34
   10  A    between atoms: C_27  and  N_34
   11  A    between atoms: C_27  and  C_41
   12  A    between atoms: C_36  and  N_45
                            x       y       z     vdW  Elec       q    Type
                         _______ _______ _______ _____ _____    ______ ____

>  <TORSDO>
F 12

$$$$
