=
 OpenBabel11032419443D

 45 48  0  0  1  0  0  0  0  0999 V2000
  185.0240  178.5660  140.2870 C   0  0  0  0  0  0  0  0  0  0  0  0
  182.4500  177.6720  137.8420 N   0  0  0  0  0  0  0  0  0  0  0  0
  187.8640  177.1070  137.3270 C   0  0  1  0  0  3  0  0  0  0  0  0
  188.6900  177.7790  139.6260 C   0  0  0  0  0  0  0  0  0  0  0  0
  184.2670  179.1090  141.3280 C   0  0  0  0  0  3  0  0  0  0  0  0
  183.2480  174.2720  136.2960 O   0  0  0  0  0  0  0  0  0  0  0  0
  189.3060  178.0720  140.7730 C   0  0  0  0  0  3  0  0  0  0  0  0
  186.8540  177.6150  138.2480 N   0  0  0  0  0  0  0  0  0  0  0  0
  182.9150  179.1810  141.2050 N   0  0  0  0  0  0  0  0  0  0  0  0
  186.3850  172.6270  137.2450 C   0  0  0  0  0  2  0  0  0  0  0  0
  180.7200  176.8530  136.2790 N   0  0  0  0  0  0  0  0  0  0  0  0
  184.3850  178.1280  139.1710 N   0  0  0  0  0  0  0  0  0  0  0  0
  182.1560  174.9570  136.8350 C   0  0  0  0  0  0  0  0  0  0  0  0
  185.4930  173.3790  136.6010 C   0  0  0  0  0  0  0  0  0  0  0  0
  187.2720  177.9580  139.4190 C   0  0  0  0  0  0  0  0  0  0  0  0
  181.9220  174.9030  138.0740 O   0  0  0  0  0  0  0  0  0  0  0  0
  189.4880  177.0900  138.1850 S   0  0  0  0  0  0  0  0  0  0  0  0
  183.0380  178.2020  139.0330 C   0  0  0  0  0  0  0  0  0  0  0  0
  182.2820  178.7350  140.0850 C   0  0  0  0  0  2  0  0  0  0  0  0
  181.2490  175.7050  135.9430 C   0  0  0  0  0  0  0  0  0  0  0  0
  186.1870  175.6860  136.2500 N   0  0  0  0  0  2  0  0  0  0  0  0
  184.0670  173.4240  137.0980 C   0  0  2  0  0  3  0  0  0  0  0  0
  186.4180  178.4630  140.4130 O   0  0  0  0  0  0  0  0  0  0  0  0
  181.0770  177.6460  137.4210 C   0  0  0  0  0  0  0  0  0  0  0  0
  187.5050  175.6990  136.8740 C   0  0  0  0  0  2  0  0  0  0  0  0
  186.0020  174.3890  135.6140 C   0  0  0  0  0  2  0  0  0  0  0  0
  180.0100  178.7730  137.9420 S   0  0  0  0  0  0  0  0  0  0  0  0
  180.2890  173.8720  134.5980 C   0  0  0  0  0  1  0  0  0  0  0  0
  180.9380  175.1310  134.7090 O   0  0  0  0  0  0  0  0  0  0  0  0
  183.5090  171.2770  135.8810 C   0  0  0  0  0  1  0  0  0  0  0  0
  183.4390  172.0300  137.2000 C   0  0  0  0  0  2  0  0  0  0  0  0
  190.7760  177.8830  140.9840 C   0  0  0  0  0  2  0  0  0  0  0  0
  190.1860  178.0100  143.3710 C   0  0  0  0  0  3  0  0  0  0  0  0
  191.0910  177.7180  142.4370 C   0  0  0  0  0  3  0  0  0  0  0  0
  191.3640  176.6110  145.0230 C   0  0  0  0  0  2  0  0  0  0  0  0
  190.4040  176.3340  147.3190 C   0  0  0  0  0  2  0  0  0  0  0  0
  189.2270  177.7570  145.6380 C   0  0  0  0  0  2  0  0  0  0  0  0
  190.5130  177.8620  144.8200 C   0  0  2  0  0  3  0  0  0  0  0  0
  191.6910  176.4320  146.5040 C   0  0  0  0  0  2  0  0  0  0  0  0
  189.5540  177.5910  147.1250 C   0  0  1  0  0  3  0  0  0  0  0  0
  188.2690  177.5000  147.9510 C   0  0  1  0  0  3  0  0  0  0  0  0
  188.3110  178.4010  149.0180 O   0  0  0  0  0  1  0  0  0  0  0  0
  186.7230  177.0100  146.2230 O   0  0  0  0  0  0  0  0  0  0  0  0
  187.0520  177.7760  147.1170 C   0  0  0  0  0  0  0  0  0  0  0  0
  186.2380  178.9950  147.3820 C   0  0  0  0  0  1  0  0  0  0  0  0
  1 23  1  0  0  0  0
  1  5  1  0  0  0  0
  2 18  2  0  0  0  0
  3 25  1  1  0  0  0
  3 17  1  0  0  0  0
  3  8  1  0  0  0  0
  4  7  2  0  0  0  0
  6 13  1  0  0  0  0
  6 22  1  0  0  0  0
  7 32  1  0  0  0  0
  8 15  2  0  0  0  0
  9  5  2  0  0  0  0
 11 24  1  0  0  0  0
 12  1  2  0  0  0  0
 13 16  2  0  0  0  0
 14 22  1  0  0  0  0
 14 10  2  0  0  0  0
 15  4  1  0  0  0  0
 15 23  1  0  0  0  0
 17  4  1  0  0  0  0
 18 12  1  0  0  0  0
 18 19  1  0  0  0  0
 19  9  1  0  0  0  0
 20 11  2  0  0  0  0
 20 13  1  0  0  0  0
 21 25  1  0  0  0  0
 22 31  1  6  0  0  0
 24  2  1  0  0  0  0
 24 27  2  0  0  0  0
 26 21  1  0  0  0  0
 26 14  1  0  0  0  0
 28 29  1  0  0  0  0
 29 20  1  0  0  0  0
 30 31  1  0  0  0  0
 32 34  1  0  0  0  0
 34 33  2  0  0  0  0
 35 39  1  0  0  0  0
 37 40  1  0  0  0  0
 38 33  1  6  0  0  0
 38 35  1  0  0  0  0
 38 37  1  0  0  0  0
 39 36  1  0  0  0  0
 40 36  1  0  0  0  0
 40 41  1  1  0  0  0
 41 42  1  1  0  0  0
 43 44  2  0  0  0  0
 44 45  1  0  0  0  0
 44 41  1  0  0  0  0
M  END
>  <MODEL>
1

>  <REMARK>
 VINA RESULT:      -8.4      0.000      0.000
  Name = 
  7 active torsions:
  status: ('A' for Active; 'I' for Inactive)
    1  A    between atoms: C_2  and  C_7
    2  A    between atoms: C_2  and  C_14
    3  A    between atoms: C_3  and  C_25
    4  A    between atoms: C_17  and  C_29
    5  A    between atoms: C_17  and  C_45
    6  A    between atoms: O_33  and  C_34
    7  A    between atoms: C_37  and  C_39
                            x       y       z     vdW  Elec       q    Type
                         _______ _______ _______ _____ _____    ______ ____

>  <TORSDO>
F 7

$$$$
=
 OpenBabel11032419443D

 45 48  0  0  1  0  0  0  0  0999 V2000
  185.8080  178.3860  142.4390 C   0  0  0  0  0  0  0  0  0  0  0  0
  182.5940  178.6900  140.7120 N   0  0  0  0  0  0  0  0  0  0  0  0
  187.5720  178.4720  138.4600 C   0  0  1  0  0  3  0  0  0  0  0  0
  189.0460  178.0230  140.4710 C   0  0  0  0  0  0  0  0  0  0  0  0
  185.4220  178.3840  143.7820 C   0  0  0  0  0  3  0  0  0  0  0  0
  182.5300  176.3850  137.6670 O   0  0  0  0  0  0  0  0  0  0  0  0
  189.9720  177.7620  141.3960 C   0  0  0  0  0  3  0  0  0  0  0  0
  186.9090  178.4920  139.7580 N   0  0  0  0  0  0  0  0  0  0  0  0
  184.1040  178.4930  144.1000 N   0  0  0  0  0  0  0  0  0  0  0  0
  185.5750  174.5150  136.8410 C   0  0  0  0  0  2  0  0  0  0  0  0
  180.4290  178.6630  139.5230 N   0  0  0  0  0  0  0  0  0  0  0  0
  184.8500  178.5020  141.4830 N   0  0  0  0  0  0  0  0  0  0  0  0
  181.7110  176.7370  138.7430 C   0  0  0  0  0  0  0  0  0  0  0  0
  184.6470  175.4710  136.8830 C   0  0  0  0  0  0  0  0  0  0  0  0
  187.6570  178.2640  140.7840 C   0  0  0  0  0  0  0  0  0  0  0  0
  181.8030  176.1180  139.8400 O   0  0  0  0  0  0  0  0  0  0  0  0
  189.3480  178.0780  138.7120 S   0  0  0  0  0  0  0  0  0  0  0  0
  183.5340  178.6190  141.7870 C   0  0  0  0  0  0  0  0  0  0  0  0
  183.1510  178.6040  143.1350 C   0  0  0  0  0  2  0  0  0  0  0  0
  180.7040  177.8020  138.5770 C   0  0  0  0  0  0  0  0  0  0  0  0
  185.5080  177.6890  137.4030 N   0  0  0  0  0  2  0  0  0  0  0  0
  183.4170  175.2700  137.7370 C   0  0  2  0  0  3  0  0  0  0  0  0
  187.1610  178.2490  142.0980 O   0  0  0  0  0  0  0  0  0  0  0  0
  181.1670  178.8480  140.7390 C   0  0  0  0  0  0  0  0  0  0  0  0
  186.9340  177.4250  137.5570 C   0  0  0  0  0  2  0  0  0  0  0  0
  185.0030  176.8250  136.3430 C   0  0  0  0  0  2  0  0  0  0  0  0
  180.4220  179.6000  141.9880 S   0  0  0  0  0  0  0  0  0  0  0  0
  180.1630  178.9290  136.4490 C   0  0  0  0  0  1  0  0  0  0  0  0
  180.0120  177.8540  137.3660 O   0  0  0  0  0  0  0  0  0  0  0  0
  181.9050  174.0990  136.0810 C   0  0  0  0  0  1  0  0  0  0  0  0
  182.6690  173.9800  137.3900 C   0  0  0  0  0  2  0  0  0  0  0  0
  191.4100  177.5110  141.0680 C   0  0  0  0  0  2  0  0  0  0  0  0
  192.6620  176.8060  139.0680 C   0  0  0  0  0  3  0  0  0  0  0  0
  191.5410  176.7490  139.7870 C   0  0  0  0  0  3  0  0  0  0  0  0
  191.7340  174.9480  137.7410 C   0  0  0  0  0  2  0  0  0  0  0  0
  193.2550  173.5710  136.3070 C   0  0  0  0  0  2  0  0  0  0  0  0
  194.1800  175.4630  137.6490 C   0  0  0  0  0  2  0  0  0  0  0  0
  192.7790  176.0590  137.7810 C   0  0  2  0  0  3  0  0  0  0  0  0
  191.8530  174.1600  136.4390 C   0  0  0  0  0  2  0  0  0  0  0  0
  194.3050  174.6830  136.3370 C   0  0  1  0  0  3  0  0  0  0  0  0
  195.7110  174.0950  136.1930 C   0  0  1  0  0  3  0  0  0  0  0  0
  195.7450  173.1650  135.1510 O   0  0  0  0  0  1  0  0  0  0  0  0
  197.5010  175.5140  136.8230 O   0  0  0  0  0  0  0  0  0  0  0  0
  196.7350  175.1620  135.9380 C   0  0  0  0  0  0  0  0  0  0  0  0
  196.8180  175.7970  134.5940 C   0  0  0  0  0  1  0  0  0  0  0  0
  1  5  1  0  0  0  0
  2 24  1  0  0  0  0
  2 18  2  0  0  0  0
  3 25  1  6  0  0  0
  3 17  1  0  0  0  0
  3  8  1  0  0  0  0
  4 15  1  0  0  0  0
  4  7  2  0  0  0  0
  5  9  2  0  0  0  0
  6 22  1  0  0  0  0
  6 13  1  0  0  0  0
  8 15  2  0  0  0  0
 10 14  2  0  0  0  0
 11 24  1  0  0  0  0
 12 18  1  0  0  0  0
 12  1  2  0  0  0  0
 13 16  2  0  0  0  0
 14 22  1  0  0  0  0
 15 23  1  0  0  0  0
 17  4  1  0  0  0  0
 18 19  1  0  0  0  0
 19  9  1  0  0  0  0
 20 13  1  0  0  0  0
 20 11  2  0  0  0  0
 21 25  1  0  0  0  0
 22 31  1  6  0  0  0
 23  1  1  0  0  0  0
 24 27  2  0  0  0  0
 26 14  1  0  0  0  0
 26 21  1  0  0  0  0
 28 29  1  0  0  0  0
 29 20  1  0  0  0  0
 30 31  1  0  0  0  0
 32  7  1  0  0  0  0
 33 34  2  0  0  0  0
 34 32  1  0  0  0  0
 35 38  1  0  0  0  0
 36 40  1  0  0  0  0
 36 39  1  0  0  0  0
 37 38  1  0  0  0  0
 38 33  1  1  0  0  0
 39 35  1  0  0  0  0
 40 41  1  1  0  0  0
 40 37  1  0  0  0  0
 41 42  1  6  0  0  0
 44 41  1  0  0  0  0
 44 43  2  0  0  0  0
 45 44  1  0  0  0  0
M  END
>  <MODEL>
2

>  <REMARK>
 VINA RESULT:      -7.4      4.223      6.777
  Name = 
  7 active torsions:
  status: ('A' for Active; 'I' for Inactive)
    1  A    between atoms: C_2  and  C_7
    2  A    between atoms: C_2  and  C_14
    3  A    between atoms: C_3  and  C_25
    4  A    between atoms: C_17  and  C_29
    5  A    between atoms: C_17  and  C_45
    6  A    between atoms: O_33  and  C_34
    7  A    between atoms: C_37  and  C_39
                            x       y       z     vdW  Elec       q    Type
                         _______ _______ _______ _____ _____    ______ ____

>  <TORSDO>
F 7

$$$$
=
 OpenBabel11032419443D

 45 48  0  0  1  0  0  0  0  0999 V2000
  185.8260  178.3950  142.0780 C   0  0  0  0  0  0  0  0  0  0  0  0
  182.3420  178.7760  141.0190 N   0  0  0  0  0  0  0  0  0  0  0  0
  186.7780  178.5260  137.8310 C   0  0  1  0  0  3  0  0  0  0  0  0
  188.6100  178.0190  139.5080 C   0  0  0  0  0  0  0  0  0  0  0  0
  185.7110  178.3750  143.4700 C   0  0  0  0  0  3  0  0  0  0  0  0
  181.6420  176.5270  138.0120 O   0  0  0  0  0  0  0  0  0  0  0  0
  189.6930  177.7290  140.2290 C   0  0  0  0  0  3  0  0  0  0  0  0
  186.3830  178.5320  139.2350 N   0  0  0  0  0  0  0  0  0  0  0  0
  184.4830  178.4970  144.0410 N   0  0  0  0  0  0  0  0  0  0  0  0
  184.4330  174.6280  136.5780 C   0  0  0  0  0  2  0  0  0  0  0  0
  179.9860  178.8020  140.2770 N   0  0  0  0  0  0  0  0  0  0  0  0
  184.7010  178.5420  141.3290 N   0  0  0  0  0  0  0  0  0  0  0  0
  181.0560  176.8710  139.2330 C   0  0  0  0  0  0  0  0  0  0  0  0
  183.5480  175.5960  136.8150 C   0  0  0  0  0  0  0  0  0  0  0  0
  187.3130  178.2750  140.0900 C   0  0  0  0  0  0  0  0  0  0  0  0
  181.3500  176.2320  140.2810 O   0  0  0  0  0  0  0  0  0  0  0  0
  188.5620  178.1020  137.7240 S   0  0  0  0  0  0  0  0  0  0  0  0
  183.4730  178.6730  141.8880 C   0  0  0  0  0  0  0  0  0  0  0  0
  183.3610  178.6390  143.2840 C   0  0  0  0  0  2  0  0  0  0  0  0
  180.0550  177.9540  139.2840 C   0  0  0  0  0  0  0  0  0  0  0  0
  184.5340  177.7910  137.1880 N   0  0  0  0  0  2  0  0  0  0  0  0
  182.5050  175.3980  137.8910 C   0  0  2  0  0  3  0  0  0  0  0  0
  187.0840  178.2450  141.4750 O   0  0  0  0  0  0  0  0  0  0  0  0
  180.9510  178.9540  141.3280 C   0  0  0  0  0  0  0  0  0  0  0  0
  185.9570  177.5050  137.0560 C   0  0  0  0  0  2  0  0  0  0  0  0
  183.8160  176.9540  136.2360 C   0  0  0  0  0  2  0  0  0  0  0  0
  180.4790  179.6950  142.7090 S   0  0  0  0  0  0  0  0  0  0  0  0
  179.0730  179.1640  137.3700 C   0  0  0  0  0  1  0  0  0  0  0  0
  179.1410  178.0380  138.2320 O   0  0  0  0  0  0  0  0  0  0  0  0
  180.7720  174.2310  136.4650 C   0  0  0  0  0  1  0  0  0  0  0  0
  181.6810  174.1250  137.6790 C   0  0  0  0  0  2  0  0  0  0  0  0
  191.0340  177.4630  139.6210 C   0  0  0  0  0  2  0  0  0  0  0  0
  192.1030  175.7660  138.1920 C   0  0  0  0  0  3  0  0  0  0  0  0
  191.0510  176.1420  138.9190 C   0  0  0  0  0  3  0  0  0  0  0  0
  193.3370  174.3680  136.5800 C   0  0  0  0  0  2  0  0  0  0  0  0
  192.0740  172.9030  134.9920 C   0  0  0  0  0  2  0  0  0  0  0  0
  190.8370  174.3170  136.6370 C   0  0  0  0  0  2  0  0  0  0  0  0
  192.1050  174.4560  137.4770 C   0  0  2  0  0  3  0  0  0  0  0  0
  193.3450  173.0410  135.8250 C   0  0  0  0  0  2  0  0  0  0  0  0
  190.8370  172.9810  135.8890 C   0  0  1  0  0  3  0  0  0  0  0  0
  189.5620  172.8290  135.0560 C   0  0  1  0  0  3  0  0  0  0  0  0
  189.4350  171.5170  134.5950 O   0  0  0  0  0  1  0  0  0  0  0  0
  187.7740  174.2660  135.6510 O   0  0  0  0  0  0  0  0  0  0  0  0
  188.3390  173.1990  135.8430 C   0  0  0  0  0  0  0  0  0  0  0  0
  187.8080  172.2560  136.8670 C   0  0  0  0  0  1  0  0  0  0  0  0
  1  5  1  0  0  0  0
  2 24  1  0  0  0  0
  2 18  2  0  0  0  0
  3 25  1  6  0  0  0
  3  8  1  0  0  0  0
  4 15  1  0  0  0  0
  4  7  2  0  0  0  0
  5  9  2  0  0  0  0
  6 13  1  0  0  0  0
  8 15  2  0  0  0  0
 10 14  2  0  0  0  0
 11 24  1  0  0  0  0
 12 18  1  0  0  0  0
 12  1  2  0  0  0  0
 13 20  1  0  0  0  0
 13 16  2  0  0  0  0
 14 22  1  0  0  0  0
 15 23  1  0  0  0  0
 17  3  1  0  0  0  0
 17  4  1  0  0  0  0
 18 19  1  0  0  0  0
 19  9  1  0  0  0  0
 20 11  2  0  0  0  0
 22 31  1  6  0  0  0
 22  6  1  0  0  0  0
 23  1  1  0  0  0  0
 24 27  2  0  0  0  0
 25 21  1  0  0  0  0
 26 14  1  0  0  0  0
 26 21  1  0  0  0  0
 28 29  1  0  0  0  0
 29 20  1  0  0  0  0
 30 31  1  0  0  0  0
 32  7  1  0  0  0  0
 33 34  2  0  0  0  0
 34 32  1  0  0  0  0
 35 38  1  0  0  0  0
 36 39  1  0  0  0  0
 36 40  1  0  0  0  0
 37 38  1  0  0  0  0
 38 33  1  6  0  0  0
 39 35  1  0  0  0  0
 40 41  1  6  0  0  0
 40 37  1  0  0  0  0
 41 42  1  1  0  0  0
 41 44  1  0  0  0  0
 43 44  2  0  0  0  0
 44 45  1  0  0  0  0
M  END
>  <MODEL>
3

>  <REMARK>
 VINA RESULT:      -7.3      3.326      6.542
  Name = 
  7 active torsions:
  status: ('A' for Active; 'I' for Inactive)
    1  A    between atoms: C_2  and  C_7
    2  A    between atoms: C_2  and  C_14
    3  A    between atoms: C_3  and  C_25
    4  A    between atoms: C_17  and  C_29
    5  A    between atoms: C_17  and  C_45
    6  A    between atoms: O_33  and  C_34
    7  A    between atoms: C_37  and  C_39
                            x       y       z     vdW  Elec       q    Type
                         _______ _______ _______ _____ _____    ______ ____

>  <TORSDO>
F 7

$$$$
=
 OpenBabel11032419443D

 45 48  0  0  1  0  0  0  0  0999 V2000
  186.2650  173.2290  136.5360 C   0  0  0  0  0  0  0  0  0  0  0  0
  189.7840  173.9570  135.8320 N   0  0  0  0  0  0  0  0  0  0  0  0
  185.7590  177.5490  136.7230 C   0  0  1  0  0  3  0  0  0  0  0  0
  183.8220  176.0360  137.3410 C   0  0  0  0  0  0  0  0  0  0  0  0
  186.2340  171.8340  136.4730 C   0  0  0  0  0  3  0  0  0  0  0  0
  191.0250  176.7350  138.1410 O   0  0  0  0  0  0  0  0  0  0  0  0
  182.7040  175.4090  137.7100 C   0  0  0  0  0  3  0  0  0  0  0  0
  186.0010  176.1160  136.6030 N   0  0  0  0  0  0  0  0  0  0  0  0
  187.3760  171.1510  136.1890 N   0  0  0  0  0  0  0  0  0  0  0  0
  188.6120  178.3210  140.4020 C   0  0  0  0  0  2  0  0  0  0  0  0
  192.1900  174.4600  135.5880 N   0  0  0  0  0  0  0  0  0  0  0  0
  187.4420  173.8690  136.3050 N   0  0  0  0  0  0  0  0  0  0  0  0
  191.4400  175.4850  137.6740 C   0  0  0  0  0  0  0  0  0  0  0  0
  189.3630  178.0560  139.3330 C   0  0  0  0  0  0  0  0  0  0  0  0
  185.0170  175.3430  136.9160 C   0  0  0  0  0  0  0  0  0  0  0  0
  191.1050  174.4340  138.2880 O   0  0  0  0  0  0  0  0  0  0  0  0
  184.0500  177.8070  137.3440 S   0  0  0  0  0  0  0  0  0  0  0  0
  188.5840  173.2000  136.0140 C   0  0  0  0  0  0  0  0  0  0  0  0
  188.5510  171.8000  135.9650 C   0  0  0  0  0  2  0  0  0  0  0  0
  192.3140  175.4010  136.4870 C   0  0  0  0  0  0  0  0  0  0  0  0
  188.1220  177.9190  137.2410 N   0  0  0  0  0  2  0  0  0  0  0  0
  190.3000  176.8720  139.3610 C   0  0  2  0  0  3  0  0  0  0  0  0
  185.1000  173.9430  136.8520 O   0  0  0  0  0  0  0  0  0  0  0  0
  191.1090  173.5220  135.4890 C   0  0  0  0  0  0  0  0  0  0  0  0
  186.7580  178.1750  137.6870 C   0  0  0  0  0  2  0  0  0  0  0  0
  189.0190  178.7420  138.0420 C   0  0  0  0  0  2  0  0  0  0  0  0
  191.3540  172.1490  134.6320 S   0  0  0  0  0  0  0  0  0  0  0  0
  194.6710  176.0130  136.0870 C   0  0  0  0  0  1  0  0  0  0  0  0
  193.3210  176.3600  136.3580 O   0  0  0  0  0  0  0  0  0  0  0  0
  192.5710  177.6200  140.1880 C   0  0  0  0  0  1  0  0  0  0  0  0
  191.2690  176.9220  140.5470 C   0  0  0  0  0  2  0  0  0  0  0  0
  181.4690  176.1310  138.1510 C   0  0  0  0  0  2  0  0  0  0  0  0
  180.8680  177.3940  140.1770 C   0  0  0  0  0  3  0  0  0  0  0  0
  181.4700  176.3370  139.6330 C   0  0  0  0  0  3  0  0  0  0  0  0
  179.6090  178.3170  142.0840 C   0  0  0  0  0  2  0  0  0  0  0  0
  180.8440  179.3880  143.9800 C   0  0  0  0  0  2  0  0  0  0  0  0
  182.1070  178.4400  142.0460 C   0  0  0  0  0  2  0  0  0  0  0  0
  180.8890  177.6050  141.6540 C   0  0  2  0  0  3  0  0  0  0  0  0
  179.6230  178.5590  143.5920 C   0  0  0  0  0  2  0  0  0  0  0  0
  182.1290  178.6730  143.5590 C   0  0  1  0  0  3  0  0  0  0  0  0
  183.3550  179.4980  143.9580 C   0  0  1  0  0  3  0  0  0  0  0  0
  183.6080  179.3630  145.3260 O   0  0  0  0  0  1  0  0  0  0  0  0
  184.8750  179.6590  142.1480 O   0  0  0  0  0  0  0  0  0  0  0  0
  184.5750  179.0880  143.1860 C   0  0  0  0  0  0  0  0  0  0  0  0
  185.4280  177.9760  143.6910 C   0  0  0  0  0  1  0  0  0  0  0  0
  1 23  1  0  0  0  0
  2 18  2  0  0  0  0
  3 17  1  0  0  0  0
  3 25  1  1  0  0  0
  4 17  1  0  0  0  0
  4  7  2  0  0  0  0
  5  1  1  0  0  0  0
  6 22  1  0  0  0  0
  7 32  1  0  0  0  0
  8  3  1  0  0  0  0
  8 15  2  0  0  0  0
  9  5  2  0  0  0  0
 11 20  2  0  0  0  0
 12  1  2  0  0  0  0
 13  6  1  0  0  0  0
 13 16  2  0  0  0  0
 14 22  1  0  0  0  0
 14 10  2  0  0  0  0
 15  4  1  0  0  0  0
 18 12  1  0  0  0  0
 19 18  1  0  0  0  0
 19  9  1  0  0  0  0
 20 13  1  0  0  0  0
 21 25  1  0  0  0  0
 21 26  1  0  0  0  0
 22 31  1  1  0  0  0
 23 15  1  0  0  0  0
 24 11  1  0  0  0  0
 24  2  1  0  0  0  0
 26 14  1  0  0  0  0
 27 24  2  0  0  0  0
 28 29  1  0  0  0  0
 29 20  1  0  0  0  0
 30 31  1  0  0  0  0
 32 34  1  0  0  0  0
 34 33  2  0  0  0  0
 35 39  1  0  0  0  0
 37 40  1  0  0  0  0
 38 33  1  6  0  0  0
 38 37  1  0  0  0  0
 38 35  1  0  0  0  0
 39 36  1  0  0  0  0
 40 41  1  6  0  0  0
 40 36  1  0  0  0  0
 41 42  1  1  0  0  0
 43 44  2  0  0  0  0
 44 45  1  0  0  0  0
 44 41  1  0  0  0  0
M  END
>  <MODEL>
4

>  <REMARK>
 VINA RESULT:      -7.2      3.567      8.707
  Name = 
  7 active torsions:
  status: ('A' for Active; 'I' for Inactive)
    1  A    between atoms: C_2  and  C_7
    2  A    between atoms: C_2  and  C_14
    3  A    between atoms: C_3  and  C_25
    4  A    between atoms: C_17  and  C_29
    5  A    between atoms: C_17  and  C_45
    6  A    between atoms: O_33  and  C_34
    7  A    between atoms: C_37  and  C_39
                            x       y       z     vdW  Elec       q    Type
                         _______ _______ _______ _____ _____    ______ ____

>  <TORSDO>
F 7

$$$$
=
 OpenBabel11032419443D

 45 48  0  0  1  0  0  0  0  0999 V2000
  187.0120  175.6650  137.1220 C   0  0  0  0  0  0  0  0  0  0  0  0
  189.8740  176.8930  139.0470 N   0  0  0  0  0  2  0  0  0  0  0  0
  184.8370  179.0110  138.8630 C   0  0  1  0  0  3  0  0  0  0  0  0
  183.5920  177.3020  137.4650 C   0  0  0  0  0  0  0  0  0  0  0  0
  187.5590  174.5740  136.4430 C   0  0  0  0  0  3  0  0  0  0  0  0
  188.7550  177.8620  142.5680 O   0  0  0  0  0  0  0  0  0  0  0  0
  182.7710  176.5070  136.7760 C   0  0  0  0  0  3  0  0  0  0  0  0
  185.6440  177.9400  138.2900 N   0  0  0  0  0  0  0  0  0  0  0  0
  188.8710  174.2630  136.6230 N   0  0  0  0  0  0  0  0  0  0  0  0
  185.1820  177.6600  143.3710 C   0  0  0  0  0  2  0  0  0  0  0  0
  191.7230  177.5980  140.5260 N   0  0  0  0  0  0  0  0  0  0  0  0
  187.8120  176.3940  137.9440 N   0  0  0  0  0  0  0  0  0  0  0  0
  189.7850  177.1540  141.9450 C   0  0  0  0  0  0  0  0  0  0  0  0
  186.3680  178.1220  142.9760 C   0  0  0  0  0  0  0  0  0  0  0  0
  185.0130  177.0690  137.5770 C   0  0  0  0  0  0  0  0  0  0  0  0
  189.6500  175.9230  141.6950 O   0  0  0  0  0  0  0  0  0  0  0  0
  183.0830  178.7450  138.3860 S   0  0  0  0  0  0  0  0  0  0  0  0
  189.1230  176.0980  138.1260 C   0  0  0  0  0  0  0  0  0  0  0  0
  189.6640  174.9950  137.4530 C   0  0  0  0  0  3  0  0  0  0  0  0
  191.0530  177.8380  141.6230 C   0  0  0  0  0  0  0  0  0  0  0  0
  186.3610  179.1580  140.7710 N   0  0  0  0  0  2  0  0  0  0  0  0
  187.5710  177.2100  143.0240 C   0  0  2  0  0  3  0  0  0  0  0  0
  185.6550  175.9810  136.9630 O   0  0  0  0  0  0  0  0  0  0  0  0
  191.2640  176.8290  139.4050 C   0  0  0  0  0  0  0  0  0  0  0  0
  184.9640  179.0150  140.3800 C   0  0  0  0  0  2  0  0  0  0  0  0
  186.4030  179.4110  142.2060 C   0  0  0  0  0  2  0  0  0  0  0  0
  192.3800  176.2380  138.3640 S   0  0  0  0  0  0  0  0  0  0  0  0
  191.7990  178.4000  143.9070 C   0  0  0  0  0  1  0  0  0  0  0  0
  191.5470  178.7530  142.5550 O   0  0  0  0  0  0  0  0  0  0  0  0
  188.3790  177.6400  145.3830 C   0  0  0  0  0  1  0  0  0  0  0  0
  187.8000  176.6170  144.4180 C   0  0  0  0  0  2  0  0  0  0  0  0
  181.2990  176.7510  136.6640 C   0  0  0  0  0  2  0  0  0  0  0  0
  180.0400  178.8660  136.5940 C   0  0  0  0  0  3  0  0  0  0  0  0
  181.0230  178.1110  136.1040 C   0  0  0  0  0  3  0  0  0  0  0  0
  180.9480  180.6680  135.1790 C   0  0  0  0  0  2  0  0  0  0  0  0
  180.4190  183.0530  135.7210 C   0  0  0  0  0  2  0  0  0  0  0  0
  179.4970  181.2170  137.1400 C   0  0  0  0  0  2  0  0  0  0  0  0
  179.7570  180.2130  136.0180 C   0  0  2  0  0  3  0  0  0  0  0  0
  180.6840  182.0550  134.5980 C   0  0  0  0  0  2  0  0  0  0  0  0
  179.2190  182.6060  136.5590 C   0  0  1  0  0  3  0  0  0  0  0  0
  178.9440  183.6130  137.6790 C   0  0  1  0  0  3  0  0  0  0  0  0
  179.1960  183.0350  138.9250 O   0  0  0  0  0  1  0  0  0  0  0  0
  180.9580  184.8490  137.8420 O   0  0  0  0  0  0  0  0  0  0  0  0
  179.7770  184.8510  137.5280 C   0  0  0  0  0  0  0  0  0  0  0  0
  179.1590  186.0950  136.9890 C   0  0  0  0  0  1  0  0  0  0  0  0
  1 12  2  0  0  0  0
  2 24  1  0  0  0  0
  3 25  1  1  0  0  0
  4 15  1  0  0  0  0
  4 17  1  0  0  0  0
  5  9  2  0  0  0  0
  5  1  1  0  0  0  0
  6 22  1  0  0  0  0
  7  4  2  0  0  0  0
  8  3  1  0  0  0  0
  9 19  1  0  0  0  0
 11 20  2  0  0  0  0
 12 18  1  0  0  0  0
 13  6  1  0  0  0  0
 14 22  1  0  0  0  0
 14 10  2  0  0  0  0
 15  8  2  0  0  0  0
 16 13  2  0  0  0  0
 17  3  1  0  0  0  0
 18  2  1  0  0  0  0
 19 18  2  0  0  0  0
 20 13  1  0  0  0  0
 20 29  1  0  0  0  0
 21 26  1  0  0  0  0
 22 31  1  1  0  0  0
 23  1  1  0  0  0  0
 23 15  1  0  0  0  0
 24 11  1  0  0  0  0
 25 21  1  0  0  0  0
 26 14  1  0  0  0  0
 27 24  2  0  0  0  0
 29 28  1  0  0  0  0
 31 30  1  0  0  0  0
 32  7  1  0  0  0  0
 34 33  2  0  0  0  0
 34 32  1  0  0  0  0
 35 38  1  0  0  0  0
 36 40  1  0  0  0  0
 38 33  1  1  0  0  0
 38 37  1  0  0  0  0
 39 35  1  0  0  0  0
 39 36  1  0  0  0  0
 40 37  1  0  0  0  0
 40 41  1  1  0  0  0
 41 42  1  1  0  0  0
 44 41  1  0  0  0  0
 44 43  2  0  0  0  0
 45 44  1  0  0  0  0
M  END
>  <MODEL>
5

>  <REMARK>
 VINA RESULT:      -7.2      3.855     10.680
  Name = 
  7 active torsions:
  status: ('A' for Active; 'I' for Inactive)
    1  A    between atoms: C_2  and  C_7
    2  A    between atoms: C_2  and  C_14
    3  A    between atoms: C_3  and  C_25
    4  A    between atoms: C_17  and  C_29
    5  A    between atoms: C_17  and  C_45
    6  A    between atoms: O_33  and  C_34
    7  A    between atoms: C_37  and  C_39
                            x       y       z     vdW  Elec       q    Type
                         _______ _______ _______ _____ _____    ______ ____

>  <TORSDO>
F 7

$$$$
=
 OpenBabel11032419443D

 45 48  0  0  1  0  0  0  0  0999 V2000
  187.2880  175.7090  137.0750 C   0  0  0  0  0  0  0  0  0  0  0  0
  189.9780  176.9790  139.2090 N   0  0  0  0  0  2  0  0  0  0  0  0
  184.9270  179.0020  138.6670 C   0  0  1  0  0  3  0  0  0  0  0  0
  183.8210  177.2780  137.1750 C   0  0  0  0  0  0  0  0  0  0  0  0
  187.9040  174.6310  136.4330 C   0  0  0  0  0  3  0  0  0  0  0  0
  188.5860  177.9060  142.6440 O   0  0  0  0  0  0  0  0  0  0  0  0
  183.0680  176.4720  136.4250 C   0  0  0  0  0  3  0  0  0  0  0  0
  185.7940  177.9500  138.1500 N   0  0  0  0  0  0  0  0  0  0  0  0
  189.2050  174.3440  136.7070 N   0  0  0  0  0  0  0  0  0  0  0  0
  184.9690  177.6320  143.1830 C   0  0  0  0  0  2  0  0  0  0  0  0
  191.7000  177.7100  140.8220 N   0  0  0  0  0  0  0  0  0  0  0  0
  188.0120  176.4470  137.9570 N   0  0  0  0  0  0  0  0  0  0  0  0
  189.6730  177.2210  142.0940 C   0  0  0  0  0  0  0  0  0  0  0  0
  186.1720  178.1190  142.8770 C   0  0  0  0  0  0  0  0  0  0  0  0
  185.2340  177.0710  137.3900 C   0  0  0  0  0  0  0  0  0  0  0  0
  189.5800  175.9890  141.8290 O   0  0  0  0  0  0  0  0  0  0  0  0
  183.2180  178.7060  138.0630 S   0  0  0  0  0  0  0  0  0  0  0  0
  189.3110  176.1750  138.2320 C   0  0  0  0  0  0  0  0  0  0  0  0
  189.9200  175.0860  137.5960 C   0  0  0  0  0  3  0  0  0  0  0  0
  190.9470  177.9310  141.8680 C   0  0  0  0  0  0  0  0  0  0  0  0
  186.3050  179.1670  140.6830 N   0  0  0  0  0  2  0  0  0  0  0  0
  187.3850  177.2290  143.0090 C   0  0  2  0  0  3  0  0  0  0  0  0
  185.9400  176.0000  136.8190 O   0  0  0  0  0  0  0  0  0  0  0  0
  191.3380  176.9380  139.6680 C   0  0  0  0  0  0  0  0  0  0  0  0
  184.9440  179.0000  140.1900 C   0  0  0  0  0  2  0  0  0  0  0  0
  186.2370  179.4120  142.1170 C   0  0  0  0  0  2  0  0  0  0  0  0
  192.5390  176.3760  138.7080 S   0  0  0  0  0  0  0  0  0  0  0  0
  191.6790  178.4610  144.1640 C   0  0  0  0  0  1  0  0  0  0  0  0
  191.3540  178.8490  142.8380 O   0  0  0  0  0  0  0  0  0  0  0  0
  188.0330  177.6540  145.4170 C   0  0  0  0  0  1  0  0  0  0  0  0
  187.5230  176.6330  144.4130 C   0  0  0  0  0  2  0  0  0  0  0  0
  181.6030  176.6890  136.2060 C   0  0  0  0  0  2  0  0  0  0  0  0
  179.8340  178.1810  137.0470 C   0  0  0  0  0  3  0  0  0  0  0  0
  181.0520  177.6610  137.2010 C   0  0  0  0  0  3  0  0  0  0  0  0
  180.0420  180.4900  137.8830 C   0  0  0  0  0  2  0  0  0  0  0  0
  179.6840  180.9620  140.3150 C   0  0  0  0  0  2  0  0  0  0  0  0
  179.4670  178.6290  139.4520 C   0  0  0  0  0  2  0  0  0  0  0  0
  179.2980  179.1660  138.0320 C   0  0  2  0  0  3  0  0  0  0  0  0
  179.5190  181.5040  138.8980 C   0  0  0  0  0  2  0  0  0  0  0  0
  178.9310  179.6390  140.4710 C   0  0  1  0  0  3  0  0  0  0  0  0
  179.0850  179.1010  141.8950 C   0  0  1  0  0  3  0  0  0  0  0  0
  178.9940  177.7060  141.9010 O   0  0  0  0  0  1  0  0  0  0  0  0
  180.4600  180.5080  143.2150 O   0  0  0  0  0  0  0  0  0  0  0  0
  180.3910  179.5150  142.5060 C   0  0  0  0  0  0  0  0  0  0  0  0
  181.6150  178.7070  142.2470 C   0  0  0  0  0  1  0  0  0  0  0  0
  1 12  2  0  0  0  0
  2 24  1  0  0  0  0
  3 25  1  1  0  0  0
  4 15  1  0  0  0  0
  4 17  1  0  0  0  0
  5  9  2  0  0  0  0
  5  1  1  0  0  0  0
  6 22  1  0  0  0  0
  7  4  2  0  0  0  0
  8  3  1  0  0  0  0
  9 19  1  0  0  0  0
 11 20  2  0  0  0  0
 12 18  1  0  0  0  0
 13  6  1  0  0  0  0
 14 22  1  0  0  0  0
 14 10  2  0  0  0  0
 15  8  2  0  0  0  0
 16 13  2  0  0  0  0
 17  3  1  0  0  0  0
 18  2  1  0  0  0  0
 19 18  2  0  0  0  0
 20 13  1  0  0  0  0
 20 29  1  0  0  0  0
 21 26  1  0  0  0  0
 22 31  1  1  0  0  0
 23  1  1  0  0  0  0
 23 15  1  0  0  0  0
 24 11  1  0  0  0  0
 25 21  1  0  0  0  0
 26 14  1  0  0  0  0
 27 24  2  0  0  0  0
 29 28  1  0  0  0  0
 31 30  1  0  0  0  0
 32  7  1  0  0  0  0
 32 34  1  0  0  0  0
 33 34  2  0  0  0  0
 35 38  1  0  0  0  0
 35 39  1  0  0  0  0
 36 40  1  0  0  0  0
 37 40  1  0  0  0  0
 38 33  1  6  0  0  0
 38 37  1  0  0  0  0
 39 36  1  0  0  0  0
 40 41  1  1  0  0  0
 41 42  1  6  0  0  0
 41 44  1  0  0  0  0
 44 43  2  0  0  0  0
 45 44  1  0  0  0  0
M  END
>  <MODEL>
6

>  <REMARK>
 VINA RESULT:      -7.0      2.976      9.686
  Name = 
  7 active torsions:
  status: ('A' for Active; 'I' for Inactive)
    1  A    between atoms: C_2  and  C_7
    2  A    between atoms: C_2  and  C_14
    3  A    between atoms: C_3  and  C_25
    4  A    between atoms: C_17  and  C_29
    5  A    between atoms: C_17  and  C_45
    6  A    between atoms: O_33  and  C_34
    7  A    between atoms: C_37  and  C_39
                            x       y       z     vdW  Elec       q    Type
                         _______ _______ _______ _____ _____    ______ ____

>  <TORSDO>
F 7

$$$$
=
 OpenBabel11032419443D

 45 48  0  0  1  0  0  0  0  0999 V2000
  186.7160  172.7420  135.0930 C   0  0  0  0  0  0  0  0  0  0  0  0
  190.2930  173.4960  135.2860 N   0  0  0  0  0  2  0  0  0  0  0  0
  186.1630  177.0560  134.8850 C   0  0  1  0  0  3  0  0  0  0  0  0
  184.1370  175.5430  135.0670 C   0  0  0  0  0  0  0  0  0  0  0  0
  186.7060  171.3450  135.1070 C   0  0  0  0  0  3  0  0  0  0  0  0
  190.8790  176.4230  137.6690 O   0  0  0  0  0  0  0  0  0  0  0  0
  182.9630  174.9170  135.1690 C   0  0  0  0  0  3  0  0  0  0  0  0
  186.4320  175.6230  134.9180 N   0  0  0  0  0  0  0  0  0  0  0  0
  187.8850  170.6690  135.1710 N   0  0  0  0  0  0  0  0  0  0  0  0
  187.9550  178.0880  139.1270 C   0  0  0  0  0  2  0  0  0  0  0  0
  192.6780  174.0300  135.6470 N   0  0  0  0  0  0  0  0  0  0  0  0
  187.9090  173.3910  135.1380 N   0  0  0  0  0  0  0  0  0  0  0  0
  191.4070  175.1570  137.4010 C   0  0  0  0  0  0  0  0  0  0  0  0
  188.9590  177.7780  138.3070 C   0  0  0  0  0  0  0  0  0  0  0  0
  185.4030  174.8510  135.0090 C   0  0  0  0  0  0  0  0  0  0  0  0
  190.9270  174.1360  137.9680 O   0  0  0  0  0  0  0  0  0  0  0  0
  184.3500  177.3160  135.0230 S   0  0  0  0  0  0  0  0  0  0  0  0
  189.0900  172.7280  135.1950 C   0  0  0  0  0  0  0  0  0  0  0  0
  189.0760  171.3270  135.2220 C   0  0  0  0  0  3  0  0  0  0  0  0
  192.5600  175.0220  136.4900 C   0  0  0  0  0  0  0  0  0  0  0  0
  188.3070  177.4990  135.9770 N   0  0  0  0  0  2  0  0  0  0  0  0
  189.8610  176.6140  138.6490 C   0  0  2  0  0  3  0  0  0  0  0  0
  185.5060  173.4510  135.0520 O   0  0  0  0  0  0  0  0  0  0  0  0
  191.6630  173.0670  135.3260 C   0  0  0  0  0  0  0  0  0  0  0  0
  186.8730  177.7530  136.0370 C   0  0  0  0  0  2  0  0  0  0  0  0
  188.9620  178.3830  136.9330 C   0  0  0  0  0  2  0  0  0  0  0  0
  192.1280  171.6530  134.6460 S   0  0  0  0  0  0  0  0  0  0  0  0
  194.6980  175.9830  135.7190 C   0  0  0  0  0  1  0  0  0  0  0  0
  193.5620  175.9910  136.5700 O   0  0  0  0  0  0  0  0  0  0  0  0
  191.8280  177.4640  139.9930 C   0  0  0  0  0  1  0  0  0  0  0  0
  190.4870  176.7500  140.0400 C   0  0  0  0  0  2  0  0  0  0  0  0
  181.6540  175.6390  135.2300 C   0  0  0  0  0  2  0  0  0  0  0  0
  181.9080  175.3650  137.6640 C   0  0  0  0  0  3  0  0  0  0  0  0
  181.2800  175.9520  136.6450 C   0  0  0  0  0  3  0  0  0  0  0  0
  179.9970  175.6360  139.1960 C   0  0  0  0  0  2  0  0  0  0  0  0
  180.1130  177.3340  141.0320 C   0  0  0  0  0  2  0  0  0  0  0  0
  182.0460  177.0420  139.4780 C   0  0  0  0  0  2  0  0  0  0  0  0
  181.5180  175.6670  139.0730 C   0  0  2  0  0  3  0  0  0  0  0  0
  179.5780  175.9630  140.6280 C   0  0  0  0  0  2  0  0  0  0  0  0
  181.6380  177.3660  140.9180 C   0  0  1  0  0  3  0  0  0  0  0  0
  182.1770  178.7370  141.3350 C   0  0  1  0  0  3  0  0  0  0  0  0
  181.2530  179.3960  142.1490 O   0  0  0  0  0  1  0  0  0  0  0  0
  184.5350  178.5310  141.4430 O   0  0  0  0  0  0  0  0  0  0  0  0
  183.4850  178.6210  142.0610 C   0  0  0  0  0  0  0  0  0  0  0  0
  183.5020  178.6170  143.5510 C   0  0  0  0  0  1  0  0  0  0  0  0
  1  5  1  0  0  0  0
  1 12  2  0  0  0  0
  2 24  1  0  0  0  0
  3  8  1  0  0  0  0
  3 17  1  0  0  0  0
  3 25  1  1  0  0  0
  4  7  2  0  0  0  0
  5  9  2  0  0  0  0
  6 22  1  0  0  0  0
  7 32  1  0  0  0  0
  8 15  2  0  0  0  0
  9 19  1  0  0  0  0
 11 20  2  0  0  0  0
 12 18  1  0  0  0  0
 13  6  1  0  0  0  0
 13 16  2  0  0  0  0
 14 22  1  0  0  0  0
 14 10  2  0  0  0  0
 15 23  1  0  0  0  0
 15  4  1  0  0  0  0
 17  4  1  0  0  0  0
 18 19  2  0  0  0  0
 18  2  1  0  0  0  0
 20 29  1  0  0  0  0
 20 13  1  0  0  0  0
 21 25  1  0  0  0  0
 21 26  1  0  0  0  0
 22 31  1  1  0  0  0
 23  1  1  0  0  0  0
 24 11  1  0  0  0  0
 26 14  1  0  0  0  0
 27 24  2  0  0  0  0
 28 29  1  0  0  0  0
 30 31  1  0  0  0  0
 32 34  1  0  0  0  0
 34 33  2  0  0  0  0
 35 39  1  0  0  0  0
 37 40  1  0  0  0  0
 38 33  1  6  0  0  0
 38 35  1  0  0  0  0
 38 37  1  0  0  0  0
 39 36  1  0  0  0  0
 40 36  1  0  0  0  0
 40 41  1  6  0  0  0
 41 44  1  0  0  0  0
 41 42  1  1  0  0  0
 43 44  2  0  0  0  0
 44 45  1  0  0  0  0
M  END
>  <MODEL>
7

>  <REMARK>
 VINA RESULT:      -6.6      4.230      9.372
  Name = 
  7 active torsions:
  status: ('A' for Active; 'I' for Inactive)
    1  A    between atoms: C_2  and  C_7
    2  A    between atoms: C_2  and  C_14
    3  A    between atoms: C_3  and  C_25
    4  A    between atoms: C_17  and  C_29
    5  A    between atoms: C_17  and  C_45
    6  A    between atoms: O_33  and  C_34
    7  A    between atoms: C_37  and  C_39
                            x       y       z     vdW  Elec       q    Type
                         _______ _______ _______ _____ _____    ______ ____

>  <TORSDO>
F 7

$$$$
=
 OpenBabel11032419443D

 45 48  0  0  1  0  0  0  0  0999 V2000
  187.5550  177.7420  142.1890 C   0  0  0  0  0  0  0  0  0  0  0  0
  184.0440  178.6020  141.6090 N   0  0  0  0  0  0  0  0  0  0  0  0
  188.0940  178.5130  137.9380 C   0  0  1  0  0  3  0  0  0  0  0  0
  190.0190  177.5690  139.2920 C   0  0  0  0  0  0  0  0  0  0  0  0
  187.5760  177.4950  143.5640 C   0  0  0  0  0  3  0  0  0  0  0  0
  182.8200  176.9680  138.3810 O   0  0  0  0  0  0  0  0  0  0  0  0
  191.1310  177.0670  139.8290 C   0  0  0  0  0  3  0  0  0  0  0  0
  187.8420  178.3140  139.3600 N   0  0  0  0  0  0  0  0  0  0  0  0
  186.4290  177.6250  144.2840 N   0  0  0  0  0  0  0  0  0  0  0  0
  185.2420  175.1050  136.3520 C   0  0  0  0  0  2  0  0  0  0  0  0
  181.6410  178.9600  141.1550 N   0  0  0  0  0  0  0  0  0  0  0  0
  186.3840  178.1130  141.6070 N   0  0  0  0  0  0  0  0  0  0  0  0
  182.3960  177.1490  139.7000 C   0  0  0  0  0  0  0  0  0  0  0  0
  184.4910  176.0920  136.8410 C   0  0  0  0  0  0  0  0  0  0  0  0
  188.8200  177.8340  140.0520 C   0  0  0  0  0  0  0  0  0  0  0  0
  182.7220  176.3170  140.5920 O   0  0  0  0  0  0  0  0  0  0  0  0
  189.8050  177.9590  137.5620 S   0  0  0  0  0  0  0  0  0  0  0  0
  185.2370  178.2530  142.3160 C   0  0  0  0  0  0  0  0  0  0  0  0
  185.2590  177.9920  143.6920 C   0  0  0  0  0  2  0  0  0  0  0  0
  181.5240  178.2910  140.0380 C   0  0  0  0  0  0  0  0  0  0  0  0
  185.7340  178.0970  137.4460 N   0  0  0  0  0  2  0  0  0  0  0  0
  183.5440  175.8060  137.9830 C   0  0  2  0  0  3  0  0  0  0  0  0
  188.7250  177.5880  141.4310 O   0  0  0  0  0  0  0  0  0  0  0  0
  182.7160  178.8450  142.1000 C   0  0  0  0  0  0  0  0  0  0  0  0
  187.0990  177.7140  137.1080 C   0  0  0  0  0  2  0  0  0  0  0  0
  184.8420  177.5010  136.4600 C   0  0  0  0  0  2  0  0  0  0  0  0
  182.4610  179.3780  143.6270 S   0  0  0  0  0  0  0  0  0  0  0  0
  179.4180  177.7840  138.8550 C   0  0  0  0  0  1  0  0  0  0  0  0
  180.5250  178.6320  139.1240 O   0  0  0  0  0  0  0  0  0  0  0  0
  181.5200  175.0790  136.6510 C   0  0  0  0  0  1  0  0  0  0  0  0
  182.5740  174.6640  137.6650 C   0  0  0  0  0  2  0  0  0  0  0  0
  192.3710  176.7920  139.0380 C   0  0  0  0  0  2  0  0  0  0  0  0
  192.9930  175.4950  137.0390 C   0  0  0  0  0  3  0  0  0  0  0  0
  192.1390  175.7000  138.0410 C   0  0  0  0  0  3  0  0  0  0  0  0
  191.3620  173.8150  136.2700 C   0  0  0  0  0  2  0  0  0  0  0  0
  192.1720  171.6170  135.3890 C   0  0  0  0  0  2  0  0  0  0  0  0
  193.8140  173.3320  136.1630 C   0  0  0  0  0  2  0  0  0  0  0  0
  192.7460  174.4170  136.0370 C   0  0  2  0  0  3  0  0  0  0  0  0
  191.1000  172.6960  135.2650 C   0  0  0  0  0  2  0  0  0  0  0  0
  193.5600  172.2140  135.1470 C   0  0  1  0  0  3  0  0  0  0  0  0
  194.6360  171.1310  135.2590 C   0  0  1  0  0  3  0  0  0  0  0  0
  195.8850  171.6470  134.9030 O   0  0  0  0  0  1  0  0  0  0  0  0
  193.9350  169.6900  137.0040 O   0  0  0  0  0  0  0  0  0  0  0  0
  194.7100  170.5650  136.6460 C   0  0  0  0  0  0  0  0  0  0  0  0
  195.7400  171.0720  137.5950 C   0  0  0  0  0  1  0  0  0  0  0  0
  1  5  1  0  0  0  0
  2 24  1  0  0  0  0
  2 18  2  0  0  0  0
  3 25  1  6  0  0  0
  3  8  1  0  0  0  0
  4  7  2  0  0  0  0
  4 15  1  0  0  0  0
  5  9  2  0  0  0  0
  6 13  1  0  0  0  0
  8 15  2  0  0  0  0
 10 14  2  0  0  0  0
 11 24  1  0  0  0  0
 12  1  2  0  0  0  0
 12 18  1  0  0  0  0
 13 20  1  0  0  0  0
 13 16  2  0  0  0  0
 14 22  1  0  0  0  0
 15 23  1  0  0  0  0
 17  3  1  0  0  0  0
 17  4  1  0  0  0  0
 18 19  1  0  0  0  0
 19  9  1  0  0  0  0
 20 11  2  0  0  0  0
 22 31  1  6  0  0  0
 22  6  1  0  0  0  0
 23  1  1  0  0  0  0
 24 27  2  0  0  0  0
 25 21  1  0  0  0  0
 26 14  1  0  0  0  0
 26 21  1  0  0  0  0
 28 29  1  0  0  0  0
 29 20  1  0  0  0  0
 30 31  1  0  0  0  0
 32  7  1  0  0  0  0
 33 34  2  0  0  0  0
 34 32  1  0  0  0  0
 38 37  1  0  0  0  0
 38 35  1  0  0  0  0
 38 33  1  1  0  0  0
 39 36  1  0  0  0  0
 39 35  1  0  0  0  0
 40 41  1  1  0  0  0
 40 36  1  0  0  0  0
 40 37  1  0  0  0  0
 41 42  1  1  0  0  0
 41 44  1  0  0  0  0
 44 43  2  0  0  0  0
 44 45  1  0  0  0  0
M  END
>  <MODEL>
8

>  <REMARK>
 VINA RESULT:      -6.6      4.657      7.497
  Name = 
  7 active torsions:
  status: ('A' for Active; 'I' for Inactive)
    1  A    between atoms: C_2  and  C_7
    2  A    between atoms: C_2  and  C_14
    3  A    between atoms: C_3  and  C_25
    4  A    between atoms: C_17  and  C_29
    5  A    between atoms: C_17  and  C_45
    6  A    between atoms: O_33  and  C_34
    7  A    between atoms: C_37  and  C_39
                            x       y       z     vdW  Elec       q    Type
                         _______ _______ _______ _____ _____    ______ ____

>  <TORSDO>
F 7

$$$$
=
 OpenBabel11032419443D

 45 48  0  0  1  0  0  0  0  0999 V2000
  188.2360  177.5450  141.5220 C   0  0  0  0  0  0  0  0  0  0  0  0
  184.7670  178.6860  141.7760 N   0  0  0  0  0  0  0  0  0  0  0  0
  187.8880  178.5080  137.2900 C   0  0  1  0  0  3  0  0  0  0  0  0
  189.9780  177.3550  138.1420 C   0  0  0  0  0  0  0  0  0  0  0  0
  188.5390  177.2210  142.8470 C   0  0  0  0  0  2  0  0  0  0  0  0
  182.7310  177.3260  138.8440 O   0  0  0  0  0  0  0  0  0  0  0  0
  191.1360  176.7440  138.3970 C   0  0  0  0  0  3  0  0  0  0  0  0
  187.9390  178.2500  138.7240 N   0  0  0  0  0  0  0  0  0  0  0  0
  187.5930  177.3930  143.8100 N   0  0  0  0  0  0  0  0  0  0  0  0
  184.4840  175.4080  136.2560 C   0  0  0  0  0  2  0  0  0  0  0  0
  182.3620  179.2410  141.8850 N   0  0  0  0  0  0  0  0  0  0  0  0
  187.0010  178.0310  141.2320 N   0  0  0  0  0  0  0  0  0  0  0  0
  182.6250  177.4640  140.2300 C   0  0  0  0  0  0  0  0  0  0  0  0
  183.9430  176.4190  136.9370 C   0  0  0  0  0  0  0  0  0  0  0  0
  189.0020  177.6630  139.1610 C   0  0  0  0  0  0  0  0  0  0  0  0
  183.0690  176.5630  140.9950 O   0  0  0  0  0  0  0  0  0  0  0  0
  189.4220  177.8540  136.5200 S   0  0  0  0  0  0  0  0  0  0  0  0
  186.0530  178.2140  142.1840 C   0  0  0  0  0  0  0  0  0  0  0  0
  186.3570  177.8760  143.5090 C   0  0  0  0  0  3  0  0  0  0  0  0
  181.9450  178.6450  140.7980 C   0  0  0  0  0  0  0  0  0  0  0  0
  185.4510  178.2920  137.3240 N   0  0  0  0  0  2  0  0  0  0  0  0
  183.2510  176.1380  138.2510 C   0  0  2  0  0  3  0  0  0  0  0  0
  189.1940  177.3490  140.5160 O   0  0  0  0  0  0  0  0  0  0  0  0
  183.6040  178.9970  142.5600 C   0  0  0  0  0  0  0  0  0  0  0  0
  186.6710  177.8310  136.6750 C   0  0  0  0  0  2  0  0  0  0  0  0
  184.3170  177.8170  136.5410 C   0  0  0  0  0  2  0  0  0  0  0  0
  183.7370  179.4620  144.1240 S   0  0  0  0  0  0  0  0  0  0  0  0
  180.8180  180.2450  139.2960 C   0  0  0  0  0  1  0  0  0  0  0  0
  180.8020  179.1080  140.1450 O   0  0  0  0  0  0  0  0  0  0  0  0
  180.9130  175.6480  137.4180 C   0  0  0  0  0  1  0  0  0  0  0  0
  182.1440  175.0890  138.1150 C   0  0  0  0  0  2  0  0  0  0  0  0
  192.1440  176.4250  137.3380 C   0  0  0  0  0  2  0  0  0  0  0  0
  194.3030  175.2560  137.1490 C   0  0  0  0  0  3  0  0  0  0  0  0
  193.2180  175.5310  137.8730 C   0  0  0  0  0  3  0  0  0  0  0  0
  196.7010  174.6990  137.0380 C   0  0  0  0  0  2  0  0  0  0  0  0
  197.4290  172.3140  137.2580 C   0  0  0  0  0  2  0  0  0  0  0  0
  195.0030  172.8940  137.3790 C   0  0  0  0  0  2  0  0  0  0  0  0
  195.3620  174.3480  137.6810 C   0  0  2  0  0  3  0  0  0  0  0  0
  197.7930  173.7660  137.5560 C   0  0  0  0  0  2  0  0  0  0  0  0
  196.0910  171.9560  137.9080 C   0  0  1  0  0  3  0  0  0  0  0  0
  195.7300  170.4970  137.6210 C   0  0  1  0  0  3  0  0  0  0  0  0
  195.0550  169.9390  138.7090 O   0  0  0  0  0  1  0  0  0  0  0  0
  193.6710  170.2180  136.4830 O   0  0  0  0  0  0  0  0  0  0  0  0
  194.8800  170.3680  136.3910 C   0  0  0  0  0  0  0  0  0  0  0  0
  195.5170  170.4220  135.0460 C   0  0  0  0  0  1  0  0  0  0  0  0
  1  5  1  0  0  0  0
  2 18  2  0  0  0  0
  2 24  1  0  0  0  0
  3 25  1  6  0  0  0
  3  8  1  0  0  0  0
  4  7  2  0  0  0  0
  4 15  1  0  0  0  0
  5  9  1  0  0  0  0
  6 13  1  0  0  0  0
  8 15  2  0  0  0  0
 10 14  2  0  0  0  0
 11 24  1  0  0  0  0
 12  1  2  0  0  0  0
 12 18  1  0  0  0  0
 13 20  1  0  0  0  0
 13 16  2  0  0  0  0
 14 22  1  0  0  0  0
 15 23  1  0  0  0  0
 17  3  1  0  0  0  0
 17  4  1  0  0  0  0
 18 19  1  0  0  0  0
 19  9  2  0  0  0  0
 20 11  2  0  0  0  0
 22 31  1  6  0  0  0
 22  6  1  0  0  0  0
 23  1  1  0  0  0  0
 24 27  2  0  0  0  0
 25 21  1  0  0  0  0
 26 14  1  0  0  0  0
 26 21  1  0  0  0  0
 28 29  1  0  0  0  0
 29 20  1  0  0  0  0
 30 31  1  0  0  0  0
 32 34  1  0  0  0  0
 32  7  1  0  0  0  0
 33 34  2  0  0  0  0
 35 39  1  0  0  0  0
 35 38  1  0  0  0  0
 36 39  1  0  0  0  0
 36 40  1  0  0  0  0
 37 38  1  0  0  0  0
 37 40  1  0  0  0  0
 38 33  1  6  0  0  0
 40 41  1  6  0  0  0
 41 42  1  1  0  0  0
 44 43  2  0  0  0  0
 44 41  1  0  0  0  0
 45 44  1  0  0  0  0
M  END
>  <MODEL>
9

>  <REMARK>
 VINA RESULT:      -6.4      5.252      7.656
  Name = 
  7 active torsions:
  status: ('A' for Active; 'I' for Inactive)
    1  A    between atoms: C_2  and  C_7
    2  A    between atoms: C_2  and  C_14
    3  A    between atoms: C_3  and  C_25
    4  A    between atoms: C_17  and  C_29
    5  A    between atoms: C_17  and  C_45
    6  A    between atoms: O_33  and  C_34
    7  A    between atoms: C_37  and  C_39
                            x       y       z     vdW  Elec       q    Type
                         _______ _______ _______ _____ _____    ______ ____

>  <TORSDO>
F 7

$$$$
