=
 OpenBabel11042409503D

 33 36  0  0  1  0  0  0  0  0999 V2000
  189.8190  178.4320  143.6280 C   0  0  0  0  0  0  0  0  0  0  0  0
  184.3040  174.3040  136.5730 F   0  0  0  0  0  0  0  0  0  0  0  0
  188.1500  177.2810  142.5650 C   0  0  1  0  0  3  0  0  0  0  0  0
  190.4100  177.7910  141.2820 C   0  0  0  0  0  1  0  0  0  0  0  0
  182.2950  175.1570  136.0380 F   0  0  0  0  0  0  0  0  0  0  0  0
  188.1350  178.2510  137.4720 C   0  0  0  0  0  2  0  0  0  0  0  0
  187.1280  177.8250  141.6020 C   0  0  1  0  0  3  0  0  0  0  0  0
  191.3300  179.2360  143.9880 Cl  0  0  0  0  0  0  0  0  0  0  0  0
  182.8190  178.2650  139.0180 C   0  0  0  0  0  2  0  0  0  0  0  0
  188.0640  176.3010  135.9130 C   0  0  0  0  0  2  0  0  0  0  0  0
  184.8660  178.4460  141.1590 N   0  0  0  0  0  0  0  0  0  0  0  0
  183.0320  175.2860  138.8050 O   0  0  0  0  0  1  0  0  0  0  0  0
  185.1570  178.5870  139.8330 C   0  0  1  0  0  3  0  0  0  0  0  0
  183.5750  175.4750  136.4640 C   0  0  0  0  0  0  0  0  0  0  0  0
  189.5030  177.8980  142.4620 C   0  0  0  0  0  0  0  0  0  0  0  0
  182.5990  177.3950  137.7940 C   0  0  0  0  0  2  0  0  0  0  0  0
  187.7930  177.7180  143.9510 C   0  0  0  0  0  0  0  0  0  0  0  0
  183.5020  176.1690  137.8330 C   0  0  1  0  0  3  0  0  0  0  0  0
  184.2240  176.3780  135.4070 C   0  0  0  0  0  2  0  0  0  0  0  0
  187.4120  177.9510  140.2780 N   0  0  0  0  0  0  0  0  0  0  0  0
  188.7350  178.3660  144.5460 N   0  0  0  0  0  0  0  0  0  0  0  0
  184.1090  179.0650  138.8740 C   0  0  2  0  0  3  0  0  0  0  0  0
  185.6200  176.8810  135.7800 C   0  0  0  0  0  2  0  0  0  0  0  0
  186.4290  177.8100  144.3740 N   0  0  0  0  0  0  0  0  0  0  0  0
  189.8110  176.4670  137.6360 C   0  0  0  0  0  1  0  0  0  0  0  0
  186.8100  178.5230  138.0060 N   0  0  0  0  0  2  0  0  0  0  0  0
  186.4650  178.3430  139.3860 C   0  0  0  0  0  0  0  0  0  0  0  0
  185.4870  177.9530  143.4880 C   0  0  0  0  0  3  0  0  0  0  0  0
  188.3610  176.7560  137.3370 C   0  0  1  0  0  3  0  0  0  0  0  0
  186.6460  175.7570  135.7630 C   0  0  0  0  0  2  0  0  0  0  0  0
  185.8140  178.0650  142.0500 C   0  0  0  0  0  0  0  0  0  0  0  0
  183.8460  180.5510  139.0760 C   0  0  0  0  0  2  0  0  0  0  0  0
  182.4080  180.8850  138.6970 C   0  0  0  0  0  1  0  0  0  0  0  0
  1  8  1  0  0  0  0
  1 21  1  0  0  0  0
  3 15  1  6  0  0  0
  3 17  1  0  0  0  0
  4 15  1  0  0  0  0
  5 14  1  0  0  0  0
  6 26  1  0  0  0  0
  7 20  1  6  0  0  0
  7 31  1  0  0  0  0
  7  3  1  0  0  0  0
 10 29  1  0  0  0  0
 11 31  2  0  0  0  0
 13 27  1  1  0  0  0
 13 11  1  0  0  0  0
 14  2  1  0  0  0  0
 14 18  1  0  0  0  0
 15  1  2  0  0  0  0
 16 18  1  0  0  0  0
 16  9  1  0  0  0  0
 17 24  1  0  0  0  0
 17 21  2  0  0  0  0
 18 12  1  1  0  0  0
 19 23  1  0  0  0  0
 19 14  1  0  0  0  0
 22  9  1  0  0  0  0
 22 32  1  1  0  0  0
 22 13  1  0  0  0  0
 26 27  1  0  0  0  0
 27 20  2  0  0  0  0
 28 24  2  0  0  0  0
 29  6  1  0  0  0  0
 29 25  1  6  0  0  0
 30 23  1  0  0  0  0
 30 10  1  0  0  0  0
 31 28  1  0  0  0  0
 33 32  1  0  0  0  0
M  END
>  <MODEL>
1

>  <REMARK>
 VINA RESULT:      -6.6      0.000      0.000
  Name = 
  1 active torsions:
  status: ('A' for Active; 'I' for Inactive)
    1  A    between atoms: C_13  and  C_23
                            x       y       z     vdW  Elec       q    Type
                         _______ _______ _______ _____ _____    ______ ____

>  <TORSDO>
F 1

$$$$
=
 OpenBabel11042409503D

 33 36  0  0  1  0  0  0  0  0999 V2000
  188.1610  177.4540  142.5280 C   0  0  0  0  0  0  0  0  0  0  0  0
  180.1370  182.2600  139.4060 F   0  0  0  0  0  0  0  0  0  0  0  0
  186.7740  178.8200  141.3250 C   0  0  1  0  0  3  0  0  0  0  0  0
  186.0270  177.9830  143.7230 C   0  0  0  0  0  1  0  0  0  0  0  0
  179.1390  181.6960  137.4730 F   0  0  0  0  0  0  0  0  0  0  0  0
  181.7890  177.8170  142.3380 C   0  0  0  0  0  2  0  0  0  0  0  0
  185.5910  178.4180  140.4840 C   0  0  1  0  0  3  0  0  0  0  0  0
  188.8360  176.4470  143.7890 Cl  0  0  0  0  0  0  0  0  0  0  0  0
  182.0850  178.5720  136.8610 C   0  0  0  0  0  2  0  0  0  0  0  0
  180.3020  179.7430  142.8990 C   0  0  0  0  0  2  0  0  0  0  0  0
  184.6310  178.1210  138.3190 N   0  0  0  0  0  0  0  0  0  0  0  0
  181.9970  181.4880  137.5330 O   0  0  0  0  0  1  0  0  0  0  0  0
  183.4030  177.9290  138.8820 C   0  0  1  0  0  3  0  0  0  0  0  0
  179.8370  181.2030  138.5640 C   0  0  0  0  0  0  0  0  0  0  0  0
  186.9670  178.0160  142.5650 C   0  0  0  0  0  0  0  0  0  0  0  0
  180.8640  179.4530  137.0510 C   0  0  0  0  0  2  0  0  0  0  0  0
  188.0320  178.4510  140.6020 C   0  0  0  0  0  0  0  0  0  0  0  0
  181.1370  180.5390  138.0840 C   0  0  1  0  0  3  0  0  0  0  0  0
  178.9340  180.2070  139.3040 C   0  0  0  0  0  2  0  0  0  0  0  0
  184.3640  178.2420  141.0420 N   0  0  0  0  0  0  0  0  0  0  0  0
  188.8090  177.6820  141.2830 N   0  0  0  0  0  0  0  0  0  0  0  0
  182.2190  177.5950  138.0250 C   0  0  2  0  0  3  0  0  0  0  0  0
  179.6030  179.5150  140.4940 C   0  0  0  0  0  2  0  0  0  0  0  0
  188.1320  178.5580  139.1790 N   0  0  0  0  0  0  0  0  0  0  0  0
  182.3730  179.3470  144.1650 C   0  0  0  0  0  1  0  0  0  0  0  0
  182.0010  177.7410  140.9010 N   0  0  0  0  0  2  0  0  0  0  0  0
  183.2710  177.9810  140.2790 C   0  0  0  0  0  0  0  0  0  0  0  0
  187.0510  178.5410  138.4540 C   0  0  0  0  0  3  0  0  0  0  0  0
  181.7450  179.2640  142.7960 C   0  0  1  0  0  3  0  0  0  0  0  0
  179.8460  180.4820  141.6440 C   0  0  0  0  0  2  0  0  0  0  0  0
  185.7230  178.3720  139.0820 C   0  0  0  0  0  0  0  0  0  0  0  0
  182.3210  176.1640  137.5160 C   0  0  0  0  0  2  0  0  0  0  0  0
  181.3450  175.2680  138.2690 C   0  0  0  0  0  1  0  0  0  0  0  0
  1 15  2  0  0  0  0
  1  8  1  0  0  0  0
  3 17  1  6  0  0  0
  3 15  1  0  0  0  0
  5 14  1  0  0  0  0
  6 29  1  0  0  0  0
  7 31  1  6  0  0  0
  7 20  1  0  0  0  0
  7  3  1  0  0  0  0
  9 16  1  0  0  0  0
  9 22  1  0  0  0  0
 11 31  2  0  0  0  0
 13 11  1  1  0  0  0
 13 27  1  0  0  0  0
 14 19  1  0  0  0  0
 14  2  1  0  0  0  0
 15  4  1  0  0  0  0
 16 18  1  0  0  0  0
 17 21  2  0  0  0  0
 18 12  1  6  0  0  0
 18 14  1  0  0  0  0
 19 23  1  0  0  0  0
 21  1  1  0  0  0  0
 22 32  1  6  0  0  0
 22 13  1  0  0  0  0
 23 30  1  0  0  0  0
 24 17  1  0  0  0  0
 26  6  1  0  0  0  0
 27 26  1  0  0  0  0
 27 20  2  0  0  0  0
 28 31  1  0  0  0  0
 28 24  2  0  0  0  0
 29 10  1  0  0  0  0
 29 25  1  1  0  0  0
 30 10  1  0  0  0  0
 32 33  1  0  0  0  0
M  END
>  <MODEL>
2

>  <REMARK>
 VINA RESULT:      -6.3      3.193      5.906
  Name = 
  1 active torsions:
  status: ('A' for Active; 'I' for Inactive)
    1  A    between atoms: C_13  and  C_23
                            x       y       z     vdW  Elec       q    Type
                         _______ _______ _______ _____ _____    ______ ____

>  <TORSDO>
F 1

$$$$
=
 OpenBabel11042409503D

 33 36  0  0  1  0  0  0  0  0999 V2000
  185.5870  179.0910  146.1290 C   0  0  0  0  0  0  0  0  0  0  0  0
  185.7550  174.5940  137.3550 F   0  0  0  0  0  0  0  0  0  0  0  0
  184.9690  177.8510  144.3080 C   0  0  1  0  0  3  0  0  0  0  0  0
  187.5240  178.4280  144.6890 C   0  0  0  0  0  1  0  0  0  0  0  0
  184.5010  175.3520  135.6510 F   0  0  0  0  0  0  0  0  0  0  0  0
  188.1120  178.7150  140.2760 C   0  0  0  0  0  2  0  0  0  0  0  0
  184.7590  178.3320  142.8960 C   0  0  1  0  0  3  0  0  0  0  0  0
  186.5290  179.9640  147.3160 Cl  0  0  0  0  0  0  0  0  0  0  0  0
  182.9920  178.5390  138.1760 C   0  0  0  0  0  2  0  0  0  0  0  0
  189.0660  176.7320  139.0950 C   0  0  0  0  0  2  0  0  0  0  0  0
  183.2540  178.8490  141.1160 N   0  0  0  0  0  0  0  0  0  0  0  0
  183.3510  175.5670  138.2670 O   0  0  0  0  0  1  0  0  0  0  0  0
  184.3050  178.9740  140.2550 C   0  0  1  0  0  3  0  0  0  0  0  0
  185.2300  175.7320  136.7670 C   0  0  0  0  0  0  0  0  0  0  0  0
  186.0780  178.5210  145.0430 C   0  0  0  0  0  0  0  0  0  0  0  0
  183.6000  177.6350  137.1190 C   0  0  0  0  0  2  0  0  0  0  0  0
  183.8170  178.3010  145.1510 C   0  0  0  0  0  0  0  0  0  0  0  0
  184.3060  176.4500  137.7630 C   0  0  1  0  0  3  0  0  0  0  0  0
  186.3780  176.6390  136.3070 C   0  0  0  0  0  2  0  0  0  0  0  0
  185.8030  178.4430  142.0330 N   0  0  0  0  0  0  0  0  0  0  0  0
  184.1690  178.9990  146.1740 N   0  0  0  0  0  0  0  0  0  0  0  0
  184.0750  179.3890  138.8330 C   0  0  2  0  0  3  0  0  0  0  0  0
  187.2270  177.2070  137.4460 C   0  0  0  0  0  2  0  0  0  0  0  0
  182.4850  178.3440  144.6290 N   0  0  0  0  0  0  0  0  0  0  0  0
  189.3550  177.0060  141.5220 C   0  0  0  0  0  1  0  0  0  0  0  0
  186.7380  178.9430  139.8570 N   0  0  0  0  0  2  0  0  0  0  0  0
  185.6110  178.7760  140.7300 C   0  0  0  0  0  0  0  0  0  0  0  0
  182.2980  178.4300  143.3440 C   0  0  0  0  0  3  0  0  0  0  0  0
  188.4020  177.2280  140.3730 C   0  0  1  0  0  3  0  0  0  0  0  0
  188.0630  176.1270  138.1180 C   0  0  0  0  0  2  0  0  0  0  0  0
  183.4480  178.5250  142.4190 C   0  0  0  0  0  0  0  0  0  0  0  0
  183.7130  180.8670  138.7650 C   0  0  0  0  0  2  0  0  0  0  0  0
  182.2090  181.0300  138.5810 C   0  0  0  0  0  1  0  0  0  0  0  0
  1 21  1  0  0  0  0
  1  8  1  0  0  0  0
  3 15  1  1  0  0  0
  3 17  1  0  0  0  0
  4 15  1  0  0  0  0
  5 14  1  0  0  0  0
  6 29  1  0  0  0  0
  7 20  1  6  0  0  0
  7  3  1  0  0  0  0
  9 22  1  0  0  0  0
 10 29  1  0  0  0  0
 11 31  2  0  0  0  0
 13 27  1  1  0  0  0
 13 11  1  0  0  0  0
 14  2  1  0  0  0  0
 14 18  1  0  0  0  0
 15  1  2  0  0  0  0
 16 18  1  0  0  0  0
 16  9  1  0  0  0  0
 17 21  2  0  0  0  0
 18 12  1  6  0  0  0
 19 14  1  0  0  0  0
 19 23  1  0  0  0  0
 22 32  1  1  0  0  0
 22 13  1  0  0  0  0
 23 30  1  0  0  0  0
 24 17  1  0  0  0  0
 26  6  1  0  0  0  0
 26 27  1  0  0  0  0
 27 20  2  0  0  0  0
 28 24  2  0  0  0  0
 29 25  1  1  0  0  0
 30 10  1  0  0  0  0
 31  7  1  0  0  0  0
 31 28  1  0  0  0  0
 33 32  1  0  0  0  0
M  END
>  <MODEL>
3

>  <REMARK>
 VINA RESULT:      -5.7      1.991      2.949
  Name = 
  1 active torsions:
  status: ('A' for Active; 'I' for Inactive)
    1  A    between atoms: C_13  and  C_23
                            x       y       z     vdW  Elec       q    Type
                         _______ _______ _______ _____ _____    ______ ____

>  <TORSDO>
F 1

$$$$
=
 OpenBabel11042409503D

 33 36  0  0  1  0  0  0  0  0999 V2000
  183.4010  171.7180  135.5740 C   0  0  0  0  0  0  0  0  0  0  0  0
  186.9340  177.5760  142.6740 F   0  0  0  0  0  0  0  0  0  0  0  0
  184.7670  172.6120  137.1770 C   0  0  1  0  0  3  0  0  0  0  0  0
  182.2090  173.2940  137.1110 C   0  0  0  0  0  1  0  0  0  0  0  0
  188.6520  178.9670  142.2680 F   0  0  0  0  0  0  0  0  0  0  0  0
  183.2770  177.4060  138.4730 C   0  0  0  0  0  2  0  0  0  0  0  0
  185.4380  173.9610  137.1660 C   0  0  1  0  0  3  0  0  0  0  0  0
  182.0060  171.3250  134.5940 Cl  0  0  0  0  0  0  0  0  0  0  0  0
  188.8020  177.5850  138.1600 C   0  0  0  0  0  2  0  0  0  0  0  0
  183.0250  177.9340  140.9000 C   0  0  0  0  0  2  0  0  0  0  0  0
  187.4390  175.2450  136.9460 N   0  0  0  0  0  0  0  0  0  0  0  0
  188.7230  176.4370  140.9240 O   0  0  0  0  0  1  0  0  0  0  0  0
  186.7750  176.3620  137.3640 C   0  0  1  0  0  3  0  0  0  0  0  0
  187.5280  178.3760  141.7130 C   0  0  0  0  0  0  0  0  0  0  0  0
  183.4050  172.5820  136.5730 C   0  0  0  0  0  0  0  0  0  0  0  0
  188.7190  178.3270  139.4810 C   0  0  0  0  0  2  0  0  0  0  0  0
  185.4750  171.7090  136.2160 C   0  0  0  0  0  0  0  0  0  0  0  0
  187.9430  177.5160  140.5090 C   0  0  1  0  0  3  0  0  0  0  0  0
  186.5510  179.4860  141.3050 C   0  0  0  0  0  2  0  0  0  0  0  0
  184.7840  175.0710  137.5960 N   0  0  0  0  0  0  0  0  0  0  0  0
  184.7020  171.2080  135.3160 N   0  0  0  0  0  0  0  0  0  0  0  0
  187.4760  177.6860  137.4120 C   0  0  2  0  0  3  0  0  0  0  0  0
  185.2890  178.9850  140.5980 C   0  0  0  0  0  2  0  0  0  0  0  0
  186.8940  171.7690  136.0460 N   0  0  0  0  0  0  0  0  0  0  0  0
  181.8310  176.0300  139.8990 C   0  0  0  0  0  1  0  0  0  0  0  0
  184.6800  177.4380  138.0890 N   0  0  0  0  0  2  0  0  0  0  0  0
  185.4120  176.2720  137.6870 C   0  0  0  0  0  0  0  0  0  0  0  0
  187.5350  172.8580  136.3570 C   0  0  0  0  0  3  0  0  0  0  0  0
  183.1160  176.8210  139.8640 C   0  0  1  0  0  3  0  0  0  0  0  0
  184.3720  178.2310  141.5510 C   0  0  0  0  0  2  0  0  0  0  0  0
  186.8080  174.0490  136.8470 C   0  0  0  0  0  0  0  0  0  0  0  0
  187.6930  178.2200  136.0030 C   0  0  0  0  0  2  0  0  0  0  0  0
  189.0980  177.8770  135.5220 C   0  0  0  0  0  1  0  0  0  0  0  0
  1 15  2  0  0  0  0
  3 17  1  6  0  0  0
  6 29  1  0  0  0  0
  7 31  1  1  0  0  0
  7  3  1  0  0  0  0
  7 20  1  0  0  0  0
  8  1  1  0  0  0  0
  9 16  1  0  0  0  0
 10 30  1  0  0  0  0
 13 11  1  6  0  0  0
 13 22  1  0  0  0  0
 13 27  1  0  0  0  0
 14  5  1  0  0  0  0
 14  2  1  0  0  0  0
 15  4  1  0  0  0  0
 15  3  1  0  0  0  0
 16 18  1  0  0  0  0
 18 12  1  1  0  0  0
 18 14  1  0  0  0  0
 19 14  1  0  0  0  0
 20 27  2  0  0  0  0
 21  1  1  0  0  0  0
 21 17  2  0  0  0  0
 22 32  1  6  0  0  0
 22  9  1  0  0  0  0
 23 19  1  0  0  0  0
 23 30  1  0  0  0  0
 24 17  1  0  0  0  0
 24 28  2  0  0  0  0
 26  6  1  0  0  0  0
 27 26  1  0  0  0  0
 28 31  1  0  0  0  0
 29 25  1  6  0  0  0
 29 10  1  0  0  0  0
 31 11  2  0  0  0  0
 33 32  1  0  0  0  0
M  END
>  <MODEL>
4

>  <REMARK>
 VINA RESULT:      -5.6      4.516      7.826
  Name = 
  1 active torsions:
  status: ('A' for Active; 'I' for Inactive)
    1  A    between atoms: C_13  and  C_23
                            x       y       z     vdW  Elec       q    Type
                         _______ _______ _______ _____ _____    ______ ____

>  <TORSDO>
F 1

$$$$
=
 OpenBabel11042409503D

 33 36  0  0  1  0  0  0  0  0999 V2000
  189.4690  177.7270  138.7480 C   0  0  0  0  0  0  0  0  0  0  0  0
  180.1850  180.3420  136.6980 F   0  0  0  0  0  0  0  0  0  0  0  0
  187.6220  178.5110  137.6470 C   0  0  1  0  0  3  0  0  0  0  0  0
  187.5620  178.2520  140.2810 C   0  0  0  0  0  1  0  0  0  0  0  0
  178.9460  179.1450  135.2540 F   0  0  0  0  0  0  0  0  0  0  0  0
  183.2500  177.1270  140.0650 C   0  0  0  0  0  2  0  0  0  0  0  0
  186.3960  177.7370  137.2400 C   0  0  1  0  0  3  0  0  0  0  0  0
  190.5730  177.2010  139.9980 Cl  0  0  0  0  0  0  0  0  0  0  0  0
  182.2660  176.4180  134.6630 C   0  0  0  0  0  2  0  0  0  0  0  0
  181.5560  178.9040  140.5210 C   0  0  0  0  0  2  0  0  0  0  0  0
  185.0930  176.7370  135.5070 N   0  0  0  0  0  0  0  0  0  0  0  0
  181.7390  179.3650  134.6500 O   0  0  0  0  0  1  0  0  0  0  0  0
  184.0690  176.5320  136.3860 C   0  0  1  0  0  3  0  0  0  0  0  0
  179.9350  179.0660  136.2210 C   0  0  0  0  0  0  0  0  0  0  0  0
  188.2190  178.1050  138.9500 C   0  0  0  0  0  0  0  0  0  0  0  0
  180.9590  177.1370  134.9430 C   0  0  0  0  0  2  0  0  0  0  0  0
  188.7540  178.1420  136.7390 C   0  0  0  0  0  0  0  0  0  0  0  0
  181.2150  178.4870  135.5990 C   0  0  1  0  0  3  0  0  0  0  0  0
  179.4190  178.1900  137.3690 C   0  0  0  0  0  2  0  0  0  0  0  0
  185.3690  177.5450  138.1100 N   0  0  0  0  0  0  0  0  0  0  0  0
  189.7910  177.7010  137.3630 N   0  0  0  0  0  0  0  0  0  0  0  0
  182.8260  175.8180  135.9490 C   0  0  2  0  0  3  0  0  0  0  0  0
  180.4400  177.9430  138.4820 C   0  0  0  0  0  2  0  0  0  0  0  0
  188.5380  177.8760  135.3500 N   0  0  0  0  0  0  0  0  0  0  0  0
  183.8780  179.1570  141.2910 C   0  0  0  0  0  1  0  0  0  0  0  0
  183.1750  176.6980  138.6770 N   0  0  0  0  0  2  0  0  0  0  0  0
  184.2180  176.9380  137.7220 C   0  0  0  0  0  0  0  0  0  0  0  0
  187.3570  177.5140  134.9390 C   0  0  0  0  0  3  0  0  0  0  0  0
  183.0130  178.6220  140.1760 C   0  0  1  0  0  3  0  0  0  0  0  0
  180.7160  179.2070  139.2840 C   0  0  0  0  0  2  0  0  0  0  0  0
  186.2450  177.3340  135.8980 C   0  0  0  0  0  0  0  0  0  0  0  0
  183.1040  174.3320  135.7720 C   0  0  0  0  0  2  0  0  0  0  0  0
  182.3690  173.5290  136.8380 C   0  0  0  0  0  1  0  0  0  0  0  0
  1 15  2  0  0  0  0
  1  8  1  0  0  0  0
  3 17  1  6  0  0  0
  3 15  1  0  0  0  0
  5 14  1  0  0  0  0
  6 29  1  0  0  0  0
  7 31  1  6  0  0  0
  7  3  1  0  0  0  0
  7 20  1  0  0  0  0
  9 16  1  0  0  0  0
  9 22  1  0  0  0  0
 11 31  2  0  0  0  0
 13 11  1  1  0  0  0
 13 27  1  0  0  0  0
 14  2  1  0  0  0  0
 14 19  1  0  0  0  0
 15  4  1  0  0  0  0
 16 18  1  0  0  0  0
 17 21  2  0  0  0  0
 18 12  1  6  0  0  0
 18 14  1  0  0  0  0
 19 23  1  0  0  0  0
 21  1  1  0  0  0  0
 22 32  1  6  0  0  0
 22 13  1  0  0  0  0
 23 30  1  0  0  0  0
 24 17  1  0  0  0  0
 26  6  1  0  0  0  0
 27 20  2  0  0  0  0
 27 26  1  0  0  0  0
 28 24  2  0  0  0  0
 28 31  1  0  0  0  0
 29 10  1  0  0  0  0
 29 25  1  1  0  0  0
 30 10  1  0  0  0  0
 32 33  1  0  0  0  0
M  END
>  <MODEL>
5

>  <REMARK>
 VINA RESULT:      -5.4      3.315      5.911
  Name = 
  1 active torsions:
  status: ('A' for Active; 'I' for Inactive)
    1  A    between atoms: C_13  and  C_23
                            x       y       z     vdW  Elec       q    Type
                         _______ _______ _______ _____ _____    ______ ____

>  <TORSDO>
F 1

$$$$
=
 OpenBabel11042409503D

 33 36  0  0  1  0  0  0  0  0999 V2000
  180.0200  178.8240  141.1600 C   0  0  0  0  0  0  0  0  0  0  0  0
  185.9840  172.2520  136.8630 F   0  0  0  0  0  0  0  0  0  0  0  0
  181.0260  176.8520  140.5810 C   0  0  1  0  0  3  0  0  0  0  0  0
  182.2250  179.1450  140.0210 C   0  0  0  0  0  1  0  0  0  0  0  0
  185.1900  170.8040  135.3380 F   0  0  0  0  0  0  0  0  0  0  0  0
  183.8570  177.3690  136.2680 C   0  0  0  0  0  2  0  0  0  0  0  0
  181.0220  176.1790  139.2340 C   0  0  1  0  0  3  0  0  0  0  0  0
  179.6800  180.5250  141.3900 Cl  0  0  0  0  0  0  0  0  0  0  0  0
  181.2300  172.5210  135.7670 C   0  0  0  0  0  2  0  0  0  0  0  0
  186.2040  176.5180  136.3040 C   0  0  0  0  0  2  0  0  0  0  0  0
  180.2460  174.4010  137.8410 N   0  0  0  0  0  0  0  0  0  0  0  0
  183.4290  171.4610  137.5020 O   0  0  0  0  0  1  0  0  0  0  0  0
  181.1430  174.7560  136.8770 C   0  0  1  0  0  3  0  0  0  0  0  0
  185.0620  172.0880  135.8440 C   0  0  0  0  0  0  0  0  0  0  0  0
  181.0810  178.3410  140.5400 C   0  0  0  0  0  0  0  0  0  0  0  0
  182.5840  171.9830  135.3410 C   0  0  0  0  0  2  0  0  0  0  0  0
  179.6810  176.6800  141.2150 C   0  0  0  0  0  0  0  0  0  0  0  0
  183.6410  172.2820  136.3950 C   0  0  1  0  0  3  0  0  0  0  0  0
  185.3720  173.0830  134.7180 C   0  0  0  0  0  2  0  0  0  0  0  0
  181.9250  176.5200  138.2780 N   0  0  0  0  0  0  0  0  0  0  0  0
  179.1180  177.7920  141.5390 N   0  0  0  0  0  0  0  0  0  0  0  0
  181.1730  174.0310  135.5650 C   0  0  2  0  0  3  0  0  0  0  0  0
  185.1910  174.5520  135.1070 C   0  0  0  0  0  2  0  0  0  0  0  0
  178.9310  175.4730  141.0520 N   0  0  0  0  0  0  0  0  0  0  0  0
  185.4280  178.1300  137.9920 C   0  0  0  0  0  1  0  0  0  0  0  0
  182.9210  176.2700  136.0870 N   0  0  0  0  0  2  0  0  0  0  0  0
  181.9960  175.8490  137.0990 C   0  0  0  0  0  0  0  0  0  0  0  0
  179.1650  174.7010  140.0310 C   0  0  0  0  0  3  0  0  0  0  0  0
  185.0140  176.9450  137.1540 C   0  0  1  0  0  3  0  0  0  0  0  0
  186.2540  175.0070  136.0960 C   0  0  0  0  0  2  0  0  0  0  0  0
  180.1690  175.0780  139.0130 C   0  0  0  0  0  0  0  0  0  0  0  0
  179.9640  174.4150  134.7220 C   0  0  0  0  0  2  0  0  0  0  0  0
  178.9630  173.2670  134.6870 C   0  0  0  0  0  1  0  0  0  0  0  0
  1  8  1  0  0  0  0
  1 21  1  0  0  0  0
  3 15  1  6  0  0  0
  3 17  1  0  0  0  0
  4 15  1  0  0  0  0
  5 14  1  0  0  0  0
  6 29  1  0  0  0  0
  7 20  1  1  0  0  0
  7  3  1  0  0  0  0
 10 29  1  0  0  0  0
 11 31  2  0  0  0  0
 13 27  1  6  0  0  0
 13 11  1  0  0  0  0
 14 18  1  0  0  0  0
 14  2  1  0  0  0  0
 15  1  2  0  0  0  0
 16  9  1  0  0  0  0
 16 18  1  0  0  0  0
 17 21  2  0  0  0  0
 18 12  1  1  0  0  0
 19 23  1  0  0  0  0
 19 14  1  0  0  0  0
 22 32  1  6  0  0  0
 22  9  1  0  0  0  0
 22 13  1  0  0  0  0
 23 30  1  0  0  0  0
 24 17  1  0  0  0  0
 26  6  1  0  0  0  0
 26 27  1  0  0  0  0
 27 20  2  0  0  0  0
 28 24  2  0  0  0  0
 29 25  1  1  0  0  0
 30 10  1  0  0  0  0
 31  7  1  0  0  0  0
 31 28  1  0  0  0  0
 33 32  1  0  0  0  0
M  END
>  <MODEL>
6

>  <REMARK>
 VINA RESULT:      -5.2      4.726      6.690
  Name = 
  1 active torsions:
  status: ('A' for Active; 'I' for Inactive)
    1  A    between atoms: C_13  and  C_23
                            x       y       z     vdW  Elec       q    Type
                         _______ _______ _______ _____ _____    ______ ____

>  <TORSDO>
F 1

$$$$
=
 OpenBabel11042409503D

 33 36  0  0  1  0  0  0  0  0999 V2000
  189.8910  176.8000  137.1560 C   0  0  0  0  0  0  0  0  0  0  0  0
  181.1880  172.3210  138.3470 F   0  0  0  0  0  0  0  0  0  0  0  0
  187.8360  176.2250  137.9810 C   0  0  1  0  0  3  0  0  0  0  0  0
  189.0960  174.5720  136.3410 C   0  0  0  0  0  1  0  0  0  0  0  0
  179.2700  173.3940  137.8770 F   0  0  0  0  0  0  0  0  0  0  0  0
  185.1820  173.3330  134.5940 C   0  0  0  0  0  2  0  0  0  0  0  0
  186.5000  176.3650  137.2990 C   0  0  1  0  0  3  0  0  0  0  0  0
  191.4150  176.7790  136.2980 Cl  0  0  0  0  0  0  0  0  0  0  0  0
  181.5210  176.9100  136.7040 C   0  0  0  0  0  2  0  0  0  0  0  0
  184.1520  171.2150  135.4230 C   0  0  0  0  0  2  0  0  0  0  0  0
  184.4000  177.4890  137.1310 N   0  0  0  0  0  0  0  0  0  0  0  0
  181.3730  174.9880  138.9950 O   0  0  0  0  0  1  0  0  0  0  0  0
  183.9510  176.5330  136.2670 C   0  0  1  0  0  3  0  0  0  0  0  0
  180.5990  173.2530  137.5110 C   0  0  0  0  0  0  0  0  0  0  0  0
  188.9670  175.8610  137.0810 C   0  0  0  0  0  0  0  0  0  0  0  0
  180.6220  175.6970  136.8530 C   0  0  0  0  0  2  0  0  0  0  0  0
  188.3030  177.5790  138.4170 C   0  0  0  0  0  0  0  0  0  0  0  0
  181.3160  174.6050  137.6550 C   0  0  1  0  0  3  0  0  0  0  0  0
  180.6490  172.7390  136.0660 C   0  0  0  0  0  2  0  0  0  0  0  0
  186.0440  175.4060  136.4510 N   0  0  0  0  0  0  0  0  0  0  0  0
  189.4610  177.8980  137.9500 N   0  0  0  0  0  0  0  0  0  0  0  0
  182.5900  176.6510  135.6480 C   0  0  2  0  0  3  0  0  0  0  0  0
  182.0620  172.6110  135.4920 C   0  0  0  0  0  2  0  0  0  0  0  0
  187.3850  178.5640  138.8990 N   0  0  0  0  0  0  0  0  0  0  0  0
  186.5550  171.6440  135.7250 C   0  0  0  0  0  1  0  0  0  0  0  0
  184.3680  174.4770  134.9740 N   0  0  0  0  0  2  0  0  0  0  0  0
  184.7990  175.4730  135.9120 C   0  0  0  0  0  0  0  0  0  0  0  0
  186.1290  178.4920  138.5660 C   0  0  0  0  0  3  0  0  0  0  0  0
  185.1930  172.2930  135.6990 C   0  0  1  0  0  3  0  0  0  0  0  0
  182.8370  171.4790  136.1500 C   0  0  0  0  0  2  0  0  0  0  0  0
  185.6470  177.4270  137.6600 C   0  0  0  0  0  0  0  0  0  0  0  0
  182.5830  177.7500  134.5940 C   0  0  0  0  0  2  0  0  0  0  0  0
  181.4940  178.7700  134.9070 C   0  0  0  0  0  1  0  0  0  0  0  0
  1 21  1  0  0  0  0
  3 15  1  6  0  0  0
  3 17  1  0  0  0  0
  4 15  1  0  0  0  0
  6 26  1  0  0  0  0
  6 29  1  0  0  0  0
  7 20  1  1  0  0  0
  7 31  1  0  0  0  0
  7  3  1  0  0  0  0
  8  1  1  0  0  0  0
  9 16  1  0  0  0  0
 10 29  1  0  0  0  0
 10 30  1  0  0  0  0
 11 31  2  0  0  0  0
 13 27  1  6  0  0  0
 13 11  1  0  0  0  0
 14 18  1  0  0  0  0
 14  5  1  0  0  0  0
 14  2  1  0  0  0  0
 15  1  2  0  0  0  0
 16 18  1  0  0  0  0
 17 24  1  0  0  0  0
 18 12  1  1  0  0  0
 19 14  1  0  0  0  0
 21 17  2  0  0  0  0
 22 32  1  6  0  0  0
 22 13  1  0  0  0  0
 22  9  1  0  0  0  0
 23 19  1  0  0  0  0
 23 30  1  0  0  0  0
 26 27  1  0  0  0  0
 27 20  2  0  0  0  0
 28 24  2  0  0  0  0
 29 25  1  6  0  0  0
 31 28  1  0  0  0  0
 32 33  1  0  0  0  0
M  END
>  <MODEL>
7

>  <REMARK>
 VINA RESULT:      -4.8      3.484      5.142
  Name = 
  1 active torsions:
  status: ('A' for Active; 'I' for Inactive)
    1  A    between atoms: C_13  and  C_23
                            x       y       z     vdW  Elec       q    Type
                         _______ _______ _______ _____ _____    ______ ____

>  <TORSDO>
F 1

$$$$
=
 OpenBabel11042409503D

 33 36  0  0  1  0  0  0  0  0999 V2000
  189.3090  175.7250  135.7990 C   0  0  0  0  0  0  0  0  0  0  0  0
  180.6240  174.0050  140.1390 F   0  0  0  0  0  0  0  0  0  0  0  0
  187.5270  175.8590  137.2290 C   0  0  1  0  0  3  0  0  0  0  0  0
  187.8410  173.7000  135.7280 C   0  0  0  0  0  1  0  0  0  0  0  0
  178.9340  175.4740  139.9510 F   0  0  0  0  0  0  0  0  0  0  0  0
  183.4100  173.3210  135.3610 C   0  0  0  0  0  2  0  0  0  0  0  0
  186.1110  176.2520  136.8980 C   0  0  1  0  0  3  0  0  0  0  0  0
  190.4580  175.1630  134.6060 Cl  0  0  0  0  0  0  0  0  0  0  0  0
  181.4290  178.0310  137.4920 C   0  0  0  0  0  2  0  0  0  0  0  0
  182.2470  171.7100  136.8740 C   0  0  0  0  0  2  0  0  0  0  0  0
  184.3560  177.8650  137.0280 N   0  0  0  0  0  0  0  0  0  0  0  0
  181.5700  176.5860  140.1110 O   0  0  0  0  0  1  0  0  0  0  0  0
  183.4690  176.9490  136.5420 C   0  0  1  0  0  3  0  0  0  0  0  0
  180.0260  174.9250  139.2970 C   0  0  0  0  0  0  0  0  0  0  0  0
  188.2240  175.0710  136.1730 C   0  0  0  0  0  0  0  0  0  0  0  0
  180.3770  177.1430  138.1310 C   0  0  0  0  0  2  0  0  0  0  0  0
  188.3870  177.0850  137.2190 C   0  0  0  0  0  0  0  0  0  0  0  0
  181.0280  176.0370  138.9500 C   0  0  1  0  0  3  0  0  0  0  0  0
  179.5220  174.2060  138.0380 C   0  0  0  0  0  2  0  0  0  0  0  0
  185.2230  175.3370  136.4290 N   0  0  0  0  0  0  0  0  0  0  0  0
  189.3880  177.0050  136.4130 N   0  0  0  0  0  0  0  0  0  0  0  0
  182.0450  177.3360  136.2820 C   0  0  2  0  0  3  0  0  0  0  0  0
  180.6310  173.6150  137.1640 C   0  0  0  0  0  2  0  0  0  0  0  0
  187.8950  178.3420  137.6910 N   0  0  0  0  0  0  0  0  0  0  0  0
  184.6620  171.5120  136.4480 C   0  0  0  0  0  1  0  0  0  0  0  0
  183.0180  174.6860  135.6740 N   0  0  0  0  0  2  0  0  0  0  0  0
  183.9190  175.6570  136.2260 C   0  0  0  0  0  0  0  0  0  0  0  0
  186.6120  178.5650  137.7150 C   0  0  0  0  0  3  0  0  0  0  0  0
  183.5310  172.4940  136.6280 C   0  0  1  0  0  3  0  0  0  0  0  0
  181.3060  172.4270  137.8360 C   0  0  0  0  0  2  0  0  0  0  0  0
  185.6600  177.5470  137.2210 C   0  0  0  0  0  0  0  0  0  0  0  0
  181.9560  178.2250  135.0490 C   0  0  0  0  0  2  0  0  0  0  0  0
  181.1810  179.4960  135.3730 C   0  0  0  0  0  1  0  0  0  0  0  0
  1 15  2  0  0  0  0
  1 21  1  0  0  0  0
  3 15  1  6  0  0  0
  4 15  1  0  0  0  0
  6 26  1  0  0  0  0
  6 29  1  0  0  0  0
  7 20  1  1  0  0  0
  7 31  1  0  0  0  0
  7  3  1  0  0  0  0
  8  1  1  0  0  0  0
  9 16  1  0  0  0  0
 10 30  1  0  0  0  0
 11 31  2  0  0  0  0
 13 27  1  6  0  0  0
 13 11  1  0  0  0  0
 14  5  1  0  0  0  0
 14  2  1  0  0  0  0
 16 18  1  0  0  0  0
 17  3  1  0  0  0  0
 17 24  1  0  0  0  0
 18 14  1  0  0  0  0
 18 12  1  1  0  0  0
 19 14  1  0  0  0  0
 21 17  2  0  0  0  0
 22 32  1  6  0  0  0
 22 13  1  0  0  0  0
 22  9  1  0  0  0  0
 23 30  1  0  0  0  0
 23 19  1  0  0  0  0
 24 28  2  0  0  0  0
 26 27  1  0  0  0  0
 27 20  2  0  0  0  0
 29 25  1  6  0  0  0
 29 10  1  0  0  0  0
 31 28  1  0  0  0  0
 32 33  1  0  0  0  0
M  END
>  <MODEL>
8

>  <REMARK>
 VINA RESULT:      -4.7      4.170      5.876
  Name = 
  1 active torsions:
  status: ('A' for Active; 'I' for Inactive)
    1  A    between atoms: C_13  and  C_23
                            x       y       z     vdW  Elec       q    Type
                         _______ _______ _______ _____ _____    ______ ____

>  <TORSDO>
F 1

$$$$
=
 OpenBabel11042409503D

 33 36  0  0  1  0  0  0  0  0999 V2000
  182.5980  174.5060  135.4500 C   0  0  0  0  0  0  0  0  0  0  0  0
  188.2150  176.9340  143.1810 F   0  0  0  0  0  0  0  0  0  0  0  0
  184.2580  174.4850  137.0250 C   0  0  1  0  0  3  0  0  0  0  0  0
  182.0750  175.9240  137.4450 C   0  0  0  0  0  1  0  0  0  0  0  0
  190.2780  177.7750  142.8840 F   0  0  0  0  0  0  0  0  0  0  0  0
  184.5190  179.0010  139.5580 C   0  0  0  0  0  2  0  0  0  0  0  0
  185.3400  175.5110  137.2340 C   0  0  1  0  0  3  0  0  0  0  0  0
  181.1080  174.8340  134.5940 Cl  0  0  0  0  0  0  0  0  0  0  0  0
  189.7650  177.5200  138.5850 C   0  0  0  0  0  2  0  0  0  0  0  0
  184.5720  178.9380  142.0530 C   0  0  0  0  0  2  0  0  0  0  0  0
  187.6420  176.1180  137.0570 N   0  0  0  0  0  0  0  0  0  0  0  0
  189.4360  175.7840  141.0020 O   0  0  0  0  0  1  0  0  0  0  0  0
  187.4110  177.2380  137.8000 C   0  0  1  0  0  3  0  0  0  0  0  0
  188.9960  177.7270  142.3590 C   0  0  0  0  0  0  0  0  0  0  0  0
  182.9370  175.0380  136.6100 C   0  0  0  0  0  0  0  0  0  0  0  0
  189.9970  177.8850  140.0400 C   0  0  0  0  0  2  0  0  0  0  0  0
  184.5770  173.6840  135.8010 C   0  0  0  0  0  0  0  0  0  0  0  0
  189.0430  177.1210  140.9480 C   0  0  1  0  0  3  0  0  0  0  0  0
  188.4290  179.1530  142.3430 C   0  0  0  0  0  2  0  0  0  0  0  0
  185.1150  176.6210  137.9870 N   0  0  0  0  0  0  0  0  0  0  0  0
  183.6400  173.7000  134.9170 N   0  0  0  0  0  0  0  0  0  0  0  0
  188.5160  178.2190  138.0570 C   0  0  2  0  0  3  0  0  0  0  0  0
  187.0410  179.2700  141.7100 C   0  0  0  0  0  2  0  0  0  0  0  0
  185.9250  173.3400  135.4670 N   0  0  0  0  0  0  0  0  0  0  0  0
  182.7650  177.8270  140.8080 C   0  0  0  0  0  1  0  0  0  0  0  0
  185.8320  178.6910  139.0140 N   0  0  0  0  0  2  0  0  0  0  0  0
  186.1130  177.4990  138.2660 C   0  0  0  0  0  0  0  0  0  0  0  0
  186.9070  174.0560  135.9330 C   0  0  0  0  0  3  0  0  0  0  0  0
  184.2370  178.1580  140.7880 C   0  0  1  0  0  3  0  0  0  0  0  0
  185.9700  178.6220  142.5750 C   0  0  0  0  0  2  0  0  0  0  0  0
  186.6440  175.2460  136.7710 C   0  0  0  0  0  0  0  0  0  0  0  0
  188.8330  179.0020  136.7900 C   0  0  0  0  0  2  0  0  0  0  0  0
  189.5340  178.1030  135.7790 C   0  0  0  0  0  1  0  0  0  0  0  0
  1 15  2  0  0  0  0
  3 17  1  6  0  0  0
  3  7  1  0  0  0  0
  6 29  1  0  0  0  0
  7 31  1  1  0  0  0
  7 20  1  0  0  0  0
  8  1  1  0  0  0  0
  9 16  1  0  0  0  0
 10 30  1  0  0  0  0
 13 11  1  6  0  0  0
 13 22  1  0  0  0  0
 13 27  1  0  0  0  0
 14  5  1  0  0  0  0
 14  2  1  0  0  0  0
 15  3  1  0  0  0  0
 15  4  1  0  0  0  0
 16 18  1  0  0  0  0
 18 12  1  1  0  0  0
 18 14  1  0  0  0  0
 19 14  1  0  0  0  0
 20 27  2  0  0  0  0
 21  1  1  0  0  0  0
 21 17  2  0  0  0  0
 22 32  1  6  0  0  0
 22  9  1  0  0  0  0
 23 19  1  0  0  0  0
 23 30  1  0  0  0  0
 24 17  1  0  0  0  0
 24 28  2  0  0  0  0
 26  6  1  0  0  0  0
 27 26  1  0  0  0  0
 28 31  1  0  0  0  0
 29 25  1  1  0  0  0
 29 10  1  0  0  0  0
 31 11  2  0  0  0  0
 33 32  1  0  0  0  0
M  END
>  <MODEL>
9

>  <REMARK>
 VINA RESULT:      -4.6      4.101      7.805
  Name = 
  1 active torsions:
  status: ('A' for Active; 'I' for Inactive)
    1  A    between atoms: C_13  and  C_23
                            x       y       z     vdW  Elec       q    Type
                         _______ _______ _______ _____ _____    ______ ____

>  <TORSDO>
F 1

$$$$
