=
 OpenBabel11032420373D

 27 29  0  0  1  0  0  0  0  0999 V2000
  186.7680  178.1480  141.9720 N   0  0  0  0  0  0  0  0  0  0  0  0
  188.0480  177.9100  141.9370 C   0  0  0  0  0  0  0  0  0  0  0  0
  191.1090  177.2490  144.8720 C   0  0  0  0  0  0  0  0  0  0  0  0
  190.0220  178.8390  143.2360 C   0  0  0  0  0  2  0  0  0  0  0  0
  190.1900  176.3480  144.6730 N   0  0  0  0  0  0  0  0  0  0  0  0
  189.3610  176.3630  143.4670 C   0  0  0  0  0  2  0  0  0  0  0  0
  191.3370  178.3280  143.8470 C   0  0  0  0  0  2  0  0  0  0  0  0
  188.9010  177.7930  143.1720 C   0  0  2  0  0  3  0  0  0  0  0  0
  191.9420  177.1990  146.0360 N   0  0  0  0  0  2  0  0  0  0  0  0
  191.7830  175.3150  147.7660 N   0  0  0  0  0  0  0  0  0  0  0  0
  191.8550  176.1680  146.9850 C   0  0  0  0  0  0  0  0  0  0  0  0
  189.9530  176.7940  140.2070 S   0  0  0  0  0  0  0  0  0  0  0  0
  190.0460  177.3640  138.6310 C   0  0  0  0  0  0  0  0  0  0  0  0
  188.7230  177.8630  140.6300 C   0  0  0  0  0  0  0  0  0  0  0  0
  189.1150  178.3800  138.4720 C   0  0  0  0  0  3  0  0  0  0  0  0
  188.3810  178.6460  139.5860 N   0  0  0  0  0  0  0  0  0  0  0  0
  190.5480  176.6750  136.4190 O   0  0  0  0  0  0  0  0  0  0  0  0
  190.9600  176.8670  137.5960 C   0  0  0  0  0  0  0  0  0  0  0  0
  192.2940  176.6260  137.9030 O   0  0  0  0  0  1  0  0  0  0  0  0
  185.9260  178.2230  143.1300 C   0  0  0  0  0  0  0  0  0  0  0  0
  186.4200  178.0870  144.2830 O   0  0  0  0  0  0  0  0  0  0  0  0
  184.4740  178.4290  142.9740 C   0  0  0  0  0  0  0  0  0  0  0  0
  182.5090  178.6260  141.5800 C   0  0  0  0  0  3  0  0  0  0  0  0
  181.7630  178.9310  142.6800 N   0  0  0  0  0  0  0  0  0  0  0  0
  182.3150  178.9870  143.9220 C   0  0  0  0  0  3  0  0  0  0  0  0
  183.6780  178.7390  144.0900 C   0  0  0  0  0  3  0  0  0  0  0  0
  183.8800  178.3750  141.7060 C   0  0  0  0  0  3  0  0  0  0  0  0
  1 20  1  0  0  0  0
  2  1  2  0  0  0  0
  3  9  1  0  0  0  0
  4  7  1  0  0  0  0
  5  3  2  0  0  0  0
  6  5  1  0  0  0  0
  7  3  1  0  0  0  0
  8  2  1  6  0  0  0
  8  4  1  0  0  0  0
  8  6  1  0  0  0  0
  9 11  1  0  0  0  0
 11 10  3  0  0  0  0
 12 14  1  0  0  0  0
 13 12  1  0  0  0  0
 14  2  1  0  0  0  0
 15 13  2  0  0  0  0
 15 16  1  0  0  0  0
 16 14  2  0  0  0  0
 17 18  2  0  0  0  0
 18 19  1  0  0  0  0
 18 13  1  0  0  0  0
 20 21  2  0  0  0  0
 22 20  1  0  0  0  0
 22 26  1  0  0  0  0
 23 27  1  0  0  0  0
 23 24  2  0  0  0  0
 24 25  1  0  0  0  0
 25 26  2  0  0  0  0
 27 22  2  0  0  0  0
M  END
>  <MODEL>
1

>  <REMARK>
 VINA RESULT:      -7.7      0.000      0.000
  Name = 
  6 active torsions:
  status: ('A' for Active; 'I' for Inactive)
    1  A    between atoms: C_1  and  C_8
    2  A    between atoms: N_6  and  C_8
    3  A    between atoms: C_9  and  N_25
    4  A    between atoms: C_10  and  C_11
    5  A    between atoms: C_15  and  C_16
    6  A    between atoms: C_15  and  C_24
                            x       y       z     vdW  Elec       q    Type
                         _______ _______ _______ _____ _____    ______ ____

>  <TORSDO>
F 6

$$$$
=
 OpenBabel11032420373D

 27 29  0  0  1  0  0  0  0  0999 V2000
  188.8440  178.4710  143.3700 N   0  0  0  0  0  0  0  0  0  0  0  0
  188.4570  178.2460  142.1460 C   0  0  0  0  0  0  0  0  0  0  0  0
  190.5170  176.8200  138.6610 C   0  0  0  0  0  0  0  0  0  0  0  0
  188.9510  178.5270  139.6720 C   0  0  0  0  0  2  0  0  0  0  0  0
  190.7630  176.2930  139.8270 N   0  0  0  0  0  0  0  0  0  0  0  0
  189.8530  176.4870  140.9550 C   0  0  0  0  0  2  0  0  0  0  0  0
  189.2700  177.6410  138.4570 C   0  0  0  0  0  2  0  0  0  0  0  0
  189.4100  177.9510  141.0190 C   0  0  2  0  0  3  0  0  0  0  0  0
  191.3940  176.5880  137.5530 N   0  0  0  0  0  2  0  0  0  0  0  0
  193.4520  175.0690  137.7180 N   0  0  0  0  0  0  0  0  0  0  0  0
  192.5200  175.7550  137.6420 C   0  0  0  0  0  0  0  0  0  0  0  0
  185.7550  178.1900  142.8980 S   0  0  0  0  0  0  0  0  0  0  0  0
  184.5910  178.6090  141.7650 C   0  0  0  0  0  0  0  0  0  0  0  0
  187.0290  178.3950  141.8180 C   0  0  0  0  0  0  0  0  0  0  0  0
  185.2250  178.8980  140.5640 C   0  0  0  0  0  3  0  0  0  0  0  0
  186.5800  178.7820  140.6060 N   0  0  0  0  0  0  0  0  0  0  0  0
  182.3320  178.5050  141.0530 O   0  0  0  0  0  0  0  0  0  0  0  0
  183.1440  178.6630  142.0060 C   0  0  0  0  0  0  0  0  0  0  0  0
  182.6610  178.8630  143.2930 O   0  0  0  0  0  1  0  0  0  0  0  0
  190.1730  178.3700  143.8950 C   0  0  0  0  0  0  0  0  0  0  0  0
  191.1360  178.9260  143.2980 O   0  0  0  0  0  0  0  0  0  0  0  0
  190.4240  177.5900  145.1220 C   0  0  0  0  0  0  0  0  0  0  0  0
  189.7720  176.8740  147.3370 C   0  0  0  0  0  3  0  0  0  0  0  0
  190.9570  176.2140  147.4700 N   0  0  0  0  0  0  0  0  0  0  0  0
  191.8840  176.2060  146.4740 C   0  0  0  0  0  3  0  0  0  0  0  0
  191.6340  176.8940  145.2850 C   0  0  0  0  0  3  0  0  0  0  0  0
  189.4860  177.5800  146.1630 C   0  0  0  0  0  3  0  0  0  0  0  0
  1 20  1  0  0  0  0
  2  1  2  0  0  0  0
  3  5  2  0  0  0  0
  4  8  1  0  0  0  0
  5  6  1  0  0  0  0
  6  8  1  0  0  0  0
  7  3  1  0  0  0  0
  7  4  1  0  0  0  0
  8  2  1  1  0  0  0
  9 11  1  0  0  0  0
  9  3  1  0  0  0  0
 11 10  3  0  0  0  0
 13 18  1  0  0  0  0
 13 12  1  0  0  0  0
 14  2  1  0  0  0  0
 14 12  1  0  0  0  0
 15 16  1  0  0  0  0
 15 13  2  0  0  0  0
 16 14  2  0  0  0  0
 17 18  2  0  0  0  0
 18 19  1  0  0  0  0
 20 22  1  0  0  0  0
 21 20  2  0  0  0  0
 22 26  2  0  0  0  0
 22 27  1  0  0  0  0
 23 24  1  0  0  0  0
 25 24  2  0  0  0  0
 26 25  1  0  0  0  0
 27 23  2  0  0  0  0
M  END
>  <MODEL>
2

>  <REMARK>
 VINA RESULT:      -7.0      2.762      6.954
  Name = 
  6 active torsions:
  status: ('A' for Active; 'I' for Inactive)
    1  A    between atoms: C_1  and  C_8
    2  A    between atoms: N_6  and  C_8
    3  A    between atoms: C_9  and  N_25
    4  A    between atoms: C_10  and  C_11
    5  A    between atoms: C_15  and  C_16
    6  A    between atoms: C_15  and  C_24
                            x       y       z     vdW  Elec       q    Type
                         _______ _______ _______ _____ _____    ______ ____

>  <TORSDO>
F 6

$$$$
=
 OpenBabel11032420373D

 27 29  0  0  1  0  0  0  0  0999 V2000
  189.0290  178.0000  139.7570 N   0  0  0  0  0  0  0  0  0  0  0  0
  190.1510  177.3730  139.9690 C   0  0  0  0  0  0  0  0  0  0  0  0
  193.0730  175.5280  137.4230 C   0  0  0  0  0  0  0  0  0  0  0  0
  190.6660  175.6430  138.1830 C   0  0  0  0  0  2  0  0  0  0  0  0
  193.3910  176.5740  138.1310 N   0  0  0  0  0  0  0  0  0  0  0  0
  192.5640  177.0090  139.2570 C   0  0  0  0  0  2  0  0  0  0  0  0
  191.8360  174.7400  137.7640 C   0  0  0  0  0  2  0  0  0  0  0  0
  191.0850  176.9530  138.8650 C   0  0  2  0  0  3  0  0  0  0  0  0
  193.9140  175.0880  136.3500 N   0  0  0  0  0  2  0  0  0  0  0  0
  196.1370  176.2270  135.7780 N   0  0  0  0  0  0  0  0  0  0  0  0
  195.1300  175.7130  136.0370 C   0  0  0  0  0  0  0  0  0  0  0  0
  191.2510  177.9030  142.4940 S   0  0  0  0  0  0  0  0  0  0  0  0
  191.1340  176.7320  143.6900 C   0  0  0  0  0  0  0  0  0  0  0  0
  190.4770  176.9520  141.3420 C   0  0  0  0  0  0  0  0  0  0  0  0
  190.4940  175.6210  143.1600 C   0  0  0  0  0  3  0  0  0  0  0  0
  190.1280  175.7550  141.8570 N   0  0  0  0  0  0  0  0  0  0  0  0
  191.6910  178.0000  145.6140 O   0  0  0  0  0  0  0  0  0  0  0  0
  191.6270  176.8650  145.0660 C   0  0  0  0  0  0  0  0  0  0  0  0
  192.0030  175.7350  145.7820 O   0  0  0  0  0  1  0  0  0  0  0  0
  188.5330  178.5010  138.5090 C   0  0  0  0  0  0  0  0  0  0  0  0
  189.0700  179.5100  137.9730 O   0  0  0  0  0  0  0  0  0  0  0  0
  187.3750  177.8560  137.8620 C   0  0  0  0  0  0  0  0  0  0  0  0
  184.9910  177.5080  137.6690 C   0  0  0  0  0  3  0  0  0  0  0  0
  185.2090  176.5550  136.7200 N   0  0  0  0  0  0  0  0  0  0  0  0
  186.4660  176.2310  136.3120 C   0  0  0  0  0  3  0  0  0  0  0  0
  187.5690  176.8740  136.8770 C   0  0  0  0  0  3  0  0  0  0  0  0
  186.0700  178.1730  138.2630 C   0  0  0  0  0  3  0  0  0  0  0  0
  1  2  2  0  0  0  0
  2 14  1  0  0  0  0
  3  7  1  0  0  0  0
  3  5  2  0  0  0  0
  4  8  1  0  0  0  0
  5  6  1  0  0  0  0
  7  4  1  0  0  0  0
  8  6  1  0  0  0  0
  8  2  1  1  0  0  0
  9  3  1  0  0  0  0
 10 11  3  0  0  0  0
 11  9  1  0  0  0  0
 12 13  1  0  0  0  0
 13 18  1  0  0  0  0
 14 16  2  0  0  0  0
 14 12  1  0  0  0  0
 15 13  2  0  0  0  0
 16 15  1  0  0  0  0
 18 17  2  0  0  0  0
 18 19  1  0  0  0  0
 20  1  1  0  0  0  0
 21 20  2  0  0  0  0
 22 27  1  0  0  0  0
 22 20  1  0  0  0  0
 23 27  2  0  0  0  0
 24 23  1  0  0  0  0
 25 24  2  0  0  0  0
 25 26  1  0  0  0  0
 26 22  2  0  0  0  0
M  END
>  <MODEL>
3

>  <REMARK>
 VINA RESULT:      -7.0      3.903      6.996
  Name = 
  6 active torsions:
  status: ('A' for Active; 'I' for Inactive)
    1  A    between atoms: C_1  and  C_8
    2  A    between atoms: N_6  and  C_8
    3  A    between atoms: C_9  and  N_25
    4  A    between atoms: C_10  and  C_11
    5  A    between atoms: C_15  and  C_16
    6  A    between atoms: C_15  and  C_24
                            x       y       z     vdW  Elec       q    Type
                         _______ _______ _______ _____ _____    ______ ____

>  <TORSDO>
F 6

$$$$
=
 OpenBabel11032420373D

 27 29  0  0  1  0  0  0  0  0999 V2000
  185.1500  178.7220  142.9870 N   0  0  0  0  0  0  0  0  0  0  0  0
  186.2870  178.1970  143.3470 C   0  0  0  0  0  0  0  0  0  0  0  0
  189.6700  176.8190  141.0940 C   0  0  0  0  0  0  0  0  0  0  0  0
  188.0450  176.4020  142.9830 C   0  0  0  0  0  2  0  0  0  0  0  0
  189.0170  177.8780  140.7090 N   0  0  0  0  0  0  0  0  0  0  0  0
  188.1080  178.5800  141.6150 C   0  0  0  0  0  2  0  0  0  0  0  0
  189.5000  176.3020  142.4980 C   0  0  0  0  0  2  0  0  0  0  0  0
  187.2500  177.5660  142.3770 C   0  0  2  0  0  3  0  0  0  0  0  0
  190.5900  176.1660  140.2110 N   0  0  0  0  0  2  0  0  0  0  0  0
  191.1050  177.0470  137.8600 N   0  0  0  0  0  0  0  0  0  0  0  0
  190.8740  176.6480  138.9240 C   0  0  0  0  0  0  0  0  0  0  0  0
  188.1370  177.8490  145.4270 S   0  0  0  0  0  0  0  0  0  0  0  0
  187.6050  177.9810  147.0130 C   0  0  0  0  0  0  0  0  0  0  0  0
  186.6040  178.1120  144.7820 C   0  0  0  0  0  0  0  0  0  0  0  0
  186.2390  178.2250  147.0030 C   0  0  0  0  0  3  0  0  0  0  0  0
  185.6940  178.3020  145.7590 N   0  0  0  0  0  0  0  0  0  0  0  0
  187.9300  177.9050  149.3600 O   0  0  0  0  0  1  0  0  0  0  0  0
  188.4470  177.8590  148.2090 C   0  0  0  0  0  0  0  0  0  0  0  0
  189.8170  177.6680  148.0780 O   0  0  0  0  0  0  0  0  0  0  0  0
  184.6600  178.9090  141.6540 C   0  0  0  0  0  0  0  0  0  0  0  0
  185.3150  179.6030  140.8280 O   0  0  0  0  0  0  0  0  0  0  0  0
  183.3720  178.3130  141.2510 C   0  0  0  0  0  0  0  0  0  0  0  0
  182.0840  176.8160  139.8570 C   0  0  0  0  0  3  0  0  0  0  0  0
  180.9350  177.2820  140.4230 N   0  0  0  0  0  0  0  0  0  0  0  0
  180.9540  178.2360  141.3910 C   0  0  0  0  0  3  0  0  0  0  0  0
  182.1710  178.7690  141.8210 C   0  0  0  0  0  3  0  0  0  0  0  0
  183.3240  177.3270  140.2570 C   0  0  0  0  0  3  0  0  0  0  0  0
  1  2  2  0  0  0  0
  2 14  1  0  0  0  0
  3  7  1  0  0  0  0
  5  3  2  0  0  0  0
  5  6  1  0  0  0  0
  6  8  1  0  0  0  0
  7  4  1  0  0  0  0
  8  4  1  0  0  0  0
  8  2  1  1  0  0  0
  9  3  1  0  0  0  0
 10 11  3  0  0  0  0
 11  9  1  0  0  0  0
 12 13  1  0  0  0  0
 13 18  1  0  0  0  0
 14 12  1  0  0  0  0
 14 16  2  0  0  0  0
 15 13  2  0  0  0  0
 16 15  1  0  0  0  0
 18 17  1  0  0  0  0
 19 18  2  0  0  0  0
 20  1  1  0  0  0  0
 21 20  2  0  0  0  0
 22 20  1  0  0  0  0
 22 26  1  0  0  0  0
 23 27  1  0  0  0  0
 23 24  2  0  0  0  0
 24 25  1  0  0  0  0
 25 26  2  0  0  0  0
 27 22  2  0  0  0  0
M  END
>  <MODEL>
4

>  <REMARK>
 VINA RESULT:      -7.0      3.652      6.098
  Name = 
  6 active torsions:
  status: ('A' for Active; 'I' for Inactive)
    1  A    between atoms: C_1  and  C_8
    2  A    between atoms: N_6  and  C_8
    3  A    between atoms: C_9  and  N_25
    4  A    between atoms: C_10  and  C_11
    5  A    between atoms: C_15  and  C_16
    6  A    between atoms: C_15  and  C_24
                            x       y       z     vdW  Elec       q    Type
                         _______ _______ _______ _____ _____    ______ ____

>  <TORSDO>
F 6

$$$$
=
 OpenBabel11032420373D

 27 29  0  0  1  0  0  0  0  0999 V2000
  186.6070  178.6250  140.3880 N   0  0  0  0  0  0  0  0  0  0  0  0
  187.7570  178.2250  140.8540 C   0  0  0  0  0  0  0  0  0  0  0  0
  189.2630  177.5700  144.8190 C   0  0  0  0  0  0  0  0  0  0  0  0
  189.5620  178.6940  142.5760 C   0  0  0  0  0  2  0  0  0  0  0  0
  188.0870  177.1200  144.4850 N   0  0  0  0  0  0  0  0  0  0  0  0
  187.6900  177.0030  143.0820 C   0  0  0  0  0  2  0  0  0  0  0  0
  190.2440  177.9730  143.7500 C   0  0  0  0  0  2  0  0  0  0  0  0
  188.1130  178.2590  142.3160 C   0  0  2  0  0  3  0  0  0  0  0  0
  189.6550  177.6400  146.1950 N   0  0  0  0  0  2  0  0  0  0  0  0
  188.1510  176.8230  148.1020 N   0  0  0  0  0  0  0  0  0  0  0  0
  188.8330  177.1910  147.2400 C   0  0  0  0  0  0  0  0  0  0  0  0
  189.9780  176.6500  140.1830 S   0  0  0  0  0  0  0  0  0  0  0  0
  190.6310  176.7860  138.6430 C   0  0  0  0  0  0  0  0  0  0  0  0
  188.8040  177.8220  139.9010 C   0  0  0  0  0  0  0  0  0  0  0  0
  189.9170  177.7480  137.9430 C   0  0  0  0  0  3  0  0  0  0  0  0
  188.9010  178.3130  138.6480 N   0  0  0  0  0  0  0  0  0  0  0  0
  192.8400  176.5950  137.8030 O   0  0  0  0  0  0  0  0  0  0  0  0
  191.7670  176.0140  138.1260 C   0  0  0  0  0  0  0  0  0  0  0  0
  191.6750  174.6320  138.0120 O   0  0  0  0  0  1  0  0  0  0  0  0
  185.4610  179.0450  141.1400 C   0  0  0  0  0  0  0  0  0  0  0  0
  185.5990  179.8120  142.1320 O   0  0  0  0  0  0  0  0  0  0  0  0
  184.1190  178.5560  140.7720 C   0  0  0  0  0  0  0  0  0  0  0  0
  182.5880  177.6060  139.1600 C   0  0  0  0  0  3  0  0  0  0  0  0
  181.5670  177.7450  140.0520 N   0  0  0  0  0  0  0  0  0  0  0  0
  181.7700  178.2650  141.2920 C   0  0  0  0  0  3  0  0  0  0  0  0
  183.0480  178.6800  141.6720 C   0  0  0  0  0  3  0  0  0  0  0  0
  183.8830  178.0140  139.5010 C   0  0  0  0  0  3  0  0  0  0  0  0
  1  2  2  0  0  0  0
  1 20  1  0  0  0  0
  3  9  1  0  0  0  0
  4  7  1  0  0  0  0
  5  3  2  0  0  0  0
  6  5  1  0  0  0  0
  7  3  1  0  0  0  0
  8  2  1  6  0  0  0
  8  4  1  0  0  0  0
  8  6  1  0  0  0  0
  9 11  1  0  0  0  0
 11 10  3  0  0  0  0
 13 12  1  0  0  0  0
 14 12  1  0  0  0  0
 14  2  1  0  0  0  0
 15 13  2  0  0  0  0
 15 16  1  0  0  0  0
 16 14  2  0  0  0  0
 17 18  2  0  0  0  0
 18 13  1  0  0  0  0
 19 18  1  0  0  0  0
 20 21  2  0  0  0  0
 22 20  1  0  0  0  0
 22 26  1  0  0  0  0
 23 27  1  0  0  0  0
 23 24  2  0  0  0  0
 24 25  1  0  0  0  0
 25 26  2  0  0  0  0
 27 22  2  0  0  0  0
M  END
>  <MODEL>
5

>  <REMARK>
 VINA RESULT:      -7.0      1.879      2.110
  Name = 
  6 active torsions:
  status: ('A' for Active; 'I' for Inactive)
    1  A    between atoms: C_1  and  C_8
    2  A    between atoms: N_6  and  C_8
    3  A    between atoms: C_9  and  N_25
    4  A    between atoms: C_10  and  C_11
    5  A    between atoms: C_15  and  C_16
    6  A    between atoms: C_15  and  C_24
                            x       y       z     vdW  Elec       q    Type
                         _______ _______ _______ _____ _____    ______ ____

>  <TORSDO>
F 6

$$$$
=
 OpenBabel11032420373D

 27 29  0  0  1  0  0  0  0  0999 V2000
  189.6760  177.6950  140.1740 N   0  0  0  0  0  0  0  0  0  0  0  0
  188.9150  177.7930  141.2280 C   0  0  0  0  0  0  0  0  0  0  0  0
  189.5070  177.0070  145.4050 C   0  0  0  0  0  0  0  0  0  0  0  0
  188.1820  176.5330  143.3060 C   0  0  0  0  0  2  0  0  0  0  0  0
  190.3630  177.7390  144.7510 N   0  0  0  0  0  0  0  0  0  0  0  0
  190.0270  178.3220  143.4510 C   0  0  0  0  0  2  0  0  0  0  0  0
  188.1400  176.7530  144.8260 C   0  0  0  0  0  2  0  0  0  0  0  0
  189.3130  177.2800  142.5850 C   0  0  2  0  0  3  0  0  0  0  0  0
  189.8340  176.4770  146.6950 N   0  0  0  0  0  2  0  0  0  0  0  0
  192.0550  176.9790  147.8700 N   0  0  0  0  0  0  0  0  0  0  0  0
  191.0490  176.7530  147.3400 C   0  0  0  0  0  0  0  0  0  0  0  0
  186.6660  178.3260  139.6380 S   0  0  0  0  0  0  0  0  0  0  0  0
  185.3090  179.0030  140.3570 C   0  0  0  0  0  0  0  0  0  0  0  0
  187.5530  178.3300  141.0690 C   0  0  0  0  0  0  0  0  0  0  0  0
  185.5820  179.2200  141.7000 C   0  0  0  0  0  3  0  0  0  0  0  0
  186.8280  178.8370  142.0870 N   0  0  0  0  0  0  0  0  0  0  0  0
  183.0730  178.5100  139.7420 O   0  0  0  0  0  1  0  0  0  0  0  0
  184.0460  179.3120  139.6760 C   0  0  0  0  0  0  0  0  0  0  0  0
  183.9080  180.5030  138.9740 O   0  0  0  0  0  0  0  0  0  0  0  0
  191.0250  177.2160  140.1160 C   0  0  0  0  0  0  0  0  0  0  0  0
  191.8410  177.5030  141.0350 O   0  0  0  0  0  0  0  0  0  0  0  0
  191.4710  176.4090  138.9640 C   0  0  0  0  0  0  0  0  0  0  0  0
  193.1910  175.7190  137.4120 C   0  0  0  0  0  3  0  0  0  0  0  0
  192.2740  174.9760  136.7300 N   0  0  0  0  0  0  0  0  0  0  0  0
  190.9740  174.9130  137.1240 C   0  0  0  0  0  3  0  0  0  0  0  0
  190.5500  175.6280  138.2450 C   0  0  0  0  0  3  0  0  0  0  0  0
  192.8060  176.4550  138.5390 C   0  0  0  0  0  3  0  0  0  0  0  0
  1  2  2  0  0  0  0
  3  9  1  0  0  0  0
  4  7  1  0  0  0  0
  5  3  2  0  0  0  0
  6  5  1  0  0  0  0
  7  3  1  0  0  0  0
  8  2  1  6  0  0  0
  8  4  1  0  0  0  0
  8  6  1  0  0  0  0
  9 11  1  0  0  0  0
 11 10  3  0  0  0  0
 12 13  1  0  0  0  0
 12 14  1  0  0  0  0
 13 15  2  0  0  0  0
 14  2  1  0  0  0  0
 14 16  2  0  0  0  0
 15 16  1  0  0  0  0
 18 17  1  0  0  0  0
 18 13  1  0  0  0  0
 19 18  2  0  0  0  0
 20  1  1  0  0  0  0
 20 21  2  0  0  0  0
 22 20  1  0  0  0  0
 23 27  2  0  0  0  0
 24 25  2  0  0  0  0
 24 23  1  0  0  0  0
 25 26  1  0  0  0  0
 26 22  2  0  0  0  0
 27 22  1  0  0  0  0
M  END
>  <MODEL>
6

>  <REMARK>
 VINA RESULT:      -6.9      2.669      6.425
  Name = 
  6 active torsions:
  status: ('A' for Active; 'I' for Inactive)
    1  A    between atoms: C_1  and  C_8
    2  A    between atoms: N_6  and  C_8
    3  A    between atoms: C_9  and  N_25
    4  A    between atoms: C_10  and  C_11
    5  A    between atoms: C_15  and  C_16
    6  A    between atoms: C_15  and  C_24
                            x       y       z     vdW  Elec       q    Type
                         _______ _______ _______ _____ _____    ______ ____

>  <TORSDO>
F 6

$$$$
=
 OpenBabel11032420373D

 27 29  0  0  1  0  0  0  0  0999 V2000
  188.2960  178.4690  144.5950 N   0  0  0  0  0  0  0  0  0  0  0  0
  187.4970  178.1150  143.6280 C   0  0  0  0  0  0  0  0  0  0  0  0
  189.6630  177.0250  140.0870 C   0  0  0  0  0  0  0  0  0  0  0  0
  189.0110  176.4460  142.4590 C   0  0  0  0  0  2  0  0  0  0  0  0
  188.8630  178.0520  140.0730 N   0  0  0  0  0  0  0  0  0  0  0  0
  188.3940  178.6660  141.3150 C   0  0  0  0  0  2  0  0  0  0  0  0
  190.1260  176.4530  141.4010 C   0  0  0  0  0  2  0  0  0  0  0  0
  187.9840  177.5770  142.3090 C   0  0  2  0  0  3  0  0  0  0  0  0
  190.1490  176.4590  138.8640 N   0  0  0  0  0  2  0  0  0  0  0  0
  189.5850  177.4470  136.5680 N   0  0  0  0  0  0  0  0  0  0  0  0
  189.8400  176.9980  137.6060 C   0  0  0  0  0  0  0  0  0  0  0  0
  184.9350  178.3990  142.5250 S   0  0  0  0  0  0  0  0  0  0  0  0
  183.6300  178.6190  143.5560 C   0  0  0  0  0  0  0  0  0  0  0  0
  186.0530  178.3520  143.7820 C   0  0  0  0  0  0  0  0  0  0  0  0
  184.0980  178.6540  144.8620 C   0  0  0  0  0  3  0  0  0  0  0  0
  185.4440  178.4980  144.9770 N   0  0  0  0  0  0  0  0  0  0  0  0
  181.9330  178.9150  141.9270 O   0  0  0  0  0  0  0  0  0  0  0  0
  182.2270  178.7510  143.1430 C   0  0  0  0  0  0  0  0  0  0  0  0
  181.2130  178.6710  144.0890 O   0  0  0  0  0  1  0  0  0  0  0  0
  189.7200  178.3160  144.6490 C   0  0  0  0  0  0  0  0  0  0  0  0
  190.4580  178.9630  143.8560 O   0  0  0  0  0  0  0  0  0  0  0  0
  190.3250  177.3780  145.6140 C   0  0  0  0  0  0  0  0  0  0  0  0
  190.3640  176.3210  147.7880 C   0  0  0  0  0  3  0  0  0  0  0  0
  191.5320  175.6990  147.4610 N   0  0  0  0  0  0  0  0  0  0  0  0
  192.1180  175.8750  146.2460 C   0  0  0  0  0  3  0  0  0  0  0  0
  191.5250  176.7170  145.3030 C   0  0  0  0  0  3  0  0  0  0  0  0
  189.7410  177.1770  146.8720 C   0  0  0  0  0  3  0  0  0  0  0  0
  1 20  1  0  0  0  0
  2 14  1  0  0  0  0
  2  1  2  0  0  0  0
  3  7  1  0  0  0  0
  5  3  2  0  0  0  0
  5  6  1  0  0  0  0
  6  8  1  0  0  0  0
  7  4  1  0  0  0  0
  8  4  1  0  0  0  0
  8  2  1  1  0  0  0
  9  3  1  0  0  0  0
 10 11  3  0  0  0  0
 11  9  1  0  0  0  0
 12 13  1  0  0  0  0
 12 14  1  0  0  0  0
 13 15  2  0  0  0  0
 14 16  2  0  0  0  0
 15 16  1  0  0  0  0
 17 18  2  0  0  0  0
 18 13  1  0  0  0  0
 18 19  1  0  0  0  0
 20 22  1  0  0  0  0
 21 20  2  0  0  0  0
 22 27  1  0  0  0  0
 24 23  1  0  0  0  0
 25 24  2  0  0  0  0
 26 22  2  0  0  0  0
 26 25  1  0  0  0  0
 27 23  2  0  0  0  0
M  END
>  <MODEL>
7

>  <REMARK>
 VINA RESULT:      -6.9      2.864      7.540
  Name = 
  6 active torsions:
  status: ('A' for Active; 'I' for Inactive)
    1  A    between atoms: C_1  and  C_8
    2  A    between atoms: N_6  and  C_8
    3  A    between atoms: C_9  and  N_25
    4  A    between atoms: C_10  and  C_11
    5  A    between atoms: C_15  and  C_16
    6  A    between atoms: C_15  and  C_24
                            x       y       z     vdW  Elec       q    Type
                         _______ _______ _______ _____ _____    ______ ____

>  <TORSDO>
F 6

$$$$
=
 OpenBabel11032420373D

 27 29  0  0  1  0  0  0  0  0999 V2000
  187.2390  178.5130  142.4710 N   0  0  0  0  0  0  0  0  0  0  0  0
  188.3950  178.0320  142.1090 C   0  0  0  0  0  0  0  0  0  0  0  0
  190.0100  177.0080  138.2670 C   0  0  0  0  0  0  0  0  0  0  0  0
  189.7090  176.3820  140.6970 C   0  0  0  0  0  2  0  0  0  0  0  0
  189.2240  178.0390  138.3910 N   0  0  0  0  0  0  0  0  0  0  0  0
  188.9460  178.6290  139.7010 C   0  0  0  0  0  2  0  0  0  0  0  0
  190.6570  176.4070  139.4870 C   0  0  0  0  0  2  0  0  0  0  0  0
  188.6790  177.5200  140.7230 C   0  0  2  0  0  3  0  0  0  0  0  0
  190.3070  176.4670  136.9750 N   0  0  0  0  0  2  0  0  0  0  0  0
  189.4220  177.5030  134.8050 N   0  0  0  0  0  0  0  0  0  0  0  0
  189.8210  177.0340  135.7870 C   0  0  0  0  0  0  0  0  0  0  0  0
  189.4490  176.7180  144.3510 S   0  0  0  0  0  0  0  0  0  0  0  0
  190.9490  177.1900  144.9350 C   0  0  0  0  0  0  0  0  0  0  0  0
  189.4450  177.8740  143.1290 C   0  0  0  0  0  0  0  0  0  0  0  0
  191.4130  178.2450  144.1620 C   0  0  0  0  0  3  0  0  0  0  0  0
  190.5730  178.6130  143.1580 N   0  0  0  0  0  0  0  0  0  0  0  0
  191.6810  177.1730  147.1900 O   0  0  0  0  0  1  0  0  0  0  0  0
  191.6520  176.5860  146.0740 C   0  0  0  0  0  0  0  0  0  0  0  0
  192.2700  175.3500  145.9320 O   0  0  0  0  0  0  0  0  0  0  0  0
  186.0970  178.7560  141.6390 C   0  0  0  0  0  0  0  0  0  0  0  0
  186.2480  179.0030  140.4110 O   0  0  0  0  0  0  0  0  0  0  0  0
  184.7430  178.7460  142.2240 C   0  0  0  0  0  0  0  0  0  0  0  0
  182.3410  178.6280  141.9810 C   0  0  0  0  0  3  0  0  0  0  0  0
  182.1970  178.8430  143.3190 N   0  0  0  0  0  0  0  0  0  0  0  0
  183.2740  179.0030  144.1340 C   0  0  0  0  0  3  0  0  0  0  0  0
  184.5640  178.9590  143.6010 C   0  0  0  0  0  3  0  0  0  0  0  0
  183.6170  178.5810  141.4070 C   0  0  0  0  0  3  0  0  0  0  0  0
  2  1  2  0  0  0  0
  2 14  1  0  0  0  0
  3  5  2  0  0  0  0
  3  7  1  0  0  0  0
  4  8  1  0  0  0  0
  5  6  1  0  0  0  0
  6  8  1  0  0  0  0
  7  4  1  0  0  0  0
  8  2  1  1  0  0  0
  9  3  1  0  0  0  0
 10 11  3  0  0  0  0
 11  9  1  0  0  0  0
 12 13  1  0  0  0  0
 13 18  1  0  0  0  0
 14 16  2  0  0  0  0
 14 12  1  0  0  0  0
 15 13  2  0  0  0  0
 16 15  1  0  0  0  0
 18 17  1  0  0  0  0
 19 18  2  0  0  0  0
 20 22  1  0  0  0  0
 20  1  1  0  0  0  0
 21 20  2  0  0  0  0
 22 26  1  0  0  0  0
 23 24  2  0  0  0  0
 24 25  1  0  0  0  0
 26 25  2  0  0  0  0
 27 23  1  0  0  0  0
 27 22  2  0  0  0  0
M  END
>  <MODEL>
8

>  <REMARK>
 VINA RESULT:      -6.7      2.668      5.908
  Name = 
  6 active torsions:
  status: ('A' for Active; 'I' for Inactive)
    1  A    between atoms: C_1  and  C_8
    2  A    between atoms: N_6  and  C_8
    3  A    between atoms: C_9  and  N_25
    4  A    between atoms: C_10  and  C_11
    5  A    between atoms: C_15  and  C_16
    6  A    between atoms: C_15  and  C_24
                            x       y       z     vdW  Elec       q    Type
                         _______ _______ _______ _____ _____    ______ ____

>  <TORSDO>
F 6

$$$$
=
 OpenBabel11032420373D

 27 29  0  0  1  0  0  0  0  0999 V2000
  189.8740  177.6690  137.2100 N   0  0  0  0  0  0  0  0  0  0  0  0
  190.5290  177.1040  138.1840 C   0  0  0  0  0  0  0  0  0  0  0  0
  190.1590  177.2500  142.4570 C   0  0  0  0  0  0  0  0  0  0  0  0
  191.6450  177.5030  140.4290 C   0  0  0  0  0  2  0  0  0  0  0  0
  189.1000  177.0960  141.7150 N   0  0  0  0  0  0  0  0  0  0  0  0
  189.2070  176.6870  140.3140 C   0  0  0  0  0  2  0  0  0  0  0  0
  191.5260  176.9990  141.8760 C   0  0  0  0  0  2  0  0  0  0  0  0
  190.3340  177.4670  139.6310 C   0  0  2  0  0  3  0  0  0  0  0  0
  190.0380  177.6100  143.8390 N   0  0  0  0  0  2  0  0  0  0  0  0
  187.7710  177.8950  144.9970 N   0  0  0  0  0  0  0  0  0  0  0  0
  188.7970  177.7640  144.4740 C   0  0  0  0  0  0  0  0  0  0  0  0
  193.1830  176.5430  137.4700 S   0  0  0  0  0  0  0  0  0  0  0  0
  193.6640  174.9410  137.3390 C   0  0  0  0  0  0  0  0  0  0  0  0
  191.5940  176.1420  137.8550 C   0  0  0  0  0  0  0  0  0  0  0  0
  192.5690  174.1270  137.5960 C   0  0  0  0  0  3  0  0  0  0  0  0
  191.4260  174.8040  137.8880 N   0  0  0  0  0  0  0  0  0  0  0  0
  195.2120  173.7380  136.0050 O   0  0  0  0  0  0  0  0  0  0  0  0
  195.0180  174.4790  137.0080 C   0  0  0  0  0  0  0  0  0  0  0  0
  196.0970  174.8780  137.7860 O   0  0  0  0  0  1  0  0  0  0  0  0
  188.8020  178.6150  137.3140 C   0  0  0  0  0  0  0  0  0  0  0  0
  189.0450  179.8200  137.6000 O   0  0  0  0  0  0  0  0  0  0  0  0
  187.4080  178.1740  137.1170 C   0  0  0  0  0  0  0  0  0  0  0  0
  185.1800  177.7800  137.9680 C   0  0  0  0  0  3  0  0  0  0  0  0
  184.8210  177.2390  136.7700 N   0  0  0  0  0  0  0  0  0  0  0  0
  185.6990  177.1530  135.7350 C   0  0  0  0  0  3  0  0  0  0  0  0
  187.0070  177.6170  135.8910 C   0  0  0  0  0  3  0  0  0  0  0  0
  186.4820  178.2530  138.1660 C   0  0  0  0  0  3  0  0  0  0  0  0
  1 20  1  0  0  0  0
  1  2  2  0  0  0  0
  3  9  1  0  0  0  0
  4  7  1  0  0  0  0
  5  3  2  0  0  0  0
  6  5  1  0  0  0  0
  7  3  1  0  0  0  0
  8  2  1  6  0  0  0
  8  6  1  0  0  0  0
  8  4  1  0  0  0  0
  9 11  1  0  0  0  0
 11 10  3  0  0  0  0
 12 14  1  0  0  0  0
 13 12  1  0  0  0  0
 13 15  2  0  0  0  0
 14 16  2  0  0  0  0
 14  2  1  0  0  0  0
 15 16  1  0  0  0  0
 17 18  2  0  0  0  0
 18 13  1  0  0  0  0
 18 19  1  0  0  0  0
 20 21  2  0  0  0  0
 22 20  1  0  0  0  0
 22 27  1  0  0  0  0
 23 27  2  0  0  0  0
 24 23  1  0  0  0  0
 25 26  1  0  0  0  0
 25 24  2  0  0  0  0
 26 22  2  0  0  0  0
M  END
>  <MODEL>
9

>  <REMARK>
 VINA RESULT:      -6.7      3.750      5.253
  Name = 
  6 active torsions:
  status: ('A' for Active; 'I' for Inactive)
    1  A    between atoms: C_1  and  C_8
    2  A    between atoms: N_6  and  C_8
    3  A    between atoms: C_9  and  N_25
    4  A    between atoms: C_10  and  C_11
    5  A    between atoms: C_15  and  C_16
    6  A    between atoms: C_15  and  C_24
                            x       y       z     vdW  Elec       q    Type
                         _______ _______ _______ _____ _____    ______ ____

>  <TORSDO>
F 6

$$$$
