=
 OpenBabel11032421173D

 52 55  0  0  1  0  0  0  0  0999 V2000
  183.9050  176.1170  135.9950 C   0  0  0  0  0  0  0  0  0  0  0  0
  182.3680  179.1850  138.8230 C   0  0  1  0  0  3  0  0  0  0  0  0
  182.3580  174.6230  137.0370 N   0  0  0  0  0  0  0  0  0  0  0  0
  183.3860  174.0010  135.0130 N   0  0  0  0  0  0  0  0  0  0  0  0
  184.7270  178.6930  139.1600 O   0  0  0  0  0  1  0  0  0  0  0  0
  182.3130  178.0740  137.8150 C   0  0  0  0  0  0  0  0  0  0  0  0
  182.8190  176.7620  140.6260 C   0  0  0  0  0  3  0  0  0  0  0  0
  183.2270  178.1760  140.9640 C   0  0  1  0  0  3  0  0  0  0  0  0
  183.5450  179.0910  139.7910 C   0  0  2  0  0  3  0  0  0  0  0  0
  184.0720  175.1720  134.9790 C   0  0  0  0  0  3  0  0  0  0  0  0
  181.7850  178.3000  136.6900 O   0  0  0  0  0  0  0  0  0  0  0  0
  182.6550  176.1620  139.4390 C   0  0  0  0  0  3  0  0  0  0  0  0
  183.0160  175.8180  137.0480 C   0  0  0  0  0  0  0  0  0  0  0  0
  182.7830  176.7430  138.1260 N   0  0  0  0  0  0  0  0  0  0  0  0
  182.5360  173.7240  136.0350 C   0  0  0  0  0  3  0  0  0  0  0  0
  182.2610  180.4860  138.2350 O   0  0  0  0  0  0  0  0  0  0  0  0
  180.2300  181.0810  139.5470 C   0  0  0  0  0  1  0  0  0  0  0  0
  181.3140  182.5970  138.0790 O   0  0  0  0  0  0  0  0  0  0  0  0
  181.2970  181.4420  138.5790 C   0  0  0  0  0  0  0  0  0  0  0  0
  184.7080  177.3760  135.9640 C   0  0  0  0  0  2  0  0  0  0  0  0
  186.1850  177.0720  136.1490 C   0  0  0  0  0  2  0  0  0  0  0  0
  186.9500  178.3720  136.3020 C   0  0  0  0  0  2  0  0  0  0  0  0
  188.3340  178.0970  136.6550 N   0  0  0  0  0  2  0  0  0  0  0  0
  188.8140  178.1540  137.9980 C   0  0  0  0  0  0  0  0  0  0  0  0
  188.0080  178.3370  138.9510 O   0  0  0  0  0  0  0  0  0  0  0  0
  190.1800  177.9990  138.2370 O   0  0  0  0  0  0  0  0  0  0  0  0
  190.4870  175.9820  136.3510 O   0  0  0  0  0  0  0  0  0  0  0  0
  190.7060  175.5190  138.9230 O   0  0  0  0  0  1  0  0  0  0  0  0
  191.0190  176.5480  137.8580 P   0  0  2  0  0  0  0  0  0  0  0  0
  192.6920  176.8800  137.8320 O   0  0  0  0  0  0  0  0  0  0  0  0
  192.4370  174.1210  137.4920 O   0  0  0  0  0  1  0  0  0  0  0  0
  193.5070  175.4340  137.4510 P   0  0  0  0  0  0  0  0  0  0  0  0
  194.1370  175.5660  135.8870 O   0  0  0  0  0  0  0  0  0  0  0  0
  194.6480  175.1910  138.4150 O   0  0  0  0  0  1  0  0  0  0  0  0
  182.1960  178.8300  141.8740 C   0  0  0  0  0  2  0  0  0  0  0  0
  183.9870  178.8930  143.4760 N   0  0  0  0  0  0  0  0  0  0  0  0
  182.7140  178.9600  143.2630 C   0  0  0  0  0  3  0  0  0  0  0  0
  183.8280  179.1290  145.8010 O   0  0  0  0  0  0  0  0  0  0  0  0
  184.5590  179.0080  144.7810 C   0  0  0  0  0  0  0  0  0  0  0  0
  186.0440  178.9500  144.9340 C   0  0  0  0  0  2  0  0  0  0  0  0
  185.4540  176.8850  145.9820 O   0  0  0  0  0  1  0  0  0  0  0  0
  187.0610  176.8200  144.3310 O   0  0  0  0  0  0  0  0  0  0  0  0
  186.5250  177.5800  145.4200 C   0  0  1  0  0  0  0  0  0  0  0  0
  190.9700  176.7820  142.3070 N   0  0  0  0  0  0  0  0  0  0  0  0
  187.5960  177.7910  146.4950 C   0  0  0  0  0  2  0  0  0  0  0  0
  191.3980  176.9490  143.5200 C   0  0  0  0  0  3  0  0  0  0  0  0
  188.8240  178.2480  145.9210 O   0  0  0  0  0  0  0  0  0  0  0  0
  189.7430  177.3560  141.7820 C   0  0  0  0  0  2  0  0  0  0  0  0
  189.3220  177.6890  144.7420 C   0  0  0  0  0  0  0  0  0  0  0  0
  188.5390  176.8740  142.5170 C   0  0  0  0  0  3  0  0  0  0  0  0
  190.6510  177.6300  144.5960 C   0  0  0  0  0  3  0  0  0  0  0  0
  188.3310  177.0880  143.8160 C   0  0  0  0  0  0  0  0  0  0  0  0
  1 13  1  0  0  0  0
  2 16  1  6  0  0  0
  2  9  1  0  0  0  0
  3 13  2  0  0  0  0
  4 15  2  0  0  0  0
  6 14  1  0  0  0  0
  6  2  1  0  0  0  0
  7  8  1  0  0  0  0
  8 35  1  6  0  0  0
  9  5  1  6  0  0  0
  9  8  1  0  0  0  0
 10  4  1  0  0  0  0
 10  1  2  0  0  0  0
 11  6  2  0  0  0  0
 12  7  2  0  0  0  0
 13 14  1  0  0  0  0
 14 12  1  0  0  0  0
 15  3  1  0  0  0  0
 16 19  1  0  0  0  0
 18 19  2  0  0  0  0
 19 17  1  0  0  0  0
 20  1  1  0  0  0  0
 20 21  1  0  0  0  0
 21 22  1  0  0  0  0
 22 23  1  0  0  0  0
 23 24  1  0  0  0  0
 24 26  1  0  0  0  0
 24 25  2  0  0  0  0
 29 27  2  6  0  0  0
 29 26  1  0  0  0  0
 29 28  1  0  0  0  0
 30 29  1  0  0  0  0
 32 31  1  0  0  0  0
 32 30  1  0  0  0  0
 32 34  1  0  0  0  0
 33 32  2  0  0  0  0
 35 37  1  0  0  0  0
 36 39  1  0  0  0  0
 37 36  2  0  0  0  0
 39 40  1  0  0  0  0
 39 38  2  0  0  0  0
 40 43  1  0  0  0  0
 42 43  1  0  0  0  0
 43 41  1  1  0  0  0
 43 45  1  0  0  0  0
 44 46  2  0  0  0  0
 46 51  1  0  0  0  0
 47 45  1  0  0  0  0
 48 44  1  0  0  0  0
 48 50  1  0  0  0  0
 49 47  1  0  0  0  0
 50 52  2  0  0  0  0
 51 49  2  0  0  0  0
 52 42  1  0  0  0  0
 52 49  1  0  0  0  0
M  END
>  <MODEL>
1

>  <REMARK>
 VINA RESULT:      -7.5      0.000      0.000
  Name = 
  15 active torsions:
  status: ('A' for Active; 'I' for Inactive)
    1  A    between atoms: C_1  and  C_22
    2  A    between atoms: C_2  and  O_13
    3  A    between atoms: C_6  and  C_45
    4  A    between atoms: N_11  and  C_21
    5  A    between atoms: O_12  and  P_18
    6  A    between atoms: O_12  and  P_31
    7  A    between atoms: O_13  and  C_49
    8  A    between atoms: C_16  and  O_34
    9  A    between atoms: C_21  and  C_25
   10  A    between atoms: C_22  and  C_25
   11  A    between atoms: N_29  and  C_41
   12  A    between atoms: C_30  and  C_44
   13  A    between atoms: P_31  and  O_34
   14  A    between atoms: C_41  and  C_45
   15  A    between atoms: C_44  and  C_52
                            x       y       z     vdW  Elec       q    Type
                         _______ _______ _______ _____ _____    ______ ____

>  <TORSDO>
F 15

$$$$
=
 OpenBabel11032421173D

 52 55  0  0  1  0  0  0  0  0999 V2000
  186.9980  175.5040  135.3950 C   0  0  0  0  0  0  0  0  0  0  0  0
  191.1080  176.4450  136.8080 C   0  0  1  0  0  3  0  0  0  0  0  0
  186.3610  177.5790  136.3930 N   0  0  0  0  0  0  0  0  0  0  0  0
  184.8710  176.4900  134.9330 N   0  0  0  0  0  0  0  0  0  0  0  0
  190.1970  174.4360  137.8360 O   0  0  0  0  0  1  0  0  0  0  0  0
  189.7740  176.6810  136.1620 C   0  0  0  0  0  0  0  0  0  0  0  0
  189.3900  177.0510  139.2580 C   0  0  0  0  0  3  0  0  0  0  0  0
  190.6910  176.2860  139.2860 C   0  0  1  0  0  3  0  0  0  0  0  0
  191.0570  175.5210  138.0230 C   0  0  2  0  0  3  0  0  0  0  0  0
  185.7590  175.4800  134.7500 C   0  0  0  0  0  3  0  0  0  0  0  0
  189.7350  176.9300  134.9240 O   0  0  0  0  0  0  0  0  0  0  0  0
  188.4880  177.2040  138.2790 C   0  0  0  0  0  3  0  0  0  0  0  0
  187.2930  176.5960  136.2370 C   0  0  0  0  0  0  0  0  0  0  0  0
  188.5510  176.6990  136.9300 N   0  0  0  0  0  0  0  0  0  0  0  0
  185.1650  177.5320  135.7500 C   0  0  0  0  0  3  0  0  0  0  0  0
  192.1240  176.0530  135.8790 O   0  0  0  0  0  0  0  0  0  0  0  0
  194.0350  174.4620  136.0140 C   0  0  0  0  0  1  0  0  0  0  0  0
  194.1910  176.7350  136.6780 O   0  0  0  0  0  0  0  0  0  0  0  0
  193.4640  175.8200  136.2110 C   0  0  0  0  0  0  0  0  0  0  0  0
  187.9400  174.3580  135.2190 C   0  0  0  0  0  2  0  0  0  0  0  0
  187.7880  173.3630  136.3560 C   0  0  0  0  0  2  0  0  0  0  0  0
  187.1600  172.0880  135.8280 C   0  0  0  0  0  2  0  0  0  0  0  0
  185.7110  172.1910  135.8750 N   0  0  0  0  0  2  0  0  0  0  0  0
  184.9950  172.4700  137.0780 C   0  0  0  0  0  0  0  0  0  0  0  0
  185.6200  172.7560  138.1350 O   0  0  0  0  0  0  0  0  0  0  0  0
  183.6000  172.4290  137.0620 O   0  0  0  0  0  0  0  0  0  0  0  0
  181.1410  173.5560  137.6930 O   0  0  0  0  0  1  0  0  0  0  0  0
  182.4280  174.1810  135.4960 O   0  0  0  0  0  0  0  0  0  0  0  0
  182.6390  173.8500  136.9570 P   0  0  2  0  0  0  0  0  0  0  0  0
  183.4660  175.1220  137.7370 O   0  0  0  0  0  0  0  0  0  0  0  0
  181.0890  176.4300  137.0790 O   0  0  0  0  0  0  0  0  0  0  0  0
  182.3090  176.2650  138.2420 P   0  0  0  0  0  0  0  0  0  0  0  0
  181.6080  175.7220  139.6830 O   0  0  0  0  0  1  0  0  0  0  0  0
  182.9570  177.6090  138.4950 O   0  0  0  0  0  1  0  0  0  0  0  0
  191.8400  177.1950  139.7010 C   0  0  0  0  0  2  0  0  0  0  0  0
  191.3420  177.1170  142.0510 N   0  0  0  0  0  0  0  0  0  0  0  0
  191.5610  177.8480  141.0090 C   0  0  0  0  0  3  0  0  0  0  0  0
  191.9880  177.8430  144.1830 O   0  0  0  0  0  0  0  0  0  0  0  0
  191.0660  177.6710  143.3400 C   0  0  0  0  0  0  0  0  0  0  0  0
  189.6680  178.0810  143.6720 C   0  0  0  0  0  2  0  0  0  0  0  0
  189.3610  175.7600  143.1930 O   0  0  0  0  0  1  0  0  0  0  0  0
  187.9350  176.7300  144.7230 O   0  0  0  0  0  0  0  0  0  0  0  0
  188.6710  176.9310  143.5100 C   0  0  1  0  0  0  0  0  0  0  0  0
  184.4180  178.7060  146.4850 N   0  0  0  0  0  0  0  0  0  0  0  0
  187.7150  177.2690  142.3620 C   0  0  0  0  0  2  0  0  0  0  0  0
  184.0310  178.7230  145.2470 C   0  0  0  0  0  3  0  0  0  0  0  0
  186.7890  178.2910  142.7410 O   0  0  0  0  0  0  0  0  0  0  0  0
  185.7950  178.8710  146.9180 C   0  0  0  0  0  2  0  0  0  0  0  0
  186.1710  178.2770  143.9930 C   0  0  0  0  0  0  0  0  0  0  0  0
  186.6820  177.7950  146.3880 C   0  0  0  0  0  3  0  0  0  0  0  0
  184.9310  178.7740  144.0790 C   0  0  0  0  0  3  0  0  0  0  0  0
  186.8940  177.5860  145.0890 C   0  0  0  0  0  0  0  0  0  0  0  0
  1 13  1  0  0  0  0
  2 16  1  6  0  0  0
  2  9  1  0  0  0  0
  4 15  2  0  0  0  0
  6  2  1  0  0  0  0
  6 14  1  0  0  0  0
  7  8  1  0  0  0  0
  8 35  1  6  0  0  0
  9  5  1  6  0  0  0
  9  8  1  0  0  0  0
 10  4  1  0  0  0  0
 10  1  2  0  0  0  0
 11  6  2  0  0  0  0
 12  7  2  0  0  0  0
 13  3  2  0  0  0  0
 13 14  1  0  0  0  0
 14 12  1  0  0  0  0
 15  3  1  0  0  0  0
 16 19  1  0  0  0  0
 17 19  1  0  0  0  0
 19 18  2  0  0  0  0
 20  1  1  0  0  0  0
 20 21  1  0  0  0  0
 22 23  1  0  0  0  0
 22 21  1  0  0  0  0
 23 24  1  0  0  0  0
 24 25  2  0  0  0  0
 26 24  1  0  0  0  0
 29 28  2  6  0  0  0
 29 26  1  0  0  0  0
 29 27  1  0  0  0  0
 29 30  1  0  0  0  0
 30 32  1  0  0  0  0
 31 32  2  0  0  0  0
 32 34  1  0  0  0  0
 32 33  1  0  0  0  0
 35 37  1  0  0  0  0
 36 39  1  0  0  0  0
 37 36  2  0  0  0  0
 39 40  1  0  0  0  0
 39 38  2  0  0  0  0
 42 52  1  0  0  0  0
 43 41  1  6  0  0  0
 43 40  1  0  0  0  0
 43 42  1  0  0  0  0
 44 48  1  0  0  0  0
 45 47  1  0  0  0  0
 45 43  1  0  0  0  0
 46 44  2  0  0  0  0
 47 49  1  0  0  0  0
 49 51  2  0  0  0  0
 49 52  1  0  0  0  0
 50 48  1  0  0  0  0
 51 46  1  0  0  0  0
 52 50  2  0  0  0  0
M  END
>  <MODEL>
2

>  <REMARK>
 VINA RESULT:      -7.4      3.477      7.893
  Name = 
  15 active torsions:
  status: ('A' for Active; 'I' for Inactive)
    1  A    between atoms: C_1  and  C_22
    2  A    between atoms: C_2  and  O_13
    3  A    between atoms: C_6  and  C_45
    4  A    between atoms: N_11  and  C_21
    5  A    between atoms: O_12  and  P_18
    6  A    between atoms: O_12  and  P_31
    7  A    between atoms: O_13  and  C_49
    8  A    between atoms: C_16  and  O_34
    9  A    between atoms: C_21  and  C_25
   10  A    between atoms: C_22  and  C_25
   11  A    between atoms: N_29  and  C_41
   12  A    between atoms: C_30  and  C_44
   13  A    between atoms: P_31  and  O_34
   14  A    between atoms: C_41  and  C_45
   15  A    between atoms: C_44  and  C_52
                            x       y       z     vdW  Elec       q    Type
                         _______ _______ _______ _____ _____    ______ ____

>  <TORSDO>
F 15

$$$$
=
 OpenBabel11032421173D

 52 55  0  0  1  0  0  0  0  0999 V2000
  190.0120  177.8260  145.2230 C   0  0  0  0  0  0  0  0  0  0  0  0
  185.8500  177.7210  143.6630 C   0  0  1  0  0  3  0  0  0  0  0  0
  189.1740  176.5630  147.0700 N   0  0  0  0  0  0  0  0  0  0  0  0
  191.4990  176.7560  146.7590 N   0  0  0  0  0  0  0  0  0  0  0  0
  186.6100  179.9770  144.1630 O   0  0  0  0  0  1  0  0  0  0  0  0
  187.1230  177.1940  144.2570 C   0  0  0  0  0  0  0  0  0  0  0  0
  185.4590  178.4710  146.5970 C   0  0  0  0  0  3  0  0  0  0  0  0
  184.7560  179.1330  145.4360 C   0  0  1  0  0  3  0  0  0  0  0  0
  185.4940  179.1380  144.1070 C   0  0  2  0  0  3  0  0  0  0  0  0
  191.3060  177.5230  145.6550 C   0  0  0  0  0  3  0  0  0  0  0  0
  187.7920  176.3440  143.6040 O   0  0  0  0  0  0  0  0  0  0  0  0
  186.6400  177.8420  146.6570 C   0  0  0  0  0  3  0  0  0  0  0  0
  188.9240  177.3210  145.9640 C   0  0  0  0  0  0  0  0  0  0  0  0
  187.5610  177.5810  145.5790 N   0  0  0  0  0  0  0  0  0  0  0  0
  190.4420  176.2810  147.4650 C   0  0  0  0  0  3  0  0  0  0  0  0
  185.7880  177.5730  142.2400 O   0  0  0  0  0  0  0  0  0  0  0  0
  187.6120  178.5760  140.8750 C   0  0  0  0  0  1  0  0  0  0  0  0
  185.3840  179.3920  140.8600 O   0  0  0  0  0  0  0  0  0  0  0  0
  186.1940  178.5440  141.3170 C   0  0  0  0  0  0  0  0  0  0  0  0
  189.8240  178.7130  144.0360 C   0  0  0  0  0  2  0  0  0  0  0  0
  190.9540  178.5180  143.0400 C   0  0  0  0  0  2  0  0  0  0  0  0
  190.9480  177.0850  142.5460 C   0  0  0  0  0  2  0  0  0  0  0  0
  190.5130  177.0370  141.1600 N   0  0  0  0  0  2  0  0  0  0  0  0
  191.3860  177.3220  140.0660 C   0  0  0  0  0  0  0  0  0  0  0  0
  192.6150  177.5150  140.2700 O   0  0  0  0  0  0  0  0  0  0  0  0
  190.8590  177.3750  138.7750 O   0  0  0  0  0  0  0  0  0  0  0  0
  190.9140  174.6720  138.1400 O   0  0  0  0  0  1  0  0  0  0  0  0
  192.7540  176.3330  137.2860 O   0  0  0  0  0  0  0  0  0  0  0  0
  191.2710  176.2260  137.5660 P   0  0  2  0  0  0  0  0  0  0  0  0
  190.3770  176.5780  136.1560 O   0  0  0  0  0  0  0  0  0  0  0  0
  188.2720  176.4330  137.9830 O   0  0  0  0  0  1  0  0  0  0  0  0
  188.8890  177.2520  136.6350 P   0  0  0  0  0  0  0  0  0  0  0  0
  189.1420  178.8710  137.0580 O   0  0  0  0  0  1  0  0  0  0  0  0
  187.8860  177.1990  135.5030 O   0  0  0  0  0  0  0  0  0  0  0  0
  183.3570  178.5600  145.2580 C   0  0  0  0  0  2  0  0  0  0  0  0
  181.5050  179.0740  143.8140 N   0  0  0  0  0  0  0  0  0  0  0  0
  182.7840  178.9460  143.9390 C   0  0  0  0  0  3  0  0  0  0  0  0
  180.1180  180.4420  142.5110 O   0  0  0  0  0  0  0  0  0  0  0  0
  180.8820  179.4410  142.5800 C   0  0  0  0  0  0  0  0  0  0  0  0
  181.1730  178.6410  141.3520 C   0  0  0  0  0  2  0  0  0  0  0  0
  178.9310  177.8260  141.5080 O   0  0  0  0  0  1  0  0  0  0  0  0
  179.3910  179.3700  139.8590 O   0  0  0  0  0  0  0  0  0  0  0  0
  179.8990  178.2520  140.5970 C   0  0  1  0  0  0  0  0  0  0  0  0
  180.4180  181.1320  135.9590 N   0  0  0  0  0  0  0  0  0  0  0  0
  180.2260  177.0960  139.6470 C   0  0  0  0  0  2  0  0  0  0  0  0
  180.5490  179.8840  135.6300 C   0  0  0  0  0  3  0  0  0  0  0  0
  180.9980  177.5450  138.5290 O   0  0  0  0  0  0  0  0  0  0  0  0
  180.7610  181.6810  137.2600 C   0  0  0  0  0  2  0  0  0  0  0  0
  180.6870  178.7360  137.8700 C   0  0  0  0  0  0  0  0  0  0  0  0
  179.9540  181.0720  138.3550 C   0  0  0  0  0  3  0  0  0  0  0  0
  180.9340  178.8010  136.5560 C   0  0  0  0  0  3  0  0  0  0  0  0
  179.9820  179.7750  138.6600 C   0  0  0  0  0  0  0  0  0  0  0  0
  1 10  2  0  0  0  0
  1 13  1  0  0  0  0
  2 16  1  6  0  0  0
  2  9  1  0  0  0  0
  2  6  1  0  0  0  0
  3 15  1  0  0  0  0
  4 15  2  0  0  0  0
  6 14  1  0  0  0  0
  7 12  2  0  0  0  0
  8 35  1  6  0  0  0
  8  7  1  0  0  0  0
  9  5  1  1  0  0  0
  9  8  1  0  0  0  0
 10  4  1  0  0  0  0
 11  6  2  0  0  0  0
 13  3  2  0  0  0  0
 14 13  1  0  0  0  0
 14 12  1  0  0  0  0
 17 19  1  0  0  0  0
 18 19  2  0  0  0  0
 19 16  1  0  0  0  0
 20  1  1  0  0  0  0
 21 20  1  0  0  0  0
 22 21  1  0  0  0  0
 23 22  1  0  0  0  0
 24 25  2  0  0  0  0
 24 23  1  0  0  0  0
 26 24  1  0  0  0  0
 29 28  2  6  0  0  0
 29 27  1  0  0  0  0
 29 26  1  0  0  0  0
 30 32  1  0  0  0  0
 30 29  1  0  0  0  0
 32 33  1  0  0  0  0
 32 31  1  0  0  0  0
 34 32  2  0  0  0  0
 36 37  2  0  0  0  0
 37 35  1  0  0  0  0
 38 39  2  0  0  0  0
 39 36  1  0  0  0  0
 40 39  1  0  0  0  0
 42 43  1  0  0  0  0
 43 40  1  0  0  0  0
 43 41  1  1  0  0  0
 44 48  1  0  0  0  0
 45 43  1  0  0  0  0
 46 44  2  0  0  0  0
 46 51  1  0  0  0  0
 47 45  1  0  0  0  0
 48 50  1  0  0  0  0
 49 47  1  0  0  0  0
 49 52  1  0  0  0  0
 50 52  2  0  0  0  0
 51 49  2  0  0  0  0
 52 42  1  0  0  0  0
M  END
>  <MODEL>
3

>  <REMARK>
 VINA RESULT:      -7.1      3.045      8.287
  Name = 
  15 active torsions:
  status: ('A' for Active; 'I' for Inactive)
    1  A    between atoms: C_1  and  C_22
    2  A    between atoms: C_2  and  O_13
    3  A    between atoms: C_6  and  C_45
    4  A    between atoms: N_11  and  C_21
    5  A    between atoms: O_12  and  P_18
    6  A    between atoms: O_12  and  P_31
    7  A    between atoms: O_13  and  C_49
    8  A    between atoms: C_16  and  O_34
    9  A    between atoms: C_21  and  C_25
   10  A    between atoms: C_22  and  C_25
   11  A    between atoms: N_29  and  C_41
   12  A    between atoms: C_30  and  C_44
   13  A    between atoms: P_31  and  O_34
   14  A    between atoms: C_41  and  C_45
   15  A    between atoms: C_44  and  C_52
                            x       y       z     vdW  Elec       q    Type
                         _______ _______ _______ _____ _____    ______ ____

>  <TORSDO>
F 15

$$$$
=
 OpenBabel11032421173D

 52 55  0  0  1  0  0  0  0  0999 V2000
  192.0210  176.4420  137.6140 C   0  0  0  0  0  0  0  0  0  0  0  0
  188.0310  174.9210  136.3730 C   0  0  1  0  0  3  0  0  0  0  0  0
  190.9470  177.1200  139.6370 N   0  0  0  0  0  0  0  0  0  0  0  0
  193.2980  177.1050  139.5220 N   0  0  0  0  0  0  0  0  0  0  0  0
  188.8430  176.7100  134.9380 O   0  0  0  0  0  1  0  0  0  0  0  0
  189.2140  175.1450  137.2690 C   0  0  0  0  0  0  0  0  0  0  0  0
  187.3900  177.6950  137.4750 C   0  0  0  0  0  3  0  0  0  0  0  0
  186.8350  177.1280  136.1890 C   0  0  1  0  0  3  0  0  0  0  0  0
  187.7000  176.1060  135.4690 C   0  0  2  0  0  3  0  0  0  0  0  0
  193.2510  176.6720  138.2360 C   0  0  0  0  0  3  0  0  0  0  0  0
  189.9040  174.1480  137.6260 O   0  0  0  0  0  0  0  0  0  0  0  0
  188.5290  177.4270  138.1260 C   0  0  0  0  0  3  0  0  0  0  0  0
  190.8430  176.6770  138.3520 C   0  0  0  0  0  0  0  0  0  0  0  0
  189.5380  176.4560  137.7850 N   0  0  0  0  0  0  0  0  0  0  0  0
  192.1560  177.3320  140.2190 C   0  0  0  0  0  3  0  0  0  0  0  0
  188.1020  173.6920  135.6420 O   0  0  0  0  0  0  0  0  0  0  0  0
  185.7700  172.8320  135.4930 C   0  0  0  0  0  1  0  0  0  0  0  0
  187.6050  171.4900  136.1710 O   0  0  0  0  0  0  0  0  0  0  0  0
  187.2110  172.6220  135.7880 C   0  0  0  0  0  0  0  0  0  0  0  0
  191.9920  176.0140  136.1820 C   0  0  0  0  0  2  0  0  0  0  0  0
  193.3110  175.3730  135.7900 C   0  0  0  0  0  2  0  0  0  0  0  0
  193.1190  173.8770  135.6440 C   0  0  0  0  0  2  0  0  0  0  0  0
  194.3450  173.2620  135.1600 N   0  0  0  0  0  2  0  0  0  0  0  0
  194.8430  172.0250  135.6710 C   0  0  0  0  0  0  0  0  0  0  0  0
  194.1580  171.3580  136.4930 O   0  0  0  0  0  0  0  0  0  0  0  0
  196.0890  171.5670  135.2410 O   0  0  0  0  0  0  0  0  0  0  0  0
  198.7260  170.8180  135.6870 O   0  0  0  0  0  0  0  0  0  0  0  0
  197.2890  171.9980  137.5360 O   0  0  0  0  0  1  0  0  0  0  0  0
  197.5490  171.9840  136.0450 P   0  0  2  0  0  0  0  0  0  0  0  0
  198.0370  173.5300  135.5160 O   0  0  0  0  0  0  0  0  0  0  0  0
  199.0600  174.6690  137.8500 O   0  0  0  0  0  1  0  0  0  0  0  0
  197.7460  174.6320  136.7810 P   0  0  0  0  0  0  0  0  0  0  0  0
  197.5490  176.1750  136.1170 O   0  0  0  0  0  0  0  0  0  0  0  0
  196.4860  174.2640  137.5340 O   0  0  0  0  0  1  0  0  0  0  0  0
  185.4360  176.5720  136.4070 C   0  0  0  0  0  2  0  0  0  0  0  0
  183.8290  177.6070  137.8660 N   0  0  0  0  0  0  0  0  0  0  0  0
  184.9230  176.9260  137.7590 C   0  0  0  0  0  3  0  0  0  0  0  0
  182.1150  178.4700  139.2090 O   0  0  0  0  0  0  0  0  0  0  0  0
  183.2760  177.9850  139.1290 C   0  0  0  0  0  0  0  0  0  0  0  0
  184.0790  177.7680  140.3700 C   0  0  0  0  0  2  0  0  0  0  0  0
  184.9350  179.8880  139.6740 O   0  0  0  0  0  1  0  0  0  0  0  0
  184.3420  179.6540  141.8890 O   0  0  0  0  0  0  0  0  0  0  0  0
  184.9080  178.9980  140.7490 C   0  0  1  0  0  0  0  0  0  0  0  0
  184.5870  178.9270  146.2240 N   0  0  0  0  0  0  0  0  0  0  0  0
  186.3400  178.5480  141.0550 C   0  0  0  0  0  2  0  0  0  0  0  0
  185.8180  178.6490  145.9260 C   0  0  0  0  0  3  0  0  0  0  0  0
  186.4120  177.8600  142.3060 O   0  0  0  0  0  0  0  0  0  0  0  0
  183.4480  178.6300  145.3720 C   0  0  0  0  0  2  0  0  0  0  0  0
  185.7240  178.3280  143.4280 C   0  0  0  0  0  0  0  0  0  0  0  0
  183.5290  179.3350  144.0610 C   0  0  0  0  0  3  0  0  0  0  0  0
  186.2760  178.1160  144.6290 C   0  0  0  0  0  3  0  0  0  0  0  0
  184.5080  179.1410  143.1770 C   0  0  0  0  0  0  0  0  0  0  0  0
  1 10  2  0  0  0  0
  1 13  1  0  0  0  0
  2 16  1  6  0  0  0
  2  6  1  0  0  0  0
  3 15  1  0  0  0  0
  4 15  2  0  0  0  0
  6 11  2  0  0  0  0
  6 14  1  0  0  0  0
  7 12  2  0  0  0  0
  8 35  1  1  0  0  0
  8  7  1  0  0  0  0
  9  5  1  1  0  0  0
  9  8  1  0  0  0  0
  9  2  1  0  0  0  0
 10  4  1  0  0  0  0
 13  3  2  0  0  0  0
 14 12  1  0  0  0  0
 14 13  1  0  0  0  0
 16 19  1  0  0  0  0
 17 19  1  0  0  0  0
 19 18  2  0  0  0  0
 20  1  1  0  0  0  0
 21 20  1  0  0  0  0
 22 21  1  0  0  0  0
 23 22  1  0  0  0  0
 23 24  1  0  0  0  0
 24 25  2  0  0  0  0
 26 24  1  0  0  0  0
 26 29  1  0  0  0  0
 29 27  2  6  0  0  0
 29 28  1  0  0  0  0
 30 29  1  0  0  0  0
 30 32  1  0  0  0  0
 32 34  1  0  0  0  0
 32 31  1  0  0  0  0
 33 32  2  0  0  0  0
 35 37  1  0  0  0  0
 36 39  1  0  0  0  0
 37 36  2  0  0  0  0
 39 38  2  0  0  0  0
 39 40  1  0  0  0  0
 40 43  1  0  0  0  0
 42 52  1  0  0  0  0
 43 41  1  6  0  0  0
 43 45  1  0  0  0  0
 43 42  1  0  0  0  0
 45 47  1  0  0  0  0
 46 44  2  0  0  0  0
 47 49  1  0  0  0  0
 48 44  1  0  0  0  0
 49 51  2  0  0  0  0
 50 48  1  0  0  0  0
 51 46  1  0  0  0  0
 52 49  1  0  0  0  0
 52 50  2  0  0  0  0
M  END
>  <MODEL>
4

>  <REMARK>
 VINA RESULT:      -7.1      3.589      7.514
  Name = 
  15 active torsions:
  status: ('A' for Active; 'I' for Inactive)
    1  A    between atoms: C_1  and  C_22
    2  A    between atoms: C_2  and  O_13
    3  A    between atoms: C_6  and  C_45
    4  A    between atoms: N_11  and  C_21
    5  A    between atoms: O_12  and  P_18
    6  A    between atoms: O_12  and  P_31
    7  A    between atoms: O_13  and  C_49
    8  A    between atoms: C_16  and  O_34
    9  A    between atoms: C_21  and  C_25
   10  A    between atoms: C_22  and  C_25
   11  A    between atoms: N_29  and  C_41
   12  A    between atoms: C_30  and  C_44
   13  A    between atoms: P_31  and  O_34
   14  A    between atoms: C_41  and  C_45
   15  A    between atoms: C_44  and  C_52
                            x       y       z     vdW  Elec       q    Type
                         _______ _______ _______ _____ _____    ______ ____

>  <TORSDO>
F 15

$$$$
=
 OpenBabel11032421173D

 52 55  0  0  1  0  0  0  0  0999 V2000
  189.8580  177.9010  144.9620 C   0  0  0  0  0  0  0  0  0  0  0  0
  185.6730  177.7210  143.4680 C   0  0  1  0  0  3  0  0  0  0  0  0
  189.0370  176.7720  146.9020 N   0  0  0  0  0  0  0  0  0  0  0  0
  191.3580  176.9270  146.5470 N   0  0  0  0  0  0  0  0  0  0  0  0
  186.4550  180.0000  143.8040 O   0  0  0  0  0  1  0  0  0  0  0  0
  186.9510  177.2260  144.0800 C   0  0  0  0  0  0  0  0  0  0  0  0
  185.3280  178.6710  146.3500 C   0  0  0  0  0  3  0  0  0  0  0  0
  184.6130  179.2590  145.1560 C   0  0  1  0  0  3  0  0  0  0  0  0
  185.3330  179.1670  143.8200 C   0  0  2  0  0  3  0  0  0  0  0  0
  191.1560  177.6180  145.3960 C   0  0  0  0  0  3  0  0  0  0  0  0
  187.6060  176.3290  143.4780 O   0  0  0  0  0  0  0  0  0  0  0  0
  186.5060  178.0390  146.4360 C   0  0  0  0  0  3  0  0  0  0  0  0
  188.7770  177.4550  145.7500 C   0  0  0  0  0  0  0  0  0  0  0  0
  187.4100  177.6990  145.3660 N   0  0  0  0  0  0  0  0  0  0  0  0
  190.3080  176.5080  147.2980 C   0  0  0  0  0  3  0  0  0  0  0  0
  185.5900  177.4770  142.0600 O   0  0  0  0  0  0  0  0  0  0  0  0
  184.5020  179.0220  140.4390 C   0  0  0  0  0  1  0  0  0  0  0  0
  186.8550  178.8640  140.6990 O   0  0  0  0  0  0  0  0  0  0  0  0
  185.7230  178.4580  141.0700 C   0  0  0  0  0  0  0  0  0  0  0  0
  189.6590  178.7060  143.7200 C   0  0  0  0  0  2  0  0  0  0  0  0
  190.5810  178.2210  142.6150 C   0  0  0  0  0  2  0  0  0  0  0  0
  189.7500  177.7470  141.4390 C   0  0  0  0  0  2  0  0  0  0  0  0
  190.4580  176.6990  140.7200 N   0  0  0  0  0  2  0  0  0  0  0  0
  190.4980  176.6330  139.2940 C   0  0  0  0  0  0  0  0  0  0  0  0
  190.0060  177.5670  138.6030 O   0  0  0  0  0  0  0  0  0  0  0  0
  191.0920  175.5290  138.6830 O   0  0  0  0  0  0  0  0  0  0  0  0
  193.5050  176.8700  138.3760 O   0  0  0  0  0  1  0  0  0  0  0  0
  192.1050  176.0490  136.3160 O   0  0  0  0  0  0  0  0  0  0  0  0
  192.5110  175.6630  137.7220 P   0  0  2  0  0  0  0  0  0  0  0  0
  193.3050  174.1530  137.7140 O   0  0  0  0  0  0  0  0  0  0  0  0
  195.3680  175.6390  136.5610 O   0  0  0  0  0  0  0  0  0  0  0  0
  194.9830  174.4450  137.6990 P   0  0  0  0  0  0  0  0  0  0  0  0
  195.4490  174.9920  139.2310 O   0  0  0  0  0  1  0  0  0  0  0  0
  195.7460  173.1760  137.3860 O   0  0  0  0  0  1  0  0  0  0  0  0
  183.2080  178.6860  145.0360 C   0  0  0  0  0  2  0  0  0  0  0  0
  181.3610  178.8680  143.5080 N   0  0  0  0  0  0  0  0  0  0  0  0
  182.4170  179.4180  144.0100 C   0  0  0  0  0  3  0  0  0  0  0  0
  179.5720  180.2310  142.8510 O   0  0  0  0  0  0  0  0  0  0  0  0
  180.5510  179.5090  142.5200 C   0  0  0  0  0  0  0  0  0  0  0  0
  180.8980  179.3430  141.0760 C   0  0  0  0  0  2  0  0  0  0  0  0
  179.0690  177.8170  141.2760 O   0  0  0  0  0  1  0  0  0  0  0  0
  179.4630  178.7420  139.2010 O   0  0  0  0  0  0  0  0  0  0  0  0
  180.0680  178.2470  140.4020 C   0  0  1  0  0  0  0  0  0  0  0  0
  180.9260  179.2990  135.0870 N   0  0  0  0  0  0  0  0  0  0  0  0
  180.9870  177.0640  140.0810 C   0  0  0  0  0  2  0  0  0  0  0  0
  181.5230  178.1760  135.3380 C   0  0  0  0  0  3  0  0  0  0  0  0
  181.8580  177.3650  138.9870 O   0  0  0  0  0  0  0  0  0  0  0  0
  180.7080  180.3520  136.0650 C   0  0  0  0  0  2  0  0  0  0  0  0
  181.3870  178.0280  137.8510 C   0  0  0  0  0  0  0  0  0  0  0  0
  179.8610  179.8930  137.2030 C   0  0  0  0  0  3  0  0  0  0  0  0
  181.9550  177.7270  136.6770 C   0  0  0  0  0  3  0  0  0  0  0  0
  180.2050  178.9060  138.0300 C   0  0  0  0  0  0  0  0  0  0  0  0
  1 10  2  0  0  0  0
  1 13  1  0  0  0  0
  2 16  1  6  0  0  0
  2  9  1  0  0  0  0
  2  6  1  0  0  0  0
  3 15  1  0  0  0  0
  4 15  2  0  0  0  0
  6 14  1  0  0  0  0
  7 12  2  0  0  0  0
  8 35  1  6  0  0  0
  8  7  1  0  0  0  0
  9  5  1  1  0  0  0
  9  8  1  0  0  0  0
 10  4  1  0  0  0  0
 11  6  2  0  0  0  0
 13  3  2  0  0  0  0
 14 13  1  0  0  0  0
 14 12  1  0  0  0  0
 17 19  1  0  0  0  0
 18 19  2  0  0  0  0
 19 16  1  0  0  0  0
 20  1  1  0  0  0  0
 21 20  1  0  0  0  0
 22 21  1  0  0  0  0
 23 22  1  0  0  0  0
 24 23  1  0  0  0  0
 25 24  2  0  0  0  0
 26 24  1  0  0  0  0
 29 28  2  6  0  0  0
 29 27  1  0  0  0  0
 29 26  1  0  0  0  0
 30 29  1  0  0  0  0
 31 32  2  0  0  0  0
 32 30  1  0  0  0  0
 32 33  1  0  0  0  0
 34 32  1  0  0  0  0
 36 37  2  0  0  0  0
 37 35  1  0  0  0  0
 39 38  2  0  0  0  0
 39 36  1  0  0  0  0
 40 39  1  0  0  0  0
 42 43  1  0  0  0  0
 43 40  1  0  0  0  0
 43 41  1  1  0  0  0
 44 46  2  0  0  0  0
 44 48  1  0  0  0  0
 45 43  1  0  0  0  0
 46 51  1  0  0  0  0
 47 45  1  0  0  0  0
 48 50  1  0  0  0  0
 49 52  1  0  0  0  0
 49 47  1  0  0  0  0
 50 52  2  0  0  0  0
 51 49  2  0  0  0  0
 52 42  1  0  0  0  0
M  END
>  <MODEL>
5

>  <REMARK>
 VINA RESULT:      -7.0      2.612      7.888
  Name = 
  15 active torsions:
  status: ('A' for Active; 'I' for Inactive)
    1  A    between atoms: C_1  and  C_22
    2  A    between atoms: C_2  and  O_13
    3  A    between atoms: C_6  and  C_45
    4  A    between atoms: N_11  and  C_21
    5  A    between atoms: O_12  and  P_18
    6  A    between atoms: O_12  and  P_31
    7  A    between atoms: O_13  and  C_49
    8  A    between atoms: C_16  and  O_34
    9  A    between atoms: C_21  and  C_25
   10  A    between atoms: C_22  and  C_25
   11  A    between atoms: N_29  and  C_41
   12  A    between atoms: C_30  and  C_44
   13  A    between atoms: P_31  and  O_34
   14  A    between atoms: C_41  and  C_45
   15  A    between atoms: C_44  and  C_52
                            x       y       z     vdW  Elec       q    Type
                         _______ _______ _______ _____ _____    ______ ____

>  <TORSDO>
F 15

$$$$
=
 OpenBabel11032421173D

 52 55  0  0  1  0  0  0  0  0999 V2000
  190.1640  177.7800  145.1490 C   0  0  0  0  0  0  0  0  0  0  0  0
  185.9700  177.6820  143.6750 C   0  0  1  0  0  3  0  0  0  0  0  0
  189.3490  176.5780  147.0460 N   0  0  0  0  0  0  0  0  0  0  0  0
  191.6690  176.7350  146.6840 N   0  0  0  0  0  0  0  0  0  0  0  0
  186.7650  179.9420  144.0990 O   0  0  0  0  0  1  0  0  0  0  0  0
  187.2490  177.1560  144.2590 C   0  0  0  0  0  0  0  0  0  0  0  0
  185.6470  178.5160  146.5950 C   0  0  0  0  0  3  0  0  0  0  0  0
  184.9280  179.1550  145.4310 C   0  0  1  0  0  3  0  0  0  0  0  0
  185.6400  179.1140  144.0870 C   0  0  2  0  0  3  0  0  0  0  0  0
  191.4630  177.4730  145.5630 C   0  0  0  0  0  3  0  0  0  0  0  0
  187.8950  176.2810  143.6160 O   0  0  0  0  0  0  0  0  0  0  0  0
  186.8220  177.8750  146.6490 C   0  0  0  0  0  3  0  0  0  0  0  0
  189.0860  177.3080  145.9250 C   0  0  0  0  0  0  0  0  0  0  0  0
  187.7180  177.5740  145.5600 N   0  0  0  0  0  0  0  0  0  0  0  0
  190.6220  176.2910  147.4240 C   0  0  0  0  0  3  0  0  0  0  0  0
  185.8780  177.4960  142.2590 O   0  0  0  0  0  0  0  0  0  0  0  0
  187.5880  178.6460  140.8610 C   0  0  0  0  0  1  0  0  0  0  0  0
  185.2840  179.2120  140.8170 O   0  0  0  0  0  0  0  0  0  0  0  0
  186.1800  178.4730  141.3030 C   0  0  0  0  0  0  0  0  0  0  0  0
  189.9620  178.6360  143.9420 C   0  0  0  0  0  2  0  0  0  0  0  0
  191.1090  178.4580  142.9620 C   0  0  0  0  0  2  0  0  0  0  0  0
  191.0080  177.0910  142.3150 C   0  0  0  0  0  2  0  0  0  0  0  0
  190.3300  177.1960  141.0330 N   0  0  0  0  0  2  0  0  0  0  0  0
  191.0290  177.3950  139.8030 C   0  0  0  0  0  0  0  0  0  0  0  0
  192.2890  177.3710  139.7810 O   0  0  0  0  0  0  0  0  0  0  0  0
  190.2960  177.6090  138.6350 O   0  0  0  0  0  0  0  0  0  0  0  0
  190.5630  174.8910  138.1280 O   0  0  0  0  0  1  0  0  0  0  0  0
  190.3170  176.6440  136.1930 O   0  0  0  0  0  0  0  0  0  0  0  0
  189.8340  176.3240  137.5910 P   0  0  2  0  0  0  0  0  0  0  0  0
  188.1340  176.1920  137.6140 O   0  0  0  0  0  0  0  0  0  0  0  0
  187.1670  177.5360  135.3660 O   0  0  0  0  0  0  0  0  0  0  0  0
  187.4880  177.6540  137.0250 P   0  0  0  0  0  0  0  0  0  0  0  0
  186.0350  177.9650  137.8330 O   0  0  0  0  0  1  0  0  0  0  0  0
  188.4400  178.8030  137.2800 O   0  0  0  0  0  1  0  0  0  0  0  0
  183.5200  178.5940  145.2960 C   0  0  0  0  0  2  0  0  0  0  0  0
  181.5860  179.1400  143.9760 N   0  0  0  0  0  0  0  0  0  0  0  0
  182.8740  179.0630  144.0390 C   0  0  0  0  0  3  0  0  0  0  0  0
  180.0620  180.5250  142.8590 O   0  0  0  0  0  0  0  0  0  0  0  0
  180.8950  179.5810  142.8050 C   0  0  0  0  0  0  0  0  0  0  0  0
  181.1950  178.9290  141.4940 C   0  0  0  0  0  2  0  0  0  0  0  0
  179.3860  180.0590  140.4170 O   0  0  0  0  0  1  0  0  0  0  0  0
  180.2940  178.2350  139.3400 O   0  0  0  0  0  0  0  0  0  0  0  0
  179.9510  178.7990  140.6110 C   0  0  1  0  0  0  0  0  0  0  0  0
  180.9560  174.1140  137.9410 N   0  0  0  0  0  0  0  0  0  0  0  0
  178.9340  177.9050  141.3280 C   0  0  0  0  0  2  0  0  0  0  0  0
  179.9610  173.8750  138.7370 C   0  0  0  0  0  3  0  0  0  0  0  0
  179.3420  176.5350  141.3100 O   0  0  0  0  0  0  0  0  0  0  0  0
  181.9880  175.1070  138.1900 C   0  0  0  0  0  2  0  0  0  0  0  0
  179.8760  175.9560  140.1560 C   0  0  0  0  0  0  0  0  0  0  0  0
  181.4290  176.4860  138.2760 C   0  0  0  0  0  3  0  0  0  0  0  0
  179.6380  174.6550  139.9470 C   0  0  0  0  0  3  0  0  0  0  0  0
  180.5440  176.8680  139.1960 C   0  0  0  0  0  0  0  0  0  0  0  0
  1 10  2  0  0  0  0
  1 13  1  0  0  0  0
  2 16  1  6  0  0  0
  2  9  1  0  0  0  0
  2  6  1  0  0  0  0
  3 15  1  0  0  0  0
  4 15  2  0  0  0  0
  6 14  1  0  0  0  0
  7 12  2  0  0  0  0
  8 35  1  6  0  0  0
  8  7  1  0  0  0  0
  9  5  1  1  0  0  0
  9  8  1  0  0  0  0
 10  4  1  0  0  0  0
 11  6  2  0  0  0  0
 13  3  2  0  0  0  0
 14 13  1  0  0  0  0
 14 12  1  0  0  0  0
 17 19  1  0  0  0  0
 18 19  2  0  0  0  0
 19 16  1  0  0  0  0
 20  1  1  0  0  0  0
 21 20  1  0  0  0  0
 22 21  1  0  0  0  0
 23 22  1  0  0  0  0
 24 23  1  0  0  0  0
 25 24  2  0  0  0  0
 26 24  1  0  0  0  0
 29 28  2  6  0  0  0
 29 30  1  0  0  0  0
 29 27  1  0  0  0  0
 29 26  1  0  0  0  0
 31 32  2  0  0  0  0
 32 34  1  0  0  0  0
 32 30  1  0  0  0  0
 32 33  1  0  0  0  0
 36 37  2  0  0  0  0
 37 35  1  0  0  0  0
 39 38  2  0  0  0  0
 39 36  1  0  0  0  0
 40 39  1  0  0  0  0
 42 43  1  0  0  0  0
 43 41  1  6  0  0  0
 43 45  1  0  0  0  0
 43 40  1  0  0  0  0
 44 48  1  0  0  0  0
 44 46  2  0  0  0  0
 46 51  1  0  0  0  0
 47 45  1  0  0  0  0
 48 50  1  0  0  0  0
 49 47  1  0  0  0  0
 50 52  2  0  0  0  0
 51 49  2  0  0  0  0
 52 42  1  0  0  0  0
 52 49  1  0  0  0  0
M  END
>  <MODEL>
6

>  <REMARK>
 VINA RESULT:      -6.9      2.667      8.164
  Name = 
  15 active torsions:
  status: ('A' for Active; 'I' for Inactive)
    1  A    between atoms: C_1  and  C_22
    2  A    between atoms: C_2  and  O_13
    3  A    between atoms: C_6  and  C_45
    4  A    between atoms: N_11  and  C_21
    5  A    between atoms: O_12  and  P_18
    6  A    between atoms: O_12  and  P_31
    7  A    between atoms: O_13  and  C_49
    8  A    between atoms: C_16  and  O_34
    9  A    between atoms: C_21  and  C_25
   10  A    between atoms: C_22  and  C_25
   11  A    between atoms: N_29  and  C_41
   12  A    between atoms: C_30  and  C_44
   13  A    between atoms: P_31  and  O_34
   14  A    between atoms: C_41  and  C_45
   15  A    between atoms: C_44  and  C_52
                            x       y       z     vdW  Elec       q    Type
                         _______ _______ _______ _____ _____    ______ ____

>  <TORSDO>
F 15

$$$$
=
 OpenBabel11032421173D

 52 55  0  0  1  0  0  0  0  0999 V2000
  189.7160  177.8860  145.1330 C   0  0  0  0  0  0  0  0  0  0  0  0
  185.6300  177.8030  143.3790 C   0  0  1  0  0  3  0  0  0  0  0  0
  188.7680  176.6950  146.9740 N   0  0  0  0  0  0  0  0  0  0  0  0
  191.1080  176.8390  146.7690 N   0  0  0  0  0  0  0  0  0  0  0  0
  186.4070  180.0600  143.8480 O   0  0  0  0  0  1  0  0  0  0  0  0
  186.8640  177.2730  144.0490 C   0  0  0  0  0  0  0  0  0  0  0  0
  185.1150  178.6490  146.2680 C   0  0  0  0  0  3  0  0  0  0  0  0
  184.4790  179.2870  145.0550 C   0  0  1  0  0  3  0  0  0  0  0  0
  185.2800  179.2390  143.7630 C   0  0  2  0  0  3  0  0  0  0  0  0
  190.9820  177.5750  145.6350 C   0  0  0  0  0  3  0  0  0  0  0  0
  187.5480  176.3930  143.4550 O   0  0  0  0  0  0  0  0  0  0  0  0
  186.2800  178.0030  146.4020 C   0  0  0  0  0  3  0  0  0  0  0  0
  188.5850  177.4220  145.8360 C   0  0  0  0  0  0  0  0  0  0  0  0
  187.2460  177.6930  145.3780 N   0  0  0  0  0  0  0  0  0  0  0  0
  190.0110  176.4030  147.4380 C   0  0  0  0  0  3  0  0  0  0  0  0
  185.6330  177.6130  141.9600 O   0  0  0  0  0  0  0  0  0  0  0  0
  187.4740  178.6160  140.6170 C   0  0  0  0  0  1  0  0  0  0  0  0
  185.2340  179.3950  140.5320 O   0  0  0  0  0  0  0  0  0  0  0  0
  186.0460  178.5700  141.0260 C   0  0  0  0  0  0  0  0  0  0  0  0
  189.6000  178.7390  143.9120 C   0  0  0  0  0  2  0  0  0  0  0  0
  190.8170  178.5630  143.0210 C   0  0  0  0  0  2  0  0  0  0  0  0
  190.8550  177.1410  142.4970 C   0  0  0  0  0  2  0  0  0  0  0  0
  190.3640  177.1010  141.1290 N   0  0  0  0  0  2  0  0  0  0  0  0
  191.2070  177.3220  139.9980 C   0  0  0  0  0  0  0  0  0  0  0  0
  192.4530  177.4470  140.1520 O   0  0  0  0  0  0  0  0  0  0  0  0
  190.6340  177.3880  138.7280 O   0  0  0  0  0  0  0  0  0  0  0  0
  190.6660  174.7150  137.9730 O   0  0  0  0  0  1  0  0  0  0  0  0
  192.5370  176.3910  137.2180 O   0  0  0  0  0  0  0  0  0  0  0  0
  191.0480  176.2890  137.4730 P   0  0  2  0  0  0  0  0  0  0  0  0
  190.1780  176.7150  136.0700 O   0  0  0  0  0  0  0  0  0  0  0  0
  189.0290  179.0750  137.0210 O   0  0  0  0  0  1  0  0  0  0  0  0
  188.7330  177.4720  136.5600 P   0  0  0  0  0  0  0  0  0  0  0  0
  187.6580  177.4770  135.2540 O   0  0  0  0  0  0  0  0  0  0  0  0
  188.0960  176.7210  137.7090 O   0  0  0  0  0  1  0  0  0  0  0  0
  183.0800  178.7330  144.8270 C   0  0  0  0  0  2  0  0  0  0  0  0
  181.3620  179.0730  143.1810 N   0  0  0  0  0  0  0  0  0  0  0  0
  182.6260  178.9820  143.4320 C   0  0  0  0  0  3  0  0  0  0  0  0
  179.8830  180.0970  141.6800 O   0  0  0  0  0  0  0  0  0  0  0  0
  180.8500  179.3100  141.8670 C   0  0  0  0  0  0  0  0  0  0  0  0
  181.4980  178.6380  140.7010 C   0  0  0  0  0  2  0  0  0  0  0  0
  181.1170  180.7880  139.7290 O   0  0  0  0  0  1  0  0  0  0  0  0
  182.5590  179.3630  138.6310 O   0  0  0  0  0  0  0  0  0  0  0  0
  181.3600  179.4520  139.4110 C   0  0  1  0  0  0  0  0  0  0  0  0
  184.1250  176.3520  135.8290 N   0  0  0  0  0  0  0  0  0  0  0  0
  180.1700  178.9080  138.6140 C   0  0  0  0  0  2  0  0  0  0  0  0
  182.8770  176.2870  135.4820 C   0  0  0  0  0  3  0  0  0  0  0  0
  180.4740  177.6400  138.0260 O   0  0  0  0  0  0  0  0  0  0  0  0
  184.5900  176.5770  137.1870 C   0  0  0  0  0  2  0  0  0  0  0  0
  181.7070  177.4070  137.4130 C   0  0  0  0  0  0  0  0  0  0  0  0
  184.1360  177.8910  137.7240 C   0  0  0  0  0  3  0  0  0  0  0  0
  181.7340  176.5640  136.3740 C   0  0  0  0  0  3  0  0  0  0  0  0
  182.8540  178.2210  137.8840 C   0  0  0  0  0  0  0  0  0  0  0  0
  1 10  2  0  0  0  0
  1 13  1  0  0  0  0
  2 16  1  6  0  0  0
  2  9  1  0  0  0  0
  2  6  1  0  0  0  0
  3 15  1  0  0  0  0
  4 15  2  0  0  0  0
  6 14  1  0  0  0  0
  7 12  2  0  0  0  0
  8 35  1  6  0  0  0
  8  7  1  0  0  0  0
  9  5  1  1  0  0  0
  9  8  1  0  0  0  0
 10  4  1  0  0  0  0
 11  6  2  0  0  0  0
 13  3  2  0  0  0  0
 14 13  1  0  0  0  0
 14 12  1  0  0  0  0
 17 19  1  0  0  0  0
 18 19  2  0  0  0  0
 19 16  1  0  0  0  0
 20  1  1  0  0  0  0
 21 20  1  0  0  0  0
 22 21  1  0  0  0  0
 23 22  1  0  0  0  0
 24 25  2  0  0  0  0
 24 23  1  0  0  0  0
 26 24  1  0  0  0  0
 29 28  2  6  0  0  0
 29 27  1  0  0  0  0
 29 26  1  0  0  0  0
 30 32  1  0  0  0  0
 30 29  1  0  0  0  0
 32 31  1  0  0  0  0
 32 34  1  0  0  0  0
 33 32  2  0  0  0  0
 36 37  2  0  0  0  0
 37 35  1  0  0  0  0
 38 39  2  0  0  0  0
 39 36  1  0  0  0  0
 40 39  1  0  0  0  0
 42 43  1  0  0  0  0
 43 41  1  1  0  0  0
 43 40  1  0  0  0  0
 44 48  1  0  0  0  0
 45 43  1  0  0  0  0
 46 44  2  0  0  0  0
 46 51  1  0  0  0  0
 47 45  1  0  0  0  0
 48 50  1  0  0  0  0
 49 52  1  0  0  0  0
 49 47  1  0  0  0  0
 50 52  2  0  0  0  0
 51 49  2  0  0  0  0
 52 42  1  0  0  0  0
M  END
>  <MODEL>
7

>  <REMARK>
 VINA RESULT:      -6.8      2.145      7.819
  Name = 
  15 active torsions:
  status: ('A' for Active; 'I' for Inactive)
    1  A    between atoms: C_1  and  C_22
    2  A    between atoms: C_2  and  O_13
    3  A    between atoms: C_6  and  C_45
    4  A    between atoms: N_11  and  C_21
    5  A    between atoms: O_12  and  P_18
    6  A    between atoms: O_12  and  P_31
    7  A    between atoms: O_13  and  C_49
    8  A    between atoms: C_16  and  O_34
    9  A    between atoms: C_21  and  C_25
   10  A    between atoms: C_22  and  C_25
   11  A    between atoms: N_29  and  C_41
   12  A    between atoms: C_30  and  C_44
   13  A    between atoms: P_31  and  O_34
   14  A    between atoms: C_41  and  C_45
   15  A    between atoms: C_44  and  C_52
                            x       y       z     vdW  Elec       q    Type
                         _______ _______ _______ _____ _____    ______ ____

>  <TORSDO>
F 15

$$$$
=
 OpenBabel11032421173D

 52 55  0  0  1  0  0  0  0  0999 V2000
  189.8600  177.8420  144.7810 C   0  0  0  0  0  0  0  0  0  0  0  0
  185.6230  177.7580  143.4340 C   0  0  1  0  0  3  0  0  0  0  0  0
  189.0770  176.7560  146.7600 N   0  0  0  0  0  0  0  0  0  0  0  0
  191.3880  176.8450  146.3240 N   0  0  0  0  0  0  0  0  0  0  0  0
  186.4740  180.0190  143.7180 O   0  0  0  0  0  1  0  0  0  0  0  0
  186.9080  177.2360  144.0070 C   0  0  0  0  0  0  0  0  0  0  0  0
  185.4020  178.7460  146.3150 C   0  0  0  0  0  3  0  0  0  0  0  0
  184.6620  179.3400  145.1400 C   0  0  1  0  0  3  0  0  0  0  0  0
  185.3330  179.2160  143.7810 C   0  0  2  0  0  3  0  0  0  0  0  0
  191.1640  177.5300  145.1730 C   0  0  0  0  0  3  0  0  0  0  0  0
  187.5180  176.3160  143.3920 O   0  0  0  0  0  0  0  0  0  0  0  0
  186.5660  178.0840  146.3680 C   0  0  0  0  0  3  0  0  0  0  0  0
  188.7950  177.4340  145.6110 C   0  0  0  0  0  0  0  0  0  0  0  0
  187.4230  177.7090  145.2710 N   0  0  0  0  0  0  0  0  0  0  0  0
  190.3550  176.4620  147.1160 C   0  0  0  0  0  3  0  0  0  0  0  0
  185.4850  177.5030  142.0320 O   0  0  0  0  0  0  0  0  0  0  0  0
  186.8910  178.6300  140.3140 C   0  0  0  0  0  1  0  0  0  0  0  0
  184.6280  179.2150  140.7240 O   0  0  0  0  0  0  0  0  0  0  0  0
  185.5980  178.4710  141.0280 C   0  0  0  0  0  0  0  0  0  0  0  0
  189.6390  178.6410  143.5380 C   0  0  0  0  0  2  0  0  0  0  0  0
  190.5800  178.1850  142.4370 C   0  0  0  0  0  2  0  0  0  0  0  0
  189.7720  177.5990  141.2950 C   0  0  0  0  0  2  0  0  0  0  0  0
  190.5720  176.6280  140.5660 N   0  0  0  0  0  2  0  0  0  0  0  0
  190.4060  176.3840  139.1690 C   0  0  0  0  0  0  0  0  0  0  0  0
  189.6230  177.1020  138.4890 O   0  0  0  0  0  0  0  0  0  0  0  0
  191.1260  175.3490  138.5720 O   0  0  0  0  0  0  0  0  0  0  0  0
  193.5210  176.7520  138.6860 O   0  0  0  0  0  1  0  0  0  0  0  0
  192.3820  176.1390  136.4050 O   0  0  0  0  0  0  0  0  0  0  0  0
  192.6390  175.6080  137.7990 P   0  0  2  0  0  0  0  0  0  0  0  0
  193.4700  174.1210  137.7200 O   0  0  0  0  0  0  0  0  0  0  0  0
  196.0350  173.0550  137.4500 O   0  0  0  0  0  1  0  0  0  0  0  0
  195.1390  174.4500  137.7950 P   0  0  0  0  0  0  0  0  0  0  0  0
  195.5090  175.6270  136.6380 O   0  0  0  0  0  0  0  0  0  0  0  0
  195.5220  174.9760  139.1620 O   0  0  0  0  0  1  0  0  0  0  0  0
  183.2390  178.8030  145.0740 C   0  0  0  0  0  2  0  0  0  0  0  0
  181.3220  178.9290  143.6300 N   0  0  0  0  0  0  0  0  0  0  0  0
  182.5680  179.2190  143.8130 C   0  0  0  0  0  3  0  0  0  0  0  0
  179.3910  179.6150  142.4930 O   0  0  0  0  0  0  0  0  0  0  0  0
  180.6100  179.2940  142.4450 C   0  0  0  0  0  0  0  0  0  0  0  0
  181.3360  179.3240  141.1400 C   0  0  0  0  0  2  0  0  0  0  0  0
  179.3350  179.5220  139.8480 O   0  0  0  0  0  1  0  0  0  0  0  0
  181.2320  178.7860  138.7660 O   0  0  0  0  0  0  0  0  0  0  0  0
  180.4930  178.7590  139.9930 C   0  0  1  0  0  0  0  0  0  0  0  0
  184.2750  176.1330  137.0120 N   0  0  0  0  0  0  0  0  0  0  0  0
  180.0980  177.3200  140.3390 C   0  0  0  0  0  2  0  0  0  0  0  0
  183.5160  175.2170  137.5280 C   0  0  0  0  0  3  0  0  0  0  0  0
  181.2150  176.4330  140.2300 O   0  0  0  0  0  0  0  0  0  0  0  0
  184.5210  177.4320  137.6140 C   0  0  0  0  0  2  0  0  0  0  0  0
  182.1050  176.5230  139.1570 C   0  0  0  0  0  0  0  0  0  0  0  0
  183.2700  178.2290  137.7580 C   0  0  0  0  0  3  0  0  0  0  0  0
  182.6760  175.3910  138.7290 C   0  0  0  0  0  3  0  0  0  0  0  0
  182.2310  177.8470  138.5010 C   0  0  0  0  0  0  0  0  0  0  0  0
  1 10  2  0  0  0  0
  1 13  1  0  0  0  0
  2 16  1  6  0  0  0
  2  9  1  0  0  0  0
  2  6  1  0  0  0  0
  3 15  1  0  0  0  0
  4 15  2  0  0  0  0
  6 14  1  0  0  0  0
  7 12  2  0  0  0  0
  8 35  1  6  0  0  0
  8  7  1  0  0  0  0
  9  5  1  1  0  0  0
  9  8  1  0  0  0  0
 10  4  1  0  0  0  0
 11  6  2  0  0  0  0
 13  3  2  0  0  0  0
 14 13  1  0  0  0  0
 14 12  1  0  0  0  0
 17 19  1  0  0  0  0
 18 19  2  0  0  0  0
 19 16  1  0  0  0  0
 20  1  1  0  0  0  0
 21 20  1  0  0  0  0
 22 21  1  0  0  0  0
 23 22  1  0  0  0  0
 24 23  1  0  0  0  0
 25 24  2  0  0  0  0
 26 24  1  0  0  0  0
 29 28  2  6  0  0  0
 29 26  1  0  0  0  0
 29 27  1  0  0  0  0
 30 32  1  0  0  0  0
 30 29  1  0  0  0  0
 31 32  1  0  0  0  0
 32 34  1  0  0  0  0
 33 32  2  0  0  0  0
 36 37  2  0  0  0  0
 37 35  1  0  0  0  0
 39 38  2  0  0  0  0
 39 36  1  0  0  0  0
 40 39  1  0  0  0  0
 42 43  1  0  0  0  0
 43 41  1  6  0  0  0
 43 45  1  0  0  0  0
 43 40  1  0  0  0  0
 44 46  2  0  0  0  0
 44 48  1  0  0  0  0
 46 51  1  0  0  0  0
 47 45  1  0  0  0  0
 48 50  1  0  0  0  0
 49 47  1  0  0  0  0
 50 52  2  0  0  0  0
 51 49  2  0  0  0  0
 52 42  1  0  0  0  0
 52 49  1  0  0  0  0
M  END
>  <MODEL>
8

>  <REMARK>
 VINA RESULT:      -6.8      2.193      7.349
  Name = 
  15 active torsions:
  status: ('A' for Active; 'I' for Inactive)
    1  A    between atoms: C_1  and  C_22
    2  A    between atoms: C_2  and  O_13
    3  A    between atoms: C_6  and  C_45
    4  A    between atoms: N_11  and  C_21
    5  A    between atoms: O_12  and  P_18
    6  A    between atoms: O_12  and  P_31
    7  A    between atoms: O_13  and  C_49
    8  A    between atoms: C_16  and  O_34
    9  A    between atoms: C_21  and  C_25
   10  A    between atoms: C_22  and  C_25
   11  A    between atoms: N_29  and  C_41
   12  A    between atoms: C_30  and  C_44
   13  A    between atoms: P_31  and  O_34
   14  A    between atoms: C_41  and  C_45
   15  A    between atoms: C_44  and  C_52
                            x       y       z     vdW  Elec       q    Type
                         _______ _______ _______ _____ _____    ______ ____

>  <TORSDO>
F 15

$$$$
=
 OpenBabel11032421173D

 52 55  0  0  1  0  0  0  0  0999 V2000
  181.8080  178.2780  136.7040 C   0  0  0  0  0  0  0  0  0  0  0  0
  183.5010  179.4870  140.6330 C   0  0  1  0  0  3  0  0  0  0  0  0
  179.8910  179.5630  137.3230 N   0  0  0  0  0  0  0  0  0  0  0  0
  180.1340  178.8440  135.0950 N   0  0  0  0  0  0  0  0  0  0  0  0
  183.1680  177.0840  140.4530 O   0  0  0  0  0  1  0  0  0  0  0  0
  182.8190  179.6500  139.3060 C   0  0  0  0  0  0  0  0  0  0  0  0
  180.6580  178.6360  141.3500 C   0  0  0  0  0  3  0  0  0  0  0  0
  181.8950  178.2480  142.1240 C   0  0  1  0  0  3  0  0  0  0  0  0
  183.1930  178.1670  141.3350 C   0  0  2  0  0  3  0  0  0  0  0  0
  181.3060  178.2300  135.4010 C   0  0  0  0  0  3  0  0  0  0  0  0
  183.3730  180.3620  138.4220 O   0  0  0  0  0  0  0  0  0  0  0  0
  180.5020  178.9590  140.0590 C   0  0  0  0  0  3  0  0  0  0  0  0
  181.0660  178.9710  137.6820 C   0  0  0  0  0  0  0  0  0  0  0  0
  181.5210  179.0720  139.0450 N   0  0  0  0  0  0  0  0  0  0  0  0
  179.4280  179.5040  136.0470 C   0  0  0  0  0  3  0  0  0  0  0  0
  184.9080  179.7510  140.5810 O   0  0  0  0  0  0  0  0  0  0  0  0
  186.9350  178.4030  141.1030 C   0  0  0  0  0  1  0  0  0  0  0  0
  185.8750  178.3820  138.9800 O   0  0  0  0  0  0  0  0  0  0  0  0
  185.8770  178.8370  140.1540 C   0  0  0  0  0  0  0  0  0  0  0  0
  183.0730  177.5520  137.0290 C   0  0  0  0  0  2  0  0  0  0  0  0
  183.2110  176.3070  136.1700 C   0  0  0  0  0  2  0  0  0  0  0  0
  184.3570  175.4630  136.6890 C   0  0  0  0  0  2  0  0  0  0  0  0
  185.6270  176.0950  136.3700 N   0  0  0  0  0  2  0  0  0  0  0  0
  186.5940  175.4940  135.5080 C   0  0  0  0  0  0  0  0  0  0  0  0
  186.3190  174.4270  134.8940 O   0  0  0  0  0  0  0  0  0  0  0  0
  187.8370  176.1090  135.3520 O   0  0  0  0  0  0  0  0  0  0  0  0
  188.1990  176.1210  138.1060 O   0  0  0  0  0  1  0  0  0  0  0  0
  188.2480  178.3300  136.6920 O   0  0  0  0  0  0  0  0  0  0  0  0
  188.6550  176.8720  136.6560 P   0  0  2  0  0  0  0  0  0  0  0  0
  190.3350  176.7350  136.3980 O   0  0  0  0  0  0  0  0  0  0  0  0
  190.7390  175.2350  138.7170 O   0  0  0  0  0  1  0  0  0  0  0  0
  191.0970  176.6860  137.9200 P   0  0  0  0  0  0  0  0  0  0  0  0
  192.7700  176.7750  137.6880 O   0  0  0  0  0  0  0  0  0  0  0  0
  190.6630  177.8580  138.7750 O   0  0  0  0  0  1  0  0  0  0  0  0
  182.0740  179.1500  143.3380 C   0  0  0  0  0  2  0  0  0  0  0  0
  184.0800  179.6600  144.5610 N   0  0  0  0  0  0  0  0  0  0  0  0
  183.2690  178.7510  144.1300 C   0  0  0  0  0  3  0  0  0  0  0  0
  185.3010  179.6110  146.5600 O   0  0  0  0  0  0  0  0  0  0  0  0
  185.2480  179.3540  145.3260 C   0  0  0  0  0  0  0  0  0  0  0  0
  186.4050  178.6900  144.6550 C   0  0  0  0  0  2  0  0  0  0  0  0
  185.6780  176.7540  145.8530 O   0  0  0  0  0  1  0  0  0  0  0  0
  187.4800  176.5140  144.4350 O   0  0  0  0  0  0  0  0  0  0  0  0
  186.8150  177.3900  145.3530 C   0  0  1  0  0  0  0  0  0  0  0  0
  191.6110  176.2810  142.9350 N   0  0  0  0  0  0  0  0  0  0  0  0
  187.7440  177.7340  146.5220 C   0  0  0  0  0  2  0  0  0  0  0  0
  191.8850  176.5910  144.1640 C   0  0  0  0  0  3  0  0  0  0  0  0
  189.0360  178.1340  146.0580 O   0  0  0  0  0  0  0  0  0  0  0  0
  190.4630  176.7780  142.1970 C   0  0  0  0  0  2  0  0  0  0  0  0
  189.6750  177.4480  145.0220 C   0  0  0  0  0  0  0  0  0  0  0  0
  189.1740  176.3720  142.8260 C   0  0  0  0  0  3  0  0  0  0  0  0
  191.0120  177.3840  145.0520 C   0  0  0  0  0  3  0  0  0  0  0  0
  188.8060  176.7330  144.0560 C   0  0  0  0  0  0  0  0  0  0  0  0
  1 20  1  0  0  0  0
  1 13  1  0  0  0  0
  2 16  1  6  0  0  0
  2  9  1  0  0  0  0
  3 13  2  0  0  0  0
  4 10  1  0  0  0  0
  4 15  2  0  0  0  0
  6  2  1  0  0  0  0
  7  8  1  0  0  0  0
  8 35  1  1  0  0  0
  9  5  1  6  0  0  0
  9  8  1  0  0  0  0
 10  1  2  0  0  0  0
 11  6  2  0  0  0  0
 12  7  2  0  0  0  0
 13 14  1  0  0  0  0
 14  6  1  0  0  0  0
 14 12  1  0  0  0  0
 15  3  1  0  0  0  0
 18 19  2  0  0  0  0
 19 16  1  0  0  0  0
 19 17  1  0  0  0  0
 21 22  1  0  0  0  0
 21 20  1  0  0  0  0
 23 22  1  0  0  0  0
 24 23  1  0  0  0  0
 25 24  2  0  0  0  0
 26 24  1  0  0  0  0
 26 29  1  0  0  0  0
 29 28  2  1  0  0  0
 29 27  1  0  0  0  0
 30 29  1  0  0  0  0
 30 32  1  0  0  0  0
 32 31  1  0  0  0  0
 32 34  1  0  0  0  0
 33 32  2  0  0  0  0
 35 37  1  0  0  0  0
 36 39  1  0  0  0  0
 37 36  2  0  0  0  0
 39 38  2  0  0  0  0
 40 39  1  0  0  0  0
 40 43  1  0  0  0  0
 42 43  1  0  0  0  0
 43 41  1  1  0  0  0
 43 45  1  0  0  0  0
 44 46  2  0  0  0  0
 46 51  1  0  0  0  0
 47 45  1  0  0  0  0
 48 50  1  0  0  0  0
 48 44  1  0  0  0  0
 49 51  2  0  0  0  0
 49 47  1  0  0  0  0
 50 52  2  0  0  0  0
 52 42  1  0  0  0  0
 52 49  1  0  0  0  0
M  END
>  <MODEL>
9

>  <REMARK>
 VINA RESULT:      -6.8      1.881      3.274
  Name = 
  15 active torsions:
  status: ('A' for Active; 'I' for Inactive)
    1  A    between atoms: C_1  and  C_22
    2  A    between atoms: C_2  and  O_13
    3  A    between atoms: C_6  and  C_45
    4  A    between atoms: N_11  and  C_21
    5  A    between atoms: O_12  and  P_18
    6  A    between atoms: O_12  and  P_31
    7  A    between atoms: O_13  and  C_49
    8  A    between atoms: C_16  and  O_34
    9  A    between atoms: C_21  and  C_25
   10  A    between atoms: C_22  and  C_25
   11  A    between atoms: N_29  and  C_41
   12  A    between atoms: C_30  and  C_44
   13  A    between atoms: P_31  and  O_34
   14  A    between atoms: C_41  and  C_45
   15  A    between atoms: C_44  and  C_52
                            x       y       z     vdW  Elec       q    Type
                         _______ _______ _______ _____ _____    ______ ____

>  <TORSDO>
F 15

$$$$
