=
 OpenBabel11042410283D

 35 43  0  0  1  0  0  0  0  0999 V2000
  183.4860  178.0590  140.7760 C   0  0  0  0  0  0  0  0  0  0  0  0
  182.3700  178.7480  140.1200 C   0  0  0  0  0  0  0  0  0  0  0  0
  183.7010  177.9680  142.1120 C   0  0  0  0  0  3  0  0  0  0  0  0
  181.7910  176.2750  138.3720 C   0  0  2  0  0  3  0  0  0  0  0  0
  184.0770  176.6820  137.5490 O   0  0  0  0  0  0  0  0  0  0  0  0
  183.3610  178.0910  139.3850 C   0  0  2  0  0  0  0  0  0  0  0  0
  182.6570  178.6570  142.8340 C   0  0  0  0  0  0  0  0  0  0  0  0
  181.5330  179.3450  142.1640 C   0  0  0  0  0  0  0  0  0  0  0  0
  183.1850  176.7990  138.6380 C   0  0  1  0  0  0  0  0  0  0  0  0
  181.2590  175.6150  139.6310 C   0  0  0  0  0  2  0  0  0  0  0  0
  184.3950  178.7820  138.6380 C   0  0  0  0  0  0  0  0  0  0  0  0
  182.7350  175.5130  139.2950 C   0  0  1  0  0  3  0  0  0  0  0  0
  184.8440  177.8890  137.5200 C   0  0  1  0  0  3  0  0  0  0  0  0
  181.3610  179.4130  140.7360 C   0  0  0  0  0  3  0  0  0  0  0  0
  184.8060  179.9120  138.8500 O   0  0  0  0  0  0  0  0  0  0  0  0
  188.2780  177.8920  136.1570 C   0  0  2  0  0  3  0  0  0  0  0  0
  188.6030  178.8340  137.3280 C   0  0  1  0  0  3  0  0  0  0  0  0
  187.1520  178.6420  136.8620 C   0  0  2  0  0  3  0  0  0  0  0  0
  186.3410  177.5920  137.6170 C   0  0  2  0  0  3  0  0  0  0  0  0
  186.7050  176.2450  137.0250 C   0  0  0  0  0  2  0  0  0  0  0  0
  188.1120  176.4150  136.5080 C   0  0  0  0  0  2  0  0  0  0  0  0
  189.7700  177.1290  141.1150 C   0  0  0  0  0  3  0  0  0  0  0  0
  190.2040  177.5060  138.7630 C   0  0  0  0  0  3  0  0  0  0  0  0
  188.1790  178.3670  139.7740 C   0  0  0  0  0  3  0  0  0  0  0  0
  188.9820  178.1830  138.6390 C   0  0  0  0  0  0  0  0  0  0  0  0
  188.5660  177.8320  141.0060 C   0  0  0  0  0  3  0  0  0  0  0  0
  190.5910  176.9710  139.9950 C   0  0  0  0  0  3  0  0  0  0  0  0
  183.8750  178.7650  145.0700 C   0  0  0  0  0  0  0  0  0  0  0  0
  184.1000  178.7720  146.3940 N   0  0  0  0  0  0  0  0  0  0  0  0
  185.5210  178.9040  146.1780 C   0  0  0  0  0  2  0  0  0  0  0  0
  182.6940  178.6750  144.2680 N   0  0  0  0  0  2  0  0  0  0  0  0
  185.3450  178.9010  144.7890 C   0  0  0  0  0  2  0  0  0  0  0  0
  180.5100  180.0440  142.9950 C   0  0  0  0  0  2  0  0  0  0  0  0
  179.3490  179.2080  143.1400 N   0  0  0  0  0  0  0  0  0  0  0  0
  179.1230  178.6400  144.2230 N   0  0  0  0  0  2  0  0  0  0  0  0
  1  3  1  0  0  0  0
  2 14  1  0  0  0  0
  2  1  2  0  0  0  0
  3  7  2  0  0  0  0
  4  9  1  0  0  0  0
  4 12  1  0  0  0  0
  4 10  1  1  0  0  0
  5  9  1  0  0  0  0
  6 11  1  6  0  0  0
  6  2  1  0  0  0  0
  6  1  1  0  0  0  0
  7 31  1  0  0  0  0
  8  7  1  0  0  0  0
  8 33  1  0  0  0  0
  9 12  1  0  0  0  0
  9  6  1  0  0  0  0
 11 15  2  0  0  0  0
 12 10  1  1  0  0  0
 13  5  1  1  0  0  0
 13 19  1  0  0  0  0
 13 11  1  0  0  0  0
 14  8  2  0  0  0  0
 16 21  1  1  0  0  0
 16 18  1  0  0  0  0
 16 17  1  0  0  0  0
 17 25  1  1  0  0  0
 18 17  1  0  0  0  0
 18 19  1  0  0  0  0
 20 19  1  0  0  0  0
 21 20  1  0  0  0  0
 23 27  1  0  0  0  0
 24 26  2  0  0  0  0
 25 23  2  0  0  0  0
 25 24  1  0  0  0  0
 26 22  1  0  0  0  0
 27 22  2  0  0  0  0
 28 29  2  0  0  0  0
 30 29  1  0  0  0  0
 31 28  1  0  0  0  0
 32 28  1  0  0  0  0
 32 30  1  0  0  0  0
 33 34  1  0  0  0  0
 34 35  2  0  0  0  0
M  END
>  <MODEL>
1

>  <REMARK>
 VINA RESULT:      -8.7      0.000      0.000
  Name = 
  5 active torsions:
  status: ('A' for Active; 'I' for Inactive)
    1  A    between atoms: C_11  and  C_25
    2  A    between atoms: C_13  and  N_31
    3  A    between atoms: C_15  and  C_27
    4  A    between atoms: C_16  and  C_17
    5  A    between atoms: C_17  and  N_28
                            x       y       z     vdW  Elec       q    Type
                         _______ _______ _______ _____ _____    ______ ____

>  <TORSDO>
F 5

$$$$
=
 OpenBabel11042410283D

 35 43  0  0  1  0  0  0  0  0999 V2000
  188.7660  177.6060  144.0110 C   0  0  0  0  0  0  0  0  0  0  0  0
  189.7270  176.9420  144.8980 C   0  0  0  0  0  0  0  0  0  0  0  0
  187.5440  178.0790  144.3590 C   0  0  0  0  0  3  0  0  0  0  0  0
  191.9940  178.7930  143.9280 C   0  0  2  0  0  3  0  0  0  0  0  0
  191.5030  177.7690  141.7430 O   0  0  0  0  0  0  0  0  0  0  0  0
  190.0040  177.1560  143.5450 C   0  0  2  0  0  0  0  0  0  0  0  0
  187.2980  177.8400  145.7620 C   0  0  0  0  0  0  0  0  0  0  0  0
  188.2740  177.1740  146.6500 C   0  0  0  0  0  0  0  0  0  0  0  0
  190.9860  178.1540  142.9990 C   0  0  1  0  0  0  0  0  0  0  0  0
  191.3150  179.8970  144.7170 C   0  0  0  0  0  2  0  0  0  0  0  0
  189.9980  176.1010  142.5490 C   0  0  0  0  0  0  0  0  0  0  0  0
  190.9060  179.6390  143.2790 C   0  0  1  0  0  3  0  0  0  0  0  0
  190.9110  176.5040  141.4310 C   0  0  1  0  0  3  0  0  0  0  0  0
  189.5580  176.6860  146.2190 C   0  0  0  0  0  3  0  0  0  0  0  0
  189.3900  175.0440  142.6210 O   0  0  0  0  0  0  0  0  0  0  0  0
  189.8650  178.2250  138.3330 C   0  0  2  0  0  3  0  0  0  0  0  0
  190.6430  177.1160  137.6080 C   0  0  1  0  0  3  0  0  0  0  0  0
  190.9170  177.4200  139.0880 C   0  0  2  0  0  3  0  0  0  0  0  0
  190.1620  176.5610  140.0980 C   0  0  2  0  0  3  0  0  0  0  0  0
  188.7760  177.1600  140.2360 C   0  0  0  0  0  2  0  0  0  0  0  0
  188.5080  177.8270  138.9100 C   0  0  0  0  0  2  0  0  0  0  0  0
  188.5600  173.4770  136.5920 C   0  0  0  0  0  3  0  0  0  0  0  0
  188.6040  175.8920  136.7530 C   0  0  0  0  0  3  0  0  0  0  0  0
  190.5220  174.5960  137.4630 C   0  0  0  0  0  3  0  0  0  0  0  0
  189.8890  175.8390  137.3100 C   0  0  0  0  0  0  0  0  0  0  0  0
  189.8550  173.4180  137.1160 C   0  0  0  0  0  3  0  0  0  0  0  0
  187.9370  174.7130  136.4060 C   0  0  0  0  0  3  0  0  0  0  0  0
  184.8600  178.5700  145.6100 C   0  0  0  0  0  0  0  0  0  0  0  0
  183.6390  178.9990  145.9680 N   0  0  0  0  0  0  0  0  0  0  0  0
  183.1970  178.9680  144.5950 C   0  0  0  0  0  2  0  0  0  0  0  0
  186.0560  178.2720  146.3370 N   0  0  0  0  0  2  0  0  0  0  0  0
  184.4520  178.5200  144.1650 C   0  0  0  0  0  2  0  0  0  0  0  0
  187.9230  176.9570  148.0840 C   0  0  0  0  0  2  0  0  0  0  0  0
  188.2530  178.1300  148.8480 N   0  0  0  0  0  0  0  0  0  0  0  0
  189.4120  178.5780  148.8280 N   0  0  0  0  0  2  0  0  0  0  0  0
  1  3  2  0  0  0  0
  1  2  1  0  0  0  0
  2 14  2  0  0  0  0
  3  7  1  0  0  0  0
  4 10  1  1  0  0  0
  5  9  1  0  0  0  0
  6 11  1  6  0  0  0
  6  1  1  0  0  0  0
  6  2  1  0  0  0  0
  7 31  1  0  0  0  0
  7  8  2  0  0  0  0
  8 33  1  0  0  0  0
  9 12  1  0  0  0  0
  9  6  1  0  0  0  0
  9  4  1  0  0  0  0
 11 15  2  0  0  0  0
 12  4  1  0  0  0  0
 12 10  1  1  0  0  0
 13  5  1  1  0  0  0
 13 11  1  0  0  0  0
 14  8  1  0  0  0  0
 16 21  1  1  0  0  0
 16 18  1  0  0  0  0
 17 25  1  1  0  0  0
 17 16  1  0  0  0  0
 17 18  1  0  0  0  0
 18 19  1  0  0  0  0
 19 20  1  0  0  0  0
 19 13  1  0  0  0  0
 21 20  1  0  0  0  0
 22 26  1  0  0  0  0
 23 25  2  0  0  0  0
 25 24  1  0  0  0  0
 26 24  2  0  0  0  0
 27 22  2  0  0  0  0
 27 23  1  0  0  0  0
 28 29  2  0  0  0  0
 28 31  1  0  0  0  0
 30 29  1  0  0  0  0
 32 30  1  0  0  0  0
 32 28  1  0  0  0  0
 33 34  1  0  0  0  0
 35 34  2  0  0  0  0
M  END
>  <MODEL>
2

>  <REMARK>
 VINA RESULT:      -7.7      3.732      6.953
  Name = 
  5 active torsions:
  status: ('A' for Active; 'I' for Inactive)
    1  A    between atoms: C_11  and  C_25
    2  A    between atoms: C_13  and  N_31
    3  A    between atoms: C_15  and  C_27
    4  A    between atoms: C_16  and  C_17
    5  A    between atoms: C_17  and  N_28
                            x       y       z     vdW  Elec       q    Type
                         _______ _______ _______ _____ _____    ______ ____

>  <TORSDO>
F 5

$$$$
=
 OpenBabel11042410283D

 35 43  0  0  1  0  0  0  0  0999 V2000
  183.0560  177.4820  138.8600 C   0  0  0  0  0  0  0  0  0  0  0  0
  182.5440  178.3660  137.8070 C   0  0  0  0  0  0  0  0  0  0  0  0
  182.3870  177.0820  139.9690 C   0  0  0  0  0  3  0  0  0  0  0  0
  183.4440  176.3850  135.6220 C   0  0  2  0  0  3  0  0  0  0  0  0
  185.6820  176.8280  136.5500 O   0  0  0  0  0  0  0  0  0  0  0  0
  183.8350  177.8320  137.7540 C   0  0  2  0  0  0  0  0  0  0  0  0
  181.0600  177.6530  139.9860 C   0  0  0  0  0  0  0  0  0  0  0  0
  180.5520  178.5390  138.9180 C   0  0  0  0  0  0  0  0  0  0  0  0
  184.2980  176.7520  136.8170 C   0  0  1  0  0  0  0  0  0  0  0  0
  182.3040  175.4940  136.0800 C   0  0  0  0  0  2  0  0  0  0  0  0
  185.0340  178.6080  138.0020 C   0  0  0  0  0  0  0  0  0  0  0  0
  183.6620  175.3810  136.7470 C   0  0  1  0  0  3  0  0  0  0  0  0
  186.1730  177.9630  137.2710 C   0  0  1  0  0  3  0  0  0  0  0  0
  181.3150  178.9350  137.7630 C   0  0  0  0  0  3  0  0  0  0  0  0
  185.1060  179.6360  138.6580 O   0  0  0  0  0  0  0  0  0  0  0  0
  189.7310  177.7370  138.2430 C   0  0  2  0  0  3  0  0  0  0  0  0
  189.3330  178.6460  139.4170 C   0  0  1  0  0  3  0  0  0  0  0  0
  188.4470  178.5580  138.1650 C   0  0  2  0  0  3  0  0  0  0  0  0
  187.2920  177.5620  138.2330 C   0  0  2  0  0  3  0  0  0  0  0  0
  187.8700  176.1970  137.9160 C   0  0  0  0  0  2  0  0  0  0  0  0
  189.3110  176.2730  138.3550 C   0  0  0  0  0  2  0  0  0  0  0  0
  187.9250  176.8260  143.0650 C   0  0  0  0  0  3  0  0  0  0  0  0
  189.6110  177.0310  141.3400 C   0  0  0  0  0  3  0  0  0  0  0  0
  187.5860  178.3540  141.2190 C   0  0  0  0  0  3  0  0  0  0  0  0
  188.8130  177.9630  140.6610 C   0  0  0  0  0  0  0  0  0  0  0  0
  187.1380  177.7780  142.4110 C   0  0  0  0  0  3  0  0  0  0  0  0
  189.1620  176.4560  142.5330 C   0  0  0  0  0  3  0  0  0  0  0  0
  180.1990  177.9780  142.3630 C   0  0  0  0  0  0  0  0  0  0  0  0
  179.4860  177.8100  143.4880 N   0  0  0  0  0  0  0  0  0  0  0  0
  180.2200  178.8670  144.1410 C   0  0  0  0  0  2  0  0  0  0  0  0
  180.1810  177.3480  141.0780 N   0  0  0  0  0  2  0  0  0  0  0  0
  180.9950  179.0840  142.9950 C   0  0  0  0  0  2  0  0  0  0  0  0
  179.1710  179.0950  139.0310 C   0  0  0  0  0  2  0  0  0  0  0  0
  179.2350  180.5190  139.2210 N   0  0  0  0  0  0  0  0  0  0  0  0
  179.4990  180.9850  140.3430 N   0  0  0  0  0  2  0  0  0  0  0  0
  1  3  1  0  0  0  0
  2  1  2  0  0  0  0
  3  7  2  0  0  0  0
  4 10  1  1  0  0  0
  4 12  1  0  0  0  0
  4  9  1  0  0  0  0
  5  9  1  0  0  0  0
  6  2  1  6  0  0  0
  6 11  1  0  0  0  0
  6  1  1  0  0  0  0
  7 31  1  0  0  0  0
  8 33  1  0  0  0  0
  8  7  1  0  0  0  0
  9  6  1  0  0  0  0
 11 15  2  0  0  0  0
 12 10  1  1  0  0  0
 12  9  1  0  0  0  0
 13  5  1  1  0  0  0
 13 11  1  0  0  0  0
 13 19  1  0  0  0  0
 14  2  1  0  0  0  0
 14  8  2  0  0  0  0
 16 21  1  1  0  0  0
 16 17  1  0  0  0  0
 17 25  1  1  0  0  0
 18 19  1  0  0  0  0
 18 16  1  0  0  0  0
 18 17  1  0  0  0  0
 20 19  1  0  0  0  0
 20 21  1  0  0  0  0
 23 27  2  0  0  0  0
 24 26  1  0  0  0  0
 25 24  2  0  0  0  0
 25 23  1  0  0  0  0
 26 22  2  0  0  0  0
 27 22  1  0  0  0  0
 28 32  1  0  0  0  0
 28 29  2  0  0  0  0
 29 30  1  0  0  0  0
 31 28  1  0  0  0  0
 32 30  1  0  0  0  0
 33 34  1  0  0  0  0
 34 35  2  0  0  0  0
M  END
>  <MODEL>
3

>  <REMARK>
 VINA RESULT:      -7.1      2.014      3.085
  Name = 
  5 active torsions:
  status: ('A' for Active; 'I' for Inactive)
    1  A    between atoms: C_11  and  C_25
    2  A    between atoms: C_13  and  N_31
    3  A    between atoms: C_15  and  C_27
    4  A    between atoms: C_16  and  C_17
    5  A    between atoms: C_17  and  N_28
                            x       y       z     vdW  Elec       q    Type
                         _______ _______ _______ _____ _____    ______ ____

>  <TORSDO>
F 5

$$$$
=
 OpenBabel11042410283D

 35 43  0  0  1  0  0  0  0  0999 V2000
  188.7490  176.3200  138.3090 C   0  0  0  0  0  0  0  0  0  0  0  0
  189.1130  177.4210  137.4100 C   0  0  0  0  0  0  0  0  0  0  0  0
  187.8050  175.3750  138.0800 C   0  0  0  0  0  3  0  0  0  0  0  0
  192.1060  176.7300  137.6760 C   0  0  2  0  0  3  0  0  0  0  0  0
  191.7130  177.2290  140.0550 O   0  0  0  0  0  0  0  0  0  0  0  0
  189.7430  177.2430  138.6450 C   0  0  2  0  0  0  0  0  0  0  0  0
  187.1800  175.5930  136.7960 C   0  0  0  0  0  0  0  0  0  0  0  0
  187.5560  176.7020  135.8950 C   0  0  0  0  0  0  0  0  0  0  0  0
  191.1500  176.7580  138.8480 C   0  0  1  0  0  0  0  0  0  0  0  0
  191.8120  175.5080  136.8240 C   0  0  0  0  0  2  0  0  0  0  0  0
  189.5020  178.0910  139.7970 C   0  0  0  0  0  0  0  0  0  0  0  0
  191.6560  175.4290  138.3310 C   0  0  1  0  0  3  0  0  0  0  0  0
  190.7190  178.0550  140.6710 C   0  0  1  0  0  3  0  0  0  0  0  0
  188.5670  177.6830  136.1970 C   0  0  0  0  0  3  0  0  0  0  0  0
  188.5000  178.7580  140.0060 O   0  0  0  0  0  0  0  0  0  0  0  0
  191.6130  177.2180  144.1580 C   0  0  2  0  0  3  0  0  0  0  0  0
  190.6170  178.3250  144.5410 C   0  0  1  0  0  3  0  0  0  0  0  0
  191.2150  178.2700  143.1280 C   0  0  2  0  0  3  0  0  0  0  0  0
  190.3780  177.5500  142.0740 C   0  0  2  0  0  3  0  0  0  0  0  0
  190.6430  176.0670  142.2390 C   0  0  0  0  0  2  0  0  0  0  0  0
  191.0020  175.8960  143.6950 C   0  0  0  0  0  2  0  0  0  0  0  0
  186.4420  177.3340  144.9810 C   0  0  0  0  0  3  0  0  0  0  0  0
  188.6800  177.4350  145.8980 C   0  0  0  0  0  3  0  0  0  0  0  0
  188.2710  178.1500  143.6210 C   0  0  0  0  0  3  0  0  0  0  0  0
  189.1670  177.9190  144.6760 C   0  0  0  0  0  0  0  0  0  0  0  0
  186.9140  177.8470  143.7700 C   0  0  0  0  0  3  0  0  0  0  0  0
  187.3230  177.1330  146.0460 C   0  0  0  0  0  3  0  0  0  0  0  0
  184.8030  174.6740  136.8350 C   0  0  0  0  0  0  0  0  0  0  0  0
  183.7340  173.9080  136.5640 N   0  0  0  0  0  0  0  0  0  0  0  0
  182.9260  174.6610  137.4940 C   0  0  0  0  0  2  0  0  0  0  0  0
  186.1510  174.6930  136.3570 N   0  0  0  0  0  2  0  0  0  0  0  0
  184.0080  175.4900  137.8150 C   0  0  0  0  0  2  0  0  0  0  0  0
  186.8420  176.8560  134.5940 C   0  0  0  0  0  2  0  0  0  0  0  0
  185.7450  177.7730  134.7470 N   0  0  0  0  0  0  0  0  0  0  0  0
  184.5760  177.3500  134.7440 N   0  0  0  0  0  2  0  0  0  0  0  0
  1  6  1  0  0  0  0
  2  1  2  0  0  0  0
  3  1  1  0  0  0  0
  4 10  1  6  0  0  0
  4 12  1  0  0  0  0
  4  9  1  0  0  0  0
  5 13  1  0  0  0  0
  6  2  1  6  0  0  0
  6  9  1  0  0  0  0
  6 11  1  0  0  0  0
  7  3  2  0  0  0  0
  8 14  2  0  0  0  0
  8  7  1  0  0  0  0
  9  5  1  0  0  0  0
 11 15  2  0  0  0  0
 12 10  1  6  0  0  0
 12  9  1  0  0  0  0
 13 11  1  6  0  0  0
 13 19  1  0  0  0  0
 14  2  1  0  0  0  0
 16 21  1  6  0  0  0
 16 17  1  0  0  0  0
 17 25  1  6  0  0  0
 18 16  1  0  0  0  0
 18 17  1  0  0  0  0
 19 20  1  0  0  0  0
 19 18  1  0  0  0  0
 20 21  1  0  0  0  0
 22 27  1  0  0  0  0
 23 27  2  0  0  0  0
 24 26  1  0  0  0  0
 24 25  2  0  0  0  0
 25 23  1  0  0  0  0
 26 22  2  0  0  0  0
 28 32  1  0  0  0  0
 29 28  2  0  0  0  0
 29 30  1  0  0  0  0
 30 32  1  0  0  0  0
 31  7  1  0  0  0  0
 31 28  1  0  0  0  0
 33 34  1  0  0  0  0
 33  8  1  0  0  0  0
 35 34  2  0  0  0  0
M  END
>  <MODEL>
4

>  <REMARK>
 VINA RESULT:      -6.9      4.495      8.019
  Name = 
  5 active torsions:
  status: ('A' for Active; 'I' for Inactive)
    1  A    between atoms: C_11  and  C_25
    2  A    between atoms: C_13  and  N_31
    3  A    between atoms: C_15  and  C_27
    4  A    between atoms: C_16  and  C_17
    5  A    between atoms: C_17  and  N_28
                            x       y       z     vdW  Elec       q    Type
                         _______ _______ _______ _____ _____    ______ ____

>  <TORSDO>
F 5

$$$$
=
 OpenBabel11042410283D

 35 43  0  0  1  0  0  0  0  0999 V2000
  183.6670  176.8870  138.2210 C   0  0  0  0  0  0  0  0  0  0  0  0
  183.1450  177.7470  137.1530 C   0  0  0  0  0  0  0  0  0  0  0  0
  182.9890  176.4640  139.3160 C   0  0  0  0  0  3  0  0  0  0  0  0
  184.1730  175.7970  134.9970 C   0  0  2  0  0  3  0  0  0  0  0  0
  186.3700  176.3320  135.9740 O   0  0  0  0  0  0  0  0  0  0  0  0
  184.4570  177.2650  137.1310 C   0  0  2  0  0  0  0  0  0  0  0  0
  181.6400  176.9820  139.2990 C   0  0  0  0  0  0  0  0  0  0  0  0
  181.1220  177.8440  138.2170 C   0  0  0  0  0  0  0  0  0  0  0  0
  184.9840  176.2020  136.2090 C   0  0  1  0  0  0  0  0  0  0  0  0
  183.0600  174.8620  135.4320 C   0  0  0  0  0  2  0  0  0  0  0  0
  185.6180  178.0900  137.4040 C   0  0  0  0  0  0  0  0  0  0  0  0
  184.4050  174.8060  136.1310 C   0  0  1  0  0  3  0  0  0  0  0  0
  186.7980  177.4880  136.7010 C   0  0  1  0  0  3  0  0  0  0  0  0
  181.8940  178.2670  137.0780 C   0  0  0  0  0  3  0  0  0  0  0  0
  185.6340  179.1210  138.0570 O   0  0  0  0  0  0  0  0  0  0  0  0
  190.3540  177.1660  137.6520 C   0  0  2  0  0  3  0  0  0  0  0  0
  190.0310  178.2270  138.7160 C   0  0  1  0  0  3  0  0  0  0  0  0
  189.1190  178.0470  137.4940 C   0  0  2  0  0  3  0  0  0  0  0  0
  187.9100  177.1360  137.6900 C   0  0  2  0  0  3  0  0  0  0  0  0
  188.4020  175.7110  137.5280 C   0  0  0  0  0  2  0  0  0  0  0  0
  189.8530  175.7520  137.9380 C   0  0  0  0  0  2  0  0  0  0  0  0
  188.5940  176.9210  142.5690 C   0  0  0  0  0  3  0  0  0  0  0  0
  190.2250  176.7870  140.7840 C   0  0  0  0  0  3  0  0  0  0  0  0
  188.3350  178.2890  140.5880 C   0  0  0  0  0  3  0  0  0  0  0  0
  189.4950  177.7230  140.0380 C   0  0  0  0  0  0  0  0  0  0  0  0
  187.8800  177.8800  141.8450 C   0  0  0  0  0  3  0  0  0  0  0  0
  189.7690  176.3790  142.0410 C   0  0  0  0  0  3  0  0  0  0  0  0
  179.9860  175.4400  140.4750 C   0  0  0  0  0  0  0  0  0  0  0  0
  179.1030  174.9740  141.3730 N   0  0  0  0  0  0  0  0  0  0  0  0
  178.9380  173.7550  140.6170 C   0  0  0  0  0  2  0  0  0  0  0  0
  180.7490  176.6450  140.3730 N   0  0  0  0  0  2  0  0  0  0  0  0
  179.8510  174.1920  139.6490 C   0  0  0  0  0  2  0  0  0  0  0  0
  179.7180  178.3440  138.2960 C   0  0  0  0  0  2  0  0  0  0  0  0
  179.6450  179.4440  139.2180 N   0  0  0  0  0  0  0  0  0  0  0  0
  179.7410  180.6120  138.8020 N   0  0  0  0  0  2  0  0  0  0  0  0
  1  3  1  0  0  0  0
  2  1  2  0  0  0  0
  4 10  1  1  0  0  0
  4 12  1  0  0  0  0
  4  9  1  0  0  0  0
  5  9  1  0  0  0  0
  6  2  1  6  0  0  0
  6 11  1  0  0  0  0
  6  1  1  0  0  0  0
  7  3  2  0  0  0  0
  7 31  1  0  0  0  0
  8 33  1  0  0  0  0
  8  7  1  0  0  0  0
  9  6  1  0  0  0  0
 11 15  2  0  0  0  0
 12 10  1  1  0  0  0
 12  9  1  0  0  0  0
 13  5  1  1  0  0  0
 13 11  1  0  0  0  0
 13 19  1  0  0  0  0
 14  2  1  0  0  0  0
 14  8  2  0  0  0  0
 16 21  1  1  0  0  0
 16 17  1  0  0  0  0
 17 25  1  1  0  0  0
 18 16  1  0  0  0  0
 18 19  1  0  0  0  0
 18 17  1  0  0  0  0
 20 19  1  0  0  0  0
 20 21  1  0  0  0  0
 23 27  2  0  0  0  0
 24 26  1  0  0  0  0
 25 24  2  0  0  0  0
 25 23  1  0  0  0  0
 26 22  2  0  0  0  0
 27 22  1  0  0  0  0
 28 29  2  0  0  0  0
 30 29  1  0  0  0  0
 31 28  1  0  0  0  0
 32 28  1  0  0  0  0
 32 30  1  0  0  0  0
 33 34  1  0  0  0  0
 35 34  2  0  0  0  0
M  END
>  <MODEL>
5

>  <REMARK>
 VINA RESULT:      -6.3      2.917      4.138
  Name = 
  5 active torsions:
  status: ('A' for Active; 'I' for Inactive)
    1  A    between atoms: C_11  and  C_25
    2  A    between atoms: C_13  and  N_31
    3  A    between atoms: C_15  and  C_27
    4  A    between atoms: C_16  and  C_17
    5  A    between atoms: C_17  and  N_28
                            x       y       z     vdW  Elec       q    Type
                         _______ _______ _______ _____ _____    ______ ____

>  <TORSDO>
F 5

$$$$
=
 OpenBabel11042410283D

 35 43  0  0  1  0  0  0  0  0999 V2000
  184.1920  177.0980  137.5470 C   0  0  0  0  0  0  0  0  0  0  0  0
  183.5640  177.1260  136.2220 C   0  0  0  0  0  0  0  0  0  0  0  0
  183.7520  177.7380  138.6580 C   0  0  0  0  0  3  0  0  0  0  0  0
  183.6870  174.0510  136.0320 C   0  0  2  0  0  3  0  0  0  0  0  0
  186.1150  174.4280  136.1950 O   0  0  0  0  0  0  0  0  0  0  0  0
  184.7320  176.3980  136.4650 C   0  0  2  0  0  0  0  0  0  0  0  0
  182.5450  178.4760  138.3650 C   0  0  0  0  0  0  0  0  0  0  0  0
  181.9170  178.4940  137.0280 C   0  0  0  0  0  0  0  0  0  0  0  0
  184.8310  174.9000  136.5410 C   0  0  1  0  0  0  0  0  0  0  0  0
  182.5820  174.0270  137.0730 C   0  0  0  0  0  2  0  0  0  0  0  0
  186.0420  176.8050  135.9950 C   0  0  0  0  0  0  0  0  0  0  0  0
  184.0330  174.0620  137.5160 C   0  0  1  0  0  3  0  0  0  0  0  0
  186.8940  175.5790  135.8550 C   0  0  1  0  0  3  0  0  0  0  0  0
  182.4360  177.7970  135.8800 C   0  0  0  0  0  3  0  0  0  0  0  0
  186.3890  177.9430  135.7180 O   0  0  0  0  0  0  0  0  0  0  0  0
  190.5580  175.6590  136.3240 C   0  0  2  0  0  3  0  0  0  0  0  0
  190.3260  177.0770  136.8710 C   0  0  1  0  0  3  0  0  0  0  0  0
  189.2680  176.4000  135.9880 C   0  0  2  0  0  3  0  0  0  0  0  0
  188.1470  175.6730  136.7270 C   0  0  2  0  0  3  0  0  0  0  0  0
  188.6870  174.3120  137.1170 C   0  0  0  0  0  2  0  0  0  0  0  0
  190.1760  174.5090  137.2550 C   0  0  0  0  0  2  0  0  0  0  0  0
  189.4840  177.5720  141.0730 C   0  0  0  0  0  3  0  0  0  0  0  0
  190.9210  176.7520  139.3050 C   0  0  0  0  0  3  0  0  0  0  0  0
  188.8430  177.8680  138.7570 C   0  0  0  0  0  3  0  0  0  0  0  0
  190.0020  177.1940  138.3430 C   0  0  0  0  0  0  0  0  0  0  0  0
  188.5790  178.0450  140.1180 C   0  0  0  0  0  3  0  0  0  0  0  0
  190.6570  176.9300  140.6670 C   0  0  0  0  0  3  0  0  0  0  0  0
  180.9890  178.6950  140.3730 C   0  0  0  0  0  0  0  0  0  0  0  0
  180.2950  179.2360  141.3870 N   0  0  0  0  0  0  0  0  0  0  0  0
  179.7200  177.9520  141.7120 C   0  0  0  0  0  2  0  0  0  0  0  0
  181.9100  179.2230  139.4140 N   0  0  0  0  0  2  0  0  0  0  0  0
  180.4210  177.3360  140.6670 C   0  0  0  0  0  2  0  0  0  0  0  0
  180.6780  179.3000  136.8180 C   0  0  0  0  0  2  0  0  0  0  0  0
  181.0210  180.5810  136.2640 N   0  0  0  0  0  0  0  0  0  0  0  0
  180.5620  180.9240  135.1600 N   0  0  0  0  0  2  0  0  0  0  0  0
  1  3  1  0  0  0  0
  2  6  1  0  0  0  0
  2  1  2  0  0  0  0
  4  9  1  0  0  0  0
  4 10  1  1  0  0  0
  4 12  1  0  0  0  0
  5  9  1  0  0  0  0
  6 11  1  6  0  0  0
  6  9  1  0  0  0  0
  6  1  1  0  0  0  0
  7  3  2  0  0  0  0
  7 31  1  0  0  0  0
  8  7  1  0  0  0  0
  9 12  1  0  0  0  0
 12 10  1  1  0  0  0
 13 11  1  1  0  0  0
 13  5  1  0  0  0  0
 13 19  1  0  0  0  0
 14  2  1  0  0  0  0
 14  8  2  0  0  0  0
 15 11  2  0  0  0  0
 16 17  1  0  0  0  0
 16 21  1  1  0  0  0
 17 25  1  1  0  0  0
 18 16  1  0  0  0  0
 18 19  1  0  0  0  0
 18 17  1  0  0  0  0
 19 20  1  0  0  0  0
 20 21  1  0  0  0  0
 23 27  2  0  0  0  0
 24 26  1  0  0  0  0
 25 24  2  0  0  0  0
 25 23  1  0  0  0  0
 26 22  2  0  0  0  0
 27 22  1  0  0  0  0
 28 32  1  0  0  0  0
 28 29  2  0  0  0  0
 29 30  1  0  0  0  0
 31 28  1  0  0  0  0
 32 30  1  0  0  0  0
 33  8  1  0  0  0  0
 34 33  1  0  0  0  0
 35 34  2  0  0  0  0
M  END
>  <MODEL>
6

>  <REMARK>
 VINA RESULT:      -5.9      2.834      4.333
  Name = 
  5 active torsions:
  status: ('A' for Active; 'I' for Inactive)
    1  A    between atoms: C_11  and  C_25
    2  A    between atoms: C_13  and  N_31
    3  A    between atoms: C_15  and  C_27
    4  A    between atoms: C_16  and  C_17
    5  A    between atoms: C_17  and  N_28
                            x       y       z     vdW  Elec       q    Type
                         _______ _______ _______ _____ _____    ______ ____

>  <TORSDO>
F 5

$$$$
=
 OpenBabel11042410283D

 35 43  0  0  1  0  0  0  0  0999 V2000
  182.1690  176.2260  138.3620 C   0  0  0  0  0  0  0  0  0  0  0  0
  181.0250  175.6000  137.6910 C   0  0  0  0  0  0  0  0  0  0  0  0
  183.4560  175.8040  138.3180 C   0  0  0  0  0  3  0  0  0  0  0  0
  180.1420  178.3160  136.5280 C   0  0  2  0  0  3  0  0  0  0  0  0
  179.9250  178.9340  138.9030 O   0  0  0  0  0  0  0  0  0  0  0  0
  180.8770  176.7480  138.4750 C   0  0  2  0  0  0  0  0  0  0  0  0
  183.5660  174.6190  137.4990 C   0  0  0  0  0  0  0  0  0  0  0  0
  182.4080  173.9980  136.8230 C   0  0  0  0  0  0  0  0  0  0  0  0
  180.6020  178.1320  137.9580 C   0  0  1  0  0  0  0  0  0  0  0  0
  181.3410  178.2130  135.6030 C   0  0  0  0  0  2  0  0  0  0  0  0
  180.2710  176.7460  139.7920 C   0  0  0  0  0  0  0  0  0  0  0  0
  181.5000  178.8470  136.9720 C   0  0  1  0  0  3  0  0  0  0  0  0
  179.7060  178.1110  140.0520 C   0  0  1  0  0  3  0  0  0  0  0  0
  181.0580  174.4900  136.9130 C   0  0  0  0  0  3  0  0  0  0  0  0
  180.1910  175.7910  140.5500 O   0  0  0  0  0  0  0  0  0  0  0  0
  179.5660  179.2090  143.5780 C   0  0  2  0  0  3  0  0  0  0  0  0
  180.6660  178.1620  143.8120 C   0  0  1  0  0  3  0  0  0  0  0  0
  179.7710  178.0850  142.5670 C   0  0  2  0  0  3  0  0  0  0  0  0
  180.3260  178.7370  141.3030 C   0  0  2  0  0  3  0  0  0  0  0  0
  180.0410  180.2210  141.4110 C   0  0  0  0  0  2  0  0  0  0  0  0
  180.0030  180.5030  142.8930 C   0  0  0  0  0  2  0  0  0  0  0  0
  184.7910  179.2910  143.2450 C   0  0  0  0  0  3  0  0  0  0  0  0
  182.8000  179.2490  144.6210 C   0  0  0  0  0  3  0  0  0  0  0  0
  182.7600  178.2790  142.4020 C   0  0  0  0  0  3  0  0  0  0  0  0
  182.0930  178.6130  143.5900 C   0  0  0  0  0  0  0  0  0  0  0  0
  184.1020  178.6280  142.2250 C   0  0  0  0  0  3  0  0  0  0  0  0
  184.1420  179.5970  144.4440 C   0  0  0  0  0  3  0  0  0  0  0  0
  186.0280  174.6760  136.8430 C   0  0  0  0  0  0  0  0  0  0  0  0
  187.2840  174.2730  136.5930 N   0  0  0  0  0  0  0  0  0  0  0  0
  187.6610  175.6090  136.1970 C   0  0  0  0  0  2  0  0  0  0  0  0
  184.8530  174.0110  137.3170 N   0  0  0  0  0  2  0  0  0  0  0  0
  186.3670  176.0830  136.4410 C   0  0  0  0  0  2  0  0  0  0  0  0
  182.6170  172.7640  136.0100 C   0  0  0  0  0  2  0  0  0  0  0  0
  182.5250  171.6040  136.8550 N   0  0  0  0  0  0  0  0  0  0  0  0
  183.4320  170.7530  136.8430 N   0  0  0  0  0  2  0  0  0  0  0  0
  1  6  1  0  0  0  0
  2  1  2  0  0  0  0
  3  1  1  0  0  0  0
  4 10  1  6  0  0  0
  4 12  1  0  0  0  0
  4  9  1  0  0  0  0
  6  2  1  6  0  0  0
  6 11  1  0  0  0  0
  7  3  2  0  0  0  0
  8 14  2  0  0  0  0
  8  7  1  0  0  0  0
  9  6  1  0  0  0  0
  9  5  1  0  0  0  0
 11 13  1  0  0  0  0
 11 15  2  0  0  0  0
 12 10  1  6  0  0  0
 12  9  1  0  0  0  0
 13  5  1  6  0  0  0
 13 19  1  0  0  0  0
 14  2  1  0  0  0  0
 16 21  1  6  0  0  0
 16 17  1  0  0  0  0
 17 25  1  6  0  0  0
 18 16  1  0  0  0  0
 18 17  1  0  0  0  0
 19 20  1  0  0  0  0
 19 18  1  0  0  0  0
 20 21  1  0  0  0  0
 22 27  1  0  0  0  0
 24 25  2  0  0  0  0
 25 23  1  0  0  0  0
 26 24  1  0  0  0  0
 26 22  2  0  0  0  0
 27 23  2  0  0  0  0
 28 31  1  0  0  0  0
 29 28  2  0  0  0  0
 30 32  1  0  0  0  0
 30 29  1  0  0  0  0
 31  7  1  0  0  0  0
 32 28  1  0  0  0  0
 33  8  1  0  0  0  0
 33 34  1  0  0  0  0
 35 34  2  0  0  0  0
M  END
>  <MODEL>
7

>  <REMARK>
 VINA RESULT:      -5.8      4.247      7.777
  Name = 
  5 active torsions:
  status: ('A' for Active; 'I' for Inactive)
    1  A    between atoms: C_11  and  C_25
    2  A    between atoms: C_13  and  N_31
    3  A    between atoms: C_15  and  C_27
    4  A    between atoms: C_16  and  C_17
    5  A    between atoms: C_17  and  N_28
                            x       y       z     vdW  Elec       q    Type
                         _______ _______ _______ _____ _____    ______ ____

>  <TORSDO>
F 5

$$$$
