=
 OpenBabel11042410393D

 44 50  0  0  1  0  0  0  0  0999 V2000
  182.2310  174.4970  137.4130 C   0  0  0  0  0  0  0  0  0  0  0  0
  179.2270  176.3600  138.4710 S   0  0  0  0  0  0  0  0  0  0  0  0
  184.1620  177.1810  137.9140 C   0  0  2  0  0  3  0  0  0  0  0  0
  185.1320  178.1200  138.6840 C   0  0  2  0  0  0  0  0  0  0  0  0
  184.7760  178.6050  140.0880 C   0  0  1  0  0  3  0  0  0  0  0  0
  184.5330  174.3720  137.9100 F   0  0  0  0  0  0  0  0  0  0  0  0
  183.7590  173.2670  136.1230 F   0  0  0  0  0  0  0  0  0  0  0  0
  180.3060  175.1420  138.0970 C   0  0  0  0  0  0  0  0  0  0  0  0
  183.6260  174.4260  136.8670 C   0  0  0  0  0  0  0  0  0  0  0  0
  184.7220  179.5620  138.9010 C   0  0  0  0  0  2  0  0  0  0  0  0
  186.6350  177.8770  138.5620 C   0  0  0  0  0  2  0  0  0  0  0  0
  180.1950  173.8210  137.9120 N   0  0  0  0  0  0  0  0  0  0  0  0
  180.4090  177.5880  138.2890 C   0  0  0  0  0  3  0  0  0  0  0  0
  181.3960  173.4230  137.4970 N   0  0  0  0  0  0  0  0  0  0  0  0
  184.7000  176.7710  136.5300 C   0  0  2  0  0  3  0  0  0  0  0  0
  181.5210  175.6110  137.8190 C   0  0  2  0  0  3  0  0  0  0  0  0
  186.9460  178.8850  136.2980 C   0  0  0  0  0  1  0  0  0  0  0  0
  183.8900  175.6130  135.9280 C   0  0  0  0  0  2  0  0  0  0  0  0
  181.6310  176.9990  137.9250 C   0  0  0  0  0  0  0  0  0  0  0  0
  182.8300  177.7600  137.7750 N   0  0  0  0  0  2  0  0  0  0  0  0
  186.2080  176.4520  136.5530 C   0  0  2  0  0  3  0  0  0  0  0  0
  187.0470  177.6060  137.1220 C   0  0  2  0  0  3  0  0  0  0  0  0
  183.3720  178.2380  140.5470 C   0  0  0  0  0  2  0  0  0  0  0  0
  183.2600  178.2920  142.0640 C   0  0  0  0  0  2  0  0  0  0  0  0
  184.2170  179.3130  142.6680 C   0  0  0  0  0  2  0  0  0  0  0  0
  186.9470  177.5220  144.5920 C   0  0  0  0  0  0  0  0  0  0  0  0
  185.0010  178.7330  143.7980 C   0  0  0  0  0  0  0  0  0  0  0  0
  185.3030  178.3400  146.1710 C   0  0  0  0  0  3  0  0  0  0  0  0
  184.5540  178.8680  145.1160 C   0  0  0  0  0  3  0  0  0  0  0  0
  187.2100  177.1510  146.9470 F   0  0  0  0  0  0  0  0  0  0  0  0
  188.2160  176.7930  144.2910 C   0  0  0  0  0  1  0  0  0  0  0  0
  186.2010  178.0650  143.5400 C   0  0  0  0  0  3  0  0  0  0  0  0
  186.5000  177.6650  145.9120 C   0  0  0  0  0  0  0  0  0  0  0  0
  186.7680  175.8870  135.2380 C   0  0  0  0  0  2  0  0  0  0  0  0
  187.2500  174.4460  135.3520 C   0  0  0  0  0  2  0  0  0  0  0  0
  188.2240  174.3390  136.4240 N   0  0  0  0  0  2  0  0  0  0  0  0
  189.5360  174.4450  135.8150 C   0  0  0  0  0  2  0  0  0  0  0  0
  190.1530  175.7860  136.1810 C   0  0  0  0  0  2  0  0  0  0  0  0
  191.5300  176.8420  137.8370 O   0  0  0  0  0  0  0  0  0  0  0  0
  190.3090  177.0070  138.5160 C   0  0  1  0  0  3  0  0  0  0  0  0
  191.0140  174.6340  138.2130 O   0  0  0  0  0  1  0  0  0  0  0  0
  190.5730  175.8300  137.6420 C   0  0  1  0  0  0  0  0  0  0  0  0
  189.5230  177.4930  140.8140 C   0  0  0  0  0  1  0  0  0  0  0  0
  190.5040  176.6910  139.9890 C   0  0  0  0  0  2  0  0  0  0  0  0
  1 14  2  0  0  0  0
  3 20  1  6  0  0  0
  3  4  1  0  0  0  0
  4 11  1  6  0  0  0
  4 10  1  0  0  0  0
  4  5  1  0  0  0  0
  5 23  1  6  0  0  0
  7  9  1  0  0  0  0
  8  2  1  0  0  0  0
  9  1  1  0  0  0  0
  9  6  1  0  0  0  0
 10  5  1  0  0  0  0
 12  8  2  0  0  0  0
 13  2  1  0  0  0  0
 14 12  1  0  0  0  0
 15 18  1  1  0  0  0
 15 21  1  0  0  0  0
 15  3  1  0  0  0  0
 16  1  1  6  0  0  0
 16 19  1  0  0  0  0
 16  8  1  0  0  0  0
 18  9  1  0  0  0  0
 19 13  2  0  0  0  0
 20 19  1  0  0  0  0
 21 34  1  6  0  0  0
 21 22  1  0  0  0  0
 22 17  1  6  0  0  0
 22 11  1  0  0  0  0
 23 24  1  0  0  0  0
 24 25  1  0  0  0  0
 25 27  1  0  0  0  0
 26 33  1  0  0  0  0
 27 29  2  0  0  0  0
 29 28  1  0  0  0  0
 31 26  1  0  0  0  0
 32 27  1  0  0  0  0
 32 26  2  0  0  0  0
 33 28  2  0  0  0  0
 33 30  1  0  0  0  0
 34 35  1  0  0  0  0
 35 36  1  0  0  0  0
 37 38  1  0  0  0  0
 37 36  1  0  0  0  0
 38 42  1  0  0  0  0
 39 40  1  0  0  0  0
 40 44  1  1  0  0  0
 42 39  1  0  0  0  0
 42 41  1  1  0  0  0
 42 40  1  0  0  0  0
 44 43  1  0  0  0  0
M  END
>  <MODEL>
1

>  <REMARK>
 VINA RESULT:      -7.3      0.000      0.000
  Name = 
  11 active torsions:
  status: ('A' for Active; 'I' for Inactive)
    1  A    between atoms: C_3  and  C_39
    2  A    between atoms: C_6  and  C_38
    3  A    between atoms: C_7  and  C_12
    4  A    between atoms: C_7  and  C_13
    5  A    between atoms: C_8  and  C_36
    6  A    between atoms: C_8  and  C_40
    7  A    between atoms: C_13  and  C_39
    8  A    between atoms: C_25  and  C_41
    9  A    between atoms: C_31  and  N_37
   10  A    between atoms: C_31  and  C_41
   11  A    between atoms: C_36  and  N_37
                            x       y       z     vdW  Elec       q    Type
                         _______ _______ _______ _____ _____    ______ ____

>  <TORSDO>
F 11

$$$$
=
 OpenBabel11042410393D

 44 50  0  0  1  0  0  0  0  0999 V2000
  184.3980  172.9500  136.8500 C   0  0  0  0  0  0  0  0  0  0  0  0
  180.7810  173.6230  136.5810 S   0  0  0  0  0  0  0  0  0  0  0  0
  185.0570  176.2120  137.1720 C   0  0  2  0  0  3  0  0  0  0  0  0
  185.3460  177.5450  137.9180 C   0  0  2  0  0  0  0  0  0  0  0  0
  184.4000  178.0310  139.0130 C   0  0  1  0  0  3  0  0  0  0  0  0
  186.3030  173.7910  137.9550 F   0  0  0  0  0  0  0  0  0  0  0  0
  186.5850  172.2520  136.3550 F   0  0  0  0  0  0  0  0  0  0  0  0
  182.2570  172.8820  136.8180 C   0  0  0  0  0  0  0  0  0  0  0  0
  185.8370  173.3540  136.7280 C   0  0  0  0  0  0  0  0  0  0  0  0
  184.4390  178.7300  137.6570 C   0  0  0  0  0  2  0  0  0  0  0  0
  186.7940  177.8890  138.2620 C   0  0  0  0  0  2  0  0  0  0  0  0
  182.6530  171.6090  136.9390 N   0  0  0  0  0  0  0  0  0  0  0  0
  181.4840  175.1790  136.4240 C   0  0  0  0  0  3  0  0  0  0  0  0
  183.9840  171.6560  136.9690 N   0  0  0  0  0  2  0  0  0  0  0  0
  186.1330  175.8670  136.1240 C   0  0  2  0  0  3  0  0  0  0  0  0
  183.2700  173.7440  136.7660 C   0  0  0  0  0  0  0  0  0  0  0  0
  187.5030  178.6370  135.9870 C   0  0  0  0  0  1  0  0  0  0  0  0
  185.9990  174.4180  135.6330 C   0  0  0  0  0  2  0  0  0  0  0  0
  182.8780  175.0670  136.5540 C   0  0  0  0  0  0  0  0  0  0  0  0
  183.7390  176.2070  136.5460 N   0  0  0  0  0  2  0  0  0  0  0  0
  187.5600  176.1630  136.6250 C   0  0  2  0  0  3  0  0  0  0  0  0
  187.7320  177.6150  137.0960 C   0  0  2  0  0  3  0  0  0  0  0  0
  183.1250  177.2120  139.1570 C   0  0  0  0  0  2  0  0  0  0  0  0
  182.5960  177.2710  140.5830 C   0  0  0  0  0  2  0  0  0  0  0  0
  182.7420  178.6630  141.1870 C   0  0  0  0  0  2  0  0  0  0  0  0
  185.5440  178.1670  143.6900 C   0  0  0  0  0  0  0  0  0  0  0  0
  183.4970  178.6280  142.4740 C   0  0  0  0  0  0  0  0  0  0  0  0
  183.6080  179.0260  144.8630 C   0  0  0  0  0  3  0  0  0  0  0  0
  182.8900  179.0420  143.6640 C   0  0  0  0  0  3  0  0  0  0  0  0
  185.6150  178.5720  146.0530 F   0  0  0  0  0  0  0  0  0  0  0  0
  186.9580  177.6810  143.6870 C   0  0  0  0  0  1  0  0  0  0  0  0
  184.8260  178.1980  142.4890 C   0  0  0  0  0  3  0  0  0  0  0  0
  184.9350  178.5880  144.8800 C   0  0  0  0  0  0  0  0  0  0  0  0
  188.6830  175.6940  135.6860 C   0  0  0  0  0  2  0  0  0  0  0  0
  190.0620  175.7040  136.3340 C   0  0  0  0  0  2  0  0  0  0  0  0
  189.9890  175.0980  137.6520 N   0  0  0  0  0  2  0  0  0  0  0  0
  190.8610  175.8680  138.5200 C   0  0  0  0  0  2  0  0  0  0  0  0
  190.0160  176.6450  139.5180 C   0  0  0  0  0  2  0  0  0  0  0  0
  190.0140  177.7610  141.6420 O   0  0  0  0  0  0  0  0  0  0  0  0
  190.4590  176.5140  142.1180 C   0  0  1  0  0  3  0  0  0  0  0  0
  192.0390  177.6540  140.5610 O   0  0  0  0  0  1  0  0  0  0  0  0
  190.8140  177.0130  140.7600 C   0  0  1  0  0  0  0  0  0  0  0  0
  191.0080  176.6970  144.5260 C   0  0  0  0  0  1  0  0  0  0  0  0
  191.5760  176.7270  143.1240 C   0  0  0  0  0  2  0  0  0  0  0  0
  1 14  1  0  0  0  0
  2  8  1  0  0  0  0
  3 20  1  6  0  0  0
  3  4  1  0  0  0  0
  4 10  1  6  0  0  0
  4 11  1  0  0  0  0
  4  5  1  0  0  0  0
  5 23  1  6  0  0  0
  7  9  1  0  0  0  0
  8 12  2  0  0  0  0
  9  1  1  0  0  0  0
  9  6  1  0  0  0  0
 10  5  1  0  0  0  0
 12 14  1  0  0  0  0
 13 19  2  0  0  0  0
 13  2  1  0  0  0  0
 15 18  1  1  0  0  0
 15 21  1  0  0  0  0
 15  3  1  0  0  0  0
 16  8  1  0  0  0  0
 16  1  2  0  0  0  0
 18  9  1  0  0  0  0
 19 16  1  0  0  0  0
 20 19  1  0  0  0  0
 21 34  1  6  0  0  0
 21 22  1  0  0  0  0
 22 17  1  6  0  0  0
 22 11  1  0  0  0  0
 23 24  1  0  0  0  0
 24 25  1  0  0  0  0
 25 27  1  0  0  0  0
 26 33  1  0  0  0  0
 27 32  1  0  0  0  0
 27 29  2  0  0  0  0
 28 33  2  0  0  0  0
 29 28  1  0  0  0  0
 31 26  1  0  0  0  0
 32 26  2  0  0  0  0
 33 30  1  0  0  0  0
 34 35  1  0  0  0  0
 35 36  1  0  0  0  0
 36 37  1  0  0  0  0
 37 38  1  0  0  0  0
 38 42  1  0  0  0  0
 39 40  1  0  0  0  0
 40 44  1  1  0  0  0
 42 41  1  6  0  0  0
 42 39  1  0  0  0  0
 42 40  1  0  0  0  0
 44 43  1  0  0  0  0
M  END
>  <MODEL>
2

>  <REMARK>
 VINA RESULT:      -7.3      1.815      2.582
  Name = 
  11 active torsions:
  status: ('A' for Active; 'I' for Inactive)
    1  A    between atoms: C_3  and  C_39
    2  A    between atoms: C_6  and  C_38
    3  A    between atoms: C_7  and  C_12
    4  A    between atoms: C_7  and  C_13
    5  A    between atoms: C_8  and  C_36
    6  A    between atoms: C_8  and  C_40
    7  A    between atoms: C_13  and  C_39
    8  A    between atoms: C_25  and  C_41
    9  A    between atoms: C_31  and  N_37
   10  A    between atoms: C_31  and  C_41
   11  A    between atoms: C_36  and  N_37
                            x       y       z     vdW  Elec       q    Type
                         _______ _______ _______ _____ _____    ______ ____

>  <TORSDO>
F 11

$$$$
=
 OpenBabel11042410393D

 44 50  0  0  1  0  0  0  0  0999 V2000
  183.4270  176.7380  138.6610 C   0  0  0  0  0  0  0  0  0  0  0  0
  182.1960  178.6420  141.5710 S   0  0  0  0  0  0  0  0  0  0  0  0
  186.5320  177.8910  139.1260 C   0  0  2  0  0  3  0  0  0  0  0  0
  188.0000  177.8770  139.6360 C   0  0  2  0  0  0  0  0  0  0  0  0
  188.2950  177.6260  141.1130 C   0  0  1  0  0  3  0  0  0  0  0  0
  185.3630  175.5910  137.9540 F   0  0  0  0  0  0  0  0  0  0  0  0
  183.7270  175.9510  136.4690 F   0  0  0  0  0  0  0  0  0  0  0  0
  182.3530  177.5310  140.3360 C   0  0  0  0  0  0  0  0  0  0  0  0
  184.4010  176.4980  137.5460 C   0  0  0  0  0  0  0  0  0  0  0  0
  188.4700  179.0190  140.5130 C   0  0  0  0  0  2  0  0  0  0  0  0
  189.0730  177.2410  138.7540 C   0  0  0  0  0  2  0  0  0  0  0  0
  181.5260  176.6440  139.7690 N   0  0  0  0  0  0  0  0  0  0  0  0
  183.7630  179.2880  141.3120 C   0  0  0  0  0  3  0  0  0  0  0  0
  182.2010  176.1470  138.7340 N   0  0  0  0  0  0  0  0  0  0  0  0
  186.4280  178.1280  137.6070 C   0  0  2  0  0  3  0  0  0  0  0  0
  183.5260  177.6270  139.7140 C   0  0  2  0  0  3  0  0  0  0  0  0
  189.3180  179.1220  137.1290 C   0  0  0  0  0  1  0  0  0  0  0  0
  185.0160  177.8270  137.0820 C   0  0  0  0  0  2  0  0  0  0  0  0
  184.3680  178.6080  140.2420 C   0  0  0  0  0  0  0  0  0  0  0  0
  185.7120  178.8680  139.8350 N   0  0  0  0  0  2  0  0  0  0  0  0
  187.5000  177.3540  136.8140 C   0  0  2  0  0  3  0  0  0  0  0  0
  188.9260  177.6580  137.2980 C   0  0  2  0  0  3  0  0  0  0  0  0
  187.0640  177.5770  142.0050 C   0  0  0  0  0  2  0  0  0  0  0  0
  187.3800  176.9130  143.3380 C   0  0  0  0  0  2  0  0  0  0  0  0
  186.5700  177.5170  144.4790 C   0  0  0  0  0  2  0  0  0  0  0  0
  189.5100  177.4110  146.8690 C   0  0  0  0  0  0  0  0  0  0  0  0
  187.3920  177.6700  145.7160 C   0  0  0  0  0  0  0  0  0  0  0  0
  187.6190  178.3910  148.0190 C   0  0  0  0  0  3  0  0  0  0  0  0
  186.8390  178.2320  146.8710 C   0  0  0  0  0  3  0  0  0  0  0  0
  189.6950  178.1350  149.1480 F   0  0  0  0  0  0  0  0  0  0  0  0
  190.9320  176.9520  146.8530 C   0  0  0  0  0  1  0  0  0  0  0  0
  188.7290  177.2660  145.7160 C   0  0  0  0  0  3  0  0  0  0  0  0
  188.9550  177.9810  148.0220 C   0  0  0  0  0  0  0  0  0  0  0  0
  187.3500  177.4250  135.2870 C   0  0  0  0  0  2  0  0  0  0  0  0
  187.4330  176.0660  134.6030 C   0  0  0  0  0  2  0  0  0  0  0  0
  187.2830  175.0110  135.5900 N   0  0  0  0  0  2  0  0  0  0  0  0
  188.2480  173.9800  135.2550 C   0  0  0  0  0  2  0  0  0  0  0  0
  189.6100  174.6200  135.0360 C   0  0  0  0  0  2  0  0  0  0  0  0
  191.6890  173.7480  135.8570 O   0  0  0  0  0  0  0  0  0  0  0  0
  191.8660  175.0590  136.3360 C   0  0  1  0  0  3  0  0  0  0  0  0
  189.9600  173.8240  137.3690 O   0  0  0  0  0  1  0  0  0  0  0  0
  190.5190  174.4280  136.2400 C   0  0  1  0  0  0  0  0  0  0  0  0
  192.6030  176.4160  138.2730 C   0  0  0  0  0  1  0  0  0  0  0  0
  192.4300  175.0090  137.7450 C   0  0  0  0  0  2  0  0  0  0  0  0
  1 14  2  0  0  0  0
  3  4  1  0  0  0  0
  3 20  1  1  0  0  0
  4 11  1  6  0  0  0
  4 10  1  0  0  0  0
  4  5  1  0  0  0  0
  5 23  1  1  0  0  0
  7  9  1  0  0  0  0
  8  2  1  0  0  0  0
  9  6  1  0  0  0  0
  9  1  1  0  0  0  0
 10  5  1  0  0  0  0
 12  8  2  0  0  0  0
 13  2  1  0  0  0  0
 14 12  1  0  0  0  0
 15 18  1  6  0  0  0
 15  3  1  0  0  0  0
 16  1  1  6  0  0  0
 16 19  1  0  0  0  0
 16  8  1  0  0  0  0
 18  9  1  0  0  0  0
 19 13  2  0  0  0  0
 20 19  1  0  0  0  0
 21 34  1  6  0  0  0
 21 22  1  0  0  0  0
 21 15  1  0  0  0  0
 22 17  1  1  0  0  0
 22 11  1  0  0  0  0
 23 24  1  0  0  0  0
 24 25  1  0  0  0  0
 25 27  1  0  0  0  0
 26 33  1  0  0  0  0
 27 29  2  0  0  0  0
 28 33  2  0  0  0  0
 29 28  1  0  0  0  0
 31 26  1  0  0  0  0
 32 27  1  0  0  0  0
 32 26  2  0  0  0  0
 33 30  1  0  0  0  0
 35 34  1  0  0  0  0
 35 36  1  0  0  0  0
 37 36  1  0  0  0  0
 38 37  1  0  0  0  0
 38 42  1  0  0  0  0
 39 42  1  0  0  0  0
 39 40  1  0  0  0  0
 40 44  1  1  0  0  0
 42 40  1  0  0  0  0
 42 41  1  1  0  0  0
 44 43  1  0  0  0  0
M  END
>  <MODEL>
3

>  <REMARK>
 VINA RESULT:      -7.3      2.041      3.156
  Name = 
  11 active torsions:
  status: ('A' for Active; 'I' for Inactive)
    1  A    between atoms: C_3  and  C_39
    2  A    between atoms: C_6  and  C_38
    3  A    between atoms: C_7  and  C_12
    4  A    between atoms: C_7  and  C_13
    5  A    between atoms: C_8  and  C_36
    6  A    between atoms: C_8  and  C_40
    7  A    between atoms: C_13  and  C_39
    8  A    between atoms: C_25  and  C_41
    9  A    between atoms: C_31  and  N_37
   10  A    between atoms: C_31  and  C_41
   11  A    between atoms: C_36  and  N_37
                            x       y       z     vdW  Elec       q    Type
                         _______ _______ _______ _____ _____    ______ ____

>  <TORSDO>
F 11

$$$$
=
 OpenBabel11042410393D

 44 50  0  0  1  0  0  0  0  0999 V2000
  186.2720  178.4840  139.8060 C   0  0  0  0  0  0  0  0  0  0  0  0
  187.7300  177.8860  136.4700 S   0  0  0  0  0  0  0  0  0  0  0  0
  183.3640  177.1330  138.8590 C   0  0  2  0  0  3  0  0  0  0  0  0
  182.2910  176.0200  138.6950 C   0  0  2  0  0  0  0  0  0  0  0  0
  182.6660  174.6820  138.0630 C   0  0  1  0  0  3  0  0  0  0  0  0
  184.7500  177.4860  141.3050 F   0  0  0  0  0  0  0  0  0  0  0  0
  185.4870  179.5550  141.7430 F   0  0  0  0  0  0  0  0  0  0  0  0
  187.5340  178.1800  138.1010 C   0  0  0  0  0  0  0  0  0  0  0  0
  185.1080  178.6920  140.7290 C   0  0  0  0  0  0  0  0  0  0  0  0
  181.8060  175.6840  137.2990 C   0  0  0  0  0  2  0  0  0  0  0  0
  181.2670  175.8230  139.8110 C   0  0  0  0  0  2  0  0  0  0  0  0
  188.3490  178.5890  139.0810 N   0  0  0  0  0  0  0  0  0  0  0  0
  186.0580  177.5920  136.2280 C   0  0  0  0  0  3  0  0  0  0  0  0
  187.5630  178.7680  140.1410 N   0  0  0  0  0  2  0  0  0  0  0  0
  182.8120  178.3990  139.5430 C   0  0  2  0  0  3  0  0  0  0  0  0
  186.2610  178.0890  138.4820 C   0  0  0  0  0  0  0  0  0  0  0  0
  179.7980  177.7650  139.2550 C   0  0  0  0  0  1  0  0  0  0  0  0
  183.9420  179.3460  139.9750 C   0  0  0  0  0  2  0  0  0  0  0  0
  185.3840  177.7450  137.4510 C   0  0  0  0  0  0  0  0  0  0  0  0
  183.9860  177.4890  137.5880 N   0  0  0  0  0  2  0  0  0  0  0  0
  181.8710  178.0720  140.7190 C   0  0  2  0  0  3  0  0  0  0  0  0
  180.7130  177.1490  140.3090 C   0  0  2  0  0  3  0  0  0  0  0  0
  184.0720  174.6280  137.4810 C   0  0  0  0  0  2  0  0  0  0  0  0
  184.7650  173.3230  137.8450 C   0  0  0  0  0  2  0  0  0  0  0  0
  184.8250  172.3630  136.6620 C   0  0  0  0  0  2  0  0  0  0  0  0
  188.5800  172.7270  136.3050 C   0  0  0  0  0  0  0  0  0  0  0  0
  186.2260  172.1540  136.1920 C   0  0  0  0  0  0  0  0  0  0  0  0
  187.8310  170.9790  134.8060 C   0  0  0  0  0  3  0  0  0  0  0  0
  186.5140  171.1840  135.2270 C   0  0  0  0  0  3  0  0  0  0  0  0
  190.1380  171.5430  134.9170 F   0  0  0  0  0  0  0  0  0  0  0  0
  189.6700  173.5720  136.8820 C   0  0  0  0  0  1  0  0  0  0  0  0
  187.2620  172.9190  136.7340 C   0  0  0  0  0  3  0  0  0  0  0  0
  188.8670  171.7500  135.3420 C   0  0  0  0  0  0  0  0  0  0  0  0
  181.4140  179.2900  141.5370 C   0  0  0  0  0  2  0  0  0  0  0  0
  181.5750  179.1070  143.0410 C   0  0  0  0  0  2  0  0  0  0  0  0
  182.8190  179.7170  143.4790 N   0  0  0  0  0  2  0  0  0  0  0  0
  183.3230  178.9080  144.5730 C   0  0  0  0  0  2  0  0  0  0  0  0
  184.8430  178.9620  144.5790 C   0  0  0  0  0  2  0  0  0  0  0  0
  186.0420  177.2290  145.7250 O   0  0  0  0  0  0  0  0  0  0  0  0
  186.8780  178.2890  146.1200 C   0  0  1  0  0  3  0  0  0  0  0  0
  184.5450  178.4270  146.9920 O   0  0  0  0  0  1  0  0  0  0  0  0
  185.4160  178.4760  145.9010 C   0  0  1  0  0  0  0  0  0  0  0  0
  188.6430  177.6150  147.7210 C   0  0  0  0  0  1  0  0  0  0  0  0
  187.2280  178.1340  147.5890 C   0  0  0  0  0  2  0  0  0  0  0  0
  1 14  1  0  0  0  0
  1  9  1  0  0  0  0
  2  8  1  0  0  0  0
  3 20  1  6  0  0  0
  3 15  1  0  0  0  0
  4 10  1  6  0  0  0
  4  3  1  0  0  0  0
  4 11  1  0  0  0  0
  5 23  1  6  0  0  0
  5  4  1  0  0  0  0
  8 16  1  0  0  0  0
  8 12  2  0  0  0  0
  9  6  1  0  0  0  0
  9  7  1  0  0  0  0
 10  5  1  0  0  0  0
 11 22  1  0  0  0  0
 12 14  1  0  0  0  0
 13  2  1  0  0  0  0
 13 19  2  0  0  0  0
 15 18  1  1  0  0  0
 15 21  1  0  0  0  0
 16  1  2  0  0  0  0
 18  9  1  0  0  0  0
 19 20  1  0  0  0  0
 19 16  1  0  0  0  0
 21 34  1  6  0  0  0
 22 17  1  6  0  0  0
 22 21  1  0  0  0  0
 23 24  1  0  0  0  0
 25 24  1  0  0  0  0
 26 32  1  0  0  0  0
 26 31  1  0  0  0  0
 27 25  1  0  0  0  0
 27 32  2  0  0  0  0
 28 29  2  0  0  0  0
 28 33  1  0  0  0  0
 29 27  1  0  0  0  0
 30 33  1  0  0  0  0
 33 26  2  0  0  0  0
 34 35  1  0  0  0  0
 35 36  1  0  0  0  0
 36 37  1  0  0  0  0
 37 38  1  0  0  0  0
 38 42  1  0  0  0  0
 39 42  1  0  0  0  0
 39 40  1  0  0  0  0
 40 44  1  1  0  0  0
 42 40  1  0  0  0  0
 42 41  1  1  0  0  0
 44 43  1  0  0  0  0
M  END
>  <MODEL>
4

>  <REMARK>
 VINA RESULT:      -7.2      3.699      8.380
  Name = 
  11 active torsions:
  status: ('A' for Active; 'I' for Inactive)
    1  A    between atoms: C_3  and  C_39
    2  A    between atoms: C_6  and  C_38
    3  A    between atoms: C_7  and  C_12
    4  A    between atoms: C_7  and  C_13
    5  A    between atoms: C_8  and  C_36
    6  A    between atoms: C_8  and  C_40
    7  A    between atoms: C_13  and  C_39
    8  A    between atoms: C_25  and  C_41
    9  A    between atoms: C_31  and  N_37
   10  A    between atoms: C_31  and  C_41
   11  A    between atoms: C_36  and  N_37
                            x       y       z     vdW  Elec       q    Type
                         _______ _______ _______ _____ _____    ______ ____

>  <TORSDO>
F 11

$$$$
=
 OpenBabel11042410393D

 44 50  0  0  1  0  0  0  0  0999 V2000
  189.4200  176.7580  141.1250 C   0  0  0  0  0  0  0  0  0  0  0  0
  189.7020  177.9540  137.6470 S   0  0  0  0  0  0  0  0  0  0  0  0
  186.4320  178.2210  141.4650 C   0  0  2  0  0  3  0  0  0  0  0  0
  184.8810  178.3180  141.4730 C   0  0  2  0  0  0  0  0  0  0  0  0
  184.0790  177.8610  140.2560 C   0  0  1  0  0  3  0  0  0  0  0  0
  187.7720  176.0190  142.6410 F   0  0  0  0  0  0  0  0  0  0  0  0
  189.8390  176.4040  143.4090 F   0  0  0  0  0  0  0  0  0  0  0  0
  189.9040  177.1010  139.0670 C   0  0  0  0  0  0  0  0  0  0  0  0
  188.8750  176.8450  142.5200 C   0  0  0  0  0  0  0  0  0  0  0  0
  184.2170  179.3460  140.5800 C   0  0  0  0  0  2  0  0  0  0  0  0
  184.1360  177.9920  142.7650 C   0  0  0  0  0  2  0  0  0  0  0  0
  190.8130  176.2210  139.5060 N   0  0  0  0  0  0  0  0  0  0  0  0
  188.3680  178.8390  138.2610 C   0  0  0  0  0  3  0  0  0  0  0  0
  190.5020  176.0030  140.7830 N   0  0  0  0  0  2  0  0  0  0  0  0
  187.0680  178.6980  142.7850 C   0  0  2  0  0  3  0  0  0  0  0  0
  189.0260  177.4590  140.0020 C   0  0  0  0  0  0  0  0  0  0  0  0
  184.5950  180.1380  143.9580 C   0  0  0  0  0  1  0  0  0  0  0  0
  188.5500  178.3040  142.8740 C   0  0  0  0  0  2  0  0  0  0  0  0
  188.1240  178.4400  139.5850 C   0  0  0  0  0  0  0  0  0  0  0  0
  187.0230  178.9440  140.3430 N   0  0  0  0  0  2  0  0  0  0  0  0
  186.2840  178.2220  144.0230 C   0  0  2  0  0  3  0  0  0  0  0  0
  184.8030  178.6280  143.9770 C   0  0  2  0  0  3  0  0  0  0  0  0
  184.9220  177.4950  139.0430 C   0  0  0  0  0  2  0  0  0  0  0  0
  184.0420  177.1060  137.8630 C   0  0  0  0  0  2  0  0  0  0  0  0
  184.8690  176.7410  136.6360 C   0  0  0  0  0  2  0  0  0  0  0  0
  187.7050  174.2390  136.8670 C   0  0  0  0  0  0  0  0  0  0  0  0
  185.6110  175.4610  136.8310 C   0  0  0  0  0  0  0  0  0  0  0  0
  185.6320  173.1010  137.3840 C   0  0  0  0  0  3  0  0  0  0  0  0
  184.9290  174.2910  137.1830 C   0  0  0  0  0  3  0  0  0  0  0  0
  187.6860  171.9040  137.4180 F   0  0  0  0  0  0  0  0  0  0  0  0
  189.1880  174.2270  136.6800 C   0  0  0  0  0  1  0  0  0  0  0  0
  186.9990  175.4320  136.6810 C   0  0  0  0  0  3  0  0  0  0  0  0
  187.0200  173.0700  137.2260 C   0  0  0  0  0  0  0  0  0  0  0  0
  186.9550  178.5320  145.3700 C   0  0  0  0  0  2  0  0  0  0  0  0
  186.2400  177.9110  146.5640 C   0  0  0  0  0  2  0  0  0  0  0  0
  186.5730  178.6460  147.7720 N   0  0  0  0  0  2  0  0  0  0  0  0
  187.4820  177.8130  148.5360 C   0  0  0  0  0  2  0  0  0  0  0  0
  188.9130  178.2490  148.2620 C   0  0  0  0  0  2  0  0  0  0  0  0
  190.1390  177.5100  146.3370 O   0  0  0  0  0  0  0  0  0  0  0  0
  191.1660  177.2910  147.2740 C   0  0  1  0  0  3  0  0  0  0  0  0
  189.1470  175.8620  147.5950 O   0  0  0  0  0  1  0  0  0  0  0  0
  189.7270  177.1320  147.6270 C   0  0  1  0  0  0  0  0  0  0  0  0
  192.8040  175.6260  148.0980 C   0  0  0  0  0  1  0  0  0  0  0  0
  191.8410  175.9630  146.9810 C   0  0  0  0  0  2  0  0  0  0  0  0
  1  9  1  0  0  0  0
  2 13  1  0  0  0  0
  2  8  1  0  0  0  0
  3 20  1  6  0  0  0
  3  4  1  0  0  0  0
  3 15  1  0  0  0  0
  4 10  1  6  0  0  0
  4 11  1  0  0  0  0
  5 23  1  6  0  0  0
  5 10  1  0  0  0  0
  5  4  1  0  0  0  0
  8 12  2  0  0  0  0
  8 16  1  0  0  0  0
  9  6  1  0  0  0  0
  9 18  1  0  0  0  0
  9  7  1  0  0  0  0
 11 22  1  0  0  0  0
 12 14  1  0  0  0  0
 13 19  2  0  0  0  0
 14  1  1  0  0  0  0
 15 18  1  1  0  0  0
 15 21  1  0  0  0  0
 16  1  2  0  0  0  0
 19 16  1  0  0  0  0
 19 20  1  0  0  0  0
 21 34  1  1  0  0  0
 22 17  1  6  0  0  0
 22 21  1  0  0  0  0
 24 23  1  0  0  0  0
 25 27  1  0  0  0  0
 25 24  1  0  0  0  0
 26 33  1  0  0  0  0
 27 29  2  0  0  0  0
 29 28  1  0  0  0  0
 31 26  1  0  0  0  0
 32 27  1  0  0  0  0
 32 26  2  0  0  0  0
 33 28  2  0  0  0  0
 33 30  1  0  0  0  0
 34 35  1  0  0  0  0
 35 36  1  0  0  0  0
 36 37  1  0  0  0  0
 38 37  1  0  0  0  0
 39 40  1  0  0  0  0
 39 42  1  0  0  0  0
 40 44  1  6  0  0  0
 40 42  1  0  0  0  0
 42 41  1  1  0  0  0
 42 38  1  0  0  0  0
 44 43  1  0  0  0  0
M  END
>  <MODEL>
5

>  <REMARK>
 VINA RESULT:      -6.9      3.950      8.503
  Name = 
  11 active torsions:
  status: ('A' for Active; 'I' for Inactive)
    1  A    between atoms: C_3  and  C_39
    2  A    between atoms: C_6  and  C_38
    3  A    between atoms: C_7  and  C_12
    4  A    between atoms: C_7  and  C_13
    5  A    between atoms: C_8  and  C_36
    6  A    between atoms: C_8  and  C_40
    7  A    between atoms: C_13  and  C_39
    8  A    between atoms: C_25  and  C_41
    9  A    between atoms: C_31  and  N_37
   10  A    between atoms: C_31  and  C_41
   11  A    between atoms: C_36  and  N_37
                            x       y       z     vdW  Elec       q    Type
                         _______ _______ _______ _____ _____    ______ ____

>  <TORSDO>
F 11

$$$$
=
 OpenBabel11042410393D

 44 50  0  0  1  0  0  0  0  0999 V2000
  183.4280  176.7880  138.5320 C   0  0  0  0  0  0  0  0  0  0  0  0
  181.9370  178.6030  141.3770 S   0  0  0  0  0  0  0  0  0  0  0  0
  186.4770  177.9210  139.3100 C   0  0  2  0  0  3  0  0  0  0  0  0
  187.8930  177.8900  139.9500 C   0  0  2  0  0  0  0  0  0  0  0  0
  188.0550  177.5930  141.4400 C   0  0  1  0  0  3  0  0  0  0  0  0
  185.4210  175.6600  137.9680 F   0  0  0  0  0  0  0  0  0  0  0  0
  183.9260  176.0680  136.3530 F   0  0  0  0  0  0  0  0  0  0  0  0
  182.2060  177.5300  140.1280 C   0  0  0  0  0  0  0  0  0  0  0  0
  184.5000  176.5810  137.5030 C   0  0  0  0  0  0  0  0  0  0  0  0
  188.2810  179.0030  140.9020 C   0  0  0  0  0  2  0  0  0  0  0  0
  189.0420  177.2800  139.1500 C   0  0  0  0  0  2  0  0  0  0  0  0
  181.4350  176.6620  139.4610 N   0  0  0  0  0  0  0  0  0  0  0  0
  183.5210  179.2540  141.2800 C   0  0  0  0  0  3  0  0  0  0  0  0
  182.2020  176.1960  138.4760 N   0  0  0  0  0  0  0  0  0  0  0  0
  186.5100  178.2050  137.7970 C   0  0  2  0  0  3  0  0  0  0  0  0
  183.4300  177.6440  139.6170 C   0  0  2  0  0  3  0  0  0  0  0  0
  189.4300  179.2090  137.6120 C   0  0  0  0  0  1  0  0  0  0  0  0
  185.1520  177.9220  137.1380 C   0  0  0  0  0  2  0  0  0  0  0  0
  184.2200  178.6070  140.2490 C   0  0  0  0  0  0  0  0  0  0  0  0
  185.5950  178.8770  139.9730 N   0  0  0  0  0  2  0  0  0  0  0  0
  187.6510  177.4540  137.0810 C   0  0  2  0  0  3  0  0  0  0  0  0
  189.0260  177.7410  137.7000 C   0  0  2  0  0  3  0  0  0  0  0  0
  186.7480  177.5180  142.2150 C   0  0  0  0  0  2  0  0  0  0  0  0
  186.8070  178.3750  143.4720 C   0  0  0  0  0  2  0  0  0  0  0  0
  186.4960  177.5660  144.7260 C   0  0  0  0  0  2  0  0  0  0  0  0
  190.0780  177.1270  145.8840 C   0  0  0  0  0  0  0  0  0  0  0  0
  187.6890  177.4490  145.6160 C   0  0  0  0  0  0  0  0  0  0  0  0
  188.6790  177.4830  147.8280 C   0  0  0  0  0  3  0  0  0  0  0  0
  187.5560  177.5730  147.0020 C   0  0  0  0  0  3  0  0  0  0  0  0
  191.0210  177.1650  148.0900 F   0  0  0  0  0  0  0  0  0  0  0  0
  191.4160  176.8740  145.2690 C   0  0  0  0  0  1  0  0  0  0  0  0
  188.9520  177.2330  145.0590 C   0  0  0  0  0  3  0  0  0  0  0  0
  189.9420  177.2590  147.2730 C   0  0  0  0  0  0  0  0  0  0  0  0
  187.6390  177.5730  135.5490 C   0  0  0  0  0  2  0  0  0  0  0  0
  188.7700  176.8100  134.8710 C   0  0  0  0  0  2  0  0  0  0  0  0
  188.4790  175.3870  134.8850 N   0  0  0  0  0  2  0  0  0  0  0  0
  189.6670  174.7190  135.3830 C   0  0  0  0  0  2  0  0  0  0  0  0
  189.3170  173.9480  136.6460 C   0  0  0  0  0  2  0  0  0  0  0  0
  187.9020  172.2530  137.5860 O   0  0  0  0  0  0  0  0  0  0  0  0
  186.8670  173.0940  137.1370 C   0  0  1  0  0  3  0  0  0  0  0  0
  188.2710  172.1180  135.3210 O   0  0  0  0  0  1  0  0  0  0  0  0
  188.1650  172.9830  136.4130 C   0  0  1  0  0  0  0  0  0  0  0  0
  184.4650  172.4960  137.2180 C   0  0  0  0  0  1  0  0  0  0  0  0
  185.7750  172.2530  136.5010 C   0  0  0  0  0  2  0  0  0  0  0  0
  3  4  1  0  0  0  0
  3 20  1  1  0  0  0
  4 11  1  6  0  0  0
  4 10  1  0  0  0  0
  4  5  1  0  0  0  0
  5 23  1  1  0  0  0
  7  9  1  0  0  0  0
  8  2  1  0  0  0  0
  9  6  1  0  0  0  0
  9  1  1  0  0  0  0
 10  5  1  0  0  0  0
 12  8  2  0  0  0  0
 13  2  1  0  0  0  0
 14  1  2  0  0  0  0
 14 12  1  0  0  0  0
 15 18  1  6  0  0  0
 15  3  1  0  0  0  0
 16  1  1  6  0  0  0
 16  8  1  0  0  0  0
 16 19  1  0  0  0  0
 18  9  1  0  0  0  0
 19 13  2  0  0  0  0
 20 19  1  0  0  0  0
 21 34  1  6  0  0  0
 21 22  1  0  0  0  0
 21 15  1  0  0  0  0
 22 17  1  1  0  0  0
 22 11  1  0  0  0  0
 23 24  1  0  0  0  0
 24 25  1  0  0  0  0
 25 27  1  0  0  0  0
 26 33  1  0  0  0  0
 27 29  2  0  0  0  0
 29 28  1  0  0  0  0
 31 26  1  0  0  0  0
 32 27  1  0  0  0  0
 32 26  2  0  0  0  0
 33 28  2  0  0  0  0
 33 30  1  0  0  0  0
 35 36  1  0  0  0  0
 35 34  1  0  0  0  0
 36 37  1  0  0  0  0
 37 38  1  0  0  0  0
 40 44  1  6  0  0  0
 40 39  1  0  0  0  0
 42 41  1  6  0  0  0
 42 38  1  0  0  0  0
 42 40  1  0  0  0  0
 42 39  1  0  0  0  0
 44 43  1  0  0  0  0
M  END
>  <MODEL>
6

>  <REMARK>
 VINA RESULT:      -6.9      2.276      3.725
  Name = 
  11 active torsions:
  status: ('A' for Active; 'I' for Inactive)
    1  A    between atoms: C_3  and  C_39
    2  A    between atoms: C_6  and  C_38
    3  A    between atoms: C_7  and  C_12
    4  A    between atoms: C_7  and  C_13
    5  A    between atoms: C_8  and  C_36
    6  A    between atoms: C_8  and  C_40
    7  A    between atoms: C_13  and  C_39
    8  A    between atoms: C_25  and  C_41
    9  A    between atoms: C_31  and  N_37
   10  A    between atoms: C_31  and  C_41
   11  A    between atoms: C_36  and  N_37
                            x       y       z     vdW  Elec       q    Type
                         _______ _______ _______ _____ _____    ______ ____

>  <TORSDO>
F 11

$$$$
=
 OpenBabel11042410393D

 44 50  0  0  1  0  0  0  0  0999 V2000
  180.2230  176.3560  140.0490 C   0  0  0  0  0  0  0  0  0  0  0  0
  179.8160  179.6560  141.6480 S   0  0  0  0  0  0  0  0  0  0  0  0
  182.9280  177.4100  138.3890 C   0  0  2  0  0  3  0  0  0  0  0  0
  184.4430  177.6250  138.1140 C   0  0  2  0  0  0  0  0  0  0  0  0
  185.3310  178.2670  139.1770 C   0  0  1  0  0  3  0  0  0  0  0  0
  181.9400  174.9190  139.3090 F   0  0  0  0  0  0  0  0  0  0  0  0
  179.8240  174.4260  138.7720 F   0  0  0  0  0  0  0  0  0  0  0  0
  179.7280  178.0270  141.2950 C   0  0  0  0  0  0  0  0  0  0  0  0
  180.7210  175.4640  138.9500 C   0  0  0  0  0  0  0  0  0  0  0  0
  184.9480  179.0390  137.9180 C   0  0  0  0  0  2  0  0  0  0  0  0
  185.2060  176.5430  137.3530 C   0  0  0  0  0  2  0  0  0  0  0  0
  178.9660  177.0170  141.7320 N   0  0  0  0  0  0  0  0  0  0  0  0
  180.9780  179.9520  140.4220 C   0  0  0  0  0  3  0  0  0  0  0  0
  179.2840  175.9780  140.9620 N   0  0  0  0  0  2  0  0  0  0  0  0
  182.1990  176.7230  137.2190 C   0  0  2  0  0  3  0  0  0  0  0  0
  180.5190  177.6860  140.2800 C   0  0  0  0  0  0  0  0  0  0  0  0
  184.3840  177.1110  135.0640 C   0  0  0  0  0  1  0  0  0  0  0  0
  180.7980  176.2430  137.6280 C   0  0  0  0  0  2  0  0  0  0  0  0
  181.2590  178.7480  139.7560 C   0  0  0  0  0  0  0  0  0  0  0  0
  182.2490  178.6570  138.7310 N   0  0  0  0  0  2  0  0  0  0  0  0
  183.0260  175.5820  136.5960 C   0  0  2  0  0  3  0  0  0  0  0  0
  184.4220  176.0400  136.1490 C   0  0  2  0  0  3  0  0  0  0  0  0
  184.5810  178.8060  140.3870 C   0  0  0  0  0  2  0  0  0  0  0  0
  185.3300  178.5010  141.6760 C   0  0  0  0  0  2  0  0  0  0  0  0
  184.3990  178.4790  142.8820 C   0  0  0  0  0  2  0  0  0  0  0  0
  187.2060  177.8190  145.3410 C   0  0  0  0  0  0  0  0  0  0  0  0
  185.1580  178.3650  144.1630 C   0  0  0  0  0  0  0  0  0  0  0  0
  185.2810  178.6230  146.5700 C   0  0  0  0  0  3  0  0  0  0  0  0
  184.5580  178.7140  145.3770 C   0  0  0  0  0  3  0  0  0  0  0  0
  187.2890  178.0860  147.7240 F   0  0  0  0  0  0  0  0  0  0  0  0
  188.6160  177.3240  145.3040 C   0  0  0  0  0  1  0  0  0  0  0  0
  186.4840  177.9240  144.1470 C   0  0  0  0  0  3  0  0  0  0  0  0
  186.6050  178.1750  146.5560 C   0  0  0  0  0  0  0  0  0  0  0  0
  182.2890  174.7580  135.5300 C   0  0  0  0  0  2  0  0  0  0  0  0
  182.8930  173.3780  135.3010 C   0  0  0  0  0  2  0  0  0  0  0  0
  182.6350  172.5320  136.4530 N   0  0  0  0  0  2  0  0  0  0  0  0
  183.8900  171.8890  136.7940 C   0  0  0  0  0  2  0  0  0  0  0  0
  184.9770  172.3770  135.8480 C   0  0  0  0  0  2  0  0  0  0  0  0
  187.2680  171.8950  136.3740 O   0  0  0  0  0  0  0  0  0  0  0  0
  187.4830  173.2060  135.9110 C   0  0  1  0  0  3  0  0  0  0  0  0
  186.0870  173.0510  137.9730 O   0  0  0  0  0  1  0  0  0  0  0  0
  186.2240  172.8100  136.6040 C   0  0  1  0  0  0  0  0  0  0  0  0
  189.8740  173.5650  136.4470 C   0  0  0  0  0  1  0  0  0  0  0  0
  188.4550  173.9150  136.8370 C   0  0  0  0  0  2  0  0  0  0  0  0
  1 16  2  0  0  0  0
  1 14  1  0  0  0  0
  3 20  1  6  0  0  0
  4 11  1  6  0  0  0
  4  3  1  0  0  0  0
  4  5  1  0  0  0  0
  5 23  1  1  0  0  0
  7  9  1  0  0  0  0
  8  2  1  0  0  0  0
  8 12  2  0  0  0  0
  9  6  1  0  0  0  0
  9  1  1  0  0  0  0
 10  4  1  0  0  0  0
 10  5  1  0  0  0  0
 13  2  1  0  0  0  0
 14 12  1  0  0  0  0
 15 18  1  1  0  0  0
 15  3  1  0  0  0  0
 16  8  1  0  0  0  0
 18  9  1  0  0  0  0
 19 16  1  0  0  0  0
 19 13  2  0  0  0  0
 20 19  1  0  0  0  0
 21 34  1  6  0  0  0
 21 15  1  0  0  0  0
 22 17  1  6  0  0  0
 22 21  1  0  0  0  0
 22 11  1  0  0  0  0
 23 24  1  0  0  0  0
 24 25  1  0  0  0  0
 25 27  1  0  0  0  0
 26 33  1  0  0  0  0
 27 29  2  0  0  0  0
 29 28  1  0  0  0  0
 31 26  1  0  0  0  0
 32 27  1  0  0  0  0
 32 26  2  0  0  0  0
 33 28  2  0  0  0  0
 33 30  1  0  0  0  0
 35 34  1  0  0  0  0
 35 36  1  0  0  0  0
 36 37  1  0  0  0  0
 38 42  1  0  0  0  0
 38 37  1  0  0  0  0
 39 42  1  0  0  0  0
 40 39  1  0  0  0  0
 40 42  1  0  0  0  0
 40 44  1  1  0  0  0
 42 41  1  1  0  0  0
 43 44  1  0  0  0  0
M  END
>  <MODEL>
7

>  <REMARK>
 VINA RESULT:      -6.8      2.530      3.682
  Name = 
  11 active torsions:
  status: ('A' for Active; 'I' for Inactive)
    1  A    between atoms: C_3  and  C_39
    2  A    between atoms: C_6  and  C_38
    3  A    between atoms: C_7  and  C_12
    4  A    between atoms: C_7  and  C_13
    5  A    between atoms: C_8  and  C_36
    6  A    between atoms: C_8  and  C_40
    7  A    between atoms: C_13  and  C_39
    8  A    between atoms: C_25  and  C_41
    9  A    between atoms: C_31  and  N_37
   10  A    between atoms: C_31  and  C_41
   11  A    between atoms: C_36  and  N_37
                            x       y       z     vdW  Elec       q    Type
                         _______ _______ _______ _____ _____    ______ ____

>  <TORSDO>
F 11

$$$$
=
 OpenBabel11042410393D

 44 50  0  0  1  0  0  0  0  0999 V2000
  188.1740  178.0560  140.5190 C   0  0  0  0  0  0  0  0  0  0  0  0
  189.0570  178.4470  136.9580 S   0  0  0  0  0  0  0  0  0  0  0  0
  184.9120  178.0300  139.7850 C   0  0  2  0  0  3  0  0  0  0  0  0
  183.5230  177.4080  139.4700 C   0  0  2  0  0  0  0  0  0  0  0  0
  183.3800  176.3790  138.3500 C   0  0  1  0  0  3  0  0  0  0  0  0
  186.5450  177.0020  141.8590 F   0  0  0  0  0  0  0  0  0  0  0  0
  187.9570  178.4470  142.8240 F   0  0  0  0  0  0  0  0  0  0  0  0
  189.1110  178.1170  138.5930 C   0  0  0  0  0  0  0  0  0  0  0  0
  187.2290  178.1900  141.6760 C   0  0  0  0  0  0  0  0  0  0  0  0
  182.8340  177.7930  138.1760 C   0  0  0  0  0  2  0  0  0  0  0  0
  182.5920  177.0730  140.6340 C   0  0  0  0  0  2  0  0  0  0  0  0
  190.0980  177.8700  139.4630 N   0  0  0  0  0  0  0  0  0  0  0  0
  187.3670  178.7370  136.9800 C   0  0  0  0  0  3  0  0  0  0  0  0
  189.5100  177.8230  140.6580 N   0  0  0  0  0  2  0  0  0  0  0  0
  184.8700  179.0220  140.9620 C   0  0  2  0  0  3  0  0  0  0  0  0
  187.9180  178.2320  139.1730 C   0  0  0  0  0  0  0  0  0  0  0  0
  181.8020  179.3950  141.1010 C   0  0  0  0  0  1  0  0  0  0  0  0
  186.2810  179.3780  141.4530 C   0  0  0  0  0  2  0  0  0  0  0  0
  186.8900  178.5740  138.2910 C   0  0  0  0  0  0  0  0  0  0  0  0
  185.5030  178.6740  138.6160 N   0  0  0  0  0  2  0  0  0  0  0  0
  183.9800  178.5280  142.1190 C   0  0  2  0  0  3  0  0  0  0  0  0
  182.5520  178.1920  141.6640 C   0  0  2  0  0  3  0  0  0  0  0  0
  184.6330  176.1800  137.5100 C   0  0  0  0  0  2  0  0  0  0  0  0
  184.2780  175.8690  136.0630 C   0  0  0  0  0  2  0  0  0  0  0  0
  184.5150  174.4020  135.7220 C   0  0  0  0  0  2  0  0  0  0  0  0
  180.9950  173.1510  136.3600 C   0  0  0  0  0  0  0  0  0  0  0  0
  183.3820  173.5410  136.1720 C   0  0  0  0  0  0  0  0  0  0  0  0
  182.5600  171.5050  137.2000 C   0  0  0  0  0  3  0  0  0  0  0  0
  183.6260  172.3160  136.7990 C   0  0  0  0  0  3  0  0  0  0  0  0
  180.2210  171.1250  137.3850 F   0  0  0  0  0  0  0  0  0  0  0  0
  179.5950  173.6210  136.1300 C   0  0  0  0  0  1  0  0  0  0  0  0
  182.0650  173.9530  135.9480 C   0  0  0  0  0  3  0  0  0  0  0  0
  181.2430  171.9200  136.9830 C   0  0  0  0  0  0  0  0  0  0  0  0
  184.0230  179.3990  143.3840 C   0  0  0  0  0  2  0  0  0  0  0  0
  184.8410  178.7890  144.5150 C   0  0  0  0  0  2  0  0  0  0  0  0
  184.1580  178.9940  145.7810 N   0  0  0  0  0  2  0  0  0  0  0  0
  184.9220  178.2890  146.7920 C   0  0  0  0  0  2  0  0  0  0  0  0
  186.1700  179.0910  147.1290 C   0  0  0  0  0  2  0  0  0  0  0  0
  187.1990  177.0280  146.4670 O   0  0  0  0  0  0  0  0  0  0  0  0
  188.2320  177.8730  146.0190 C   0  0  1  0  0  3  0  0  0  0  0  0
  187.8750  177.8900  148.4880 O   0  0  0  0  0  1  0  0  0  0  0  0
  187.4020  178.2040  147.2110 C   0  0  1  0  0  0  0  0  0  0  0  0
  190.5410  177.4270  145.2430 C   0  0  0  0  0  1  0  0  0  0  0  0
  189.5740  177.2710  146.3960 C   0  0  0  0  0  2  0  0  0  0  0  0
  1 14  1  0  0  0  0
  1  9  1  0  0  0  0
  2 13  1  0  0  0  0
  2  8  1  0  0  0  0
  3 20  1  6  0  0  0
  3 15  1  0  0  0  0
  4 10  1  6  0  0  0
  4  3  1  0  0  0  0
  4 11  1  0  0  0  0
  5 23  1  6  0  0  0
  5  4  1  0  0  0  0
  8 16  1  0  0  0  0
  8 12  2  0  0  0  0
  9  6  1  0  0  0  0
  9  7  1  0  0  0  0
 10  5  1  0  0  0  0
 11 22  1  0  0  0  0
 12 14  1  0  0  0  0
 13 19  2  0  0  0  0
 15 18  1  1  0  0  0
 15 21  1  0  0  0  0
 16  1  2  0  0  0  0
 18  9  1  0  0  0  0
 19 20  1  0  0  0  0
 19 16  1  0  0  0  0
 21 34  1  1  0  0  0
 22 17  1  6  0  0  0
 22 21  1  0  0  0  0
 24 23  1  0  0  0  0
 25 24  1  0  0  0  0
 25 27  1  0  0  0  0
 26 33  1  0  0  0  0
 27 29  2  0  0  0  0
 29 28  1  0  0  0  0
 31 26  1  0  0  0  0
 32 27  1  0  0  0  0
 32 26  2  0  0  0  0
 33 28  2  0  0  0  0
 33 30  1  0  0  0  0
 34 35  1  0  0  0  0
 35 36  1  0  0  0  0
 36 37  1  0  0  0  0
 37 38  1  0  0  0  0
 38 42  1  0  0  0  0
 39 42  1  0  0  0  0
 40 44  1  1  0  0  0
 40 39  1  0  0  0  0
 40 42  1  0  0  0  0
 42 41  1  1  0  0  0
 43 44  1  0  0  0  0
M  END
>  <MODEL>
8

>  <REMARK>
 VINA RESULT:      -6.6      3.721      8.583
  Name = 
  11 active torsions:
  status: ('A' for Active; 'I' for Inactive)
    1  A    between atoms: C_3  and  C_39
    2  A    between atoms: C_6  and  C_38
    3  A    between atoms: C_7  and  C_12
    4  A    between atoms: C_7  and  C_13
    5  A    between atoms: C_8  and  C_36
    6  A    between atoms: C_8  and  C_40
    7  A    between atoms: C_13  and  C_39
    8  A    between atoms: C_25  and  C_41
    9  A    between atoms: C_31  and  N_37
   10  A    between atoms: C_31  and  C_41
   11  A    between atoms: C_36  and  N_37
                            x       y       z     vdW  Elec       q    Type
                         _______ _______ _______ _____ _____    ______ ____

>  <TORSDO>
F 11

$$$$
=
 OpenBabel11042410393D

 44 50  0  0  1  0  0  0  0  0999 V2000
  187.9720  178.0640  140.8860 C   0  0  0  0  0  0  0  0  0  0  0  0
  189.1160  178.4850  137.4040 S   0  0  0  0  0  0  0  0  0  0  0  0
  184.7720  178.0700  139.9140 C   0  0  2  0  0  3  0  0  0  0  0  0
  183.4060  177.4620  139.4910 C   0  0  2  0  0  0  0  0  0  0  0  0
  183.3380  176.4460  138.3530 C   0  0  1  0  0  3  0  0  0  0  0  0
  186.2410  177.0090  142.0910 F   0  0  0  0  0  0  0  0  0  0  0  0
  187.5880  178.4320  143.1730 F   0  0  0  0  0  0  0  0  0  0  0  0
  189.0480  178.1380  139.0350 C   0  0  0  0  0  0  0  0  0  0  0  0
  186.9450  178.1940  141.9720 C   0  0  0  0  0  0  0  0  0  0  0  0
  182.8170  177.8670  138.1550 C   0  0  0  0  0  2  0  0  0  0  0  0
  182.3900  177.1220  140.5800 C   0  0  0  0  0  2  0  0  0  0  0  0
  189.9670  177.8740  139.9720 N   0  0  0  0  0  0  0  0  0  0  0  0
  187.4320  178.7880  137.3050 C   0  0  0  0  0  3  0  0  0  0  0  0
  189.2920  177.8190  141.1200 N   0  0  0  0  0  2  0  0  0  0  0  0
  184.6510  179.0510  141.0960 C   0  0  2  0  0  3  0  0  0  0  0  0
  187.8170  178.2560  139.5260 C   0  0  0  0  0  0  0  0  0  0  0  0
  181.5840  179.4460  141.0130 C   0  0  0  0  0  1  0  0  0  0  0  0
  186.0250  179.3910  141.6920 C   0  0  0  0  0  2  0  0  0  0  0  0
  186.8590  178.6140  138.5750 C   0  0  0  0  0  0  0  0  0  0  0  0
  185.4520  178.7220  138.7990 N   0  0  0  0  0  2  0  0  0  0  0  0
  183.6740  178.5510  142.1790 C   0  0  2  0  0  3  0  0  0  0  0  0
  182.2820  178.2320  141.6160 C   0  0  2  0  0  3  0  0  0  0  0  0
  184.6480  176.2460  137.6050 C   0  0  0  0  0  2  0  0  0  0  0  0
  184.5730  175.0380  136.6820 C   0  0  0  0  0  2  0  0  0  0  0  0
  185.7060  174.0530  136.9410 C   0  0  0  0  0  2  0  0  0  0  0  0
  189.3790  174.9570  136.7060 C   0  0  0  0  0  0  0  0  0  0  0  0
  187.0060  174.5560  136.4060 C   0  0  0  0  0  0  0  0  0  0  0  0
  188.3120  175.5220  134.6070 C   0  0  0  0  0  3  0  0  0  0  0  0
  187.0880  175.0710  135.1090 C   0  0  0  0  0  3  0  0  0  0  0  0
  190.6380  175.9160  134.9020 F   0  0  0  0  0  0  0  0  0  0  0  0
  190.5910  174.9020  137.5790 C   0  0  0  0  0  1  0  0  0  0  0  0
  188.1550  174.4940  137.1990 C   0  0  0  0  0  3  0  0  0  0  0  0
  189.4600  175.4670  135.4030 C   0  0  0  0  0  0  0  0  0  0  0  0
  183.6310  179.4090  143.4530 C   0  0  0  0  0  2  0  0  0  0  0  0
  183.9290  178.6250  144.7250 C   0  0  0  0  0  2  0  0  0  0  0  0
  185.0990  179.1820  145.3810 N   0  0  0  0  0  2  0  0  0  0  0  0
  185.4410  178.2830  146.4670 C   0  0  0  0  0  2  0  0  0  0  0  0
  186.6410  178.8380  147.2190 C   0  0  0  0  0  2  0  0  0  0  0  0
  187.8170  177.1340  146.0060 O   0  0  0  0  0  0  0  0  0  0  0  0
  188.9290  177.9670  146.2300 C   0  0  1  0  0  3  0  0  0  0  0  0
  187.9250  176.9980  148.2980 O   0  0  0  0  0  1  0  0  0  0  0  0
  187.8090  177.8640  147.2090 C   0  0  1  0  0  0  0  0  0  0  0  0
  191.0790  177.0110  145.4580 C   0  0  0  0  0  1  0  0  0  0  0  0
  190.1230  177.1170  146.6250 C   0  0  0  0  0  2  0  0  0  0  0  0
  1 14  1  0  0  0  0
  1  9  1  0  0  0  0
  2  8  1  0  0  0  0
  3 20  1  6  0  0  0
  3 15  1  0  0  0  0
  4 10  1  6  0  0  0
  4  3  1  0  0  0  0
  4 11  1  0  0  0  0
  5 23  1  6  0  0  0
  5  4  1  0  0  0  0
  8 16  1  0  0  0  0
  8 12  2  0  0  0  0
  9  6  1  0  0  0  0
  9  7  1  0  0  0  0
 10  5  1  0  0  0  0
 11 22  1  0  0  0  0
 12 14  1  0  0  0  0
 13  2  1  0  0  0  0
 13 19  2  0  0  0  0
 15 18  1  1  0  0  0
 15 21  1  0  0  0  0
 16  1  2  0  0  0  0
 18  9  1  0  0  0  0
 19 20  1  0  0  0  0
 19 16  1  0  0  0  0
 21 34  1  1  0  0  0
 22 17  1  6  0  0  0
 22 21  1  0  0  0  0
 24 25  1  0  0  0  0
 24 23  1  0  0  0  0
 26 32  1  0  0  0  0
 26 31  1  0  0  0  0
 27 25  1  0  0  0  0
 27 32  2  0  0  0  0
 28 29  2  0  0  0  0
 28 33  1  0  0  0  0
 29 27  1  0  0  0  0
 30 33  1  0  0  0  0
 33 26  2  0  0  0  0
 34 35  1  0  0  0  0
 35 36  1  0  0  0  0
 36 37  1  0  0  0  0
 37 38  1  0  0  0  0
 39 40  1  0  0  0  0
 39 42  1  0  0  0  0
 40 44  1  1  0  0  0
 40 42  1  0  0  0  0
 42 38  1  0  0  0  0
 42 41  1  1  0  0  0
 43 44  1  0  0  0  0
M  END
>  <MODEL>
9

>  <REMARK>
 VINA RESULT:      -6.5      3.717      8.266
  Name = 
  11 active torsions:
  status: ('A' for Active; 'I' for Inactive)
    1  A    between atoms: C_3  and  C_39
    2  A    between atoms: C_6  and  C_38
    3  A    between atoms: C_7  and  C_12
    4  A    between atoms: C_7  and  C_13
    5  A    between atoms: C_8  and  C_36
    6  A    between atoms: C_8  and  C_40
    7  A    between atoms: C_13  and  C_39
    8  A    between atoms: C_25  and  C_41
    9  A    between atoms: C_31  and  N_37
   10  A    between atoms: C_31  and  C_41
   11  A    between atoms: C_36  and  N_37
                            x       y       z     vdW  Elec       q    Type
                         _______ _______ _______ _____ _____    ______ ____

>  <TORSDO>
F 11

$$$$
