=
 OpenBabel11042410523D

 63 68  0  0  1  0  0  0  0  0999 V2000
  190.3550  177.4450  143.9130 N   0  0  0  0  0  0  0  0  0  0  0  0
  189.1700  177.0460  144.3350 C   0  0  0  0  0  0  0  0  0  0  0  0
  188.2190  178.0460  148.4640 C   0  0  0  0  0  0  0  0  0  0  0  0
  188.8410  177.7280  145.6880 C   0  0  0  0  0  0  0  0  0  0  0  0
  189.8050  177.6070  146.7100 C   0  0  0  0  0  3  0  0  0  0  0  0
  189.5100  177.7370  148.0540 C   0  0  0  0  0  3  0  0  0  0  0  0
  187.5410  178.1260  146.1030 C   0  0  0  0  0  3  0  0  0  0  0  0
  187.2530  178.3110  147.5010 C   0  0  0  0  0  3  0  0  0  0  0  0
  187.9090  178.1290  149.8310 O   0  0  0  0  0  1  0  0  0  0  0  0
  188.3400  176.1200  143.4840 C   0  0  0  0  0  0  0  0  0  0  0  0
  188.8540  175.1350  142.8710 O   0  0  0  0  0  0  0  0  0  0  0  0
  186.9080  176.2870  143.2910 C   0  0  0  0  0  3  0  0  0  0  0  0
  186.3670  177.4980  143.1270 C   0  0  0  0  0  0  0  0  0  0  0  0
  185.7760  178.7120  142.9750 C   0  0  0  0  0  3  0  0  0  0  0  0
  184.5140  178.8270  142.2060 C   0  0  0  0  0  0  0  0  0  0  0  0
  183.4460  178.8280  139.9150 C   0  0  0  0  0  2  0  0  0  0  0  0
  182.1490  178.6770  140.5900 N   0  0  0  0  0  0  0  0  0  0  0  0
  184.6060  178.8280  140.8940 C   0  0  0  0  0  3  0  0  0  0  0  0
  181.0960  178.5500  139.6330 C   0  0  0  0  0  0  0  0  0  0  0  0
  183.1360  178.8570  142.8640 C   0  0  0  0  0  0  0  0  0  0  0  0
  182.0270  178.6740  142.0650 C   0  0  0  0  0  0  0  0  0  0  0  0
  183.0550  178.8790  144.3200 C   0  0  0  0  0  1  0  0  0  0  0  0
  179.9170  178.3200  140.0530 O   0  0  0  0  0  0  0  0  0  0  0  0
  180.2690  178.0510  143.8650 C   0  0  0  0  0  1  0  0  0  0  0  0
  180.1380  180.2850  142.8270 C   0  0  0  0  0  1  0  0  0  0  0  0
  180.5800  178.8700  142.6340 C   0  0  0  0  0  3  0  0  0  0  0  0
  181.2650  178.5930  138.1280 C   0  0  0  0  0  0  0  0  0  0  0  0
  181.6300  177.5490  137.5370 O   0  0  0  0  0  0  0  0  0  0  0  0
  181.0710  181.1290  137.8360 C   0  0  0  0  0  3  0  0  0  0  0  0
  180.9710  183.5480  137.5350 N   0  0  0  0  0  1  0  0  0  0  0  0
  180.4820  182.0630  135.7000 C   0  0  0  0  0  3  0  0  0  0  0  0
  180.4130  180.7970  135.1320 C   0  0  0  0  0  3  0  0  0  0  0  0
  180.8430  182.2390  137.0410 C   0  0  0  0  0  0  0  0  0  0  0  0
  180.6640  179.6760  135.9200 C   0  0  0  0  0  3  0  0  0  0  0  0
  181.0030  179.8270  137.2910 C   0  0  0  0  0  0  0  0  0  0  0  0
  191.2130  177.4300  142.6910 C   0  0  0  0  0  2  0  0  0  0  0  0
  188.6640  178.8410  140.1840 C   0  0  0  0  0  3  0  0  0  0  0  0
  190.2980  177.5080  141.4380 C   0  0  0  0  0  0  0  0  0  0  0  0
  188.9500  178.1020  139.0830 C   0  0  0  0  0  3  0  0  0  0  0  0
  188.8330  179.1470  142.4680 F   0  0  0  0  0  0  0  0  0  0  0  0
  189.7750  176.9930  139.1220 C   0  0  0  0  0  0  0  0  0  0  0  0
  190.4800  176.7250  140.3010 C   0  0  0  0  0  3  0  0  0  0  0  0
  189.3390  178.4960  141.3900 C   0  0  0  0  0  0  0  0  0  0  0  0
  191.1880  176.0470  137.1250 C   0  0  2  0  0  3  0  0  0  0  0  0
  189.9710  176.2770  137.9430 N   0  0  0  0  0  0  0  0  0  0  0  0
  191.1330  174.6380  136.9810 N   0  0  1  0  0  0  0  0  0  0  0  0
  192.5630  176.4740  137.7100 C   0  0  0  0  0  1  0  0  0  0  0  0
  188.9810  175.2160  137.6400 C   0  0  0  0  0  2  0  0  0  0  0  0
  189.7400  174.2510  136.8250 C   0  0  0  0  0  2  0  0  0  0  0  0
  191.9890  174.1580  135.9410 C   0  0  1  0  0  3  0  0  0  0  0  0
  192.8500  173.0800  136.6880 C   0  0  1  0  0  3  0  0  0  0  0  0
  192.0050  172.7420  135.6430 O   0  0  0  0  0  0  0  0  0  0  0  0
  194.7100  174.5200  135.5470 O   0  0  0  0  0  1  0  0  0  0  0  0
  194.4020  173.3320  136.3510 C   0  0  2  0  0  3  0  0  0  0  0  0
  195.2630  172.1160  135.8560 C   0  0  0  0  0  2  0  0  0  0  0  0
  197.0170  170.6860  136.4560 O   0  0  0  0  0  1  0  0  0  0  0  0
  196.7080  172.0570  136.3030 C   0  0  2  0  0  3  0  0  0  0  0  0
  196.7490  172.7430  137.6570 C   0  0  0  0  0  2  0  0  0  0  0  0
  196.8360  175.0450  139.5480 O   0  0  0  0  0  0  0  0  0  0  0  0
  197.6940  173.8510  137.7140 N   0  0  0  0  0  0  0  0  0  0  0  0
  198.2900  174.2530  136.4550 C   0  0  0  0  0  1  0  0  0  0  0  0
  197.8250  174.6910  138.8700 C   0  0  0  0  0  0  0  0  0  0  0  0
  199.1710  175.0390  139.3370 C   0  0  0  0  0  1  0  0  0  0  0  0
  1  2  2  0  0  0  0
  2  4  1  0  0  0  0
  3  9  1  0  0  0  0
  4  7  2  0  0  0  0
  4  5  1  0  0  0  0
  5  6  2  0  0  0  0
  6  3  1  0  0  0  0
  7  8  1  0  0  0  0
  8  3  2  0  0  0  0
 10  2  1  0  0  0  0
 11 10  2  0  0  0  0
 12 10  1  0  0  0  0
 13 12  2  0  0  0  0
 14 13  2  0  0  0  0
 15 20  1  0  0  0  0
 15 14  1  0  0  0  0
 16 17  1  0  0  0  0
 16 18  1  0  0  0  0
 17 21  1  0  0  0  0
 18 15  2  0  0  0  0
 19 23  2  0  0  0  0
 19 17  1  0  0  0  0
 20 22  1  0  0  0  0
 21 26  1  0  0  0  0
 21 20  2  0  0  0  0
 26 25  1  0  0  0  0
 26 24  1  0  0  0  0
 27 19  1  0  0  0  0
 28 27  2  0  0  0  0
 31 33  1  0  0  0  0
 32 31  2  0  0  0  0
 32 34  1  0  0  0  0
 33 30  1  0  0  0  0
 33 29  2  0  0  0  0
 34 35  2  0  0  0  0
 35 29  1  0  0  0  0
 35 27  1  0  0  0  0
 36  1  1  0  0  0  0
 37 43  1  0  0  0  0
 38 36  1  0  0  0  0
 39 41  1  0  0  0  0
 39 37  2  0  0  0  0
 41 42  2  0  0  0  0
 42 38  1  0  0  0  0
 43 38  2  0  0  0  0
 43 40  1  0  0  0  0
 44 47  1  1  0  0  0
 44 45  1  0  0  0  0
 45 41  1  0  0  0  0
 46 49  1  6  0  0  0
 46 44  1  0  0  0  0
 48 45  1  0  0  0  0
 49 48  1  0  0  0  0
 50 52  1  6  0  0  0
 50 51  1  0  0  0  0
 50 46  1  0  0  0  0
 51 54  1  6  0  0  0
 52 51  1  0  0  0  0
 54 53  1  6  0  0  0
 55 57  1  0  0  0  0
 55 54  1  0  0  0  0
 57 56  1  1  0  0  0
 57 58  1  0  0  0  0
 58 60  1  0  0  0  0
 60 62  1  0  0  0  0
 61 60  1  0  0  0  0
 62 63  1  0  0  0  0
 62 59  2  0  0  0  0
M  END
>  <MODEL>
1

>  <REMARK>
 VINA RESULT:      -8.4      0.000      0.000
  Name = 
  16 active torsions:
  status: ('A' for Active; 'I' for Inactive)
    1  A    between atoms: C_1  and  C_47
    2  A    between atoms: C_3  and  C_39
    3  A    between atoms: C_3  and  C_54
    4  A    between atoms: C_6  and  C_16
    5  A    between atoms: N_7  and  C_59
    6  A    between atoms: C_12  and  N_24
    7  A    between atoms: C_12  and  C_46
    8  A    between atoms: N_15  and  C_25
    9  A    between atoms: C_16  and  C_42
   10  A    between atoms: C_17  and  C_42
   11  A    between atoms: C_19  and  N_26
   12  A    between atoms: C_20  and  C_31
   13  A    between atoms: C_20  and  C_46
   14  A    between atoms: C_25  and  C_32
   15  A    between atoms: C_27  and  C_31
   16  A    between atoms: C_49  and  C_60
                            x       y       z     vdW  Elec       q    Type
                         _______ _______ _______ _____ _____    ______ ____

>  <TORSDO>
F 16

$$$$
=
 OpenBabel11042410523D

 63 68  0  0  1  0  0  0  0  0999 V2000
  188.9670  176.8320  144.5580 N   0  0  0  0  0  0  0  0  0  0  0  0
  190.0920  177.5100  144.4340 C   0  0  0  0  0  0  0  0  0  0  0  0
  192.2140  175.7400  147.7980 C   0  0  0  0  0  0  0  0  0  0  0  0
  191.0420  177.1670  145.6100 C   0  0  0  0  0  0  0  0  0  0  0  0
  191.8910  176.0540  145.4360 C   0  0  0  0  0  3  0  0  0  0  0  0
  192.4440  175.3470  146.4850 C   0  0  0  0  0  3  0  0  0  0  0  0
  190.8750  177.6180  146.9480 C   0  0  0  0  0  3  0  0  0  0  0  0
  191.4970  176.9080  148.0340 C   0  0  0  0  0  3  0  0  0  0  0  0
  192.7360  174.9920  148.8650 O   0  0  0  0  0  1  0  0  0  0  0  0
  190.3100  178.3930  143.2320 C   0  0  0  0  0  0  0  0  0  0  0  0
  190.8150  179.5530  143.3370 O   0  0  0  0  0  0  0  0  0  0  0  0
  189.9520  177.9980  141.8790 C   0  0  0  0  0  3  0  0  0  0  0  0
  190.8860  177.6630  140.9840 C   0  0  0  0  0  0  0  0  0  0  0  0
  191.8060  177.3330  140.0400 C   0  0  0  0  0  3  0  0  0  0  0  0
  191.4410  176.3960  138.9510 C   0  0  0  0  0  0  0  0  0  0  0  0
  189.5740  175.4470  137.5360 C   0  0  0  0  0  2  0  0  0  0  0  0
  190.6090  174.9080  136.6440 N   0  0  0  0  0  0  0  0  0  0  0  0
  190.1630  176.2620  138.6730 C   0  0  0  0  0  3  0  0  0  0  0  0
  190.0160  174.2590  135.5180 C   0  0  0  0  0  0  0  0  0  0  0  0
  192.4770  175.6620  138.1010 C   0  0  0  0  0  0  0  0  0  0  0  0
  192.0530  175.0480  136.9410 C   0  0  0  0  0  0  0  0  0  0  0  0
  193.8890  175.8030  138.4400 C   0  0  0  0  0  1  0  0  0  0  0  0
  190.7780  173.8170  134.6000 O   0  0  0  0  0  0  0  0  0  0  0  0
  194.0650  174.8680  135.3180 C   0  0  0  0  0  1  0  0  0  0  0  0
  193.6370  172.9920  136.8610 C   0  0  0  0  0  1  0  0  0  0  0  0
  193.0160  174.1290  136.1150 C   0  0  0  0  0  3  0  0  0  0  0  0
  188.5280  174.1110  135.2710 C   0  0  0  0  0  0  0  0  0  0  0  0
  187.8540  175.1430  135.0400 O   0  0  0  0  0  0  0  0  0  0  0  0
  186.4550  172.6600  135.6630 C   0  0  0  0  0  3  0  0  0  0  0  0
  184.4570  171.2900  135.9530 N   0  0  0  0  0  1  0  0  0  0  0  0
  186.5470  170.2870  135.2910 C   0  0  0  0  0  3  0  0  0  0  0  0
  187.8770  170.3700  134.9000 C   0  0  0  0  0  3  0  0  0  0  0  0
  185.8200  171.4300  135.6410 C   0  0  0  0  0  0  0  0  0  0  0  0
  188.5160  171.6070  134.8960 C   0  0  0  0  0  3  0  0  0  0  0  0
  187.8090  172.7790  135.2760 C   0  0  0  0  0  0  0  0  0  0  0  0
  187.7480  176.4610  143.7800 C   0  0  0  0  0  2  0  0  0  0  0  0
  185.6820  178.6220  146.1940 C   0  0  0  0  0  3  0  0  0  0  0  0
  186.5320  177.2360  144.3570 C   0  0  0  0  0  0  0  0  0  0  0  0
  184.6960  179.0570  145.3700 C   0  0  0  0  0  3  0  0  0  0  0  0
  187.3980  177.1370  146.6230 F   0  0  0  0  0  0  0  0  0  0  0  0
  184.4940  178.5340  144.1070 C   0  0  0  0  0  0  0  0  0  0  0  0
  185.4450  177.6470  143.5900 C   0  0  0  0  0  3  0  0  0  0  0  0
  186.5910  177.6610  145.6670 C   0  0  0  0  0  0  0  0  0  0  0  0
  183.2130  179.0980  141.8890 C   0  0  2  0  0  3  0  0  0  0  0  0
  183.4260  179.0210  143.3560 N   0  0  0  0  0  0  0  0  0  0  0  0
  181.9220  178.5180  141.7910 N   0  0  1  0  0  0  0  0  0  0  0  0
  184.2080  178.3540  140.9570 C   0  0  0  0  0  1  0  0  0  0  0  0
  182.1110  179.0830  144.0380 C   0  0  0  0  0  2  0  0  0  0  0  0
  181.1400  178.9540  142.9360 C   0  0  0  0  0  2  0  0  0  0  0  0
  181.2990  178.7750  140.5300 C   0  0  1  0  0  3  0  0  0  0  0  0
  180.8190  177.3450  140.0980 C   0  0  1  0  0  3  0  0  0  0  0  0
  179.9220  178.3750  140.3330 O   0  0  0  0  0  0  0  0  0  0  0  0
  180.7570  178.0040  137.5680 O   0  0  0  0  0  1  0  0  0  0  0  0
  181.2810  177.0800  138.5800 C   0  0  2  0  0  3  0  0  0  0  0  0
  181.2330  175.6090  138.0330 C   0  0  0  0  0  2  0  0  0  0  0  0
  182.4820  173.7180  137.4480 O   0  0  0  0  0  1  0  0  0  0  0  0
  182.4320  175.1170  137.2510 C   0  0  2  0  0  3  0  0  0  0  0  0
  183.6420  175.7680  137.8980 C   0  0  0  0  0  2  0  0  0  0  0  0
  184.7450  178.5340  137.9780 O   0  0  0  0  0  0  0  0  0  0  0  0
  184.5160  176.4370  136.9440 N   0  0  0  0  0  0  0  0  0  0  0  0
  184.4010  176.0160  135.5610 C   0  0  0  0  0  1  0  0  0  0  0  0
  185.2410  177.6310  137.2710 C   0  0  0  0  0  0  0  0  0  0  0  0
  186.6470  177.7330  136.8660 C   0  0  0  0  0  1  0  0  0  0  0  0
  2  1  2  0  0  0  0
  2  4  1  0  0  0  0
  3  8  1  0  0  0  0
  3  9  1  0  0  0  0
  4  7  1  0  0  0  0
  5  4  2  0  0  0  0
  5  6  1  0  0  0  0
  6  3  2  0  0  0  0
  7  8  2  0  0  0  0
 10 11  2  0  0  0  0
 10  2  1  0  0  0  0
 12 10  1  0  0  0  0
 13 12  2  0  0  0  0
 14 13  2  0  0  0  0
 15 14  1  0  0  0  0
 16 18  1  0  0  0  0
 17 21  1  0  0  0  0
 17 16  1  0  0  0  0
 18 15  2  0  0  0  0
 19 17  1  0  0  0  0
 20 22  1  0  0  0  0
 20 15  1  0  0  0  0
 21 20  2  0  0  0  0
 23 19  2  0  0  0  0
 24 26  1  0  0  0  0
 26 25  1  0  0  0  0
 26 21  1  0  0  0  0
 27 35  1  0  0  0  0
 27 19  1  0  0  0  0
 28 27  2  0  0  0  0
 31 33  2  0  0  0  0
 32 31  1  0  0  0  0
 33 29  1  0  0  0  0
 33 30  1  0  0  0  0
 34 32  2  0  0  0  0
 34 35  1  0  0  0  0
 35 29  2  0  0  0  0
 36 38  1  0  0  0  0
 36  1  1  0  0  0  0
 38 43  2  0  0  0  0
 39 37  2  0  0  0  0
 41 39  1  0  0  0  0
 42 41  2  0  0  0  0
 42 38  1  0  0  0  0
 43 37  1  0  0  0  0
 43 40  1  0  0  0  0
 44 47  1  6  0  0  0
 44 45  1  0  0  0  0
 45 48  1  0  0  0  0
 45 41  1  0  0  0  0
 46 44  1  0  0  0  0
 46 49  1  1  0  0  0
 49 48  1  0  0  0  0
 50 52  1  1  0  0  0
 50 46  1  0  0  0  0
 51 54  1  6  0  0  0
 51 52  1  0  0  0  0
 51 50  1  0  0  0  0
 54 53  1  6  0  0  0
 55 54  1  0  0  0  0
 57 56  1  1  0  0  0
 57 58  1  0  0  0  0
 57 55  1  0  0  0  0
 60 62  1  0  0  0  0
 60 58  1  0  0  0  0
 61 60  1  0  0  0  0
 62 59  2  0  0  0  0
 63 62  1  0  0  0  0
M  END
>  <MODEL>
2

>  <REMARK>
 VINA RESULT:      -8.2      3.095     10.258
  Name = 
  16 active torsions:
  status: ('A' for Active; 'I' for Inactive)
    1  A    between atoms: C_1  and  C_47
    2  A    between atoms: C_3  and  C_39
    3  A    between atoms: C_3  and  C_54
    4  A    between atoms: C_6  and  C_16
    5  A    between atoms: N_7  and  C_59
    6  A    between atoms: C_12  and  N_24
    7  A    between atoms: C_12  and  C_46
    8  A    between atoms: N_15  and  C_25
    9  A    between atoms: C_16  and  C_42
   10  A    between atoms: C_17  and  C_42
   11  A    between atoms: C_19  and  N_26
   12  A    between atoms: C_20  and  C_31
   13  A    between atoms: C_20  and  C_46
   14  A    between atoms: C_25  and  C_32
   15  A    between atoms: C_27  and  C_31
   16  A    between atoms: C_49  and  C_60
                            x       y       z     vdW  Elec       q    Type
                         _______ _______ _______ _____ _____    ______ ____

>  <TORSDO>
F 16

$$$$
=
 OpenBabel11042410523D

 63 68  0  0  1  0  0  0  0  0999 V2000
  190.4750  177.5980  143.8000 N   0  0  0  0  0  0  0  0  0  0  0  0
  189.3520  177.0870  144.2690 C   0  0  0  0  0  0  0  0  0  0  0  0
  188.3390  177.9730  148.4090 C   0  0  0  0  0  0  0  0  0  0  0  0
  189.0170  177.7320  145.6380 C   0  0  0  0  0  0  0  0  0  0  0  0
  189.9490  177.5350  146.6770 C   0  0  0  0  0  3  0  0  0  0  0  0
  189.6270  177.6280  148.0170 C   0  0  0  0  0  3  0  0  0  0  0  0
  187.7230  178.1650  146.0380 C   0  0  0  0  0  3  0  0  0  0  0  0
  187.4080  178.3110  147.4340 C   0  0  0  0  0  3  0  0  0  0  0  0
  188.0000  178.0190  149.7710 O   0  0  0  0  0  1  0  0  0  0  0  0
  188.5790  176.0870  143.4480 C   0  0  0  0  0  0  0  0  0  0  0  0
  189.1450  175.0950  142.8940 O   0  0  0  0  0  0  0  0  0  0  0  0
  187.1460  176.1860  143.2170 C   0  0  0  0  0  3  0  0  0  0  0  0
  186.5290  177.3700  143.1820 C   0  0  0  0  0  0  0  0  0  0  0  0
  185.8620  178.5540  143.1580 C   0  0  0  0  0  3  0  0  0  0  0  0
  184.6210  178.6850  142.3570 C   0  0  0  0  0  0  0  0  0  0  0  0
  183.6050  178.6530  140.0430 C   0  0  0  0  0  2  0  0  0  0  0  0
  182.2900  178.5610  140.6910 N   0  0  0  0  0  0  0  0  0  0  0  0
  184.7430  178.6460  141.0480 C   0  0  0  0  0  3  0  0  0  0  0  0
  181.2540  178.4380  139.7140 C   0  0  0  0  0  0  0  0  0  0  0  0
  183.2310  178.7760  142.9820 C   0  0  0  0  0  0  0  0  0  0  0  0
  182.1340  178.6030  142.1630 C   0  0  0  0  0  0  0  0  0  0  0  0
  183.1180  178.8420  144.4350 C   0  0  0  0  0  1  0  0  0  0  0  0
  180.0600  178.2560  140.1140 O   0  0  0  0  0  0  0  0  0  0  0  0
  180.2840  178.0120  143.8790 C   0  0  0  0  0  1  0  0  0  0  0  0
  180.3130  180.2880  142.9280 C   0  0  0  0  0  1  0  0  0  0  0  0
  180.6830  178.8590  142.6920 C   0  0  0  0  0  3  0  0  0  0  0  0
  181.4580  178.4320  138.2130 C   0  0  0  0  0  0  0  0  0  0  0  0
  181.2900  179.5030  137.5820 O   0  0  0  0  0  0  0  0  0  0  0  0
  182.8730  177.2480  136.4370 C   0  0  0  0  0  3  0  0  0  0  0  0
  184.2790  176.1000  134.8080 N   0  0  0  0  0  1  0  0  0  0  0  0
  182.5550  174.9050  135.9980 C   0  0  0  0  0  3  0  0  0  0  0  0
  181.5660  174.8270  136.9700 C   0  0  0  0  0  3  0  0  0  0  0  0
  183.2360  176.1030  135.7500 C   0  0  0  0  0  0  0  0  0  0  0  0
  181.2120  175.9690  137.6840 C   0  0  0  0  0  3  0  0  0  0  0  0
  181.8670  177.2030  137.4290 C   0  0  0  0  0  0  0  0  0  0  0  0
  191.2780  177.6670  142.5440 C   0  0  0  0  0  2  0  0  0  0  0  0
  188.5680  178.7990  140.0660 C   0  0  0  0  0  3  0  0  0  0  0  0
  190.3100  177.6220  141.3290 C   0  0  0  0  0  0  0  0  0  0  0  0
  188.8420  178.0020  139.0020 C   0  0  0  0  0  3  0  0  0  0  0  0
  188.8150  179.2610  142.3150 F   0  0  0  0  0  0  0  0  0  0  0  0
  189.7170  176.9350  139.0760 C   0  0  0  0  0  0  0  0  0  0  0  0
  190.4820  176.7750  140.2380 C   0  0  0  0  0  3  0  0  0  0  0  0
  189.3060  178.5630  141.2600 C   0  0  0  0  0  0  0  0  0  0  0  0
  191.0830  175.9390  137.0710 C   0  0  2  0  0  3  0  0  0  0  0  0
  189.8970  176.1520  137.9380 N   0  0  0  0  0  0  0  0  0  0  0  0
  191.1100  174.5220  137.0230 N   0  0  1  0  0  0  0  0  0  0  0  0
  192.4560  176.4860  137.5490 C   0  0  0  0  0  1  0  0  0  0  0  0
  188.9620  175.0160  137.7610 C   0  0  0  0  0  2  0  0  0  0  0  0
  189.7380  174.0430  136.9700 C   0  0  0  0  0  2  0  0  0  0  0  0
  191.9410  174.0240  135.9710 C   0  0  1  0  0  3  0  0  0  0  0  0
  193.0530  173.2490  136.7620 C   0  0  1  0  0  3  0  0  0  0  0  0
  192.1920  172.6000  135.8900 O   0  0  0  0  0  0  0  0  0  0  0  0
  194.5020  174.7980  135.2340 O   0  0  0  0  0  1  0  0  0  0  0  0
  194.4920  173.6980  136.2040 C   0  0  2  0  0  3  0  0  0  0  0  0
  195.4970  172.5790  135.7510 C   0  0  0  0  0  2  0  0  0  0  0  0
  197.3840  171.2640  136.1830 O   0  0  0  0  0  1  0  0  0  0  0  0
  196.8580  172.5560  136.4110 C   0  0  2  0  0  3  0  0  0  0  0  0
  196.6010  172.7480  137.8950 C   0  0  0  0  0  2  0  0  0  0  0  0
  195.4500  175.0560  139.3860 O   0  0  0  0  0  0  0  0  0  0  0  0
  197.2770  173.9120  138.4530 N   0  0  0  0  0  0  0  0  0  0  0  0
  198.4800  174.3450  137.7690 C   0  0  0  0  0  1  0  0  0  0  0  0
  196.6630  174.7620  139.4320 C   0  0  0  0  0  0  0  0  0  0  0  0
  197.4590  175.1940  140.5860 C   0  0  0  0  0  1  0  0  0  0  0  0
  1  2  2  0  0  0  0
  2  4  1  0  0  0  0
  3  9  1  0  0  0  0
  4  7  2  0  0  0  0
  4  5  1  0  0  0  0
  5  6  2  0  0  0  0
  6  3  1  0  0  0  0
  7  8  1  0  0  0  0
  8  3  2  0  0  0  0
 10  2  1  0  0  0  0
 11 10  2  0  0  0  0
 12 10  1  0  0  0  0
 13 12  2  0  0  0  0
 14 13  2  0  0  0  0
 15 20  1  0  0  0  0
 15 14  1  0  0  0  0
 16 17  1  0  0  0  0
 16 18  1  0  0  0  0
 17 21  1  0  0  0  0
 18 15  2  0  0  0  0
 19 23  2  0  0  0  0
 19 17  1  0  0  0  0
 20 22  1  0  0  0  0
 21 26  1  0  0  0  0
 21 20  2  0  0  0  0
 26 25  1  0  0  0  0
 26 24  1  0  0  0  0
 27 19  1  0  0  0  0
 28 27  2  0  0  0  0
 29 35  1  0  0  0  0
 30 33  1  0  0  0  0
 31 32  2  0  0  0  0
 32 34  1  0  0  0  0
 33 31  1  0  0  0  0
 33 29  2  0  0  0  0
 35 34  2  0  0  0  0
 35 27  1  0  0  0  0
 36  1  1  0  0  0  0
 37 43  1  0  0  0  0
 38 36  1  0  0  0  0
 39 41  1  0  0  0  0
 39 37  2  0  0  0  0
 41 42  2  0  0  0  0
 42 38  1  0  0  0  0
 43 38  2  0  0  0  0
 43 40  1  0  0  0  0
 44 47  1  1  0  0  0
 44 45  1  0  0  0  0
 45 41  1  0  0  0  0
 46 49  1  6  0  0  0
 46 44  1  0  0  0  0
 48 45  1  0  0  0  0
 49 48  1  0  0  0  0
 50 52  1  6  0  0  0
 50 51  1  0  0  0  0
 50 46  1  0  0  0  0
 51 54  1  6  0  0  0
 52 51  1  0  0  0  0
 54 53  1  6  0  0  0
 55 54  1  0  0  0  0
 55 57  1  0  0  0  0
 57 56  1  1  0  0  0
 57 58  1  0  0  0  0
 58 60  1  0  0  0  0
 59 62  2  0  0  0  0
 60 62  1  0  0  0  0
 61 60  1  0  0  0  0
 62 63  1  0  0  0  0
M  END
>  <MODEL>
3

>  <REMARK>
 VINA RESULT:      -8.2      1.421      2.100
  Name = 
  16 active torsions:
  status: ('A' for Active; 'I' for Inactive)
    1  A    between atoms: C_1  and  C_47
    2  A    between atoms: C_3  and  C_39
    3  A    between atoms: C_3  and  C_54
    4  A    between atoms: C_6  and  C_16
    5  A    between atoms: N_7  and  C_59
    6  A    between atoms: C_12  and  N_24
    7  A    between atoms: C_12  and  C_46
    8  A    between atoms: N_15  and  C_25
    9  A    between atoms: C_16  and  C_42
   10  A    between atoms: C_17  and  C_42
   11  A    between atoms: C_19  and  N_26
   12  A    between atoms: C_20  and  C_31
   13  A    between atoms: C_20  and  C_46
   14  A    between atoms: C_25  and  C_32
   15  A    between atoms: C_27  and  C_31
   16  A    between atoms: C_49  and  C_60
                            x       y       z     vdW  Elec       q    Type
                         _______ _______ _______ _____ _____    ______ ____

>  <TORSDO>
F 16

$$$$
=
 OpenBabel11042410523D

 63 68  0  0  1  0  0  0  0  0999 V2000
  189.5230  178.2260  143.0980 N   0  0  0  0  0  0  0  0  0  0  0  0
  189.1250  177.2740  143.9210 C   0  0  0  0  0  0  0  0  0  0  0  0
  191.6000  176.2980  147.3670 C   0  0  0  0  0  0  0  0  0  0  0  0
  190.0210  177.2700  145.1860 C   0  0  0  0  0  0  0  0  0  0  0  0
  191.3400  176.7970  145.0290 C   0  0  0  0  0  3  0  0  0  0  0  0
  192.1020  176.3060  146.0710 C   0  0  0  0  0  3  0  0  0  0  0  0
  189.5400  177.3390  146.5230 C   0  0  0  0  0  3  0  0  0  0  0  0
  190.3590  176.8750  147.6110 C   0  0  0  0  0  3  0  0  0  0  0  0
  192.3560  175.7530  148.4180 O   0  0  0  0  0  1  0  0  0  0  0  0
  187.9160  176.4410  143.5810 C   0  0  0  0  0  0  0  0  0  0  0  0
  188.0230  175.2570  143.1360 O   0  0  0  0  0  0  0  0  0  0  0  0
  186.5520  176.9250  143.7210 C   0  0  0  0  0  3  0  0  0  0  0  0
  186.0740  177.8910  142.9300 C   0  0  0  0  0  0  0  0  0  0  0  0
  185.5560  178.8820  142.1590 C   0  0  0  0  0  3  0  0  0  0  0  0
  184.0980  178.9270  141.8960 C   0  0  0  0  0  0  0  0  0  0  0  0
  182.2650  178.6450  140.1790 C   0  0  0  0  0  2  0  0  0  0  0  0
  181.3100  178.6260  141.2950 N   0  0  0  0  0  0  0  0  0  0  0  0
  183.7030  178.7460  140.6550 C   0  0  0  0  0  3  0  0  0  0  0  0
  179.9820  178.4000  140.8180 C   0  0  0  0  0  0  0  0  0  0  0  0
  183.0570  179.0880  143.0020 C   0  0  0  0  0  0  0  0  0  0  0  0
  181.7360  178.8300  142.6980 C   0  0  0  0  0  0  0  0  0  0  0  0
  183.5140  179.3130  144.3690 C   0  0  0  0  0  1  0  0  0  0  0  0
  179.0450  178.2640  141.6680 O   0  0  0  0  0  0  0  0  0  0  0  0
  179.6170  180.2040  143.2740 C   0  0  0  0  0  1  0  0  0  0  0  0
  179.8610  177.9610  144.2700 C   0  0  0  0  0  1  0  0  0  0  0  0
  180.5950  179.1440  143.7230 C   0  0  0  0  0  3  0  0  0  0  0  0
  179.5870  178.2300  139.3640 C   0  0  0  0  0  0  0  0  0  0  0  0
  179.3300  177.0770  138.9460 O   0  0  0  0  0  0  0  0  0  0  0  0
  179.5180  180.7300  138.8120 C   0  0  0  0  0  3  0  0  0  0  0  0
  179.5390  183.1090  138.2740 N   0  0  0  0  0  1  0  0  0  0  0  0
  179.2240  181.4620  136.5410 C   0  0  0  0  0  3  0  0  0  0  0  0
  179.1790  180.1480  136.0920 C   0  0  0  0  0  3  0  0  0  0  0  0
  179.4260  181.7610  137.8930 C   0  0  0  0  0  0  0  0  0  0  0  0
  179.2950  179.1050  137.0070 C   0  0  0  0  0  3  0  0  0  0  0  0
  179.4710  179.3820  138.3890 C   0  0  0  0  0  0  0  0  0  0  0  0
  189.0740  178.9640  141.8800 C   0  0  0  0  0  2  0  0  0  0  0  0
  191.0390  176.4290  139.7650 C   0  0  0  0  0  3  0  0  0  0  0  0
  189.5950  178.2160  140.6220 C   0  0  0  0  0  0  0  0  0  0  0  0
  190.3140  176.4330  138.6180 C   0  0  0  0  0  3  0  0  0  0  0  0
  191.5850  177.4340  141.7710 F   0  0  0  0  0  0  0  0  0  0  0  0
  189.3310  177.3710  138.3610 C   0  0  0  0  0  0  0  0  0  0  0  0
  188.9480  178.2390  139.3900 C   0  0  0  0  0  3  0  0  0  0  0  0
  190.6770  177.3760  140.7650 C   0  0  0  0  0  0  0  0  0  0  0  0
  187.6550  176.3700  136.6090 C   0  0  2  0  0  3  0  0  0  0  0  0
  188.6730  177.3140  137.1340 N   0  0  0  0  0  0  0  0  0  0  0  0
  186.6810  177.2860  136.1360 N   0  0  1  0  0  0  0  0  0  0  0  0
  187.0070  175.3590  137.5950 C   0  0  0  0  0  1  0  0  0  0  0  0
  188.5990  178.5780  136.3620 C   0  0  0  0  0  2  0  0  0  0  0  0
  187.3720  178.4270  135.5590 C   0  0  0  0  0  2  0  0  0  0  0  0
  185.7330  176.6750  135.2570 C   0  0  1  0  0  3  0  0  0  0  0  0
  184.3640  177.1320  135.8710 C   0  0  1  0  0  3  0  0  0  0  0  0
  184.7520  177.5080  134.5950 O   0  0  0  0  0  0  0  0  0  0  0  0
  182.1010  175.9260  135.3590 O   0  0  0  0  0  1  0  0  0  0  0  0
  183.4090  175.8480  136.0200 C   0  0  2  0  0  3  0  0  0  0  0  0
  183.2480  175.2000  137.4420 C   0  0  0  0  0  2  0  0  0  0  0  0
  181.7320  175.1850  139.2250 O   0  0  0  0  0  1  0  0  0  0  0  0
  181.8540  174.7980  137.8710 C   0  0  2  0  0  3  0  0  0  0  0  0
  181.8110  173.2830  137.7670 C   0  0  0  0  0  2  0  0  0  0  0  0
  178.9740  172.9250  136.9300 O   0  0  0  0  0  0  0  0  0  0  0  0
  181.2800  172.8060  136.4970 N   0  0  0  0  0  0  0  0  0  0  0  0
  182.1100  171.8670  135.7660 C   0  0  0  0  0  1  0  0  0  0  0  0
  179.9130  173.0080  136.1100 C   0  0  0  0  0  0  0  0  0  0  0  0
  179.6280  173.4440  134.7390 C   0  0  0  0  0  1  0  0  0  0  0  0
  1  2  2  0  0  0  0
  2  4  1  0  0  0  0
  3  8  1  0  0  0  0
  3  9  1  0  0  0  0
  4  7  1  0  0  0  0
  5  4  2  0  0  0  0
  5  6  1  0  0  0  0
  6  3  2  0  0  0  0
  7  8  2  0  0  0  0
 10 12  1  0  0  0  0
 10  2  1  0  0  0  0
 11 10  2  0  0  0  0
 13 12  2  0  0  0  0
 14 13  2  0  0  0  0
 15 14  1  0  0  0  0
 15 20  1  0  0  0  0
 16 18  1  0  0  0  0
 16 17  1  0  0  0  0
 17 21  1  0  0  0  0
 18 15  2  0  0  0  0
 19 17  1  0  0  0  0
 19 23  2  0  0  0  0
 20 22  1  0  0  0  0
 21 20  2  0  0  0  0
 21 26  1  0  0  0  0
 24 26  1  0  0  0  0
 26 25  1  0  0  0  0
 27 19  1  0  0  0  0
 28 27  2  0  0  0  0
 31 33  1  0  0  0  0
 32 31  2  0  0  0  0
 32 34  1  0  0  0  0
 33 30  1  0  0  0  0
 33 29  2  0  0  0  0
 34 35  2  0  0  0  0
 35 29  1  0  0  0  0
 35 27  1  0  0  0  0
 36  1  1  0  0  0  0
 37 43  1  0  0  0  0
 38 43  2  0  0  0  0
 38 36  1  0  0  0  0
 39 37  2  0  0  0  0
 41 39  1  0  0  0  0
 41 42  2  0  0  0  0
 42 38  1  0  0  0  0
 43 40  1  0  0  0  0
 44 45  1  0  0  0  0
 44 47  1  1  0  0  0
 45 41  1  0  0  0  0
 46 49  1  6  0  0  0
 46 44  1  0  0  0  0
 48 45  1  0  0  0  0
 49 48  1  0  0  0  0
 50 52  1  6  0  0  0
 50 51  1  0  0  0  0
 50 46  1  0  0  0  0
 51 54  1  6  0  0  0
 52 51  1  0  0  0  0
 54 53  1  1  0  0  0
 54 55  1  0  0  0  0
 55 57  1  0  0  0  0
 57 56  1  1  0  0  0
 58 57  1  0  0  0  0
 60 58  1  0  0  0  0
 61 60  1  0  0  0  0
 62 60  1  0  0  0  0
 62 59  2  0  0  0  0
 63 62  1  0  0  0  0
M  END
>  <MODEL>
4

>  <REMARK>
 VINA RESULT:      -8.1      4.144      7.219
  Name = 
  16 active torsions:
  status: ('A' for Active; 'I' for Inactive)
    1  A    between atoms: C_1  and  C_47
    2  A    between atoms: C_3  and  C_39
    3  A    between atoms: C_3  and  C_54
    4  A    between atoms: C_6  and  C_16
    5  A    between atoms: N_7  and  C_59
    6  A    between atoms: C_12  and  N_24
    7  A    between atoms: C_12  and  C_46
    8  A    between atoms: N_15  and  C_25
    9  A    between atoms: C_16  and  C_42
   10  A    between atoms: C_17  and  C_42
   11  A    between atoms: C_19  and  N_26
   12  A    between atoms: C_20  and  C_31
   13  A    between atoms: C_20  and  C_46
   14  A    between atoms: C_25  and  C_32
   15  A    between atoms: C_27  and  C_31
   16  A    between atoms: C_49  and  C_60
                            x       y       z     vdW  Elec       q    Type
                         _______ _______ _______ _____ _____    ______ ____

>  <TORSDO>
F 16

$$$$
=
 OpenBabel11042410523D

 63 68  0  0  1  0  0  0  0  0999 V2000
  183.0090  176.8950  138.3150 N   0  0  0  0  0  0  0  0  0  0  0  0
  183.3180  178.1670  138.4800 C   0  0  0  0  0  0  0  0  0  0  0  0
  180.3040  181.2430  139.1110 C   0  0  0  0  0  0  0  0  0  0  0  0
  182.0250  178.9940  138.6960 C   0  0  0  0  0  0  0  0  0  0  0  0
  181.6610  179.8840  137.6650 C   0  0  0  0  0  3  0  0  0  0  0  0
  180.8490  180.9840  137.8600 C   0  0  0  0  0  3  0  0  0  0  0  0
  181.4010  179.2130  139.9550 C   0  0  0  0  0  3  0  0  0  0  0  0
  180.5140  180.3300  140.1390 C   0  0  0  0  0  3  0  0  0  0  0  0
  179.5180  182.3890  139.3210 O   0  0  0  0  0  1  0  0  0  0  0  0
  184.7630  178.5940  138.5050 C   0  0  0  0  0  0  0  0  0  0  0  0
  185.4460  178.7090  137.4410 O   0  0  0  0  0  0  0  0  0  0  0  0
  185.4830  178.8900  139.7330 C   0  0  0  0  0  3  0  0  0  0  0  0
  184.9560  178.6170  140.9300 C   0  0  0  0  0  0  0  0  0  0  0  0
  184.4470  178.3720  142.1660 C   0  0  0  0  0  3  0  0  0  0  0  0
  185.3620  178.1060  143.3020 C   0  0  0  0  0  0  0  0  0  0  0  0
  187.6710  177.3570  144.0040 C   0  0  0  0  0  2  0  0  0  0  0  0
  187.3640  177.8800  145.3420 N   0  0  0  0  0  0  0  0  0  0  0  0
  186.5440  177.6050  143.0180 C   0  0  0  0  0  3  0  0  0  0  0  0
  188.4940  177.7460  146.2070 C   0  0  0  0  0  0  0  0  0  0  0  0
  185.0230  178.4630  144.7470 C   0  0  0  0  0  0  0  0  0  0  0  0
  186.0390  178.4460  145.6800 C   0  0  0  0  0  0  0  0  0  0  0  0
  183.6970  178.9950  145.0450 C   0  0  0  0  0  1  0  0  0  0  0  0
  188.4240  178.2350  147.3790 O   0  0  0  0  0  0  0  0  0  0  0  0
  185.7090  180.0590  147.6810 C   0  0  0  0  0  1  0  0  0  0  0  0
  184.5520  177.8810  147.7320 C   0  0  0  0  0  1  0  0  0  0  0  0
  185.7380  178.6250  147.2060 C   0  0  0  0  0  3  0  0  0  0  0  0
  189.8240  177.1270  145.8260 C   0  0  0  0  0  0  0  0  0  0  0  0
  190.3970  176.3830  146.6570 O   0  0  0  0  0  0  0  0  0  0  0  0
  190.2330  176.5240  143.3710 C   0  0  0  0  0  3  0  0  0  0  0  0
  190.5580  176.0060  141.0100 N   0  0  0  0  0  1  0  0  0  0  0  0
  191.7950  177.7920  142.0550 C   0  0  0  0  0  3  0  0  0  0  0  0
  192.0740  178.6230  143.1330 C   0  0  0  0  0  3  0  0  0  0  0  0
  190.8520  176.7630  142.1570 C   0  0  0  0  0  0  0  0  0  0  0  0
  191.4370  178.4050  144.3510 C   0  0  0  0  0  3  0  0  0  0  0  0
  190.4980  177.3480  144.4890 C   0  0  0  0  0  0  0  0  0  0  0  0
  183.6450  175.5440  138.2880 C   0  0  0  0  0  2  0  0  0  0  0  0
  185.0150  176.0320  134.7310 C   0  0  0  0  0  3  0  0  0  0  0  0
  184.6330  175.4810  137.0900 C   0  0  0  0  0  0  0  0  0  0  0  0
  186.3490  175.9170  134.9500 C   0  0  0  0  0  3  0  0  0  0  0  0
  182.8480  175.7030  135.4590 F   0  0  0  0  0  0  0  0  0  0  0  0
  186.8710  175.4640  136.1480 C   0  0  0  0  0  0  0  0  0  0  0  0
  186.0030  175.2850  137.2310 C   0  0  0  0  0  3  0  0  0  0  0  0
  184.1510  175.7690  135.8320 C   0  0  0  0  0  0  0  0  0  0  0  0
  189.2590  176.1650  136.9750 C   0  0  2  0  0  3  0  0  0  0  0  0
  188.2550  175.3410  136.2570 N   0  0  0  0  0  0  0  0  0  0  0  0
  189.9580  175.1520  137.6800 N   0  0  1  0  0  0  0  0  0  0  0  0
  188.7530  177.2540  137.9610 C   0  0  0  0  0  1  0  0  0  0  0  0
  188.8210  173.9920  136.0180 C   0  0  0  0  0  2  0  0  0  0  0  0
  190.0590  173.9850  136.8190 C   0  0  0  0  0  2  0  0  0  0  0  0
  191.2140  175.6060  138.1930 C   0  0  1  0  0  3  0  0  0  0  0  0
  192.1200  175.5970  136.9120 C   0  0  1  0  0  3  0  0  0  0  0  0
  191.8360  176.7690  137.5950 O   0  0  0  0  0  0  0  0  0  0  0  0
  194.7000  175.6730  137.3290 O   0  0  0  0  0  1  0  0  0  0  0  0
  193.4950  174.8390  137.2570 C   0  0  2  0  0  3  0  0  0  0  0  0
  193.8180  173.5010  136.5000 C   0  0  0  0  0  2  0  0  0  0  0  0
  195.1300  173.0350  138.3830 O   0  0  0  0  0  1  0  0  0  0  0  0
  194.9580  172.6580  137.0310 C   0  0  2  0  0  3  0  0  0  0  0  0
  196.1810  173.0630  136.2280 C   0  0  0  0  0  2  0  0  0  0  0  0
  197.8610  175.4900  136.6390 O   0  0  0  0  0  0  0  0  0  0  0  0
  197.3790  173.2260  137.0430 N   0  0  0  0  0  0  0  0  0  0  0  0
  198.2050  172.0460  137.2120 C   0  0  0  0  0  1  0  0  0  0  0  0
  197.8820  174.5150  137.4210 C   0  0  0  0  0  0  0  0  0  0  0  0
  198.3190  174.7200  138.8060 C   0  0  0  0  0  1  0  0  0  0  0  0
  1  2  2  0  0  0  0
  2 10  1  0  0  0  0
  2  4  1  0  0  0  0
  3  9  1  0  0  0  0
  3  8  1  0  0  0  0
  4  7  1  0  0  0  0
  5  6  1  0  0  0  0
  5  4  2  0  0  0  0
  6  3  2  0  0  0  0
  7  8  2  0  0  0  0
 10 12  1  0  0  0  0
 11 10  2  0  0  0  0
 12 13  2  0  0  0  0
 13 14  2  0  0  0  0
 14 15  1  0  0  0  0
 15 20  1  0  0  0  0
 16 17  1  0  0  0  0
 17 21  1  0  0  0  0
 17 19  1  0  0  0  0
 18 15  2  0  0  0  0
 18 16  1  0  0  0  0
 19 23  2  0  0  0  0
 20 22  1  0  0  0  0
 20 21  2  0  0  0  0
 21 26  1  0  0  0  0
 26 24  1  0  0  0  0
 26 25  1  0  0  0  0
 27 19  1  0  0  0  0
 27 28  2  0  0  0  0
 29 35  1  0  0  0  0
 30 33  1  0  0  0  0
 31 33  1  0  0  0  0
 31 32  2  0  0  0  0
 32 34  1  0  0  0  0
 33 29  2  0  0  0  0
 34 35  2  0  0  0  0
 35 27  1  0  0  0  0
 36  1  1  0  0  0  0
 37 39  2  0  0  0  0
 37 43  1  0  0  0  0
 38 42  1  0  0  0  0
 38 36  1  0  0  0  0
 39 41  1  0  0  0  0
 40 43  1  0  0  0  0
 41 45  1  0  0  0  0
 41 42  2  0  0  0  0
 43 38  2  0  0  0  0
 44 46  1  0  0  0  0
 44 47  1  1  0  0  0
 45 44  1  0  0  0  0
 46 49  1  6  0  0  0
 46 50  1  0  0  0  0
 48 45  1  0  0  0  0
 48 49  1  0  0  0  0
 50 52  1  6  0  0  0
 51 54  1  1  0  0  0
 51 52  1  0  0  0  0
 51 50  1  0  0  0  0
 54 53  1  6  0  0  0
 55 57  1  0  0  0  0
 55 54  1  0  0  0  0
 57 56  1  1  0  0  0
 58 57  1  0  0  0  0
 58 60  1  0  0  0  0
 59 62  2  0  0  0  0
 60 61  1  0  0  0  0
 60 62  1  0  0  0  0
 62 63  1  0  0  0  0
M  END
>  <MODEL>
5

>  <REMARK>
 VINA RESULT:      -7.0      2.576      7.761
  Name = 
  16 active torsions:
  status: ('A' for Active; 'I' for Inactive)
    1  A    between atoms: C_1  and  C_47
    2  A    between atoms: C_3  and  C_39
    3  A    between atoms: C_3  and  C_54
    4  A    between atoms: C_6  and  C_16
    5  A    between atoms: N_7  and  C_59
    6  A    between atoms: C_12  and  N_24
    7  A    between atoms: C_12  and  C_46
    8  A    between atoms: N_15  and  C_25
    9  A    between atoms: C_16  and  C_42
   10  A    between atoms: C_17  and  C_42
   11  A    between atoms: C_19  and  N_26
   12  A    between atoms: C_20  and  C_31
   13  A    between atoms: C_20  and  C_46
   14  A    between atoms: C_25  and  C_32
   15  A    between atoms: C_27  and  C_31
   16  A    between atoms: C_49  and  C_60
                            x       y       z     vdW  Elec       q    Type
                         _______ _______ _______ _____ _____    ______ ____

>  <TORSDO>
F 16

$$$$
=
 OpenBabel11042410523D

 63 68  0  0  1  0  0  0  0  0999 V2000
  188.2200  176.7080  144.3030 N   0  0  0  0  0  0  0  0  0  0  0  0
  188.1360  177.2810  145.4890 C   0  0  0  0  0  0  0  0  0  0  0  0
  191.9960  176.4320  147.3130 C   0  0  0  0  0  0  0  0  0  0  0  0
  189.5390  177.3240  146.1470 C   0  0  0  0  0  0  0  0  0  0  0  0
  190.6130  176.8220  145.3850 C   0  0  0  0  0  3  0  0  0  0  0  0
  191.7950  176.3690  145.9390 C   0  0  0  0  0  3  0  0  0  0  0  0
  189.7780  177.4640  147.5420 C   0  0  0  0  0  3  0  0  0  0  0  0
  191.0310  177.0400  148.1070 C   0  0  0  0  0  3  0  0  0  0  0  0
  193.1770  175.9260  147.8810 O   0  0  0  0  0  1  0  0  0  0  0  0
  186.8180  177.8310  145.9670 C   0  0  0  0  0  0  0  0  0  0  0  0
  186.7150  178.4650  147.0630 O   0  0  0  0  0  0  0  0  0  0  0  0
  185.5740  177.6720  145.2300 C   0  0  0  0  0  3  0  0  0  0  0  0
  185.1220  178.6310  144.4170 C   0  0  0  0  0  0  0  0  0  0  0  0
  184.6200  179.5890  143.5940 C   0  0  0  0  0  3  0  0  0  0  0  0
  183.7600  179.2030  142.4510 C   0  0  0  0  0  0  0  0  0  0  0  0
  183.6860  178.4990  140.0250 C   0  0  0  0  0  2  0  0  0  0  0  0
  182.2880  178.1040  140.2480 N   0  0  0  0  0  0  0  0  0  0  0  0
  184.3500  179.0020  141.2930 C   0  0  0  0  0  3  0  0  0  0  0  0
  181.7360  177.5170  139.0680 C   0  0  0  0  0  0  0  0  0  0  0  0
  182.2590  178.9530  142.5840 C   0  0  0  0  0  0  0  0  0  0  0  0
  181.6070  178.3240  141.5440 C   0  0  0  0  0  0  0  0  0  0  0  0
  181.6170  179.2060  143.8700 C   0  0  0  0  0  1  0  0  0  0  0  0
  180.5590  177.0370  139.1220 O   0  0  0  0  0  0  0  0  0  0  0  0
  179.4310  177.8090  142.8540 C   0  0  0  0  0  1  0  0  0  0  0  0
  179.2990  179.3410  140.9260 C   0  0  0  0  0  1  0  0  0  0  0  0
  180.0460  178.1950  141.5290 C   0  0  0  0  0  3  0  0  0  0  0  0
  182.4620  177.3420  137.7500 C   0  0  0  0  0  0  0  0  0  0  0  0
  182.3590  178.2450  136.8860 O   0  0  0  0  0  0  0  0  0  0  0  0
  182.8150  174.8200  137.4840 C   0  0  0  0  0  3  0  0  0  0  0  0
  183.1290  172.4240  137.1460 N   0  0  0  0  0  1  0  0  0  0  0  0
  184.9620  173.9580  136.8280 C   0  0  0  0  0  3  0  0  0  0  0  0
  185.4870  175.2420  136.7510 C   0  0  0  0  0  3  0  0  0  0  0  0
  183.6200  173.7410  137.1600 C   0  0  0  0  0  0  0  0  0  0  0  0
  184.6770  176.3340  137.0510 C   0  0  0  0  0  3  0  0  0  0  0  0
  183.3200  176.1390  137.4210 C   0  0  0  0  0  0  0  0  0  0  0  0
  187.4250  176.5140  143.0530 C   0  0  0  0  0  2  0  0  0  0  0  0
  189.0570  179.1460  140.7780 C   0  0  0  0  0  3  0  0  0  0  0  0
  188.2210  177.1090  141.8580 C   0  0  0  0  0  0  0  0  0  0  0  0
  189.9650  178.3860  140.1150 C   0  0  0  0  0  3  0  0  0  0  0  0
  187.1570  179.2800  142.0840 F   0  0  0  0  0  0  0  0  0  0  0  0
  189.9650  177.0050  140.1710 C   0  0  0  0  0  0  0  0  0  0  0  0
  189.1100  176.3720  141.0810 C   0  0  0  0  0  3  0  0  0  0  0  0
  188.1480  178.4670  141.6390 C   0  0  0  0  0  0  0  0  0  0  0  0
  190.7800  175.4770  138.2010 C   0  0  2  0  0  3  0  0  0  0  0  0
  190.9130  176.3160  139.4190 N   0  0  0  0  0  0  0  0  0  0  0  0
  191.7850  176.0550  137.3850 N   0  0  1  0  0  0  0  0  0  0  0  0
  189.4180  175.4710  137.4540 C   0  0  0  0  0  1  0  0  0  0  0  0
  192.3140  176.7880  139.5260 C   0  0  0  0  0  2  0  0  0  0  0  0
  192.9120  176.4080  138.2320 C   0  0  0  0  0  2  0  0  0  0  0  0
  192.1310  175.2280  136.2710 C   0  0  1  0  0  3  0  0  0  0  0  0
  193.3600  174.4230  136.8230 C   0  0  1  0  0  3  0  0  0  0  0  0
  192.1830  173.7930  136.4530 O   0  0  0  0  0  0  0  0  0  0  0  0
  194.6550  173.3580  134.8170 O   0  0  0  0  0  1  0  0  0  0  0  0
  194.5500  174.4910  135.7430 C   0  0  2  0  0  3  0  0  0  0  0  0
  195.9800  174.9090  136.2370 C   0  0  0  0  0  2  0  0  0  0  0  0
  196.6880  174.8880  138.4680 O   0  0  0  0  0  1  0  0  0  0  0  0
  196.6180  174.0660  137.3200 C   0  0  2  0  0  3  0  0  0  0  0  0
  198.0210  173.7550  136.8290 C   0  0  0  0  0  2  0  0  0  0  0  0
  198.5220  170.9120  137.5650 O   0  0  0  0  0  0  0  0  0  0  0  0
  198.0850  172.5800  135.9700 N   0  0  0  0  0  0  0  0  0  0  0  0
  198.5400  172.8030  134.6110 C   0  0  0  0  0  1  0  0  0  0  0  0
  197.9900  171.2450  136.4850 C   0  0  0  0  0  0  0  0  0  0  0  0
  197.1390  170.2790  135.7810 C   0  0  0  0  0  1  0  0  0  0  0  0
  1  2  2  0  0  0  0
  2 10  1  0  0  0  0
  2  4  1  0  0  0  0
  3  9  1  0  0  0  0
  3  8  1  0  0  0  0
  4  7  1  0  0  0  0
  5  6  1  0  0  0  0
  5  4  2  0  0  0  0
  6  3  2  0  0  0  0
  7  8  2  0  0  0  0
 10 11  2  0  0  0  0
 12 10  1  0  0  0  0
 13 12  2  0  0  0  0
 14 13  2  0  0  0  0
 15 20  1  0  0  0  0
 15 14  1  0  0  0  0
 16 17  1  0  0  0  0
 16 18  1  0  0  0  0
 17 21  1  0  0  0  0
 18 15  2  0  0  0  0
 19 23  2  0  0  0  0
 19 17  1  0  0  0  0
 20 22  1  0  0  0  0
 21 20  2  0  0  0  0
 25 26  1  0  0  0  0
 26 21  1  0  0  0  0
 26 24  1  0  0  0  0
 27 19  1  0  0  0  0
 28 27  2  0  0  0  0
 30 33  1  0  0  0  0
 31 33  1  0  0  0  0
 32 31  2  0  0  0  0
 32 34  1  0  0  0  0
 33 29  2  0  0  0  0
 34 35  2  0  0  0  0
 35 29  1  0  0  0  0
 35 27  1  0  0  0  0
 36  1  1  0  0  0  0
 37 43  1  0  0  0  0
 38 36  1  0  0  0  0
 39 41  1  0  0  0  0
 39 37  2  0  0  0  0
 41 42  2  0  0  0  0
 42 38  1  0  0  0  0
 43 38  2  0  0  0  0
 43 40  1  0  0  0  0
 44 47  1  6  0  0  0
 44 45  1  0  0  0  0
 45 48  1  0  0  0  0
 45 41  1  0  0  0  0
 46 44  1  0  0  0  0
 46 49  1  1  0  0  0
 49 48  1  0  0  0  0
 50 52  1  1  0  0  0
 50 51  1  0  0  0  0
 50 46  1  0  0  0  0
 51 54  1  6  0  0  0
 52 51  1  0  0  0  0
 54 53  1  1  0  0  0
 54 55  1  0  0  0  0
 55 57  1  0  0  0  0
 57 56  1  1  0  0  0
 58 57  1  0  0  0  0
 60 62  1  0  0  0  0
 60 58  1  0  0  0  0
 61 60  1  0  0  0  0
 62 59  2  0  0  0  0
 63 62  1  0  0  0  0
M  END
>  <MODEL>
6

>  <REMARK>
 VINA RESULT:      -6.9      2.266      3.676
  Name = 
  16 active torsions:
  status: ('A' for Active; 'I' for Inactive)
    1  A    between atoms: C_1  and  C_47
    2  A    between atoms: C_3  and  C_39
    3  A    between atoms: C_3  and  C_54
    4  A    between atoms: C_6  and  C_16
    5  A    between atoms: N_7  and  C_59
    6  A    between atoms: C_12  and  N_24
    7  A    between atoms: C_12  and  C_46
    8  A    between atoms: N_15  and  C_25
    9  A    between atoms: C_16  and  C_42
   10  A    between atoms: C_17  and  C_42
   11  A    between atoms: C_19  and  N_26
   12  A    between atoms: C_20  and  C_31
   13  A    between atoms: C_20  and  C_46
   14  A    between atoms: C_25  and  C_32
   15  A    between atoms: C_27  and  C_31
   16  A    between atoms: C_49  and  C_60
                            x       y       z     vdW  Elec       q    Type
                         _______ _______ _______ _____ _____    ______ ____

>  <TORSDO>
F 16

$$$$
=
 OpenBabel11042410523D

 63 68  0  0  1  0  0  0  0  0999 V2000
  189.3230  178.2710  142.8750 N   0  0  0  0  0  0  0  0  0  0  0  0
  188.9550  177.3740  143.7700 C   0  0  0  0  0  0  0  0  0  0  0  0
  191.4480  176.7710  147.2880 C   0  0  0  0  0  0  0  0  0  0  0  0
  189.8410  177.5060  145.0350 C   0  0  0  0  0  0  0  0  0  0  0  0
  191.1810  177.0810  144.9180 C   0  0  0  0  0  3  0  0  0  0  0  0
  191.9570  176.7040  145.9970 C   0  0  0  0  0  3  0  0  0  0  0  0
  189.3500  177.6530  146.3610 C   0  0  0  0  0  3  0  0  0  0  0  0
  190.1810  177.3090  147.4840 C   0  0  0  0  0  3  0  0  0  0  0  0
  192.2200  176.3410  148.3790 O   0  0  0  0  0  1  0  0  0  0  0  0
  187.7800  176.4730  143.4940 C   0  0  0  0  0  0  0  0  0  0  0  0
  187.9310  175.2450  143.2060 O   0  0  0  0  0  0  0  0  0  0  0  0
  186.4010  176.9330  143.5210 C   0  0  0  0  0  3  0  0  0  0  0  0
  185.9630  177.8650  142.6700 C   0  0  0  0  0  0  0  0  0  0  0  0
  185.4840  178.8230  141.8340 C   0  0  0  0  0  3  0  0  0  0  0  0
  184.0480  178.8320  141.4670 C   0  0  0  0  0  0  0  0  0  0  0  0
  182.3550  178.5610  139.6100 C   0  0  0  0  0  2  0  0  0  0  0  0
  181.3230  178.4650  140.6510 N   0  0  0  0  0  0  0  0  0  0  0  0
  183.7500  178.6890  140.1940 C   0  0  0  0  0  3  0  0  0  0  0  0
  180.0420  178.2150  140.0690 C   0  0  0  0  0  0  0  0  0  0  0  0
  182.9250  178.9120  142.4990 C   0  0  0  0  0  0  0  0  0  0  0  0
  181.6400  178.6230  142.0890 C   0  0  0  0  0  0  0  0  0  0  0  0
  183.2740  179.0950  143.9030 C   0  0  0  0  0  1  0  0  0  0  0  0
  179.0520  178.0140  140.8420 O   0  0  0  0  0  0  0  0  0  0  0  0
  180.3280  177.8980  144.2020 C   0  0  0  0  0  1  0  0  0  0  0  0
  180.2100  180.2620  143.5080 C   0  0  0  0  0  1  0  0  0  0  0  0
  180.4160  178.8570  143.0390 C   0  0  0  0  0  3  0  0  0  0  0  0
  179.7590  178.0930  138.5850 C   0  0  0  0  0  0  0  0  0  0  0  0
  179.4820  179.1330  137.9420 O   0  0  0  0  0  0  0  0  0  0  0  0
  180.2090  175.5760  138.4470 C   0  0  0  0  0  3  0  0  0  0  0  0
  180.5540  173.1640  138.3360 N   0  0  0  0  0  1  0  0  0  0  0  0
  179.8950  174.4000  136.3730 C   0  0  0  0  0  3  0  0  0  0  0  0
  179.4870  175.5670  135.7390 C   0  0  0  0  0  3  0  0  0  0  0  0
  180.2240  174.3900  137.7340 C   0  0  0  0  0  0  0  0  0  0  0  0
  179.4460  176.7610  136.4560 C   0  0  0  0  0  3  0  0  0  0  0  0
  179.8050  176.7820  137.8300 C   0  0  0  0  0  0  0  0  0  0  0  0
  188.8560  178.8920  141.6000 C   0  0  0  0  0  2  0  0  0  0  0  0
  191.4140  176.7170  139.7310 C   0  0  0  0  0  3  0  0  0  0  0  0
  189.5930  178.2130  140.4130 C   0  0  0  0  0  0  0  0  0  0  0  0
  190.7770  176.5280  138.5490 C   0  0  0  0  0  3  0  0  0  0  0  0
  191.6220  177.8940  141.7080 F   0  0  0  0  0  0  0  0  0  0  0  0
  189.6460  177.2380  138.1890 C   0  0  0  0  0  0  0  0  0  0  0  0
  189.0350  178.0540  139.1480 C   0  0  0  0  0  3  0  0  0  0  0  0
  190.8090  177.6130  140.6590 C   0  0  0  0  0  0  0  0  0  0  0  0
  187.7690  176.4590  136.5310 C   0  0  2  0  0  3  0  0  0  0  0  0
  189.0920  177.0010  136.9330 N   0  0  0  0  0  0  0  0  0  0  0  0
  187.3700  177.4420  135.5900 N   0  0  1  0  0  0  0  0  0  0  0  0
  186.6780  176.2870  137.6230 C   0  0  0  0  0  1  0  0  0  0  0  0
  189.6610  177.7690  135.8010 C   0  0  0  0  0  2  0  0  0  0  0  0
  188.5450  177.8600  134.8420 C   0  0  0  0  0  2  0  0  0  0  0  0
  186.2830  177.0070  134.7690 C   0  0  1  0  0  3  0  0  0  0  0  0
  185.0610  177.1170  135.7480 C   0  0  1  0  0  3  0  0  0  0  0  0
  185.1420  177.8810  134.5940 O   0  0  0  0  0  0  0  0  0  0  0  0
  182.9290  175.8030  134.9960 O   0  0  0  0  0  1  0  0  0  0  0  0
  184.2230  175.7460  135.6850 C   0  0  2  0  0  3  0  0  0  0  0  0
  184.0910  174.8940  136.9970 C   0  0  0  0  0  2  0  0  0  0  0  0
  184.9140  172.9530  138.0150 O   0  0  0  0  0  1  0  0  0  0  0  0
  184.2150  173.3910  136.8670 C   0  0  2  0  0  3  0  0  0  0  0  0
  185.0640  173.1520  135.6310 C   0  0  0  0  0  2  0  0  0  0  0  0
  184.6310  170.2040  135.5860 O   0  0  0  0  0  0  0  0  0  0  0  0
  186.0340  172.0770  135.7950 N   0  0  0  0  0  0  0  0  0  0  0  0
  187.1840  172.3720  136.6270 C   0  0  0  0  0  1  0  0  0  0  0  0
  185.7540  170.7230  135.4120 C   0  0  0  0  0  0  0  0  0  0  0  0
  186.7820  169.9720  134.6840 C   0  0  0  0  0  1  0  0  0  0  0  0
  1  2  2  0  0  0  0
  2  4  1  0  0  0  0
  3  8  1  0  0  0  0
  3  9  1  0  0  0  0
  4  7  1  0  0  0  0
  5  4  2  0  0  0  0
  5  6  1  0  0  0  0
  6  3  2  0  0  0  0
  7  8  2  0  0  0  0
 10 12  1  0  0  0  0
 10  2  1  0  0  0  0
 11 10  2  0  0  0  0
 13 12  2  0  0  0  0
 14 13  2  0  0  0  0
 15 14  1  0  0  0  0
 15 20  1  0  0  0  0
 16 18  1  0  0  0  0
 16 17  1  0  0  0  0
 17 21  1  0  0  0  0
 18 15  2  0  0  0  0
 19 17  1  0  0  0  0
 19 23  2  0  0  0  0
 20 22  1  0  0  0  0
 21 20  2  0  0  0  0
 21 26  1  0  0  0  0
 26 25  1  0  0  0  0
 26 24  1  0  0  0  0
 27 19  1  0  0  0  0
 28 27  2  0  0  0  0
 31 33  1  0  0  0  0
 32 31  2  0  0  0  0
 32 34  1  0  0  0  0
 33 30  1  0  0  0  0
 33 29  2  0  0  0  0
 34 35  2  0  0  0  0
 35 29  1  0  0  0  0
 35 27  1  0  0  0  0
 36  1  1  0  0  0  0
 37 43  1  0  0  0  0
 38 43  2  0  0  0  0
 38 36  1  0  0  0  0
 39 37  2  0  0  0  0
 41 39  1  0  0  0  0
 41 42  2  0  0  0  0
 42 38  1  0  0  0  0
 43 40  1  0  0  0  0
 44 45  1  0  0  0  0
 44 47  1  1  0  0  0
 45 41  1  0  0  0  0
 46 49  1  6  0  0  0
 46 44  1  0  0  0  0
 48 45  1  0  0  0  0
 49 48  1  0  0  0  0
 50 52  1  6  0  0  0
 50 46  1  0  0  0  0
 50 51  1  0  0  0  0
 51 54  1  6  0  0  0
 52 51  1  0  0  0  0
 54 53  1  1  0  0  0
 54 55  1  0  0  0  0
 57 55  1  0  0  0  0
 57 56  1  1  0  0  0
 58 60  1  0  0  0  0
 58 57  1  0  0  0  0
 60 61  1  0  0  0  0
 62 59  2  0  0  0  0
 62 60  1  0  0  0  0
 63 62  1  0  0  0  0
M  END
>  <MODEL>
7

>  <REMARK>
 VINA RESULT:      -6.8      4.214      6.200
  Name = 
  16 active torsions:
  status: ('A' for Active; 'I' for Inactive)
    1  A    between atoms: C_1  and  C_47
    2  A    between atoms: C_3  and  C_39
    3  A    between atoms: C_3  and  C_54
    4  A    between atoms: C_6  and  C_16
    5  A    between atoms: N_7  and  C_59
    6  A    between atoms: C_12  and  N_24
    7  A    between atoms: C_12  and  C_46
    8  A    between atoms: N_15  and  C_25
    9  A    between atoms: C_16  and  C_42
   10  A    between atoms: C_17  and  C_42
   11  A    between atoms: C_19  and  N_26
   12  A    between atoms: C_20  and  C_31
   13  A    between atoms: C_20  and  C_46
   14  A    between atoms: C_25  and  C_32
   15  A    between atoms: C_27  and  C_31
   16  A    between atoms: C_49  and  C_60
                            x       y       z     vdW  Elec       q    Type
                         _______ _______ _______ _____ _____    ______ ____

>  <TORSDO>
F 16

$$$$
=
 OpenBabel11042410523D

 63 68  0  0  1  0  0  0  0  0999 V2000
  186.9760  177.4160  145.8850 N   0  0  0  0  0  0  0  0  0  0  0  0
  187.9290  177.5020  144.9770 C   0  0  0  0  0  0  0  0  0  0  0  0
  191.7000  176.4720  146.8930 C   0  0  0  0  0  0  0  0  0  0  0  0
  189.3150  177.4790  145.6720 C   0  0  0  0  0  0  0  0  0  0  0  0
  190.3870  176.9370  144.9330 C   0  0  0  0  0  3  0  0  0  0  0  0
  191.5320  176.4290  145.5140 C   0  0  0  0  0  3  0  0  0  0  0  0
  189.5240  177.5980  147.0730 C   0  0  0  0  0  3  0  0  0  0  0  0
  190.7420  177.1150  147.6670 C   0  0  0  0  0  3  0  0  0  0  0  0
  192.8430  175.9110  147.4870 O   0  0  0  0  0  1  0  0  0  0  0  0
  187.5750  177.5350  143.5130 C   0  0  0  0  0  0  0  0  0  0  0  0
  186.4350  177.1680  143.0920 O   0  0  0  0  0  0  0  0  0  0  0  0
  188.5010  177.9700  142.4800 C   0  0  0  0  0  3  0  0  0  0  0  0
  189.4700  177.1660  142.0320 C   0  0  0  0  0  0  0  0  0  0  0  0
  190.4780  176.3850  141.5630 C   0  0  0  0  0  3  0  0  0  0  0  0
  190.9780  176.5770  140.1800 C   0  0  0  0  0  0  0  0  0  0  0  0
  193.0070  176.6630  138.6770 C   0  0  0  0  0  2  0  0  0  0  0  0
  192.0860  176.5740  137.5350 N   0  0  0  0  0  0  0  0  0  0  0  0
  192.2810  176.5890  140.0080 C   0  0  0  0  0  3  0  0  0  0  0  0
  192.8120  176.5160  136.3060 C   0  0  0  0  0  0  0  0  0  0  0  0
  190.0560  176.6740  138.9670 C   0  0  0  0  0  0  0  0  0  0  0  0
  190.6160  176.5600  137.7110 C   0  0  0  0  0  0  0  0  0  0  0  0
  188.6130  176.6840  139.1800 C   0  0  0  0  0  1  0  0  0  0  0  0
  192.1640  176.3440  135.2250 O   0  0  0  0  0  0  0  0  0  0  0  0
  188.7760  175.7400  136.0810 C   0  0  0  0  0  1  0  0  0  0  0  0
  189.1180  178.1700  136.3310 C   0  0  0  0  0  1  0  0  0  0  0  0
  189.7690  176.8270  136.4210 C   0  0  0  0  0  3  0  0  0  0  0  0
  194.3210  176.5670  136.1720 C   0  0  0  0  0  0  0  0  0  0  0  0
  194.8550  177.6510  135.8380 O   0  0  0  0  0  0  0  0  0  0  0  0
  194.8640  174.3460  137.3250 C   0  0  0  0  0  3  0  0  0  0  0  0
  195.3450  172.1880  138.3560 N   0  0  0  0  0  1  0  0  0  0  0  0
  196.9490  173.2310  136.8890 C   0  0  0  0  0  3  0  0  0  0  0  0
  197.3300  174.2280  136.0000 C   0  0  0  0  0  3  0  0  0  0  0  0
  195.7050  173.2650  137.5290 C   0  0  0  0  0  0  0  0  0  0  0  0
  196.4790  175.3070  135.7710 C   0  0  0  0  0  3  0  0  0  0  0  0
  195.2240  175.3800  136.4310 C   0  0  0  0  0  0  0  0  0  0  0  0
  185.5090  177.1610  146.0010 C   0  0  0  0  0  2  0  0  0  0  0  0
  184.8350  180.7240  144.7300 C   0  0  0  0  0  3  0  0  0  0  0  0
  184.7430  178.3600  145.3780 C   0  0  0  0  0  0  0  0  0  0  0  0
  183.7850  180.5070  143.8980 C   0  0  0  0  0  3  0  0  0  0  0  0
  186.1900  179.9890  146.4490 F   0  0  0  0  0  0  0  0  0  0  0  0
  183.0980  179.3080  143.8620 C   0  0  0  0  0  0  0  0  0  0  0  0
  183.6110  178.2210  144.5800 C   0  0  0  0  0  3  0  0  0  0  0  0
  185.2870  179.6190  145.5060 C   0  0  0  0  0  0  0  0  0  0  0  0
  181.9290  178.9730  141.5380 C   0  0  2  0  0  3  0  0  0  0  0  0
  182.0070  179.2010  143.0030 N   0  0  0  0  0  0  0  0  0  0  0  0
  180.9950  177.9070  141.4980 N   0  0  1  0  0  0  0  0  0  0  0  0
  183.2280  178.5770  140.7830 C   0  0  0  0  0  1  0  0  0  0  0  0
  180.7140  178.8160  143.6190 C   0  0  0  0  0  2  0  0  0  0  0  0
  179.9920  178.1430  142.5230 C   0  0  0  0  0  2  0  0  0  0  0  0
  180.4520  177.7010  140.1910 C   0  0  1  0  0  3  0  0  0  0  0  0
  180.8430  176.2100  139.8980 C   0  0  1  0  0  3  0  0  0  0  0  0
  179.5200  176.6140  139.9820 O   0  0  0  0  0  0  0  0  0  0  0  0
  180.7170  175.4850  137.3890 O   0  0  0  0  0  1  0  0  0  0  0  0
  181.5140  176.1280  138.4400 C   0  0  2  0  0  3  0  0  0  0  0  0
  183.0100  175.6600  138.3340 C   0  0  0  0  0  2  0  0  0  0  0  0
  183.3430  177.2440  136.6420 O   0  0  0  0  0  1  0  0  0  0  0  0
  184.0020  176.6320  137.7320 C   0  0  2  0  0  3  0  0  0  0  0  0
  185.1530  175.7830  137.2210 C   0  0  0  0  0  2  0  0  0  0  0  0
  186.1200  173.0080  137.7180 O   0  0  0  0  0  0  0  0  0  0  0  0
  184.7210  174.5340  136.6060 N   0  0  0  0  0  0  0  0  0  0  0  0
  184.2290  174.6250  135.2450 C   0  0  0  0  0  1  0  0  0  0  0  0
  185.0200  173.2520  137.1770 C   0  0  0  0  0  0  0  0  0  0  0  0
  183.9580  172.2430  137.2330 C   0  0  0  0  0  1  0  0  0  0  0  0
  1 36  1  0  0  0  0
  2  4  1  0  0  0  0
  2  1  2  0  0  0  0
  3  9  1  0  0  0  0
  3  8  1  0  0  0  0
  4  7  1  0  0  0  0
  5  6  1  0  0  0  0
  5  4  2  0  0  0  0
  6  3  2  0  0  0  0
  7  8  2  0  0  0  0
 10  2  1  0  0  0  0
 11 10  2  0  0  0  0
 12 10  1  0  0  0  0
 13 12  2  0  0  0  0
 14 13  2  0  0  0  0
 15 14  1  0  0  0  0
 16 18  1  0  0  0  0
 17 21  1  0  0  0  0
 17 16  1  0  0  0  0
 18 15  2  0  0  0  0
 19 17  1  0  0  0  0
 20 22  1  0  0  0  0
 20 15  1  0  0  0  0
 21 20  2  0  0  0  0
 23 19  2  0  0  0  0
 24 26  1  0  0  0  0
 25 26  1  0  0  0  0
 26 21  1  0  0  0  0
 27 19  1  0  0  0  0
 27 35  1  0  0  0  0
 28 27  2  0  0  0  0
 29 33  1  0  0  0  0
 31 33  2  0  0  0  0
 32 31  1  0  0  0  0
 33 30  1  0  0  0  0
 34 32  2  0  0  0  0
 34 35  1  0  0  0  0
 35 29  2  0  0  0  0
 37 43  1  0  0  0  0
 38 43  2  0  0  0  0
 38 36  1  0  0  0  0
 39 37  2  0  0  0  0
 41 39  1  0  0  0  0
 41 42  2  0  0  0  0
 42 38  1  0  0  0  0
 43 40  1  0  0  0  0
 44 47  1  1  0  0  0
 44 45  1  0  0  0  0
 45 48  1  0  0  0  0
 45 41  1  0  0  0  0
 46 44  1  0  0  0  0
 46 49  1  1  0  0  0
 49 48  1  0  0  0  0
 50 52  1  1  0  0  0
 50 46  1  0  0  0  0
 51 54  1  6  0  0  0
 51 52  1  0  0  0  0
 51 50  1  0  0  0  0
 54 53  1  6  0  0  0
 55 54  1  0  0  0  0
 57 56  1  6  0  0  0
 57 55  1  0  0  0  0
 58 57  1  0  0  0  0
 60 62  1  0  0  0  0
 60 58  1  0  0  0  0
 61 60  1  0  0  0  0
 62 63  1  0  0  0  0
 62 59  2  0  0  0  0
M  END
>  <MODEL>
8

>  <REMARK>
 VINA RESULT:      -6.7      2.895     10.881
  Name = 
  16 active torsions:
  status: ('A' for Active; 'I' for Inactive)
    1  A    between atoms: C_1  and  C_47
    2  A    between atoms: C_3  and  C_39
    3  A    between atoms: C_3  and  C_54
    4  A    between atoms: C_6  and  C_16
    5  A    between atoms: N_7  and  C_59
    6  A    between atoms: C_12  and  N_24
    7  A    between atoms: C_12  and  C_46
    8  A    between atoms: N_15  and  C_25
    9  A    between atoms: C_16  and  C_42
   10  A    between atoms: C_17  and  C_42
   11  A    between atoms: C_19  and  N_26
   12  A    between atoms: C_20  and  C_31
   13  A    between atoms: C_20  and  C_46
   14  A    between atoms: C_25  and  C_32
   15  A    between atoms: C_27  and  C_31
   16  A    between atoms: C_49  and  C_60
                            x       y       z     vdW  Elec       q    Type
                         _______ _______ _______ _____ _____    ______ ____

>  <TORSDO>
F 16

$$$$
=
 OpenBabel11042410523D

 63 68  0  0  1  0  0  0  0  0999 V2000
  188.5860  177.9700  142.2610 N   0  0  0  0  0  0  0  0  0  0  0  0
  188.1170  177.6760  143.4580 C   0  0  0  0  0  0  0  0  0  0  0  0
  191.3630  176.5420  146.1290 C   0  0  0  0  0  0  0  0  0  0  0  0
  189.2120  176.9540  144.2850 C   0  0  0  0  0  0  0  0  0  0  0  0
  189.0290  176.9150  145.6830 C   0  0  0  0  0  3  0  0  0  0  0  0
  190.0630  176.7380  146.5810 C   0  0  0  0  0  3  0  0  0  0  0  0
  190.5260  176.6710  143.8220 C   0  0  0  0  0  3  0  0  0  0  0  0
  191.5900  176.4360  144.7610 C   0  0  0  0  0  3  0  0  0  0  0  0
  192.4210  176.4120  147.0430 O   0  0  0  0  0  1  0  0  0  0  0  0
  186.7270  178.1080  143.8500 C   0  0  0  0  0  0  0  0  0  0  0  0
  186.5240  178.9410  144.7860 O   0  0  0  0  0  0  0  0  0  0  0  0
  185.5260  177.6010  143.2050 C   0  0  0  0  0  3  0  0  0  0  0  0
  184.8790  178.3190  142.2820 C   0  0  0  0  0  0  0  0  0  0  0  0
  184.1840  179.0240  141.3520 C   0  0  0  0  0  3  0  0  0  0  0  0
  183.3950  178.3080  140.3210 C   0  0  0  0  0  0  0  0  0  0  0  0
  183.4700  176.9260  138.2070 C   0  0  0  0  0  2  0  0  0  0  0  0
  182.0590  176.5930  138.4500 N   0  0  0  0  0  0  0  0  0  0  0  0
  184.0560  177.7860  139.3110 C   0  0  0  0  0  3  0  0  0  0  0  0
  181.5800  175.6790  137.4620 C   0  0  0  0  0  0  0  0  0  0  0  0
  181.8880  178.0870  140.4300 C   0  0  0  0  0  0  0  0  0  0  0  0
  181.2990  177.1720  139.5810 C   0  0  0  0  0  0  0  0  0  0  0  0
  181.1680  178.6940  141.5430 C   0  0  0  0  0  1  0  0  0  0  0  0
  180.4000  175.2180  137.5820 O   0  0  0  0  0  0  0  0  0  0  0  0
  179.1170  176.3430  140.7050 C   0  0  0  0  0  1  0  0  0  0  0  0
  178.9790  178.2590  139.1580 C   0  0  0  0  0  1  0  0  0  0  0  0
  179.7420  177.0210  139.5090 C   0  0  0  0  0  3  0  0  0  0  0  0
  182.3870  175.1370  136.2990 C   0  0  0  0  0  0  0  0  0  0  0  0
  182.4970  175.8420  135.2680 O   0  0  0  0  0  0  0  0  0  0  0  0
  184.1830  173.5060  135.4810 C   0  0  0  0  0  3  0  0  0  0  0  0
  185.9480  171.9810  134.7650 N   0  0  0  0  0  1  0  0  0  0  0  0
  184.3010  171.2800  136.3800 C   0  0  0  0  0  3  0  0  0  0  0  0
  183.2230  171.5300  137.2200 C   0  0  0  0  0  3  0  0  0  0  0  0
  184.8080  172.2720  135.5330 C   0  0  0  0  0  0  0  0  0  0  0  0
  182.6050  172.7780  137.1910 C   0  0  0  0  0  3  0  0  0  0  0  0
  183.0810  173.7920  136.3180 C   0  0  0  0  0  0  0  0  0  0  0  0
  188.2610  178.8000  141.0620 C   0  0  0  0  0  2  0  0  0  0  0  0
  188.0660  177.6360  137.4050 C   0  0  0  0  0  3  0  0  0  0  0  0
  188.5640  177.9720  139.7840 C   0  0  0  0  0  0  0  0  0  0  0  0
  189.2470  176.9790  137.2810 C   0  0  0  0  0  3  0  0  0  0  0  0
  186.4390  178.5540  138.7640 F   0  0  0  0  0  0  0  0  0  0  0  0
  190.0470  176.6710  138.3660 C   0  0  0  0  0  0  0  0  0  0  0  0
  189.7160  177.2090  139.6150 C   0  0  0  0  0  3  0  0  0  0  0  0
  187.7180  178.1050  138.7040 C   0  0  0  0  0  0  0  0  0  0  0  0
  191.4510  174.6160  137.5390 C   0  0  2  0  0  3  0  0  0  0  0  0
  191.2200  175.9550  138.1360 N   0  0  0  0  0  0  0  0  0  0  0  0
  192.4550  174.9330  136.5890 N   0  0  1  0  0  0  0  0  0  0  0  0
  190.2590  173.9010  136.8440 C   0  0  0  0  0  1  0  0  0  0  0  0
  192.4710  176.7450  138.0440 C   0  0  0  0  0  2  0  0  0  0  0  0
  193.3380  175.9280  137.1750 C   0  0  0  0  0  2  0  0  0  0  0  0
  193.1310  173.7730  136.0980 C   0  0  1  0  0  3  0  0  0  0  0  0
  194.5650  173.9350  136.7160 C   0  0  1  0  0  3  0  0  0  0  0  0
  193.7460  172.8660  137.0430 O   0  0  0  0  0  0  0  0  0  0  0  0
  196.3140  172.4100  135.5130 O   0  0  0  0  0  1  0  0  0  0  0  0
  195.6560  173.7200  135.5550 C   0  0  2  0  0  3  0  0  0  0  0  0
  196.7130  174.8550  135.3070 C   0  0  0  0  0  2  0  0  0  0  0  0
  198.1280  173.0190  134.9760 O   0  0  0  0  0  1  0  0  0  0  0  0
  198.1430  174.4310  135.0520 C   0  0  2  0  0  3  0  0  0  0  0  0
  198.9280  174.8670  136.2770 C   0  0  0  0  0  2  0  0  0  0  0  0
  198.6120  175.9500  139.0350 O   0  0  0  0  0  0  0  0  0  0  0  0
  198.5270  174.1760  137.4960 N   0  0  0  0  0  0  0  0  0  0  0  0
  198.8660  172.7690  137.5790 C   0  0  0  0  0  1  0  0  0  0  0  0
  198.0850  174.8780  138.6680 C   0  0  0  0  0  0  0  0  0  0  0  0
  196.9030  174.3820  139.3800 C   0  0  0  0  0  1  0  0  0  0  0  0
  1  2  2  0  0  0  0
  2 10  1  0  0  0  0
  2  4  1  0  0  0  0
  3  6  1  0  0  0  0
  3  9  1  0  0  0  0
  4  5  1  0  0  0  0
  5  6  2  0  0  0  0
  7  4  2  0  0  0  0
  7  8  1  0  0  0  0
  8  3  2  0  0  0  0
 10 11  2  0  0  0  0
 12 10  1  0  0  0  0
 13 12  2  0  0  0  0
 14 13  2  0  0  0  0
 15 20  1  0  0  0  0
 15 14  1  0  0  0  0
 16 17  1  0  0  0  0
 16 18  1  0  0  0  0
 17 21  1  0  0  0  0
 18 15  2  0  0  0  0
 19 23  2  0  0  0  0
 19 17  1  0  0  0  0
 20 22  1  0  0  0  0
 21 20  2  0  0  0  0
 25 26  1  0  0  0  0
 26 21  1  0  0  0  0
 26 24  1  0  0  0  0
 27 35  1  0  0  0  0
 27 19  1  0  0  0  0
 28 27  2  0  0  0  0
 29 33  2  0  0  0  0
 29 35  1  0  0  0  0
 30 33  1  0  0  0  0
 31 32  2  0  0  0  0
 33 31  1  0  0  0  0
 34 32  1  0  0  0  0
 35 34  2  0  0  0  0
 36  1  1  0  0  0  0
 37 43  1  0  0  0  0
 38 36  1  0  0  0  0
 39 37  2  0  0  0  0
 39 41  1  0  0  0  0
 41 42  2  0  0  0  0
 42 38  1  0  0  0  0
 43 40  1  0  0  0  0
 43 38  2  0  0  0  0
 44 47  1  6  0  0  0
 44 45  1  0  0  0  0
 45 41  1  0  0  0  0
 46 49  1  1  0  0  0
 46 44  1  0  0  0  0
 48 45  1  0  0  0  0
 49 48  1  0  0  0  0
 50 46  1  0  0  0  0
 50 51  1  0  0  0  0
 50 52  1  1  0  0  0
 51 54  1  6  0  0  0
 51 52  1  0  0  0  0
 54 53  1  1  0  0  0
 55 54  1  0  0  0  0
 57 56  1  1  0  0  0
 57 55  1  0  0  0  0
 57 58  1  0  0  0  0
 58 60  1  0  0  0  0
 60 61  1  0  0  0  0
 60 62  1  0  0  0  0
 62 59  2  0  0  0  0
 62 63  1  0  0  0  0
M  END
>  <MODEL>
9

>  <REMARK>
 VINA RESULT:      -6.7      2.790      4.323
  Name = 
  16 active torsions:
  status: ('A' for Active; 'I' for Inactive)
    1  A    between atoms: C_1  and  C_47
    2  A    between atoms: C_3  and  C_39
    3  A    between atoms: C_3  and  C_54
    4  A    between atoms: C_6  and  C_16
    5  A    between atoms: N_7  and  C_59
    6  A    between atoms: C_12  and  N_24
    7  A    between atoms: C_12  and  C_46
    8  A    between atoms: N_15  and  C_25
    9  A    between atoms: C_16  and  C_42
   10  A    between atoms: C_17  and  C_42
   11  A    between atoms: C_19  and  N_26
   12  A    between atoms: C_20  and  C_31
   13  A    between atoms: C_20  and  C_46
   14  A    between atoms: C_25  and  C_32
   15  A    between atoms: C_27  and  C_31
   16  A    between atoms: C_49  and  C_60
                            x       y       z     vdW  Elec       q    Type
                         _______ _______ _______ _____ _____    ______ ____

>  <TORSDO>
F 16

$$$$
