=
 OpenBabel11042410513D

 63 69  0  0  1  0  0  0  0  0999 V2000
  184.6570  178.1820  144.2590 C   0  0  1  0  0  3  0  0  0  0  0  0
  186.2720  178.5850  142.1760 S   0  0  0  0  0  0  0  0  0  0  0  0
  186.8830  177.5420  143.5290 C   0  0  2  0  0  3  0  0  0  0  0  0
  184.6240  178.9210  142.9640 C   0  0  1  0  0  3  0  0  0  0  0  0
  186.0350  177.8780  144.7450 C   0  0  0  0  0  2  0  0  0  0  0  0
  184.4360  178.6310  146.4780 C   0  0  0  0  0  1  0  0  0  0  0  0
  183.7780  178.6700  145.1900 O   0  0  0  0  0  0  0  0  0  0  0  0
  183.2680  178.8630  142.1430 C   0  0  2  0  0  3  0  0  0  0  0  0
  182.1550  178.8230  143.0950 N   0  0  0  0  0  2  0  0  0  0  0  0
  181.1310  179.7940  142.9660 C   0  0  2  0  0  3  0  0  0  0  0  0
  179.8290  179.1880  143.3930 C   0  0  0  0  0  2  0  0  0  0  0  0
  180.1770  179.3880  141.9250 N   0  0  0  0  0  0  0  0  0  0  0  0
  179.2790  180.4430  141.3020 C   0  0  0  0  0  2  0  0  0  0  0  0
  179.5910  182.0360  139.2550 C   0  0  0  0  0  0  0  0  0  0  0  0
  179.6320  180.6200  139.8230 C   0  0  1  0  0  3  0  0  0  0  0  0
  181.5630  181.5860  137.9460 C   0  0  0  0  0  2  0  0  0  0  0  0
  180.9630  180.1150  139.7340 O   0  0  0  0  0  0  0  0  0  0  0  0
  180.2810  182.2850  138.0800 N   0  0  0  0  0  0  0  0  0  0  0  0
  178.9570  183.0020  139.8190 O   0  0  0  0  0  0  0  0  0  0  0  0
  181.3670  180.1380  138.3950 C   0  0  0  0  0  2  0  0  0  0  0  0
  179.6220  182.9090  136.9220 C   0  0  0  0  0  2  0  0  0  0  0  0
  180.7880  184.7470  137.8210 F   0  0  0  0  0  0  0  0  0  0  0  0
  180.1170  184.3450  136.6980 C   0  0  0  0  0  0  0  0  0  0  0  0
  179.0650  185.1970  136.4540 F   0  0  0  0  0  0  0  0  0  0  0  0
  180.9780  184.3860  135.6330 F   0  0  0  0  0  0  0  0  0  0  0  0
  183.2150  177.6450  141.2990 C   0  0  0  0  0  2  0  0  0  0  0  0
  183.6790  177.8900  139.8390 C   0  0  2  0  0  3  0  0  0  0  0  0
  185.4200  179.1250  138.7240 N   0  0  0  0  0  0  0  0  0  0  0  0
  185.6720  178.1360  137.9340 C   0  0  0  0  0  0  0  0  0  0  0  0
  184.9840  176.4660  136.6240 N   0  0  0  0  0  0  0  0  0  0  0  0
  184.7950  177.0330  137.8780 N   0  0  0  0  0  0  0  0  0  0  0  0
  186.3310  176.6220  134.5940 C   0  0  0  0  0  1  0  0  0  0  0  0
  183.5190  177.0410  138.5710 C   0  0  1  0  0  3  0  0  0  0  0  0
  185.9000  177.1050  135.9820 C   0  0  0  0  0  0  0  0  0  0  0  0
  183.0280  175.6160  138.7840 C   0  0  0  0  0  1  0  0  0  0  0  0
  186.4810  178.2300  136.7160 N   0  0  0  0  0  2  0  0  0  0  0  0
  184.4540  178.9870  139.7770 C   0  0  0  0  0  2  0  0  0  0  0  0
  188.3590  177.6700  144.0030 C   0  0  0  0  0  2  0  0  0  0  0  0
  190.3890  176.6910  144.6230 F   0  0  0  0  0  0  0  0  0  0  0  0
  189.1060  175.4630  143.2220 F   0  0  0  0  0  0  0  0  0  0  0  0
  189.5110  176.7620  143.5890 C   0  0  0  0  0  0  0  0  0  0  0  0
  190.0540  177.5350  142.4080 C   0  0  0  0  0  2  0  0  0  0  0  0
  188.7300  177.1540  140.4170 O   0  0  0  0  0  0  0  0  0  0  0  0
  189.8260  177.0900  140.9680 C   0  0  0  0  0  0  0  0  0  0  0  0
  191.0080  176.8000  140.1040 C   0  0  0  0  0  2  0  0  0  0  0  0
  191.8640  175.8660  136.4410 C   0  0  2  0  0  3  0  0  0  0  0  0
  191.8630  174.4030  135.9440 C   0  0  1  0  0  3  0  0  0  0  0  0
  193.2820  176.3800  136.7510 C   0  0  0  0  0  2  0  0  0  0  0  0
  194.2810  175.7950  135.8090 C   0  0  2  0  0  3  0  0  0  0  0  0
  190.3670  177.9730  138.1180 O   0  0  0  0  0  0  0  0  0  0  0  0
  194.4650  174.3280  136.3240 C   0  0  1  0  0  3  0  0  0  0  0  0
  191.0700  175.8160  137.6380 N   0  0  0  0  0  0  0  0  0  0  0  0
  195.4270  176.6030  135.8260 O   0  0  0  0  0  1  0  0  0  0  0  0
  190.8340  176.8960  138.5930 C   0  0  0  0  0  0  0  0  0  0  0  0
  193.1610  173.5450  136.0720 C   0  0  0  0  0  2  0  0  0  0  0  0
  189.9580  172.8340  136.1540 O   0  0  0  0  0  0  0  0  0  0  0  0
  190.3240  174.6050  137.7320 N   0  0  0  0  0  2  0  0  0  0  0  0
  190.6640  173.8260  136.6010 C   0  0  0  0  0  0  0  0  0  0  0  0
  195.5520  173.6850  135.6800 O   0  0  0  0  0  0  0  0  0  0  0  0
  196.4470  173.0060  136.5860 C   0  0  1  0  0  3  0  0  0  0  0  0
  196.4340  173.5740  137.9970 C   0  0  0  0  0  1  0  0  0  0  0  0
  196.3320  171.5360  136.6210 N   0  0  0  0  0  2  0  0  0  0  0  0
  196.0210  171.1010  137.8700 O   0  0  0  0  0  1  0  0  0  0  0  0
  1  5  1  0  0  0  0
  1  7  1  1  0  0  0
  2  4  1  0  0  0  0
  2  3  1  0  0  0  0
  3 38  1  1  0  0  0
  3  5  1  0  0  0  0
  4  8  1  6  0  0  0
  4  1  1  0  0  0  0
  7  6  1  0  0  0  0
  8 26  1  1  0  0  0
  8  9  1  0  0  0  0
 10  9  1  6  0  0  0
 10 11  1  0  0  0  0
 12 10  1  0  0  0  0
 12 11  1  0  0  0  0
 13 12  1  0  0  0  0
 14 19  2  0  0  0  0
 14 15  1  0  0  0  0
 15 13  1  1  0  0  0
 16 18  1  0  0  0  0
 16 20  1  0  0  0  0
 17 15  1  0  0  0  0
 18 14  1  0  0  0  0
 20 17  1  0  0  0  0
 21 18  1  0  0  0  0
 23 21  1  0  0  0  0
 23 22  1  0  0  0  0
 24 23  1  0  0  0  0
 25 23  1  0  0  0  0
 27 26  1  1  0  0  0
 28 37  1  0  0  0  0
 29 28  2  0  0  0  0
 30 31  1  0  0  0  0
 31 29  1  0  0  0  0
 31 33  1  0  0  0  0
 32 34  1  0  0  0  0
 33 35  1  1  0  0  0
 33 27  1  0  0  0  0
 34 30  2  0  0  0  0
 34 36  1  0  0  0  0
 36 29  1  0  0  0  0
 37 27  1  0  0  0  0
 40 41  1  0  0  0  0
 41 38  1  0  0  0  0
 41 39  1  0  0  0  0
 42 41  1  0  0  0  0
 43 44  2  0  0  0  0
 44 42  1  0  0  0  0
 45 44  1  0  0  0  0
 46 48  1  1  0  0  0
 46 52  1  0  0  0  0
 47 55  1  1  0  0  0
 47 46  1  0  0  0  0
 47 58  1  0  0  0  0
 49 53  1  1  0  0  0
 49 51  1  0  0  0  0
 49 48  1  0  0  0  0
 50 54  2  0  0  0  0
 51 59  1  6  0  0  0
 52 57  1  0  0  0  0
 52 54  1  0  0  0  0
 54 45  1  0  0  0  0
 55 51  1  0  0  0  0
 56 58  2  0  0  0  0
 58 57  1  0  0  0  0
 59 60  1  0  0  0  0
 60 62  1  0  0  0  0
 60 61  1  1  0  0  0
 62 63  1  0  0  0  0
M  END
>  <MODEL>
1

>  <REMARK>
 VINA RESULT:      -7.8      0.000      0.000
  Name = 
  19 active torsions:
  status: ('A' for Active; 'I' for Inactive)
    1  A    between atoms: N_1  and  C_2
    2  A    between atoms: C_2  and  O_29
    3  A    between atoms: C_3  and  O_36
    4  A    between atoms: C_4  and  C_55
    5  A    between atoms: C_7  and  C_35
    6  A    between atoms: C_7  and  N_44
    7  A    between atoms: N_9  and  C_23
    8  A    between atoms: N_9  and  C_37
    9  A    between atoms: C_22  and  O_29
   10  A    between atoms: C_24  and  C_39
   11  A    between atoms: C_30  and  C_48
   12  A    between atoms: C_32  and  C_62
   13  A    between atoms: C_37  and  C_54
   14  A    between atoms: C_37  and  C_55
   15  A    between atoms: C_39  and  N_45
   16  A    between atoms: C_48  and  C_63
   17  A    between atoms: C_52  and  C_53
   18  A    between atoms: C_52  and  C_62
   19  A    between atoms: C_53  and  C_63
                            x       y       z     vdW  Elec       q    Type
                         _______ _______ _______ _____ _____    ______ ____

>  <TORSDO>
F 19

$$$$
=
 OpenBabel11042410513D

 63 69  0  0  1  0  0  0  0  0999 V2000
  184.3410  178.3160  139.6770 C   0  0  1  0  0  3  0  0  0  0  0  0
  182.5260  176.3700  139.5080 S   0  0  0  0  0  0  0  0  0  0  0  0
  183.9400  176.3070  138.3730 C   0  0  2  0  0  3  0  0  0  0  0  0
  183.0660  177.9350  140.3500 C   0  0  1  0  0  3  0  0  0  0  0  0
  184.5110  177.7150  138.3220 C   0  0  0  0  0  2  0  0  0  0  0  0
  183.9680  180.3470  138.7260 C   0  0  0  0  0  1  0  0  0  0  0  0
  184.6460  179.6460  139.7950 O   0  0  0  0  0  0  0  0  0  0  0  0
  183.0110  178.1080  141.9260 C   0  0  2  0  0  3  0  0  0  0  0  0
  181.6140  177.9970  142.3520 N   0  0  0  0  0  2  0  0  0  0  0  0
  180.8080  179.1630  142.3130 C   0  0  2  0  0  3  0  0  0  0  0  0
  179.4750  178.8550  142.9240 C   0  0  0  0  0  2  0  0  0  0  0  0
  179.6630  178.9560  141.4160 N   0  0  0  0  0  0  0  0  0  0  0  0
  178.9330  180.1700  140.8680 C   0  0  0  0  0  2  0  0  0  0  0  0
  179.4510  181.5320  138.7000 C   0  0  0  0  0  0  0  0  0  0  0  0
  179.0560  180.2060  139.3420 C   0  0  1  0  0  3  0  0  0  0  0  0
  180.8390  180.3670  137.1100 C   0  0  0  0  0  2  0  0  0  0  0  0
  180.0580  179.2300  139.0640 O   0  0  0  0  0  0  0  0  0  0  0  0
  179.9620  181.5040  137.4130 N   0  0  0  0  0  0  0  0  0  0  0  0
  179.3420  182.6640  139.3000 O   0  0  0  0  0  0  0  0  0  0  0  0
  180.1930  179.1030  137.6780 C   0  0  0  0  0  2  0  0  0  0  0  0
  179.3920  182.3390  136.3440 C   0  0  0  0  0  2  0  0  0  0  0  0
  180.3790  183.8490  134.8290 F   0  0  0  0  0  0  0  0  0  0  0  0
  180.1810  183.6450  136.1680 C   0  0  0  0  0  0  0  0  0  0  0  0
  181.3920  183.5810  136.8150 F   0  0  0  0  0  0  0  0  0  0  0  0
  179.4640  184.6990  136.6720 F   0  0  0  0  0  0  0  0  0  0  0  0
  183.5270  179.4390  142.3280 C   0  0  0  0  0  2  0  0  0  0  0  0
  184.5530  179.3730  143.4890 C   0  0  2  0  0  3  0  0  0  0  0  0
  184.4960  179.3150  145.8950 N   0  0  0  0  0  0  0  0  0  0  0  0
  185.3930  178.3880  145.9360 C   0  0  0  0  0  0  0  0  0  0  0  0
  187.3050  177.4970  145.2120 N   0  0  0  0  0  0  0  0  0  0  0  0
  186.1080  178.0430  144.7690 N   0  0  0  0  0  0  0  0  0  0  0  0
  188.5250  176.8330  147.2200 C   0  0  0  0  0  1  0  0  0  0  0  0
  185.9810  178.8140  143.5450 C   0  0  1  0  0  3  0  0  0  0  0  0
  187.3270  177.4580  146.5000 C   0  0  0  0  0  0  0  0  0  0  0  0
  186.4130  177.9760  142.3500 C   0  0  0  0  0  1  0  0  0  0  0  0
  186.1240  177.9890  147.1410 N   0  0  0  0  0  2  0  0  0  0  0  0
  183.9820  179.7770  144.6370 C   0  0  0  0  0  2  0  0  0  0  0  0
  183.7270  175.8900  136.8890 C   0  0  0  0  0  2  0  0  0  0  0  0
  182.9740  173.7250  137.3480 F   0  0  0  0  0  0  0  0  0  0  0  0
  182.8310  174.3650  135.1820 F   0  0  0  0  0  0  0  0  0  0  0  0
  183.5740  174.4630  136.3770 C   0  0  0  0  0  0  0  0  0  0  0  0
  185.0250  174.0930  136.1670 C   0  0  0  0  0  2  0  0  0  0  0  0
  185.3940  172.9800  138.2850 O   0  0  0  0  0  0  0  0  0  0  0  0
  185.8760  173.4770  137.2700 C   0  0  0  0  0  0  0  0  0  0  0  0
  187.3260  173.2320  137.0140 C   0  0  0  0  0  2  0  0  0  0  0  0
  189.6970  176.2660  137.4600 C   0  0  2  0  0  3  0  0  0  0  0  0
  191.0320  176.1610  138.2310 C   0  0  1  0  0  3  0  0  0  0  0  0
  188.5740  176.8860  138.3130 C   0  0  0  0  0  2  0  0  0  0  0  0
  189.1150  177.9270  139.2360 C   0  0  2  0  0  3  0  0  0  0  0  0
  187.8480  174.9180  135.3970 O   0  0  0  0  0  0  0  0  0  0  0  0
  189.8130  177.0980  140.3660 C   0  0  1  0  0  3  0  0  0  0  0  0
  189.3890  174.9020  137.1310 N   0  0  0  0  0  0  0  0  0  0  0  0
  188.0540  178.7510  139.6400 O   0  0  0  0  0  1  0  0  0  0  0  0
  188.1710  174.3930  136.5030 C   0  0  0  0  0  0  0  0  0  0  0  0
  191.0510  176.3940  139.7740 C   0  0  0  0  0  2  0  0  0  0  0  0
  192.8250  174.5220  137.7440 O   0  0  0  0  0  0  0  0  0  0  0  0
  190.5160  174.0450  137.3000 N   0  0  0  0  0  2  0  0  0  0  0  0
  191.5710  174.8500  137.7900 C   0  0  0  0  0  0  0  0  0  0  0  0
  190.1940  177.9220  141.4540 O   0  0  0  0  0  0  0  0  0  0  0  0
  190.2190  177.2360  142.7230 C   0  0  1  0  0  3  0  0  0  0  0  0
  189.4030  175.9520  142.7400 C   0  0  0  0  0  1  0  0  0  0  0  0
  191.5550  177.0050  143.3020 N   0  0  0  0  0  2  0  0  0  0  0  0
  191.6710  177.6010  144.5170 O   0  0  0  0  0  1  0  0  0  0  0  0
  1  7  1  6  0  0  0
  1  4  1  0  0  0  0
  2  4  1  0  0  0  0
  3 38  1  6  0  0  0
  3  2  1  0  0  0  0
  4  8  1  1  0  0  0
  5  3  1  0  0  0  0
  5  1  1  0  0  0  0
  6  7  1  0  0  0  0
  8 26  1  6  0  0  0
  8  9  1  0  0  0  0
 10  9  1  6  0  0  0
 10 11  1  0  0  0  0
 12 10  1  0  0  0  0
 12 11  1  0  0  0  0
 13 12  1  0  0  0  0
 14 19  2  0  0  0  0
 14 15  1  0  0  0  0
 15 13  1  1  0  0  0
 16 18  1  0  0  0  0
 16 20  1  0  0  0  0
 17 15  1  0  0  0  0
 18 14  1  0  0  0  0
 20 17  1  0  0  0  0
 21 18  1  0  0  0  0
 22 23  1  0  0  0  0
 23 21  1  0  0  0  0
 23 25  1  0  0  0  0
 23 24  1  0  0  0  0
 27 26  1  1  0  0  0
 27 33  1  0  0  0  0
 27 37  1  0  0  0  0
 28 29  2  0  0  0  0
 29 36  1  0  0  0  0
 30 34  2  0  0  0  0
 31 30  1  0  0  0  0
 31 29  1  0  0  0  0
 33 35  1  6  0  0  0
 33 31  1  0  0  0  0
 34 36  1  0  0  0  0
 34 32  1  0  0  0  0
 37 28  1  0  0  0  0
 40 41  1  0  0  0  0
 41 38  1  0  0  0  0
 41 39  1  0  0  0  0
 42 41  1  0  0  0  0
 42 44  1  0  0  0  0
 44 43  2  0  0  0  0
 45 44  1  0  0  0  0
 46 47  1  0  0  0  0
 46 48  1  1  0  0  0
 47 55  1  1  0  0  0
 48 49  1  0  0  0  0
 49 53  1  1  0  0  0
 49 51  1  0  0  0  0
 50 54  2  0  0  0  0
 51 59  1  1  0  0  0
 52 57  1  0  0  0  0
 52 46  1  0  0  0  0
 54 45  1  0  0  0  0
 54 52  1  0  0  0  0
 55 51  1  0  0  0  0
 56 58  2  0  0  0  0
 57 58  1  0  0  0  0
 58 47  1  0  0  0  0
 59 60  1  0  0  0  0
 60 61  1  6  0  0  0
 60 62  1  0  0  0  0
 62 63  1  0  0  0  0
M  END
>  <MODEL>
2

>  <REMARK>
 VINA RESULT:      -7.7      3.138      6.087
  Name = 
  19 active torsions:
  status: ('A' for Active; 'I' for Inactive)
    1  A    between atoms: N_1  and  C_2
    2  A    between atoms: C_2  and  O_29
    3  A    between atoms: C_3  and  O_36
    4  A    between atoms: C_4  and  C_55
    5  A    between atoms: C_7  and  C_35
    6  A    between atoms: C_7  and  N_44
    7  A    between atoms: N_9  and  C_23
    8  A    between atoms: N_9  and  C_37
    9  A    between atoms: C_22  and  O_29
   10  A    between atoms: C_24  and  C_39
   11  A    between atoms: C_30  and  C_48
   12  A    between atoms: C_32  and  C_62
   13  A    between atoms: C_37  and  C_54
   14  A    between atoms: C_37  and  C_55
   15  A    between atoms: C_39  and  N_45
   16  A    between atoms: C_48  and  C_63
   17  A    between atoms: C_52  and  C_53
   18  A    between atoms: C_52  and  C_62
   19  A    between atoms: C_53  and  C_63
                            x       y       z     vdW  Elec       q    Type
                         _______ _______ _______ _____ _____    ______ ____

>  <TORSDO>
F 19

$$$$
=
 OpenBabel11042410513D

 63 69  0  0  1  0  0  0  0  0999 V2000
  185.8240  178.5410  140.9110 C   0  0  1  0  0  3  0  0  0  0  0  0
  187.0720  178.0440  143.2140 S   0  0  0  0  0  0  0  0  0  0  0  0
  185.2660  177.8760  143.1790 C   0  0  2  0  0  3  0  0  0  0  0  0
  187.2220  178.5380  141.4300 C   0  0  1  0  0  3  0  0  0  0  0  0
  184.7860  178.6700  141.9750 C   0  0  0  0  0  2  0  0  0  0  0  0
  184.2430  179.3390  139.4850 C   0  0  0  0  0  1  0  0  0  0  0  0
  185.6550  179.3220  139.7990 O   0  0  0  0  0  0  0  0  0  0  0  0
  188.3360  177.9330  140.4770 C   0  0  2  0  0  3  0  0  0  0  0  0
  189.6490  178.2900  141.0200 N   0  0  0  0  0  2  0  0  0  0  0  0
  190.5140  177.2410  141.4200 C   0  0  2  0  0  3  0  0  0  0  0  0
  189.6960  176.1340  142.0120 C   0  0  0  0  0  2  0  0  0  0  0  0
  190.4910  177.0970  142.8820 N   0  0  0  0  0  0  0  0  0  0  0  0
  191.6390  176.3740  143.5660 C   0  0  0  0  0  2  0  0  0  0  0  0
  190.2970  176.9840  145.7230 C   0  0  0  0  0  0  0  0  0  0  0  0
  191.6420  176.7000  145.0620 C   0  0  1  0  0  3  0  0  0  0  0  0
  190.9890  175.7770  147.6900 C   0  0  0  0  0  2  0  0  0  0  0  0
  192.2230  175.5400  145.6550 O   0  0  0  0  0  0  0  0  0  0  0  0
  190.2130  176.8730  147.1010 N   0  0  0  0  0  0  0  0  0  0  0  0
  189.2430  177.3090  145.0610 O   0  0  0  0  0  0  0  0  0  0  0  0
  192.3670  175.7590  147.0290 C   0  0  0  0  0  2  0  0  0  0  0  0
  189.6850  177.9700  147.9270 C   0  0  0  0  0  2  0  0  0  0  0  0
  187.4460  178.3830  147.3260 F   0  0  0  0  0  0  0  0  0  0  0  0
  188.2050  177.7520  148.2730 C   0  0  0  0  0  0  0  0  0  0  0  0
  187.9100  178.2560  149.5180 F   0  0  0  0  0  0  0  0  0  0  0  0
  187.9090  176.4140  148.2540 F   0  0  0  0  0  0  0  0  0  0  0  0
  188.2190  178.4910  139.1080 C   0  0  0  0  0  2  0  0  0  0  0  0
  188.5030  177.4500  137.9950 C   0  0  2  0  0  3  0  0  0  0  0  0
  190.1260  175.7240  137.5640 N   0  0  0  0  0  0  0  0  0  0  0  0
  189.2110  174.9020  137.1760 C   0  0  0  0  0  0  0  0  0  0  0  0
  187.3380  174.4660  136.0440 N   0  0  0  0  0  0  0  0  0  0  0  0
  187.8970  175.3620  136.9460 N   0  0  0  0  0  0  0  0  0  0  0  0
  187.7620  172.3820  134.8450 C   0  0  0  0  0  1  0  0  0  0  0  0
  187.5720  176.7770  136.9790 C   0  0  1  0  0  3  0  0  0  0  0  0
  188.1780  173.5280  135.7710 C   0  0  0  0  0  0  0  0  0  0  0  0
  186.0800  176.9680  137.2170 C   0  0  0  0  0  1  0  0  0  0  0  0
  189.4650  173.6510  136.4580 N   0  0  0  0  0  2  0  0  0  0  0  0
  189.7740  177.0180  138.0780 C   0  0  0  0  0  2  0  0  0  0  0  0
  184.4150  178.3840  144.3790 C   0  0  0  0  0  2  0  0  0  0  0  0
  182.5070  179.1640  145.4810 F   0  0  0  0  0  0  0  0  0  0  0  0
  183.3710  180.5630  143.9260 F   0  0  0  0  0  0  0  0  0  0  0  0
  183.1430  179.2180  144.2810 C   0  0  0  0  0  0  0  0  0  0  0  0
  182.4100  178.4670  143.1920 C   0  0  0  0  0  2  0  0  0  0  0  0
  180.0440  178.9320  143.4090 O   0  0  0  0  0  0  0  0  0  0  0  0
  181.0380  178.8960  142.6880 C   0  0  0  0  0  0  0  0  0  0  0  0
  180.9280  179.5370  141.3440 C   0  0  0  0  0  2  0  0  0  0  0  0
  179.9050  177.1130  138.4990 C   0  0  2  0  0  3  0  0  0  0  0  0
  180.0880  175.5830  138.6160 C   0  0  1  0  0  3  0  0  0  0  0  0
  181.0220  177.7760  137.6730 C   0  0  0  0  0  2  0  0  0  0  0  0
  181.4750  176.8810  136.5670 C   0  0  2  0  0  3  0  0  0  0  0  0
  178.9890  179.6740  139.9470 O   0  0  0  0  0  0  0  0  0  0  0  0
  182.3520  175.8060  137.2940 C   0  0  1  0  0  3  0  0  0  0  0  0
  179.9480  177.5630  139.8620 N   0  0  0  0  0  0  0  0  0  0  0  0
  182.1290  177.6650  135.6060 O   0  0  0  0  0  1  0  0  0  0  0  0
  179.9450  178.9430  140.3430 C   0  0  0  0  0  0  0  0  0  0  0  0
  181.4380  174.9330  138.1770 C   0  0  0  0  0  2  0  0  0  0  0  0
  179.1980  174.1840  140.4570 O   0  0  0  0  0  0  0  0  0  0  0  0
  179.7900  176.4870  140.7840 N   0  0  0  0  0  2  0  0  0  0  0  0
  179.6850  175.3030  140.0170 C   0  0  0  0  0  0  0  0  0  0  0  0
  183.0520  174.9950  136.3660 O   0  0  0  0  0  0  0  0  0  0  0  0
  183.4250  173.7030  136.8870 C   0  0  1  0  0  3  0  0  0  0  0  0
  183.7390  172.6760  135.8090 C   0  0  0  0  0  1  0  0  0  0  0  0
  184.4800  173.7060  137.9180 N   0  0  0  0  0  2  0  0  0  0  0  0
  185.3300  172.6600  137.7500 O   0  0  0  0  0  1  0  0  0  0  0  0
  1  7  1  6  0  0  0
  1  4  1  0  0  0  0
  1  5  1  0  0  0  0
  3  2  1  0  0  0  0
  3 38  1  1  0  0  0
  4  8  1  6  0  0  0
  4  2  1  0  0  0  0
  5  3  1  0  0  0  0
  6  7  1  0  0  0  0
  8 26  1  6  0  0  0
  8  9  1  0  0  0  0
 10  9  1  1  0  0  0
 10 11  1  0  0  0  0
 10 12  1  0  0  0  0
 11 12  1  0  0  0  0
 12 13  1  0  0  0  0
 14 18  1  0  0  0  0
 15 13  1  6  0  0  0
 15 17  1  0  0  0  0
 15 14  1  0  0  0  0
 17 20  1  0  0  0  0
 18 16  1  0  0  0  0
 18 21  1  0  0  0  0
 19 14  2  0  0  0  0
 20 16  1  0  0  0  0
 21 23  1  0  0  0  0
 22 23  1  0  0  0  0
 23 24  1  0  0  0  0
 25 23  1  0  0  0  0
 27 37  1  0  0  0  0
 27 26  1  1  0  0  0
 28 37  1  0  0  0  0
 29 28  2  0  0  0  0
 30 31  1  0  0  0  0
 31 33  1  0  0  0  0
 31 29  1  0  0  0  0
 32 34  1  0  0  0  0
 33 35  1  1  0  0  0
 33 27  1  0  0  0  0
 34 30  2  0  0  0  0
 34 36  1  0  0  0  0
 36 29  1  0  0  0  0
 40 41  1  0  0  0  0
 41 38  1  0  0  0  0
 41 39  1  0  0  0  0
 42 41  1  0  0  0  0
 44 42  1  0  0  0  0
 44 43  2  0  0  0  0
 45 44  1  0  0  0  0
 46 48  1  6  0  0  0
 46 47  1  0  0  0  0
 46 52  1  0  0  0  0
 47 55  1  1  0  0  0
 47 58  1  0  0  0  0
 49 53  1  6  0  0  0
 49 51  1  0  0  0  0
 49 48  1  0  0  0  0
 50 54  2  0  0  0  0
 51 59  1  6  0  0  0
 51 55  1  0  0  0  0
 52 54  1  0  0  0  0
 52 57  1  0  0  0  0
 54 45  1  0  0  0  0
 58 56  2  0  0  0  0
 58 57  1  0  0  0  0
 59 60  1  0  0  0  0
 60 61  1  6  0  0  0
 60 62  1  0  0  0  0
 63 62  1  0  0  0  0
M  END
>  <MODEL>
3

>  <REMARK>
 VINA RESULT:      -7.2      4.452     10.339
  Name = 
  19 active torsions:
  status: ('A' for Active; 'I' for Inactive)
    1  A    between atoms: N_1  and  C_2
    2  A    between atoms: C_2  and  O_29
    3  A    between atoms: C_3  and  O_36
    4  A    between atoms: C_4  and  C_55
    5  A    between atoms: C_7  and  C_35
    6  A    between atoms: C_7  and  N_44
    7  A    between atoms: N_9  and  C_23
    8  A    between atoms: N_9  and  C_37
    9  A    between atoms: C_22  and  O_29
   10  A    between atoms: C_24  and  C_39
   11  A    between atoms: C_30  and  C_48
   12  A    between atoms: C_32  and  C_62
   13  A    between atoms: C_37  and  C_54
   14  A    between atoms: C_37  and  C_55
   15  A    between atoms: C_39  and  N_45
   16  A    between atoms: C_48  and  C_63
   17  A    between atoms: C_52  and  C_53
   18  A    between atoms: C_52  and  C_62
   19  A    between atoms: C_53  and  C_63
                            x       y       z     vdW  Elec       q    Type
                         _______ _______ _______ _____ _____    ______ ____

>  <TORSDO>
F 19

$$$$
=
 OpenBabel11042410513D

 63 69  0  0  1  0  0  0  0  0999 V2000
  185.0710  178.2810  144.6800 C   0  0  1  0  0  3  0  0  0  0  0  0
  186.5170  178.4910  142.4500 S   0  0  0  0  0  0  0  0  0  0  0  0
  187.1900  177.4840  143.8010 C   0  0  2  0  0  3  0  0  0  0  0  0
  184.9630  178.9560  143.3540 C   0  0  1  0  0  3  0  0  0  0  0  0
  186.4680  177.9250  145.0640 C   0  0  0  0  0  2  0  0  0  0  0  0
  184.8450  178.4660  146.9360 C   0  0  0  0  0  1  0  0  0  0  0  0
  184.3020  178.8620  145.6540 O   0  0  0  0  0  0  0  0  0  0  0  0
  183.5400  178.9320  142.6550 C   0  0  2  0  0  3  0  0  0  0  0  0
  182.5140  178.9250  143.7000 N   0  0  0  0  0  2  0  0  0  0  0  0
  181.2130  179.3760  143.3620 C   0  0  2  0  0  3  0  0  0  0  0  0
  180.4870  178.2760  142.6490 C   0  0  0  0  0  2  0  0  0  0  0  0
  181.0730  179.4660  141.9020 N   0  0  0  0  0  0  0  0  0  0  0  0
  179.9660  180.3310  141.3250 C   0  0  0  0  0  2  0  0  0  0  0  0
  180.0720  179.7570  138.7780 C   0  0  0  0  0  0  0  0  0  0  0  0
  180.3290  180.7590  139.9000 C   0  0  1  0  0  3  0  0  0  0  0  0
  179.3350  181.5400  137.3330 C   0  0  0  0  0  2  0  0  0  0  0  0
  179.5300  181.9220  139.6870 O   0  0  0  0  0  0  0  0  0  0  0  0
  179.9970  180.2390  137.4820 N   0  0  0  0  0  0  0  0  0  0  0  0
  179.9140  178.4980  138.9820 O   0  0  0  0  0  0  0  0  0  0  0  0
  179.8480  182.4640  138.4370 C   0  0  0  0  0  2  0  0  0  0  0  0
  180.8200  179.6700  136.4040 C   0  0  0  0  0  2  0  0  0  0  0  0
  179.3200  179.8130  134.5940 F   0  0  0  0  0  0  0  0  0  0  0  0
  179.9640  178.9020  135.3860 C   0  0  0  0  0  0  0  0  0  0  0  0
  179.0430  178.1010  136.0200 F   0  0  0  0  0  0  0  0  0  0  0  0
  180.7630  178.1190  134.5950 F   0  0  0  0  0  0  0  0  0  0  0  0
  183.3810  177.7130  141.8250 C   0  0  0  0  0  2  0  0  0  0  0  0
  183.6260  177.9640  140.3140 C   0  0  2  0  0  3  0  0  0  0  0  0
  185.2940  179.0420  138.9510 N   0  0  0  0  0  0  0  0  0  0  0  0
  185.2960  178.0640  138.1090 C   0  0  0  0  0  0  0  0  0  0  0  0
  184.2140  176.5350  136.8970 N   0  0  0  0  0  0  0  0  0  0  0  0
  184.3000  177.0680  138.1770 N   0  0  0  0  0  0  0  0  0  0  0  0
  185.2220  176.6230  134.6740 C   0  0  0  0  0  1  0  0  0  0  0  0
  183.1640  177.1900  139.0730 C   0  0  1  0  0  3  0  0  0  0  0  0
  185.0820  177.0940  136.1250 C   0  0  0  0  0  0  0  0  0  0  0  0
  182.5510  175.8210  139.3340 C   0  0  0  0  0  1  0  0  0  0  0  0
  185.9020  178.1160  136.7760 N   0  0  0  0  0  2  0  0  0  0  0  0
  184.5030  178.9700  140.1480 C   0  0  0  0  0  2  0  0  0  0  0  0
  188.7060  177.5540  144.1410 C   0  0  0  0  0  2  0  0  0  0  0  0
  190.8920  176.7320  144.2360 F   0  0  0  0  0  0  0  0  0  0  0  0
  189.4560  175.5290  142.9670 F   0  0  0  0  0  0  0  0  0  0  0  0
  189.8200  176.8180  143.4050 C   0  0  0  0  0  0  0  0  0  0  0  0
  190.0480  177.7620  142.2460 C   0  0  0  0  0  2  0  0  0  0  0  0
  188.7810  177.8870  140.1860 O   0  0  0  0  0  0  0  0  0  0  0  0
  189.7130  177.3820  140.8090 C   0  0  0  0  0  0  0  0  0  0  0  0
  190.6860  176.5600  140.0310 C   0  0  0  0  0  2  0  0  0  0  0  0
  191.8980  175.6450  136.4650 C   0  0  2  0  0  3  0  0  0  0  0  0
  191.9590  174.1830  135.9670 C   0  0  1  0  0  3  0  0  0  0  0  0
  193.2740  176.1710  136.9110 C   0  0  0  0  0  2  0  0  0  0  0  0
  194.3650  175.5990  136.0680 C   0  0  2  0  0  3  0  0  0  0  0  0
  190.2270  177.7330  137.9960 O   0  0  0  0  0  0  0  0  0  0  0  0
  194.5130  174.1320  136.5950 C   0  0  1  0  0  3  0  0  0  0  0  0
  190.9940  175.5830  137.5810 N   0  0  0  0  0  0  0  0  0  0  0  0
  195.4960  176.4180  136.1960 O   0  0  0  0  0  1  0  0  0  0  0  0
  190.6570  176.6580  138.5110 C   0  0  0  0  0  0  0  0  0  0  0  0
  193.2470  173.3370  136.2170 C   0  0  0  0  0  2  0  0  0  0  0  0
  190.0580  172.5960  135.9910 O   0  0  0  0  0  0  0  0  0  0  0  0
  190.2540  174.3650  137.6000 N   0  0  0  0  0  2  0  0  0  0  0  0
  190.7080  173.5930  136.5050 C   0  0  0  0  0  0  0  0  0  0  0  0
  195.6630  173.5010  136.0570 O   0  0  0  0  0  0  0  0  0  0  0  0
  196.6410  173.1280  137.0490 C   0  0  1  0  0  3  0  0  0  0  0  0
  198.0760  173.1850  136.5440 C   0  0  0  0  0  1  0  0  0  0  0  0
  196.5260  173.8100  138.3520 N   0  0  0  0  0  2  0  0  0  0  0  0
  197.3140  174.9150  138.3970 O   0  0  0  0  0  1  0  0  0  0  0  0
  1  5  1  0  0  0  0
  1  7  1  1  0  0  0
  2  4  1  0  0  0  0
  2  3  1  0  0  0  0
  3 38  1  1  0  0  0
  3  5  1  0  0  0  0
  4  8  1  6  0  0  0
  4  1  1  0  0  0  0
  7  6  1  0  0  0  0
  8 26  1  1  0  0  0
  8  9  1  0  0  0  0
 10  9  1  6  0  0  0
 11 10  1  0  0  0  0
 12 11  1  0  0  0  0
 12 10  1  0  0  0  0
 13 12  1  0  0  0  0
 14 19  2  0  0  0  0
 14 15  1  0  0  0  0
 15 13  1  1  0  0  0
 16 18  1  0  0  0  0
 16 20  1  0  0  0  0
 17 15  1  0  0  0  0
 18 14  1  0  0  0  0
 20 17  1  0  0  0  0
 21 18  1  0  0  0  0
 22 23  1  0  0  0  0
 23 24  1  0  0  0  0
 23 21  1  0  0  0  0
 25 23  1  0  0  0  0
 27 26  1  1  0  0  0
 28 37  1  0  0  0  0
 29 31  1  0  0  0  0
 29 28  2  0  0  0  0
 30 31  1  0  0  0  0
 31 33  1  0  0  0  0
 32 34  1  0  0  0  0
 33 35  1  1  0  0  0
 33 27  1  0  0  0  0
 34 36  1  0  0  0  0
 34 30  2  0  0  0  0
 36 29  1  0  0  0  0
 37 27  1  0  0  0  0
 40 41  1  0  0  0  0
 41 38  1  0  0  0  0
 41 39  1  0  0  0  0
 42 41  1  0  0  0  0
 43 44  2  0  0  0  0
 44 42  1  0  0  0  0
 45 44  1  0  0  0  0
 46 48  1  1  0  0  0
 46 52  1  0  0  0  0
 47 55  1  1  0  0  0
 47 46  1  0  0  0  0
 47 58  1  0  0  0  0
 49 53  1  1  0  0  0
 49 51  1  0  0  0  0
 49 48  1  0  0  0  0
 50 54  2  0  0  0  0
 51 59  1  6  0  0  0
 52 57  1  0  0  0  0
 52 54  1  0  0  0  0
 54 45  1  0  0  0  0
 55 51  1  0  0  0  0
 56 58  2  0  0  0  0
 58 57  1  0  0  0  0
 59 60  1  0  0  0  0
 60 61  1  6  0  0  0
 60 62  1  0  0  0  0
 62 63  1  0  0  0  0
M  END
>  <MODEL>
4

>  <REMARK>
 VINA RESULT:      -7.0      1.688      2.060
  Name = 
  19 active torsions:
  status: ('A' for Active; 'I' for Inactive)
    1  A    between atoms: N_1  and  C_2
    2  A    between atoms: C_2  and  O_29
    3  A    between atoms: C_3  and  O_36
    4  A    between atoms: C_4  and  C_55
    5  A    between atoms: C_7  and  C_35
    6  A    between atoms: C_7  and  N_44
    7  A    between atoms: N_9  and  C_23
    8  A    between atoms: N_9  and  C_37
    9  A    between atoms: C_22  and  O_29
   10  A    between atoms: C_24  and  C_39
   11  A    between atoms: C_30  and  C_48
   12  A    between atoms: C_32  and  C_62
   13  A    between atoms: C_37  and  C_54
   14  A    between atoms: C_37  and  C_55
   15  A    between atoms: C_39  and  N_45
   16  A    between atoms: C_48  and  C_63
   17  A    between atoms: C_52  and  C_53
   18  A    between atoms: C_52  and  C_62
   19  A    between atoms: C_53  and  C_63
                            x       y       z     vdW  Elec       q    Type
                         _______ _______ _______ _____ _____    ______ ____

>  <TORSDO>
F 19

$$$$
=
 OpenBabel11042410513D

 63 69  0  0  1  0  0  0  0  0999 V2000
  190.5470  177.6340  141.5770 C   0  0  1  0  0  3  0  0  0  0  0  0
  187.8940  177.5170  141.3400 S   0  0  0  0  0  0  0  0  0  0  0  0
  188.5800  178.5700  142.6480 C   0  0  2  0  0  3  0  0  0  0  0  0
  189.5460  176.9500  140.7080 C   0  0  1  0  0  3  0  0  0  0  0  0
  189.9990  178.0840  142.8900 C   0  0  0  0  0  2  0  0  0  0  0  0
  191.9220  176.4240  142.9260 C   0  0  0  0  0  1  0  0  0  0  0  0
  191.7640  177.0040  141.6100 O   0  0  0  0  0  0  0  0  0  0  0  0
  189.8780  176.8760  139.1590 C   0  0  2  0  0  3  0  0  0  0  0  0
  191.3340  176.8680  139.0000 N   0  0  0  0  0  2  0  0  0  0  0  0
  191.8680  176.4210  137.7650 C   0  0  2  0  0  3  0  0  0  0  0  0
  191.7190  174.9330  137.6800 C   0  0  0  0  0  2  0  0  0  0  0  0
  193.0560  175.5880  138.0010 N   0  0  0  0  0  0  0  0  0  0  0  0
  194.0400  175.3770  136.8630 C   0  0  0  0  0  2  0  0  0  0  0  0
  196.3200  174.2140  136.3410 C   0  0  0  0  0  0  0  0  0  0  0  0
  195.1830  174.4690  137.3250 C   0  0  1  0  0  3  0  0  0  0  0  0
  197.9230  174.3350  138.1360 C   0  0  0  0  0  2  0  0  0  0  0  0
  195.6960  175.1380  138.4760 O   0  0  0  0  0  0  0  0  0  0  0  0
  197.5270  173.7600  136.8460 N   0  0  0  0  0  0  0  0  0  0  0  0
  196.2120  174.4110  135.0750 O   0  0  0  0  0  0  0  0  0  0  0  0
  196.6970  174.3470  139.0490 C   0  0  0  0  0  2  0  0  0  0  0  0
  198.1740  172.5510  136.3130 C   0  0  0  0  0  2  0  0  0  0  0  0
  196.5630  170.9490  135.6910 F   0  0  0  0  0  0  0  0  0  0  0  0
  197.4100  171.2800  136.7140 C   0  0  0  0  0  0  0  0  0  0  0  0
  196.6920  171.4800  137.8690 F   0  0  0  0  0  0  0  0  0  0  0  0
  198.2880  170.2460  136.9100 F   0  0  0  0  0  0  0  0  0  0  0  0
  189.3280  178.0540  138.4450 C   0  0  0  0  0  2  0  0  0  0  0  0
  188.3280  177.6780  137.3200 C   0  0  2  0  0  3  0  0  0  0  0  0
  188.1520  175.9960  135.6050 N   0  0  0  0  0  0  0  0  0  0  0  0
  186.9030  175.8030  135.8650 C   0  0  0  0  0  0  0  0  0  0  0  0
  184.8720  176.5860  136.3560 N   0  0  0  0  0  0  0  0  0  0  0  0
  186.2100  176.6930  136.7140 N   0  0  0  0  0  0  0  0  0  0  0  0
  183.3280  175.3650  134.9130 C   0  0  0  0  0  1  0  0  0  0  0  0
  186.8200  177.9230  137.1840 C   0  0  1  0  0  3  0  0  0  0  0  0
  184.7290  175.7050  135.4270 C   0  0  0  0  0  0  0  0  0  0  0  0
  186.1110  178.4150  138.4390 C   0  0  0  0  0  1  0  0  0  0  0  0
  185.9760  175.0690  135.0000 N   0  0  0  0  0  2  0  0  0  0  0  0
  188.9320  176.8980  136.4060 C   0  0  0  0  0  2  0  0  0  0  0  0
  187.9070  178.6040  144.0510 C   0  0  0  0  0  2  0  0  0  0  0  0
  187.1190  176.4130  144.2520 F   0  0  0  0  0  0  0  0  0  0  0  0
  188.8930  176.9310  145.5570 F   0  0  0  0  0  0  0  0  0  0  0  0
  187.7020  177.4070  144.9720 C   0  0  0  0  0  0  0  0  0  0  0  0
  186.7740  178.0120  146.0000 C   0  0  0  0  0  2  0  0  0  0  0  0
  184.5020  178.5670  146.6250 O   0  0  0  0  0  0  0  0  0  0  0  0
  185.2730  178.1360  145.7710 C   0  0  0  0  0  0  0  0  0  0  0  0
  184.7360  177.9720  144.3880 C   0  0  0  0  0  2  0  0  0  0  0  0
  181.8130  179.2990  142.2150 C   0  0  2  0  0  3  0  0  0  0  0  0
  180.3790  178.7360  142.3330 C   0  0  1  0  0  3  0  0  0  0  0  0
  182.5770  178.7130  141.0140 C   0  0  0  0  0  2  0  0  0  0  0  0
  181.6580  178.4630  139.8650 C   0  0  2  0  0  3  0  0  0  0  0  0
  184.3010  180.2430  143.7680 O   0  0  0  0  0  0  0  0  0  0  0  0
  180.8820  177.1680  140.2820 C   0  0  1  0  0  3  0  0  0  0  0  0
  182.4330  178.9060  143.4500 N   0  0  0  0  0  0  0  0  0  0  0  0
  182.4280  178.3720  138.6960 O   0  0  0  0  0  1  0  0  0  0  0  0
  183.8340  179.0680  143.8330 C   0  0  0  0  0  0  0  0  0  0  0  0
  179.9630  177.5010  141.4740 C   0  0  0  0  0  2  0  0  0  0  0  0
  179.0760  178.6030  144.4360 O   0  0  0  0  0  0  0  0  0  0  0  0
  181.4730  178.4890  144.4190 N   0  0  0  0  0  2  0  0  0  0  0  0
  180.2050  178.5670  143.7980 C   0  0  0  0  0  0  0  0  0  0  0  0
  180.1180  176.6520  139.2060 O   0  0  0  0  0  0  0  0  0  0  0  0
  180.5420  175.3460  138.7630 C   0  0  1  0  0  3  0  0  0  0  0  0
  182.0520  175.2030  138.6420 C   0  0  0  0  0  1  0  0  0  0  0  0
  179.9730  174.2020  139.4990 N   0  0  0  0  0  2  0  0  0  0  0  0
  178.9910  173.5990  138.7810 O   0  0  0  0  0  1  0  0  0  0  0  0
  1  7  1  1  0  0  0
  1  5  1  0  0  0  0
  2  3  1  0  0  0  0
  3  5  1  0  0  0  0
  3 38  1  1  0  0  0
  4  8  1  6  0  0  0
  4  2  1  0  0  0  0
  4  1  1  0  0  0  0
  7  6  1  0  0  0  0
  8 26  1  6  0  0  0
  9  8  1  0  0  0  0
 10 12  1  0  0  0  0
 10  9  1  1  0  0  0
 11 10  1  0  0  0  0
 11 12  1  0  0  0  0
 13 12  1  0  0  0  0
 14 18  1  0  0  0  0
 14 15  1  0  0  0  0
 15 13  1  6  0  0  0
 15 17  1  0  0  0  0
 16 20  1  0  0  0  0
 17 20  1  0  0  0  0
 18 16  1  0  0  0  0
 19 14  2  0  0  0  0
 21 23  1  0  0  0  0
 21 18  1  0  0  0  0
 22 23  1  0  0  0  0
 23 25  1  0  0  0  0
 23 24  1  0  0  0  0
 27 26  1  1  0  0  0
 28 29  2  0  0  0  0
 28 37  1  0  0  0  0
 29 31  1  0  0  0  0
 30 31  1  0  0  0  0
 31 33  1  0  0  0  0
 32 34  1  0  0  0  0
 33 27  1  0  0  0  0
 33 35  1  1  0  0  0
 34 30  2  0  0  0  0
 36 34  1  0  0  0  0
 36 29  1  0  0  0  0
 37 27  1  0  0  0  0
 38 41  1  0  0  0  0
 39 41  1  0  0  0  0
 41 40  1  0  0  0  0
 41 42  1  0  0  0  0
 44 42  1  0  0  0  0
 44 43  2  0  0  0  0
 45 44  1  0  0  0  0
 46 48  1  6  0  0  0
 46 47  1  0  0  0  0
 46 52  1  0  0  0  0
 47 55  1  6  0  0  0
 47 58  1  0  0  0  0
 49 53  1  6  0  0  0
 49 51  1  0  0  0  0
 49 48  1  0  0  0  0
 50 54  2  0  0  0  0
 51 59  1  6  0  0  0
 51 55  1  0  0  0  0
 52 54  1  0  0  0  0
 52 57  1  0  0  0  0
 54 45  1  0  0  0  0
 58 57  1  0  0  0  0
 58 56  2  0  0  0  0
 60 61  1  1  0  0  0
 60 59  1  0  0  0  0
 60 62  1  0  0  0  0
 63 62  1  0  0  0  0
M  END
>  <MODEL>
5

>  <REMARK>
 VINA RESULT:      -6.8      3.896     12.370
  Name = 
  19 active torsions:
  status: ('A' for Active; 'I' for Inactive)
    1  A    between atoms: N_1  and  C_2
    2  A    between atoms: C_2  and  O_29
    3  A    between atoms: C_3  and  O_36
    4  A    between atoms: C_4  and  C_55
    5  A    between atoms: C_7  and  C_35
    6  A    between atoms: C_7  and  N_44
    7  A    between atoms: N_9  and  C_23
    8  A    between atoms: N_9  and  C_37
    9  A    between atoms: C_22  and  O_29
   10  A    between atoms: C_24  and  C_39
   11  A    between atoms: C_30  and  C_48
   12  A    between atoms: C_32  and  C_62
   13  A    between atoms: C_37  and  C_54
   14  A    between atoms: C_37  and  C_55
   15  A    between atoms: C_39  and  N_45
   16  A    between atoms: C_48  and  C_63
   17  A    between atoms: C_52  and  C_53
   18  A    between atoms: C_52  and  C_62
   19  A    between atoms: C_53  and  C_63
                            x       y       z     vdW  Elec       q    Type
                         _______ _______ _______ _____ _____    ______ ____

>  <TORSDO>
F 19

$$$$
=
 OpenBabel11042410513D

 63 69  0  0  1  0  0  0  0  0999 V2000
  185.3300  178.3910  145.0420 C   0  0  1  0  0  3  0  0  0  0  0  0
  187.0160  178.6910  142.9990 S   0  0  0  0  0  0  0  0  0  0  0  0
  187.6320  177.8550  144.4870 C   0  0  2  0  0  3  0  0  0  0  0  0
  185.3090  178.9790  143.6710 C   0  0  1  0  0  3  0  0  0  0  0  0
  186.6990  178.2530  145.6180 C   0  0  0  0  0  2  0  0  0  0  0  0
  184.4220  178.1690  147.1150 C   0  0  0  0  0  1  0  0  0  0  0  0
  184.3700  178.9070  145.8730 O   0  0  0  0  0  0  0  0  0  0  0  0
  184.0060  178.7220  142.8040 C   0  0  2  0  0  3  0  0  0  0  0  0
  182.8890  178.4690  143.7170 N   0  0  0  0  0  2  0  0  0  0  0  0
  181.8000  179.3770  143.7090 C   0  0  2  0  0  3  0  0  0  0  0  0
  180.5360  178.6240  143.9920 C   0  0  0  0  0  2  0  0  0  0  0  0
  180.9010  179.0780  142.5860 N   0  0  0  0  0  0  0  0  0  0  0  0
  179.9430  180.1550  142.1080 C   0  0  0  0  0  2  0  0  0  0  0  0
  179.8200  180.4430  139.5140 C   0  0  0  0  0  0  0  0  0  0  0  0
  179.3180  179.7420  140.7730 C   0  0  1  0  0  3  0  0  0  0  0  0
  179.7140  178.3670  138.2950 C   0  0  0  0  0  2  0  0  0  0  0  0
  179.6110  178.3480  140.6850 O   0  0  0  0  0  0  0  0  0  0  0  0
  179.5930  179.8290  138.2940 N   0  0  0  0  0  0  0  0  0  0  0  0
  180.4480  181.5650  139.5370 O   0  0  0  0  0  0  0  0  0  0  0  0
  179.0020  177.8310  139.5370 C   0  0  0  0  0  2  0  0  0  0  0  0
  178.9400  180.5430  137.1860 C   0  0  0  0  0  2  0  0  0  0  0  0
  181.1860  181.0580  136.6960 F   0  0  0  0  0  0  0  0  0  0  0  0
  179.9530  180.9610  136.1100 C   0  0  0  0  0  0  0  0  0  0  0  0
  179.6080  182.1670  135.5480 F   0  0  0  0  0  0  0  0  0  0  0  0
  180.0090  180.0120  135.1230 F   0  0  0  0  0  0  0  0  0  0  0  0
  184.1800  177.5400  141.9260 C   0  0  0  0  0  2  0  0  0  0  0  0
  183.9280  177.8460  140.4270 C   0  0  2  0  0  3  0  0  0  0  0  0
  185.2120  178.6200  138.5430 N   0  0  0  0  0  0  0  0  0  0  0  0
  184.6820  177.7370  137.7660 C   0  0  0  0  0  0  0  0  0  0  0  0
  182.9070  176.5940  137.0430 N   0  0  0  0  0  0  0  0  0  0  0  0
  183.5650  176.9910  138.2000 N   0  0  0  0  0  0  0  0  0  0  0  0
  183.0520  176.6250  134.6050 C   0  0  0  0  0  1  0  0  0  0  0  0
  182.8850  177.2980  139.4450 C   0  0  1  0  0  3  0  0  0  0  0  0
  183.5520  177.0000  136.0030 C   0  0  0  0  0  0  0  0  0  0  0  0
  182.0940  176.0880  139.9230 C   0  0  0  0  0  1  0  0  0  0  0  0
  184.7700  177.7550  136.3040 N   0  0  0  0  0  2  0  0  0  0  0  0
  184.9030  178.6370  139.9450 C   0  0  0  0  0  2  0  0  0  0  0  0
  189.0680  178.1510  145.0060 C   0  0  0  0  0  2  0  0  0  0  0  0
  191.0260  179.2500  144.3550 F   0  0  0  0  0  0  0  0  0  0  0  0
  191.1810  176.9980  144.5090 F   0  0  0  0  0  0  0  0  0  0  0  0
  190.3470  178.0860  144.1800 C   0  0  0  0  0  0  0  0  0  0  0  0
  189.7650  177.9460  142.7910 C   0  0  0  0  0  2  0  0  0  0  0  0
  189.2540  176.0350  141.3940 O   0  0  0  0  0  0  0  0  0  0  0  0
  190.1080  176.7750  141.8780 C   0  0  0  0  0  0  0  0  0  0  0  0
  191.4960  176.6580  141.3410 C   0  0  0  0  0  2  0  0  0  0  0  0
  190.7190  176.7510  137.5440 C   0  0  2  0  0  3  0  0  0  0  0  0
  189.3320  177.1550  136.9980 C   0  0  1  0  0  3  0  0  0  0  0  0
  190.9170  175.2240  137.5720 C   0  0  0  0  0  2  0  0  0  0  0  0
  190.2280  174.5730  136.4190 C   0  0  2  0  0  3  0  0  0  0  0  0
  192.9330  177.4150  139.5820 O   0  0  0  0  0  0  0  0  0  0  0  0
  188.7150  174.6040  136.8230 C   0  0  1  0  0  3  0  0  0  0  0  0
  190.7270  177.2870  138.8770 N   0  0  0  0  0  0  0  0  0  0  0  0
  190.7910  173.3030  136.2300 O   0  0  0  0  0  1  0  0  0  0  0  0
  191.7490  177.1000  139.9050 C   0  0  0  0  0  0  0  0  0  0  0  0
  188.2280  176.0670  136.8170 C   0  0  0  0  0  2  0  0  0  0  0  0
  188.1560  179.2680  137.5370 O   0  0  0  0  0  0  0  0  0  0  0  0
  189.6830  178.2370  139.0750 N   0  0  0  0  0  2  0  0  0  0  0  0
  188.9490  178.2960  137.8670 C   0  0  0  0  0  0  0  0  0  0  0  0
  187.9270  173.8240  135.9410 O   0  0  0  0  0  0  0  0  0  0  0  0
  187.3470  172.6540  136.5570 C   0  0  1  0  0  3  0  0  0  0  0  0
  186.2660  172.9750  137.5780 C   0  0  0  0  0  1  0  0  0  0  0  0
  186.8860  171.6030  135.6310 N   0  0  0  0  0  2  0  0  0  0  0  0
  185.5560  171.3710  135.7790 O   0  0  0  0  0  1  0  0  0  0  0  0
  1  5  1  0  0  0  0
  1  7  1  1  0  0  0
  2  4  1  0  0  0  0
  2  3  1  0  0  0  0
  3 38  1  1  0  0  0
  3  5  1  0  0  0  0
  4  8  1  6  0  0  0
  4  1  1  0  0  0  0
  7  6  1  0  0  0  0
  8 26  1  6  0  0  0
  8  9  1  0  0  0  0
 10  9  1  6  0  0  0
 10 11  1  0  0  0  0
 12 10  1  0  0  0  0
 12 11  1  0  0  0  0
 13 12  1  0  0  0  0
 14 19  2  0  0  0  0
 14 15  1  0  0  0  0
 15 13  1  1  0  0  0
 16 20  1  0  0  0  0
 17 15  1  0  0  0  0
 18 16  1  0  0  0  0
 18 14  1  0  0  0  0
 20 17  1  0  0  0  0
 21 18  1  0  0  0  0
 23 22  1  0  0  0  0
 23 21  1  0  0  0  0
 24 23  1  0  0  0  0
 25 23  1  0  0  0  0
 27 26  1  6  0  0  0
 28 37  1  0  0  0  0
 29 31  1  0  0  0  0
 29 28  2  0  0  0  0
 30 31  1  0  0  0  0
 31 33  1  0  0  0  0
 32 34  1  0  0  0  0
 33 35  1  1  0  0  0
 33 27  1  0  0  0  0
 34 36  1  0  0  0  0
 34 30  2  0  0  0  0
 36 29  1  0  0  0  0
 37 27  1  0  0  0  0
 41 39  1  0  0  0  0
 41 40  1  0  0  0  0
 41 38  1  0  0  0  0
 42 41  1  0  0  0  0
 43 44  2  0  0  0  0
 44 42  1  0  0  0  0
 45 44  1  0  0  0  0
 46 48  1  1  0  0  0
 46 52  1  0  0  0  0
 47 55  1  1  0  0  0
 47 46  1  0  0  0  0
 47 58  1  0  0  0  0
 49 53  1  1  0  0  0
 49 51  1  0  0  0  0
 49 48  1  0  0  0  0
 50 54  2  0  0  0  0
 51 59  1  6  0  0  0
 52 57  1  0  0  0  0
 52 54  1  0  0  0  0
 54 45  1  0  0  0  0
 55 51  1  0  0  0  0
 56 58  2  0  0  0  0
 58 57  1  0  0  0  0
 59 60  1  0  0  0  0
 60 61  1  6  0  0  0
 62 63  1  0  0  0  0
 62 60  1  0  0  0  0
M  END
>  <MODEL>
6

>  <REMARK>
 VINA RESULT:      -6.7      2.592      3.730
  Name = 
  19 active torsions:
  status: ('A' for Active; 'I' for Inactive)
    1  A    between atoms: N_1  and  C_2
    2  A    between atoms: C_2  and  O_29
    3  A    between atoms: C_3  and  O_36
    4  A    between atoms: C_4  and  C_55
    5  A    between atoms: C_7  and  C_35
    6  A    between atoms: C_7  and  N_44
    7  A    between atoms: N_9  and  C_23
    8  A    between atoms: N_9  and  C_37
    9  A    between atoms: C_22  and  O_29
   10  A    between atoms: C_24  and  C_39
   11  A    between atoms: C_30  and  C_48
   12  A    between atoms: C_32  and  C_62
   13  A    between atoms: C_37  and  C_54
   14  A    between atoms: C_37  and  C_55
   15  A    between atoms: C_39  and  N_45
   16  A    between atoms: C_48  and  C_63
   17  A    between atoms: C_52  and  C_53
   18  A    between atoms: C_52  and  C_62
   19  A    between atoms: C_53  and  C_63
                            x       y       z     vdW  Elec       q    Type
                         _______ _______ _______ _____ _____    ______ ____

>  <TORSDO>
F 19

$$$$
=
 OpenBabel11042410513D

 63 69  0  0  1  0  0  0  0  0999 V2000
  185.2760  178.7880  143.6760 C   0  0  1  0  0  3  0  0  0  0  0  0
  184.7170  178.1390  141.1520 S   0  0  0  0  0  0  0  0  0  0  0  0
  183.4960  179.1260  142.0600 C   0  0  2  0  0  3  0  0  0  0  0  0
  185.9190  178.0310  142.5630 C   0  0  1  0  0  3  0  0  0  0  0  0
  183.7970  178.9270  143.5360 C   0  0  0  0  0  2  0  0  0  0  0  0
  184.6570  178.6210  145.8580 C   0  0  0  0  0  1  0  0  0  0  0  0
  185.7390  178.4360  144.9160 O   0  0  0  0  0  0  0  0  0  0  0  0
  187.4780  178.2420  142.3630 C   0  0  2  0  0  3  0  0  0  0  0  0
  187.7280  178.5060  140.9440 N   0  0  0  0  0  2  0  0  0  0  0  0
  188.1990  177.4390  140.1390 C   0  0  2  0  0  3  0  0  0  0  0  0
  189.3750  177.9140  139.3400 C   0  0  0  0  0  2  0  0  0  0  0  0
  187.9950  177.7490  138.7170 N   0  0  0  0  0  0  0  0  0  0  0  0
  187.9960  176.6120  137.7110 C   0  0  0  0  0  2  0  0  0  0  0  0
  190.1140  175.3080  136.9120 C   0  0  0  0  0  0  0  0  0  0  0  0
  189.3140  176.6060  136.9320 C   0  0  1  0  0  3  0  0  0  0  0  0
  190.6860  175.6760  134.6000 C   0  0  0  0  0  2  0  0  0  0  0  0
  188.9180  176.9370  135.6020 O   0  0  0  0  0  0  0  0  0  0  0  0
  191.0610  175.1430  135.9150 N   0  0  0  0  0  0  0  0  0  0  0  0
  189.9430  174.3630  137.7680 O   0  0  0  0  0  0  0  0  0  0  0  0
  190.0620  177.0560  134.8060 C   0  0  0  0  0  2  0  0  0  0  0  0
  192.4530  174.7880  136.2310 C   0  0  0  0  0  2  0  0  0  0  0  0
  192.5400  176.8360  137.3920 F   0  0  0  0  0  0  0  0  0  0  0  0
  193.2870  176.0310  136.5750 C   0  0  0  0  0  0  0  0  0  0  0  0
  193.6400  176.7190  135.4380 F   0  0  0  0  0  0  0  0  0  0  0  0
  194.4260  175.6630  137.2430 F   0  0  0  0  0  0  0  0  0  0  0  0
  188.2300  177.0280  142.7610 C   0  0  0  0  0  2  0  0  0  0  0  0
  189.2420  177.2820  143.9080 C   0  0  2  0  0  3  0  0  0  0  0  0
  189.1610  177.9660  146.2150 N   0  0  0  0  0  0  0  0  0  0  0  0
  190.0170  177.0620  146.5570 C   0  0  0  0  0  0  0  0  0  0  0  0
  191.8960  175.9190  146.1810 N   0  0  0  0  0  0  0  0  0  0  0  0
  190.7270  176.3500  145.5670 N   0  0  0  0  0  0  0  0  0  0  0  0
  193.0680  175.8570  148.3220 C   0  0  0  0  0  1  0  0  0  0  0  0
  190.6440  176.7130  144.1640 C   0  0  1  0  0  3  0  0  0  0  0  0
  191.9040  176.2770  147.4200 C   0  0  0  0  0  0  0  0  0  0  0  0
  191.0510  175.5330  143.2920 C   0  0  0  0  0  1  0  0  0  0  0  0
  190.7190  177.0240  147.8420 N   0  0  0  0  0  2  0  0  0  0  0  0
  188.6780  178.0390  144.8650 C   0  0  0  0  0  2  0  0  0  0  0  0
  181.9780  178.8220  141.9000 C   0  0  0  0  0  2  0  0  0  0  0  0
  180.0460  179.3940  140.7150 F   0  0  0  0  0  0  0  0  0  0  0  0
  181.9340  179.2410  139.4790 F   0  0  0  0  0  0  0  0  0  0  0  0
  181.2210  178.7260  140.5810 C   0  0  0  0  0  0  0  0  0  0  0  0
  181.0410  177.2280  140.4810 C   0  0  0  0  0  2  0  0  0  0  0  0
  181.4830  175.4830  138.8610 O   0  0  0  0  0  0  0  0  0  0  0  0
  180.8770  176.5140  139.1450 C   0  0  0  0  0  0  0  0  0  0  0  0
  179.7640  176.9220  138.2380 C   0  0  0  0  0  2  0  0  0  0  0  0
  181.6240  175.7160  135.0590 C   0  0  2  0  0  3  0  0  0  0  0  0
  181.8160  174.2170  134.7370 C   0  0  1  0  0  3  0  0  0  0  0  0
  182.8820  176.3490  135.6810 C   0  0  0  0  0  2  0  0  0  0  0  0
  184.1230  175.7490  135.1090 C   0  0  2  0  0  3  0  0  0  0  0  0
  179.6450  177.8640  136.0400 O   0  0  0  0  0  0  0  0  0  0  0  0
  184.2160  174.3500  135.8060 C   0  0  1  0  0  3  0  0  0  0  0  0
  180.5360  175.7230  135.9970 N   0  0  0  0  0  0  0  0  0  0  0  0
  185.1880  176.6290  135.3470 O   0  0  0  0  0  1  0  0  0  0  0  0
  180.0060  176.8680  136.7340 C   0  0  0  0  0  0  0  0  0  0  0  0
  183.0620  173.4620  135.2980 C   0  0  0  0  0  2  0  0  0  0  0  0
  179.9890  172.5510  134.5930 O   0  0  0  0  0  0  0  0  0  0  0  0
  179.8400  174.4790  136.0150 N   0  0  0  0  0  2  0  0  0  0  0  0
  180.5060  173.6250  135.1060 C   0  0  0  0  0  0  0  0  0  0  0  0
  185.4610  173.7240  135.5490 O   0  0  0  0  0  0  0  0  0  0  0  0
  185.6870  172.5320  136.3310 C   0  0  1  0  0  3  0  0  0  0  0  0
  185.6790  171.2520  135.5090 C   0  0  0  0  0  1  0  0  0  0  0  0
  186.8600  172.5630  137.2250 N   0  0  0  0  0  2  0  0  0  0  0  0
  187.9720  172.1170  136.5860 O   0  0  0  0  0  1  0  0  0  0  0  0
  1  7  1  1  0  0  0
  2  3  1  0  0  0  0
  2  4  1  0  0  0  0
  3 38  1  1  0  0  0
  3  5  1  0  0  0  0
  4  8  1  6  0  0  0
  4  1  1  0  0  0  0
  5  1  1  0  0  0  0
  7  6  1  0  0  0  0
  8 26  1  6  0  0  0
  9  8  1  0  0  0  0
 10  9  1  1  0  0  0
 11 10  1  0  0  0  0
 12 11  1  0  0  0  0
 12 10  1  0  0  0  0
 13 12  1  0  0  0  0
 14 15  1  0  0  0  0
 14 19  2  0  0  0  0
 15 13  1  1  0  0  0
 16 20  1  0  0  0  0
 16 18  1  0  0  0  0
 17 15  1  0  0  0  0
 18 21  1  0  0  0  0
 18 14  1  0  0  0  0
 20 17  1  0  0  0  0
 21 23  1  0  0  0  0
 23 25  1  0  0  0  0
 23 22  1  0  0  0  0
 24 23  1  0  0  0  0
 27 26  1  1  0  0  0
 27 33  1  0  0  0  0
 27 37  1  0  0  0  0
 28 29  2  0  0  0  0
 29 36  1  0  0  0  0
 30 34  2  0  0  0  0
 31 30  1  0  0  0  0
 31 29  1  0  0  0  0
 33 35  1  6  0  0  0
 33 31  1  0  0  0  0
 34 36  1  0  0  0  0
 34 32  1  0  0  0  0
 37 28  1  0  0  0  0
 40 41  1  0  0  0  0
 41 39  1  0  0  0  0
 41 38  1  0  0  0  0
 42 41  1  0  0  0  0
 43 44  2  0  0  0  0
 44 42  1  0  0  0  0
 45 44  1  0  0  0  0
 46 48  1  1  0  0  0
 46 52  1  0  0  0  0
 47 46  1  0  0  0  0
 47 58  1  0  0  0  0
 47 55  1  1  0  0  0
 49 53  1  1  0  0  0
 49 48  1  0  0  0  0
 49 51  1  0  0  0  0
 50 54  2  0  0  0  0
 51 59  1  6  0  0  0
 52 57  1  0  0  0  0
 52 54  1  0  0  0  0
 54 45  1  0  0  0  0
 55 51  1  0  0  0  0
 56 58  2  0  0  0  0
 58 57  1  0  0  0  0
 59 60  1  0  0  0  0
 60 61  1  6  0  0  0
 60 62  1  0  0  0  0
 63 62  1  0  0  0  0
M  END
>  <MODEL>
7

>  <REMARK>
 VINA RESULT:      -6.6      4.323     10.132
  Name = 
  19 active torsions:
  status: ('A' for Active; 'I' for Inactive)
    1  A    between atoms: N_1  and  C_2
    2  A    between atoms: C_2  and  O_29
    3  A    between atoms: C_3  and  O_36
    4  A    between atoms: C_4  and  C_55
    5  A    between atoms: C_7  and  C_35
    6  A    between atoms: C_7  and  N_44
    7  A    between atoms: N_9  and  C_23
    8  A    between atoms: N_9  and  C_37
    9  A    between atoms: C_22  and  O_29
   10  A    between atoms: C_24  and  C_39
   11  A    between atoms: C_30  and  C_48
   12  A    between atoms: C_32  and  C_62
   13  A    between atoms: C_37  and  C_54
   14  A    between atoms: C_37  and  C_55
   15  A    between atoms: C_39  and  N_45
   16  A    between atoms: C_48  and  C_63
   17  A    between atoms: C_52  and  C_53
   18  A    between atoms: C_52  and  C_62
   19  A    between atoms: C_53  and  C_63
                            x       y       z     vdW  Elec       q    Type
                         _______ _______ _______ _____ _____    ______ ____

>  <TORSDO>
F 19

$$$$
=
 OpenBabel11042410513D

 63 69  0  0  1  0  0  0  0  0999 V2000
  186.7860  178.3310  140.2750 C   0  0  1  0  0  3  0  0  0  0  0  0
  184.9790  178.3560  138.3150 S   0  0  0  0  0  0  0  0  0  0  0  0
  186.6060  177.6390  137.9540 C   0  0  2  0  0  3  0  0  0  0  0  0
  185.3790  178.7850  140.0770 C   0  0  1  0  0  3  0  0  0  0  0  0
  187.5570  178.1860  139.0060 C   0  0  0  0  0  2  0  0  0  0  0  0
  188.6560  178.2520  141.5670 C   0  0  0  0  0  1  0  0  0  0  0  0
  187.4260  178.9670  141.3060 O   0  0  0  0  0  0  0  0  0  0  0  0
  184.3650  178.5070  141.2640 C   0  0  2  0  0  3  0  0  0  0  0  0
  185.1380  178.1310  142.4500 N   0  0  0  0  0  2  0  0  0  0  0  0
  184.5780  178.3980  143.7250 C   0  0  2  0  0  3  0  0  0  0  0  0
  185.0100  179.7620  144.1700 C   0  0  0  0  0  2  0  0  0  0  0  0
  185.6420  178.4970  144.7340 N   0  0  0  0  0  0  0  0  0  0  0  0
  185.2810  178.3270  146.1990 C   0  0  0  0  0  2  0  0  0  0  0  0
  187.7850  177.5820  146.1990 C   0  0  0  0  0  0  0  0  0  0  0  0
  186.4900  177.8010  146.9760 C   0  0  1  0  0  3  0  0  0  0  0  0
  189.0640  178.4210  148.0620 C   0  0  0  0  0  2  0  0  0  0  0  0
  186.7030  178.7950  147.9770 O   0  0  0  0  0  0  0  0  0  0  0  0
  188.9680  177.5100  146.9150 N   0  0  0  0  0  0  0  0  0  0  0  0
  187.8260  177.4720  144.9190 O   0  0  0  0  0  0  0  0  0  0  0  0
  187.7370  178.3740  148.8190 C   0  0  0  0  0  2  0  0  0  0  0  0
  189.8920  176.3760  146.7560 C   0  0  0  0  0  2  0  0  0  0  0  0
  192.0900  177.1610  147.0790 F   0  0  0  0  0  0  0  0  0  0  0  0
  191.2080  176.8110  146.0930 C   0  0  0  0  0  0  0  0  0  0  0  0
  191.0060  177.8750  145.2470 F   0  0  0  0  0  0  0  0  0  0  0  0
  191.7390  175.7700  145.3770 F   0  0  0  0  0  0  0  0  0  0  0  0
  183.4460  177.3940  140.9230 C   0  0  0  0  0  2  0  0  0  0  0  0
  182.2070  177.8500  140.1090 C   0  0  2  0  0  3  0  0  0  0  0  0
  181.1580  179.9330  139.5080 N   0  0  0  0  0  0  0  0  0  0  0  0
  180.9850  179.5420  138.2910 C   0  0  0  0  0  0  0  0  0  0  0  0
  180.4240  177.9690  136.8120 N   0  0  0  0  0  0  0  0  0  0  0  0
  181.1980  178.1920  137.9430 N   0  0  0  0  0  0  0  0  0  0  0  0
  178.9660  179.0740  135.1940 C   0  0  0  0  0  1  0  0  0  0  0  0
  181.4550  177.1800  138.9520 C   0  0  1  0  0  3  0  0  0  0  0  0
  179.8290  179.0560  136.4590 C   0  0  0  0  0  0  0  0  0  0  0  0
  182.1420  175.9750  138.3240 C   0  0  0  0  0  1  0  0  0  0  0  0
  180.1110  180.2060  137.3200 N   0  0  0  0  0  2  0  0  0  0  0  0
  181.8690  179.1080  140.4440 C   0  0  0  0  0  2  0  0  0  0  0  0
  187.2920  177.9180  136.5860 C   0  0  0  0  0  2  0  0  0  0  0  0
  187.5610  176.3210  134.9000 F   0  0  0  0  0  0  0  0  0  0  0  0
  189.3590  177.6400  135.2840 F   0  0  0  0  0  0  0  0  0  0  0  0
  188.2540  176.9820  135.8640 C   0  0  0  0  0  0  0  0  0  0  0  0
  188.6720  176.0860  137.0080 C   0  0  0  0  0  2  0  0  0  0  0  0
  187.2390  174.1360  136.9360 O   0  0  0  0  0  0  0  0  0  0  0  0
  188.3770  174.5910  137.0220 C   0  0  0  0  0  0  0  0  0  0  0  0
  189.5090  173.6290  136.8820 C   0  0  0  0  0  2  0  0  0  0  0  0
  192.9920  173.6500  135.1810 C   0  0  2  0  0  3  0  0  0  0  0  0
  193.9540  172.4440  135.2600 C   0  0  1  0  0  3  0  0  0  0  0  0
  193.3590  174.7600  136.1830 C   0  0  0  0  0  2  0  0  0  0  0  0
  194.8380  174.8550  136.3600 C   0  0  2  0  0  3  0  0  0  0  0  0
  190.0750  174.5420  134.7430 O   0  0  0  0  0  0  0  0  0  0  0  0
  195.1840  173.6240  137.2640 C   0  0  1  0  0  3  0  0  0  0  0  0
  191.7110  173.0830  135.5000 N   0  0  0  0  0  0  0  0  0  0  0  0
  195.1380  176.1160  136.8940 O   0  0  0  0  0  1  0  0  0  0  0  0
  190.4480  173.7920  135.6930 C   0  0  0  0  0  0  0  0  0  0  0  0
  194.9520  172.3310  136.4550 C   0  0  0  0  0  2  0  0  0  0  0  0
  193.3780  170.1260  134.6030 O   0  0  0  0  0  0  0  0  0  0  0  0
  191.7250  171.6590  135.4240 N   0  0  0  0  0  2  0  0  0  0  0  0
  193.0470  171.2810  135.0910 C   0  0  0  0  0  0  0  0  0  0  0  0
  196.5240  173.6770  137.7220 O   0  0  0  0  0  0  0  0  0  0  0  0
  196.6520  174.0620  139.1070 C   0  0  1  0  0  3  0  0  0  0  0  0
  197.8630  174.9390  139.3880 C   0  0  0  0  0  1  0  0  0  0  0  0
  195.4440  174.6370  139.7280 N   0  0  0  0  0  2  0  0  0  0  0  0
  195.6210  175.9530  140.0130 O   0  0  0  0  0  1  0  0  0  0  0  0
  1  7  1  1  0  0  0
  2  4  1  0  0  0  0
  3 38  1  6  0  0  0
  3  2  1  0  0  0  0
  3  5  1  0  0  0  0
  4  1  1  0  0  0  0
  4  8  1  1  0  0  0
  5  1  1  0  0  0  0
  7  6  1  0  0  0  0
  8 26  1  6  0  0  0
  8  9  1  0  0  0  0
 10  9  1  6  0  0  0
 10 11  1  0  0  0  0
 10 12  1  0  0  0  0
 11 12  1  0  0  0  0
 12 13  1  0  0  0  0
 14 18  1  0  0  0  0
 14 15  1  0  0  0  0
 15 13  1  6  0  0  0
 15 17  1  0  0  0  0
 16 20  1  0  0  0  0
 17 20  1  0  0  0  0
 18 16  1  0  0  0  0
 19 14  2  0  0  0  0
 21 18  1  0  0  0  0
 23 21  1  0  0  0  0
 23 22  1  0  0  0  0
 24 23  1  0  0  0  0
 25 23  1  0  0  0  0
 27 37  1  0  0  0  0
 27 26  1  6  0  0  0
 28 37  1  0  0  0  0
 29 28  2  0  0  0  0
 30 31  1  0  0  0  0
 31 29  1  0  0  0  0
 31 33  1  0  0  0  0
 32 34  1  0  0  0  0
 33 35  1  6  0  0  0
 33 27  1  0  0  0  0
 34 30  2  0  0  0  0
 34 36  1  0  0  0  0
 36 29  1  0  0  0  0
 39 41  1  0  0  0  0
 40 41  1  0  0  0  0
 41 38  1  0  0  0  0
 41 42  1  0  0  0  0
 42 44  1  0  0  0  0
 43 44  2  0  0  0  0
 45 44  1  0  0  0  0
 46 47  1  0  0  0  0
 46 52  1  0  0  0  0
 46 48  1  1  0  0  0
 47 55  1  1  0  0  0
 48 49  1  0  0  0  0
 49 53  1  1  0  0  0
 49 51  1  0  0  0  0
 50 54  2  0  0  0  0
 51 59  1  6  0  0  0
 52 54  1  0  0  0  0
 54 45  1  0  0  0  0
 55 51  1  0  0  0  0
 56 58  2  0  0  0  0
 57 52  1  0  0  0  0
 58 47  1  0  0  0  0
 58 57  1  0  0  0  0
 59 60  1  0  0  0  0
 60 61  1  6  0  0  0
 60 62  1  0  0  0  0
 62 63  1  0  0  0  0
M  END
>  <MODEL>
8

>  <REMARK>
 VINA RESULT:      -6.1      3.838      7.448
  Name = 
  19 active torsions:
  status: ('A' for Active; 'I' for Inactive)
    1  A    between atoms: N_1  and  C_2
    2  A    between atoms: C_2  and  O_29
    3  A    between atoms: C_3  and  O_36
    4  A    between atoms: C_4  and  C_55
    5  A    between atoms: C_7  and  C_35
    6  A    between atoms: C_7  and  N_44
    7  A    between atoms: N_9  and  C_23
    8  A    between atoms: N_9  and  C_37
    9  A    between atoms: C_22  and  O_29
   10  A    between atoms: C_24  and  C_39
   11  A    between atoms: C_30  and  C_48
   12  A    between atoms: C_32  and  C_62
   13  A    between atoms: C_37  and  C_54
   14  A    between atoms: C_37  and  C_55
   15  A    between atoms: C_39  and  N_45
   16  A    between atoms: C_48  and  C_63
   17  A    between atoms: C_52  and  C_53
   18  A    between atoms: C_52  and  C_62
   19  A    between atoms: C_53  and  C_63
                            x       y       z     vdW  Elec       q    Type
                         _______ _______ _______ _____ _____    ______ ____

>  <TORSDO>
F 19

$$$$
=
 OpenBabel11042410513D

 63 69  0  0  1  0  0  0  0  0999 V2000
  184.8640  175.1320  136.2790 C   0  0  1  0  0  3  0  0  0  0  0  0
  185.8920  177.5870  136.4370 S   0  0  0  0  0  0  0  0  0  0  0  0
  186.6030  176.4500  135.2150 C   0  0  2  0  0  3  0  0  0  0  0  0
  184.6410  176.3730  137.0770 C   0  0  1  0  0  3  0  0  0  0  0  0
  186.2180  175.0490  135.6590 C   0  0  0  0  0  2  0  0  0  0  0  0
  184.5050  172.9120  135.9420 C   0  0  0  0  0  1  0  0  0  0  0  0
  184.4050  173.9970  136.8940 O   0  0  0  0  0  0  0  0  0  0  0  0
  183.1340  176.7810  137.3560 C   0  0  2  0  0  3  0  0  0  0  0  0
  182.3310  175.5580  137.4230 N   0  0  0  0  0  2  0  0  0  0  0  0
  181.4530  175.3940  138.5240 C   0  0  2  0  0  3  0  0  0  0  0  0
  180.4080  174.3820  138.1660 C   0  0  0  0  0  2  0  0  0  0  0  0
  180.1090  175.8750  138.1750 N   0  0  0  0  0  0  0  0  0  0  0  0
  179.1410  176.2190  139.2930 C   0  0  0  0  0  2  0  0  0  0  0  0
  179.9720  178.1660  140.8240 C   0  0  0  0  0  0  0  0  0  0  0  0
  179.9170  176.6690  140.5340 C   0  0  1  0  0  3  0  0  0  0  0  0
  179.7400  177.7330  143.1840 C   0  0  0  0  0  2  0  0  0  0  0  0
  179.2480  176.0050  141.6050 O   0  0  0  0  0  0  0  0  0  0  0  0
  180.2930  178.5660  142.1100 N   0  0  0  0  0  0  0  0  0  0  0  0
  179.7260  179.0640  139.9370 O   0  0  0  0  0  0  0  0  0  0  0  0
  179.9330  176.2670  142.7960 C   0  0  0  0  0  2  0  0  0  0  0  0
  181.3800  179.5250  142.3660 C   0  0  0  0  0  2  0  0  0  0  0  0
  182.8730  177.9070  143.2050 F   0  0  0  0  0  0  0  0  0  0  0  0
  182.2570  179.0810  143.5460 C   0  0  0  0  0  0  0  0  0  0  0  0
  181.5020  178.9000  144.6810 F   0  0  0  0  0  0  0  0  0  0  0  0
  183.2190  180.0240  143.7980 F   0  0  0  0  0  0  0  0  0  0  0  0
  182.6080  177.6370  136.2650 C   0  0  0  0  0  2  0  0  0  0  0  0
  181.7340  178.8120  136.7750 C   0  0  2  0  0  3  0  0  0  0  0  0
  181.9360  180.5970  138.3780 N   0  0  0  0  0  0  0  0  0  0  0  0
  181.4270  181.4500  137.5550 C   0  0  0  0  0  0  0  0  0  0  0  0
  179.9150  182.0010  136.0090 N   0  0  0  0  0  0  0  0  0  0  0  0
  180.8180  181.0060  136.3620 N   0  0  0  0  0  0  0  0  0  0  0  0
  179.1160  184.2230  136.6310 C   0  0  0  0  0  1  0  0  0  0  0  0
  180.6000  179.5950  136.1000 C   0  0  1  0  0  3  0  0  0  0  0  0
  179.9770  182.9750  136.8500 C   0  0  0  0  0  0  0  0  0  0  0  0
  180.4270  179.3580  134.6060 C   0  0  0  0  0  1  0  0  0  0  0  0
  180.9480  182.7840  137.9280 N   0  0  0  0  0  2  0  0  0  0  0  0
  182.1870  179.2460  137.9640 C   0  0  0  0  0  2  0  0  0  0  0  0
  188.1430  176.4100  134.9960 C   0  0  0  0  0  2  0  0  0  0  0  0
  189.9230  177.8710  134.5940 F   0  0  0  0  0  0  0  0  0  0  0  0
  188.5700  178.4390  136.3150 F   0  0  0  0  0  0  0  0  0  0  0  0
  189.1560  177.3760  135.6000 C   0  0  0  0  0  0  0  0  0  0  0  0
  189.9140  176.4370  136.5120 C   0  0  0  0  0  2  0  0  0  0  0  0
  188.4050  175.2220  137.9630 O   0  0  0  0  0  0  0  0  0  0  0  0
  189.3620  175.9860  137.8580 C   0  0  0  0  0  0  0  0  0  0  0  0
  190.1480  176.2680  139.0950 C   0  0  0  0  0  2  0  0  0  0  0  0
  189.0770  178.5180  142.0630 C   0  0  2  0  0  3  0  0  0  0  0  0
  189.6440  178.3270  143.4880 C   0  0  1  0  0  3  0  0  0  0  0  0
  187.6800  177.8920  141.8980 C   0  0  0  0  0  2  0  0  0  0  0  0
  186.8880  178.0100  143.1580 C   0  0  2  0  0  3  0  0  0  0  0  0
  189.7530  178.6290  139.0590 O   0  0  0  0  0  0  0  0  0  0  0  0
  187.5080  176.9150  144.0910 C   0  0  1  0  0  3  0  0  0  0  0  0
  190.0340  177.8490  141.2260 N   0  0  0  0  0  0  0  0  0  0  0  0
  185.5310  177.8550  142.8420 O   0  0  0  0  0  1  0  0  0  0  0  0
  189.9410  177.6090  139.7870 C   0  0  0  0  0  0  0  0  0  0  0  0
  188.9420  177.3380  144.4700 C   0  0  0  0  0  2  0  0  0  0  0  0
  192.0540  178.2980  144.0630 O   0  0  0  0  0  0  0  0  0  0  0  0
  191.2530  177.5850  141.9160 N   0  0  0  0  0  2  0  0  0  0  0  0
  191.0820  178.0490  143.2410 C   0  0  0  0  0  0  0  0  0  0  0  0
  186.7300  176.7300  145.2610 O   0  0  0  0  0  0  0  0  0  0  0  0
  186.7770  177.8450  146.1760 C   0  0  1  0  0  3  0  0  0  0  0  0
  185.4620  178.6040  146.2820 C   0  0  0  0  0  1  0  0  0  0  0  0
  187.3140  177.5530  147.5180 N   0  0  0  0  0  2  0  0  0  0  0  0
  187.7960  178.6780  148.1060 O   0  0  0  0  0  1  0  0  0  0  0  0
  1  7  1  1  0  0  0
  1  4  1  0  0  0  0
  2  4  1  0  0  0  0
  3 38  1  1  0  0  0
  3  5  1  0  0  0  0
  3  2  1  0  0  0  0
  4  8  1  6  0  0  0
  5  1  1  0  0  0  0
  6  7  1  0  0  0  0
  8 26  1  6  0  0  0
  8  9  1  0  0  0  0
 10  9  1  6  0  0  0
 11 12  1  0  0  0  0
 11 10  1  0  0  0  0
 12 10  1  0  0  0  0
 12 13  1  0  0  0  0
 14 18  1  0  0  0  0
 15 13  1  6  0  0  0
 15 14  1  0  0  0  0
 15 17  1  0  0  0  0
 17 20  1  0  0  0  0
 18 21  1  0  0  0  0
 18 16  1  0  0  0  0
 19 14  2  0  0  0  0
 20 16  1  0  0  0  0
 21 23  1  0  0  0  0
 22 23  1  0  0  0  0
 23 25  1  0  0  0  0
 23 24  1  0  0  0  0
 27 26  1  6  0  0  0
 27 37  1  0  0  0  0
 29 36  1  0  0  0  0
 29 28  2  0  0  0  0
 30 31  1  0  0  0  0
 30 34  2  0  0  0  0
 31 29  1  0  0  0  0
 32 34  1  0  0  0  0
 33 35  1  6  0  0  0
 33 31  1  0  0  0  0
 33 27  1  0  0  0  0
 34 36  1  0  0  0  0
 37 28  1  0  0  0  0
 38 41  1  0  0  0  0
 39 41  1  0  0  0  0
 41 40  1  0  0  0  0
 41 42  1  0  0  0  0
 42 44  1  0  0  0  0
 44 43  2  0  0  0  0
 44 45  1  0  0  0  0
 45 54  1  0  0  0  0
 46 48  1  1  0  0  0
 46 47  1  0  0  0  0
 47 55  1  6  0  0  0
 48 49  1  0  0  0  0
 49 53  1  6  0  0  0
 49 51  1  0  0  0  0
 50 54  2  0  0  0  0
 51 55  1  0  0  0  0
 51 59  1  1  0  0  0
 52 57  1  0  0  0  0
 52 46  1  0  0  0  0
 54 52  1  0  0  0  0
 57 58  1  0  0  0  0
 58 47  1  0  0  0  0
 58 56  2  0  0  0  0
 59 60  1  0  0  0  0
 60 61  1  1  0  0  0
 60 62  1  0  0  0  0
 62 63  1  0  0  0  0
M  END
>  <MODEL>
9

>  <REMARK>
 VINA RESULT:      -6.1      4.172      8.097
  Name = 
  19 active torsions:
  status: ('A' for Active; 'I' for Inactive)
    1  A    between atoms: N_1  and  C_2
    2  A    between atoms: C_2  and  O_29
    3  A    between atoms: C_3  and  O_36
    4  A    between atoms: C_4  and  C_55
    5  A    between atoms: C_7  and  C_35
    6  A    between atoms: C_7  and  N_44
    7  A    between atoms: N_9  and  C_23
    8  A    between atoms: N_9  and  C_37
    9  A    between atoms: C_22  and  O_29
   10  A    between atoms: C_24  and  C_39
   11  A    between atoms: C_30  and  C_48
   12  A    between atoms: C_32  and  C_62
   13  A    between atoms: C_37  and  C_54
   14  A    between atoms: C_37  and  C_55
   15  A    between atoms: C_39  and  N_45
   16  A    between atoms: C_48  and  C_63
   17  A    between atoms: C_52  and  C_53
   18  A    between atoms: C_52  and  C_62
   19  A    between atoms: C_53  and  C_63
                            x       y       z     vdW  Elec       q    Type
                         _______ _______ _______ _____ _____    ______ ____

>  <TORSDO>
F 19

$$$$
