=
 OpenBabel11042410103D

 62 70  0  0  1  0  0  0  0  0999 V2000
  190.0920  176.6090  137.4050 C   0  0  0  0  0  0  0  0  0  0  0  0
  187.3830  177.2320  137.7710 C   0  0  0  0  0  0  0  0  0  0  0  0
  187.6150  177.6890  142.8620 C   0  0  0  0  0  0  0  0  0  0  0  0
  193.1380  177.3460  140.0680 O   0  0  0  0  0  0  0  0  0  0  0  0
  188.1290  177.5140  141.6670 C   0  0  0  0  0  0  0  0  0  0  0  0
  187.8960  176.7460  143.9960 C   0  0  1  0  0  3  0  0  0  0  0  0
  189.6640  174.7500  136.2090 N   0  0  0  0  0  0  0  0  0  0  0  0
  190.4930  176.7820  141.1100 C   0  0  0  0  0  0  0  0  0  0  0  0
  189.0200  175.3450  142.3750 O   0  0  0  0  0  0  0  0  0  0  0  0
  191.3400  175.8710  137.3280 C   0  0  1  0  0  3  0  0  0  0  0  0
  189.7570  177.5170  138.2620 N   0  0  0  0  0  0  0  0  0  0  0  0
  187.6760  176.1610  136.7260 C   0  0  0  0  0  3  0  0  0  0  0  0
  192.6150  176.1300  138.0850 C   0  0  0  0  0  2  0  0  0  0  0  0
  188.3740  177.8590  138.4700 C   0  0  0  0  0  0  0  0  0  0  0  0
  192.3500  176.5460  139.4970 C   0  0  0  0  0  0  0  0  0  0  0  0
  191.2130  176.0580  140.1530 O   0  0  0  0  0  0  0  0  0  0  0  0
  188.0870  178.9090  139.5030 C   0  0  0  0  0  2  0  0  0  0  0  0
  187.4830  178.3590  140.7140 N   0  0  0  0  0  0  0  0  0  0  0  0
  191.0050  177.7630  141.7100 O   0  0  0  0  0  0  0  0  0  0  0  0
  186.4880  179.1280  141.4560 C   0  0  0  0  0  3  0  0  0  0  0  0
  189.1420  175.9150  143.6670 C   0  0  0  0  0  2  0  0  0  0  0  0
  186.5530  178.6340  142.8300 N   0  0  0  0  0  0  0  0  0  0  0  0
  189.1320  175.8240  136.6960 C   0  0  0  0  0  0  0  0  0  0  0  0
  191.0490  174.7840  136.6050 C   0  0  0  0  0  0  0  0  0  0  0  0
  189.0810  176.3670  141.3860 C   0  0  1  0  0  3  0  0  0  0  0  0
  189.4750  178.3230  147.1210 C   0  0  0  0  0  2  0  0  0  0  0  0
  188.0250  177.4420  145.3180 C   0  0  0  0  0  0  0  0  0  0  0  0
  188.2740  178.1730  148.0570 C   0  0  0  0  0  2  0  0  0  0  0  0
  189.2500  177.5510  145.8510 C   0  0  0  0  0  3  0  0  0  0  0  0
  186.9930  178.4230  147.3100 C   0  0  0  0  0  3  0  0  0  0  0  0
  186.8580  178.0390  146.0280 C   0  0  0  0  0  0  0  0  0  0  0  0
  185.6400  178.2020  145.3560 O   0  0  0  0  0  0  0  0  0  0  0  0
  184.5130  178.8330  145.9560 C   0  0  0  0  0  2  0  0  0  0  0  0
  183.2390  178.3340  145.3040 C   0  0  0  0  0  2  0  0  0  0  0  0
  183.0270  179.1100  143.6770 P   0  0  2  0  0  0  0  0  0  0  0  0
  183.5570  178.1740  142.6120 O   0  0  0  0  0  0  0  0  0  0  0  0
  183.8800  180.5690  143.6270 O   0  0  0  0  0  1  0  0  0  0  0  0
  181.3750  179.4060  143.4280 O   0  0  0  0  0  0  0  0  0  0  0  0
  180.9520  178.4400  142.5120 C   0  0  2  0  0  3  0  0  0  0  0  0
  180.8930  179.0230  141.1770 C   0  0  0  0  0  2  0  0  0  0  0  0
  179.6560  178.8490  141.9540 N   0  0  0  0  0  2  0  0  0  0  0  0
  184.8840  177.8310  138.1630 N   0  0  0  0  0  0  0  0  0  0  0  0
  185.9970  177.5650  137.9900 C   0  0  0  0  0  0  0  0  0  0  0  0
  191.9520  172.8640  135.3870 C   0  0  0  0  0  3  0  0  0  0  0  0
  191.9500  173.6360  136.4680 C   0  0  0  0  0  3  0  0  0  0  0  0
  192.7770  171.6480  135.3260 C   0  0  0  0  0  0  0  0  0  0  0  0
  192.3200  170.6150  134.7650 O   0  0  0  0  0  0  0  0  0  0  0  0
  196.8030  171.6590  136.7920 C   0  0  0  0  0  3  0  0  0  0  0  0
  194.1560  171.6380  135.8510 C   0  0  0  0  0  0  0  0  0  0  0  0
  194.7570  170.4510  136.2950 C   0  0  0  0  0  3  0  0  0  0  0  0
  194.8900  172.8320  135.8920 C   0  0  0  0  0  3  0  0  0  0  0  0
  196.2160  172.8500  136.3480 C   0  0  0  0  0  0  0  0  0  0  0  0
  196.0760  170.4630  136.7630 C   0  0  0  0  0  3  0  0  0  0  0  0
  199.1070  174.5620  135.1720 C   0  0  0  0  0  2  0  0  0  0  0  0
  198.0840  176.0010  134.7790 S   0  0  0  0  0  0  0  0  0  0  0  0
  196.6160  175.0580  135.2710 C   0  0  1  0  0  3  0  0  0  0  0  0
  196.9980  174.1340  136.4190 C   0  0  2  0  0  3  0  0  0  0  0  0
  198.5110  173.8890  136.3920 C   0  0  2  0  0  3  0  0  0  0  0  0
  194.6570  176.1360  134.5940 C   0  0  0  0  0  1  0  0  0  0  0  0
  195.5720  175.9700  135.7110 N   0  0  0  0  0  2  0  0  0  0  0  0
  199.1740  174.4220  137.6560 C   0  0  0  0  0  2  0  0  0  0  0  0
  198.2310  175.2380  138.4030 N   0  0  0  0  0  1  0  0  0  0  0  0
  1 11  1  0  0  0  0
  2 43  1  0  0  0  0
  2 14  1  0  0  0  0
  3  6  1  0  0  0  0
  5  3  2  0  0  0  0
  6 27  1  1  0  0  0
  7 24  2  0  0  0  0
  7 23  1  0  0  0  0
  8 19  2  0  0  0  0
  9 21  1  0  0  0  0
 10  1  1  0  0  0  0
 10 13  1  1  0  0  0
 11 14  2  0  0  0  0
 12  2  2  0  0  0  0
 13 15  1  0  0  0  0
 14 17  1  0  0  0  0
 15  4  2  0  0  0  0
 15 16  1  0  0  0  0
 16  8  1  0  0  0  0
 17 18  1  0  0  0  0
 18 20  1  0  0  0  0
 18  5  1  0  0  0  0
 20 22  2  0  0  0  0
 21  6  1  0  0  0  0
 22  3  1  0  0  0  0
 23 12  1  0  0  0  0
 23  1  2  0  0  0  0
 24 10  1  0  0  0  0
 25  8  1  1  0  0  0
 25  5  1  0  0  0  0
 25  9  1  0  0  0  0
 26 28  1  0  0  0  0
 27 29  2  0  0  0  0
 27 31  1  0  0  0  0
 29 26  1  0  0  0  0
 30 28  1  0  0  0  0
 31 30  2  0  0  0  0
 32 33  1  0  0  0  0
 32 31  1  0  0  0  0
 34 33  1  0  0  0  0
 35 36  2  6  0  0  0
 35 34  1  0  0  0  0
 37 35  1  0  0  0  0
 38 35  1  0  0  0  0
 39 38  1  1  0  0  0
 40 41  1  0  0  0  0
 40 39  1  0  0  0  0
 41 39  1  0  0  0  0
 43 42  3  0  0  0  0
 44 45  2  0  0  0  0
 45 24  1  0  0  0  0
 46 44  1  0  0  0  0
 46 49  1  0  0  0  0
 47 46  2  0  0  0  0
 49 51  2  0  0  0  0
 49 50  1  0  0  0  0
 50 53  2  0  0  0  0
 51 52  1  0  0  0  0
 52 48  2  0  0  0  0
 53 48  1  0  0  0  0
 54 58  1  0  0  0  0
 55 54  1  0  0  0  0
 55 56  1  0  0  0  0
 56 60  1  1  0  0  0
 56 57  1  0  0  0  0
 57 52  1  6  0  0  0
 58 57  1  0  0  0  0
 58 61  1  1  0  0  0
 59 60  1  0  0  0  0
 61 62  1  0  0  0  0
M  END
>  <MODEL>
1

>  <REMARK>
 VINA RESULT:      -6.9      0.000      0.000
  Name = 
  14 active torsions:
  status: ('A' for Active; 'I' for Inactive)
    1  A    between atoms: P_1  and  O_6
    2  A    between atoms: P_1  and  C_60
    3  A    between atoms: O_6  and  C_15
    4  A    between atoms: C_8  and  C_10
    5  A    between atoms: C_9  and  C_11
    6  A    between atoms: C_11  and  C_14
    7  A    between atoms: C_18  and  C_26
    8  A    between atoms: O_29  and  C_44
    9  A    between atoms: O_29  and  C_61
   10  A    between atoms: C_30  and  C_55
   11  A    between atoms: C_36  and  N_49
   12  A    between atoms: C_43  and  C_47
   13  A    between atoms: C_44  and  C_60
   14  A    between atoms: C_57  and  C_58
                            x       y       z     vdW  Elec       q    Type
                         _______ _______ _______ _____ _____    ______ ____

>  <TORSDO>
F 14

$$$$
=
 OpenBabel11042410103D

 62 70  0  0  1  0  0  0  0  0999 V2000
  189.4400  176.0240  137.0740 C   0  0  0  0  0  0  0  0  0  0  0  0
  188.6910  173.4760  136.1780 C   0  0  0  0  0  0  0  0  0  0  0  0
  183.6460  174.3210  136.2990 C   0  0  0  0  0  0  0  0  0  0  0  0
  187.1120  179.4140  136.9910 O   0  0  0  0  0  0  0  0  0  0  0  0
  184.9060  174.6740  136.4050 C   0  0  0  0  0  0  0  0  0  0  0  0
  182.6470  174.6000  137.3840 C   0  0  1  0  0  3  0  0  0  0  0  0
  190.7420  175.2310  138.7310 N   0  0  0  0  0  0  0  0  0  0  0  0
  185.8130  176.8480  137.3470 C   0  0  0  0  0  0  0  0  0  0  0  0
  184.5150  175.3480  138.7270 O   0  0  0  0  0  0  0  0  0  0  0  0
  189.7370  177.1500  137.9420 C   0  0  0  0  0  0  0  0  0  0  0  0
  188.4690  175.9060  136.2290 N   0  0  0  0  0  0  0  0  0  0  0  0
  189.8590  173.5110  137.1590 C   0  0  0  0  0  2  0  0  0  0  0  0
  189.1210  178.5230  137.9170 C   0  0  0  0  0  2  0  0  0  0  0  0
  188.0630  174.6110  135.7510 C   0  0  0  0  0  0  0  0  0  0  0  0
  187.6540  178.4700  137.6260 C   0  0  0  0  0  0  0  0  0  0  0  0
  186.9120  177.3590  138.0440 O   0  0  0  0  0  0  0  0  0  0  0  0
  186.9100  174.5770  134.7910 C   0  0  0  0  0  2  0  0  0  0  0  0
  185.6910  174.0430  135.3920 N   0  0  0  0  0  0  0  0  0  0  0  0
  185.1910  177.5460  136.5030 O   0  0  0  0  0  0  0  0  0  0  0  0
  184.7650  173.2430  134.5940 C   0  0  0  0  0  3  0  0  0  0  0  0
  183.2010  175.6840  138.3170 C   0  0  0  0  0  2  0  0  0  0  0  0
  183.4600  173.3940  135.2370 N   0  0  0  0  0  0  0  0  0  0  0  0
  190.0970  174.8990  137.6600 C   0  0  0  0  0  0  0  0  0  0  0  0
  190.5170  176.6430  138.9030 C   0  0  0  0  0  0  0  0  0  0  0  0
  185.4050  175.4330  137.6190 C   0  0  1  0  0  3  0  0  0  0  0  0
  179.1220  174.2440  135.9020 C   0  0  0  0  0  2  0  0  0  0  0  0
  181.2910  174.9620  136.8530 C   0  0  0  0  0  0  0  0  0  0  0  0
  179.0150  175.6410  135.2870 C   0  0  0  0  0  2  0  0  0  0  0  0
  180.5300  173.9780  136.3560 C   0  0  0  0  0  3  0  0  0  0  0  0
  179.6580  176.6600  136.1880 C   0  0  0  0  0  3  0  0  0  0  0  0
  180.7600  176.3550  136.8950 C   0  0  0  0  0  0  0  0  0  0  0  0
  181.4040  177.3250  137.6730 O   0  0  0  0  0  0  0  0  0  0  0  0
  181.8010  178.5880  137.1480 C   0  0  0  0  0  2  0  0  0  0  0  0
  182.1540  179.5280  138.2830 C   0  0  0  0  0  2  0  0  0  0  0  0
  180.6880  180.4690  138.7900 P   0  0  2  0  0  0  0  0  0  0  0  0
  179.4880  179.9690  138.0130 O   0  0  0  0  0  0  0  0  0  0  0  0
  180.9270  182.1120  138.4670 O   0  0  0  0  0  1  0  0  0  0  0  0
  180.4460  180.2440  140.4540 O   0  0  0  0  0  0  0  0  0  0  0  0
  181.3130  179.2140  140.8250 C   0  0  2  0  0  3  0  0  0  0  0  0
  180.5480  178.1090  141.3920 C   0  0  0  0  0  2  0  0  0  0  0  0
  181.2530  179.0440  142.2830 N   0  0  0  0  0  2  0  0  0  0  0  0
  187.9390  171.1350  135.3340 N   0  0  0  0  0  0  0  0  0  0  0  0
  188.2750  172.1770  135.7100 C   0  0  0  0  0  0  0  0  0  0  0  0
  190.9220  176.7670  141.3120 C   0  0  0  0  0  3  0  0  0  0  0  0
  190.8680  177.3680  140.1290 C   0  0  0  0  0  3  0  0  0  0  0  0
  191.1570  177.5390  142.5420 C   0  0  0  0  0  0  0  0  0  0  0  0
  192.2030  178.2380  142.6470 O   0  0  0  0  0  0  0  0  0  0  0  0
  188.2430  177.6790  145.6790 C   0  0  0  0  0  3  0  0  0  0  0  0
  190.1580  177.5630  143.6270 C   0  0  0  0  0  0  0  0  0  0  0  0
  190.4350  177.0070  144.8850 C   0  0  0  0  0  3  0  0  0  0  0  0
  188.9120  178.1670  143.4080 C   0  0  0  0  0  3  0  0  0  0  0  0
  187.9540  178.2410  144.4300 C   0  0  0  0  0  0  0  0  0  0  0  0
  189.4810  177.0660  145.9060 C   0  0  0  0  0  3  0  0  0  0  0  0
  184.6190  177.6290  143.3470 C   0  0  0  0  0  2  0  0  0  0  0  0
  183.9950  178.4790  144.8160 S   0  0  0  0  0  0  0  0  0  0  0  0
  185.7020  178.6660  145.4000 C   0  0  1  0  0  3  0  0  0  0  0  0
  186.6060  178.8640  144.1910 C   0  0  2  0  0  3  0  0  0  0  0  0
  185.9200  178.2940  142.9450 C   0  0  2  0  0  3  0  0  0  0  0  0
  185.9830  179.3250  147.6230 C   0  0  0  0  0  1  0  0  0  0  0  0
  185.7970  179.8260  146.2720 N   0  0  0  0  0  2  0  0  0  0  0  0
  185.6490  179.3880  141.9190 C   0  0  0  0  0  2  0  0  0  0  0  0
  186.7600  179.4770  140.9860 N   0  0  0  0  0  1  0  0  0  0  0  0
  1 23  1  0  0  0  0
  1 10  1  0  0  0  0
  2 12  1  0  0  0  0
  3  5  2  0  0  0  0
  3  6  1  0  0  0  0
  4 15  2  0  0  0  0
  6 27  1  6  0  0  0
  6 21  1  0  0  0  0
  7 24  1  0  0  0  0
  8 25  1  0  0  0  0
  8 16  1  0  0  0  0
 10 24  2  0  0  0  0
 11  1  2  0  0  0  0
 12 23  1  0  0  0  0
 13 10  1  0  0  0  0
 14  2  2  0  0  0  0
 14 11  1  0  0  0  0
 15 13  1  0  0  0  0
 15 16  1  0  0  0  0
 17 18  1  0  0  0  0
 17 14  1  0  0  0  0
 18  5  1  0  0  0  0
 19  8  2  0  0  0  0
 20 22  2  0  0  0  0
 20 18  1  0  0  0  0
 21  9  1  0  0  0  0
 22  3  1  0  0  0  0
 23  7  2  0  0  0  0
 24 45  1  0  0  0  0
 25  5  1  6  0  0  0
 25  9  1  0  0  0  0
 26 29  1  0  0  0  0
 27 31  1  0  0  0  0
 28 26  1  0  0  0  0
 28 30  1  0  0  0  0
 29 27  2  0  0  0  0
 30 31  2  0  0  0  0
 31 32  1  0  0  0  0
 33 32  1  0  0  0  0
 33 34  1  0  0  0  0
 34 35  1  0  0  0  0
 35 36  2  6  0  0  0
 35 38  1  0  0  0  0
 37 35  1  0  0  0  0
 39 38  1  1  0  0  0
 39 40  1  0  0  0  0
 39 41  1  0  0  0  0
 40 41  1  0  0  0  0
 42 43  3  0  0  0  0
 43  2  1  0  0  0  0
 44 46  1  0  0  0  0
 45 44  2  0  0  0  0
 46 47  2  0  0  0  0
 46 49  1  0  0  0  0
 48 53  1  0  0  0  0
 49 50  1  0  0  0  0
 50 53  2  0  0  0  0
 51 49  2  0  0  0  0
 51 52  1  0  0  0  0
 52 48  2  0  0  0  0
 54 55  1  0  0  0  0
 55 56  1  0  0  0  0
 56 60  1  1  0  0  0
 57 52  1  1  0  0  0
 57 56  1  0  0  0  0
 58 61  1  6  0  0  0
 58 54  1  0  0  0  0
 58 57  1  0  0  0  0
 60 59  1  0  0  0  0
 62 61  1  0  0  0  0
M  END
>  <MODEL>
2

>  <REMARK>
 VINA RESULT:      -6.0      4.715      9.607
  Name = 
  14 active torsions:
  status: ('A' for Active; 'I' for Inactive)
    1  A    between atoms: P_1  and  O_6
    2  A    between atoms: P_1  and  C_60
    3  A    between atoms: O_6  and  C_15
    4  A    between atoms: C_8  and  C_10
    5  A    between atoms: C_9  and  C_11
    6  A    between atoms: C_11  and  C_14
    7  A    between atoms: C_18  and  C_26
    8  A    between atoms: O_29  and  C_44
    9  A    between atoms: O_29  and  C_61
   10  A    between atoms: C_30  and  C_55
   11  A    between atoms: C_36  and  N_49
   12  A    between atoms: C_43  and  C_47
   13  A    between atoms: C_44  and  C_60
   14  A    between atoms: C_57  and  C_58
                            x       y       z     vdW  Elec       q    Type
                         _______ _______ _______ _____ _____    ______ ____

>  <TORSDO>
F 14

$$$$
=
 OpenBabel11042410103D

 62 70  0  0  1  0  0  0  0  0999 V2000
  189.5980  176.9260  137.7880 C   0  0  0  0  0  0  0  0  0  0  0  0
  186.8660  177.5300  137.9780 C   0  0  0  0  0  0  0  0  0  0  0  0
  186.7470  177.8970  143.0810 C   0  0  0  0  0  0  0  0  0  0  0  0
  192.4500  177.6300  140.6650 O   0  0  0  0  0  0  0  0  0  0  0  0
  187.3430  177.7450  141.9200 C   0  0  0  0  0  0  0  0  0  0  0  0
  186.9560  176.9350  144.2140 C   0  0  1  0  0  3  0  0  0  0  0  0
  189.2640  175.0870  136.5330 N   0  0  0  0  0  0  0  0  0  0  0  0
  189.7440  177.0350  141.5130 C   0  0  0  0  0  0  0  0  0  0  0  0
  188.1960  175.5680  142.6490 O   0  0  0  0  0  0  0  0  0  0  0  0
  190.8520  176.1960  137.7830 C   0  0  1  0  0  3  0  0  0  0  0  0
  189.1990  177.8170  138.6350 N   0  0  0  0  0  0  0  0  0  0  0  0
  187.2370  176.4790  136.9370 C   0  0  0  0  0  3  0  0  0  0  0  0
  192.0710  176.4480  138.6300 C   0  0  0  0  0  2  0  0  0  0  0  0
  187.8040  178.1490  138.7540 C   0  0  0  0  0  0  0  0  0  0  0  0
  191.7080  176.8370  140.0280 C   0  0  0  0  0  0  0  0  0  0  0  0
  190.5320  176.3320  140.5960 O   0  0  0  0  0  0  0  0  0  0  0  0
  187.4410  179.1790  139.7840 C   0  0  0  0  0  2  0  0  0  0  0  0
  186.7590  178.6040  140.9400 N   0  0  0  0  0  0  0  0  0  0  0  0
  190.2080  178.0080  142.1650 O   0  0  0  0  0  0  0  0  0  0  0  0
  185.7100  179.3550  141.6260 C   0  0  0  0  0  3  0  0  0  0  0  0
  188.2260  176.1150  143.9560 C   0  0  0  0  0  2  0  0  0  0  0  0
  185.6840  178.8370  142.9930 N   0  0  0  0  0  0  0  0  0  0  0  0
  188.6930  176.1500  137.0010 C   0  0  0  0  0  0  0  0  0  0  0  0
  190.6180  175.1210  137.0230 C   0  0  0  0  0  0  0  0  0  0  0  0
  188.3180  176.6080  141.6860 C   0  0  1  0  0  3  0  0  0  0  0  0
  185.8030  178.8410  147.3420 C   0  0  0  0  0  2  0  0  0  0  0  0
  186.9900  177.6080  145.5540 C   0  0  0  0  0  0  0  0  0  0  0  0
  187.1640  179.4050  147.7540 C   0  0  0  0  0  2  0  0  0  0  0  0
  185.8800  178.2330  145.9690 C   0  0  0  0  0  3  0  0  0  0  0  0
  188.2470  178.3920  147.5030 C   0  0  0  0  0  3  0  0  0  0  0  0
  188.1900  177.5710  146.4390 C   0  0  0  0  0  0  0  0  0  0  0  0
  189.2360  176.6820  146.1620 O   0  0  0  0  0  0  0  0  0  0  0  0
  190.4380  177.0910  145.5180 C   0  0  0  0  0  2  0  0  0  0  0  0
  191.5290  177.2940  146.5510 C   0  0  0  0  0  2  0  0  0  0  0  0
  192.1670  175.6890  147.1060 P   0  0  2  0  0  0  0  0  0  0  0  0
  192.4450  174.8230  145.8950 O   0  0  0  0  0  0  0  0  0  0  0  0
  191.0210  174.9330  148.0930 O   0  0  0  0  0  1  0  0  0  0  0  0
  193.5950  175.9460  147.9850 O   0  0  0  0  0  0  0  0  0  0  0  0
  193.1960  176.1170  149.3120 C   0  0  2  0  0  3  0  0  0  0  0  0
  193.0210  177.5370  149.5920 C   0  0  0  0  0  2  0  0  0  0  0  0
  194.2450  176.8500  150.0340 N   0  0  0  0  0  2  0  0  0  0  0  0
  184.3440  178.1110  138.2130 N   0  0  0  0  0  0  0  0  0  0  0  0
  185.4670  177.8520  138.1070 C   0  0  0  0  0  0  0  0  0  0  0  0
  191.7030  173.3020  135.7980 C   0  0  0  0  0  3  0  0  0  0  0  0
  191.5330  173.9790  136.9280 C   0  0  0  0  0  3  0  0  0  0  0  0
  192.5320  172.0880  135.7600 C   0  0  0  0  0  0  0  0  0  0  0  0
  192.1190  171.0730  135.1350 O   0  0  0  0  0  0  0  0  0  0  0  0
  196.4410  172.0340  137.5110 C   0  0  0  0  0  3  0  0  0  0  0  0
  193.8680  172.0600  136.3850 C   0  0  0  0  0  0  0  0  0  0  0  0
  194.3250  170.9290  137.0780 C   0  0  0  0  0  3  0  0  0  0  0  0
  194.7090  173.1760  136.2710 C   0  0  0  0  0  3  0  0  0  0  0  0
  196.0000  173.1680  136.8200 C   0  0  0  0  0  0  0  0  0  0  0  0
  195.6070  170.9170  137.6380 C   0  0  0  0  0  3  0  0  0  0  0  0
  198.9260  174.5020  135.2940 C   0  0  0  0  0  2  0  0  0  0  0  0
  198.0060  175.9960  134.8560 S   0  0  0  0  0  0  0  0  0  0  0  0
  196.5040  175.2370  135.5330 C   0  0  1  0  0  3  0  0  0  0  0  0
  196.8950  174.3730  136.7240 C   0  0  2  0  0  3  0  0  0  0  0  0
  198.3730  173.9860  136.6070 C   0  0  2  0  0  3  0  0  0  0  0  0
  194.3440  176.0750  135.2360 C   0  0  0  0  0  1  0  0  0  0  0  0
  195.5840  176.2750  135.9670 N   0  0  0  0  0  2  0  0  0  0  0  0
  199.1800  174.5510  137.7690 C   0  0  0  0  0  2  0  0  0  0  0  0
  198.3110  175.3150  138.6500 N   0  0  0  0  0  1  0  0  0  0  0  0
  1 11  1  0  0  0  0
  2 43  1  0  0  0  0
  2 14  1  0  0  0  0
  3  6  1  0  0  0  0
  5  3  2  0  0  0  0
  6 27  1  1  0  0  0
  7 23  1  0  0  0  0
  7 24  2  0  0  0  0
  8 19  2  0  0  0  0
  9 21  1  0  0  0  0
 10  1  1  0  0  0  0
 10 13  1  1  0  0  0
 11 14  2  0  0  0  0
 12 23  1  0  0  0  0
 12  2  2  0  0  0  0
 13 15  1  0  0  0  0
 14 17  1  0  0  0  0
 15 16  1  0  0  0  0
 15  4  2  0  0  0  0
 16  8  1  0  0  0  0
 17 18  1  0  0  0  0
 18 20  1  0  0  0  0
 18  5  1  0  0  0  0
 20 22  2  0  0  0  0
 21  6  1  0  0  0  0
 22  3  1  0  0  0  0
 23  1  2  0  0  0  0
 24 10  1  0  0  0  0
 25  8  1  1  0  0  0
 25  5  1  0  0  0  0
 25  9  1  0  0  0  0
 26 28  1  0  0  0  0
 27 29  2  0  0  0  0
 27 31  1  0  0  0  0
 29 26  1  0  0  0  0
 30 28  1  0  0  0  0
 31 30  2  0  0  0  0
 32 31  1  0  0  0  0
 33 32  1  0  0  0  0
 33 34  1  0  0  0  0
 34 35  1  0  0  0  0
 35 36  2  6  0  0  0
 35 38  1  0  0  0  0
 35 37  1  0  0  0  0
 39 38  1  6  0  0  0
 39 40  1  0  0  0  0
 39 41  1  0  0  0  0
 40 41  1  0  0  0  0
 43 42  3  0  0  0  0
 44 45  2  0  0  0  0
 45 24  1  0  0  0  0
 46 44  1  0  0  0  0
 46 49  1  0  0  0  0
 47 46  2  0  0  0  0
 48 53  1  0  0  0  0
 49 50  1  0  0  0  0
 50 53  2  0  0  0  0
 51 49  2  0  0  0  0
 51 52  1  0  0  0  0
 52 48  2  0  0  0  0
 54 58  1  0  0  0  0
 55 54  1  0  0  0  0
 55 56  1  0  0  0  0
 56 60  1  1  0  0  0
 56 57  1  0  0  0  0
 57 52  1  6  0  0  0
 58 57  1  0  0  0  0
 58 61  1  1  0  0  0
 59 60  1  0  0  0  0
 61 62  1  0  0  0  0
M  END
>  <MODEL>
3

>  <REMARK>
 VINA RESULT:      -5.8      2.627      4.718
  Name = 
  14 active torsions:
  status: ('A' for Active; 'I' for Inactive)
    1  A    between atoms: P_1  and  O_6
    2  A    between atoms: P_1  and  C_60
    3  A    between atoms: O_6  and  C_15
    4  A    between atoms: C_8  and  C_10
    5  A    between atoms: C_9  and  C_11
    6  A    between atoms: C_11  and  C_14
    7  A    between atoms: C_18  and  C_26
    8  A    between atoms: O_29  and  C_44
    9  A    between atoms: O_29  and  C_61
   10  A    between atoms: C_30  and  C_55
   11  A    between atoms: C_36  and  N_49
   12  A    between atoms: C_43  and  C_47
   13  A    between atoms: C_44  and  C_60
   14  A    between atoms: C_57  and  C_58
                            x       y       z     vdW  Elec       q    Type
                         _______ _______ _______ _____ _____    ______ ____

>  <TORSDO>
F 14

$$$$
=
 OpenBabel11042410103D

 62 70  0  0  1  0  0  0  0  0999 V2000
  189.2750  176.9460  137.8620 C   0  0  0  0  0  0  0  0  0  0  0  0
  186.5320  177.5110  138.0010 C   0  0  0  0  0  0  0  0  0  0  0  0
  186.3530  178.0780  143.0830 C   0  0  0  0  0  0  0  0  0  0  0  0
  192.0850  177.8100  140.7380 O   0  0  0  0  0  0  0  0  0  0  0  0
  186.9630  177.8900  141.9360 C   0  0  0  0  0  0  0  0  0  0  0  0
  186.5640  177.1650  144.2560 C   0  0  1  0  0  3  0  0  0  0  0  0
  188.9840  175.0540  136.6780 N   0  0  0  0  0  0  0  0  0  0  0  0
  189.3800  177.2040  141.5810 C   0  0  0  0  0  0  0  0  0  0  0  0
  187.8430  175.7580  142.7590 O   0  0  0  0  0  0  0  0  0  0  0  0
  190.5400  176.2370  137.8990 C   0  0  1  0  0  3  0  0  0  0  0  0
  188.8530  177.8630  138.6690 N   0  0  0  0  0  0  0  0  0  0  0  0
  186.9310  176.4270  137.0060 C   0  0  0  0  0  3  0  0  0  0  0  0
  191.7460  176.5420  138.7470 C   0  0  0  0  0  2  0  0  0  0  0  0
  187.4510  178.1760  138.7610 C   0  0  0  0  0  0  0  0  0  0  0  0
  191.3620  176.9800  140.1250 C   0  0  0  0  0  0  0  0  0  0  0  0
  190.1880  176.4780  140.7010 O   0  0  0  0  0  0  0  0  0  0  0  0
  187.0610  179.2400  139.7450 C   0  0  0  0  0  2  0  0  0  0  0  0
  186.3760  178.7000  140.9170 N   0  0  0  0  0  0  0  0  0  0  0  0
  189.8210  178.2090  142.1980 O   0  0  0  0  0  0  0  0  0  0  0  0
  185.3080  179.4610  141.5610 C   0  0  0  0  0  3  0  0  0  0  0  0
  187.8510  176.3570  144.0440 C   0  0  0  0  0  2  0  0  0  0  0  0
  185.2760  178.9960  142.9470 N   0  0  0  0  0  0  0  0  0  0  0  0
  188.3910  176.1240  137.0970 C   0  0  0  0  0  0  0  0  0  0  0  0
  190.3320  175.1290  137.1790 C   0  0  0  0  0  0  0  0  0  0  0  0
  187.9590  176.7610  141.7560 C   0  0  1  0  0  3  0  0  0  0  0  0
  185.3770  179.2660  147.2430 C   0  0  0  0  0  2  0  0  0  0  0  0
  186.5740  177.8910  145.5690 C   0  0  0  0  0  0  0  0  0  0  0  0
  186.7480  179.7660  147.7020 C   0  0  0  0  0  2  0  0  0  0  0  0
  185.4850  178.5970  145.9010 C   0  0  0  0  0  3  0  0  0  0  0  0
  187.7790  178.6820  147.5470 C   0  0  0  0  0  3  0  0  0  0  0  0
  187.7240  177.8220  146.5150 C   0  0  0  0  0  0  0  0  0  0  0  0
  188.7270  176.8620  146.3270 O   0  0  0  0  0  0  0  0  0  0  0  0
  189.5110  176.3540  147.4020 C   0  0  0  0  0  2  0  0  0  0  0  0
  190.8850  176.9930  147.3800 C   0  0  0  0  0  2  0  0  0  0  0  0
  192.1680  175.7090  147.3800 P   0  0  2  0  0  0  0  0  0  0  0  0
  191.6330  174.4780  148.0800 O   0  0  0  0  0  0  0  0  0  0  0  0
  193.5380  176.2750  148.1940 O   0  0  0  0  0  1  0  0  0  0  0  0
  192.5700  175.3430  145.7730 O   0  0  0  0  0  0  0  0  0  0  0  0
  191.6980  176.0970  144.9850 C   0  0  2  0  0  3  0  0  0  0  0  0
  191.1600  175.2650  143.9150 C   0  0  0  0  0  2  0  0  0  0  0  0
  192.2550  176.2060  143.6290 N   0  0  0  0  0  2  0  0  0  0  0  0
  183.9980  178.0610  138.1870 N   0  0  0  0  0  0  0  0  0  0  0  0
  185.1260  177.8160  138.1030 C   0  0  0  0  0  0  0  0  0  0  0  0
  191.6590  173.4490  135.9960 C   0  0  0  0  0  3  0  0  0  0  0  0
  191.2660  174.0000  137.1390 C   0  0  0  0  0  3  0  0  0  0  0  0
  192.4990  172.2410  135.9870 C   0  0  0  0  0  0  0  0  0  0  0  0
  192.1000  171.2110  135.3780 O   0  0  0  0  0  0  0  0  0  0  0  0
  196.3960  172.2490  137.7670 C   0  0  0  0  0  3  0  0  0  0  0  0
  193.8310  172.2370  136.6220 C   0  0  0  0  0  0  0  0  0  0  0  0
  194.2540  171.1630  137.4190 C   0  0  0  0  0  3  0  0  0  0  0  0
  194.7000  173.3170  136.4140 C   0  0  0  0  0  3  0  0  0  0  0  0
  195.9880  173.3260  136.9710 C   0  0  0  0  0  0  0  0  0  0  0  0
  195.5330  171.1700  137.9880 C   0  0  0  0  0  3  0  0  0  0  0  0
  198.9770  174.4300  135.3860 C   0  0  0  0  0  2  0  0  0  0  0  0
  198.1030  175.8910  134.7750 S   0  0  0  0  0  0  0  0  0  0  0  0
  196.5700  175.2400  135.4900 C   0  0  1  0  0  3  0  0  0  0  0  0
  196.9140  174.4950  136.7730 C   0  0  2  0  0  3  0  0  0  0  0  0
  198.3840  174.0650  136.7310 C   0  0  2  0  0  3  0  0  0  0  0  0
  195.9920  177.4200  134.8820 C   0  0  0  0  0  1  0  0  0  0  0  0
  195.6660  176.3370  135.7950 N   0  0  0  0  0  2  0  0  0  0  0  0
  199.1800  174.7290  137.8480 C   0  0  0  0  0  2  0  0  0  0  0  0
  198.3140  175.6050  138.6200 N   0  0  0  0  0  1  0  0  0  0  0  0
  1 10  1  0  0  0  0
  1 11  1  0  0  0  0
  2 43  1  0  0  0  0
  2 14  1  0  0  0  0
  3  6  1  0  0  0  0
  5  3  2  0  0  0  0
  6 27  1  1  0  0  0
  7 23  1  0  0  0  0
  7 24  2  0  0  0  0
  8 19  2  0  0  0  0
  9 21  1  0  0  0  0
 10 13  1  1  0  0  0
 11 14  2  0  0  0  0
 12 23  1  0  0  0  0
 12  2  2  0  0  0  0
 13 15  1  0  0  0  0
 14 17  1  0  0  0  0
 15 16  1  0  0  0  0
 15  4  2  0  0  0  0
 16  8  1  0  0  0  0
 17 18  1  0  0  0  0
 18 20  1  0  0  0  0
 18  5  1  0  0  0  0
 20 22  2  0  0  0  0
 21  6  1  0  0  0  0
 22  3  1  0  0  0  0
 23  1  2  0  0  0  0
 24 10  1  0  0  0  0
 25  8  1  1  0  0  0
 25  5  1  0  0  0  0
 25  9  1  0  0  0  0
 26 28  1  0  0  0  0
 27 29  2  0  0  0  0
 27 31  1  0  0  0  0
 29 26  1  0  0  0  0
 30 28  1  0  0  0  0
 31 30  2  0  0  0  0
 32 31  1  0  0  0  0
 32 33  1  0  0  0  0
 34 33  1  0  0  0  0
 35 34  1  0  0  0  0
 35 36  2  1  0  0  0
 35 37  1  0  0  0  0
 38 35  1  0  0  0  0
 39 38  1  1  0  0  0
 40 39  1  0  0  0  0
 41 40  1  0  0  0  0
 41 39  1  0  0  0  0
 43 42  3  0  0  0  0
 44 45  2  0  0  0  0
 45 24  1  0  0  0  0
 46 44  1  0  0  0  0
 46 49  1  0  0  0  0
 47 46  2  0  0  0  0
 48 53  1  0  0  0  0
 49 50  1  0  0  0  0
 50 53  2  0  0  0  0
 51 49  2  0  0  0  0
 51 52  1  0  0  0  0
 52 48  2  0  0  0  0
 54 58  1  0  0  0  0
 55 54  1  0  0  0  0
 55 56  1  0  0  0  0
 56 60  1  1  0  0  0
 56 57  1  0  0  0  0
 57 52  1  6  0  0  0
 58 57  1  0  0  0  0
 58 61  1  1  0  0  0
 59 60  1  0  0  0  0
 61 62  1  0  0  0  0
M  END
>  <MODEL>
4

>  <REMARK>
 VINA RESULT:      -5.7      2.462      4.259
  Name = 
  14 active torsions:
  status: ('A' for Active; 'I' for Inactive)
    1  A    between atoms: P_1  and  O_6
    2  A    between atoms: P_1  and  C_60
    3  A    between atoms: O_6  and  C_15
    4  A    between atoms: C_8  and  C_10
    5  A    between atoms: C_9  and  C_11
    6  A    between atoms: C_11  and  C_14
    7  A    between atoms: C_18  and  C_26
    8  A    between atoms: O_29  and  C_44
    9  A    between atoms: O_29  and  C_61
   10  A    between atoms: C_30  and  C_55
   11  A    between atoms: C_36  and  N_49
   12  A    between atoms: C_43  and  C_47
   13  A    between atoms: C_44  and  C_60
   14  A    between atoms: C_57  and  C_58
                            x       y       z     vdW  Elec       q    Type
                         _______ _______ _______ _____ _____    ______ ____

>  <TORSDO>
F 14

$$$$
=
 OpenBabel11042410103D

 62 70  0  0  1  0  0  0  0  0999 V2000
  188.7250  175.2720  136.6300 C   0  0  0  0  0  0  0  0  0  0  0  0
  188.7520  172.5030  136.1940 C   0  0  0  0  0  0  0  0  0  0  0  0
  183.6690  171.9290  136.0550 C   0  0  0  0  0  0  0  0  0  0  0  0
  185.5850  177.8220  135.8870 O   0  0  0  0  0  0  0  0  0  0  0  0
  184.7780  172.6290  136.1220 C   0  0  0  0  0  0  0  0  0  0  0  0
  182.5590  172.0990  137.0510 C   0  0  1  0  0  3  0  0  0  0  0  0
  190.0740  175.1600  138.4290 N   0  0  0  0  0  0  0  0  0  0  0  0
  185.0000  175.0950  136.6740 C   0  0  0  0  0  0  0  0  0  0  0  0
  184.0600  173.5490  138.2750 O   0  0  0  0  0  0  0  0  0  0  0  0
  188.6480  176.5650  137.2860 C   0  0  0  0  0  0  0  0  0  0  0  0
  187.8830  174.7490  135.8010 N   0  0  0  0  0  0  0  0  0  0  0  0
  189.7960  173.0240  137.1760 C   0  0  0  0  0  2  0  0  0  0  0  0
  187.6900  177.6900  137.0010 C   0  0  0  0  0  2  0  0  0  0  0  0
  187.8740  173.3310  135.5560 C   0  0  0  0  0  0  0  0  0  0  0  0
  186.3150  177.1860  136.6940 C   0  0  0  0  0  0  0  0  0  0  0  0
  185.8710  175.9990  137.2900 O   0  0  0  0  0  0  0  0  0  0  0  0
  186.8410  172.8200  134.5940 C   0  0  0  0  0  2  0  0  0  0  0  0
  185.7710  172.0780  135.2570 N   0  0  0  0  0  0  0  0  0  0  0  0
  184.2740  175.4410  135.7050 O   0  0  0  0  0  0  0  0  0  0  0  0
  185.1520  170.9310  134.5970 C   0  0  0  0  0  3  0  0  0  0  0  0
  182.7360  173.4340  137.7840 C   0  0  0  0  0  2  0  0  0  0  0  0
  183.8130  170.8210  135.1750 N   0  0  0  0  0  0  0  0  0  0  0  0
  189.6170  174.4880  137.4230 C   0  0  0  0  0  0  0  0  0  0  0  0
  189.4660  176.4630  138.3390 C   0  0  0  0  0  0  0  0  0  0  0  0
  184.9690  173.6890  137.1890 C   0  0  1  0  0  3  0  0  0  0  0  0
  179.4070  170.5440  135.5040 C   0  0  0  0  0  2  0  0  0  0  0  0
  181.1960  171.9780  136.4360 C   0  0  0  0  0  0  0  0  0  0  0  0
  178.9320  171.7720  134.7250 C   0  0  0  0  0  2  0  0  0  0  0  0
  180.7960  170.7640  136.0340 C   0  0  0  0  0  3  0  0  0  0  0  0
  179.1820  173.0240  135.5190 C   0  0  0  0  0  3  0  0  0  0  0  0
  180.2750  173.1410  136.2950 C   0  0  0  0  0  0  0  0  0  0  0  0
  180.5470  174.3360  136.9730 O   0  0  0  0  0  0  0  0  0  0  0  0
  179.5270  175.2610  137.3340 C   0  0  0  0  0  2  0  0  0  0  0  0
  179.7460  176.5750  136.6110 C   0  0  0  0  0  2  0  0  0  0  0  0
  180.8900  177.6210  137.5550 P   0  0  2  0  0  0  0  0  0  0  0  0
  182.1930  177.7390  136.7930 O   0  0  0  0  0  0  0  0  0  0  0  0
  181.1780  176.9270  139.0690 O   0  0  0  0  0  1  0  0  0  0  0  0
  180.1860  179.1530  137.7540 O   0  0  0  0  0  0  0  0  0  0  0  0
  181.1710  180.0710  137.3830 C   0  0  2  0  0  3  0  0  0  0  0  0
  182.0150  180.3760  138.5330 C   0  0  0  0  0  2  0  0  0  0  0  0
  180.9610  181.3200  138.1280 N   0  0  0  0  0  2  0  0  0  0  0  0
  188.7170  169.9390  135.7680 N   0  0  0  0  0  0  0  0  0  0  0  0
  188.7330  171.0800  135.9590 C   0  0  0  0  0  0  0  0  0  0  0  0
  188.9760  177.2290  140.6090 C   0  0  0  0  0  3  0  0  0  0  0  0
  189.5240  177.4510  139.4200 C   0  0  0  0  0  3  0  0  0  0  0  0
  188.9410  178.2830  141.6350 C   0  0  0  0  0  0  0  0  0  0  0  0
  188.0770  179.1990  141.5560 O   0  0  0  0  0  0  0  0  0  0  0  0
  191.5450  178.2130  145.0360 C   0  0  0  0  0  3  0  0  0  0  0  0
  189.8560  178.2480  142.7920 C   0  0  0  0  0  0  0  0  0  0  0  0
  191.1840  178.6860  142.6840 C   0  0  0  0  0  3  0  0  0  0  0  0
  189.3880  177.7860  144.0300 C   0  0  0  0  0  3  0  0  0  0  0  0
  190.2210  177.7770  145.1600 C   0  0  0  0  0  0  0  0  0  0  0  0
  192.0250  178.6680  143.8020 C   0  0  0  0  0  3  0  0  0  0  0  0
  190.3930  178.1940  148.6900 C   0  0  0  0  0  2  0  0  0  0  0  0
  188.5870  178.1500  148.7750 S   0  0  0  0  0  0  0  0  0  0  0  0
  188.5310  178.0610  146.9650 C   0  0  1  0  0  3  0  0  0  0  0  0
  189.7310  177.2570  146.4840 C   0  0  2  0  0  3  0  0  0  0  0  0
  190.8260  177.2880  147.5550 C   0  0  2  0  0  3  0  0  0  0  0  0
  186.2060  178.2810  146.9050 C   0  0  0  0  0  1  0  0  0  0  0  0
  187.3050  177.4020  146.5440 N   0  0  0  0  0  2  0  0  0  0  0  0
  191.1100  175.8880  148.0880 C   0  0  0  0  0  2  0  0  0  0  0  0
  192.3600  175.3930  147.5330 N   0  0  0  0  0  1  0  0  0  0  0  0
  1 10  1  0  0  0  0
  1 23  1  0  0  0  0
  2 12  1  0  0  0  0
  3  5  2  0  0  0  0
  3  6  1  0  0  0  0
  4 15  2  0  0  0  0
  6 27  1  6  0  0  0
  6 21  1  0  0  0  0
  8 25  1  0  0  0  0
  8 16  1  0  0  0  0
 10 24  2  0  0  0  0
 11  1  2  0  0  0  0
 12 23  1  0  0  0  0
 13 10  1  0  0  0  0
 14 11  1  0  0  0  0
 14  2  2  0  0  0  0
 15 13  1  0  0  0  0
 15 16  1  0  0  0  0
 17 18  1  0  0  0  0
 17 14  1  0  0  0  0
 18  5  1  0  0  0  0
 19  8  2  0  0  0  0
 20 22  2  0  0  0  0
 20 18  1  0  0  0  0
 21  9  1  0  0  0  0
 22  3  1  0  0  0  0
 23  7  2  0  0  0  0
 24  7  1  0  0  0  0
 24 45  1  0  0  0  0
 25  5  1  6  0  0  0
 25  9  1  0  0  0  0
 26 29  1  0  0  0  0
 28 26  1  0  0  0  0
 28 30  1  0  0  0  0
 29 27  2  0  0  0  0
 30 31  2  0  0  0  0
 31 27  1  0  0  0  0
 31 32  1  0  0  0  0
 32 33  1  0  0  0  0
 34 33  1  0  0  0  0
 34 35  1  0  0  0  0
 35 36  2  6  0  0  0
 35 38  1  0  0  0  0
 35 37  1  0  0  0  0
 39 38  1  1  0  0  0
 39 41  1  0  0  0  0
 39 40  1  0  0  0  0
 41 40  1  0  0  0  0
 42 43  3  0  0  0  0
 43  2  1  0  0  0  0
 44 46  1  0  0  0  0
 45 44  2  0  0  0  0
 46 49  1  0  0  0  0
 47 46  2  0  0  0  0
 48 52  1  0  0  0  0
 49 51  1  0  0  0  0
 50 49  2  0  0  0  0
 50 53  1  0  0  0  0
 51 52  2  0  0  0  0
 53 48  2  0  0  0  0
 54 55  1  0  0  0  0
 56 60  1  1  0  0  0
 56 55  1  0  0  0  0
 57 52  1  6  0  0  0
 57 56  1  0  0  0  0
 57 58  1  0  0  0  0
 58 61  1  1  0  0  0
 58 54  1  0  0  0  0
 60 59  1  0  0  0  0
 62 61  1  0  0  0  0
M  END
>  <MODEL>
5

>  <REMARK>
 VINA RESULT:      -5.0      5.282     10.000
  Name = 
  14 active torsions:
  status: ('A' for Active; 'I' for Inactive)
    1  A    between atoms: P_1  and  O_6
    2  A    between atoms: P_1  and  C_60
    3  A    between atoms: O_6  and  C_15
    4  A    between atoms: C_8  and  C_10
    5  A    between atoms: C_9  and  C_11
    6  A    between atoms: C_11  and  C_14
    7  A    between atoms: C_18  and  C_26
    8  A    between atoms: O_29  and  C_44
    9  A    between atoms: O_29  and  C_61
   10  A    between atoms: C_30  and  C_55
   11  A    between atoms: C_36  and  N_49
   12  A    between atoms: C_43  and  C_47
   13  A    between atoms: C_44  and  C_60
   14  A    between atoms: C_57  and  C_58
                            x       y       z     vdW  Elec       q    Type
                         _______ _______ _______ _____ _____    ______ ____

>  <TORSDO>
F 14

$$$$
=
 OpenBabel11042410103D

 62 70  0  0  1  0  0  0  0  0999 V2000
  184.4030  178.5250  139.3570 C   0  0  0  0  0  0  0  0  0  0  0  0
  182.5490  178.7590  141.4470 C   0  0  0  0  0  0  0  0  0  0  0  0
  185.9280  178.1440  145.2400 C   0  0  0  0  0  0  0  0  0  0  0  0
  188.4770  179.0030  139.6540 O   0  0  0  0  0  0  0  0  0  0  0  0
  185.5750  178.2840  143.9830 C   0  0  0  0  0  0  0  0  0  0  0  0
  186.8070  177.0180  145.6990 C   0  0  1  0  0  3  0  0  0  0  0  0
  183.2310  176.9280  138.2870 N   0  0  0  0  0  0  0  0  0  0  0  0
  187.0350  177.9470  141.9360 C   0  0  0  0  0  0  0  0  0  0  0  0
  186.6030  176.1230  143.4600 O   0  0  0  0  0  0  0  0  0  0  0  0
  185.2910  177.9590  138.3580 C   0  0  0  0  0  0  0  0  0  0  0  0
  184.7210  179.1880  140.4200 N   0  0  0  0  0  0  0  0  0  0  0  0
  182.0720  177.9730  140.2300 C   0  0  0  0  0  3  0  0  0  0  0  0
  186.7710  178.1880  138.2010 C   0  0  0  0  0  2  0  0  0  0  0  0
  183.7900  179.3260  141.5080 C   0  0  0  0  0  0  0  0  0  0  0  0
  187.4660  178.2620  139.5240 C   0  0  0  0  0  0  0  0  0  0  0  0
  186.9640  177.5260  140.6040 O   0  0  0  0  0  0  0  0  0  0  0  0
  184.2630  180.0950  142.7070 C   0  0  0  0  0  2  0  0  0  0  0  0
  184.5190  179.2370  143.8610 N   0  0  0  0  0  0  0  0  0  0  0  0
  187.8580  178.8280  142.3010 O   0  0  0  0  0  0  0  0  0  0  0  0
  184.2430  179.7190  145.2130 C   0  0  0  0  0  3  0  0  0  0  0  0
  187.5330  176.4150  144.4890 C   0  0  0  0  0  2  0  0  0  0  0  0
  185.1270  178.9530  146.0910 N   0  0  0  0  0  0  0  0  0  0  0  0
  183.1730  177.8100  139.2310 C   0  0  1  0  0  3  0  0  0  0  0  0
  184.5590  177.0270  137.7390 C   0  0  0  0  0  0  0  0  0  0  0  0
  186.0850  177.3330  142.9180 C   0  0  1  0  0  3  0  0  0  0  0  0
  188.3190  177.5730  149.1850 C   0  0  0  0  0  2  0  0  0  0  0  0
  187.7680  177.4260  146.7760 C   0  0  0  0  0  0  0  0  0  0  0  0
  189.2490  178.7330  148.8240 C   0  0  0  0  0  2  0  0  0  0  0  0
  187.3770  177.2840  148.0500 C   0  0  0  0  0  3  0  0  0  0  0  0
  189.8480  178.5190  147.4610 C   0  0  0  0  0  3  0  0  0  0  0  0
  189.1350  177.9410  146.4790 C   0  0  0  0  0  0  0  0  0  0  0  0
  189.6650  177.8110  145.1890 O   0  0  0  0  0  0  0  0  0  0  0  0
  190.7450  178.6130  144.7210 C   0  0  0  0  0  2  0  0  0  0  0  0
  190.7630  178.6160  143.2060 C   0  0  0  0  0  2  0  0  0  0  0  0
  191.2240  176.9730  142.5860 P   0  0  2  0  0  0  0  0  0  0  0  0
  191.8680  177.1230  141.2240 O   0  0  0  0  0  0  0  0  0  0  0  0
  189.8430  176.0070  142.4580 O   0  0  0  0  0  1  0  0  0  0  0  0
  192.3150  176.2670  143.6770 O   0  0  0  0  0  0  0  0  0  0  0  0
  191.5980  175.2620  144.3290 C   0  0  2  0  0  3  0  0  0  0  0  0
  192.0460  175.1600  145.7140 C   0  0  0  0  0  2  0  0  0  0  0  0
  192.5270  174.1910  144.7170 N   0  0  0  0  0  2  0  0  0  0  0  0
  180.8760  178.9900  143.4230 N   0  0  0  0  0  0  0  0  0  0  0  0
  181.6210  178.8860  142.5430 C   0  0  0  0  0  0  0  0  0  0  0  0
  184.4560  174.9420  136.4640 C   0  0  0  0  0  3  0  0  0  0  0  0
  185.1200  176.0380  136.8120 C   0  0  0  0  0  3  0  0  0  0  0  0
  185.0880  173.9070  135.6300 C   0  0  0  0  0  0  0  0  0  0  0  0
  184.4960  173.4980  134.5940 O   0  0  0  0  0  0  0  0  0  0  0  0
  189.0170  172.4390  136.5020 C   0  0  0  0  0  3  0  0  0  0  0  0
  186.4320  173.3890  135.9500 C   0  0  0  0  0  0  0  0  0  0  0  0
  186.6390  172.0310  136.2350 C   0  0  0  0  0  3  0  0  0  0  0  0
  187.5280  174.2630  135.9540 C   0  0  0  0  0  3  0  0  0  0  0  0
  188.8240  173.7950  136.2160 C   0  0  0  0  0  0  0  0  0  0  0  0
  187.9280  171.5590  136.5090 C   0  0  0  0  0  3  0  0  0  0  0  0
  190.4060  176.4140  138.0350 C   0  0  0  0  0  2  0  0  0  0  0  0
  191.9810  175.5330  137.9170 S   0  0  0  0  0  0  0  0  0  0  0  0
  191.1210  174.1600  137.1010 C   0  0  1  0  0  3  0  0  0  0  0  0
  189.9990  174.7340  136.2470 C   0  0  2  0  0  3  0  0  0  0  0  0
  189.6160  176.1200  136.7750 C   0  0  2  0  0  3  0  0  0  0  0  0
  193.1880  174.3100  136.0220 C   0  0  0  0  0  1  0  0  0  0  0  0
  192.0530  173.4330  136.2540 N   0  0  0  0  0  2  0  0  0  0  0  0
  189.8830  177.1980  135.7310 C   0  0  0  0  0  2  0  0  0  0  0  0
  188.8740  177.1340  134.6860 N   0  0  0  0  0  1  0  0  0  0  0  0
  1 11  1  0  0  0  0
  2 14  1  0  0  0  0
  2 43  1  0  0  0  0
  3  6  1  0  0  0  0
  3 22  1  0  0  0  0
  5  3  2  0  0  0  0
  6 27  1  1  0  0  0
  7 23  1  0  0  0  0
  8 19  2  0  0  0  0
  9 21  1  0  0  0  0
 10  1  2  0  0  0  0
 11 14  2  0  0  0  0
 12  2  2  0  0  0  0
 13 10  1  0  0  0  0
 13 15  1  0  0  0  0
 14 17  1  0  0  0  0
 15  4  2  0  0  0  0
 15 16  1  0  0  0  0
 16  8  1  0  0  0  0
 17 18  1  0  0  0  0
 18  5  1  0  0  0  0
 18 20  1  0  0  0  0
 20 22  2  0  0  0  0
 21  6  1  0  0  0  0
 23  1  1  0  0  0  0
 23 12  1  1  0  0  0
 24  7  2  0  0  0  0
 24 10  1  0  0  0  0
 25  8  1  1  0  0  0
 25  9  1  0  0  0  0
 25  5  1  0  0  0  0
 27 29  2  0  0  0  0
 28 26  1  0  0  0  0
 29 26  1  0  0  0  0
 30 28  1  0  0  0  0
 31 27  1  0  0  0  0
 31 30  2  0  0  0  0
 32 31  1  0  0  0  0
 33 32  1  0  0  0  0
 34 33  1  0  0  0  0
 35 36  2  6  0  0  0
 35 34  1  0  0  0  0
 35 38  1  0  0  0  0
 37 35  1  0  0  0  0
 39 38  1  6  0  0  0
 39 41  1  0  0  0  0
 39 40  1  0  0  0  0
 41 40  1  0  0  0  0
 43 42  3  0  0  0  0
 44 45  2  0  0  0  0
 45 24  1  0  0  0  0
 46 49  1  0  0  0  0
 46 44  1  0  0  0  0
 47 46  2  0  0  0  0
 48 53  1  0  0  0  0
 49 51  2  0  0  0  0
 49 50  1  0  0  0  0
 50 53  2  0  0  0  0
 51 52  1  0  0  0  0
 52 48  2  0  0  0  0
 55 54  1  0  0  0  0
 56 60  1  6  0  0  0
 56 55  1  0  0  0  0
 57 52  1  1  0  0  0
 57 58  1  0  0  0  0
 57 56  1  0  0  0  0
 58 61  1  6  0  0  0
 58 54  1  0  0  0  0
 59 60  1  0  0  0  0
 62 61  1  0  0  0  0
M  END
>  <MODEL>
6

>  <REMARK>
 VINA RESULT:      -4.9      3.327      6.772
  Name = 
  14 active torsions:
  status: ('A' for Active; 'I' for Inactive)
    1  A    between atoms: P_1  and  O_6
    2  A    between atoms: P_1  and  C_60
    3  A    between atoms: O_6  and  C_15
    4  A    between atoms: C_8  and  C_10
    5  A    between atoms: C_9  and  C_11
    6  A    between atoms: C_11  and  C_14
    7  A    between atoms: C_18  and  C_26
    8  A    between atoms: O_29  and  C_44
    9  A    between atoms: O_29  and  C_61
   10  A    between atoms: C_30  and  C_55
   11  A    between atoms: C_36  and  N_49
   12  A    between atoms: C_43  and  C_47
   13  A    between atoms: C_44  and  C_60
   14  A    between atoms: C_57  and  C_58
                            x       y       z     vdW  Elec       q    Type
                         _______ _______ _______ _____ _____    ______ ____

>  <TORSDO>
F 14

$$$$
=
 OpenBabel11042410103D

 62 70  0  0  1  0  0  0  0  0999 V2000
  190.5720  176.5010  137.6680 C   0  0  0  0  0  0  0  0  0  0  0  0
  191.0250  173.9480  136.6000 C   0  0  0  0  0  0  0  0  0  0  0  0
  186.0920  172.6430  136.2070 C   0  0  0  0  0  0  0  0  0  0  0  0
  187.0630  178.6360  137.4620 O   0  0  0  0  0  0  0  0  0  0  0  0
  187.0790  173.4710  136.4620 C   0  0  0  0  0  0  0  0  0  0  0  0
  184.9820  172.4020  137.1880 C   0  0  1  0  0  3  0  0  0  0  0  0
  191.9440  176.1810  139.4240 N   0  0  0  0  0  0  0  0  0  0  0  0
  186.9210  175.7440  137.5780 C   0  0  0  0  0  0  0  0  0  0  0  0
  186.2540  173.7400  138.7520 O   0  0  0  0  0  0  0  0  0  0  0  0
  190.3020  177.5760  138.6040 C   0  0  0  0  0  0  0  0  0  0  0  0
  189.8110  176.0620  136.7190 N   0  0  0  0  0  0  0  0  0  0  0  0
  191.9870  174.3810  137.7010 C   0  0  0  0  0  2  0  0  0  0  0  0
  189.1760  178.5750  138.5650 C   0  0  0  0  0  2  0  0  0  0  0  0
  190.0200  174.7570  136.1510 C   0  0  0  0  0  0  0  0  0  0  0  0
  187.8930  177.9500  138.1170 C   0  0  0  0  0  0  0  0  0  0  0  0
  187.6480  176.6030  138.4090 O   0  0  0  0  0  0  0  0  0  0  0  0
  189.0680  174.3310  135.0710 C   0  0  0  0  0  2  0  0  0  0  0  0
  188.1360  173.2990  135.5170 N   0  0  0  0  0  0  0  0  0  0  0  0
  186.1380  176.1910  136.6990 O   0  0  0  0  0  0  0  0  0  0  0  0
  187.6950  172.2560  134.5940 C   0  0  0  0  0  3  0  0  0  0  0  0
  184.9570  173.5410  138.2160 C   0  0  0  0  0  2  0  0  0  0  0  0
  186.3970  171.8090  135.0980 N   0  0  0  0  0  0  0  0  0  0  0  0
  191.5850  175.7000  138.2780 C   0  0  0  0  0  0  0  0  0  0  0  0
  191.1400  177.3590  139.6240 C   0  0  0  0  0  0  0  0  0  0  0  0
  187.1160  174.2690  137.7510 C   0  0  1  0  0  3  0  0  0  0  0  0
  181.7070  170.7660  136.0300 C   0  0  0  0  0  2  0  0  0  0  0  0
  183.6470  172.2200  136.5290 C   0  0  0  0  0  0  0  0  0  0  0  0
  181.4610  171.6430  134.8010 C   0  0  0  0  0  2  0  0  0  0  0  0
  183.0870  171.0030  136.5760 C   0  0  0  0  0  3  0  0  0  0  0  0
  181.8610  173.0650  135.0840 C   0  0  0  0  0  3  0  0  0  0  0  0
  182.9210  173.3400  135.8650 C   0  0  0  0  0  0  0  0  0  0  0  0
  183.3390  174.6610  136.0670 O   0  0  0  0  0  0  0  0  0  0  0  0
  182.4960  175.7790  135.8080 C   0  0  0  0  0  2  0  0  0  0  0  0
  181.4600  175.9050  136.9060 C   0  0  0  0  0  2  0  0  0  0  0  0
  181.8660  177.3050  137.9870 P   0  0  2  0  0  0  0  0  0  0  0  0
  180.9370  178.4590  137.6710 O   0  0  0  0  0  0  0  0  0  0  0  0
  183.4680  177.7780  137.7260 O   0  0  0  0  0  1  0  0  0  0  0  0
  181.6710  176.8190  139.6020 O   0  0  0  0  0  0  0  0  0  0  0  0
  180.5960  175.9270  139.5990 C   0  0  2  0  0  3  0  0  0  0  0  0
  179.3430  176.6700  139.6610 C   0  0  0  0  0  2  0  0  0  0  0  0
  179.8810  176.0410  140.8780 N   0  0  0  0  0  2  0  0  0  0  0  0
  191.3840  171.5800  135.5900 N   0  0  0  0  0  0  0  0  0  0  0  0
  191.2250  172.6350  136.0400 C   0  0  0  0  0  0  0  0  0  0  0  0
  191.4170  177.4930  142.0510 C   0  0  0  0  0  3  0  0  0  0  0  0
  191.0560  178.0640  140.9070 C   0  0  0  0  0  3  0  0  0  0  0  0
  191.2090  178.1770  143.3360 C   0  0  0  0  0  0  0  0  0  0  0  0
  191.9900  179.1070  143.6790 O   0  0  0  0  0  0  0  0  0  0  0  0
  187.8490  177.2610  145.8310 C   0  0  0  0  0  3  0  0  0  0  0  0
  190.0620  177.8390  144.2010 C   0  0  0  0  0  0  0  0  0  0  0  0
  190.2510  177.3130  145.4880 C   0  0  0  0  0  3  0  0  0  0  0  0
  188.7580  178.0620  143.7390 C   0  0  0  0  0  3  0  0  0  0  0  0
  187.6470  177.7880  144.5500 C   0  0  0  0  0  0  0  0  0  0  0  0
  189.1470  177.0260  146.2990 C   0  0  0  0  0  3  0  0  0  0  0  0
  184.9300  180.0820  144.3980 C   0  0  0  0  0  2  0  0  0  0  0  0
  184.7960  179.7930  142.6180 S   0  0  0  0  0  0  0  0  0  0  0  0
  186.2580  178.7250  142.7090 C   0  0  1  0  0  3  0  0  0  0  0  0
  186.2440  178.0000  144.0480 C   0  0  2  0  0  3  0  0  0  0  0  0
  185.3890  178.7910  145.0440 C   0  0  2  0  0  3  0  0  0  0  0  0
  185.1930  178.1860  140.7010 C   0  0  0  0  0  1  0  0  0  0  0  0
  186.2220  177.7500  141.6300 N   0  0  0  0  0  2  0  0  0  0  0  0
  184.1830  177.9770  145.4960 C   0  0  0  0  0  2  0  0  0  0  0  0
  183.0060  178.8290  145.5560 N   0  0  0  0  0  1  0  0  0  0  0  0
  1 23  1  0  0  0  0
  1 10  1  0  0  0  0
  2 12  1  0  0  0  0
  3  5  2  0  0  0  0
  3  6  1  0  0  0  0
  4 15  2  0  0  0  0
  6 27  1  6  0  0  0
  6 21  1  0  0  0  0
  7 24  1  0  0  0  0
  8 25  1  0  0  0  0
  8 16  1  0  0  0  0
 10 24  2  0  0  0  0
 11  1  2  0  0  0  0
 12 23  1  0  0  0  0
 13 10  1  0  0  0  0
 14  2  2  0  0  0  0
 14 11  1  0  0  0  0
 15 16  1  0  0  0  0
 15 13  1  0  0  0  0
 17 18  1  0  0  0  0
 17 14  1  0  0  0  0
 18  5  1  0  0  0  0
 19  8  2  0  0  0  0
 20 22  2  0  0  0  0
 20 18  1  0  0  0  0
 21  9  1  0  0  0  0
 22  3  1  0  0  0  0
 23  7  2  0  0  0  0
 24 45  1  0  0  0  0
 25  5  1  6  0  0  0
 25  9  1  0  0  0  0
 26 29  1  0  0  0  0
 27 29  2  0  0  0  0
 28 30  1  0  0  0  0
 28 26  1  0  0  0  0
 30 31  2  0  0  0  0
 31 32  1  0  0  0  0
 31 27  1  0  0  0  0
 33 32  1  0  0  0  0
 33 34  1  0  0  0  0
 34 35  1  0  0  0  0
 35 36  2  6  0  0  0
 35 38  1  0  0  0  0
 37 35  1  0  0  0  0
 39 38  1  1  0  0  0
 39 40  1  0  0  0  0
 39 41  1  0  0  0  0
 40 41  1  0  0  0  0
 42 43  3  0  0  0  0
 43  2  1  0  0  0  0
 44 46  1  0  0  0  0
 45 44  2  0  0  0  0
 46 47  2  0  0  0  0
 46 49  1  0  0  0  0
 48 53  1  0  0  0  0
 49 50  1  0  0  0  0
 50 53  2  0  0  0  0
 51 49  2  0  0  0  0
 51 52  1  0  0  0  0
 52 48  2  0  0  0  0
 54 58  1  0  0  0  0
 55 56  1  0  0  0  0
 55 54  1  0  0  0  0
 56 60  1  6  0  0  0
 56 57  1  0  0  0  0
 57 52  1  1  0  0  0
 57 58  1  0  0  0  0
 58 61  1  6  0  0  0
 59 60  1  0  0  0  0
 61 62  1  0  0  0  0
M  END
>  <MODEL>
7

>  <REMARK>
 VINA RESULT:      -4.0      4.213      9.839
  Name = 
  14 active torsions:
  status: ('A' for Active; 'I' for Inactive)
    1  A    between atoms: P_1  and  O_6
    2  A    between atoms: P_1  and  C_60
    3  A    between atoms: O_6  and  C_15
    4  A    between atoms: C_8  and  C_10
    5  A    between atoms: C_9  and  C_11
    6  A    between atoms: C_11  and  C_14
    7  A    between atoms: C_18  and  C_26
    8  A    between atoms: O_29  and  C_44
    9  A    between atoms: O_29  and  C_61
   10  A    between atoms: C_30  and  C_55
   11  A    between atoms: C_36  and  N_49
   12  A    between atoms: C_43  and  C_47
   13  A    between atoms: C_44  and  C_60
   14  A    between atoms: C_57  and  C_58
                            x       y       z     vdW  Elec       q    Type
                         _______ _______ _______ _____ _____    ______ ____

>  <TORSDO>
F 14

$$$$
