=
 OpenBabel11032420073D

 59 66  0  0  1  0  0  0  0  0999 V2000
  190.9850  176.4640  138.8310 C   0  0  0  0  0  2  0  0  0  0  0  0
  187.4020  178.3660  137.4360 C   0  0  0  0  0  3  0  0  0  0  0  0
  188.3120  177.5470  137.9530 C   0  0  2  0  0  3  0  0  0  0  0  0
  190.0460  177.1270  139.7740 C   0  0  0  0  0  0  0  0  0  0  0  0
  187.9690  176.8170  135.8170 C   0  0  0  0  0  3  0  0  0  0  0  0
  188.6780  176.5720  136.9100 C   0  0  0  0  0  0  0  0  0  0  0  0
  187.0830  177.9920  136.0310 C   0  0  0  0  0  3  0  0  0  0  0  0
  189.7010  175.4620  136.9370 C   0  0  2  0  0  3  0  0  0  0  0  0
  189.6850  177.8780  142.0560 C   0  0  0  0  0  0  0  0  0  0  0  0
  187.9850  178.2880  140.3600 C   0  0  0  0  0  0  0  0  0  0  0  0
  188.4530  178.4070  141.6780 C   0  0  0  0  0  3  0  0  0  0  0  0
  188.7880  177.6440  139.3750 C   0  0  0  0  0  0  0  0  0  0  0  0
  190.4730  177.2400  141.0990 C   0  0  0  0  0  3  0  0  0  0  0  0
  190.3490  175.2010  138.2890 C   0  0  0  0  0  2  0  0  0  0  0  0
  191.7850  174.6780  135.7420 N   0  0  0  0  0  2  0  0  0  0  0  0
  190.6460  176.5820  135.0380 O   0  0  0  0  0  0  0  0  0  0  0  0
  190.7260  175.6250  135.8540 C   0  0  0  0  0  0  0  0  0  0  0  0
  192.5920  174.6370  134.5960 N   0  0  0  0  0  2  0  0  0  0  0  0
  196.2000  173.9640  137.4930 C   0  0  0  0  0  2  0  0  0  0  0  0
  196.3190  173.9940  134.5940 C   0  0  0  0  0  2  0  0  0  0  0  0
  194.7410  175.9030  136.8820 O   0  0  0  0  0  0  0  0  0  0  0  0
  197.5350  174.5310  135.3590 C   0  0  0  0  0  2  0  0  0  0  0  0
  197.3160  174.7940  136.8560 C   0  0  0  0  0  2  0  0  0  0  0  0
  195.1020  176.1070  135.5150 C   0  0  0  0  0  2  0  0  0  0  0  0
  193.8300  173.6500  136.4440 C   0  0  2  0  0  3  0  0  0  0  0  0
  193.8480  173.9860  134.9500 C   0  0  2  0  0  3  0  0  0  0  0  0
  195.0500  174.8660  134.5960 C   0  0  2  0  0  3  0  0  0  0  0  0
  194.7800  174.5390  137.2760 C   0  0  1  0  0  3  0  0  0  0  0  0
  193.4770  171.5200  135.2350 S   0  0  0  0  0  1  0  0  0  0  0  0
  194.0920  172.2930  136.6410 O   0  0  0  0  0  0  0  0  0  0  0  0
  190.1530  177.9890  143.4460 C   0  0  0  0  0  0  0  0  0  0  0  0
  191.3500  177.7150  143.7340 O   0  0  0  0  0  0  0  0  0  0  0  0
  189.2590  178.3850  144.4450 O   0  0  0  0  0  0  0  0  0  0  0  0
  188.9480  177.5590  145.5660 C   0  0  2  0  0  3  0  0  0  0  0  0
  186.6200  176.8960  146.0140 O   0  0  0  0  0  0  0  0  0  0  0  0
  186.3880  178.1260  145.3600 C   0  0  1  0  0  0  0  0  0  0  0  0
  186.4970  177.9940  143.9870 F   0  0  0  0  0  0  0  0  0  0  0  0
  185.1670  178.8280  145.9250 C   0  0  0  0  0  1  0  0  0  0  0  0
  187.5900  177.9030  146.2100 C   0  0  2  0  0  0  0  0  0  0  0  0
  187.8190  177.3820  148.5380 O   0  0  0  0  0  1  0  0  0  0  0  0
  187.5740  178.4240  147.6410 C   0  0  0  0  0  2  0  0  0  0  0  0
  190.7000  176.3670  146.6980 O   0  0  0  0  0  1  0  0  0  0  0  0
  190.0760  177.6130  146.5890 C   0  0  0  0  0  2  0  0  0  0  0  0
  186.7180  178.7870  140.0250 O   0  0  0  0  0  0  0  0  0  0  0  0
  185.6260  178.8820  140.9350 C   0  0  0  0  0  2  0  0  0  0  0  0
  184.2970  178.9610  140.1930 C   0  0  0  0  0  2  0  0  0  0  0  0
  183.7670  177.6800  140.0000 O   0  0  0  0  0  0  0  0  0  0  0  0
  182.6530  179.2060  138.5000 C   0  0  0  0  0  2  0  0  0  0  0  0
  180.2400  181.5920  139.5860 O   0  0  0  0  0  0  0  0  0  0  0  0
  181.2070  179.6000  140.1360 C   0  0  2  0  0  3  0  0  0  0  0  0
  182.6060  177.8460  139.2380 C   0  0  2  0  0  3  0  0  0  0  0  0
  181.1960  181.2390  138.5800 C   0  0  1  0  0  3  0  0  0  0  0  0
  179.4050  180.5530  141.5900 C   0  0  0  0  0  2  0  0  0  0  0  0
  180.1690  180.5620  140.5070 C   0  0  0  0  0  0  0  0  0  0  0  0
  181.3500  179.7890  138.7210 N   0  0  1  0  0  0  0  0  0  0  0  0
  181.1430  177.8350  140.3750 S   0  0  0  0  0  0  0  0  0  0  0  0
  180.6150  181.5780  137.2110 C   0  0  0  0  0  2  0  0  0  0  0  0
  180.6780  183.0720  136.9250 C   0  0  0  0  0  2  0  0  0  0  0  0
  180.8680  183.3210  135.4400 C   0  0  0  0  0  1  0  0  0  0  0  0
  1  4  1  0  0  0  0
  3  2  1  1  0  0  0
  3 12  1  0  0  0  0
  4 13  1  0  0  0  0
  5  7  1  0  0  0  0
  5  6  2  0  0  0  0
  6  8  1  0  0  0  0
  6  3  1  0  0  0  0
  7  2  2  0  0  0  0
  8 17  1  6  0  0  0
  8 14  1  0  0  0  0
  9 31  1  0  0  0  0
 10 11  2  0  0  0  0
 11  9  1  0  0  0  0
 12  4  2  0  0  0  0
 12 10  1  0  0  0  0
 13  9  2  0  0  0  0
 14  1  1  0  0  0  0
 15 17  1  0  0  0  0
 16 17  2  0  0  0  0
 18 15  1  0  0  0  0
 20 22  1  0  0  0  0
 21 28  1  0  0  0  0
 22 23  1  0  0  0  0
 23 19  1  0  0  0  0
 24 21  1  0  0  0  0
 25 30  1  6  0  0  0
 25 28  1  0  0  0  0
 26 18  1  1  0  0  0
 26 25  1  0  0  0  0
 27 20  1  1  0  0  0
 27 26  1  0  0  0  0
 27 24  1  0  0  0  0
 28 19  1  6  0  0  0
 29 30  1  0  0  0  0
 31 32  2  0  0  0  0
 31 33  1  0  0  0  0
 33 34  1  0  0  0  0
 34 39  1  0  0  0  0
 34 43  1  1  0  0  0
 35 39  1  0  0  0  0
 36 38  1  1  0  0  0
 36 35  1  0  0  0  0
 36 39  1  0  0  0  0
 37 36  1  0  0  0  0
 39 41  1  1  0  0  0
 41 40  1  0  0  0  0
 43 42  1  0  0  0  0
 44 10  1  0  0  0  0
 44 45  1  0  0  0  0
 46 45  1  0  0  0  0
 47 46  1  0  0  0  0
 48 51  1  0  0  0  0
 49 54  1  0  0  0  0
 50 56  1  6  0  0  0
 50 54  1  0  0  0  0
 51 47  1  1  0  0  0
 51 56  1  0  0  0  0
 52 57  1  6  0  0  0
 52 55  1  0  0  0  0
 52 49  1  0  0  0  0
 54 53  2  0  0  0  0
 55 48  1  1  0  0  0
 55 50  1  0  0  0  0
 58 57  1  0  0  0  0
 59 58  1  0  0  0  0
M  END
>  <MODEL>
1

>  <REMARK>
 VINA RESULT:      -8.2      0.000      0.000
  Name = 
  17 active torsions:
  status: ('A' for Active; 'I' for Inactive)
    1  A    between atoms: C_4  and  C_19
    2  A    between atoms: C_4  and  O_20
    3  A    between atoms: C_4  and  C_54
    4  A    between atoms: C_6  and  C_28
    5  A    between atoms: C_6  and  C_30
    6  A    between atoms: N_7  and  N_59
    7  A    between atoms: C_10  and  O_20
    8  A    between atoms: C_10  and  C_36
    9  A    between atoms: C_14  and  C_54
   10  A    between atoms: C_27  and  O_58
   11  A    between atoms: C_32  and  O_38
   12  A    between atoms: C_35  and  C_45
   13  A    between atoms: C_39  and  O_46
   14  A    between atoms: C_40  and  N_59
   15  A    between atoms: O_46  and  C_56
   16  A    between atoms: C_52  and  C_56
   17  A    between atoms: C_52  and  O_58
                            x       y       z     vdW  Elec       q    Type
                         _______ _______ _______ _____ _____    ______ ____

>  <TORSDO>
F 17

$$$$
=
 OpenBabel11032420073D

 59 66  0  0  1  0  0  0  0  0999 V2000
  191.0760  176.8860  139.0650 C   0  0  0  0  0  2  0  0  0  0  0  0
  187.0550  178.1650  138.2910 C   0  0  0  0  0  3  0  0  0  0  0  0
  188.1570  177.5060  138.6340 C   0  0  2  0  0  3  0  0  0  0  0  0
  190.1920  177.3590  140.1630 C   0  0  0  0  0  0  0  0  0  0  0  0
  187.6250  176.7680  136.5390 C   0  0  0  0  0  3  0  0  0  0  0  0
  188.5210  176.6300  137.5060 C   0  0  0  0  0  0  0  0  0  0  0  0
  186.5960  177.7680  136.9310 C   0  0  0  0  0  3  0  0  0  0  0  0
  189.7090  175.7130  137.3360 C   0  0  2  0  0  3  0  0  0  0  0  0
  190.0570  177.9930  142.5040 C   0  0  0  0  0  0  0  0  0  0  0  0
  188.0770  178.1350  141.0930 C   0  0  0  0  0  0  0  0  0  0  0  0
  188.7110  178.3090  142.3320 C   0  0  0  0  0  3  0  0  0  0  0  0
  188.8190  177.6580  139.9740 C   0  0  0  0  0  0  0  0  0  0  0  0
  190.7880  177.5190  141.4160 C   0  0  0  0  0  3  0  0  0  0  0  0
  190.5870  175.5420  138.5660 C   0  0  0  0  0  2  0  0  0  0  0  0
  191.7160  175.3550  135.8440 N   0  0  0  0  0  2  0  0  0  0  0  0
  190.1320  176.9870  135.3470 O   0  0  0  0  0  0  0  0  0  0  0  0
  190.5170  176.0710  136.1230 C   0  0  0  0  0  0  0  0  0  0  0  0
  192.3450  175.4690  134.5950 N   0  0  0  0  0  2  0  0  0  0  0  0
  195.8030  173.5190  137.0650 C   0  0  0  0  0  2  0  0  0  0  0  0
  196.1170  175.2400  134.7510 C   0  0  0  0  0  2  0  0  0  0  0  0
  194.1240  175.3300  137.4690 O   0  0  0  0  0  0  0  0  0  0  0  0
  197.1870  175.3240  135.8460 C   0  0  0  0  0  2  0  0  0  0  0  0
  196.8290  174.6480  137.1780 C   0  0  0  0  0  2  0  0  0  0  0  0
  194.5460  176.3190  136.5290 C   0  0  0  0  0  2  0  0  0  0  0  0
  193.5820  173.6910  135.7040 C   0  0  2  0  0  3  0  0  0  0  0  0
  193.6540  174.8340  134.6880 C   0  0  2  0  0  3  0  0  0  0  0  0
  194.7380  175.8450  135.0700 C   0  0  2  0  0  3  0  0  0  0  0  0
  194.3330  174.0000  137.0170 C   0  0  1  0  0  3  0  0  0  0  0  0
  192.8890  171.3160  135.6490 S   0  0  0  0  0  1  0  0  0  0  0  0
  194.0240  172.4980  135.1290 O   0  0  0  0  0  0  0  0  0  0  0  0
  190.7040  178.1580  143.8150 C   0  0  0  0  0  0  0  0  0  0  0  0
  191.9510  178.0140  143.9270 O   0  0  0  0  0  0  0  0  0  0  0  0
  189.9240  178.4600  144.9360 O   0  0  0  0  0  0  0  0  0  0  0  0
  189.5400  177.4730  145.8910 C   0  0  2  0  0  3  0  0  0  0  0  0
  187.4010  176.8230  146.9210 O   0  0  0  0  0  0  0  0  0  0  0  0
  186.9530  177.8890  146.1110 C   0  0  1  0  0  0  0  0  0  0  0  0
  186.8040  177.4930  144.7940 F   0  0  0  0  0  0  0  0  0  0  0  0
  185.8130  178.6430  146.7730 C   0  0  0  0  0  1  0  0  0  0  0  0
  188.3100  177.8840  146.7230 C   0  0  2  0  0  0  0  0  0  0  0  0
  188.2430  177.8870  149.1180 O   0  0  0  0  0  1  0  0  0  0  0  0
  188.5310  178.6780  148.0040 C   0  0  0  0  0  2  0  0  0  0  0  0
  190.5160  175.8800  147.4030 O   0  0  0  0  0  1  0  0  0  0  0  0
  190.7220  177.1170  146.7850 C   0  0  0  0  0  2  0  0  0  0  0  0
  186.7080  178.4130  140.9670 O   0  0  0  0  0  0  0  0  0  0  0  0
  185.9170  179.0290  141.9800 C   0  0  0  0  0  2  0  0  0  0  0  0
  184.4300  178.8510  141.7010 C   0  0  0  0  0  2  0  0  0  0  0  0
  184.1510  179.1020  140.3520 O   0  0  0  0  0  0  0  0  0  0  0  0
  183.4410  177.3980  138.8000 C   0  0  0  0  0  2  0  0  0  0  0  0
  181.6350  178.1140  135.8120 O   0  0  0  0  0  0  0  0  0  0  0  0
  182.1060  178.9220  137.8940 C   0  0  2  0  0  3  0  0  0  0  0  0
  183.0700  178.2820  140.0150 C   0  0  2  0  0  3  0  0  0  0  0  0
  182.4950  177.1930  136.4920 C   0  0  1  0  0  3  0  0  0  0  0  0
  180.5580  180.1870  136.3880 C   0  0  0  0  0  2  0  0  0  0  0  0
  181.3160  179.1420  136.6830 C   0  0  0  0  0  0  0  0  0  0  0  0
  182.3060  177.5010  137.9110 N   0  0  1  0  0  0  0  0  0  0  0  0
  181.6310  179.3540  139.5560 S   0  0  0  0  0  0  0  0  0  0  0  0
  182.0260  175.7720  136.1930 C   0  0  0  0  0  2  0  0  0  0  0  0
  180.9900  175.2970  137.2020 C   0  0  0  0  0  2  0  0  0  0  0  0
  179.5940  175.3940  136.6160 C   0  0  0  0  0  1  0  0  0  0  0  0
  1  4  1  0  0  0  0
  3  2  1  1  0  0  0
  3 12  1  0  0  0  0
  4 13  1  0  0  0  0
  5  7  1  0  0  0  0
  5  6  2  0  0  0  0
  6  3  1  0  0  0  0
  7  2  2  0  0  0  0
  8 17  1  6  0  0  0
  8  6  1  0  0  0  0
  8 14  1  0  0  0  0
  9 31  1  0  0  0  0
 10 11  2  0  0  0  0
 11  9  1  0  0  0  0
 12  4  2  0  0  0  0
 12 10  1  0  0  0  0
 13  9  2  0  0  0  0
 14  1  1  0  0  0  0
 15 17  1  0  0  0  0
 16 17  2  0  0  0  0
 18 15  1  0  0  0  0
 19 23  1  0  0  0  0
 20 22  1  0  0  0  0
 22 23  1  0  0  0  0
 24 21  1  0  0  0  0
 25 30  1  6  0  0  0
 25 28  1  0  0  0  0
 26 18  1  1  0  0  0
 26 27  1  0  0  0  0
 26 25  1  0  0  0  0
 27 20  1  1  0  0  0
 27 24  1  0  0  0  0
 28 19  1  6  0  0  0
 28 21  1  0  0  0  0
 30 29  1  0  0  0  0
 31 32  2  0  0  0  0
 31 33  1  0  0  0  0
 33 34  1  0  0  0  0
 34 39  1  0  0  0  0
 34 43  1  1  0  0  0
 36 39  1  0  0  0  0
 36 38  1  1  0  0  0
 36 35  1  0  0  0  0
 37 36  1  0  0  0  0
 39 35  1  0  0  0  0
 39 41  1  1  0  0  0
 41 40  1  0  0  0  0
 43 42  1  0  0  0  0
 44 10  1  0  0  0  0
 44 45  1  0  0  0  0
 46 45  1  0  0  0  0
 47 46  1  0  0  0  0
 48 51  1  0  0  0  0
 49 52  1  0  0  0  0
 49 54  1  0  0  0  0
 50 54  1  6  0  0  0
 50 55  1  0  0  0  0
 50 56  1  0  0  0  0
 51 47  1  6  0  0  0
 52 57  1  1  0  0  0
 52 55  1  0  0  0  0
 53 54  2  0  0  0  0
 55 48  1  1  0  0  0
 56 51  1  0  0  0  0
 57 58  1  0  0  0  0
 59 58  1  0  0  0  0
M  END
>  <MODEL>
2

>  <REMARK>
 VINA RESULT:      -7.8      1.531      2.329
  Name = 
  17 active torsions:
  status: ('A' for Active; 'I' for Inactive)
    1  A    between atoms: C_4  and  C_19
    2  A    between atoms: C_4  and  O_20
    3  A    between atoms: C_4  and  C_54
    4  A    between atoms: C_6  and  C_28
    5  A    between atoms: C_6  and  C_30
    6  A    between atoms: N_7  and  N_59
    7  A    between atoms: C_10  and  O_20
    8  A    between atoms: C_10  and  C_36
    9  A    between atoms: C_14  and  C_54
   10  A    between atoms: C_27  and  O_58
   11  A    between atoms: C_32  and  O_38
   12  A    between atoms: C_35  and  C_45
   13  A    between atoms: C_39  and  O_46
   14  A    between atoms: C_40  and  N_59
   15  A    between atoms: O_46  and  C_56
   16  A    between atoms: C_52  and  C_56
   17  A    between atoms: C_52  and  O_58
                            x       y       z     vdW  Elec       q    Type
                         _______ _______ _______ _____ _____    ______ ____

>  <TORSDO>
F 17

$$$$
=
 OpenBabel11032420073D

 59 66  0  0  1  0  0  0  0  0999 V2000
  190.8930  176.4180  138.5420 C   0  0  0  0  0  2  0  0  0  0  0  0
  187.4590  178.2180  136.7040 C   0  0  0  0  0  3  0  0  0  0  0  0
  188.3140  177.4370  137.3560 C   0  0  2  0  0  3  0  0  0  0  0  0
  189.8770  177.1450  139.3490 C   0  0  0  0  0  0  0  0  0  0  0  0
  188.1600  176.5600  135.2530 C   0  0  0  0  0  3  0  0  0  0  0  0
  188.7660  176.3920  136.4190 C   0  0  0  0  0  0  0  0  0  0  0  0
  187.2650  177.7460  135.3050 C   0  0  0  0  0  3  0  0  0  0  0  0
  189.7760  175.2870  136.6150 C   0  0  2  0  0  3  0  0  0  0  0  0
  189.3180  178.0530  141.5320 C   0  0  0  0  0  0  0  0  0  0  0  0
  187.7790  178.3440  139.6670 C   0  0  0  0  0  0  0  0  0  0  0  0
  188.1280  178.5540  141.0090 C   0  0  0  0  0  3  0  0  0  0  0  0
  188.6630  177.6330  138.8040 C   0  0  0  0  0  0  0  0  0  0  0  0
  190.1850  177.3500  140.6960 C   0  0  0  0  0  3  0  0  0  0  0  0
  190.3000  175.1210  138.0340 C   0  0  0  0  0  2  0  0  0  0  0  0
  191.9480  174.4160  135.6620 N   0  0  0  0  0  2  0  0  0  0  0  0
  190.8980  176.2780  134.7400 O   0  0  0  0  0  0  0  0  0  0  0  0
  190.8950  175.3750  135.6190 C   0  0  0  0  0  0  0  0  0  0  0  0
  192.8530  174.2970  134.5960 N   0  0  0  0  0  2  0  0  0  0  0  0
  195.7330  173.0950  138.0790 C   0  0  0  0  0  2  0  0  0  0  0  0
  196.5250  173.8840  135.4020 C   0  0  0  0  0  2  0  0  0  0  0  0
  194.2380  175.0430  137.5920 O   0  0  0  0  0  0  0  0  0  0  0  0
  197.4550  174.2700  136.5590 C   0  0  0  0  0  2  0  0  0  0  0  0
  196.8600  174.1230  137.9670 C   0  0  0  0  0  2  0  0  0  0  0  0
  194.8840  175.6150  136.4530 C   0  0  0  0  0  2  0  0  0  0  0  0
  193.7310  172.9340  136.4120 C   0  0  2  0  0  3  0  0  0  0  0  0
  194.0590  173.6480  135.0970 C   0  0  2  0  0  3  0  0  0  0  0  0
  195.1980  174.6540  135.2840 C   0  0  2  0  0  3  0  0  0  0  0  0
  194.3450  173.6270  137.6460 C   0  0  1  0  0  3  0  0  0  0  0  0
  193.3830  171.0160  134.8870 S   0  0  0  0  0  1  0  0  0  0  0  0
  194.0980  171.5890  136.3420 O   0  0  0  0  0  0  0  0  0  0  0  0
  189.6620  178.2610  142.9470 C   0  0  0  0  0  0  0  0  0  0  0  0
  190.4140  179.2160  143.2820 O   0  0  0  0  0  0  0  0  0  0  0  0
  189.1600  177.3840  143.9140 O   0  0  0  0  0  0  0  0  0  0  0  0
  188.9040  177.7890  145.2570 C   0  0  2  0  0  3  0  0  0  0  0  0
  191.1750  177.9300  146.1960 O   0  0  0  0  0  0  0  0  0  0  0  0
  191.1830  176.5830  145.7750 C   0  0  1  0  0  0  0  0  0  0  0  0
  191.4080  176.4830  144.4130 F   0  0  0  0  0  0  0  0  0  0  0  0
  192.0090  175.7180  146.7090 C   0  0  0  0  0  1  0  0  0  0  0  0
  189.9420  177.2470  146.2590 C   0  0  2  0  0  0  0  0  0  0  0  0
  189.3750  178.2260  148.3720 O   0  0  0  0  0  1  0  0  0  0  0  0
  189.5080  177.0090  147.7000 C   0  0  0  0  0  2  0  0  0  0  0  0
  186.6650  178.5340  145.7140 O   0  0  0  0  0  1  0  0  0  0  0  0
  187.4860  177.4040  145.6630 C   0  0  0  0  0  2  0  0  0  0  0  0
  186.5500  178.8170  139.1860 O   0  0  0  0  0  0  0  0  0  0  0  0
  185.3190  178.7230  139.8970 C   0  0  0  0  0  2  0  0  0  0  0  0
  184.2090  179.4780  139.1770 C   0  0  0  0  0  2  0  0  0  0  0  0
  183.4740  178.6090  138.3620 O   0  0  0  0  0  0  0  0  0  0  0  0
  183.9360  176.3160  137.7730 C   0  0  0  0  0  2  0  0  0  0  0  0
  181.3820  173.8960  137.2090 O   0  0  0  0  0  0  0  0  0  0  0  0
  181.8220  175.8660  138.2720 C   0  0  2  0  0  3  0  0  0  0  0  0
  183.6380  177.3300  138.9040 C   0  0  2  0  0  3  0  0  0  0  0  0
  182.7390  174.2760  136.9540 C   0  0  1  0  0  3  0  0  0  0  0  0
  179.5750  174.7900  138.5230 C   0  0  0  0  0  2  0  0  0  0  0  0
  180.8250  174.8130  138.0840 C   0  0  0  0  0  0  0  0  0  0  0  0
  183.0690  175.1940  138.0470 N   0  0  1  0  0  0  0  0  0  0  0  0
  182.0650  176.8350  139.7480 S   0  0  0  0  0  0  0  0  0  0  0  0
  183.6190  173.0330  137.0240 C   0  0  0  0  0  2  0  0  0  0  0  0
  184.9270  173.3080  137.7530 C   0  0  0  0  0  2  0  0  0  0  0  0
  186.1030  172.7850  136.9490 C   0  0  0  0  0  1  0  0  0  0  0  0
  1  4  1  0  0  0  0
  3  2  1  1  0  0  0
  3 12  1  0  0  0  0
  4 13  1  0  0  0  0
  5  7  1  0  0  0  0
  5  6  2  0  0  0  0
  6  8  1  0  0  0  0
  6  3  1  0  0  0  0
  7  2  2  0  0  0  0
  8 17  1  6  0  0  0
  8 14  1  0  0  0  0
  9 31  1  0  0  0  0
 10 11  2  0  0  0  0
 11  9  1  0  0  0  0
 12  4  2  0  0  0  0
 12 10  1  0  0  0  0
 13  9  2  0  0  0  0
 14  1  1  0  0  0  0
 16 17  2  0  0  0  0
 17 15  1  0  0  0  0
 18 15  1  0  0  0  0
 20 22  1  0  0  0  0
 21 28  1  0  0  0  0
 22 23  1  0  0  0  0
 23 19  1  0  0  0  0
 24 21  1  0  0  0  0
 25 30  1  6  0  0  0
 25 28  1  0  0  0  0
 26 18  1  1  0  0  0
 26 27  1  0  0  0  0
 26 25  1  0  0  0  0
 27 20  1  1  0  0  0
 27 24  1  0  0  0  0
 28 19  1  6  0  0  0
 29 30  1  0  0  0  0
 31 32  2  0  0  0  0
 31 33  1  0  0  0  0
 33 34  1  0  0  0  0
 34 43  1  1  0  0  0
 34 39  1  0  0  0  0
 35 39  1  0  0  0  0
 36 35  1  0  0  0  0
 36 39  1  0  0  0  0
 36 38  1  1  0  0  0
 37 36  1  0  0  0  0
 39 41  1  1  0  0  0
 41 40  1  0  0  0  0
 43 42  1  0  0  0  0
 44 10  1  0  0  0  0
 44 45  1  0  0  0  0
 46 45  1  0  0  0  0
 47 46  1  0  0  0  0
 48 51  1  0  0  0  0
 49 54  1  0  0  0  0
 50 54  1  1  0  0  0
 50 56  1  0  0  0  0
 51 47  1  6  0  0  0
 51 56  1  0  0  0  0
 52 57  1  1  0  0  0
 52 49  1  0  0  0  0
 52 55  1  0  0  0  0
 54 53  2  0  0  0  0
 55 48  1  6  0  0  0
 55 50  1  0  0  0  0
 57 58  1  0  0  0  0
 59 58  1  0  0  0  0
M  END
>  <MODEL>
3

>  <REMARK>
 VINA RESULT:      -7.6      2.228      3.682
  Name = 
  17 active torsions:
  status: ('A' for Active; 'I' for Inactive)
    1  A    between atoms: C_4  and  C_19
    2  A    between atoms: C_4  and  O_20
    3  A    between atoms: C_4  and  C_54
    4  A    between atoms: C_6  and  C_28
    5  A    between atoms: C_6  and  C_30
    6  A    between atoms: N_7  and  N_59
    7  A    between atoms: C_10  and  O_20
    8  A    between atoms: C_10  and  C_36
    9  A    between atoms: C_14  and  C_54
   10  A    between atoms: C_27  and  O_58
   11  A    between atoms: C_32  and  O_38
   12  A    between atoms: C_35  and  C_45
   13  A    between atoms: C_39  and  O_46
   14  A    between atoms: C_40  and  N_59
   15  A    between atoms: O_46  and  C_56
   16  A    between atoms: C_52  and  C_56
   17  A    between atoms: C_52  and  O_58
                            x       y       z     vdW  Elec       q    Type
                         _______ _______ _______ _____ _____    ______ ____

>  <TORSDO>
F 17

$$$$
=
 OpenBabel11032420073D

 59 66  0  0  1  0  0  0  0  0999 V2000
  186.3540  178.0260  142.2180 C   0  0  0  0  0  2  0  0  0  0  0  0
  187.9530  177.1270  138.3400 C   0  0  0  0  0  3  0  0  0  0  0  0
  187.5570  177.6980  139.4720 C   0  0  2  0  0  3  0  0  0  0  0  0
  187.8170  177.8720  142.0020 C   0  0  0  0  0  0  0  0  0  0  0  0
  185.8900  178.1010  137.9650 C   0  0  0  0  0  3  0  0  0  0  0  0
  186.2360  178.3030  139.2280 C   0  0  0  0  0  0  0  0  0  0  0  0
  186.9440  177.3220  137.2620 C   0  0  0  0  0  3  0  0  0  0  0  0
  185.3090  179.0220  140.1800 C   0  0  2  0  0  3  0  0  0  0  0  0
  189.9970  177.6970  143.0600 C   0  0  0  0  0  0  0  0  0  0  0  0
  189.8090  177.5420  140.6370 C   0  0  0  0  0  0  0  0  0  0  0  0
  190.5820  177.5220  141.8080 C   0  0  0  0  0  3  0  0  0  0  0  0
  188.3970  177.7140  140.7190 C   0  0  0  0  0  0  0  0  0  0  0  0
  188.6180  177.8720  143.1480 C   0  0  0  0  0  3  0  0  0  0  0  0
  185.8790  179.3060  141.5620 C   0  0  0  0  0  2  0  0  0  0  0  0
  183.5200  177.5500  139.1720 N   0  0  0  0  0  2  0  0  0  0  0  0
  183.2500  178.4850  141.2870 O   0  0  0  0  0  0  0  0  0  0  0  0
  183.9680  178.3530  140.2600 C   0  0  0  0  0  0  0  0  0  0  0  0
  182.4150  176.6980  139.3180 N   0  0  0  0  0  2  0  0  0  0  0  0
  178.9340  175.8180  136.3210 C   0  0  0  0  0  2  0  0  0  0  0  0
  181.5220  174.5070  136.3670 C   0  0  0  0  0  2  0  0  0  0  0  0
  179.3310  175.4230  138.7600 O   0  0  0  0  0  0  0  0  0  0  0  0
  180.3120  173.6700  135.9360 C   0  0  0  0  0  2  0  0  0  0  0  0
  178.9370  174.2920  136.2250 C   0  0  0  0  0  2  0  0  0  0  0  0
  180.4040  174.4820  138.7220 C   0  0  0  0  0  2  0  0  0  0  0  0
  180.6730  177.1990  137.6940 C   0  0  2  0  0  3  0  0  0  0  0  0
  181.9220  176.3650  137.9870 C   0  0  2  0  0  3  0  0  0  0  0  0
  181.6280  174.8670  137.8600 C   0  0  2  0  0  3  0  0  0  0  0  0
  179.3730  176.3670  137.7000 C   0  0  1  0  0  3  0  0  0  0  0  0
  180.3230  179.5060  136.8670 S   0  0  0  0  0  1  0  0  0  0  0  0
  180.8260  177.9040  136.4980 O   0  0  0  0  0  0  0  0  0  0  0  0
  190.8220  177.6970  144.2790 C   0  0  0  0  0  0  0  0  0  0  0  0
  192.0410  177.3800  144.2170 O   0  0  0  0  0  0  0  0  0  0  0  0
  190.2410  178.0360  145.5040 O   0  0  0  0  0  0  0  0  0  0  0  0
  189.5570  177.0840  146.3180 C   0  0  2  0  0  3  0  0  0  0  0  0
  187.4020  176.7010  147.4450 O   0  0  0  0  0  0  0  0  0  0  0  0
  186.9820  177.6030  146.4430 C   0  0  1  0  0  0  0  0  0  0  0  0
  186.8220  176.9640  145.2260 F   0  0  0  0  0  0  0  0  0  0  0  0
  185.8640  178.4990  146.9420 C   0  0  0  0  0  1  0  0  0  0  0  0
  188.3390  177.6800  147.0500 C   0  0  2  0  0  0  0  0  0  0  0  0
  188.4090  178.1050  149.4070 O   0  0  0  0  0  1  0  0  0  0  0  0
  188.5820  178.6990  148.1550 C   0  0  0  0  0  2  0  0  0  0  0  0
  191.7840  177.0400  147.2200 O   0  0  0  0  0  1  0  0  0  0  0  0
  190.5280  176.4320  147.2950 C   0  0  0  0  0  2  0  0  0  0  0  0
  190.4350  177.4150  139.3890 O   0  0  0  0  0  0  0  0  0  0  0  0
  191.8230  177.1470  139.2100 C   0  0  0  0  0  2  0  0  0  0  0  0
  192.0810  176.4440  137.8830 C   0  0  0  0  0  2  0  0  0  0  0  0
  193.4220  176.5810  137.5070 O   0  0  0  0  0  0  0  0  0  0  0  0
  193.9270  174.3480  136.7480 C   0  0  0  0  0  2  0  0  0  0  0  0
  197.2140  173.2800  135.8820 O   0  0  0  0  0  0  0  0  0  0  0  0
  195.8910  175.1290  136.0730 C   0  0  2  0  0  3  0  0  0  0  0  0
  193.5890  175.8060  136.3550 C   0  0  2  0  0  3  0  0  0  0  0  0
  195.9080  172.8810  136.3110 C   0  0  1  0  0  3  0  0  0  0  0  0
  198.2480  175.3630  135.2640 C   0  0  0  0  0  2  0  0  0  0  0  0
  197.2040  174.6450  135.6500 C   0  0  0  0  0  0  0  0  0  0  0  0
  195.0390  173.9870  135.9000 N   0  0  1  0  0  0  0  0  0  0  0  0
  194.9950  176.5000  135.3700 S   0  0  0  0  0  0  0  0  0  0  0  0
  195.5180  171.6030  135.5750 C   0  0  0  0  0  2  0  0  0  0  0  0
  195.7970  170.3630  136.4140 C   0  0  0  0  0  2  0  0  0  0  0  0
  195.2280  170.5280  137.8100 C   0  0  0  0  0  1  0  0  0  0  0  0
  3  2  1  6  0  0  0
  3 12  1  0  0  0  0
  4  1  1  0  0  0  0
  4 13  1  0  0  0  0
  5  6  2  0  0  0  0
  6  3  1  0  0  0  0
  6  8  1  0  0  0  0
  7  5  1  0  0  0  0
  7  2  2  0  0  0  0
  8 17  1  1  0  0  0
  8 14  1  0  0  0  0
  9 13  2  0  0  0  0
  9 31  1  0  0  0  0
 10 12  1  0  0  0  0
 10 11  2  0  0  0  0
 11  9  1  0  0  0  0
 12  4  2  0  0  0  0
 14  1  1  0  0  0  0
 15 18  1  0  0  0  0
 15 17  1  0  0  0  0
 17 16  2  0  0  0  0
 22 23  1  0  0  0  0
 22 20  1  0  0  0  0
 23 19  1  0  0  0  0
 24 21  1  0  0  0  0
 25 30  1  6  0  0  0
 25 28  1  0  0  0  0
 25 26  1  0  0  0  0
 26 18  1  1  0  0  0
 27 20  1  6  0  0  0
 27 26  1  0  0  0  0
 27 24  1  0  0  0  0
 28 19  1  6  0  0  0
 28 21  1  0  0  0  0
 30 29  1  0  0  0  0
 31 33  1  0  0  0  0
 32 31  2  0  0  0  0
 33 34  1  0  0  0  0
 34 39  1  0  0  0  0
 34 43  1  1  0  0  0
 36 38  1  1  0  0  0
 36 39  1  0  0  0  0
 36 35  1  0  0  0  0
 37 36  1  0  0  0  0
 39 35  1  0  0  0  0
 39 41  1  1  0  0  0
 41 40  1  0  0  0  0
 42 43  1  0  0  0  0
 44 10  1  0  0  0  0
 45 44  1  0  0  0  0
 46 45  1  0  0  0  0
 47 46  1  0  0  0  0
 49 52  1  0  0  0  0
 50 56  1  6  0  0  0
 51 48  1  0  0  0  0
 51 47  1  1  0  0  0
 52 57  1  6  0  0  0
 53 54  2  0  0  0  0
 54 49  1  0  0  0  0
 54 50  1  0  0  0  0
 55 50  1  0  0  0  0
 55 52  1  0  0  0  0
 55 48  1  1  0  0  0
 56 51  1  0  0  0  0
 57 58  1  0  0  0  0
 58 59  1  0  0  0  0
M  END
>  <MODEL>
4

>  <REMARK>
 VINA RESULT:      -7.4      2.630     11.045
  Name = 
  17 active torsions:
  status: ('A' for Active; 'I' for Inactive)
    1  A    between atoms: C_4  and  C_19
    2  A    between atoms: C_4  and  O_20
    3  A    between atoms: C_4  and  C_54
    4  A    between atoms: C_6  and  C_28
    5  A    between atoms: C_6  and  C_30
    6  A    between atoms: N_7  and  N_59
    7  A    between atoms: C_10  and  O_20
    8  A    between atoms: C_10  and  C_36
    9  A    between atoms: C_14  and  C_54
   10  A    between atoms: C_27  and  O_58
   11  A    between atoms: C_32  and  O_38
   12  A    between atoms: C_35  and  C_45
   13  A    between atoms: C_39  and  O_46
   14  A    between atoms: C_40  and  N_59
   15  A    between atoms: O_46  and  C_56
   16  A    between atoms: C_52  and  C_56
   17  A    between atoms: C_52  and  O_58
                            x       y       z     vdW  Elec       q    Type
                         _______ _______ _______ _____ _____    ______ ____

>  <TORSDO>
F 17

$$$$
=
 OpenBabel11032420073D

 59 66  0  0  1  0  0  0  0  0999 V2000
  181.5400  178.5330  141.1690 C   0  0  0  0  0  2  0  0  0  0  0  0
  184.6400  178.0120  138.2500 C   0  0  0  0  0  3  0  0  0  0  0  0
  183.7590  178.4790  139.1290 C   0  0  2  0  0  3  0  0  0  0  0  0
  182.9760  178.5690  141.5530 C   0  0  0  0  0  0  0  0  0  0  0  0
  182.7840  178.7430  137.0810 C   0  0  0  0  0  3  0  0  0  0  0  0
  182.5740  178.9290  138.3770 C   0  0  0  0  0  0  0  0  0  0  0  0
  184.1210  178.1320  136.8590 C   0  0  0  0  0  3  0  0  0  0  0  0
  181.2630  179.4840  138.8770 C   0  0  2  0  0  3  0  0  0  0  0  0
  184.5650  178.6130  143.3900 C   0  0  0  0  0  0  0  0  0  0  0  0
  185.3690  178.5470  141.0920 C   0  0  0  0  0  0  0  0  0  0  0  0
  185.6130  178.5680  142.4740 C   0  0  0  0  0  3  0  0  0  0  0  0
  184.0300  178.5400  140.6060 C   0  0  0  0  0  0  0  0  0  0  0  0
  183.2520  178.6140  142.9220 C   0  0  0  0  0  3  0  0  0  0  0  0
  181.1990  179.7730  140.3700 C   0  0  0  0  0  2  0  0  0  0  0  0
  180.3160  177.5820  137.5100 N   0  0  0  0  0  2  0  0  0  0  0  0
  178.9390  178.8890  138.8580 O   0  0  0  0  0  0  0  0  0  0  0  0
  180.0980  178.6530  138.4240 C   0  0  0  0  0  0  0  0  0  0  0  0
  179.3180  176.6240  137.2790 N   0  0  0  0  0  2  0  0  0  0  0  0
  182.7590  173.4580  137.1950 C   0  0  0  0  0  2  0  0  0  0  0  0
  179.9200  172.9030  136.9650 C   0  0  0  0  0  2  0  0  0  0  0  0
  181.9490  175.2540  135.6510 O   0  0  0  0  0  0  0  0  0  0  0  0
  180.8840  172.0000  136.1860 C   0  0  0  0  0  2  0  0  0  0  0  0
  182.3290  172.5080  136.0750 C   0  0  0  0  0  2  0  0  0  0  0  0
  180.6640  174.7500  135.2830 C   0  0  0  0  0  2  0  0  0  0  0  0
  181.3280  175.4750  138.0300 C   0  0  2  0  0  3  0  0  0  0  0  0
  179.8630  175.3130  137.6130 C   0  0  2  0  0  3  0  0  0  0  0  0
  179.7280  174.3370  136.4410 C   0  0  2  0  0  3  0  0  0  0  0  0
  182.3200  174.9270  136.9830 C   0  0  1  0  0  3  0  0  0  0  0  0
  180.0380  175.0690  140.1030 S   0  0  0  0  0  1  0  0  0  0  0  0
  181.5430  174.9070  139.2880 O   0  0  0  0  0  0  0  0  0  0  0  0
  184.8350  178.6590  144.8360 C   0  0  0  0  0  0  0  0  0  0  0  0
  184.0960  179.3410  145.5960 O   0  0  0  0  0  0  0  0  0  0  0  0
  185.9240  177.9530  145.3570 O   0  0  0  0  0  0  0  0  0  0  0  0
  186.9030  178.5630  146.1950 C   0  0  2  0  0  3  0  0  0  0  0  0
  189.3270  178.6430  145.7740 O   0  0  0  0  0  0  0  0  0  0  0  0
  188.9760  177.5900  144.9020 C   0  0  1  0  0  0  0  0  0  0  0  0
  188.4330  178.0720  143.7240 F   0  0  0  0  0  0  0  0  0  0  0  0
  190.0810  176.5520  144.8180 C   0  0  0  0  0  1  0  0  0  0  0  0
  188.2550  177.8220  146.1830 C   0  0  2  0  0  0  0  0  0  0  0  0
  189.4750  177.6890  148.2410 O   0  0  0  0  0  1  0  0  0  0  0  0
  188.6290  176.9730  147.3900 C   0  0  0  0  0  2  0  0  0  0  0  0
  186.1170  180.0570  147.9060 O   0  0  0  0  0  1  0  0  0  0  0  0
  186.3640  178.7130  147.6130 C   0  0  0  0  0  2  0  0  0  0  0  0
  186.4470  178.5540  140.1960 O   0  0  0  0  0  0  0  0  0  0  0  0
  187.8180  178.5580  140.5870 C   0  0  0  0  0  2  0  0  0  0  0  0
  188.7280  178.2490  139.4050 C   0  0  0  0  0  2  0  0  0  0  0  0
  190.0150  177.9260  139.8480 O   0  0  0  0  0  0  0  0  0  0  0  0
  191.7590  176.3710  139.2480 C   0  0  0  0  0  2  0  0  0  0  0  0
  192.7210  175.7280  135.8780 O   0  0  0  0  0  0  0  0  0  0  0  0
  190.9910  176.4680  137.1690 C   0  0  2  0  0  3  0  0  0  0  0  0
  190.2430  176.6010  139.4630 C   0  0  2  0  0  3  0  0  0  0  0  0
  193.1150  175.6990  137.2550 C   0  0  1  0  0  3  0  0  0  0  0  0
  190.7020  176.2770  134.6890 C   0  0  0  0  0  2  0  0  0  0  0  0
  191.3950  176.1170  135.8070 C   0  0  0  0  0  0  0  0  0  0  0  0
  191.8490  175.6650  137.9910 N   0  0  1  0  0  0  0  0  0  0  0  0
  189.3600  176.2870  137.8650 S   0  0  0  0  0  0  0  0  0  0  0  0
  193.9100  174.4230  137.5110 C   0  0  0  0  0  2  0  0  0  0  0  0
  194.9050  174.5980  138.6500 C   0  0  0  0  0  2  0  0  0  0  0  0
  196.0000  173.5500  138.5630 C   0  0  0  0  0  1  0  0  0  0  0  0
  1  4  1  0  0  0  0
  3  2  1  6  0  0  0
  3 12  1  0  0  0  0
  4 13  1  0  0  0  0
  5  6  2  0  0  0  0
  6  8  1  0  0  0  0
  6  3  1  0  0  0  0
  7  5  1  0  0  0  0
  7  2  2  0  0  0  0
  8 17  1  1  0  0  0
  8 14  1  0  0  0  0
  9 31  1  0  0  0  0
 10 11  2  0  0  0  0
 11  9  1  0  0  0  0
 12 10  1  0  0  0  0
 12  4  2  0  0  0  0
 13  9  2  0  0  0  0
 14  1  1  0  0  0  0
 15 17  1  0  0  0  0
 17 16  2  0  0  0  0
 18 15  1  0  0  0  0
 21 28  1  0  0  0  0
 22 20  1  0  0  0  0
 23 22  1  0  0  0  0
 23 19  1  0  0  0  0
 24 21  1  0  0  0  0
 25 30  1  1  0  0  0
 26 18  1  6  0  0  0
 26 25  1  0  0  0  0
 27 24  1  6  0  0  0
 27 20  1  0  0  0  0
 27 26  1  0  0  0  0
 28 19  1  6  0  0  0
 28 25  1  0  0  0  0
 30 29  1  0  0  0  0
 31 33  1  0  0  0  0
 31 32  2  0  0  0  0
 33 34  1  0  0  0  0
 34 43  1  1  0  0  0
 35 39  1  0  0  0  0
 36 38  1  6  0  0  0
 36 35  1  0  0  0  0
 36 39  1  0  0  0  0
 37 36  1  0  0  0  0
 39 34  1  0  0  0  0
 39 41  1  1  0  0  0
 41 40  1  0  0  0  0
 43 42  1  0  0  0  0
 44 45  1  0  0  0  0
 44 10  1  0  0  0  0
 46 47  1  0  0  0  0
 46 45  1  0  0  0  0
 48 51  1  0  0  0  0
 49 52  1  0  0  0  0
 50 54  1  6  0  0  0
 50 56  1  0  0  0  0
 50 55  1  0  0  0  0
 51 47  1  6  0  0  0
 52 57  1  6  0  0  0
 52 55  1  0  0  0  0
 53 54  2  0  0  0  0
 54 49  1  0  0  0  0
 55 48  1  1  0  0  0
 56 51  1  0  0  0  0
 57 58  1  0  0  0  0
 59 58  1  0  0  0  0
M  END
>  <MODEL>
5

>  <REMARK>
 VINA RESULT:      -7.4      2.911     10.121
  Name = 
  17 active torsions:
  status: ('A' for Active; 'I' for Inactive)
    1  A    between atoms: C_4  and  C_19
    2  A    between atoms: C_4  and  O_20
    3  A    between atoms: C_4  and  C_54
    4  A    between atoms: C_6  and  C_28
    5  A    between atoms: C_6  and  C_30
    6  A    between atoms: N_7  and  N_59
    7  A    between atoms: C_10  and  O_20
    8  A    between atoms: C_10  and  C_36
    9  A    between atoms: C_14  and  C_54
   10  A    between atoms: C_27  and  O_58
   11  A    between atoms: C_32  and  O_38
   12  A    between atoms: C_35  and  C_45
   13  A    between atoms: C_39  and  O_46
   14  A    between atoms: C_40  and  N_59
   15  A    between atoms: O_46  and  C_56
   16  A    between atoms: C_52  and  C_56
   17  A    between atoms: C_52  and  O_58
                            x       y       z     vdW  Elec       q    Type
                         _______ _______ _______ _____ _____    ______ ____

>  <TORSDO>
F 17

$$$$
=
 OpenBabel11032420073D

 59 66  0  0  1  0  0  0  0  0999 V2000
  183.0820  179.0690  139.8880 C   0  0  0  0  0  2  0  0  0  0  0  0
  182.5500  178.8040  144.1370 C   0  0  0  0  0  3  0  0  0  0  0  0
  182.7250  178.5710  142.8410 C   0  0  0  0  0  0  0  0  0  0  0  0
  184.2280  178.7950  140.7940 C   0  0  0  0  0  0  0  0  0  0  0  0
  180.4820  178.3490  143.2090 C   0  0  0  0  0  3  0  0  0  0  0  0
  181.4000  178.2960  142.2550 C   0  0  0  0  0  0  0  0  0  0  0  0
  181.1140  178.6860  144.5120 C   0  0  0  0  0  2  0  0  0  0  0  0
  181.0120  178.0280  140.8210 C   0  0  2  0  0  3  0  0  0  0  0  0
  186.6420  178.5860  140.9750 C   0  0  0  0  0  0  0  0  0  0  0  0
  185.2510  178.3430  142.9600 C   0  0  0  0  0  0  0  0  0  0  0  0
  186.5120  178.3730  142.3460 C   0  0  0  0  0  3  0  0  0  0  0  0
  184.0760  178.5630  142.1840 C   0  0  0  0  0  0  0  0  0  0  0  0
  185.4970  178.7950  140.2090 C   0  0  0  0  0  3  0  0  0  0  0  0
  182.1700  177.8600  139.8480 C   0  0  0  0  0  2  0  0  0  0  0  0
  180.2600  180.4170  140.4920 N   0  0  0  0  0  2  0  0  0  0  0  0
  178.9590  178.6390  139.7400 O   0  0  0  0  0  0  0  0  0  0  0  0
  180.0090  179.0260  140.3210 C   0  0  0  0  0  0  0  0  0  0  0  0
  179.4950  181.3730  139.8070 N   0  0  0  0  0  2  0  0  0  0  0  0
  181.5550  183.4700  136.1690 C   0  0  0  0  0  2  0  0  0  0  0  0
  179.2130  181.7600  136.0550 C   0  0  0  0  0  2  0  0  0  0  0  0
  180.1980  184.2280  138.1310 O   0  0  0  0  0  0  0  0  0  0  0  0
  179.2940  182.9180  135.0520 C   0  0  0  0  0  2  0  0  0  0  0  0
  180.3700  183.9750  135.3440 C   0  0  0  0  0  2  0  0  0  0  0  0
  178.9310  183.6380  137.8410 C   0  0  0  0  0  2  0  0  0  0  0  0
  181.3190  182.0380  138.3390 C   0  0  2  0  0  3  0  0  0  0  0  0
  179.9340  181.3900  138.4160 C   0  0  2  0  0  3  0  0  0  0  0  0
  178.9310  182.1250  137.5230 C   0  0  2  0  0  3  0  0  0  0  0  0
  181.2970  183.4400  137.6950 C   0  0  1  0  0  3  0  0  0  0  0  0
  181.2390  179.9620  136.9940 S   0  0  0  0  0  1  0  0  0  0  0  0
  182.2200  181.1890  137.6910 O   0  0  0  0  0  0  0  0  0  0  0  0
  187.9690  178.5920  140.3400 C   0  0  0  0  0  0  0  0  0  0  0  0
  189.0090  178.6640  141.0490 O   0  0  0  0  0  0  0  0  0  0  0  0
  188.0660  178.5310  138.9460 O   0  0  0  0  0  0  0  0  0  0  0  0
  187.5970  177.4140  138.1940 C   0  0  2  0  0  3  0  0  0  0  0  0
  188.6040  176.4600  136.1600 O   0  0  0  0  0  0  0  0  0  0  0  0
  188.4530  175.2790  136.9190 C   0  0  1  0  0  0  0  0  0  0  0  0
  187.1500  174.8160  136.8760 F   0  0  0  0  0  0  0  0  0  0  0  0
  189.5790  174.2990  136.6420 C   0  0  0  0  0  1  0  0  0  0  0  0
  188.7370  176.5920  137.5590 C   0  0  2  0  0  0  0  0  0  0  0  0
  190.9850  176.9750  136.8230 O   0  0  0  0  0  1  0  0  0  0  0  0
  190.1720  176.9110  137.9560 C   0  0  0  0  0  2  0  0  0  0  0  0
  186.8530  179.1860  136.7510 O   0  0  0  0  0  1  0  0  0  0  0  0
  186.5900  177.8710  137.1450 C   0  0  0  0  0  2  0  0  0  0  0  0
  185.1530  178.0750  144.3330 O   0  0  0  0  0  0  0  0  0  0  0  0
  185.9940  178.6540  145.3270 C   0  0  0  0  0  2  0  0  0  0  0  0
  185.8720  177.9110  146.6510 C   0  0  0  0  0  2  0  0  0  0  0  0
  187.0030  177.1190  146.8750 O   0  0  0  0  0  0  0  0  0  0  0  0
  188.7440  177.2470  145.2100 C   0  0  0  0  0  2  0  0  0  0  0  0
  192.0100  175.9070  145.6980 O   0  0  0  0  0  0  0  0  0  0  0  0
  190.1770  176.6880  146.8100 C   0  0  2  0  0  3  0  0  0  0  0  0
  188.1040  177.8810  146.4680 C   0  0  2  0  0  3  0  0  0  0  0  0
  191.0160  176.3040  144.7470 C   0  0  1  0  0  3  0  0  0  0  0  0
  192.1970  175.9600  148.0960 C   0  0  0  0  0  2  0  0  0  0  0  0
  191.5500  176.2100  146.9680 C   0  0  0  0  0  0  0  0  0  0  0  0
  190.1630  177.2380  145.4850 N   0  0  1  0  0  0  0  0  0  0  0  0
  189.3550  177.8940  147.8330 S   0  0  0  0  0  0  0  0  0  0  0  0
  191.7040  177.0200  143.5880 C   0  0  0  0  0  2  0  0  0  0  0  0
  191.0180  176.7330  142.2600 C   0  0  0  0  0  2  0  0  0  0  0  0
  191.6350  177.5660  141.1530 C   0  0  0  0  0  1  0  0  0  0  0  0
  1  4  1  0  0  0  0
  2  7  1  0  0  0  0
  3  2  2  0  0  0  0
  4 12  1  0  0  0  0
  5  7  1  0  0  0  0
  6  3  1  0  0  0  0
  6  5  2  0  0  0  0
  8 17  1  6  0  0  0
  8  6  1  0  0  0  0
  9 11  2  0  0  0  0
 10 44  1  0  0  0  0
 11 10  1  0  0  0  0
 12  3  1  0  0  0  0
 12 10  2  0  0  0  0
 13  4  2  0  0  0  0
 13  9  1  0  0  0  0
 14  1  1  0  0  0  0
 14  8  1  0  0  0  0
 16 17  2  0  0  0  0
 17 15  1  0  0  0  0
 18 15  1  0  0  0  0
 22 23  1  0  0  0  0
 22 20  1  0  0  0  0
 23 19  1  0  0  0  0
 24 21  1  0  0  0  0
 25 30  1  6  0  0  0
 25 26  1  0  0  0  0
 26 18  1  1  0  0  0
 27 20  1  6  0  0  0
 27 24  1  0  0  0  0
 27 26  1  0  0  0  0
 28 19  1  6  0  0  0
 28 21  1  0  0  0  0
 28 25  1  0  0  0  0
 29 30  1  0  0  0  0
 31  9  1  0  0  0  0
 31 32  2  0  0  0  0
 33 31  1  0  0  0  0
 34 43  1  6  0  0  0
 34 33  1  0  0  0  0
 35 36  1  0  0  0  0
 35 39  1  0  0  0  0
 36 38  1  6  0  0  0
 36 39  1  0  0  0  0
 37 36  1  0  0  0  0
 39 41  1  1  0  0  0
 39 34  1  0  0  0  0
 40 41  1  0  0  0  0
 42 43  1  0  0  0  0
 44 45  1  0  0  0  0
 45 46  1  0  0  0  0
 46 47  1  0  0  0  0
 48 51  1  0  0  0  0
 49 54  1  0  0  0  0
 50 54  1  1  0  0  0
 50 56  1  0  0  0  0
 51 47  1  1  0  0  0
 51 56  1  0  0  0  0
 52 57  1  6  0  0  0
 52 55  1  0  0  0  0
 52 49  1  0  0  0  0
 54 53  2  0  0  0  0
 55 48  1  6  0  0  0
 55 50  1  0  0  0  0
 58 57  1  0  0  0  0
 59 58  1  0  0  0  0
M  END
>  <MODEL>
6

>  <REMARK>
 VINA RESULT:      -7.2      4.207     11.767
  Name = 
  17 active torsions:
  status: ('A' for Active; 'I' for Inactive)
    1  A    between atoms: C_4  and  C_19
    2  A    between atoms: C_4  and  O_20
    3  A    between atoms: C_4  and  C_54
    4  A    between atoms: C_6  and  C_28
    5  A    between atoms: C_6  and  C_30
    6  A    between atoms: N_7  and  N_59
    7  A    between atoms: C_10  and  O_20
    8  A    between atoms: C_10  and  C_36
    9  A    between atoms: C_14  and  C_54
   10  A    between atoms: C_27  and  O_58
   11  A    between atoms: C_32  and  O_38
   12  A    between atoms: C_35  and  C_45
   13  A    between atoms: C_39  and  O_46
   14  A    between atoms: C_40  and  N_59
   15  A    between atoms: O_46  and  C_56
   16  A    between atoms: C_52  and  C_56
   17  A    between atoms: C_52  and  O_58
                            x       y       z     vdW  Elec       q    Type
                         _______ _______ _______ _____ _____    ______ ____

>  <TORSDO>
F 17

$$$$
=
 OpenBabel11032420073D

 59 66  0  0  1  0  0  0  0  0999 V2000
  187.1280  175.6010  135.4720 C   0  0  0  0  0  2  0  0  0  0  0  0
  188.1370  178.0660  138.8350 C   0  0  0  0  0  3  0  0  0  0  0  0
  187.8020  177.5800  137.6440 C   0  0  0  0  0  0  0  0  0  0  0  0
  186.0830  176.3400  136.2290 C   0  0  0  0  0  0  0  0  0  0  0  0
  190.0600  177.9120  137.5620 C   0  0  0  0  0  3  0  0  0  0  0  0
  189.0360  177.4720  136.8450 C   0  0  0  0  0  0  0  0  0  0  0  0
  189.6000  178.3320  138.9120 C   0  0  0  0  0  2  0  0  0  0  0  0
  189.2420  176.9300  135.4510 C   0  0  2  0  0  3  0  0  0  0  0  0
  183.7000  176.6680  136.5660 C   0  0  0  0  0  0  0  0  0  0  0  0
  185.2990  177.8950  137.9340 C   0  0  0  0  0  0  0  0  0  0  0  0
  183.9780  177.5730  137.5890 C   0  0  0  0  0  3  0  0  0  0  0  0
  186.3850  177.2700  137.2550 C   0  0  0  0  0  0  0  0  0  0  0  0
  184.7570  176.0590  135.8930 C   0  0  0  0  0  3  0  0  0  0  0  0
  187.9730  176.5830  134.6870 C   0  0  0  0  0  2  0  0  0  0  0  0
  191.4320  175.9250  134.6890 N   0  0  0  0  0  2  0  0  0  0  0  0
  189.9960  174.7440  136.0910 O   0  0  0  0  0  0  0  0  0  0  0  0
  190.2250  175.7970  135.4360 C   0  0  0  0  0  0  0  0  0  0  0  0
  192.4860  175.0160  134.8680 N   0  0  0  0  0  2  0  0  0  0  0  0
  196.6130  175.3720  137.0380 C   0  0  0  0  0  2  0  0  0  0  0  0
  194.0220  175.1280  138.3220 C   0  0  0  0  0  2  0  0  0  0  0  0
  195.4610  173.6200  135.6720 O   0  0  0  0  0  0  0  0  0  0  0  0
  195.2230  174.4790  139.0210 C   0  0  0  0  0  2  0  0  0  0  0  0
  196.4970  174.3530  138.1730 C   0  0  0  0  0  2  0  0  0  0  0  0
  194.3670  173.2750  136.5220 C   0  0  0  0  0  2  0  0  0  0  0  0
  194.6770  175.9430  135.3830 C   0  0  2  0  0  3  0  0  0  0  0  0
  193.3250  175.5070  135.9550 C   0  0  2  0  0  3  0  0  0  0  0  0
  193.5030  174.4450  137.0440 C   0  0  2  0  0  3  0  0  0  0  0  0
  195.8300  174.9890  135.7590 C   0  0  1  0  0  3  0  0  0  0  0  0
  196.2680  177.7250  134.7360 S   0  0  0  0  0  1  0  0  0  0  0  0
  194.9590  177.2600  135.7500 O   0  0  0  0  0  0  0  0  0  0  0  0
  182.3090  176.3570  136.1990 C   0  0  0  0  0  0  0  0  0  0  0  0
  181.4460  177.2740  136.1560 O   0  0  0  0  0  0  0  0  0  0  0  0
  181.9520  175.0360  135.9110 O   0  0  0  0  0  0  0  0  0  0  0  0
  182.1500  173.9700  136.8380 C   0  0  2  0  0  3  0  0  0  0  0  0
  183.2240  171.7830  137.1940 O   0  0  0  0  0  0  0  0  0  0  0  0
  184.3660  172.5560  136.8930 C   0  0  1  0  0  0  0  0  0  0  0  0
  184.7780  173.2940  137.9880 F   0  0  0  0  0  0  0  0  0  0  0  0
  185.4010  171.7380  136.1410 C   0  0  0  0  0  1  0  0  0  0  0  0
  183.0410  172.8430  136.2790 C   0  0  2  0  0  0  0  0  0  0  0  0
  182.1070  171.0960  134.9300 O   0  0  0  0  0  1  0  0  0  0  0  0
  182.7650  172.3260  134.8730 C   0  0  0  0  0  2  0  0  0  0  0  0
  179.9270  173.2790  136.2390 O   0  0  0  0  0  1  0  0  0  0  0  0
  180.8060  173.4310  137.3150 C   0  0  0  0  0  2  0  0  0  0  0  0
  185.5440  178.8480  138.9330 O   0  0  0  0  0  0  0  0  0  0  0  0
  185.7060  178.5390  140.3150 C   0  0  0  0  0  2  0  0  0  0  0  0
  184.3590  178.3090  140.9880 C   0  0  0  0  0  2  0  0  0  0  0  0
  184.5360  177.9550  142.3310 O   0  0  0  0  0  0  0  0  0  0  0  0
  186.8610  177.8720  142.9650 C   0  0  0  0  0  2  0  0  0  0  0  0
  187.9490  177.3900  146.3240 O   0  0  0  0  0  0  0  0  0  0  0  0
  186.1940  178.1260  145.0660 C   0  0  2  0  0  3  0  0  0  0  0  0
  185.5900  178.7410  142.8090 C   0  0  2  0  0  3  0  0  0  0  0  0
  188.2820  177.2730  144.9370 C   0  0  1  0  0  3  0  0  0  0  0  0
  186.0660  178.2330  147.5640 C   0  0  0  0  0  2  0  0  0  0  0  0
  186.7050  177.9880  146.4290 C   0  0  0  0  0  0  0  0  0  0  0  0
  187.3830  178.2160  144.2680 N   0  0  1  0  0  0  0  0  0  0  0  0
  185.1220  179.4180  144.4670 S   0  0  0  0  0  0  0  0  0  0  0  0
  189.7340  177.7010  144.7430 C   0  0  0  0  0  2  0  0  0  0  0  0
  190.5750  177.4160  145.9800 C   0  0  0  0  0  2  0  0  0  0  0  0
  191.5920  176.3280  145.6900 C   0  0  0  0  0  1  0  0  0  0  0  0
  1  4  1  0  0  0  0
  2  7  1  0  0  0  0
  3  2  2  0  0  0  0
  4 12  1  0  0  0  0
  5  7  1  0  0  0  0
  6  5  2  0  0  0  0
  6  3  1  0  0  0  0
  8 17  1  1  0  0  0
  8  6  1  0  0  0  0
  9 11  2  0  0  0  0
 10 44  1  0  0  0  0
 11 10  1  0  0  0  0
 12  3  1  0  0  0  0
 12 10  2  0  0  0  0
 13  4  2  0  0  0  0
 13  9  1  0  0  0  0
 14  8  1  0  0  0  0
 14  1  1  0  0  0  0
 15 18  1  0  0  0  0
 15 17  1  0  0  0  0
 17 16  2  0  0  0  0
 19 23  1  0  0  0  0
 20 22  1  0  0  0  0
 21 28  1  0  0  0  0
 21 24  1  0  0  0  0
 23 22  1  0  0  0  0
 25 30  1  1  0  0  0
 25 28  1  0  0  0  0
 25 26  1  0  0  0  0
 26 18  1  6  0  0  0
 26 27  1  0  0  0  0
 27 24  1  6  0  0  0
 27 20  1  0  0  0  0
 28 19  1  1  0  0  0
 29 30  1  0  0  0  0
 31  9  1  0  0  0  0
 32 31  2  0  0  0  0
 33 31  1  0  0  0  0
 33 34  1  0  0  0  0
 34 43  1  6  0  0  0
 36 38  1  6  0  0  0
 36 35  1  0  0  0  0
 36 37  1  0  0  0  0
 39 41  1  6  0  0  0
 39 34  1  0  0  0  0
 39 36  1  0  0  0  0
 39 35  1  0  0  0  0
 41 40  1  0  0  0  0
 42 43  1  0  0  0  0
 44 45  1  0  0  0  0
 45 46  1  0  0  0  0
 46 47  1  0  0  0  0
 49 54  1  0  0  0  0
 50 56  1  1  0  0  0
 50 54  1  0  0  0  0
 51 47  1  1  0  0  0
 51 48  1  0  0  0  0
 51 56  1  0  0  0  0
 52 57  1  1  0  0  0
 52 49  1  0  0  0  0
 54 53  2  0  0  0  0
 55 48  1  6  0  0  0
 55 52  1  0  0  0  0
 55 50  1  0  0  0  0
 57 58  1  0  0  0  0
 59 58  1  0  0  0  0
M  END
>  <MODEL>
7

>  <REMARK>
 VINA RESULT:      -7.2      3.534      7.972
  Name = 
  17 active torsions:
  status: ('A' for Active; 'I' for Inactive)
    1  A    between atoms: C_4  and  C_19
    2  A    between atoms: C_4  and  O_20
    3  A    between atoms: C_4  and  C_54
    4  A    between atoms: C_6  and  C_28
    5  A    between atoms: C_6  and  C_30
    6  A    between atoms: N_7  and  N_59
    7  A    between atoms: C_10  and  O_20
    8  A    between atoms: C_10  and  C_36
    9  A    between atoms: C_14  and  C_54
   10  A    between atoms: C_27  and  O_58
   11  A    between atoms: C_32  and  O_38
   12  A    between atoms: C_35  and  C_45
   13  A    between atoms: C_39  and  O_46
   14  A    between atoms: C_40  and  N_59
   15  A    between atoms: O_46  and  C_56
   16  A    between atoms: C_52  and  C_56
   17  A    between atoms: C_52  and  O_58
                            x       y       z     vdW  Elec       q    Type
                         _______ _______ _______ _____ _____    ______ ____

>  <TORSDO>
F 17

$$$$
=
 OpenBabel11032420073D

 59 66  0  0  1  0  0  0  0  0999 V2000
  189.6320  176.2200  138.3500 C   0  0  0  0  0  2  0  0  0  0  0  0
  185.6030  175.6930  136.9750 C   0  0  0  0  0  3  0  0  0  0  0  0
  186.8750  176.0390  137.1440 C   0  0  0  0  0  0  0  0  0  0  0  0
  189.3150  175.3060  137.2210 C   0  0  0  0  0  0  0  0  0  0  0  0
  185.6480  177.7470  138.0350 C   0  0  0  0  0  3  0  0  0  0  0  0
  186.8940  177.3420  137.8330 C   0  0  0  0  0  0  0  0  0  0  0  0
  184.6890  176.7360  137.5160 C   0  0  0  0  0  2  0  0  0  0  0  0
  188.0640  178.1630  138.3200 C   0  0  2  0  0  3  0  0  0  0  0  0
  190.1660  173.5980  135.7180 C   0  0  0  0  0  0  0  0  0  0  0  0
  187.8300  174.2740  135.5880 C   0  0  0  0  0  0  0  0  0  0  0  0
  188.8980  173.4760  135.1530 C   0  0  0  0  0  3  0  0  0  0  0  0
  188.0230  175.2080  136.6460 C   0  0  0  0  0  0  0  0  0  0  0  0
  190.3650  174.5150  136.7480 C   0  0  0  0  0  3  0  0  0  0  0  0
  189.4380  177.6550  137.9090 C   0  0  0  0  0  2  0  0  0  0  0  0
  189.1510  178.2460  140.6000 N   0  0  0  0  0  2  0  0  0  0  0  0
  186.9050  178.7950  140.3240 O   0  0  0  0  0  0  0  0  0  0  0  0
  187.9860  178.4170  139.7970 C   0  0  0  0  0  0  0  0  0  0  0  0
  189.1920  178.7320  141.9150 N   0  0  0  0  0  2  0  0  0  0  0  0
  190.3210  176.9020  146.0680 C   0  0  0  0  0  2  0  0  0  0  0  0
  190.8920  175.7340  143.4740 C   0  0  0  0  0  2  0  0  0  0  0  0
  191.0880  178.8630  144.7150 O   0  0  0  0  0  0  0  0  0  0  0  0
  191.9100  175.4980  144.5960 C   0  0  0  0  0  2  0  0  0  0  0  0
  191.7410  176.3800  145.8420 C   0  0  0  0  0  2  0  0  0  0  0  0
  191.6870  178.2130  143.5930 C   0  0  0  0  0  2  0  0  0  0  0  0
  188.8430  177.9710  144.2010 C   0  0  2  0  0  3  0  0  0  0  0  0
  189.3640  177.5940  142.8110 C   0  0  2  0  0  3  0  0  0  0  0  0
  190.8280  177.1490  142.8720 C   0  0  2  0  0  3  0  0  0  0  0  0
  189.9700  178.1600  145.2390 C   0  0  1  0  0  3  0  0  0  0  0  0
  186.4530  177.4690  143.8020 S   0  0  0  0  0  1  0  0  0  0  0  0
  187.8950  177.0430  144.6350 O   0  0  0  0  0  0  0  0  0  0  0  0
  191.2840  172.7710  135.2360 C   0  0  0  0  0  0  0  0  0  0  0  0
  191.2110  171.5140  135.2930 O   0  0  0  0  0  0  0  0  0  0  0  0
  192.4310  173.3900  134.7300 O   0  0  0  0  0  0  0  0  0  0  0  0
  193.6310  173.5190  135.4890 C   0  0  2  0  0  3  0  0  0  0  0  0
  194.9550  175.0320  136.9090 O   0  0  0  0  0  0  0  0  0  0  0  0
  193.6830  175.2250  137.4890 C   0  0  1  0  0  0  0  0  0  0  0  0
  193.3570  174.1890  138.3460 F   0  0  0  0  0  0  0  0  0  0  0  0
  193.5130  176.6520  137.9800 C   0  0  0  0  0  1  0  0  0  0  0  0
  193.8490  174.9430  136.0370 C   0  0  2  0  0  0  0  0  0  0  0  0
  192.5060  176.3280  134.6170 O   0  0  0  0  0  1  0  0  0  0  0  0
  193.8110  176.1120  135.0610 C   0  0  0  0  0  2  0  0  0  0  0  0
  194.9240  171.6560  134.6910 O   0  0  0  0  0  1  0  0  0  0  0  0
  194.8270  173.0510  134.6680 C   0  0  0  0  0  2  0  0  0  0  0  0
  186.5790  174.1620  134.9630 O   0  0  0  0  0  0  0  0  0  0  0  0
  185.8310  172.9530  134.8750 C   0  0  0  0  0  2  0  0  0  0  0  0
  184.3590  173.2360  134.5990 C   0  0  0  0  0  2  0  0  0  0  0  0
  183.5970  173.0440  135.7570 O   0  0  0  0  0  0  0  0  0  0  0  0
  182.2830  175.0670  135.7960 C   0  0  0  0  0  2  0  0  0  0  0  0
  180.1850  175.9750  138.5300 O   0  0  0  0  0  0  0  0  0  0  0  0
  181.1680  174.1900  137.5020 C   0  0  2  0  0  3  0  0  0  0  0  0
  182.3240  173.5530  135.4790 C   0  0  2  0  0  3  0  0  0  0  0  0
  180.9330  176.4350  137.3990 C   0  0  1  0  0  3  0  0  0  0  0  0
  179.6890  173.8240  139.4890 C   0  0  0  0  0  2  0  0  0  0  0  0
  180.2470  174.5920  138.5650 C   0  0  0  0  0  0  0  0  0  0  0  0
  181.0610  175.2520  136.5440 N   0  0  1  0  0  0  0  0  0  0  0  0
  181.0890  172.6840  136.5520 S   0  0  0  0  0  0  0  0  0  0  0  0
  180.1270  177.5170  136.6860 C   0  0  0  0  0  2  0  0  0  0  0  0
  180.9940  178.7120  136.3130 C   0  0  0  0  0  2  0  0  0  0  0  0
  181.9150  179.0780  137.4620 C   0  0  0  0  0  1  0  0  0  0  0  0
  2  3  2  0  0  0  0
  2  7  1  0  0  0  0
  3  6  1  0  0  0  0
  4  1  1  0  0  0  0
  6  5  2  0  0  0  0
  6  8  1  0  0  0  0
  7  5  1  0  0  0  0
  8 17  1  1  0  0  0
  9 13  2  0  0  0  0
 10 12  1  0  0  0  0
 11 10  2  0  0  0  0
 11  9  1  0  0  0  0
 12  3  1  0  0  0  0
 12  4  2  0  0  0  0
 13  4  1  0  0  0  0
 14  8  1  0  0  0  0
 14  1  1  0  0  0  0
 15 18  1  0  0  0  0
 17 16  2  0  0  0  0
 17 15  1  0  0  0  0
 20 22  1  0  0  0  0
 21 28  1  0  0  0  0
 22 23  1  0  0  0  0
 23 19  1  0  0  0  0
 24 21  1  0  0  0  0
 25 30  1  1  0  0  0
 25 28  1  0  0  0  0
 26 18  1  6  0  0  0
 26 27  1  0  0  0  0
 26 25  1  0  0  0  0
 27 20  1  1  0  0  0
 27 24  1  0  0  0  0
 28 19  1  6  0  0  0
 29 30  1  0  0  0  0
 31 32  2  0  0  0  0
 31  9  1  0  0  0  0
 33 31  1  0  0  0  0
 33 34  1  0  0  0  0
 34 43  1  6  0  0  0
 34 39  1  0  0  0  0
 35 36  1  0  0  0  0
 36 38  1  1  0  0  0
 36 37  1  0  0  0  0
 39 41  1  6  0  0  0
 39 35  1  0  0  0  0
 39 36  1  0  0  0  0
 40 41  1  0  0  0  0
 43 42  1  0  0  0  0
 44 10  1  0  0  0  0
 45 44  1  0  0  0  0
 46 45  1  0  0  0  0
 46 47  1  0  0  0  0
 49 54  1  0  0  0  0
 50 56  1  6  0  0  0
 50 54  1  0  0  0  0
 51 47  1  1  0  0  0
 51 48  1  0  0  0  0
 51 56  1  0  0  0  0
 52 57  1  6  0  0  0
 52 49  1  0  0  0  0
 54 53  2  0  0  0  0
 55 48  1  1  0  0  0
 55 52  1  0  0  0  0
 55 50  1  0  0  0  0
 58 57  1  0  0  0  0
 58 59  1  0  0  0  0
M  END
>  <MODEL>
8

>  <REMARK>
 VINA RESULT:      -7.1      3.561      8.529
  Name = 
  17 active torsions:
  status: ('A' for Active; 'I' for Inactive)
    1  A    between atoms: C_4  and  C_19
    2  A    between atoms: C_4  and  O_20
    3  A    between atoms: C_4  and  C_54
    4  A    between atoms: C_6  and  C_28
    5  A    between atoms: C_6  and  C_30
    6  A    between atoms: N_7  and  N_59
    7  A    between atoms: C_10  and  O_20
    8  A    between atoms: C_10  and  C_36
    9  A    between atoms: C_14  and  C_54
   10  A    between atoms: C_27  and  O_58
   11  A    between atoms: C_32  and  O_38
   12  A    between atoms: C_35  and  C_45
   13  A    between atoms: C_39  and  O_46
   14  A    between atoms: C_40  and  N_59
   15  A    between atoms: O_46  and  C_56
   16  A    between atoms: C_52  and  C_56
   17  A    between atoms: C_52  and  O_58
                            x       y       z     vdW  Elec       q    Type
                         _______ _______ _______ _____ _____    ______ ____

>  <TORSDO>
F 17

$$$$
=
 OpenBabel11032420073D

 59 66  0  0  1  0  0  0  0  0999 V2000
  187.5550  176.7720  136.5620 C   0  0  0  0  0  2  0  0  0  0  0  0
  189.0920  177.3650  140.5230 C   0  0  0  0  0  3  0  0  0  0  0  0
  188.6740  177.4910  139.2670 C   0  0  0  0  0  0  0  0  0  0  0  0
  186.7270  177.4000  137.6250 C   0  0  0  0  0  0  0  0  0  0  0  0
  190.9390  177.2250  139.1400 C   0  0  0  0  0  3  0  0  0  0  0  0
  189.8560  177.3860  138.3920 C   0  0  0  0  0  0  0  0  0  0  0  0
  190.5690  177.1870  140.5790 C   0  0  0  0  0  2  0  0  0  0  0  0
  189.9500  177.4000  136.8860 C   0  0  2  0  0  3  0  0  0  0  0  0
  184.5140  178.1810  138.2500 C   0  0  0  0  0  0  0  0  0  0  0  0
  186.3430  178.3090  139.8530 C   0  0  0  0  0  0  0  0  0  0  0  0
  184.9950  178.5060  139.5170 C   0  0  0  0  0  3  0  0  0  0  0  0
  187.2390  177.7400  138.9020 C   0  0  0  0  0  0  0  0  0  0  0  0
  185.3850  177.6310  137.3120 C   0  0  0  0  0  3  0  0  0  0  0  0
  188.6580  177.7240  136.1510 C   0  0  0  0  0  2  0  0  0  0  0  0
  191.6750  176.2480  135.4420 N   0  0  0  0  0  2  0  0  0  0  0  0
  190.1790  175.0160  136.7320 O   0  0  0  0  0  0  0  0  0  0  0  0
  190.5880  176.1480  136.3580 C   0  0  0  0  0  0  0  0  0  0  0  0
  192.4660  175.1290  135.1430 N   0  0  0  0  0  2  0  0  0  0  0  0
  196.6590  173.5240  136.4520 C   0  0  0  0  0  2  0  0  0  0  0  0
  194.5510  174.4380  138.2230 C   0  0  0  0  0  2  0  0  0  0  0  0
  194.5970  172.5190  135.4510 O   0  0  0  0  0  0  0  0  0  0  0  0
  195.4480  173.2980  138.7190 C   0  0  0  0  0  2  0  0  0  0  0  0
  196.3310  172.6340  137.6520 C   0  0  0  0  0  2  0  0  0  0  0  0
  193.6600  172.6800  136.5170 C   0  0  0  0  0  2  0  0  0  0  0  0
  194.8940  174.9530  135.1650 C   0  0  2  0  0  3  0  0  0  0  0  0
  193.6360  175.1570  136.0140 C   0  0  2  0  0  3  0  0  0  0  0  0
  193.5360  174.0990  137.1160 C   0  0  2  0  0  3  0  0  0  0  0  0
  195.5490  173.5710  135.3750 C   0  0  1  0  0  3  0  0  0  0  0  0
  195.1100  177.3510  134.5940 S   0  0  0  0  0  1  0  0  0  0  0  0
  195.8030  175.9900  135.3830 O   0  0  0  0  0  0  0  0  0  0  0  0
  183.1030  178.4140  137.9030 C   0  0  0  0  0  0  0  0  0  0  0  0
  182.4900  179.4070  138.3800 O   0  0  0  0  0  0  0  0  0  0  0  0
  182.4460  177.5200  137.0520 O   0  0  0  0  0  0  0  0  0  0  0  0
  181.0250  177.3940  137.0220 C   0  0  2  0  0  3  0  0  0  0  0  0
  179.0840  176.5900  138.3050 O   0  0  0  0  0  0  0  0  0  0  0  0
  179.8950  177.0380  139.3690 C   0  0  1  0  0  0  0  0  0  0  0  0
  179.8230  178.4120  139.5130 F   0  0  0  0  0  0  0  0  0  0  0  0
  179.7130  176.1720  140.6030 C   0  0  0  0  0  1  0  0  0  0  0  0
  180.4780  176.4670  138.1260 C   0  0  2  0  0  0  0  0  0  0  0  0
  182.2910  174.9150  137.9090 O   0  0  0  0  0  1  0  0  0  0  0  0
  180.9160  175.0080  138.1330 C   0  0  0  0  0  2  0  0  0  0  0  0
  181.6620  176.6080  134.8420 O   0  0  0  0  0  1  0  0  0  0  0  0
  180.5650  176.9440  135.6400 C   0  0  0  0  0  2  0  0  0  0  0  0
  186.8070  178.6950  141.1190 O   0  0  0  0  0  0  0  0  0  0  0  0
  186.7120  177.8860  142.2890 C   0  0  0  0  0  2  0  0  0  0  0  0
  185.3310  177.9950  142.9220 C   0  0  0  0  0  2  0  0  0  0  0  0
  185.4190  177.8780  144.3140 O   0  0  0  0  0  0  0  0  0  0  0  0
  187.8160  177.7110  144.5250 C   0  0  0  0  0  2  0  0  0  0  0  0
  189.4470  176.8040  147.5600 O   0  0  0  0  0  0  0  0  0  0  0  0
  187.5210  177.6980  146.7240 C   0  0  2  0  0  3  0  0  0  0  0  0
  186.5570  178.5950  144.6980 C   0  0  2  0  0  3  0  0  0  0  0  0
  189.5370  176.8640  146.1320 C   0  0  1  0  0  3  0  0  0  0  0  0
  187.8240  177.4880  149.2000 C   0  0  0  0  0  2  0  0  0  0  0  0
  188.2540  177.3870  147.9510 C   0  0  0  0  0  0  0  0  0  0  0  0
  188.5590  177.8860  145.7510 N   0  0  1  0  0  0  0  0  0  0  0  0
  186.3940  179.0580  146.4840 S   0  0  0  0  0  0  0  0  0  0  0  0
  190.9440  177.3100  145.7470 C   0  0  0  0  0  2  0  0  0  0  0  0
  191.0680  177.5550  144.2500 C   0  0  0  0  0  2  0  0  0  0  0  0
  191.4510  178.9980  143.9780 C   0  0  0  0  0  1  0  0  0  0  0  0
  1  4  1  0  0  0  0
  2  7  1  0  0  0  0
  3  2  2  0  0  0  0
  4 12  1  0  0  0  0
  5  7  1  0  0  0  0
  6  5  2  0  0  0  0
  6  3  1  0  0  0  0
  8 17  1  6  0  0  0
  8  6  1  0  0  0  0
  9 11  2  0  0  0  0
 10 44  1  0  0  0  0
 11 10  1  0  0  0  0
 12  3  1  0  0  0  0
 12 10  2  0  0  0  0
 13  4  2  0  0  0  0
 13  9  1  0  0  0  0
 14  1  1  0  0  0  0
 14  8  1  0  0  0  0
 15 17  1  0  0  0  0
 17 16  2  0  0  0  0
 18 15  1  0  0  0  0
 19 23  1  0  0  0  0
 20 22  1  0  0  0  0
 21 24  1  0  0  0  0
 23 22  1  0  0  0  0
 25 28  1  0  0  0  0
 25 30  1  1  0  0  0
 25 26  1  0  0  0  0
 26 18  1  6  0  0  0
 26 27  1  0  0  0  0
 27 24  1  6  0  0  0
 27 20  1  0  0  0  0
 28 21  1  0  0  0  0
 28 19  1  1  0  0  0
 29 30  1  0  0  0  0
 31  9  1  0  0  0  0
 31 32  2  0  0  0  0
 33 31  1  0  0  0  0
 34 43  1  6  0  0  0
 34 33  1  0  0  0  0
 34 39  1  0  0  0  0
 35 36  1  0  0  0  0
 36 37  1  0  0  0  0
 36 38  1  1  0  0  0
 39 41  1  1  0  0  0
 39 35  1  0  0  0  0
 39 36  1  0  0  0  0
 40 41  1  0  0  0  0
 42 43  1  0  0  0  0
 44 45  1  0  0  0  0
 45 46  1  0  0  0  0
 46 47  1  0  0  0  0
 48 51  1  0  0  0  0
 49 54  1  0  0  0  0
 50 56  1  1  0  0  0
 50 54  1  0  0  0  0
 51 47  1  1  0  0  0
 51 56  1  0  0  0  0
 52 57  1  1  0  0  0
 52 49  1  0  0  0  0
 54 53  2  0  0  0  0
 55 48  1  6  0  0  0
 55 52  1  0  0  0  0
 55 50  1  0  0  0  0
 58 57  1  0  0  0  0
 59 58  1  0  0  0  0
M  END
>  <MODEL>
9

>  <REMARK>
 VINA RESULT:      -6.8      3.012      7.777
  Name = 
  17 active torsions:
  status: ('A' for Active; 'I' for Inactive)
    1  A    between atoms: C_4  and  C_19
    2  A    between atoms: C_4  and  O_20
    3  A    between atoms: C_4  and  C_54
    4  A    between atoms: C_6  and  C_28
    5  A    between atoms: C_6  and  C_30
    6  A    between atoms: N_7  and  N_59
    7  A    between atoms: C_10  and  O_20
    8  A    between atoms: C_10  and  C_36
    9  A    between atoms: C_14  and  C_54
   10  A    between atoms: C_27  and  O_58
   11  A    between atoms: C_32  and  O_38
   12  A    between atoms: C_35  and  C_45
   13  A    between atoms: C_39  and  O_46
   14  A    between atoms: C_40  and  N_59
   15  A    between atoms: O_46  and  C_56
   16  A    between atoms: C_52  and  C_56
   17  A    between atoms: C_52  and  O_58
                            x       y       z     vdW  Elec       q    Type
                         _______ _______ _______ _____ _____    ______ ____

>  <TORSDO>
F 17

$$$$
