=
 OpenBabel11042413093D

 32 36  0  0  1  0  0  0  0  0999 V2000
  187.2340  177.8870  142.8580 N   0  0  0  0  0  0  0  0  0  0  0  0
  185.9000  178.0940  144.7870 C   0  0  2  0  0  3  0  0  0  0  0  0
  185.3500  178.2270  141.3800 N   0  0  0  0  0  0  0  0  0  0  0  0
  186.0960  178.7370  142.5350 C   0  0  1  0  0  3  0  0  0  0  0  0
  188.3130  177.3880  144.8400 C   0  0  0  0  0  0  0  0  0  0  0  0
  184.0470  178.2750  141.3090 C   0  0  0  0  0  0  0  0  0  0  0  0
  185.2490  178.6650  143.7770 C   0  0  1  0  0  3  0  0  0  0  0  0
  183.8010  178.8620  143.6820 C   0  0  0  0  0  3  0  0  0  0  0  0
  188.5060  177.4370  146.3170 C   0  0  0  0  0  1  0  0  0  0  0  0
  183.2340  178.6970  142.4840 C   0  0  0  0  0  3  0  0  0  0  0  0
  188.5950  178.0460  142.3740 C   0  0  1  0  0  3  0  0  0  0  0  0
  187.1660  177.6370  144.2370 C   0  0  0  0  0  0  0  0  0  0  0  0
  189.6920  177.3860  143.6950 S   0  0  0  0  0  0  0  0  0  0  0  0
  181.3340  178.6010  139.3040 O   0  0  0  0  0  0  0  0  0  0  0  0
  180.1310  177.3550  140.9610 C   0  0  0  0  0  1  0  0  0  0  0  0
  182.6540  178.9210  139.3920 C   0  0  0  0  0  0  0  0  0  0  0  0
  181.1530  177.3070  139.8410 C   0  0  2  0  0  3  0  0  0  0  0  0
  182.4100  180.9800  138.3250 F   0  0  0  0  0  0  0  0  0  0  0  0
  183.3750  177.8220  140.0490 C   0  0  2  0  0  3  0  0  0  0  0  0
  183.1870  180.0450  138.9260 C   0  0  0  0  0  3  0  0  0  0  0  0
  182.3980  176.8380  140.3460 O   0  0  0  0  0  0  0  0  0  0  0  0
  188.8010  177.2380  141.1060 C   0  0  0  0  0  2  0  0  0  0  0  0
  189.1200  178.1590  139.9410 C   0  0  0  0  0  2  0  0  0  0  0  0
  186.0210  176.9340  136.5600 C   0  0  0  0  0  3  0  0  0  0  0  0
  187.3220  177.7550  138.2070 C   0  0  0  0  0  0  0  0  0  0  0  0
  186.0620  178.0960  137.4990 C   0  0  0  0  0  2  0  0  0  0  0  0
  187.0410  176.1610  136.7450 N   0  0  0  0  0  0  0  0  0  0  0  0
  187.8500  176.6660  137.7640 N   0  0  0  0  0  0  0  0  0  0  0  0
  187.8930  178.5390  139.2560 N   0  0  0  0  0  2  0  0  0  0  0  0
  185.3080  177.6780  146.0980 C   0  0  0  0  0  2  0  0  0  0  0  0
  184.7480  178.8290  146.7890 N   0  0  0  0  0  2  0  0  0  0  0  0
  185.7900  179.5820  147.2150 O   0  0  0  0  0  1  0  0  0  0  0  0
  1 12  1  0  0  0  0
  2 30  1  6  0  0  0
  4  3  1  6  0  0  0
  4  1  1  0  0  0  0
  4  7  1  0  0  0  0
  5  9  1  0  0  0  0
  6  3  2  0  0  0  0
  6 10  1  0  0  0  0
  7  8  1  6  0  0  0
  7  2  1  0  0  0  0
 10  8  2  0  0  0  0
 11 22  1  6  0  0  0
 11  1  1  0  0  0  0
 11 13  1  0  0  0  0
 12  2  1  0  0  0  0
 12  5  2  0  0  0  0
 13  5  1  0  0  0  0
 14 16  1  0  0  0  0
 14 17  1  0  0  0  0
 16 19  1  0  0  0  0
 17 21  1  0  0  0  0
 17 15  1  1  0  0  0
 18 20  1  0  0  0  0
 19 21  1  0  0  0  0
 19  6  1  1  0  0  0
 20 16  2  0  0  0  0
 23 22  1  0  0  0  0
 24 27  2  0  0  0  0
 24 26  1  0  0  0  0
 25 29  1  0  0  0  0
 26 25  1  0  0  0  0
 27 28  1  0  0  0  0
 28 25  2  0  0  0  0
 29 23  1  0  0  0  0
 30 31  1  0  0  0  0
 31 32  1  0  0  0  0
M  END
>  <MODEL>
1

>  <REMARK>
 VINA RESULT:      -8.4      0.000      0.000
  Name = 
  6 active torsions:
  status: ('A' for Active; 'I' for Inactive)
    1  A    between atoms: C_2  and  C_17
    2  A    between atoms: N_7  and  C_17
    3  A    between atoms: C_9  and  C_27
    4  A    between atoms: C_9  and  C_30
    5  A    between atoms: C_15  and  C_19
    6  A    between atoms: N_28  and  C_30
                            x       y       z     vdW  Elec       q    Type
                         _______ _______ _______ _____ _____    ______ ____

>  <TORSDO>
F 6

$$$$
=
 OpenBabel11042413093D

 32 36  0  0  1  0  0  0  0  0999 V2000
  188.0080  177.5420  144.2320 N   0  0  0  0  0  0  0  0  0  0  0  0
  189.9330  177.0040  145.4770 C   0  0  2  0  0  3  0  0  0  0  0  0
  189.1730  177.3290  142.1240 N   0  0  0  0  0  0  0  0  0  0  0  0
  188.8600  176.6950  143.4090 C   0  0  1  0  0  3  0  0  0  0  0  0
  187.7880  177.8040  146.5180 C   0  0  0  0  0  0  0  0  0  0  0  0
  190.3470  177.2310  141.5600 C   0  0  0  0  0  0  0  0  0  0  0  0
  190.1070  176.5510  144.2380 C   0  0  1  0  0  3  0  0  0  0  0  0
  191.3930  176.3040  143.5810 C   0  0  0  0  0  3  0  0  0  0  0  0
  188.1490  177.5560  147.9420 C   0  0  0  0  0  1  0  0  0  0  0  0
  191.4910  176.6100  142.2850 C   0  0  0  0  0  3  0  0  0  0  0  0
  186.5560  177.5160  144.2840 C   0  0  1  0  0  3  0  0  0  0  0  0
  188.6030  177.5910  145.5030 C   0  0  0  0  0  0  0  0  0  0  0  0
  186.0910  178.0320  145.9880 S   0  0  0  0  0  0  0  0  0  0  0  0
  189.6960  176.9390  138.2470 O   0  0  0  0  0  0  0  0  0  0  0  0
  191.3020  175.1590  138.2290 C   0  0  0  0  0  1  0  0  0  0  0  0
  189.3590  177.6580  139.3530 C   0  0  0  0  0  0  0  0  0  0  0  0
  191.0800  176.6580  138.3040 C   0  0  2  0  0  3  0  0  0  0  0  0
  187.1310  177.9250  138.7200 F   0  0  0  0  0  0  0  0  0  0  0  0
  190.5480  177.8270  140.2000 C   0  0  2  0  0  3  0  0  0  0  0  0
  188.1460  178.1420  139.5930 C   0  0  0  0  0  3  0  0  0  0  0  0
  191.6030  177.1610  139.5280 O   0  0  0  0  0  0  0  0  0  0  0  0
  185.9750  178.5040  143.2880 C   0  0  0  0  0  2  0  0  0  0  0  0
  184.4590  178.4840  143.3510 C   0  0  0  0  0  2  0  0  0  0  0  0
  183.9640  178.8560  138.6440 C   0  0  0  0  0  3  0  0  0  0  0  0
  184.0480  178.4250  140.8550 C   0  0  0  0  0  0  0  0  0  0  0  0
  183.5310  177.8020  139.6100 C   0  0  0  0  0  2  0  0  0  0  0  0
  184.5720  179.8170  139.2600 N   0  0  0  0  0  0  0  0  0  0  0  0
  184.6260  179.5550  140.6290 N   0  0  0  0  0  0  0  0  0  0  0  0
  183.9190  177.8510  142.1560 N   0  0  0  0  0  2  0  0  0  0  0  0
  191.0030  177.2020  146.5060 C   0  0  0  0  0  2  0  0  0  0  0  0
  191.2380  175.9670  147.2370 N   0  0  0  0  0  2  0  0  0  0  0  0
  192.4980  175.5660  146.9440 O   0  0  0  0  0  1  0  0  0  0  0  0
  1 11  1  0  0  0  0
  1 12  1  0  0  0  0
  2 12  1  0  0  0  0
  2 30  1  6  0  0  0
  4  3  1  6  0  0  0
  4  1  1  0  0  0  0
  4  7  1  0  0  0  0
  5  9  1  0  0  0  0
  6  3  2  0  0  0  0
  6 10  1  0  0  0  0
  7  8  1  6  0  0  0
  7  2  1  0  0  0  0
 10  8  2  0  0  0  0
 11 22  1  6  0  0  0
 11 13  1  0  0  0  0
 12  5  2  0  0  0  0
 13  5  1  0  0  0  0
 14 17  1  0  0  0  0
 14 16  1  0  0  0  0
 16 20  2  0  0  0  0
 16 19  1  0  0  0  0
 17 15  1  1  0  0  0
 17 21  1  0  0  0  0
 18 20  1  0  0  0  0
 19  6  1  1  0  0  0
 21 19  1  0  0  0  0
 22 23  1  0  0  0  0
 24 27  2  0  0  0  0
 24 26  1  0  0  0  0
 25 29  1  0  0  0  0
 26 25  1  0  0  0  0
 27 28  1  0  0  0  0
 28 25  2  0  0  0  0
 29 23  1  0  0  0  0
 30 31  1  0  0  0  0
 32 31  1  0  0  0  0
M  END
>  <MODEL>
2

>  <REMARK>
 VINA RESULT:      -8.3      3.501      6.018
  Name = 
  6 active torsions:
  status: ('A' for Active; 'I' for Inactive)
    1  A    between atoms: C_2  and  C_17
    2  A    between atoms: N_7  and  C_17
    3  A    between atoms: C_9  and  C_27
    4  A    between atoms: C_9  and  C_30
    5  A    between atoms: C_15  and  C_19
    6  A    between atoms: N_28  and  C_30
                            x       y       z     vdW  Elec       q    Type
                         _______ _______ _______ _____ _____    ______ ____

>  <TORSDO>
F 6

$$$$
=
 OpenBabel11042413093D

 32 36  0  0  1  0  0  0  0  0999 V2000
  187.7280  177.8230  144.5910 N   0  0  0  0  0  0  0  0  0  0  0  0
  189.9510  177.1470  144.9700 C   0  0  2  0  0  3  0  0  0  0  0  0
  188.0110  177.8000  142.1890 N   0  0  0  0  0  0  0  0  0  0  0  0
  188.1720  177.0500  143.4380 C   0  0  1  0  0  3  0  0  0  0  0  0
  188.3890  177.8680  146.8040 C   0  0  0  0  0  0  0  0  0  0  0  0
  188.8850  177.7440  141.2190 C   0  0  0  0  0  0  0  0  0  0  0  0
  189.6300  176.8140  143.7230 C   0  0  1  0  0  3  0  0  0  0  0  0
  190.5650  176.6160  142.6130 C   0  0  0  0  0  3  0  0  0  0  0  0
  189.2440  177.4800  147.9620 C   0  0  0  0  0  1  0  0  0  0  0  0
  190.1870  177.0440  141.4060 C   0  0  0  0  0  3  0  0  0  0  0  0
  186.4010  177.8070  145.1820 C   0  0  1  0  0  3  0  0  0  0  0  0
  188.7560  177.7440  145.5430 C   0  0  0  0  0  0  0  0  0  0  0  0
  186.6290  178.1630  146.9720 S   0  0  0  0  0  0  0  0  0  0  0  0
  187.2450  177.6410  138.2550 O   0  0  0  0  0  0  0  0  0  0  0  0
  188.9100  176.0700  137.5460 C   0  0  0  0  0  1  0  0  0  0  0  0
  187.2140  178.2250  139.4850 C   0  0  0  0  0  0  0  0  0  0  0  0
  188.5930  177.5210  137.8530 C   0  0  2  0  0  3  0  0  0  0  0  0
  184.8860  178.2760  139.6010 F   0  0  0  0  0  0  0  0  0  0  0  0
  188.5910  178.4660  139.9390 C   0  0  2  0  0  3  0  0  0  0  0  0
  186.1020  178.5420  140.1380 C   0  0  0  0  0  3  0  0  0  0  0  0
  189.4320  177.9840  138.9060 O   0  0  0  0  0  0  0  0  0  0  0  0
  185.5370  178.8930  144.5640 C   0  0  0  0  0  2  0  0  0  0  0  0
  184.5470  178.2850  143.5880 C   0  0  0  0  0  2  0  0  0  0  0  0
  180.3160  179.3690  141.7270 C   0  0  0  0  0  3  0  0  0  0  0  0
  182.2070  178.9310  142.8720 C   0  0  0  0  0  0  0  0  0  0  0  0
  180.8190  179.3870  143.1340 C   0  0  0  0  0  2  0  0  0  0  0  0
  181.2460  178.9860  140.9150 N   0  0  0  0  0  0  0  0  0  0  0  0
  182.4200  178.7140  141.6200 N   0  0  0  0  0  0  0  0  0  0  0  0
  183.2010  178.7550  143.8830 N   0  0  0  0  0  2  0  0  0  0  0  0
  191.3360  177.2350  145.5340 C   0  0  0  0  0  2  0  0  0  0  0  0
  191.7870  175.9240  145.9760 N   0  0  0  0  0  2  0  0  0  0  0  0
  192.4400  176.1030  147.1490 O   0  0  0  0  0  1  0  0  0  0  0  0
  1 11  1  0  0  0  0
  1 12  1  0  0  0  0
  2 30  1  6  0  0  0
  2 12  1  0  0  0  0
  4  3  1  6  0  0  0
  4  7  1  0  0  0  0
  4  1  1  0  0  0  0
  5 13  1  0  0  0  0
  5  9  1  0  0  0  0
  6 10  1  0  0  0  0
  6  3  2  0  0  0  0
  7  8  1  6  0  0  0
  7  2  1  0  0  0  0
 10  8  2  0  0  0  0
 11 22  1  6  0  0  0
 11 13  1  0  0  0  0
 12  5  2  0  0  0  0
 14 16  1  0  0  0  0
 16 19  1  0  0  0  0
 16 20  2  0  0  0  0
 17 15  1  1  0  0  0
 17 14  1  0  0  0  0
 17 21  1  0  0  0  0
 18 20  1  0  0  0  0
 19  6  1  1  0  0  0
 21 19  1  0  0  0  0
 23 29  1  0  0  0  0
 23 22  1  0  0  0  0
 24 26  1  0  0  0  0
 25 26  1  0  0  0  0
 25 29  1  0  0  0  0
 27 28  1  0  0  0  0
 27 24  2  0  0  0  0
 28 25  2  0  0  0  0
 30 31  1  0  0  0  0
 31 32  1  0  0  0  0
M  END
>  <MODEL>
3

>  <REMARK>
 VINA RESULT:      -8.3      3.164      5.825
  Name = 
  6 active torsions:
  status: ('A' for Active; 'I' for Inactive)
    1  A    between atoms: C_2  and  C_17
    2  A    between atoms: N_7  and  C_17
    3  A    between atoms: C_9  and  C_27
    4  A    between atoms: C_9  and  C_30
    5  A    between atoms: C_15  and  C_19
    6  A    between atoms: N_28  and  C_30
                            x       y       z     vdW  Elec       q    Type
                         _______ _______ _______ _____ _____    ______ ____

>  <TORSDO>
F 6

$$$$
=
 OpenBabel11042413093D

 32 36  0  0  1  0  0  0  0  0999 V2000
  187.0740  178.2220  141.9480 N   0  0  0  0  0  0  0  0  0  0  0  0
  186.2220  178.0950  144.1400 C   0  0  2  0  0  3  0  0  0  0  0  0
  184.8780  178.5480  140.9900 N   0  0  0  0  0  0  0  0  0  0  0  0
  185.8400  178.9950  142.0020 C   0  0  1  0  0  3  0  0  0  0  0  0
  188.6190  177.6100  143.5550 C   0  0  0  0  0  0  0  0  0  0  0  0
  183.5940  178.4850  141.2230 C   0  0  0  0  0  0  0  0  0  0  0  0
  185.3160  178.7110  143.3840 C   0  0  1  0  0  3  0  0  0  0  0  0
  183.8770  178.7850  143.6450 C   0  0  0  0  0  3  0  0  0  0  0  0
  189.1510  177.5150  144.9440 C   0  0  0  0  0  1  0  0  0  0  0  0
  183.0560  178.7000  142.5950 C   0  0  0  0  0  3  0  0  0  0  0  0
  188.2700  178.5560  141.1940 C   0  0  1  0  0  3  0  0  0  0  0  0
  187.3490  177.8180  143.2640 C   0  0  0  0  0  0  0  0  0  0  0  0
  189.6870  177.8590  142.1370 S   0  0  0  0  0  0  0  0  0  0  0  0
  180.7110  179.2180  139.5980 O   0  0  0  0  0  0  0  0  0  0  0  0
  179.5700  178.2730  141.4830 C   0  0  0  0  0  1  0  0  0  0  0  0
  182.0650  179.2970  139.4810 C   0  0  0  0  0  0  0  0  0  0  0  0
  180.3900  177.9990  140.2370 C   0  0  2  0  0  3  0  0  0  0  0  0
  182.0260  181.3240  138.3290 F   0  0  0  0  0  0  0  0  0  0  0  0
  182.6740  178.1120  140.1000 C   0  0  2  0  0  3  0  0  0  0  0  0
  182.7090  180.2870  138.8740 C   0  0  0  0  0  3  0  0  0  0  0  0
  181.5970  177.3330  140.5930 O   0  0  0  0  0  0  0  0  0  0  0  0
  188.2220  177.9130  139.8190 C   0  0  0  0  0  2  0  0  0  0  0  0
  189.4740  178.2590  139.0330 C   0  0  0  0  0  2  0  0  0  0  0  0
  190.9410  174.3760  136.7290 C   0  0  0  0  0  3  0  0  0  0  0  0
  190.1210  176.3010  137.5660 C   0  0  0  0  0  0  0  0  0  0  0  0
  190.1230  175.5450  136.2880 C   0  0  0  0  0  2  0  0  0  0  0  0
  191.2880  174.5030  137.9680 N   0  0  0  0  0  0  0  0  0  0  0  0
  190.7820  175.6950  138.4900 N   0  0  0  0  0  0  0  0  0  0  0  0
  189.4710  177.5590  137.7570 N   0  0  0  0  0  2  0  0  0  0  0  0
  185.9830  177.4860  145.4870 C   0  0  0  0  0  2  0  0  0  0  0  0
  186.0840  178.4990  146.5260 N   0  0  0  0  0  2  0  0  0  0  0  0
  184.8290  178.7280  146.9820 O   0  0  0  0  0  1  0  0  0  0  0  0
  1  4  1  0  0  0  0
  1 12  1  0  0  0  0
  2 30  1  6  0  0  0
  3  6  2  0  0  0  0
  4  3  1  6  0  0  0
  4  7  1  0  0  0  0
  5  9  1  0  0  0  0
  6 10  1  0  0  0  0
  7  8  1  6  0  0  0
  7  2  1  0  0  0  0
 10  8  2  0  0  0  0
 11 22  1  6  0  0  0
 11  1  1  0  0  0  0
 11 13  1  0  0  0  0
 12  5  2  0  0  0  0
 12  2  1  0  0  0  0
 13  5  1  0  0  0  0
 14 17  1  0  0  0  0
 16 14  1  0  0  0  0
 16 19  1  0  0  0  0
 17 21  1  0  0  0  0
 17 15  1  1  0  0  0
 18 20  1  0  0  0  0
 19 21  1  0  0  0  0
 19  6  1  1  0  0  0
 20 16  2  0  0  0  0
 23 22  1  0  0  0  0
 24 27  2  0  0  0  0
 25 29  1  0  0  0  0
 25 28  2  0  0  0  0
 26 24  1  0  0  0  0
 26 25  1  0  0  0  0
 27 28  1  0  0  0  0
 29 23  1  0  0  0  0
 30 31  1  0  0  0  0
 31 32  1  0  0  0  0
M  END
>  <MODEL>
4

>  <REMARK>
 VINA RESULT:      -8.0      1.821      2.016
  Name = 
  6 active torsions:
  status: ('A' for Active; 'I' for Inactive)
    1  A    between atoms: C_2  and  C_17
    2  A    between atoms: N_7  and  C_17
    3  A    between atoms: C_9  and  C_27
    4  A    between atoms: C_9  and  C_30
    5  A    between atoms: C_15  and  C_19
    6  A    between atoms: N_28  and  C_30
                            x       y       z     vdW  Elec       q    Type
                         _______ _______ _______ _____ _____    ______ ____

>  <TORSDO>
F 6

$$$$
=
 OpenBabel11042413093D

 32 36  0  0  1  0  0  0  0  0999 V2000
  187.0350  178.0250  144.3650 N   0  0  0  0  0  0  0  0  0  0  0  0
  189.0700  176.9260  144.8080 C   0  0  2  0  0  3  0  0  0  0  0  0
  187.4380  178.0530  141.9800 N   0  0  0  0  0  0  0  0  0  0  0  0
  187.3890  177.2320  143.1940 C   0  0  1  0  0  3  0  0  0  0  0  0
  187.5720  177.8480  146.6050 C   0  0  0  0  0  0  0  0  0  0  0  0
  188.3380  177.8750  141.0500 C   0  0  0  0  0  0  0  0  0  0  0  0
  188.7600  176.7140  143.5310 C   0  0  1  0  0  3  0  0  0  0  0  0
  189.7010  176.3920  142.4560 C   0  0  0  0  0  3  0  0  0  0  0  0
  188.2760  177.2560  147.7780 C   0  0  0  0  0  1  0  0  0  0  0  0
  189.4750  176.9360  141.2570 C   0  0  0  0  0  3  0  0  0  0  0  0
  185.6980  178.2340  144.8940 C   0  0  1  0  0  3  0  0  0  0  0  0
  187.9770  177.7120  145.3570 C   0  0  0  0  0  0  0  0  0  0  0  0
  185.8910  178.4620  146.7090 S   0  0  0  0  0  0  0  0  0  0  0  0
  187.6590  177.8590  137.7290 O   0  0  0  0  0  0  0  0  0  0  0  0
  189.7750  176.7680  137.4430 C   0  0  0  0  0  1  0  0  0  0  0  0
  187.1530  178.2480  138.9310 C   0  0  0  0  0  0  0  0  0  0  0  0
  189.0560  178.0690  137.7460 C   0  0  2  0  0  3  0  0  0  0  0  0
  184.9390  177.8150  138.3400 F   0  0  0  0  0  0  0  0  0  0  0  0
  188.2530  178.6940  139.7980 C   0  0  2  0  0  3  0  0  0  0  0  0
  185.8610  178.2410  139.2390 C   0  0  0  0  0  3  0  0  0  0  0  0
  189.4370  178.5390  139.0340 O   0  0  0  0  0  0  0  0  0  0  0  0
  185.0860  179.4880  144.2960 C   0  0  0  0  0  2  0  0  0  0  0  0
  183.6450  179.2300  143.8950 C   0  0  0  0  0  2  0  0  0  0  0  0
  180.8560  178.2200  140.1880 C   0  0  0  0  0  3  0  0  0  0  0  0
  182.3980  178.5700  141.7940 C   0  0  0  0  0  0  0  0  0  0  0  0
  182.3110  177.9860  140.4320 C   0  0  0  0  0  2  0  0  0  0  0  0
  180.3100  178.7990  141.2070 N   0  0  0  0  0  0  0  0  0  0  0  0
  181.2620  179.0170  142.2050 N   0  0  0  0  0  0  0  0  0  0  0  0
  183.5960  178.6280  142.5700 N   0  0  0  0  0  2  0  0  0  0  0  0
  190.4140  176.7270  145.4370 C   0  0  0  0  0  2  0  0  0  0  0  0
  191.1110  177.9980  145.5570 N   0  0  0  0  0  2  0  0  0  0  0  0
  191.7310  178.2250  144.3740 O   0  0  0  0  0  1  0  0  0  0  0  0
  1 11  1  0  0  0  0
  1 12  1  0  0  0  0
  2 12  1  0  0  0  0
  2 30  1  6  0  0  0
  4  3  1  6  0  0  0
  4  7  1  0  0  0  0
  4  1  1  0  0  0  0
  5 13  1  0  0  0  0
  5  9  1  0  0  0  0
  6 10  1  0  0  0  0
  6  3  2  0  0  0  0
  7  8  1  6  0  0  0
  7  2  1  0  0  0  0
 10  8  2  0  0  0  0
 11 22  1  6  0  0  0
 11 13  1  0  0  0  0
 12  5  2  0  0  0  0
 14 17  1  0  0  0  0
 14 16  1  0  0  0  0
 16 20  2  0  0  0  0
 16 19  1  0  0  0  0
 17 15  1  1  0  0  0
 17 21  1  0  0  0  0
 18 20  1  0  0  0  0
 19  6  1  1  0  0  0
 21 19  1  0  0  0  0
 23 22  1  0  0  0  0
 24 26  1  0  0  0  0
 24 27  2  0  0  0  0
 25 28  2  0  0  0  0
 25 29  1  0  0  0  0
 26 25  1  0  0  0  0
 27 28  1  0  0  0  0
 29 23  1  0  0  0  0
 30 31  1  0  0  0  0
 32 31  1  0  0  0  0
M  END
>  <MODEL>
5

>  <REMARK>
 VINA RESULT:      -7.9      3.002      5.583
  Name = 
  6 active torsions:
  status: ('A' for Active; 'I' for Inactive)
    1  A    between atoms: C_2  and  C_17
    2  A    between atoms: N_7  and  C_17
    3  A    between atoms: C_9  and  C_27
    4  A    between atoms: C_9  and  C_30
    5  A    between atoms: C_15  and  C_19
    6  A    between atoms: N_28  and  C_30
                            x       y       z     vdW  Elec       q    Type
                         _______ _______ _______ _____ _____    ______ ____

>  <TORSDO>
F 6

$$$$
=
 OpenBabel11042413093D

 32 36  0  0  1  0  0  0  0  0999 V2000
  186.5160  178.2920  142.0890 N   0  0  0  0  0  0  0  0  0  0  0  0
  186.0280  178.1160  144.3860 C   0  0  2  0  0  3  0  0  0  0  0  0
  184.2070  178.7270  141.5150 N   0  0  0  0  0  0  0  0  0  0  0  0
  185.3390  179.1040  142.3680 C   0  0  1  0  0  3  0  0  0  0  0  0
  188.2760  177.5700  143.4000 C   0  0  0  0  0  0  0  0  0  0  0  0
  182.9760  178.7000  141.9540 C   0  0  0  0  0  0  0  0  0  0  0  0
  185.0370  178.7900  143.8070 C   0  0  1  0  0  3  0  0  0  0  0  0
  183.6640  178.9030  144.3040 C   0  0  0  0  0  3  0  0  0  0  0  0
  189.0240  177.4080  144.6790 C   0  0  0  0  0  1  0  0  0  0  0  0
  182.6790  178.8850  143.4020 C   0  0  0  0  0  3  0  0  0  0  0  0
  187.5840  178.6120  141.1580 C   0  0  1  0  0  3  0  0  0  0  0  0
  186.9850  177.8320  143.3290 C   0  0  0  0  0  0  0  0  0  0  0  0
  189.1080  177.8330  141.8340 S   0  0  0  0  0  0  0  0  0  0  0  0
  182.1150  178.3780  138.6920 O   0  0  0  0  0  0  0  0  0  0  0  0
  182.2160  180.7710  138.5720 C   0  0  0  0  0  1  0  0  0  0  0  0
  182.3610  177.6550  139.8180 C   0  0  0  0  0  0  0  0  0  0  0  0
  181.4400  179.5630  139.0620 C   0  0  2  0  0  3  0  0  0  0  0  0
  183.3280  175.8680  138.6750 F   0  0  0  0  0  0  0  0  0  0  0  0
  181.8720  178.3990  140.9870 C   0  0  2  0  0  3  0  0  0  0  0  0
  182.9300  176.4550  139.8310 C   0  0  0  0  0  3  0  0  0  0  0  0
  181.3280  179.6060  140.4800 O   0  0  0  0  0  0  0  0  0  0  0  0
  187.2870  178.0200  139.7910 C   0  0  0  0  0  2  0  0  0  0  0  0
  188.4870  178.1820  138.8760 C   0  0  0  0  0  2  0  0  0  0  0  0
  190.4180  174.2340  137.0810 C   0  0  0  0  0  3  0  0  0  0  0  0
  189.3170  176.1000  137.7010 C   0  0  0  0  0  0  0  0  0  0  0  0
  189.2710  175.0760  136.6260 C   0  0  0  0  0  2  0  0  0  0  0  0
  190.9440  174.7210  138.1570 N   0  0  0  0  0  0  0  0  0  0  0  0
  190.2650  175.8770  138.5450 N   0  0  0  0  0  0  0  0  0  0  0  0
  188.4230  177.2110  137.7940 N   0  0  0  0  0  2  0  0  0  0  0  0
  185.9880  177.4680  145.7350 C   0  0  0  0  0  2  0  0  0  0  0  0
  186.4390  178.3990  146.7580 N   0  0  0  0  0  2  0  0  0  0  0  0
  185.3350  178.9930  147.2690 O   0  0  0  0  0  1  0  0  0  0  0  0
  1  4  1  0  0  0  0
  1 12  1  0  0  0  0
  2 30  1  6  0  0  0
  3  6  2  0  0  0  0
  4  3  1  6  0  0  0
  4  7  1  0  0  0  0
  5  9  1  0  0  0  0
  6 10  1  0  0  0  0
  7  8  1  6  0  0  0
  7  2  1  0  0  0  0
 10  8  2  0  0  0  0
 11 22  1  6  0  0  0
 11 13  1  0  0  0  0
 11  1  1  0  0  0  0
 12  5  2  0  0  0  0
 12  2  1  0  0  0  0
 13  5  1  0  0  0  0
 14 17  1  0  0  0  0
 14 16  1  0  0  0  0
 16 20  2  0  0  0  0
 16 19  1  0  0  0  0
 17 15  1  1  0  0  0
 17 21  1  0  0  0  0
 18 20  1  0  0  0  0
 19  6  1  1  0  0  0
 21 19  1  0  0  0  0
 23 22  1  0  0  0  0
 24 27  2  0  0  0  0
 25 29  1  0  0  0  0
 25 28  2  0  0  0  0
 26 24  1  0  0  0  0
 26 25  1  0  0  0  0
 27 28  1  0  0  0  0
 29 23  1  0  0  0  0
 30 31  1  0  0  0  0
 31 32  1  0  0  0  0
M  END
>  <MODEL>
6

>  <REMARK>
 VINA RESULT:      -7.8      2.008      2.491
  Name = 
  6 active torsions:
  status: ('A' for Active; 'I' for Inactive)
    1  A    between atoms: C_2  and  C_17
    2  A    between atoms: N_7  and  C_17
    3  A    between atoms: C_9  and  C_27
    4  A    between atoms: C_9  and  C_30
    5  A    between atoms: C_15  and  C_19
    6  A    between atoms: N_28  and  C_30
                            x       y       z     vdW  Elec       q    Type
                         _______ _______ _______ _____ _____    ______ ____

>  <TORSDO>
F 6

$$$$
=
 OpenBabel11042413093D

 32 36  0  0  1  0  0  0  0  0999 V2000
  187.8850  177.9470  142.0460 N   0  0  0  0  0  0  0  0  0  0  0  0
  186.6020  177.9070  144.0200 C   0  0  2  0  0  3  0  0  0  0  0  0
  185.9990  178.6400  140.6990 N   0  0  0  0  0  0  0  0  0  0  0  0
  186.7970  178.9050  141.9010 C   0  0  1  0  0  3  0  0  0  0  0  0
  188.9660  177.0610  143.8860 C   0  0  0  0  0  0  0  0  0  0  0  0
  184.7000  178.7760  140.6750 C   0  0  0  0  0  0  0  0  0  0  0  0
  185.9700  178.6770  143.1380 C   0  0  1  0  0  3  0  0  0  0  0  0
  184.5360  178.9720  143.1190 C   0  0  0  0  0  3  0  0  0  0  0  0
  189.1890  176.8510  145.3450 C   0  0  0  0  0  1  0  0  0  0  0  0
  183.9380  179.0430  141.9260 C   0  0  0  0  0  3  0  0  0  0  0  0
  189.2440  178.1040  141.5570 C   0  0  1  0  0  3  0  0  0  0  0  0
  187.8260  177.4740  143.3670 C   0  0  0  0  0  0  0  0  0  0  0  0
  190.3220  177.1690  142.7180 S   0  0  0  0  0  0  0  0  0  0  0  0
  184.0390  176.6390  138.1290 O   0  0  0  0  0  0  0  0  0  0  0  0
  186.2730  177.0680  137.3720 C   0  0  0  0  0  1  0  0  0  0  0  0
  183.4810  177.2040  139.2340 C   0  0  0  0  0  0  0  0  0  0  0  0
  184.8600  177.6030  137.5020 C   0  0  2  0  0  3  0  0  0  0  0  0
  182.2190  175.3220  139.7790 F   0  0  0  0  0  0  0  0  0  0  0  0
  183.9780  178.5800  139.3770 C   0  0  2  0  0  3  0  0  0  0  0  0
  182.6080  176.5970  140.0290 C   0  0  0  0  0  3  0  0  0  0  0  0
  184.8650  178.7880  138.2910 O   0  0  0  0  0  0  0  0  0  0  0  0
  189.3750  177.5090  140.1660 C   0  0  0  0  0  2  0  0  0  0  0  0
  190.6890  176.7590  140.0370 C   0  0  0  0  0  2  0  0  0  0  0  0
  193.4480  175.8610  136.2800 C   0  0  0  0  0  3  0  0  0  0  0  0
  191.9290  176.1310  137.9230 C   0  0  0  0  0  0  0  0  0  0  0  0
  192.0490  175.4500  136.6090 C   0  0  0  0  0  2  0  0  0  0  0  0
  193.9410  176.5970  137.2220 N   0  0  0  0  0  0  0  0  0  0  0  0
  193.0030  176.7670  138.2420 N   0  0  0  0  0  0  0  0  0  0  0  0
  190.7600  176.0960  138.7440 N   0  0  0  0  0  2  0  0  0  0  0  0
  186.0090  177.3140  145.2610 C   0  0  0  0  0  2  0  0  0  0  0  0
  186.0840  178.2620  146.3620 N   0  0  0  0  0  2  0  0  0  0  0  0
  184.8180  178.6650  146.6260 O   0  0  0  0  0  1  0  0  0  0  0  0
  1 12  1  0  0  0  0
  2 30  1  6  0  0  0
  4  3  1  6  0  0  0
  4  1  1  0  0  0  0
  4  7  1  0  0  0  0
  5  9  1  0  0  0  0
  6  3  2  0  0  0  0
  6 10  1  0  0  0  0
  7  8  1  6  0  0  0
  7  2  1  0  0  0  0
 10  8  2  0  0  0  0
 11 22  1  6  0  0  0
 11  1  1  0  0  0  0
 11 13  1  0  0  0  0
 12  5  2  0  0  0  0
 12  2  1  0  0  0  0
 13  5  1  0  0  0  0
 14 16  1  0  0  0  0
 16 19  1  0  0  0  0
 16 20  2  0  0  0  0
 17 15  1  1  0  0  0
 17 14  1  0  0  0  0
 17 21  1  0  0  0  0
 18 20  1  0  0  0  0
 19  6  1  1  0  0  0
 21 19  1  0  0  0  0
 23 22  1  0  0  0  0
 24 26  1  0  0  0  0
 24 27  2  0  0  0  0
 25 28  2  0  0  0  0
 25 29  1  0  0  0  0
 26 25  1  0  0  0  0
 27 28  1  0  0  0  0
 29 23  1  0  0  0  0
 30 31  1  0  0  0  0
 31 32  1  0  0  0  0
M  END
>  <MODEL>
7

>  <REMARK>
 VINA RESULT:      -7.4      2.740      3.486
  Name = 
  6 active torsions:
  status: ('A' for Active; 'I' for Inactive)
    1  A    between atoms: C_2  and  C_17
    2  A    between atoms: N_7  and  C_17
    3  A    between atoms: C_9  and  C_27
    4  A    between atoms: C_9  and  C_30
    5  A    between atoms: C_15  and  C_19
    6  A    between atoms: N_28  and  C_30
                            x       y       z     vdW  Elec       q    Type
                         _______ _______ _______ _____ _____    ______ ____

>  <TORSDO>
F 6

$$$$
=
 OpenBabel11042413093D

 32 36  0  0  1  0  0  0  0  0999 V2000
  187.0680  178.1720  142.0410 N   0  0  0  0  0  0  0  0  0  0  0  0
  185.2370  178.5640  143.4700 C   0  0  2  0  0  3  0  0  0  0  0  0
  188.5730  177.7730  143.8920 N   0  0  0  0  0  0  0  0  0  0  0  0
  187.2870  177.4300  143.2760 C   0  0  1  0  0  3  0  0  0  0  0  0
  185.1620  178.9400  140.9850 C   0  0  0  0  0  0  0  0  0  0  0  0
  188.7240  177.8830  145.1850 C   0  0  0  0  0  0  0  0  0  0  0  0
  186.1510  177.8790  144.1540 C   0  0  1  0  0  3  0  0  0  0  0  0
  186.3040  177.8590  145.6100 C   0  0  0  0  0  3  0  0  0  0  0  0
  183.6970  179.1860  140.8610 C   0  0  0  0  0  1  0  0  0  0  0  0
  187.5480  177.8350  146.0970 C   0  0  0  0  0  3  0  0  0  0  0  0
  187.4100  177.7340  140.6990 C   0  0  1  0  0  3  0  0  0  0  0  0
  185.7790  178.7210  142.1300 C   0  0  0  0  0  0  0  0  0  0  0  0
  186.1810  178.5130  139.5730 S   0  0  0  0  0  0  0  0  0  0  0  0
  191.8530  176.6470  145.6020 O   0  0  0  0  0  0  0  0  0  0  0  0
  190.9180  175.2320  147.2970 C   0  0  0  0  0  1  0  0  0  0  0  0
  191.1390  177.5530  144.8790 C   0  0  0  0  0  0  0  0  0  0  0  0
  191.3510  176.6370  146.9220 C   0  0  2  0  0  3  0  0  0  0  0  0
  192.3890  177.2530  142.9340 F   0  0  0  0  0  0  0  0  0  0  0  0
  190.0950  178.1390  145.7320 C   0  0  2  0  0  3  0  0  0  0  0  0
  191.3830  177.8600  143.6100 C   0  0  0  0  0  3  0  0  0  0  0  0
  190.2360  177.5190  146.9990 O   0  0  0  0  0  0  0  0  0  0  0  0
  188.8010  178.2150  140.3270 C   0  0  0  0  0  2  0  0  0  0  0  0
  189.7920  177.0670  140.3980 C   0  0  0  0  0  2  0  0  0  0  0  0
  192.5430  175.1800  137.0210 C   0  0  0  0  0  3  0  0  0  0  0  0
  191.4000  176.3210  138.5930 C   0  0  0  0  0  0  0  0  0  0  0  0
  192.5190  176.5390  137.6420 C   0  0  0  0  0  2  0  0  0  0  0  0
  191.6320  174.4240  137.5420 N   0  0  0  0  0  0  0  0  0  0  0  0
  190.9220  175.1280  138.5160 N   0  0  0  0  0  0  0  0  0  0  0  0
  190.9070  177.3120  139.4960 N   0  0  0  0  0  2  0  0  0  0  0  0
  184.0870  179.3280  144.0490 C   0  0  0  0  0  2  0  0  0  0  0  0
  182.9750  178.4320  144.3310 N   0  0  0  0  0  2  0  0  0  0  0  0
  181.8570  179.0220  143.8460 O   0  0  0  0  0  1  0  0  0  0  0  0
  1 12  1  0  0  0  0
  1  4  1  0  0  0  0
  2 30  1  1  0  0  0
  2  7  1  0  0  0  0
  3  6  2  0  0  0  0
  4  3  1  1  0  0  0
  4  7  1  0  0  0  0
  5 12  2  0  0  0  0
  6 10  1  0  0  0  0
  7  8  1  1  0  0  0
  8 10  2  0  0  0  0
  9  5  1  0  0  0  0
 11 22  1  6  0  0  0
 11  1  1  0  0  0  0
 12  2  1  0  0  0  0
 13 11  1  0  0  0  0
 13  5  1  0  0  0  0
 14 17  1  0  0  0  0
 16 14  1  0  0  0  0
 16 19  1  0  0  0  0
 17 21  1  0  0  0  0
 17 15  1  6  0  0  0
 18 20  1  0  0  0  0
 19  6  1  6  0  0  0
 19 21  1  0  0  0  0
 20 16  2  0  0  0  0
 22 23  1  0  0  0  0
 24 27  2  0  0  0  0
 24 26  1  0  0  0  0
 25 29  1  0  0  0  0
 26 25  1  0  0  0  0
 27 28  1  0  0  0  0
 28 25  2  0  0  0  0
 29 23  1  0  0  0  0
 30 31  1  0  0  0  0
 32 31  1  0  0  0  0
M  END
>  <MODEL>
8

>  <REMARK>
 VINA RESULT:      -7.4      3.633      6.667
  Name = 
  6 active torsions:
  status: ('A' for Active; 'I' for Inactive)
    1  A    between atoms: C_2  and  C_17
    2  A    between atoms: N_7  and  C_17
    3  A    between atoms: C_9  and  C_27
    4  A    between atoms: C_9  and  C_30
    5  A    between atoms: C_15  and  C_19
    6  A    between atoms: N_28  and  C_30
                            x       y       z     vdW  Elec       q    Type
                         _______ _______ _______ _____ _____    ______ ____

>  <TORSDO>
F 6

$$$$
=
 OpenBabel11042413093D

 32 36  0  0  1  0  0  0  0  0999 V2000
  185.0890  178.3910  142.2700 N   0  0  0  0  0  0  0  0  0  0  0  0
  184.7990  178.2530  144.6030 C   0  0  2  0  0  3  0  0  0  0  0  0
  187.4610  177.9470  142.4240 N   0  0  0  0  0  0  0  0  0  0  0  0
  186.1160  177.5060  142.8050 C   0  0  1  0  0  3  0  0  0  0  0  0
  182.9920  179.0030  143.0230 C   0  0  0  0  0  0  0  0  0  0  0  0
  188.4810  177.8720  143.2380 C   0  0  0  0  0  0  0  0  0  0  0  0
  185.9290  177.6220  144.2930 C   0  0  1  0  0  3  0  0  0  0  0  0
  187.0650  177.3950  145.1890 C   0  0  0  0  0  3  0  0  0  0  0  0
  181.8660  179.0280  144.0000 C   0  0  0  0  0  1  0  0  0  0  0  0
  188.2900  177.4920  144.6660 C   0  0  0  0  0  3  0  0  0  0  0  0
  184.3850  178.2330  141.0090 C   0  0  1  0  0  3  0  0  0  0  0  0
  184.2370  178.7050  143.3400 C   0  0  0  0  0  0  0  0  0  0  0  0
  182.7190  178.9750  141.2520 S   0  0  0  0  0  0  0  0  0  0  0  0
  191.3870  176.7580  141.8970 O   0  0  0  0  0  0  0  0  0  0  0  0
  191.9110  175.9160  144.0790 C   0  0  0  0  0  1  0  0  0  0  0  0
  190.2420  177.4250  141.5860 C   0  0  0  0  0  0  0  0  0  0  0  0
  191.7870  177.1430  143.1960 C   0  0  2  0  0  3  0  0  0  0  0  0
  190.1050  176.5500  139.4290 F   0  0  0  0  0  0  0  0  0  0  0  0
  189.8380  178.2530  142.7310 C   0  0  2  0  0  3  0  0  0  0  0  0
  189.6210  177.3450  140.4150 C   0  0  0  0  0  3  0  0  0  0  0  0
  190.8130  178.0280  143.7360 O   0  0  0  0  0  0  0  0  0  0  0  0
  185.1080  178.9830  139.9040 C   0  0  0  0  0  2  0  0  0  0  0  0
  184.6050  178.5310  138.5450 C   0  0  0  0  0  2  0  0  0  0  0  0
  188.8760  177.7190  136.6390 C   0  0  0  0  0  3  0  0  0  0  0  0
  186.7990  177.8140  137.5100 C   0  0  0  0  0  0  0  0  0  0  0  0
  187.7410  176.8030  136.9640 C   0  0  0  0  0  2  0  0  0  0  0  0
  188.5820  178.9390  136.9490 N   0  0  0  0  0  0  0  0  0  0  0  0
  187.2960  179.0030  137.4880 N   0  0  0  0  0  0  0  0  0  0  0  0
  185.4910  177.5150  137.9980 N   0  0  0  0  0  2  0  0  0  0  0  0
  184.3910  178.7200  145.9660 C   0  0  0  0  0  2  0  0  0  0  0  0
  185.3050  179.7460  146.4440 N   0  0  0  0  0  2  0  0  0  0  0  0
  185.6940  179.3830  147.6890 O   0  0  0  0  0  1  0  0  0  0  0  0
  1  4  1  0  0  0  0
  1 12  1  0  0  0  0
  2 30  1  1  0  0  0
  3  6  2  0  0  0  0
  4  3  1  1  0  0  0
  4  7  1  0  0  0  0
  5 12  2  0  0  0  0
  5  9  1  0  0  0  0
  6 10  1  0  0  0  0
  7  2  1  0  0  0  0
  7  8  1  6  0  0  0
 10  8  2  0  0  0  0
 11 22  1  6  0  0  0
 11 13  1  0  0  0  0
 11  1  1  0  0  0  0
 12  2  1  0  0  0  0
 13  5  1  0  0  0  0
 14 17  1  0  0  0  0
 16 14  1  0  0  0  0
 16 19  1  0  0  0  0
 17 21  1  0  0  0  0
 17 15  1  1  0  0  0
 18 20  1  0  0  0  0
 19  6  1  1  0  0  0
 19 21  1  0  0  0  0
 20 16  2  0  0  0  0
 23 22  1  0  0  0  0
 24 27  2  0  0  0  0
 24 26  1  0  0  0  0
 25 29  1  0  0  0  0
 26 25  1  0  0  0  0
 27 28  1  0  0  0  0
 28 25  2  0  0  0  0
 29 23  1  0  0  0  0
 30 31  1  0  0  0  0
 31 32  1  0  0  0  0
M  END
>  <MODEL>
9

>  <REMARK>
 VINA RESULT:      -7.4      3.409      5.747
  Name = 
  6 active torsions:
  status: ('A' for Active; 'I' for Inactive)
    1  A    between atoms: C_2  and  C_17
    2  A    between atoms: N_7  and  C_17
    3  A    between atoms: C_9  and  C_27
    4  A    between atoms: C_9  and  C_30
    5  A    between atoms: C_15  and  C_19
    6  A    between atoms: N_28  and  C_30
                            x       y       z     vdW  Elec       q    Type
                         _______ _______ _______ _____ _____    ______ ____

>  <TORSDO>
F 6

$$$$
