=
 OpenBabel11042413023D

 40 44  0  0  1  0  0  0  0  0999 V2000
  188.6650  176.0780  134.6160 C   0  0  0  0  0  1  0  0  0  0  0  0
  184.4810  176.0020  137.1000 N   0  0  0  0  0  0  0  0  0  0  0  0
  182.4230  176.9920  138.7680 N   0  0  0  0  0  0  0  0  0  0  0  0
  182.3130  175.7260  138.1080 C   0  0  0  0  0  0  0  0  0  0  0  0
  183.1250  177.0320  140.0200 C   0  0  0  0  0  3  0  0  0  0  0  0
  186.6520  174.1030  134.6230 S   0  0  0  0  0  0  0  0  0  0  0  0
  181.1620  180.5710  138.5790 C   0  0  0  0  0  2  0  0  0  0  0  0
  182.1100  179.4380  138.9200 C   0  0  2  0  0  3  0  0  0  0  0  0
  181.5690  178.1210  138.3550 C   0  0  1  0  0  3  0  0  0  0  0  0
  181.9930  173.3500  136.7520 N   0  0  0  0  0  0  0  0  0  0  0  0
  181.4780  178.2330  136.8380 C   0  0  0  0  0  2  0  0  0  0  0  0
  184.0320  172.3720  135.0510 O   0  0  0  0  0  1  0  0  0  0  0  0
  181.1820  174.9880  138.2400 N   0  0  0  0  0  0  0  0  0  0  0  0
  185.4540  175.5500  136.2710 C   0  0  0  0  0  0  0  0  0  0  0  0
  183.3440  175.2630  137.2900 C   0  0  0  0  0  0  0  0  0  0  0  0
  187.3490  175.5770  135.0960 C   0  0  0  0  0  0  0  0  0  0  0  0
  185.3190  174.3410  135.6090 C   0  0  0  0  0  0  0  0  0  0  0  0
  182.2720  179.3200  140.4260 C   0  0  0  0  0  2  0  0  0  0  0  0
  183.1310  178.1260  140.7870 C   0  0  0  0  0  0  0  0  0  0  0  0
  183.1620  174.0310  136.6090 C   0  0  0  0  0  0  0  0  0  0  0  0
  186.5780  176.2520  135.9850 N   0  0  0  0  0  0  0  0  0  0  0  0
  181.0110  173.8190  137.5670 C   0  0  0  0  0  3  0  0  0  0  0  0
  181.0490  180.6900  137.0610 C   0  0  1  0  0  3  0  0  0  0  0  0
  184.1700  173.5620  135.7510 C   0  0  0  0  0  0  0  0  0  0  0  0
  180.5480  179.3780  136.4590 C   0  0  0  0  0  2  0  0  0  0  0  0
  183.8110  178.0740  142.0460 N   0  0  0  0  0  0  0  0  0  0  0  0
  185.0300  178.4860  142.2750 C   0  0  0  0  0  0  0  0  0  0  0  0
  184.8280  178.5510  144.6660 N   0  0  0  0  0  0  0  0  0  0  0  0
  185.5880  178.4040  143.6290 C   0  0  0  0  0  3  0  0  0  0  0  0
  186.7510  178.0980  146.3000 C   0  0  0  0  0  1  0  0  0  0  0  0
  184.5260  178.6070  146.9620 O   0  0  0  0  0  0  0  0  0  0  0  0
  185.3220  178.4500  146.0070 C   0  0  0  0  0  0  0  0  0  0  0  0
  185.9150  178.9650  141.1730 C   0  0  0  0  0  2  0  0  0  0  0  0
  187.2270  178.3540  141.2900 N   0  0  0  0  0  2  0  0  0  0  0  0
  188.1170  178.2880  140.1830 C   0  0  0  0  0  0  0  0  0  0  0  0
  187.7130  178.5820  139.0310 O   0  0  0  0  0  0  0  0  0  0  0  0
  189.4370  177.9100  140.3930 O   0  0  0  0  0  0  0  0  0  0  0  0
  189.9040  177.4870  141.6660 C   0  0  0  0  0  1  0  0  0  0  0  0
  179.9200  182.0410  136.6200 S   0  0  0  0  0  0  0  0  0  0  0  0
  180.9270  183.2660  137.4910 C   0  0  0  0  0  1  0  0  0  0  0  0
  1 16  1  0  0  0  0
  2 15  1  0  0  0  0
  3  5  1  0  0  0  0
  4 13  1  0  0  0  0
  4  3  1  0  0  0  0
  5 19  2  0  0  0  0
  6 16  1  0  0  0  0
  6 17  1  0  0  0  0
  8  7  1  1  0  0  0
  8 18  1  0  0  0  0
  9 11  1  6  0  0  0
  9  3  1  0  0  0  0
  9  8  1  0  0  0  0
 10 22  1  0  0  0  0
 12 24  1  0  0  0  0
 14  2  2  0  0  0  0
 15  4  2  0  0  0  0
 16 21  2  0  0  0  0
 17 24  2  0  0  0  0
 17 14  1  0  0  0  0
 18 19  1  0  0  0  0
 19 26  1  0  0  0  0
 20 10  2  0  0  0  0
 20 15  1  0  0  0  0
 21 14  1  0  0  0  0
 22 13  2  0  0  0  0
 23 39  1  1  0  0  0
 23  7  1  0  0  0  0
 24 20  1  0  0  0  0
 25 11  1  0  0  0  0
 25 23  1  0  0  0  0
 26 27  2  0  0  0  0
 27 29  1  0  0  0  0
 28 32  1  0  0  0  0
 29 28  2  0  0  0  0
 32 30  1  0  0  0  0
 32 31  2  0  0  0  0
 33 34  1  0  0  0  0
 33 27  1  0  0  0  0
 35 37  1  0  0  0  0
 35 34  1  0  0  0  0
 36 35  2  0  0  0  0
 37 38  1  0  0  0  0
 39 40  1  0  0  0  0
M  END
>  <MODEL>
1

>  <REMARK>
 VINA RESULT:      -7.1      0.000      0.000
  Name = 
  7 active torsions:
  status: ('A' for Active; 'I' for Inactive)
    1  A    between atoms: N_1  and  C_31
    2  A    between atoms: N_7  and  C_34
    3  A    between atoms: C_13  and  C_26
    4  A    between atoms: C_13  and  C_34
    5  A    between atoms: O_14  and  C_16
    6  A    between atoms: N_19  and  C_36
    7  A    between atoms: S_27  and  C_37
                            x       y       z     vdW  Elec       q    Type
                         _______ _______ _______ _____ _____    ______ ____

>  <TORSDO>
F 7

$$$$
=
 OpenBabel11042413023D

 40 44  0  0  1  0  0  0  0  0999 V2000
  181.7280  184.8300  137.5970 C   0  0  0  0  0  1  0  0  0  0  0  0
  182.8210  180.2820  138.9380 N   0  0  0  0  0  0  0  0  0  0  0  0
  184.2570  178.2250  140.2420 N   0  0  0  0  0  0  0  0  0  0  0  0
  183.0350  177.9630  139.5440 C   0  0  0  0  0  0  0  0  0  0  0  0
  185.4710  178.2530  139.4750 C   0  0  0  0  0  3  0  0  0  0  0  0
  180.2730  182.4580  137.1440 S   0  0  0  0  0  0  0  0  0  0  0  0
  185.6640  178.6000  143.7520 C   0  0  0  0  0  2  0  0  0  0  0  0
  185.5730  178.8030  142.2530 C   0  0  2  0  0  3  0  0  0  0  0  0
  184.3080  178.1290  141.7130 C   0  0  1  0  0  3  0  0  0  0  0  0
  180.6180  177.4320  138.3350 N   0  0  0  0  0  0  0  0  0  0  0  0
  183.0890  178.7740  142.3610 C   0  0  0  0  0  2  0  0  0  0  0  0
  179.1570  179.4930  137.0610 O   0  0  0  0  0  1  0  0  0  0  0  0
  182.5140  176.7090  139.5340 N   0  0  0  0  0  0  0  0  0  0  0  0
  182.1170  181.2790  138.3480 C   0  0  0  0  0  0  0  0  0  0  0  0
  182.3470  178.9980  138.9110 C   0  0  0  0  0  0  0  0  0  0  0  0
  181.5770  183.3590  137.7520 C   0  0  0  0  0  0  0  0  0  0  0  0
  180.9170  181.0190  137.7080 C   0  0  0  0  0  0  0  0  0  0  0  0
  186.7960  178.2200  141.5660 C   0  0  0  0  0  2  0  0  0  0  0  0
  186.6700  178.3180  140.0600 C   0  0  0  0  0  0  0  0  0  0  0  0
  181.1090  178.7000  138.2840 C   0  0  0  0  0  0  0  0  0  0  0  0
  182.4900  182.5820  138.3860 N   0  0  0  0  0  0  0  0  0  0  0  0
  181.3180  176.4400  138.9470 C   0  0  0  0  0  3  0  0  0  0  0  0
  184.4420  179.2300  144.4180 C   0  0  1  0  0  3  0  0  0  0  0  0
  180.3800  179.7320  137.6720 C   0  0  0  0  0  0  0  0  0  0  0  0
  183.1580  178.6070  143.8740 C   0  0  0  0  0  2  0  0  0  0  0  0
  187.8370  178.2910  139.2290 N   0  0  0  0  0  0  0  0  0  0  0  0
  188.9190  177.5930  139.4540 C   0  0  0  0  0  0  0  0  0  0  0  0
  190.6730  176.5550  138.1860 N   0  0  0  0  0  0  0  0  0  0  0  0
  190.0280  177.6330  138.4940 C   0  0  0  0  0  3  0  0  0  0  0  0
  191.5220  176.1420  135.8020 C   0  0  0  0  0  1  0  0  0  0  0  0
  192.9040  176.8140  137.6150 O   0  0  0  0  0  0  0  0  0  0  0  0
  191.7430  176.5390  137.2320 C   0  0  0  0  0  0  0  0  0  0  0  0
  189.1020  176.8120  140.7120 C   0  0  0  0  0  2  0  0  0  0  0  0
  190.0690  177.4730  141.5700 N   0  0  0  0  0  2  0  0  0  0  0  0
  190.7650  176.7650  142.5870 C   0  0  0  0  0  0  0  0  0  0  0  0
  190.4190  175.5990  142.8950 O   0  0  0  0  0  0  0  0  0  0  0  0
  191.8410  177.3730  143.2250 O   0  0  0  0  0  0  0  0  0  0  0  0
  191.6870  178.5590  143.9900 C   0  0  0  0  0  1  0  0  0  0  0  0
  184.5230  179.0050  146.2170 S   0  0  0  0  0  0  0  0  0  0  0  0
  186.1290  178.1780  146.1170 C   0  0  0  0  0  1  0  0  0  0  0  0
  1 16  1  0  0  0  0
  3  9  1  0  0  0  0
  4  3  1  0  0  0  0
  5 19  2  0  0  0  0
  5  3  1  0  0  0  0
  6 17  1  0  0  0  0
  6 16  1  0  0  0  0
  7 23  1  0  0  0  0
  8 18  1  6  0  0  0
  8  7  1  0  0  0  0
  9  8  1  0  0  0  0
  9 11  1  1  0  0  0
 10 22  1  0  0  0  0
 11 25  1  0  0  0  0
 12 24  1  0  0  0  0
 13  4  1  0  0  0  0
 14 21  1  0  0  0  0
 14  2  2  0  0  0  0
 15  2  1  0  0  0  0
 15  4  2  0  0  0  0
 16 21  2  0  0  0  0
 17 14  1  0  0  0  0
 19 18  1  0  0  0  0
 20 10  2  0  0  0  0
 20 15  1  0  0  0  0
 22 13  2  0  0  0  0
 23 39  1  1  0  0  0
 24 17  2  0  0  0  0
 24 20  1  0  0  0  0
 25 23  1  0  0  0  0
 26 27  2  0  0  0  0
 26 19  1  0  0  0  0
 27 33  1  0  0  0  0
 28 29  2  0  0  0  0
 29 27  1  0  0  0  0
 30 32  1  0  0  0  0
 32 31  2  0  0  0  0
 32 28  1  0  0  0  0
 33 34  1  0  0  0  0
 34 35  1  0  0  0  0
 35 36  2  0  0  0  0
 35 37  1  0  0  0  0
 37 38  1  0  0  0  0
 40 39  1  0  0  0  0
M  END
>  <MODEL>
2

>  <REMARK>
 VINA RESULT:      -6.6      3.660      7.116
  Name = 
  7 active torsions:
  status: ('A' for Active; 'I' for Inactive)
    1  A    between atoms: N_1  and  C_31
    2  A    between atoms: N_7  and  C_34
    3  A    between atoms: C_13  and  C_26
    4  A    between atoms: C_13  and  C_34
    5  A    between atoms: O_14  and  C_16
    6  A    between atoms: N_19  and  C_36
    7  A    between atoms: S_27  and  C_37
                            x       y       z     vdW  Elec       q    Type
                         _______ _______ _______ _____ _____    ______ ____

>  <TORSDO>
F 7

$$$$
=
 OpenBabel11042413023D

 40 44  0  0  1  0  0  0  0  0999 V2000
  180.7460  179.0770  143.2130 C   0  0  0  0  0  1  0  0  0  0  0  0
  181.9420  178.1510  138.5880 N   0  0  0  0  0  0  0  0  0  0  0  0
  183.0940  176.7350  136.4290 N   0  0  0  0  0  0  0  0  0  0  0  0
  182.2640  177.8830  136.2190 C   0  0  0  0  0  0  0  0  0  0  0  0
  184.4850  176.9590  136.7070 C   0  0  0  0  0  3  0  0  0  0  0  0
  179.9290  180.4240  140.8750 S   0  0  0  0  0  0  0  0  0  0  0  0
  183.0500  172.9430  136.1950 C   0  0  0  0  0  2  0  0  0  0  0  0
  183.4830  174.3080  136.6900 C   0  0  2  0  0  3  0  0  0  0  0  0
  182.6180  175.3940  136.0410 C   0  0  1  0  0  3  0  0  0  0  0  0
  180.5630  179.9990  135.7550 N   0  0  0  0  0  0  0  0  0  0  0  0
  181.1650  175.1740  136.4440 C   0  0  0  0  0  2  0  0  0  0  0  0
  179.3760  181.3970  137.9100 O   0  0  0  0  0  1  0  0  0  0  0  0
  181.9770  178.2910  134.9560 N   0  0  0  0  0  0  0  0  0  0  0  0
  181.3610  178.8030  139.6250 C   0  0  0  0  0  0  0  0  0  0  0  0
  181.7080  178.5610  137.3030 C   0  0  0  0  0  0  0  0  0  0  0  0
  180.7700  179.2260  141.7340 C   0  0  0  0  0  0  0  0  0  0  0  0
  180.5300  179.8890  139.4070 C   0  0  0  0  0  0  0  0  0  0  0  0
  184.9450  174.5530  136.3550 C   0  0  0  0  0  2  0  0  0  0  0  0
  185.3640  175.9540  136.7460 C   0  0  0  0  0  0  0  0  0  0  0  0
  180.8440  179.6560  137.0410 C   0  0  0  0  0  0  0  0  0  0  0  0
  181.4950  178.4190  140.9190 N   0  0  0  0  0  0  0  0  0  0  0  0
  181.1320  179.3280  134.7180 C   0  0  0  0  0  3  0  0  0  0  0  0
  181.5900  172.7110  136.5790 C   0  0  1  0  0  3  0  0  0  0  0  0
  180.2420  180.3320  138.1160 C   0  0  0  0  0  0  0  0  0  0  0  0
  180.7020  173.7990  135.9800 C   0  0  0  0  0  2  0  0  0  0  0  0
  186.7430  176.2630  136.9790 N   0  0  0  0  0  0  0  0  0  0  0  0
  187.1940  177.2630  137.6900 C   0  0  0  0  0  0  0  0  0  0  0  0
  189.2820  176.7270  138.7440 N   0  0  0  0  0  0  0  0  0  0  0  0
  188.6390  177.4370  137.8750 C   0  0  0  0  0  3  0  0  0  0  0  0
  191.6800  176.3060  137.9370 C   0  0  0  0  0  1  0  0  0  0  0  0
  191.1270  177.3500  140.0000 O   0  0  0  0  0  0  0  0  0  0  0  0
  190.6980  176.8400  138.9390 C   0  0  0  0  0  0  0  0  0  0  0  0
  186.2790  178.2970  138.2560 C   0  0  0  0  0  2  0  0  0  0  0  0
  186.4740  178.3990  139.6910 N   0  0  0  0  0  2  0  0  0  0  0  0
  185.5330  179.0650  140.5230 C   0  0  0  0  0  0  0  0  0  0  0  0
  184.6110  179.7470  140.0130 O   0  0  0  0  0  0  0  0  0  0  0  0
  185.6370  178.9400  141.9030 O   0  0  0  0  0  0  0  0  0  0  0  0
  184.6620  178.2490  142.6700 C   0  0  0  0  0  1  0  0  0  0  0  0
  181.0430  171.0790  136.0010 S   0  0  0  0  0  0  0  0  0  0  0  0
  182.7090  170.6260  135.4640 C   0  0  0  0  0  1  0  0  0  0  0  0
  2 14  2  0  0  0  0
  3  5  1  0  0  0  0
  4  3  1  0  0  0  0
  4 15  1  0  0  0  0
  5 19  2  0  0  0  0
  6 16  1  0  0  0  0
  7 23  1  0  0  0  0
  8  7  1  6  0  0  0
  9  3  1  0  0  0  0
  9 11  1  1  0  0  0
  9  8  1  0  0  0  0
 10 20  1  0  0  0  0
 12 24  1  0  0  0  0
 13  4  2  0  0  0  0
 14 21  1  0  0  0  0
 15  2  1  0  0  0  0
 16  1  1  0  0  0  0
 17 14  1  0  0  0  0
 17  6  1  0  0  0  0
 18  8  1  0  0  0  0
 18 19  1  0  0  0  0
 19 26  1  0  0  0  0
 20 15  2  0  0  0  0
 20 24  1  0  0  0  0
 21 16  2  0  0  0  0
 22 13  1  0  0  0  0
 22 10  2  0  0  0  0
 23 39  1  6  0  0  0
 24 17  2  0  0  0  0
 25 11  1  0  0  0  0
 25 23  1  0  0  0  0
 26 27  2  0  0  0  0
 27 29  1  0  0  0  0
 27 33  1  0  0  0  0
 28 32  1  0  0  0  0
 29 28  2  0  0  0  0
 30 32  1  0  0  0  0
 32 31  2  0  0  0  0
 33 34  1  0  0  0  0
 34 35  1  0  0  0  0
 35 37  1  0  0  0  0
 36 35  2  0  0  0  0
 37 38  1  0  0  0  0
 40 39  1  0  0  0  0
M  END
>  <MODEL>
3

>  <REMARK>
 VINA RESULT:      -5.6      2.975      7.085
  Name = 
  7 active torsions:
  status: ('A' for Active; 'I' for Inactive)
    1  A    between atoms: N_1  and  C_31
    2  A    between atoms: N_7  and  C_34
    3  A    between atoms: C_13  and  C_26
    4  A    between atoms: C_13  and  C_34
    5  A    between atoms: O_14  and  C_16
    6  A    between atoms: N_19  and  C_36
    7  A    between atoms: S_27  and  C_37
                            x       y       z     vdW  Elec       q    Type
                         _______ _______ _______ _____ _____    ______ ____

>  <TORSDO>
F 7

$$$$
=
 OpenBabel11042413023D

 40 44  0  0  1  0  0  0  0  0999 V2000
  190.9420  175.9740  144.0490 C   0  0  0  0  0  1  0  0  0  0  0  0
  189.5480  176.4200  139.4080 N   0  0  0  0  0  0  0  0  0  0  0  0
  189.3880  175.7660  136.6610 N   0  0  0  0  0  0  0  0  0  0  0  0
  188.5890  176.8060  137.2350 C   0  0  0  0  0  0  0  0  0  0  0  0
  190.7250  176.0980  136.2550 C   0  0  0  0  0  3  0  0  0  0  0  0
  189.0520  177.7460  142.9350 S   0  0  0  0  0  0  0  0  0  0  0  0
  189.1660  172.1860  135.4060 C   0  0  0  0  0  2  0  0  0  0  0  0
  189.8160  173.4270  135.9840 C   0  0  2  0  0  3  0  0  0  0  0  0
  188.7580  174.5150  136.2000 C   0  0  1  0  0  3  0  0  0  0  0  0
  186.9300  178.7210  138.3150 N   0  0  0  0  0  0  0  0  0  0  0  0
  187.7210  174.0060  137.1940 C   0  0  0  0  0  2  0  0  0  0  0  0
  187.0570  179.3540  141.0700 O   0  0  0  0  0  1  0  0  0  0  0  0
  187.6950  177.4780  136.4650 N   0  0  0  0  0  0  0  0  0  0  0  0
  189.6000  176.7030  140.7330 C   0  0  0  0  0  0  0  0  0  0  0  0
  188.6870  177.1060  138.5930 C   0  0  0  0  0  0  0  0  0  0  0  0
  190.1970  176.4950  142.8720 C   0  0  0  0  0  0  0  0  0  0  0  0
  188.7950  177.6870  141.2820 C   0  0  0  0  0  0  0  0  0  0  0  0
  190.8960  173.9440  135.0480 C   0  0  0  0  0  2  0  0  0  0  0  0
  191.4800  175.2440  135.5590 C   0  0  0  0  0  0  0  0  0  0  0  0
  187.8310  178.1040  139.1260 C   0  0  0  0  0  0  0  0  0  0  0  0
  190.3800  176.0260  141.6110 N   0  0  0  0  0  0  0  0  0  0  0  0
  186.8660  178.4180  136.9910 C   0  0  0  0  0  3  0  0  0  0  0  0
  188.1140  171.6690  136.3850 C   0  0  1  0  0  3  0  0  0  0  0  0
  187.8860  178.3990  140.4990 C   0  0  0  0  0  0  0  0  0  0  0  0
  187.0620  172.7430  136.6540 C   0  0  0  0  0  2  0  0  0  0  0  0
  192.7850  175.6670  135.1460 N   0  0  0  0  0  0  0  0  0  0  0  0
  193.9030  175.4260  135.7790 C   0  0  0  0  0  0  0  0  0  0  0  0
  196.3000  175.5430  135.7560 N   0  0  0  0  0  0  0  0  0  0  0  0
  195.1760  175.8910  135.2180 C   0  0  0  0  0  3  0  0  0  0  0  0
  198.7390  175.0090  135.1710 C   0  0  0  0  0  1  0  0  0  0  0  0
  197.7200  177.1320  134.8470 O   0  0  0  0  0  0  0  0  0  0  0  0
  197.5690  175.9470  135.2250 C   0  0  0  0  0  0  0  0  0  0  0  0
  193.9200  174.7600  137.1150 C   0  0  0  0  0  2  0  0  0  0  0  0
  194.2650  173.3580  136.9650 N   0  0  0  0  0  2  0  0  0  0  0  0
  195.0960  172.6930  137.9070 C   0  0  0  0  0  0  0  0  0  0  0  0
  195.7070  173.3500  138.7840 O   0  0  0  0  0  0  0  0  0  0  0  0
  195.2100  171.3090  137.8550 O   0  0  0  0  0  0  0  0  0  0  0  0
  196.4350  170.6680  137.5320 C   0  0  0  0  0  1  0  0  0  0  0  0
  187.3190  170.1790  135.7210 S   0  0  0  0  0  0  0  0  0  0  0  0
  185.9340  171.1270  135.0470 C   0  0  0  0  0  1  0  0  0  0  0  0
  2 14  2  0  0  0  0
  3  4  1  0  0  0  0
  4 15  1  0  0  0  0
  5  3  1  0  0  0  0
  7  8  1  0  0  0  0
  7 23  1  0  0  0  0
  8 18  1  6  0  0  0
  8  9  1  0  0  0  0
  9  3  1  0  0  0  0
  9 11  1  1  0  0  0
 10 20  1  0  0  0  0
 13 22  1  0  0  0  0
 13  4  2  0  0  0  0
 14 17  1  0  0  0  0
 14 21  1  0  0  0  0
 15 20  2  0  0  0  0
 15  2  1  0  0  0  0
 16  6  1  0  0  0  0
 16  1  1  0  0  0  0
 17  6  1  0  0  0  0
 18 19  1  0  0  0  0
 19  5  2  0  0  0  0
 20 24  1  0  0  0  0
 21 16  2  0  0  0  0
 22 10  2  0  0  0  0
 23 39  1  6  0  0  0
 23 25  1  0  0  0  0
 24 12  1  0  0  0  0
 24 17  2  0  0  0  0
 25 11  1  0  0  0  0
 26 19  1  0  0  0  0
 26 27  2  0  0  0  0
 27 33  1  0  0  0  0
 29 28  2  0  0  0  0
 29 27  1  0  0  0  0
 30 32  1  0  0  0  0
 31 32  2  0  0  0  0
 32 28  1  0  0  0  0
 34 33  1  0  0  0  0
 34 35  1  0  0  0  0
 35 36  2  0  0  0  0
 37 35  1  0  0  0  0
 38 37  1  0  0  0  0
 40 39  1  0  0  0  0
M  END
>  <MODEL>
4

>  <REMARK>
 VINA RESULT:      -5.6      5.461     10.339
  Name = 
  7 active torsions:
  status: ('A' for Active; 'I' for Inactive)
    1  A    between atoms: N_1  and  C_31
    2  A    between atoms: N_7  and  C_34
    3  A    between atoms: C_13  and  C_26
    4  A    between atoms: C_13  and  C_34
    5  A    between atoms: O_14  and  C_16
    6  A    between atoms: N_19  and  C_36
    7  A    between atoms: S_27  and  C_37
                            x       y       z     vdW  Elec       q    Type
                         _______ _______ _______ _____ _____    ______ ____

>  <TORSDO>
F 7

$$$$
=
 OpenBabel11042413023D

 40 44  0  0  1  0  0  0  0  0999 V2000
  196.6050  179.0010  134.9580 C   0  0  0  0  0  1  0  0  0  0  0  0
  192.9260  176.1910  136.4550 N   0  0  0  0  0  0  0  0  0  0  0  0
  190.3950  175.5820  137.5600 N   0  0  0  0  0  0  0  0  0  0  0  0
  191.2230  174.5710  136.9740 C   0  0  0  0  0  0  0  0  0  0  0  0
  190.6390  175.9320  138.9310 C   0  0  0  0  0  3  0  0  0  0  0  0
  196.2690  176.2190  134.6460 S   0  0  0  0  0  0  0  0  0  0  0  0
  187.2920  177.6620  136.8680 C   0  0  0  0  0  2  0  0  0  0  0  0
  188.6330  177.3130  137.4820 C   0  0  2  0  0  3  0  0  0  0  0  0
  189.1430  175.9920  136.8970 C   0  0  1  0  0  3  0  0  0  0  0  0
  192.7160  172.6160  135.7360 N   0  0  0  0  0  0  0  0  0  0  0  0
  189.3290  176.1550  135.3940 C   0  0  0  0  0  2  0  0  0  0  0  0
  195.2320  173.2250  134.5940 O   0  0  0  0  0  1  0  0  0  0  0  0
  190.7800  173.2900  136.9000 N   0  0  0  0  0  0  0  0  0  0  0  0
  194.1210  176.4950  135.8920 C   0  0  0  0  0  0  0  0  0  0  0  0
  192.4670  174.9010  136.4350 C   0  0  0  0  0  0  0  0  0  0  0  0
  195.8030  177.7670  135.1650 C   0  0  0  0  0  0  0  0  0  0  0  0
  194.8960  175.5140  135.2960 C   0  0  0  0  0  0  0  0  0  0  0  0
  188.5070  177.1890  138.9910 C   0  0  0  0  0  2  0  0  0  0  0  0
  189.8130  176.7350  139.6080 C   0  0  0  0  0  0  0  0  0  0  0  0
  193.2240  173.8750  135.8120 C   0  0  0  0  0  0  0  0  0  0  0  0
  194.6130  177.7560  135.8170 N   0  0  0  0  0  0  0  0  0  0  0  0
  191.5060  172.3210  136.2820 C   0  0  0  0  0  3  0  0  0  0  0  0
  187.4570  177.8180  135.3580 C   0  0  1  0  0  3  0  0  0  0  0  0
  194.4630  174.1890  135.2290 C   0  0  0  0  0  0  0  0  0  0  0  0
  188.0020  176.5290  134.7450 C   0  0  0  0  0  2  0  0  0  0  0  0
  190.0960  176.9970  140.9880 N   0  0  0  0  0  0  0  0  0  0  0  0
  189.4200  177.8000  141.7670 C   0  0  0  0  0  0  0  0  0  0  0  0
  189.4840  177.0390  144.0430 N   0  0  0  0  0  0  0  0  0  0  0  0
  189.8020  177.9450  143.1760 C   0  0  0  0  0  3  0  0  0  0  0  0
  191.2570  176.8150  145.8820 C   0  0  0  0  0  1  0  0  0  0  0  0
  188.9890  177.4070  146.2760 O   0  0  0  0  0  0  0  0  0  0  0  0
  189.8610  177.1220  145.4230 C   0  0  0  0  0  0  0  0  0  0  0  0
  188.3090  178.6490  141.2450 C   0  0  0  0  0  2  0  0  0  0  0  0
  187.0770  178.3430  141.9500 N   0  0  0  0  0  2  0  0  0  0  0  0
  185.8070  178.6790  141.4060 C   0  0  0  0  0  0  0  0  0  0  0  0
  185.7300  179.4200  140.3960 O   0  0  0  0  0  0  0  0  0  0  0  0
  184.6580  178.1650  141.9950 O   0  0  0  0  0  0  0  0  0  0  0  0
  183.9440  178.8780  142.9940 C   0  0  0  0  0  1  0  0  0  0  0  0
  185.8650  178.2390  134.5940 S   0  0  0  0  0  0  0  0  0  0  0  0
  185.1670  176.6140  134.9730 C   0  0  0  0  0  1  0  0  0  0  0  0
  1 16  1  0  0  0  0
  3  5  1  0  0  0  0
  4  3  1  0  0  0  0
  5 19  2  0  0  0  0
  6 16  1  0  0  0  0
  6 17  1  0  0  0  0
  8  7  1  6  0  0  0
  8 18  1  0  0  0  0
  9 11  1  6  0  0  0
  9  8  1  0  0  0  0
  9  3  1  0  0  0  0
 10 20  2  0  0  0  0
 10 22  1  0  0  0  0
 12 24  1  0  0  0  0
 13  4  1  0  0  0  0
 14  2  2  0  0  0  0
 15  2  1  0  0  0  0
 15  4  2  0  0  0  0
 16 21  2  0  0  0  0
 17 14  1  0  0  0  0
 18 19  1  0  0  0  0
 19 26  1  0  0  0  0
 20 15  1  0  0  0  0
 21 14  1  0  0  0  0
 22 13  2  0  0  0  0
 23 39  1  6  0  0  0
 23  7  1  0  0  0  0
 24 17  2  0  0  0  0
 24 20  1  0  0  0  0
 25 23  1  0  0  0  0
 25 11  1  0  0  0  0
 26 27  2  0  0  0  0
 27 29  1  0  0  0  0
 28 32  1  0  0  0  0
 29 28  2  0  0  0  0
 32 30  1  0  0  0  0
 32 31  2  0  0  0  0
 33 27  1  0  0  0  0
 33 34  1  0  0  0  0
 35 34  1  0  0  0  0
 35 37  1  0  0  0  0
 36 35  2  0  0  0  0
 37 38  1  0  0  0  0
 39 40  1  0  0  0  0
M  END
>  <MODEL>
5

>  <REMARK>
 VINA RESULT:      -5.5      4.705      7.628
  Name = 
  7 active torsions:
  status: ('A' for Active; 'I' for Inactive)
    1  A    between atoms: N_1  and  C_31
    2  A    between atoms: N_7  and  C_34
    3  A    between atoms: C_13  and  C_26
    4  A    between atoms: C_13  and  C_34
    5  A    between atoms: O_14  and  C_16
    6  A    between atoms: N_19  and  C_36
    7  A    between atoms: S_27  and  C_37
                            x       y       z     vdW  Elec       q    Type
                         _______ _______ _______ _____ _____    ______ ____

>  <TORSDO>
F 7

$$$$
=
 OpenBabel11042413023D

 40 44  0  0  1  0  0  0  0  0999 V2000
  187.5180  178.6440  141.0160 C   0  0  0  0  0  1  0  0  0  0  0  0
  182.6610  178.5120  141.2810 N   0  0  0  0  0  0  0  0  0  0  0  0
  180.0100  178.1720  140.3580 N   0  0  0  0  0  0  0  0  0  0  0  0
  180.3030  178.3870  141.7430 C   0  0  0  0  0  0  0  0  0  0  0  0
  179.8970  179.3270  139.5130 C   0  0  0  0  0  3  0  0  0  0  0  0
  185.8680  178.8640  143.2910 S   0  0  0  0  0  0  0  0  0  0  0  0
  179.0150  175.4400  137.9120 C   0  0  0  0  0  2  0  0  0  0  0  0
  179.6300  176.7450  138.3770 C   0  0  2  0  0  3  0  0  0  0  0  0
  179.5130  176.8620  139.9000 C   0  0  1  0  0  3  0  0  0  0  0  0
  180.8230  178.6590  144.4340 N   0  0  0  0  0  0  0  0  0  0  0  0
  180.2780  175.7120  140.5440 C   0  0  0  0  0  2  0  0  0  0  0  0
  183.4760  178.9620  145.3690 O   0  0  0  0  0  1  0  0  0  0  0  0
  179.2980  178.3880  142.6570 N   0  0  0  0  0  0  0  0  0  0  0  0
  183.9370  178.6370  141.7230 C   0  0  0  0  0  0  0  0  0  0  0  0
  181.6200  178.5510  142.1700 C   0  0  0  0  0  0  0  0  0  0  0  0
  186.1650  178.6650  141.6320 C   0  0  0  0  0  0  0  0  0  0  0  0
  184.2090  178.8080  143.0700 C   0  0  0  0  0  0  0  0  0  0  0  0
  178.9310  177.9220  137.7190 C   0  0  0  0  0  2  0  0  0  0  0  0
  179.4610  179.2360  138.2530 C   0  0  0  0  0  0  0  0  0  0  0  0
  181.8640  178.7010  143.5600 C   0  0  0  0  0  0  0  0  0  0  0  0
  185.0200  178.5470  140.9130 N   0  0  0  0  0  0  0  0  0  0  0  0
  179.5470  178.5130  143.9880 C   0  0  0  0  0  3  0  0  0  0  0  0
  179.7630  174.2760  138.5590 C   0  0  1  0  0  3  0  0  0  0  0  0
  183.1860  178.8300  144.0180 C   0  0  0  0  0  0  0  0  0  0  0  0
  179.6990  174.3810  140.0820 C   0  0  0  0  0  2  0  0  0  0  0  0
  179.3280  180.4390  137.4880 N   0  0  0  0  0  0  0  0  0  0  0  0
  180.1730  180.8730  136.5910 C   0  0  0  0  0  0  0  0  0  0  0  0
  180.5640  183.1870  136.0890 N   0  0  0  0  0  0  0  0  0  0  0  0
  179.8890  182.1090  135.8540 C   0  0  0  0  0  3  0  0  0  0  0  0
  179.0850  184.6530  134.5940 C   0  0  0  0  0  1  0  0  0  0  0  0
  181.2480  185.2760  135.3570 O   0  0  0  0  0  0  0  0  0  0  0  0
  180.3430  184.4100  135.3750 C   0  0  0  0  0  0  0  0  0  0  0  0
  181.4770  180.1880  136.3470 C   0  0  0  0  0  2  0  0  0  0  0  0
  181.3160  179.1620  135.3330 N   0  0  0  0  0  2  0  0  0  0  0  0
  181.6360  177.8020  135.5960 C   0  0  0  0  0  0  0  0  0  0  0  0
  182.2480  177.4890  136.6470 O   0  0  0  0  0  0  0  0  0  0  0  0
  181.2520  176.8240  134.6860 O   0  0  0  0  0  0  0  0  0  0  0  0
  181.4430  175.4410  134.9440 C   0  0  0  0  0  1  0  0  0  0  0  0
  179.0500  172.6960  138.0190 S   0  0  0  0  0  0  0  0  0  0  0  0
  180.6670  172.0460  137.5340 C   0  0  0  0  0  1  0  0  0  0  0  0
  1 16  1  0  0  0  0
  2 14  2  0  0  0  0
  2 15  1  0  0  0  0
  3  4  1  0  0  0  0
  4 15  2  0  0  0  0
  4 13  1  0  0  0  0
  5  3  1  0  0  0  0
  7  8  1  0  0  0  0
  7 23  1  0  0  0  0
  8 18  1  6  0  0  0
  8  9  1  0  0  0  0
  9  3  1  0  0  0  0
  9 11  1  1  0  0  0
 13 22  2  0  0  0  0
 14 17  1  0  0  0  0
 15 20  1  0  0  0  0
 16  6  1  0  0  0  0
 17  6  1  0  0  0  0
 17 24  2  0  0  0  0
 18 19  1  0  0  0  0
 19  5  2  0  0  0  0
 20 24  1  0  0  0  0
 20 10  2  0  0  0  0
 21 16  2  0  0  0  0
 21 14  1  0  0  0  0
 22 10  1  0  0  0  0
 23 39  1  1  0  0  0
 23 25  1  0  0  0  0
 24 12  1  0  0  0  0
 25 11  1  0  0  0  0
 26 19  1  0  0  0  0
 27 26  2  0  0  0  0
 29 28  2  0  0  0  0
 29 27  1  0  0  0  0
 30 32  1  0  0  0  0
 31 32  2  0  0  0  0
 32 28  1  0  0  0  0
 33 27  1  0  0  0  0
 34 35  1  0  0  0  0
 34 33  1  0  0  0  0
 35 36  2  0  0  0  0
 37 38  1  0  0  0  0
 37 35  1  0  0  0  0
 40 39  1  0  0  0  0
M  END
>  <MODEL>
6

>  <REMARK>
 VINA RESULT:      -5.5      4.060      8.302
  Name = 
  7 active torsions:
  status: ('A' for Active; 'I' for Inactive)
    1  A    between atoms: N_1  and  C_31
    2  A    between atoms: N_7  and  C_34
    3  A    between atoms: C_13  and  C_26
    4  A    between atoms: C_13  and  C_34
    5  A    between atoms: O_14  and  C_16
    6  A    between atoms: N_19  and  C_36
    7  A    between atoms: S_27  and  C_37
                            x       y       z     vdW  Elec       q    Type
                         _______ _______ _______ _____ _____    ______ ____

>  <TORSDO>
F 7

$$$$
=
 OpenBabel11042413023D

 40 44  0  0  1  0  0  0  0  0999 V2000
  181.8940  184.9500  137.6180 C   0  0  0  0  0  1  0  0  0  0  0  0
  182.8820  180.3610  138.8980 N   0  0  0  0  0  0  0  0  0  0  0  0
  184.3140  178.2450  140.1120 N   0  0  0  0  0  0  0  0  0  0  0  0
  183.0380  178.0350  139.4960 C   0  0  0  0  0  0  0  0  0  0  0  0
  185.4750  178.2230  139.2670 C   0  0  0  0  0  3  0  0  0  0  0  0
  180.3150  182.6410  137.2680 S   0  0  0  0  0  0  0  0  0  0  0  0
  185.9600  178.5620  143.5210 C   0  0  0  0  0  2  0  0  0  0  0  0
  185.7800  178.7690  142.0310 C   0  0  2  0  0  3  0  0  0  0  0  0
  184.4560  178.1480  141.5760 C   0  0  1  0  0  3  0  0  0  0  0  0
  180.5280  177.6050  138.4470 N   0  0  0  0  0  0  0  0  0  0  0  0
  183.3090  178.8430  142.3010 C   0  0  0  0  0  2  0  0  0  0  0  0
  179.0730  179.7250  137.2660 O   0  0  0  0  0  1  0  0  0  0  0  0
  182.4670  176.8040  139.5230 N   0  0  0  0  0  0  0  0  0  0  0  0
  182.1830  181.3860  138.3520 C   0  0  0  0  0  0  0  0  0  0  0  0
  182.3540  179.0970  138.9060 C   0  0  0  0  0  0  0  0  0  0  0  0
  181.6920  183.4870  137.7870 C   0  0  0  0  0  0  0  0  0  0  0  0
  180.9340  181.1760  137.7920 C   0  0  0  0  0  0  0  0  0  0  0  0
  186.9310  178.1340  141.2670 C   0  0  0  0  0  2  0  0  0  0  0  0
  186.7110  178.2380  139.7720 C   0  0  0  0  0  0  0  0  0  0  0  0
  181.0670  178.8510  138.3620 C   0  0  0  0  0  0  0  0  0  0  0  0
  182.6120  182.6720  138.3620 N   0  0  0  0  0  0  0  0  0  0  0  0
  181.2240  176.5850  139.0160 C   0  0  0  0  0  3  0  0  0  0  0  0
  184.8120  179.2420  144.2630 C   0  0  1  0  0  3  0  0  0  0  0  0
  180.3430  179.9130  137.7950 C   0  0  0  0  0  0  0  0  0  0  0  0
  183.4700  178.6730  143.8060 C   0  0  0  0  0  2  0  0  0  0  0  0
  187.8190  178.1620  138.8680 N   0  0  0  0  0  0  0  0  0  0  0  0
  187.9840  177.2620  137.9340 C   0  0  0  0  0  0  0  0  0  0  0  0
  189.9660  176.3260  136.9570 N   0  0  0  0  0  0  0  0  0  0  0  0
  189.1540  177.3290  137.0520 C   0  0  0  0  0  3  0  0  0  0  0  0
  190.9610  176.3110  134.5940 C   0  0  0  0  0  1  0  0  0  0  0  0
  192.2540  176.3030  136.5880 O   0  0  0  0  0  0  0  0  0  0  0  0
  191.1050  176.3330  136.0870 C   0  0  0  0  0  0  0  0  0  0  0  0
  187.0530  176.1060  137.7870 C   0  0  0  0  0  2  0  0  0  0  0  0
  186.1710  176.3190  136.6530 N   0  0  0  0  0  2  0  0  0  0  0  0
  185.1500  175.3880  136.3200 C   0  0  0  0  0  0  0  0  0  0  0  0
  185.1120  174.2660  136.8820 O   0  0  0  0  0  0  0  0  0  0  0  0
  184.1880  175.7400  135.3810 O   0  0  0  0  0  0  0  0  0  0  0  0
  183.0930  176.5820  135.7070 C   0  0  0  0  0  1  0  0  0  0  0  0
  185.0010  179.0140  146.0540 S   0  0  0  0  0  0  0  0  0  0  0  0
  186.4270  177.9220  145.8410 C   0  0  0  0  0  1  0  0  0  0  0  0
  1 16  1  0  0  0  0
  2 15  1  0  0  0  0
  3  9  1  0  0  0  0
  4 13  1  0  0  0  0
  4  3  1  0  0  0  0
  5 19  2  0  0  0  0
  5  3  1  0  0  0  0
  6 16  1  0  0  0  0
  6 17  1  0  0  0  0
  7 23  1  0  0  0  0
  8 18  1  6  0  0  0
  8  7  1  0  0  0  0
  9  8  1  0  0  0  0
  9 11  1  1  0  0  0
 10 22  1  0  0  0  0
 11 25  1  0  0  0  0
 12 24  1  0  0  0  0
 14 21  1  0  0  0  0
 14  2  2  0  0  0  0
 15  4  2  0  0  0  0
 16 21  2  0  0  0  0
 17 24  2  0  0  0  0
 17 14  1  0  0  0  0
 19 18  1  0  0  0  0
 20 10  2  0  0  0  0
 20 15  1  0  0  0  0
 22 13  2  0  0  0  0
 23 39  1  1  0  0  0
 24 20  1  0  0  0  0
 25 23  1  0  0  0  0
 26 19  1  0  0  0  0
 27 26  2  0  0  0  0
 28 29  2  0  0  0  0
 29 27  1  0  0  0  0
 30 32  1  0  0  0  0
 32 31  2  0  0  0  0
 32 28  1  0  0  0  0
 33 27  1  0  0  0  0
 34 33  1  0  0  0  0
 35 34  1  0  0  0  0
 35 36  2  0  0  0  0
 37 38  1  0  0  0  0
 37 35  1  0  0  0  0
 40 39  1  0  0  0  0
M  END
>  <MODEL>
7

>  <REMARK>
 VINA RESULT:      -5.5      3.304      7.558
  Name = 
  7 active torsions:
  status: ('A' for Active; 'I' for Inactive)
    1  A    between atoms: N_1  and  C_31
    2  A    between atoms: N_7  and  C_34
    3  A    between atoms: C_13  and  C_26
    4  A    between atoms: C_13  and  C_34
    5  A    between atoms: O_14  and  C_16
    6  A    between atoms: N_19  and  C_36
    7  A    between atoms: S_27  and  C_37
                            x       y       z     vdW  Elec       q    Type
                         _______ _______ _______ _____ _____    ______ ____

>  <TORSDO>
F 7

$$$$
=
 OpenBabel11042413023D

 40 44  0  0  1  0  0  0  0  0999 V2000
  184.1550  178.2730  145.9480 C   0  0  0  0  0  1  0  0  0  0  0  0
  184.0970  178.3070  141.0830 N   0  0  0  0  0  0  0  0  0  0  0  0
  182.9690  178.4110  138.4910 N   0  0  0  0  0  0  0  0  0  0  0  0
  184.3860  178.4410  138.6970 C   0  0  0  0  0  0  0  0  0  0  0  0
  182.3270  177.1270  138.4550 C   0  0  0  0  0  3  0  0  0  0  0  0
  186.3300  178.3920  144.1570 S   0  0  0  0  0  0  0  0  0  0  0  0
  180.0390  180.6630  137.6090 C   0  0  0  0  0  2  0  0  0  0  0  0
  180.7550  179.4730  138.2160 C   0  0  2  0  0  3  0  0  0  0  0  0
  182.2650  179.6110  138.0020 C   0  0  1  0  0  3  0  0  0  0  0  0
  187.1110  178.6400  139.0460 N   0  0  0  0  0  0  0  0  0  0  0  0
  182.7510  180.8740  138.7030 C   0  0  0  0  0  2  0  0  0  0  0  0
  188.2440  178.5760  141.6380 O   0  0  0  0  0  1  0  0  0  0  0  0
  185.2230  178.5650  137.6360 N   0  0  0  0  0  0  0  0  0  0  0  0
  184.6300  178.2960  142.3290 C   0  0  0  0  0  0  0  0  0  0  0  0
  184.9140  178.3890  139.9870 C   0  0  0  0  0  0  0  0  0  0  0  0
  184.6820  178.3170  144.5580 C   0  0  0  0  0  0  0  0  0  0  0  0
  186.0010  178.3620  142.5160 C   0  0  0  0  0  0  0  0  0  0  0  0
  180.2650  178.1820  137.5820 C   0  0  0  0  0  2  0  0  0  0  0  0
  181.0460  176.9930  138.1000 C   0  0  0  0  0  0  0  0  0  0  0  0
  186.3210  178.4820  140.1430 C   0  0  0  0  0  0  0  0  0  0  0  0
  183.8850  178.2790  143.4610 N   0  0  0  0  0  0  0  0  0  0  0  0
  186.5690  178.6730  137.7990 C   0  0  0  0  0  3  0  0  0  0  0  0
  180.5230  181.9400  138.2920 C   0  0  1  0  0  3  0  0  0  0  0  0
  186.8750  178.4700  141.4340 C   0  0  0  0  0  0  0  0  0  0  0  0
  182.0350  182.0910  138.1310 C   0  0  0  0  0  2  0  0  0  0  0  0
  180.4900  175.6740  138.0390 N   0  0  0  0  0  0  0  0  0  0  0  0
  180.5260  174.8760  137.0040 C   0  0  0  0  0  0  0  0  0  0  0  0
  180.3740  172.5750  136.3390 N   0  0  0  0  0  0  0  0  0  0  0  0
  179.9450  173.5320  137.0960 C   0  0  0  0  0  3  0  0  0  0  0  0
  180.3520  170.1490  135.5100 C   0  0  0  0  0  1  0  0  0  0  0  0
  178.9310  170.9900  137.2190 O   0  0  0  0  0  0  0  0  0  0  0  0
  179.8580  171.2400  136.4130 C   0  0  0  0  0  0  0  0  0  0  0  0
  181.0720  175.3220  135.6890 C   0  0  0  0  0  2  0  0  0  0  0  0
  182.4900  175.0170  135.6110 N   0  0  0  0  0  2  0  0  0  0  0  0
  183.4560  176.0340  135.3770 C   0  0  0  0  0  0  0  0  0  0  0  0
  183.0900  177.1860  135.0400 O   0  0  0  0  0  0  0  0  0  0  0  0
  184.8040  175.7400  135.5400 O   0  0  0  0  0  0  0  0  0  0  0  0
  185.2870  175.0310  136.6720 C   0  0  0  0  0  1  0  0  0  0  0  0
  179.6800  183.3860  137.5870 S   0  0  0  0  0  0  0  0  0  0  0  0
  181.2420  184.1350  137.0640 C   0  0  0  0  0  1  0  0  0  0  0  0
  2 14  2  0  0  0  0
  3  4  1  0  0  0  0
  4 15  1  0  0  0  0
  5  3  1  0  0  0  0
  6 16  1  0  0  0  0
  7  8  1  0  0  0  0
  7 23  1  0  0  0  0
  8 18  1  6  0  0  0
  9  8  1  0  0  0  0
  9  3  1  0  0  0  0
  9 11  1  1  0  0  0
 10 20  1  0  0  0  0
 13 22  1  0  0  0  0
 13  4  2  0  0  0  0
 14 17  1  0  0  0  0
 14 21  1  0  0  0  0
 15 20  2  0  0  0  0
 15  2  1  0  0  0  0
 16  1  1  0  0  0  0
 17  6  1  0  0  0  0
 18 19  1  0  0  0  0
 19  5  2  0  0  0  0
 20 24  1  0  0  0  0
 21 16  2  0  0  0  0
 22 10  2  0  0  0  0
 23 39  1  6  0  0  0
 24 12  1  0  0  0  0
 24 17  2  0  0  0  0
 25 23  1  0  0  0  0
 25 11  1  0  0  0  0
 26 19  1  0  0  0  0
 27 29  1  0  0  0  0
 27 26  2  0  0  0  0
 28 32  1  0  0  0  0
 28 29  2  0  0  0  0
 30 32  1  0  0  0  0
 32 31  2  0  0  0  0
 33 27  1  0  0  0  0
 34 33  1  0  0  0  0
 35 37  1  0  0  0  0
 35 34  1  0  0  0  0
 36 35  2  0  0  0  0
 37 38  1  0  0  0  0
 40 39  1  0  0  0  0
M  END
>  <MODEL>
8

>  <REMARK>
 VINA RESULT:      -5.2      2.743      7.476
  Name = 
  7 active torsions:
  status: ('A' for Active; 'I' for Inactive)
    1  A    between atoms: N_1  and  C_31
    2  A    between atoms: N_7  and  C_34
    3  A    between atoms: C_13  and  C_26
    4  A    between atoms: C_13  and  C_34
    5  A    between atoms: O_14  and  C_16
    6  A    between atoms: N_19  and  C_36
    7  A    between atoms: S_27  and  C_37
                            x       y       z     vdW  Elec       q    Type
                         _______ _______ _______ _____ _____    ______ ____

>  <TORSDO>
F 7

$$$$
=
 OpenBabel11042413023D

 40 44  0  0  1  0  0  0  0  0999 V2000
  180.5370  178.5780  143.3210 C   0  0  0  0  0  1  0  0  0  0  0  0
  181.7700  177.4120  138.7600 N   0  0  0  0  0  0  0  0  0  0  0  0
  182.7310  175.7860  136.6560 N   0  0  0  0  0  0  0  0  0  0  0  0
  182.1590  177.0750  136.4090 C   0  0  0  0  0  0  0  0  0  0  0  0
  184.1210  175.7290  137.0090 C   0  0  0  0  0  3  0  0  0  0  0  0
  180.1310  180.0510  140.9510 S   0  0  0  0  0  0  0  0  0  0  0  0
  181.9440  172.0770  136.3960 C   0  0  0  0  0  2  0  0  0  0  0  0
  182.6140  173.3310  136.9220 C   0  0  2  0  0  3  0  0  0  0  0  0
  182.0190  174.5650  136.2350 C   0  0  1  0  0  3  0  0  0  0  0  0
  180.9420  179.4860  135.8690 N   0  0  0  0  0  0  0  0  0  0  0  0
  180.5310  174.6410  136.5580 C   0  0  0  0  0  2  0  0  0  0  0  0
  179.9440  181.1020  137.9670 O   0  0  0  0  0  1  0  0  0  0  0  0
  182.0270  177.5260  135.1360 N   0  0  0  0  0  0  0  0  0  0  0  0
  181.2760  178.1710  139.7690 C   0  0  0  0  0  0  0  0  0  0  0  0
  181.6920  177.8550  137.4670 C   0  0  0  0  0  0  0  0  0  0  0  0
  180.6700  178.7130  141.8460 C   0  0  0  0  0  0  0  0  0  0  0  0
  180.6920  179.4010  139.5130 C   0  0  0  0  0  0  0  0  0  0  0  0
  184.1110  173.2770  136.6670 C   0  0  0  0  0  2  0  0  0  0  0  0
  184.7790  174.5690  137.0890 C   0  0  0  0  0  0  0  0  0  0  0  0
  181.0790  179.0990  137.1660 C   0  0  0  0  0  0  0  0  0  0  0  0
  181.2610  177.7740  141.0650 N   0  0  0  0  0  0  0  0  0  0  0  0
  181.4200  178.7110  134.8600 C   0  0  0  0  0  3  0  0  0  0  0  0
  180.4490  172.1430  136.7000 C   0  0  1  0  0  3  0  0  0  0  0  0
  180.5680  179.8870  138.2110 C   0  0  0  0  0  0  0  0  0  0  0  0
  179.8280  173.3840  136.0620 C   0  0  0  0  0  2  0  0  0  0  0  0
  186.1780  174.5970  137.3980 N   0  0  0  0  0  0  0  0  0  0  0  0
  187.0800  175.3230  136.7920 C   0  0  0  0  0  0  0  0  0  0  0  0
  188.8820  176.0320  138.2100 N   0  0  0  0  0  0  0  0  0  0  0  0
  188.4760  175.2790  137.2400 C   0  0  0  0  0  3  0  0  0  0  0  0
  190.7040  176.9500  139.7630 C   0  0  0  0  0  1  0  0  0  0  0  0
  191.0430  175.1980  138.1930 O   0  0  0  0  0  0  0  0  0  0  0  0
  190.2280  176.0020  138.7020 C   0  0  0  0  0  0  0  0  0  0  0  0
  186.7490  176.1430  135.5900 C   0  0  0  0  0  2  0  0  0  0  0  0
  187.4230  177.4260  135.6630 N   0  0  0  0  0  2  0  0  0  0  0  0
  187.0630  178.3990  136.6350 C   0  0  0  0  0  0  0  0  0  0  0  0
  186.0260  178.2480  137.3250 O   0  0  0  0  0  0  0  0  0  0  0  0
  187.8790  179.5090  136.8210 O   0  0  0  0  0  0  0  0  0  0  0  0
  189.0560  179.4510  137.6140 C   0  0  0  0  0  1  0  0  0  0  0  0
  179.6180  170.6510  136.0830 S   0  0  0  0  0  0  0  0  0  0  0  0
  181.1200  170.0630  135.2630 C   0  0  0  0  0  1  0  0  0  0  0  0
  2 14  2  0  0  0  0
  3  5  1  0  0  0  0
  4  3  1  0  0  0  0
  4 15  1  0  0  0  0
  5 19  2  0  0  0  0
  6 16  1  0  0  0  0
  7 23  1  0  0  0  0
  8  7  1  6  0  0  0
  9 11  1  1  0  0  0
  9  3  1  0  0  0  0
  9  8  1  0  0  0  0
 10 20  1  0  0  0  0
 12 24  1  0  0  0  0
 13  4  2  0  0  0  0
 14 21  1  0  0  0  0
 15  2  1  0  0  0  0
 16  1  1  0  0  0  0
 17 14  1  0  0  0  0
 17  6  1  0  0  0  0
 18  8  1  0  0  0  0
 18 19  1  0  0  0  0
 19 26  1  0  0  0  0
 20 15  2  0  0  0  0
 20 24  1  0  0  0  0
 21 16  2  0  0  0  0
 22 13  1  0  0  0  0
 22 10  2  0  0  0  0
 23 39  1  6  0  0  0
 24 17  2  0  0  0  0
 25 11  1  0  0  0  0
 25 23  1  0  0  0  0
 27 29  1  0  0  0  0
 27 26  2  0  0  0  0
 28 32  1  0  0  0  0
 29 28  2  0  0  0  0
 31 32  2  0  0  0  0
 32 30  1  0  0  0  0
 33 34  1  0  0  0  0
 33 27  1  0  0  0  0
 34 35  1  0  0  0  0
 35 37  1  0  0  0  0
 35 36  2  0  0  0  0
 37 38  1  0  0  0  0
 40 39  1  0  0  0  0
M  END
>  <MODEL>
9

>  <REMARK>
 VINA RESULT:      -4.8      3.622      7.260
  Name = 
  7 active torsions:
  status: ('A' for Active; 'I' for Inactive)
    1  A    between atoms: N_1  and  C_31
    2  A    between atoms: N_7  and  C_34
    3  A    between atoms: C_13  and  C_26
    4  A    between atoms: C_13  and  C_34
    5  A    between atoms: O_14  and  C_16
    6  A    between atoms: N_19  and  C_36
    7  A    between atoms: S_27  and  C_37
                            x       y       z     vdW  Elec       q    Type
                         _______ _______ _______ _____ _____    ______ ____

>  <TORSDO>
F 7

$$$$
