=
 OpenBabel11042410233D

 29 30  0  0  1  0  0  0  0  0999 V2000
  188.2240  177.1150  142.8440 C   0  0  2  0  0  3  0  0  0  0  0  0
  183.9390  178.8470  144.7070 C   0  0  0  0  0  0  0  0  0  0  0  0
  183.3990  178.8660  143.4180 C   0  0  0  0  0  3  0  0  0  0  0  0
  184.1610  178.4450  142.3260 C   0  0  0  0  0  3  0  0  0  0  0  0
  186.0370  177.9790  143.8000 C   0  0  0  0  0  0  0  0  0  0  0  0
  185.4720  178.0030  142.5150 C   0  0  0  0  0  3  0  0  0  0  0  0
  187.1210  177.9420  146.3930 C   0  0  0  0  0  3  0  0  0  0  0  0
  187.8920  177.5290  145.3050 C   0  0  0  0  0  3  0  0  0  0  0  0
  185.2580  178.4030  144.9080 C   0  0  0  0  0  0  0  0  0  0  0  0
  185.8100  178.3780  146.1950 C   0  0  0  0  0  3  0  0  0  0  0  0
  187.3630  177.5410  144.0040 C   0  0  0  0  0  0  0  0  0  0  0  0
  183.1580  179.2710  145.7770 O   0  0  0  0  0  1  0  0  0  0  0  0
  189.2220  176.0460  143.2720 C   0  0  0  0  0  2  0  0  0  0  0  0
  190.8210  175.9590  141.5130 O   0  0  0  0  0  0  0  0  0  0  0  0
  191.5750  177.0070  143.4400 N   0  0  0  0  0  2  0  0  0  0  0  0
  190.5720  176.3220  142.6910 C   0  0  0  0  0  0  0  0  0  0  0  0
  191.3670  177.4430  144.8140 C   0  0  0  0  0  2  0  0  0  0  0  0
  191.7730  176.3390  145.7750 C   0  0  0  0  0  2  0  0  0  0  0  0
  191.1320  176.5630  147.1320 C   0  0  0  0  0  1  0  0  0  0  0  0
  188.9360  178.3080  142.2100 C   0  0  0  0  0  2  0  0  0  0  0  0
  188.2860  178.6910  140.8900 C   0  0  0  0  0  2  0  0  0  0  0  0
  188.7780  177.7800  139.7790 C   0  0  0  0  0  2  0  0  0  0  0  0
  189.0730  178.5920  138.5310 C   0  0  0  0  0  2  0  0  0  0  0  0
  188.1380  178.1770  137.4130 C   0  0  0  0  0  2  0  0  0  0  0  0
  186.9210  178.9660  137.4780 N   0  0  0  0  0  2  0  0  0  0  0  0
  185.8210  178.0250  137.5950 C   0  0  0  0  0  2  0  0  0  0  0  0
  184.9990  179.6550  139.1240 O   0  0  0  0  0  0  0  0  0  0  0  0
  184.8320  178.5280  138.5850 C   0  0  0  0  0  0  0  0  0  0  0  0
  183.6860  177.7480  138.9080 N   0  0  0  0  0  1  0  0  0  0  0  0
  1 20  1  1  0  0  0
  1 13  1  0  0  0  0
  1 11  1  0  0  0  0
  2  9  1  0  0  0  0
  2 12  1  0  0  0  0
  3  2  2  0  0  0  0
  4  6  2  0  0  0  0
  4  3  1  0  0  0  0
  5 11  2  0  0  0  0
  5  9  1  0  0  0  0
  6  5  1  0  0  0  0
  8  7  2  0  0  0  0
  9 10  2  0  0  0  0
 10  7  1  0  0  0  0
 11  8  1  0  0  0  0
 14 16  2  0  0  0  0
 15 17  1  0  0  0  0
 16 13  1  0  0  0  0
 16 15  1  0  0  0  0
 17 18  1  0  0  0  0
 18 19  1  0  0  0  0
 21 20  1  0  0  0  0
 22 21  1  0  0  0  0
 23 22  1  0  0  0  0
 24 25  1  0  0  0  0
 24 23  1  0  0  0  0
 25 26  1  0  0  0  0
 26 28  1  0  0  0  0
 28 29  1  0  0  0  0
 28 27  2  0  0  0  0
M  END
>  <MODEL>
1

>  <REMARK>
 VINA RESULT:      -7.9      0.000      0.000
  Name = 
  13 active torsions:
  status: ('A' for Active; 'I' for Inactive)
    1  A    between atoms: C_1  and  C_14
    2  A    between atoms: C_1  and  C_18
    3  A    between atoms: C_5  and  C_22
    4  A    between atoms: C_6  and  C_24
    5  A    between atoms: C_6  and  C_26
    6  A    between atoms: C_10  and  N_19
    7  A    between atoms: C_10  and  C_27
    8  A    between atoms: N_11  and  C_22
    9  A    between atoms: C_14  and  C_27
   10  A    between atoms: C_15  and  C_25
   11  A    between atoms: C_18  and  C_24
   12  A    between atoms: N_19  and  C_25
   13  A    between atoms: C_21  and  C_24
                            x       y       z     vdW  Elec       q    Type
                         _______ _______ _______ _____ _____    ______ ____

>  <TORSDO>
F 13

$$$$
=
 OpenBabel11042410233D

 29 30  0  0  1  0  0  0  0  0999 V2000
  188.4470  177.1250  142.8950 C   0  0  2  0  0  3  0  0  0  0  0  0
  184.1180  178.7790  144.7270 C   0  0  0  0  0  0  0  0  0  0  0  0
  183.6070  178.8500  143.4280 C   0  0  0  0  0  3  0  0  0  0  0  0
  184.3950  178.4740  142.3380 C   0  0  0  0  0  3  0  0  0  0  0  0
  186.2380  177.9490  143.8350 C   0  0  0  0  0  0  0  0  0  0  0  0
  185.7020  178.0250  142.5400 C   0  0  0  0  0  3  0  0  0  0  0  0
  187.2620  177.8090  146.4480 C   0  0  0  0  0  3  0  0  0  0  0  0
  188.0580  177.4400  145.3630 C   0  0  0  0  0  3  0  0  0  0  0  0
  185.4320  178.3280  144.9410 C   0  0  0  0  0  0  0  0  0  0  0  0
  185.9550  178.2520  146.2380 C   0  0  0  0  0  3  0  0  0  0  0  0
  187.5590  177.5040  144.0520 C   0  0  0  0  0  0  0  0  0  0  0  0
  183.3130  179.1600  145.7960 O   0  0  0  0  0  1  0  0  0  0  0  0
  189.4080  176.0110  143.2910 C   0  0  0  0  0  2  0  0  0  0  0  0
  191.2540  176.4220  141.8480 O   0  0  0  0  0  0  0  0  0  0  0  0
  191.6870  176.8210  144.0920 N   0  0  0  0  0  2  0  0  0  0  0  0
  190.8230  176.4170  143.0290 C   0  0  0  0  0  0  0  0  0  0  0  0
  191.2650  176.8260  145.4860 C   0  0  0  0  0  2  0  0  0  0  0  0
  192.0050  175.7460  146.2550 C   0  0  0  0  0  2  0  0  0  0  0  0
  192.0820  176.1100  147.7270 C   0  0  0  0  0  1  0  0  0  0  0  0
  189.2040  178.3360  142.3530 C   0  0  0  0  0  2  0  0  0  0  0  0
  188.6650  178.7490  140.9930 C   0  0  0  0  0  2  0  0  0  0  0  0
  188.5310  177.5360  140.0900 C   0  0  0  0  0  2  0  0  0  0  0  0
  189.4280  177.6890  138.8750 C   0  0  0  0  0  2  0  0  0  0  0  0
  189.6220  176.3440  138.2050 C   0  0  0  0  0  2  0  0  0  0  0  0
  190.9070  175.7890  138.5910 N   0  0  0  0  0  2  0  0  0  0  0  0
  191.8910  176.3400  137.6740 C   0  0  0  0  0  2  0  0  0  0  0  0
  193.4300  177.0770  139.3350 O   0  0  0  0  0  0  0  0  0  0  0  0
  193.2290  176.3550  138.3220 C   0  0  0  0  0  0  0  0  0  0  0  0
  194.2760  175.5370  137.8120 N   0  0  0  0  0  1  0  0  0  0  0  0
  1 20  1  1  0  0  0
  1 13  1  0  0  0  0
  1 11  1  0  0  0  0
  2  9  1  0  0  0  0
  2 12  1  0  0  0  0
  3  2  2  0  0  0  0
  4  6  2  0  0  0  0
  4  3  1  0  0  0  0
  5 11  2  0  0  0  0
  5  9  1  0  0  0  0
  6  5  1  0  0  0  0
  8  7  2  0  0  0  0
  9 10  2  0  0  0  0
 10  7  1  0  0  0  0
 11  8  1  0  0  0  0
 14 16  2  0  0  0  0
 15 17  1  0  0  0  0
 16 13  1  0  0  0  0
 16 15  1  0  0  0  0
 17 18  1  0  0  0  0
 18 19  1  0  0  0  0
 21 20  1  0  0  0  0
 22 21  1  0  0  0  0
 23 22  1  0  0  0  0
 24 25  1  0  0  0  0
 24 23  1  0  0  0  0
 26 28  1  0  0  0  0
 26 25  1  0  0  0  0
 28 27  2  0  0  0  0
 29 28  1  0  0  0  0
M  END
>  <MODEL>
2

>  <REMARK>
 VINA RESULT:      -7.6      2.415      3.477
  Name = 
  13 active torsions:
  status: ('A' for Active; 'I' for Inactive)
    1  A    between atoms: C_1  and  C_14
    2  A    between atoms: C_1  and  C_18
    3  A    between atoms: C_5  and  C_22
    4  A    between atoms: C_6  and  C_24
    5  A    between atoms: C_6  and  C_26
    6  A    between atoms: C_10  and  N_19
    7  A    between atoms: C_10  and  C_27
    8  A    between atoms: N_11  and  C_22
    9  A    between atoms: C_14  and  C_27
   10  A    between atoms: C_15  and  C_25
   11  A    between atoms: C_18  and  C_24
   12  A    between atoms: N_19  and  C_25
   13  A    between atoms: C_21  and  C_24
                            x       y       z     vdW  Elec       q    Type
                         _______ _______ _______ _____ _____    ______ ____

>  <TORSDO>
F 13

$$$$
=
 OpenBabel11042410233D

 29 30  0  0  1  0  0  0  0  0999 V2000
  188.4650  177.3650  142.8210 C   0  0  2  0  0  3  0  0  0  0  0  0
  184.0490  178.7920  144.6360 C   0  0  0  0  0  0  0  0  0  0  0  0
  183.5420  178.8420  143.3340 C   0  0  0  0  0  3  0  0  0  0  0  0
  184.3530  178.5100  142.2470 C   0  0  0  0  0  3  0  0  0  0  0  0
  186.2120  178.0730  143.7520 C   0  0  0  0  0  0  0  0  0  0  0  0
  185.6800  178.1270  142.4540 C   0  0  0  0  0  3  0  0  0  0  0  0
  187.2280  177.9740  146.3700 C   0  0  0  0  0  3  0  0  0  0  0  0
  188.0480  177.6500  145.2870 C   0  0  0  0  0  3  0  0  0  0  0  0
  185.3830  178.4060  144.8550 C   0  0  0  0  0  0  0  0  0  0  0  0
  185.9020  178.3510  146.1540 C   0  0  0  0  0  3  0  0  0  0  0  0
  187.5530  177.6940  143.9740 C   0  0  0  0  0  0  0  0  0  0  0  0
  183.2200  179.1270  145.7010 O   0  0  0  0  0  1  0  0  0  0  0  0
  189.9250  177.5540  143.2120 C   0  0  0  0  0  2  0  0  0  0  0  0
  190.3880  175.2890  142.6560 O   0  0  0  0  0  0  0  0  0  0  0  0
  191.4350  176.0320  144.5880 N   0  0  0  0  0  2  0  0  0  0  0  0
  190.5800  176.2330  143.4620 C   0  0  0  0  0  0  0  0  0  0  0  0
  191.6920  177.0730  145.5730 C   0  0  0  0  0  2  0  0  0  0  0  0
  191.2410  176.6080  146.9470 C   0  0  0  0  0  2  0  0  0  0  0  0
  192.2980  175.7180  147.5740 C   0  0  0  0  0  1  0  0  0  0  0  0
  188.1170  178.1890  141.5820 C   0  0  0  0  0  2  0  0  0  0  0  0
  188.6200  177.5100  140.3190 C   0  0  0  0  0  2  0  0  0  0  0  0
  189.3180  178.5170  139.4230 C   0  0  0  0  0  2  0  0  0  0  0  0
  189.2090  178.0870  137.9720 C   0  0  0  0  0  2  0  0  0  0  0  0
  188.3980  176.8110  137.8710 C   0  0  0  0  0  2  0  0  0  0  0  0
  187.4270  176.9340  136.7990 N   0  0  0  0  0  2  0  0  0  0  0  0
  186.7840  178.2260  136.9670 C   0  0  0  0  0  2  0  0  0  0  0  0
  185.5570  178.8740  138.9020 O   0  0  0  0  0  0  0  0  0  0  0  0
  185.6430  178.1000  137.9120 C   0  0  0  0  0  0  0  0  0  0  0  0
  184.6360  177.1190  137.6860 N   0  0  0  0  0  1  0  0  0  0  0  0
  1 20  1  6  0  0  0
  1 13  1  0  0  0  0
  1 11  1  0  0  0  0
  2  9  1  0  0  0  0
  2 12  1  0  0  0  0
  3  2  2  0  0  0  0
  4  6  2  0  0  0  0
  4  3  1  0  0  0  0
  5 11  2  0  0  0  0
  5  9  1  0  0  0  0
  6  5  1  0  0  0  0
  8  7  2  0  0  0  0
  9 10  2  0  0  0  0
 10  7  1  0  0  0  0
 11  8  1  0  0  0  0
 13 16  1  0  0  0  0
 14 16  2  0  0  0  0
 15 17  1  0  0  0  0
 16 15  1  0  0  0  0
 17 18  1  0  0  0  0
 18 19  1  0  0  0  0
 21 20  1  0  0  0  0
 22 21  1  0  0  0  0
 23 22  1  0  0  0  0
 24 23  1  0  0  0  0
 25 26  1  0  0  0  0
 25 24  1  0  0  0  0
 26 28  1  0  0  0  0
 28 27  2  0  0  0  0
 29 28  1  0  0  0  0
M  END
>  <MODEL>
3

>  <REMARK>
 VINA RESULT:      -7.4      0.934      1.030
  Name = 
  13 active torsions:
  status: ('A' for Active; 'I' for Inactive)
    1  A    between atoms: C_1  and  C_14
    2  A    between atoms: C_1  and  C_18
    3  A    between atoms: C_5  and  C_22
    4  A    between atoms: C_6  and  C_24
    5  A    between atoms: C_6  and  C_26
    6  A    between atoms: C_10  and  N_19
    7  A    between atoms: C_10  and  C_27
    8  A    between atoms: N_11  and  C_22
    9  A    between atoms: C_14  and  C_27
   10  A    between atoms: C_15  and  C_25
   11  A    between atoms: C_18  and  C_24
   12  A    between atoms: N_19  and  C_25
   13  A    between atoms: C_21  and  C_24
                            x       y       z     vdW  Elec       q    Type
                         _______ _______ _______ _____ _____    ______ ____

>  <TORSDO>
F 13

$$$$
=
 OpenBabel11042410233D

 29 30  0  0  1  0  0  0  0  0999 V2000
  188.8840  177.1530  143.4370 C   0  0  2  0  0  3  0  0  0  0  0  0
  184.7990  178.6750  145.8500 C   0  0  0  0  0  0  0  0  0  0  0  0
  185.4560  178.4760  147.0670 C   0  0  0  0  0  3  0  0  0  0  0  0
  186.7760  178.0210  147.0910 C   0  0  0  0  0  3  0  0  0  0  0  0
  186.8070  177.9480  144.6610 C   0  0  0  0  0  0  0  0  0  0  0  0
  187.4490  177.7590  145.8950 C   0  0  0  0  0  3  0  0  0  0  0  0
  185.4810  178.3460  142.2150 C   0  0  0  0  0  3  0  0  0  0  0  0
  186.7980  177.8820  142.2310 C   0  0  0  0  0  3  0  0  0  0  0  0
  185.4670  178.4150  144.6410 C   0  0  0  0  0  0  0  0  0  0  0  0
  184.8190  178.6110  143.4150 C   0  0  0  0  0  3  0  0  0  0  0  0
  187.4730  177.6790  143.4450 C   0  0  0  0  0  0  0  0  0  0  0  0
  183.4840  179.1290  145.8540 O   0  0  0  0  0  1  0  0  0  0  0  0
  189.8800  178.2660  143.7400 C   0  0  0  0  0  2  0  0  0  0  0  0
  192.1270  177.8370  143.0880 O   0  0  0  0  0  0  0  0  0  0  0  0
  191.5730  177.0370  145.1940 N   0  0  0  0  0  2  0  0  0  0  0  0
  191.2460  177.7030  143.9740 C   0  0  0  0  0  0  0  0  0  0  0  0
  190.6010  176.8290  146.2580 C   0  0  0  0  0  2  0  0  0  0  0  0
  191.3020  176.8290  147.6060 C   0  0  0  0  0  2  0  0  0  0  0  0
  192.3380  175.7210  147.6580 C   0  0  0  0  0  1  0  0  0  0  0  0
  189.2160  176.4660  142.1140 C   0  0  0  0  0  2  0  0  0  0  0  0
  189.7400  177.4660  141.0980 C   0  0  0  0  0  2  0  0  0  0  0  0
  189.2530  177.1050  139.7060 C   0  0  0  0  0  2  0  0  0  0  0  0
  188.6000  178.3100  139.0540 C   0  0  0  0  0  2  0  0  0  0  0  0
  187.5930  177.8530  138.0170 C   0  0  0  0  0  2  0  0  0  0  0  0
  186.4880  178.7920  137.9650 N   0  0  0  0  0  2  0  0  0  0  0  0
  185.2950  178.0520  138.3410 C   0  0  0  0  0  2  0  0  0  0  0  0
  184.5460  180.1580  139.1600 O   0  0  0  0  0  0  0  0  0  0  0  0
  184.2350  178.9970  138.7810 C   0  0  0  0  0  0  0  0  0  0  0  0
  182.8690  178.5980  138.7560 N   0  0  0  0  0  1  0  0  0  0  0  0
  1 20  1  6  0  0  0
  1 11  1  0  0  0  0
  1 13  1  0  0  0  0
  2 12  1  0  0  0  0
  2  3  1  0  0  0  0
  3  4  2  0  0  0  0
  5  6  2  0  0  0  0
  6  4  1  0  0  0  0
  7  8  1  0  0  0  0
  7 10  2  0  0  0  0
  8 11  2  0  0  0  0
  9  5  1  0  0  0  0
  9  2  2  0  0  0  0
 10  9  1  0  0  0  0
 11  5  1  0  0  0  0
 13 16  1  0  0  0  0
 14 16  2  0  0  0  0
 15 17  1  0  0  0  0
 16 15  1  0  0  0  0
 17 18  1  0  0  0  0
 18 19  1  0  0  0  0
 21 20  1  0  0  0  0
 22 21  1  0  0  0  0
 23 22  1  0  0  0  0
 24 23  1  0  0  0  0
 25 24  1  0  0  0  0
 25 26  1  0  0  0  0
 26 28  1  0  0  0  0
 28 27  2  0  0  0  0
 29 28  1  0  0  0  0
M  END
>  <MODEL>
4

>  <REMARK>
 VINA RESULT:      -7.3      1.170      2.275
  Name = 
  13 active torsions:
  status: ('A' for Active; 'I' for Inactive)
    1  A    between atoms: C_1  and  C_14
    2  A    between atoms: C_1  and  C_18
    3  A    between atoms: C_5  and  C_22
    4  A    between atoms: C_6  and  C_24
    5  A    between atoms: C_6  and  C_26
    6  A    between atoms: C_10  and  N_19
    7  A    between atoms: C_10  and  C_27
    8  A    between atoms: N_11  and  C_22
    9  A    between atoms: C_14  and  C_27
   10  A    between atoms: C_15  and  C_25
   11  A    between atoms: C_18  and  C_24
   12  A    between atoms: N_19  and  C_25
   13  A    between atoms: C_21  and  C_24
                            x       y       z     vdW  Elec       q    Type
                         _______ _______ _______ _____ _____    ______ ____

>  <TORSDO>
F 13

$$$$
=
 OpenBabel11042410233D

 29 30  0  0  1  0  0  0  0  0999 V2000
  189.1130  176.7900  143.0910 C   0  0  2  0  0  3  0  0  0  0  0  0
  187.8000  177.9510  147.7550 C   0  0  0  0  0  0  0  0  0  0  0  0
  186.5010  178.2170  147.3120 C   0  0  0  0  0  3  0  0  0  0  0  0
  186.1670  178.0570  145.9660 C   0  0  0  0  0  3  0  0  0  0  0  0
  188.4450  177.3620  145.4720 C   0  0  0  0  0  0  0  0  0  0  0  0
  187.1330  177.6310  145.0500 C   0  0  0  0  0  3  0  0  0  0  0  0
  191.0550  176.8290  146.3660 C   0  0  0  0  0  3  0  0  0  0  0  0
  190.7320  176.6760  145.0160 C   0  0  0  0  0  3  0  0  0  0  0  0
  188.7790  177.5210  146.8420 C   0  0  0  0  0  0  0  0  0  0  0  0
  190.0830  177.2500  147.2750 C   0  0  0  0  0  3  0  0  0  0  0  0
  189.4310  176.9370  144.5560 C   0  0  0  0  0  0  0  0  0  0  0  0
  188.1060  178.1180  149.1020 O   0  0  0  0  0  1  0  0  0  0  0  0
  190.2780  176.1510  142.3440 C   0  0  0  0  0  2  0  0  0  0  0  0
  191.8580  177.9270  142.3150 O   0  0  0  0  0  0  0  0  0  0  0  0
  191.0290  177.3510  140.2270 N   0  0  0  0  0  2  0  0  0  0  0  0
  191.0910  177.1920  141.6440 C   0  0  0  0  0  0  0  0  0  0  0  0
  190.1520  176.5480  139.3860 C   0  0  0  0  0  2  0  0  0  0  0  0
  190.9670  175.8320  138.3220 C   0  0  0  0  0  2  0  0  0  0  0  0
  192.3410  176.4650  138.2000 C   0  0  0  0  0  1  0  0  0  0  0  0
  188.7300  178.1300  142.4660 C   0  0  0  0  0  2  0  0  0  0  0  0
  187.5300  177.9770  141.5450 C   0  0  0  0  0  2  0  0  0  0  0  0
  186.5920  179.1600  141.7030 C   0  0  0  0  0  2  0  0  0  0  0  0
  185.2260  178.6830  142.1600 C   0  0  0  0  0  2  0  0  0  0  0  0
  184.2800  178.6190  140.9780 C   0  0  0  0  0  2  0  0  0  0  0  0
  184.7320  179.5320  139.9430 N   0  0  0  0  0  2  0  0  0  0  0  0
  184.2590  178.9940  138.6790 C   0  0  0  0  0  2  0  0  0  0  0  0
  185.0230  177.0940  137.4650 O   0  0  0  0  0  0  0  0  0  0  0  0
  185.3240  178.1650  138.0560 C   0  0  0  0  0  0  0  0  0  0  0  0
  186.6820  178.5910  138.1080 N   0  0  0  0  0  1  0  0  0  0  0  0
  1 13  1  6  0  0  0
  1 11  1  0  0  0  0
  2 12  1  0  0  0  0
  3  2  1  0  0  0  0
  4  3  2  0  0  0  0
  5  9  1  0  0  0  0
  6  5  2  0  0  0  0
  6  4  1  0  0  0  0
  7 10  2  0  0  0  0
  8  7  1  0  0  0  0
  9 10  1  0  0  0  0
  9  2  2  0  0  0  0
 11  8  2  0  0  0  0
 11  5  1  0  0  0  0
 15 16  1  0  0  0  0
 16 14  2  0  0  0  0
 16 13  1  0  0  0  0
 17 15  1  0  0  0  0
 18 17  1  0  0  0  0
 19 18  1  0  0  0  0
 20  1  1  0  0  0  0
 21 22  1  0  0  0  0
 21 20  1  0  0  0  0
 22 23  1  0  0  0  0
 24 23  1  0  0  0  0
 25 24  1  0  0  0  0
 26 25  1  0  0  0  0
 27 28  2  0  0  0  0
 28 29  1  0  0  0  0
 28 26  1  0  0  0  0
M  END
>  <MODEL>
5

>  <REMARK>
 VINA RESULT:      -7.3      2.062      4.092
  Name = 
  13 active torsions:
  status: ('A' for Active; 'I' for Inactive)
    1  A    between atoms: C_1  and  C_14
    2  A    between atoms: C_1  and  C_18
    3  A    between atoms: C_5  and  C_22
    4  A    between atoms: C_6  and  C_24
    5  A    between atoms: C_6  and  C_26
    6  A    between atoms: C_10  and  N_19
    7  A    between atoms: C_10  and  C_27
    8  A    between atoms: N_11  and  C_22
    9  A    between atoms: C_14  and  C_27
   10  A    between atoms: C_15  and  C_25
   11  A    between atoms: C_18  and  C_24
   12  A    between atoms: N_19  and  C_25
   13  A    between atoms: C_21  and  C_24
                            x       y       z     vdW  Elec       q    Type
                         _______ _______ _______ _____ _____    ______ ____

>  <TORSDO>
F 13

$$$$
=
 OpenBabel11042410233D

 29 30  0  0  1  0  0  0  0  0999 V2000
  188.2110  177.1730  142.8450 C   0  0  2  0  0  3  0  0  0  0  0  0
  183.8920  178.8820  144.6500 C   0  0  0  0  0  0  0  0  0  0  0  0
  183.3890  178.9550  143.3480 C   0  0  0  0  0  3  0  0  0  0  0  0
  184.1770  178.5660  142.2630 C   0  0  0  0  0  3  0  0  0  0  0  0
  186.0060  178.0250  143.7710 C   0  0  0  0  0  0  0  0  0  0  0  0
  185.4790  178.1030  142.4730 C   0  0  0  0  0  3  0  0  0  0  0  0
  187.0150  177.8810  146.3900 C   0  0  0  0  0  3  0  0  0  0  0  0
  187.8130  177.5000  145.3100 C   0  0  0  0  0  3  0  0  0  0  0  0
  185.2000  178.4170  144.8720 C   0  0  0  0  0  0  0  0  0  0  0  0
  185.7150  178.3380  146.1720 C   0  0  0  0  0  3  0  0  0  0  0  0
  187.3220  177.5650  143.9960 C   0  0  0  0  0  0  0  0  0  0  0  0
  183.0860  179.2750  145.7120 O   0  0  0  0  0  1  0  0  0  0  0  0
  189.1500  176.0410  143.2460 C   0  0  0  0  0  2  0  0  0  0  0  0
  190.8150  176.0020  141.5490 O   0  0  0  0  0  0  0  0  0  0  0  0
  191.5290  176.8910  143.5690 N   0  0  0  0  0  2  0  0  0  0  0  0
  190.5320  176.2970  142.7370 C   0  0  0  0  0  0  0  0  0  0  0  0
  191.2810  177.2450  144.9590 C   0  0  0  0  0  2  0  0  0  0  0  0
  191.6880  176.0980  145.8670 C   0  0  0  0  0  2  0  0  0  0  0  0
  191.2680  176.3850  147.2970 C   0  0  0  0  0  1  0  0  0  0  0  0
  188.9920  178.3710  142.3100 C   0  0  0  0  0  2  0  0  0  0  0  0
  188.3600  178.9070  141.0360 C   0  0  0  0  0  2  0  0  0  0  0  0
  188.3090  177.8210  139.9770 C   0  0  0  0  0  2  0  0  0  0  0  0
  187.4100  178.2520  138.8320 C   0  0  0  0  0  2  0  0  0  0  0  0
  187.7720  177.4860  137.5760 C   0  0  0  0  0  2  0  0  0  0  0  0
  188.3680  176.2120  137.9370 N   0  0  0  0  0  2  0  0  0  0  0  0
  189.1100  175.7550  136.7750 C   0  0  0  0  0  2  0  0  0  0  0  0
  188.3540  173.5060  136.5730 O   0  0  0  0  0  0  0  0  0  0  0  0
  189.3060  174.2830  136.8510 C   0  0  0  0  0  0  0  0  0  0  0  0
  190.5750  173.7520  137.2180 N   0  0  0  0  0  1  0  0  0  0  0  0
  1 20  1  1  0  0  0
  1 13  1  0  0  0  0
  1 11  1  0  0  0  0
  2  9  1  0  0  0  0
  2 12  1  0  0  0  0
  3  2  2  0  0  0  0
  4  6  2  0  0  0  0
  4  3  1  0  0  0  0
  5 11  2  0  0  0  0
  5  9  1  0  0  0  0
  6  5  1  0  0  0  0
  8  7  2  0  0  0  0
  9 10  2  0  0  0  0
 10  7  1  0  0  0  0
 11  8  1  0  0  0  0
 14 16  2  0  0  0  0
 15 17  1  0  0  0  0
 16 13  1  0  0  0  0
 16 15  1  0  0  0  0
 17 18  1  0  0  0  0
 18 19  1  0  0  0  0
 21 20  1  0  0  0  0
 22 21  1  0  0  0  0
 23 22  1  0  0  0  0
 24 25  1  0  0  0  0
 24 23  1  0  0  0  0
 26 28  1  0  0  0  0
 26 25  1  0  0  0  0
 27 28  2  0  0  0  0
 28 29  1  0  0  0  0
M  END
>  <MODEL>
6

>  <REMARK>
 VINA RESULT:      -7.2      1.991      2.585
  Name = 
  13 active torsions:
  status: ('A' for Active; 'I' for Inactive)
    1  A    between atoms: C_1  and  C_14
    2  A    between atoms: C_1  and  C_18
    3  A    between atoms: C_5  and  C_22
    4  A    between atoms: C_6  and  C_24
    5  A    between atoms: C_6  and  C_26
    6  A    between atoms: C_10  and  N_19
    7  A    between atoms: C_10  and  C_27
    8  A    between atoms: N_11  and  C_22
    9  A    between atoms: C_14  and  C_27
   10  A    between atoms: C_15  and  C_25
   11  A    between atoms: C_18  and  C_24
   12  A    between atoms: N_19  and  C_25
   13  A    between atoms: C_21  and  C_24
                            x       y       z     vdW  Elec       q    Type
                         _______ _______ _______ _____ _____    ______ ____

>  <TORSDO>
F 13

$$$$
=
 OpenBabel11042410233D

 29 30  0  0  1  0  0  0  0  0999 V2000
  189.4600  177.2340  144.3840 C   0  0  2  0  0  3  0  0  0  0  0  0
  184.7310  178.6200  145.1220 C   0  0  0  0  0  0  0  0  0  0  0  0
  184.4960  178.5090  143.7480 C   0  0  0  0  0  3  0  0  0  0  0  0
  185.5180  178.1060  142.8860 C   0  0  0  0  0  3  0  0  0  0  0  0
  187.0470  177.9220  144.7680 C   0  0  0  0  0  0  0  0  0  0  0  0
  186.7860  177.8130  143.3930 C   0  0  0  0  0  3  0  0  0  0  0  0
  187.5180  178.1470  147.5290 C   0  0  0  0  0  3  0  0  0  0  0  0
  188.5480  177.7530  146.6720 C   0  0  0  0  0  3  0  0  0  0  0  0
  186.0040  178.3270  145.6410 C   0  0  0  0  0  0  0  0  0  0  0  0
  186.2520  178.4330  147.0150 C   0  0  0  0  0  3  0  0  0  0  0  0
  188.3270  177.6350  145.2910 C   0  0  0  0  0  0  0  0  0  0  0  0
  183.6960  179.0230  145.9580 O   0  0  0  0  0  1  0  0  0  0  0  0
  190.8050  177.4380  145.0720 C   0  0  0  0  0  2  0  0  0  0  0  0
  191.7840  175.5520  144.0050 O   0  0  0  0  0  0  0  0  0  0  0  0
  192.1420  175.6480  146.2950 N   0  0  0  0  0  2  0  0  0  0  0  0
  191.5900  176.1660  145.0840 C   0  0  0  0  0  0  0  0  0  0  0  0
  191.9460  176.2930  147.5850 C   0  0  0  0  0  2  0  0  0  0  0  0
  192.9510  175.7600  148.5900 C   0  0  0  0  0  2  0  0  0  0  0  0
  193.3440  176.8510  149.5690 C   0  0  0  0  0  1  0  0  0  0  0  0
  189.4050  177.9840  143.0550 C   0  0  0  0  0  2  0  0  0  0  0  0
  189.4630  177.0190  141.8820 C   0  0  0  0  0  2  0  0  0  0  0  0
  190.7790  177.1720  141.1410 C   0  0  0  0  0  2  0  0  0  0  0  0
  190.5220  177.5620  139.6970 C   0  0  0  0  0  2  0  0  0  0  0  0
  189.0660  177.9430  139.5180 C   0  0  0  0  0  2  0  0  0  0  0  0
  188.9610  179.0230  138.5540 N   0  0  0  0  0  2  0  0  0  0  0  0
  189.2390  178.4460  137.2490 C   0  0  0  0  0  2  0  0  0  0  0  0
  188.1520  176.4940  136.4240 O   0  0  0  0  0  0  0  0  0  0  0  0
  188.0460  177.7030  136.7640 C   0  0  0  0  0  0  0  0  0  0  0  0
  186.7790  178.3500  136.7040 N   0  0  0  0  0  1  0  0  0  0  0  0
  1 20  1  6  0  0  0
  1 13  1  0  0  0  0
  1 11  1  0  0  0  0
  2  9  1  0  0  0  0
  2 12  1  0  0  0  0
  3  2  2  0  0  0  0
  4  6  2  0  0  0  0
  4  3  1  0  0  0  0
  5 11  2  0  0  0  0
  5  9  1  0  0  0  0
  6  5  1  0  0  0  0
  8  7  2  0  0  0  0
  9 10  2  0  0  0  0
 10  7  1  0  0  0  0
 11  8  1  0  0  0  0
 13 16  1  0  0  0  0
 14 16  2  0  0  0  0
 15 17  1  0  0  0  0
 16 15  1  0  0  0  0
 17 18  1  0  0  0  0
 18 19  1  0  0  0  0
 21 20  1  0  0  0  0
 22 21  1  0  0  0  0
 23 22  1  0  0  0  0
 24 23  1  0  0  0  0
 25 24  1  0  0  0  0
 26 25  1  0  0  0  0
 27 28  2  0  0  0  0
 28 26  1  0  0  0  0
 29 28  1  0  0  0  0
M  END
>  <MODEL>
7

>  <REMARK>
 VINA RESULT:      -7.1      1.902      2.489
  Name = 
  13 active torsions:
  status: ('A' for Active; 'I' for Inactive)
    1  A    between atoms: C_1  and  C_14
    2  A    between atoms: C_1  and  C_18
    3  A    between atoms: C_5  and  C_22
    4  A    between atoms: C_6  and  C_24
    5  A    between atoms: C_6  and  C_26
    6  A    between atoms: C_10  and  N_19
    7  A    between atoms: C_10  and  C_27
    8  A    between atoms: N_11  and  C_22
    9  A    between atoms: C_14  and  C_27
   10  A    between atoms: C_15  and  C_25
   11  A    between atoms: C_18  and  C_24
   12  A    between atoms: N_19  and  C_25
   13  A    between atoms: C_21  and  C_24
                            x       y       z     vdW  Elec       q    Type
                         _______ _______ _______ _____ _____    ______ ____

>  <TORSDO>
F 13

$$$$
=
 OpenBabel11042410233D

 29 30  0  0  1  0  0  0  0  0999 V2000
  188.3810  176.9170  144.4430 C   0  0  2  0  0  3  0  0  0  0  0  0
  183.9480  179.1940  144.4320 C   0  0  0  0  0  0  0  0  0  0  0  0
  183.8180  178.9240  145.7970 C   0  0  0  0  0  3  0  0  0  0  0  0
  184.8300  178.2500  146.4840 C   0  0  0  0  0  3  0  0  0  0  0  0
  186.1320  178.0950  144.4360 C   0  0  0  0  0  0  0  0  0  0  0  0
  185.9810  177.8380  145.8080 C   0  0  0  0  0  3  0  0  0  0  0  0
  186.3910  178.6380  141.6910 C   0  0  0  0  0  3  0  0  0  0  0  0
  187.4030  177.9550  142.3690 C   0  0  0  0  0  3  0  0  0  0  0  0
  185.1030  178.7850  143.7430 C   0  0  0  0  0  0  0  0  0  0  0  0
  185.2460  179.0510  142.3750 C   0  0  0  0  0  3  0  0  0  0  0  0
  187.2870  177.6780  143.7400 C   0  0  0  0  0  0  0  0  0  0  0  0
  182.9260  179.8670  143.7720 O   0  0  0  0  0  1  0  0  0  0  0  0
  189.3330  177.8690  145.1560 C   0  0  0  0  0  2  0  0  0  0  0  0
  188.4980  177.8600  147.3830 O   0  0  0  0  0  0  0  0  0  0  0  0
  190.5530  176.8150  147.1290 N   0  0  0  0  0  2  0  0  0  0  0  0
  189.4310  177.5280  146.6090 C   0  0  0  0  0  0  0  0  0  0  0  0
  191.6790  176.4110  146.2980 C   0  0  0  0  0  2  0  0  0  0  0  0
  192.4170  175.2560  146.9500 C   0  0  0  0  0  2  0  0  0  0  0  0
  192.8290  175.6270  148.3630 C   0  0  0  0  0  1  0  0  0  0  0  0
  189.1360  176.0060  143.4780 C   0  0  0  0  0  2  0  0  0  0  0  0
  190.5570  176.5010  143.2630 C   0  0  0  0  0  2  0  0  0  0  0  0
  190.9410  176.3790  141.7990 C   0  0  0  0  0  2  0  0  0  0  0  0
  190.6530  177.6810  141.0750 C   0  0  0  0  0  2  0  0  0  0  0  0
  190.2620  177.3960  139.6390 C   0  0  0  0  0  2  0  0  0  0  0  0
  189.2680  178.3620  139.2050 N   0  0  0  0  0  2  0  0  0  0  0  0
  188.1980  177.6040  138.5790 C   0  0  0  0  0  2  0  0  0  0  0  0
  188.8320  178.7640  136.5980 O   0  0  0  0  0  0  0  0  0  0  0  0
  187.9270  178.1460  137.2210 C   0  0  0  0  0  0  0  0  0  0  0  0
  186.6540  177.9490  136.6160 N   0  0  0  0  0  1  0  0  0  0  0  0
  1 20  1  6  0  0  0
  1 13  1  0  0  0  0
  2  3  1  0  0  0  0
  3  4  2  0  0  0  0
  5  6  2  0  0  0  0
  6  4  1  0  0  0  0
  7  8  1  0  0  0  0
  7 10  2  0  0  0  0
  8 11  2  0  0  0  0
  9  2  2  0  0  0  0
  9  5  1  0  0  0  0
 10  9  1  0  0  0  0
 11  5  1  0  0  0  0
 11  1  1  0  0  0  0
 12  2  1  0  0  0  0
 13 16  1  0  0  0  0
 16 15  1  0  0  0  0
 16 14  2  0  0  0  0
 17 18  1  0  0  0  0
 17 15  1  0  0  0  0
 18 19  1  0  0  0  0
 21 20  1  0  0  0  0
 22 21  1  0  0  0  0
 23 22  1  0  0  0  0
 24 23  1  0  0  0  0
 25 24  1  0  0  0  0
 26 25  1  0  0  0  0
 27 28  2  0  0  0  0
 28 26  1  0  0  0  0
 29 28  1  0  0  0  0
M  END
>  <MODEL>
8

>  <REMARK>
 VINA RESULT:      -7.1      2.156      3.230
  Name = 
  13 active torsions:
  status: ('A' for Active; 'I' for Inactive)
    1  A    between atoms: C_1  and  C_14
    2  A    between atoms: C_1  and  C_18
    3  A    between atoms: C_5  and  C_22
    4  A    between atoms: C_6  and  C_24
    5  A    between atoms: C_6  and  C_26
    6  A    between atoms: C_10  and  N_19
    7  A    between atoms: C_10  and  C_27
    8  A    between atoms: N_11  and  C_22
    9  A    between atoms: C_14  and  C_27
   10  A    between atoms: C_15  and  C_25
   11  A    between atoms: C_18  and  C_24
   12  A    between atoms: N_19  and  C_25
   13  A    between atoms: C_21  and  C_24
                            x       y       z     vdW  Elec       q    Type
                         _______ _______ _______ _____ _____    ______ ____

>  <TORSDO>
F 13

$$$$
=
 OpenBabel11042410233D

 29 30  0  0  1  0  0  0  0  0999 V2000
  186.6320  178.1410  144.0400 C   0  0  2  0  0  3  0  0  0  0  0  0
  190.8090  176.7630  146.3810 C   0  0  0  0  0  0  0  0  0  0  0  0
  190.2770  177.2320  147.5860 C   0  0  0  0  0  3  0  0  0  0  0  0
  188.9960  177.7870  147.6230 C   0  0  0  0  0  3  0  0  0  0  0  0
  188.7540  177.4190  145.2310 C   0  0  0  0  0  0  0  0  0  0  0  0
  188.2380  177.8800  146.4530 C   0  0  0  0  0  3  0  0  0  0  0  0
  189.8290  176.4780  142.8120 C   0  0  0  0  0  3  0  0  0  0  0  0
  188.5510  177.0410  142.8390 C   0  0  0  0  0  3  0  0  0  0  0  0
  190.0550  176.8510  145.1990 C   0  0  0  0  0  0  0  0  0  0  0  0
  190.5770  176.3840  143.9860 C   0  0  0  0  0  3  0  0  0  0  0  0
  188.0020  177.5140  144.0410 C   0  0  0  0  0  0  0  0  0  0  0  0
  192.0870  176.2140  146.3720 O   0  0  0  0  0  1  0  0  0  0  0  0
  185.8380  177.7130  145.2690 C   0  0  0  0  0  2  0  0  0  0  0  0
  185.6830  179.6050  146.7010 O   0  0  0  0  0  0  0  0  0  0  0  0
  183.7700  179.1870  145.4570 N   0  0  0  0  0  2  0  0  0  0  0  0
  185.1050  178.8760  145.8550 C   0  0  0  0  0  0  0  0  0  0  0  0
  183.0300  178.3810  144.4960 C   0  0  0  0  0  2  0  0  0  0  0  0
  182.0160  179.2450  143.7670 C   0  0  0  0  0  2  0  0  0  0  0  0
  180.6290  178.6410  143.8890 C   0  0  0  0  0  1  0  0  0  0  0  0
  185.8710  177.8180  142.7560 C   0  0  0  0  0  2  0  0  0  0  0  0
  185.5990  179.0800  141.9540 C   0  0  0  0  0  2  0  0  0  0  0  0
  184.3960  178.8780  141.0490 C   0  0  0  0  0  2  0  0  0  0  0  0
  184.7000  179.3950  139.6550 C   0  0  0  0  0  2  0  0  0  0  0  0
  185.2190  178.2670  138.7880 C   0  0  0  0  0  2  0  0  0  0  0  0
  186.5170  178.6270  138.2460 N   0  0  0  0  0  2  0  0  0  0  0  0
  187.5050  177.8680  138.9920 C   0  0  0  0  0  2  0  0  0  0  0  0
  189.8600  177.9480  139.3360 O   0  0  0  0  0  0  0  0  0  0  0  0
  188.8660  178.3930  138.7030 C   0  0  0  0  0  0  0  0  0  0  0  0
  189.0480  179.3830  137.6960 N   0  0  0  0  0  1  0  0  0  0  0  0
  1 20  1  6  0  0  0
  1 11  1  0  0  0  0
  1 13  1  0  0  0  0
  2  3  1  0  0  0  0
  3  4  2  0  0  0  0
  5  6  2  0  0  0  0
  6  4  1  0  0  0  0
  7  8  1  0  0  0  0
  7 10  2  0  0  0  0
  8 11  2  0  0  0  0
  9  5  1  0  0  0  0
  9  2  2  0  0  0  0
 10  9  1  0  0  0  0
 11  5  1  0  0  0  0
 12  2  1  0  0  0  0
 13 16  1  0  0  0  0
 15 16  1  0  0  0  0
 16 14  2  0  0  0  0
 17 15  1  0  0  0  0
 18 19  1  0  0  0  0
 18 17  1  0  0  0  0
 21 20  1  0  0  0  0
 22 21  1  0  0  0  0
 23 22  1  0  0  0  0
 24 23  1  0  0  0  0
 25 24  1  0  0  0  0
 25 26  1  0  0  0  0
 28 26  1  0  0  0  0
 28 27  2  0  0  0  0
 29 28  1  0  0  0  0
M  END
>  <MODEL>
9

>  <REMARK>
 VINA RESULT:      -7.1      2.106      6.003
  Name = 
  13 active torsions:
  status: ('A' for Active; 'I' for Inactive)
    1  A    between atoms: C_1  and  C_14
    2  A    between atoms: C_1  and  C_18
    3  A    between atoms: C_5  and  C_22
    4  A    between atoms: C_6  and  C_24
    5  A    between atoms: C_6  and  C_26
    6  A    between atoms: C_10  and  N_19
    7  A    between atoms: C_10  and  C_27
    8  A    between atoms: N_11  and  C_22
    9  A    between atoms: C_14  and  C_27
   10  A    between atoms: C_15  and  C_25
   11  A    between atoms: C_18  and  C_24
   12  A    between atoms: N_19  and  C_25
   13  A    between atoms: C_21  and  C_24
                            x       y       z     vdW  Elec       q    Type
                         _______ _______ _______ _____ _____    ______ ____

>  <TORSDO>
F 13

$$$$
