=
 OpenBabel11042413353D

 52 56  0  0  1  0  0  0  0  0999 V2000
  182.5830  178.5910  142.6250 C   0  0  2  0  0  3  0  0  0  0  0  0
  184.8200  179.3960  142.5150 O   0  0  0  0  0  0  0  0  0  0  0  0
  184.0000  178.6470  143.1070 C   0  0  0  0  0  0  0  0  0  0  0  0
  184.4060  177.8460  144.2270 N   0  0  0  0  0  2  0  0  0  0  0  0
  185.9030  178.6100  146.0540 C   0  0  0  0  0  3  0  0  0  0  0  0
  188.1900  177.8120  146.1490 C   0  0  0  0  0  0  0  0  0  0  0  0
  185.6810  177.8680  144.8830 C   0  0  0  0  0  0  0  0  0  0  0  0
  187.1510  178.5800  146.6830 C   0  0  0  0  0  3  0  0  0  0  0  0
  186.7190  177.0950  144.3560 C   0  0  0  0  0  3  0  0  0  0  0  0
  187.9670  177.0660  144.9830 C   0  0  0  0  0  3  0  0  0  0  0  0
  189.4520  177.7760  146.8240 N   0  0  0  0  0  2  0  0  0  0  0  0
  190.4870  176.7900  146.5350 C   0  0  0  0  0  2  0  0  0  0  0  0
  191.6200  177.4250  145.7440 C   0  0  0  0  0  2  0  0  0  0  0  0
  191.0810  178.2060  144.5560 C   0  0  0  0  0  2  0  0  0  0  0  0
  191.6350  177.6530  143.2390 C   0  0  0  0  0  2  0  0  0  0  0  0
  190.5590  177.1910  142.2480 C   0  0  1  0  0  0  0  0  0  0  0  0
  191.2240  177.1000  140.8930 C   0  0  0  0  0  0  0  0  0  0  0  0
  192.2780  177.7510  140.6590 O   0  0  0  0  0  1  0  0  0  0  0  0
  190.7270  176.2520  139.9100 O   0  0  0  0  0  0  0  0  0  0  0  0
  190.9850  175.0810  143.3620 F   0  0  0  0  0  0  0  0  0  0  0  0
  190.0260  175.8180  142.6900 C   0  0  0  0  0  2  0  0  0  0  0  0
  189.4270  178.2370  142.2350 C   0  0  0  0  0  2  0  0  0  0  0  0
  188.3900  178.0140  141.1430 C   0  0  0  0  0  1  0  0  0  0  0  0
  182.4770  178.9670  141.1520 C   0  0  0  0  0  2  0  0  0  0  0  0
  182.9910  177.8270  140.2910 C   0  0  0  0  0  2  0  0  0  0  0  0
  183.7480  178.3660  139.0880 C   0  0  2  0  0  0  0  0  0  0  0  0
  185.5970  176.4890  137.0090 N   0  0  0  0  0  0  0  0  0  0  0  0
  185.1640  177.6530  137.3760 C   0  0  0  0  0  0  0  0  0  0  0  0
  184.5570  174.3070  136.6040 C   0  0  0  0  0  0  0  0  0  0  0  0
  185.9480  178.4840  138.2100 N   0  0  0  0  0  2  0  0  0  0  0  0
  184.4970  175.5890  137.0200 C   0  0  0  0  0  0  0  0  0  0  0  0
  183.7170  177.7260  137.6990 C   0  0  1  0  0  3  0  0  0  0  0  0
  182.2260  175.8000  137.8640 O   0  0  0  0  0  0  0  0  0  0  0  0
  183.3510  176.2920  137.5860 C   0  0  0  0  0  0  0  0  0  0  0  0
  185.1730  178.8250  139.3980 C   0  0  1  0  0  3  0  0  0  0  0  0
  184.0760  179.8440  139.0970 C   0  0  0  0  0  2  0  0  0  0  0  0
  182.5880  173.4960  135.3010 C   0  0  0  0  0  2  0  0  0  0  0  0
  181.3790  172.5640  135.3510 C   0  0  0  0  0  2  0  0  0  0  0  0
  183.6630  172.0050  137.0230 C   0  0  0  0  0  2  0  0  0  0  0  0
  183.3250  173.4490  136.6400 C   0  0  0  0  0  3  0  0  0  0  0  0
  181.8120  171.1960  135.6390 N   0  0  0  0  0  0  0  0  0  0  0  0
  180.6130  170.3810  135.6810 C   0  0  0  0  0  1  0  0  0  0  0  0
  182.3910  171.1630  136.9810 C   0  0  0  0  0  2  0  0  0  0  0  0
  186.8280  173.5290  136.7700 O   0  0  0  0  0  0  0  0  0  0  0  0
  185.7990  173.7080  136.0670 C   0  0  0  0  0  3  0  0  0  0  0  0
  181.6430  179.4160  143.5040 C   0  0  0  0  0  2  0  0  0  0  0  0
  180.3710  178.6630  143.8820 C   0  0  0  0  0  2  0  0  0  0  0  0
  179.1440  179.5040  143.5840 C   0  0  0  0  0  2  0  0  0  0  0  0
  179.2320  181.2220  141.7390 N   0  0  0  0  0  2  0  0  0  0  0  0
  179.0880  179.8570  142.1360 C   0  0  0  0  0  0  0  0  0  0  0  0
  178.9310  178.9500  141.2730 O   0  0  0  0  0  0  0  0  0  0  0  0
  179.2420  181.6240  140.3440 C   0  0  0  0  0  1  0  0  0  0  0  0
  1 24  1  6  0  0  0
  1  3  1  0  0  0  0
  1 46  1  0  0  0  0
  2  3  2  0  0  0  0
  3  4  1  0  0  0  0
  4  7  1  0  0  0  0
  5  8  1  0  0  0  0
  6  8  2  0  0  0  0
  6 11  1  0  0  0  0
  7  5  2  0  0  0  0
  9  7  1  0  0  0  0
  9 10  2  0  0  0  0
 10  6  1  0  0  0  0
 12 11  1  0  0  0  0
 13 12  1  0  0  0  0
 14 13  1  0  0  0  0
 15 14  1  0  0  0  0
 16 22  1  6  0  0  0
 16 21  1  0  0  0  0
 16 15  1  0  0  0  0
 17 16  1  0  0  0  0
 18 17  1  0  0  0  0
 19 17  2  0  0  0  0
 21 20  1  0  0  0  0
 23 22  1  0  0  0  0
 25 24  1  0  0  0  0
 26 36  1  0  0  0  0
 26 35  1  0  0  0  0
 26 25  1  1  0  0  0
 27 31  1  0  0  0  0
 27 28  2  0  0  0  0
 28 30  1  0  0  0  0
 29 40  1  0  0  0  0
 29 31  2  0  0  0  0
 30 35  1  0  0  0  0
 31 34  1  0  0  0  0
 32 28  1  1  0  0  0
 32 26  1  0  0  0  0
 34 32  1  0  0  0  0
 34 33  2  0  0  0  0
 35 36  1  6  0  0  0
 37 38  1  0  0  0  0
 37 40  1  0  0  0  0
 38 41  1  0  0  0  0
 40 39  1  0  0  0  0
 41 42  1  0  0  0  0
 41 43  1  0  0  0  0
 43 39  1  0  0  0  0
 45 29  1  0  0  0  0
 45 44  2  0  0  0  0
 46 47  1  0  0  0  0
 48 47  1  0  0  0  0
 49 50  1  0  0  0  0
 50 48  1  0  0  0  0
 51 50  2  0  0  0  0
 52 49  1  0  0  0  0
M  END
>  <MODEL>
1

>  <REMARK>
 VINA RESULT:      -7.2      0.000      0.000
  Name = 
  20 active torsions:
  status: ('A' for Active; 'I' for Inactive)
    1  A    between atoms: C_1  and  C_49
    2  A    between atoms: C_3  and  N_4
    3  A    between atoms: C_3  and  C_35
    4  A    between atoms: N_4  and  C_19
    5  A    between atoms: C_12  and  C_47
    6  A    between atoms: C_14  and  C_23
    7  A    between atoms: C_14  and  C_52
    8  A    between atoms: C_15  and  C_20
    9  A    between atoms: C_15  and  C_31
   10  A    between atoms: C_16  and  C_23
   11  A    between atoms: C_18  and  C_24
   12  A    between atoms: C_21  and  C_47
   13  A    between atoms: C_22  and  N_36
   14  A    between atoms: C_24  and  C_42
   15  A    between atoms: C_24  and  C_52
   16  A    between atoms: C_27  and  C_47
   17  A    between atoms: C_28  and  C_33
   18  A    between atoms: C_28  and  C_47
   19  A    between atoms: C_33  and  C_35
   20  A    between atoms: C_42  and  C_49
                            x       y       z     vdW  Elec       q    Type
                         _______ _______ _______ _____ _____    ______ ____

>  <TORSDO>
F 20

$$$$
=
 OpenBabel11042413353D

 52 56  0  0  1  0  0  0  0  0999 V2000
  189.7960  177.6600  141.2340 C   0  0  2  0  0  3  0  0  0  0  0  0
  187.8450  178.8810  140.6260 O   0  0  0  0  0  0  0  0  0  0  0  0
  188.4090  178.1640  141.4940 C   0  0  0  0  0  0  0  0  0  0  0  0
  187.7460  177.8330  142.7230 N   0  0  0  0  0  2  0  0  0  0  0  0
  185.3640  178.1810  142.1190 C   0  0  0  0  0  3  0  0  0  0  0  0
  183.7400  178.6620  143.8540 C   0  0  0  0  0  0  0  0  0  0  0  0
  186.3890  178.1320  143.0760 C   0  0  0  0  0  0  0  0  0  0  0  0
  184.0470  178.4440  142.5070 C   0  0  0  0  0  3  0  0  0  0  0  0
  186.0790  178.3420  144.4230 C   0  0  0  0  0  3  0  0  0  0  0  0
  184.7630  178.6060  144.8120 C   0  0  0  0  0  3  0  0  0  0  0  0
  182.3810  178.9030  144.2320 N   0  0  0  0  0  2  0  0  0  0  0  0
  181.2410  178.5410  143.3980 C   0  0  0  0  0  2  0  0  0  0  0  0
  180.5120  179.7880  142.9220 C   0  0  0  0  0  2  0  0  0  0  0  0
  180.2790  179.7380  141.4200 C   0  0  0  0  0  2  0  0  0  0  0  0
  180.2920  178.2950  140.9100 C   0  0  0  0  0  2  0  0  0  0  0  0
  181.1110  178.0850  139.6300 C   0  0  1  0  0  0  0  0  0  0  0  0
  181.7830  176.7360  139.7570 C   0  0  0  0  0  0  0  0  0  0  0  0
  183.0350  176.6380  139.6330 O   0  0  0  0  0  0  0  0  0  0  0  0
  181.0490  175.6010  140.0760 O   0  0  0  0  0  1  0  0  0  0  0  0
  180.5050  177.1630  137.4720 F   0  0  0  0  0  0  0  0  0  0  0  0
  180.1660  178.1150  138.4180 C   0  0  0  0  0  2  0  0  0  0  0  0
  182.1580  179.2130  139.5320 C   0  0  0  0  0  2  0  0  0  0  0  0
  182.0140  180.0860  138.2930 C   0  0  0  0  0  1  0  0  0  0  0  0
  190.0720  177.5230  139.7420 C   0  0  0  0  0  2  0  0  0  0  0  0
  190.4440  176.0880  139.4150 C   0  0  0  0  0  2  0  0  0  0  0  0
  191.0270  175.9930  138.0150 C   0  0  2  0  0  0  0  0  0  0  0  0
  189.9960  173.8240  135.6700 N   0  0  0  0  0  0  0  0  0  0  0  0
  190.8100  174.7570  136.0470 C   0  0  0  0  0  0  0  0  0  0  0  0
  187.5640  173.5250  135.7320 C   0  0  0  0  0  0  0  0  0  0  0  0
  192.0840  174.4340  136.5720 N   0  0  0  0  0  2  0  0  0  0  0  0
  188.6810  174.2120  136.0460 C   0  0  0  0  0  0  0  0  0  0  0  0
  190.1860  175.9120  136.7400 C   0  0  1  0  0  3  0  0  0  0  0  0
  187.8520  176.0170  137.4490 O   0  0  0  0  0  0  0  0  0  0  0  0
  188.7850  175.4300  136.8420 C   0  0  0  0  0  0  0  0  0  0  0  0
  192.2140  175.0380  137.8950 C   0  0  1  0  0  3  0  0  0  0  0  0
  192.4210  176.5490  137.8190 C   0  0  0  0  0  2  0  0  0  0  0  0
  185.2140  173.9700  135.0140 C   0  0  0  0  0  2  0  0  0  0  0  0
  183.8460  174.4370  135.5050 C   0  0  0  0  0  2  0  0  0  0  0  0
  185.7000  173.2760  137.3860 C   0  0  0  0  0  2  0  0  0  0  0  0
  186.2200  174.0380  136.1640 C   0  0  0  0  0  3  0  0  0  0  0  0
  183.3980  173.5960  136.6170 N   0  0  0  0  0  0  0  0  0  0  0  0
  182.1060  174.1100  137.0300 C   0  0  0  0  0  1  0  0  0  0  0  0
  184.3080  173.7900  137.7440 C   0  0  0  0  0  2  0  0  0  0  0  0
  187.6070  171.1350  135.4500 O   0  0  0  0  0  0  0  0  0  0  0  0
  187.6010  172.2810  134.9300 C   0  0  0  0  0  3  0  0  0  0  0  0
  190.0920  176.3710  142.0000 C   0  0  0  0  0  2  0  0  0  0  0  0
  191.3320  176.4780  142.8830 C   0  0  0  0  0  2  0  0  0  0  0  0
  191.2880  177.7470  143.7140 C   0  0  0  0  0  2  0  0  0  0  0  0
  191.7990  176.8470  146.0140 N   0  0  0  0  0  2  0  0  0  0  0  0
  190.8670  177.4440  145.1130 C   0  0  0  0  0  0  0  0  0  0  0  0
  189.6980  177.7320  145.4930 O   0  0  0  0  0  0  0  0  0  0  0  0
  191.4680  176.5780  147.4020 C   0  0  0  0  0  1  0  0  0  0  0  0
  1 24  1  6  0  0  0
  1  3  1  0  0  0  0
  1 46  1  0  0  0  0
  2  3  2  0  0  0  0
  3  4  1  0  0  0  0
  4  7  1  0  0  0  0
  5  8  2  0  0  0  0
  5  7  1  0  0  0  0
  6 11  1  0  0  0  0
  6 10  2  0  0  0  0
  7  9  2  0  0  0  0
  8  6  1  0  0  0  0
  9 10  1  0  0  0  0
 12 11  1  0  0  0  0
 13 12  1  0  0  0  0
 14 13  1  0  0  0  0
 15 14  1  0  0  0  0
 16 21  1  6  0  0  0
 16 17  1  0  0  0  0
 16 15  1  0  0  0  0
 17 19  1  0  0  0  0
 18 17  2  0  0  0  0
 20 21  1  0  0  0  0
 22 16  1  0  0  0  0
 23 22  1  0  0  0  0
 25 24  1  0  0  0  0
 26 25  1  1  0  0  0
 27 31  1  0  0  0  0
 27 28  2  0  0  0  0
 28 30  1  0  0  0  0
 29 31  2  0  0  0  0
 29 40  1  0  0  0  0
 30 35  1  0  0  0  0
 31 34  1  0  0  0  0
 32 28  1  6  0  0  0
 32 34  1  0  0  0  0
 32 26  1  0  0  0  0
 34 33  2  0  0  0  0
 35 36  1  6  0  0  0
 35 26  1  0  0  0  0
 36 26  1  0  0  0  0
 37 38  1  0  0  0  0
 37 40  1  0  0  0  0
 38 41  1  0  0  0  0
 39 43  1  0  0  0  0
 40 39  1  0  0  0  0
 41 42  1  0  0  0  0
 41 43  1  0  0  0  0
 45 44  2  0  0  0  0
 45 29  1  0  0  0  0
 46 47  1  0  0  0  0
 47 48  1  0  0  0  0
 48 50  1  0  0  0  0
 49 52  1  0  0  0  0
 50 51  2  0  0  0  0
 50 49  1  0  0  0  0
M  END
>  <MODEL>
2

>  <REMARK>
 VINA RESULT:      -7.2      3.125      7.905
  Name = 
  20 active torsions:
  status: ('A' for Active; 'I' for Inactive)
    1  A    between atoms: C_1  and  C_49
    2  A    between atoms: C_3  and  N_4
    3  A    between atoms: C_3  and  C_35
    4  A    between atoms: N_4  and  C_19
    5  A    between atoms: C_12  and  C_47
    6  A    between atoms: C_14  and  C_23
    7  A    between atoms: C_14  and  C_52
    8  A    between atoms: C_15  and  C_20
    9  A    between atoms: C_15  and  C_31
   10  A    between atoms: C_16  and  C_23
   11  A    between atoms: C_18  and  C_24
   12  A    between atoms: C_21  and  C_47
   13  A    between atoms: C_22  and  N_36
   14  A    between atoms: C_24  and  C_42
   15  A    between atoms: C_24  and  C_52
   16  A    between atoms: C_27  and  C_47
   17  A    between atoms: C_28  and  C_33
   18  A    between atoms: C_28  and  C_47
   19  A    between atoms: C_33  and  C_35
   20  A    between atoms: C_42  and  C_49
                            x       y       z     vdW  Elec       q    Type
                         _______ _______ _______ _____ _____    ______ ____

>  <TORSDO>
F 20

$$$$
=
 OpenBabel11042413353D

 52 56  0  0  1  0  0  0  0  0999 V2000
  188.4280  178.3210  141.2070 C   0  0  2  0  0  3  0  0  0  0  0  0
  186.3890  178.9230  140.1350 O   0  0  0  0  0  0  0  0  0  0  0  0
  186.9590  178.6190  141.2160 C   0  0  0  0  0  0  0  0  0  0  0  0
  186.2260  178.5640  142.4490 N   0  0  0  0  0  2  0  0  0  0  0  0
  183.9000  178.2930  141.6260 C   0  0  0  0  0  3  0  0  0  0  0  0
  182.0400  178.9540  143.0350 C   0  0  0  0  0  0  0  0  0  0  0  0
  184.8090  178.7040  142.6130 C   0  0  0  0  0  0  0  0  0  0  0  0
  182.5230  178.4170  141.8370 C   0  0  0  0  0  3  0  0  0  0  0  0
  184.3230  179.2340  143.8130 C   0  0  0  0  0  3  0  0  0  0  0  0
  182.9480  179.3590  144.0240 C   0  0  0  0  0  3  0  0  0  0  0  0
  180.6270  179.0460  143.2410 N   0  0  0  0  0  2  0  0  0  0  0  0
  179.8140  180.1470  142.7360 C   0  0  0  0  0  2  0  0  0  0  0  0
  179.3720  179.8700  141.3070 C   0  0  0  0  0  2  0  0  0  0  0  0
  180.1240  180.7570  140.3260 C   0  0  0  0  0  2  0  0  0  0  0  0
  180.0820  180.1690  138.9130 C   0  0  0  0  0  2  0  0  0  0  0  0
  181.2170  180.6470  137.9980 C   0  0  1  0  0  0  0  0  0  0  0  0
  182.4660  179.9100  138.4280 C   0  0  0  0  0  0  0  0  0  0  0  0
  183.4200  180.5380  138.9620 O   0  0  0  0  0  1  0  0  0  0  0  0
  182.5560  178.5290  138.3040 O   0  0  0  0  0  0  0  0  0  0  0  0
  180.0940  179.1650  136.4420 F   0  0  0  0  0  0  0  0  0  0  0  0
  180.8590  180.3150  136.5400 C   0  0  0  0  0  2  0  0  0  0  0  0
  181.3850  182.1680  138.1850 C   0  0  0  0  0  2  0  0  0  0  0  0
  180.3650  183.0030  137.4230 C   0  0  0  0  0  1  0  0  0  0  0  0
  188.9580  178.1620  139.7880 C   0  0  0  0  0  2  0  0  0  0  0  0
  189.2250  176.6960  139.4970 C   0  0  0  0  0  2  0  0  0  0  0  0
  189.7370  176.5180  138.0780 C   0  0  2  0  0  0  0  0  0  0  0  0
  188.3750  174.4510  135.8110 N   0  0  0  0  0  0  0  0  0  0  0  0
  189.3050  175.2900  136.1410 C   0  0  0  0  0  0  0  0  0  0  0  0
  185.9290  174.4310  135.9700 C   0  0  0  0  0  0  0  0  0  0  0  0
  190.5530  174.8300  136.6230 N   0  0  0  0  0  2  0  0  0  0  0  0
  187.1280  174.9900  136.2300 C   0  0  0  0  0  0  0  0  0  0  0  0
  188.8430  176.5170  136.8370 C   0  0  1  0  0  3  0  0  0  0  0  0
  186.5660  176.8960  137.6330 O   0  0  0  0  0  0  0  0  0  0  0  0
  187.4020  176.1990  137.0010 C   0  0  0  0  0  0  0  0  0  0  0  0
  190.8030  175.4320  137.9290 C   0  0  1  0  0  3  0  0  0  0  0  0
  191.1770  176.9080  137.8200 C   0  0  0  0  0  2  0  0  0  0  0  0
  183.6760  175.2670  135.2940 C   0  0  0  0  0  2  0  0  0  0  0  0
  182.3860  175.8890  135.8240 C   0  0  0  0  0  2  0  0  0  0  0  0
  184.0340  174.3300  137.6050 C   0  0  0  0  0  2  0  0  0  0  0  0
  184.6710  175.0990  136.4440 C   0  0  0  0  0  3  0  0  0  0  0  0
  181.8100  175.0400  136.8680 N   0  0  0  0  0  0  0  0  0  0  0  0
  180.6030  175.7030  137.3220 C   0  0  0  0  0  1  0  0  0  0  0  0
  182.7290  175.0110  138.0040 C   0  0  0  0  0  2  0  0  0  0  0  0
  185.9560  172.0400  135.6950 O   0  0  0  0  0  0  0  0  0  0  0  0
  185.7940  173.1810  135.1890 C   0  0  0  0  0  3  0  0  0  0  0  0
  188.7770  177.1270  142.0950 C   0  0  0  0  0  2  0  0  0  0  0  0
  189.3510  177.5420  143.4460 C   0  0  0  0  0  2  0  0  0  0  0  0
  188.6050  176.8560  144.5760 C   0  0  0  0  0  2  0  0  0  0  0  0
  188.4480  177.8350  146.8950 N   0  0  0  0  0  2  0  0  0  0  0  0
  189.2270  177.1830  145.8910 C   0  0  0  0  0  0  0  0  0  0  0  0
  190.4290  176.8670  146.1140 O   0  0  0  0  0  0  0  0  0  0  0  0
  188.9780  178.1310  148.2140 C   0  0  0  0  0  1  0  0  0  0  0  0
  1 24  1  6  0  0  0
  1  3  1  0  0  0  0
  1 46  1  0  0  0  0
  2  3  2  0  0  0  0
  3  4  1  0  0  0  0
  4  7  1  0  0  0  0
  5  8  2  0  0  0  0
  5  7  1  0  0  0  0
  6 11  1  0  0  0  0
  6 10  2  0  0  0  0
  7  9  2  0  0  0  0
  8  6  1  0  0  0  0
  9 10  1  0  0  0  0
 12 11  1  0  0  0  0
 13 12  1  0  0  0  0
 14 13  1  0  0  0  0
 15 14  1  0  0  0  0
 16 21  1  6  0  0  0
 16 22  1  0  0  0  0
 16 17  1  0  0  0  0
 16 15  1  0  0  0  0
 17 18  1  0  0  0  0
 19 17  2  0  0  0  0
 20 21  1  0  0  0  0
 23 22  1  0  0  0  0
 25 24  1  0  0  0  0
 26 25  1  1  0  0  0
 27 28  2  0  0  0  0
 27 31  1  0  0  0  0
 28 30  1  0  0  0  0
 29 31  2  0  0  0  0
 29 40  1  0  0  0  0
 30 35  1  0  0  0  0
 31 34  1  0  0  0  0
 32 28  1  6  0  0  0
 32 34  1  0  0  0  0
 32 26  1  0  0  0  0
 34 33  2  0  0  0  0
 35 36  1  6  0  0  0
 35 26  1  0  0  0  0
 36 26  1  0  0  0  0
 37 38  1  0  0  0  0
 37 40  1  0  0  0  0
 38 41  1  0  0  0  0
 39 43  1  0  0  0  0
 40 39  1  0  0  0  0
 41 42  1  0  0  0  0
 41 43  1  0  0  0  0
 45 44  2  0  0  0  0
 45 29  1  0  0  0  0
 46 47  1  0  0  0  0
 47 48  1  0  0  0  0
 48 50  1  0  0  0  0
 49 52  1  0  0  0  0
 50 51  2  0  0  0  0
 50 49  1  0  0  0  0
M  END
>  <MODEL>
3

>  <REMARK>
 VINA RESULT:      -7.1      3.161      7.756
  Name = 
  20 active torsions:
  status: ('A' for Active; 'I' for Inactive)
    1  A    between atoms: C_1  and  C_49
    2  A    between atoms: C_3  and  N_4
    3  A    between atoms: C_3  and  C_35
    4  A    between atoms: N_4  and  C_19
    5  A    between atoms: C_12  and  C_47
    6  A    between atoms: C_14  and  C_23
    7  A    between atoms: C_14  and  C_52
    8  A    between atoms: C_15  and  C_20
    9  A    between atoms: C_15  and  C_31
   10  A    between atoms: C_16  and  C_23
   11  A    between atoms: C_18  and  C_24
   12  A    between atoms: C_21  and  C_47
   13  A    between atoms: C_22  and  N_36
   14  A    between atoms: C_24  and  C_42
   15  A    between atoms: C_24  and  C_52
   16  A    between atoms: C_27  and  C_47
   17  A    between atoms: C_28  and  C_33
   18  A    between atoms: C_28  and  C_47
   19  A    between atoms: C_33  and  C_35
   20  A    between atoms: C_42  and  C_49
                            x       y       z     vdW  Elec       q    Type
                         _______ _______ _______ _____ _____    ______ ____

>  <TORSDO>
F 20

$$$$
=
 OpenBabel11042413353D

 52 56  0  0  1  0  0  0  0  0999 V2000
  190.1450  176.3080  136.0130 C   0  0  2  0  0  3  0  0  0  0  0  0
  190.0780  175.1120  138.0700 O   0  0  0  0  0  0  0  0  0  0  0  0
  190.0820  176.2390  137.5080 C   0  0  0  0  0  0  0  0  0  0  0  0
  190.0210  177.4490  138.2790 N   0  0  0  0  0  2  0  0  0  0  0  0
  188.9250  177.7840  140.4800 C   0  0  0  0  0  3  0  0  0  0  0  0
  190.2520  177.7110  142.5090 C   0  0  0  0  0  0  0  0  0  0  0  0
  190.0750  177.5630  139.7070 C   0  0  0  0  0  0  0  0  0  0  0  0
  189.0140  177.8570  141.8740 C   0  0  0  0  0  3  0  0  0  0  0  0
  191.3100  177.4100  140.3440 C   0  0  0  0  0  3  0  0  0  0  0  0
  191.4000  177.4830  141.7360 C   0  0  0  0  0  3  0  0  0  0  0  0
  190.3160  177.7620  143.9380 N   0  0  0  0  0  2  0  0  0  0  0  0
  189.5640  176.8640  144.8050 C   0  0  0  0  0  2  0  0  0  0  0  0
  188.3670  177.5840  145.4080 C   0  0  0  0  0  2  0  0  0  0  0  0
  187.0800  177.1740  144.7100 C   0  0  0  0  0  2  0  0  0  0  0  0
  185.8810  177.9410  145.2740 C   0  0  0  0  0  2  0  0  0  0  0  0
  185.0490  178.6780  144.2170 C   0  0  1  0  0  0  0  0  0  0  0  0
  183.6290  178.7260  144.7340 C   0  0  0  0  0  0  0  0  0  0  0  0
  183.4060  178.9770  145.9500 O   0  0  0  0  0  1  0  0  0  0  0  0
  182.5500  178.5640  143.8740 O   0  0  0  0  0  0  0  0  0  0  0  0
  184.6210  181.0590  144.0750 F   0  0  0  0  0  0  0  0  0  0  0  0
  185.6140  180.0950  144.0320 C   0  0  0  0  0  2  0  0  0  0  0  0
  185.1260  177.8840  142.8980 C   0  0  0  0  0  2  0  0  0  0  0  0
  185.3840  178.7460  141.6690 C   0  0  0  0  0  1  0  0  0  0  0  0
  188.8120  175.9350  135.3790 C   0  0  0  0  0  2  0  0  0  0  0  0
  187.7100  175.9940  136.4220 C   0  0  0  0  0  2  0  0  0  0  0  0
  186.7500  174.8280  136.2500 C   0  0  2  0  0  0  0  0  0  0  0  0
  183.9020  174.4410  137.9850 N   0  0  0  0  0  0  0  0  0  0  0  0
  184.7520  173.9910  137.1170 C   0  0  0  0  0  0  0  0  0  0  0  0
  182.7720  176.5860  138.3440 C   0  0  0  0  0  0  0  0  0  0  0  0
  185.7580  173.0730  137.5010 N   0  0  0  0  0  2  0  0  0  0  0  0
  183.6710  175.8150  137.7000 C   0  0  0  0  0  0  0  0  0  0  0  0
  185.2330  174.9790  136.1200 C   0  0  1  0  0  3  0  0  0  0  0  0
  184.7730  177.3750  136.1950 O   0  0  0  0  0  0  0  0  0  0  0  0
  184.5950  176.2130  136.6430 C   0  0  0  0  0  0  0  0  0  0  0  0
  187.0600  173.6260  137.1420 C   0  0  1  0  0  3  0  0  0  0  0  0
  187.3160  173.5650  135.6380 C   0  0  0  0  0  2  0  0  0  0  0  0
  181.2960  178.2160  137.1620 C   0  0  0  0  0  2  0  0  0  0  0  0
  181.1150  179.6960  136.8310 C   0  0  0  0  0  2  0  0  0  0  0  0
  182.6340  178.9470  139.1660 C   0  0  0  0  0  2  0  0  0  0  0  0
  182.5940  178.0230  137.9470 C   0  0  0  0  0  3  0  0  0  0  0  0
  181.0820  180.4860  138.0630 N   0  0  0  0  0  0  0  0  0  0  0  0
  180.9210  181.8710  137.6630 C   0  0  0  0  0  1  0  0  0  0  0  0
  182.3850  180.3850  138.7180 C   0  0  0  0  0  2  0  0  0  0  0  0
  180.6530  175.9950  139.3220 O   0  0  0  0  0  0  0  0  0  0  0  0
  181.9060  176.0570  139.4220 C   0  0  0  0  0  3  0  0  0  0  0  0
  191.3070  175.4910  135.4480 C   0  0  0  0  0  2  0  0  0  0  0  0
  192.6230  175.7500  136.1750 C   0  0  0  0  0  2  0  0  0  0  0  0
  193.2390  174.4450  136.6450 C   0  0  0  0  0  2  0  0  0  0  0  0
  195.3850  173.5830  137.6530 N   0  0  0  0  0  2  0  0  0  0  0  0
  194.6700  174.6440  137.0170 C   0  0  0  0  0  0  0  0  0  0  0  0
  195.2420  175.7370  136.7530 O   0  0  0  0  0  0  0  0  0  0  0  0
  196.7920  173.6940  137.9900 C   0  0  0  0  0  1  0  0  0  0  0  0
  1 24  1  6  0  0  0
  1  3  1  0  0  0  0
  3  2  2  0  0  0  0
  3  4  1  0  0  0  0
  4  7  1  0  0  0  0
  5  8  1  0  0  0  0
  6 11  1  0  0  0  0
  7  9  1  0  0  0  0
  7  5  2  0  0  0  0
  8  6  2  0  0  0  0
  9 10  2  0  0  0  0
 10  6  1  0  0  0  0
 11 12  1  0  0  0  0
 12 13  1  0  0  0  0
 14 15  1  0  0  0  0
 14 13  1  0  0  0  0
 16 22  1  6  0  0  0
 16 17  1  0  0  0  0
 16 15  1  0  0  0  0
 17 18  1  0  0  0  0
 19 17  2  0  0  0  0
 21 20  1  0  0  0  0
 21 16  1  0  0  0  0
 23 22  1  0  0  0  0
 24 25  1  0  0  0  0
 26 25  1  1  0  0  0
 26 35  1  0  0  0  0
 28 30  1  0  0  0  0
 28 27  2  0  0  0  0
 29 45  1  0  0  0  0
 31 27  1  0  0  0  0
 31 29  2  0  0  0  0
 32 26  1  0  0  0  0
 32 34  1  1  0  0  0
 32 28  1  0  0  0  0
 33 34  2  0  0  0  0
 34 31  1  0  0  0  0
 35 36  1  6  0  0  0
 35 30  1  0  0  0  0
 36 26  1  0  0  0  0
 37 40  1  0  0  0  0
 38 37  1  0  0  0  0
 38 41  1  0  0  0  0
 40 29  1  0  0  0  0
 40 39  1  0  0  0  0
 41 43  1  0  0  0  0
 42 41  1  0  0  0  0
 43 39  1  0  0  0  0
 44 45  2  0  0  0  0
 46  1  1  0  0  0  0
 46 47  1  0  0  0  0
 47 48  1  0  0  0  0
 48 50  1  0  0  0  0
 49 52  1  0  0  0  0
 50 49  1  0  0  0  0
 51 50  2  0  0  0  0
M  END
>  <MODEL>
4

>  <REMARK>
 VINA RESULT:      -6.6      3.470      8.664
  Name = 
  20 active torsions:
  status: ('A' for Active; 'I' for Inactive)
    1  A    between atoms: C_1  and  C_49
    2  A    between atoms: C_3  and  N_4
    3  A    between atoms: C_3  and  C_35
    4  A    between atoms: N_4  and  C_19
    5  A    between atoms: C_12  and  C_47
    6  A    between atoms: C_14  and  C_23
    7  A    between atoms: C_14  and  C_52
    8  A    between atoms: C_15  and  C_20
    9  A    between atoms: C_15  and  C_31
   10  A    between atoms: C_16  and  C_23
   11  A    between atoms: C_18  and  C_24
   12  A    between atoms: C_21  and  C_47
   13  A    between atoms: C_22  and  N_36
   14  A    between atoms: C_24  and  C_42
   15  A    between atoms: C_24  and  C_52
   16  A    between atoms: C_27  and  C_47
   17  A    between atoms: C_28  and  C_33
   18  A    between atoms: C_28  and  C_47
   19  A    between atoms: C_33  and  C_35
   20  A    between atoms: C_42  and  C_49
                            x       y       z     vdW  Elec       q    Type
                         _______ _______ _______ _____ _____    ______ ____

>  <TORSDO>
F 20

$$$$
=
 OpenBabel11042413353D

 52 56  0  0  1  0  0  0  0  0999 V2000
  189.7540  177.4400  143.2640 C   0  0  2  0  0  3  0  0  0  0  0  0
  188.8340  178.1250  141.1790 O   0  0  0  0  0  0  0  0  0  0  0  0
  189.6810  177.4040  141.7680 C   0  0  0  0  0  0  0  0  0  0  0  0
  190.5660  176.5490  141.0280 N   0  0  0  0  0  2  0  0  0  0  0  0
  191.9530  176.6070  138.9710 C   0  0  0  0  0  3  0  0  0  0  0  0
  190.9110  176.2810  136.8070 C   0  0  0  0  0  0  0  0  0  0  0  0
  190.7070  176.4840  139.6030 C   0  0  0  0  0  0  0  0  0  0  0  0
  192.0540  176.5050  137.5800 C   0  0  0  0  0  3  0  0  0  0  0  0
  189.5660  176.2520  138.8280 C   0  0  0  0  0  3  0  0  0  0  0  0
  189.6650  176.1510  137.4380 C   0  0  0  0  0  3  0  0  0  0  0  0
  191.0400  176.1530  135.3870 N   0  0  0  0  0  2  0  0  0  0  0  0
  191.9000  175.1640  134.7470 C   0  0  0  0  0  2  0  0  0  0  0  0
  191.7550  173.8120  135.4280 C   0  0  0  0  0  2  0  0  0  0  0  0
  193.1130  173.1560  135.6230 C   0  0  0  0  0  2  0  0  0  0  0  0
  193.7770  173.6400  136.9150 C   0  0  0  0  0  2  0  0  0  0  0  0
  195.2590  174.0060  136.7630 C   0  0  1  0  0  0  0  0  0  0  0  0
  195.8620  173.9720  138.1500 C   0  0  0  0  0  0  0  0  0  0  0  0
  196.7280  174.8250  138.4850 O   0  0  0  0  0  0  0  0  0  0  0  0
  195.4270  173.0500  139.0940 O   0  0  0  0  0  1  0  0  0  0  0  0
  196.9800  172.3220  136.4810 F   0  0  0  0  0  0  0  0  0  0  0  0
  195.9380  172.9760  135.8460 C   0  0  0  0  0  2  0  0  0  0  0  0
  195.3520  175.4200  136.1580 C   0  0  0  0  0  2  0  0  0  0  0  0
  196.6280  175.6730  135.3650 C   0  0  0  0  0  1  0  0  0  0  0  0
  188.3670  177.4630  143.8930 C   0  0  0  0  0  2  0  0  0  0  0  0
  188.3830  178.3190  145.1470 C   0  0  0  0  0  2  0  0  0  0  0  0
  187.2140  177.9640  146.0500 C   0  0  2  0  0  0  0  0  0  0  0  0
  184.0340  178.8850  145.4920 N   0  0  0  0  0  0  0  0  0  0  0  0
  184.9140  178.3070  146.2470 C   0  0  0  0  0  0  0  0  0  0  0  0
  183.4800  178.7980  143.1060 C   0  0  0  0  0  0  0  0  0  0  0  0
  185.5050  179.0020  147.3280 N   0  0  0  0  0  2  0  0  0  0  0  0
  184.2640  178.4680  144.1520 C   0  0  0  0  0  0  0  0  0  0  0  0
  185.8760  177.4200  145.5460 C   0  0  1  0  0  3  0  0  0  0  0  0
  186.0830  177.2260  143.1210 O   0  0  0  0  0  0  0  0  0  0  0  0
  185.4900  177.6770  144.1360 C   0  0  0  0  0  0  0  0  0  0  0  0
  186.9550  178.9760  147.1660 C   0  0  1  0  0  3  0  0  0  0  0  0
  187.5440  177.6030  147.4820 C   0  0  0  0  0  2  0  0  0  0  0  0
  182.5320  177.8920  140.9820 C   0  0  0  0  0  2  0  0  0  0  0  0
  182.8930  177.4360  139.5700 C   0  0  0  0  0  2  0  0  0  0  0  0
  184.6160  179.3050  140.9320 C   0  0  0  0  0  2  0  0  0  0  0  0
  183.8050  178.2830  141.7330 C   0  0  0  0  0  3  0  0  0  0  0  0
  183.5890  178.5080  138.8580 N   0  0  0  0  0  0  0  0  0  0  0  0
  183.9060  177.9940  137.5390 C   0  0  0  0  0  1  0  0  0  0  0  0
  184.8630  178.7630  139.5270 C   0  0  0  0  0  2  0  0  0  0  0  0
  181.2080  179.2030  143.7890 O   0  0  0  0  0  0  0  0  0  0  0  0
  182.2670  179.6320  143.2600 C   0  0  0  0  0  3  0  0  0  0  0  0
  190.6410  178.5770  143.7690 C   0  0  0  0  0  2  0  0  0  0  0  0
  191.8440  178.0820  144.5660 C   0  0  0  0  0  2  0  0  0  0  0  0
  191.6270  176.6540  145.0290 C   0  0  0  0  0  2  0  0  0  0  0  0
  192.5840  175.6550  147.1390 N   0  0  0  0  0  2  0  0  0  0  0  0
  191.6790  176.5690  146.5170 C   0  0  0  0  0  0  0  0  0  0  0  0
  190.9390  177.3160  147.2150 O   0  0  0  0  0  0  0  0  0  0  0  0
  192.7210  175.5640  148.5810 C   0  0  0  0  0  1  0  0  0  0  0  0
  1 46  1  6  0  0  0
  1 24  1  0  0  0  0
  2  3  2  0  0  0  0
  3  1  1  0  0  0  0
  4  3  1  0  0  0  0
  5  7  1  0  0  0  0
  6 10  2  0  0  0  0
  6  8  1  0  0  0  0
  7  4  1  0  0  0  0
  8  5  2  0  0  0  0
  9  7  2  0  0  0  0
 10  9  1  0  0  0  0
 11  6  1  0  0  0  0
 12 11  1  0  0  0  0
 12 13  1  0  0  0  0
 13 14  1  0  0  0  0
 14 15  1  0  0  0  0
 16 21  1  6  0  0  0
 16 15  1  0  0  0  0
 16 17  1  0  0  0  0
 17 18  2  0  0  0  0
 17 19  1  0  0  0  0
 21 20  1  0  0  0  0
 22 16  1  0  0  0  0
 23 22  1  0  0  0  0
 24 25  1  0  0  0  0
 26 25  1  6  0  0  0
 26 35  1  0  0  0  0
 26 36  1  0  0  0  0
 27 28  2  0  0  0  0
 28 30  1  0  0  0  0
 29 45  1  0  0  0  0
 29 31  2  0  0  0  0
 31 27  1  0  0  0  0
 32 34  1  6  0  0  0
 32 26  1  0  0  0  0
 32 28  1  0  0  0  0
 33 34  2  0  0  0  0
 34 31  1  0  0  0  0
 35 30  1  0  0  0  0
 35 36  1  1  0  0  0
 37 40  1  0  0  0  0
 38 37  1  0  0  0  0
 39 40  1  0  0  0  0
 40 29  1  0  0  0  0
 41 43  1  0  0  0  0
 41 38  1  0  0  0  0
 42 41  1  0  0  0  0
 43 39  1  0  0  0  0
 45 44  2  0  0  0  0
 46 47  1  0  0  0  0
 47 48  1  0  0  0  0
 48 50  1  0  0  0  0
 49 52  1  0  0  0  0
 50 49  1  0  0  0  0
 50 51  2  0  0  0  0
M  END
>  <MODEL>
5

>  <REMARK>
 VINA RESULT:      -6.5      3.999      9.264
  Name = 
  20 active torsions:
  status: ('A' for Active; 'I' for Inactive)
    1  A    between atoms: C_1  and  C_49
    2  A    between atoms: C_3  and  N_4
    3  A    between atoms: C_3  and  C_35
    4  A    between atoms: N_4  and  C_19
    5  A    between atoms: C_12  and  C_47
    6  A    between atoms: C_14  and  C_23
    7  A    between atoms: C_14  and  C_52
    8  A    between atoms: C_15  and  C_20
    9  A    between atoms: C_15  and  C_31
   10  A    between atoms: C_16  and  C_23
   11  A    between atoms: C_18  and  C_24
   12  A    between atoms: C_21  and  C_47
   13  A    between atoms: C_22  and  N_36
   14  A    between atoms: C_24  and  C_42
   15  A    between atoms: C_24  and  C_52
   16  A    between atoms: C_27  and  C_47
   17  A    between atoms: C_28  and  C_33
   18  A    between atoms: C_28  and  C_47
   19  A    between atoms: C_33  and  C_35
   20  A    between atoms: C_42  and  C_49
                            x       y       z     vdW  Elec       q    Type
                         _______ _______ _______ _____ _____    ______ ____

>  <TORSDO>
F 20

$$$$
=
 OpenBabel11042413353D

 52 56  0  0  1  0  0  0  0  0999 V2000
  187.9110  178.0920  141.2840 C   0  0  2  0  0  3  0  0  0  0  0  0
  188.7480  178.9830  139.2420 O   0  0  0  0  0  0  0  0  0  0  0  0
  188.6980  177.9890  140.0130 C   0  0  0  0  0  0  0  0  0  0  0  0
  189.3760  176.7660  139.6880 N   0  0  0  0  0  2  0  0  0  0  0  0
  191.6550  176.5660  138.7260 C   0  0  0  0  0  3  0  0  0  0  0  0
  191.9270  176.0260  136.3780 C   0  0  0  0  0  0  0  0  0  0  0  0
  190.2590  176.5410  138.5820 C   0  0  0  0  0  0  0  0  0  0  0  0
  192.4830  176.3080  137.6290 C   0  0  0  0  0  3  0  0  0  0  0  0
  189.7050  176.2500  137.3310 C   0  0  0  0  0  3  0  0  0  0  0  0
  190.5320  175.9940  136.2350 C   0  0  0  0  0  3  0  0  0  0  0  0
  192.7940  175.7390  135.2750 N   0  0  0  0  0  2  0  0  0  0  0  0
  193.7910  174.6760  135.2960 C   0  0  0  0  0  2  0  0  0  0  0  0
  193.1180  173.3170  135.4200 C   0  0  0  0  0  2  0  0  0  0  0  0
  194.0670  172.2980  136.0320 C   0  0  0  0  0  2  0  0  0  0  0  0
  195.4620  172.8950  136.2280 C   0  0  0  0  0  2  0  0  0  0  0  0
  196.1550  172.4670  137.5280 C   0  0  1  0  0  0  0  0  0  0  0  0
  196.1340  170.9550  137.5570 C   0  0  0  0  0  0  0  0  0  0  0  0
  195.4310  170.3460  138.4080 O   0  0  0  0  0  1  0  0  0  0  0  0
  196.8310  170.2150  136.6100 O   0  0  0  0  0  0  0  0  0  0  0  0
  198.0910  173.1520  136.2420 F   0  0  0  0  0  0  0  0  0  0  0  0
  197.5980  172.9950  137.5260 C   0  0  0  0  0  2  0  0  0  0  0  0
  195.3630  173.0490  138.7160 C   0  0  0  0  0  2  0  0  0  0  0  0
  195.5040  174.5570  138.8760 C   0  0  0  0  0  1  0  0  0  0  0  0
  186.4710  178.5090  141.0190 C   0  0  0  0  0  2  0  0  0  0  0  0
  185.9910  179.4360  142.1220 C   0  0  0  0  0  2  0  0  0  0  0  0
  185.0660  178.6970  143.0750 C   0  0  2  0  0  0  0  0  0  0  0  0
  181.7600  179.2320  143.3120 N   0  0  0  0  0  0  0  0  0  0  0  0
  182.8270  178.6280  143.7300 C   0  0  0  0  0  0  0  0  0  0  0  0
  180.7590  179.6470  141.1140 C   0  0  0  0  0  0  0  0  0  0  0  0
  183.5440  179.1190  144.8460 N   0  0  0  0  0  2  0  0  0  0  0  0
  181.7640  179.1940  141.8900 C   0  0  0  0  0  0  0  0  0  0  0  0
  183.7190  178.0960  142.6700 C   0  0  1  0  0  3  0  0  0  0  0  0
  183.4640  178.5340  140.2810 O   0  0  0  0  0  0  0  0  0  0  0  0
  183.0390  178.6280  141.4620 C   0  0  0  0  0  0  0  0  0  0  0  0
  184.9290  179.3550  144.4490 C   0  0  1  0  0  3  0  0  0  0  0  0
  185.7090  178.0520  144.2850 C   0  0  0  0  0  2  0  0  0  0  0  0
  179.5810  178.9400  139.0290 C   0  0  0  0  0  2  0  0  0  0  0  0
  179.6910  178.9050  137.5060 C   0  0  0  0  0  2  0  0  0  0  0  0
  181.1670  180.8960  138.9810 C   0  0  0  0  0  2  0  0  0  0  0  0
  180.8590  179.5390  139.6190 C   0  0  0  0  0  3  0  0  0  0  0  0
  179.9000  180.2570  136.9860 N   0  0  0  0  0  0  0  0  0  0  0  0
  180.0050  180.1360  135.5450 C   0  0  0  0  0  1  0  0  0  0  0  0
  181.1930  180.7450  137.4630 C   0  0  0  0  0  2  0  0  0  0  0  0
  179.3060  181.4630  141.7350 O   0  0  0  0  0  0  0  0  0  0  0  0
  179.5200  180.2240  141.6820 C   0  0  0  0  0  3  0  0  0  0  0  0
  188.5970  178.9900  142.3140 C   0  0  0  0  0  2  0  0  0  0  0  0
  189.6310  178.2460  143.1530 C   0  0  0  0  0  2  0  0  0  0  0  0
  188.9900  177.0800  143.8820 C   0  0  0  0  0  2  0  0  0  0  0  0
  190.8110  176.7620  145.5970 N   0  0  0  0  0  2  0  0  0  0  0  0
  189.4410  177.0350  145.3020 C   0  0  0  0  0  0  0  0  0  0  0  0
  188.6150  177.2540  146.2310 O   0  0  0  0  0  0  0  0  0  0  0  0
  191.3240  176.7590  146.9560 C   0  0  0  0  0  1  0  0  0  0  0  0
  1 24  1  6  0  0  0
  1 46  1  0  0  0  0
  2  3  2  0  0  0  0
  3  1  1  0  0  0  0
  4  3  1  0  0  0  0
  6  8  1  0  0  0  0
  7  5  1  0  0  0  0
  7  4  1  0  0  0  0
  8  5  2  0  0  0  0
  9  7  2  0  0  0  0
 10  6  2  0  0  0  0
 10  9  1  0  0  0  0
 11 12  1  0  0  0  0
 11  6  1  0  0  0  0
 12 13  1  0  0  0  0
 13 14  1  0  0  0  0
 14 15  1  0  0  0  0
 16 15  1  6  0  0  0
 16 17  1  0  0  0  0
 16 22  1  0  0  0  0
 17 18  1  0  0  0  0
 19 17  2  0  0  0  0
 20 21  1  0  0  0  0
 21 16  1  0  0  0  0
 22 23  1  0  0  0  0
 24 25  1  0  0  0  0
 26 25  1  6  0  0  0
 26 36  1  0  0  0  0
 26 35  1  0  0  0  0
 27 28  2  0  0  0  0
 28 30  1  0  0  0  0
 29 45  1  0  0  0  0
 29 31  2  0  0  0  0
 31 27  1  0  0  0  0
 32 34  1  6  0  0  0
 32 26  1  0  0  0  0
 32 28  1  0  0  0  0
 33 34  2  0  0  0  0
 34 31  1  0  0  0  0
 35 36  1  1  0  0  0
 35 30  1  0  0  0  0
 37 40  1  0  0  0  0
 38 37  1  0  0  0  0
 39 40  1  0  0  0  0
 40 29  1  0  0  0  0
 41 43  1  0  0  0  0
 41 38  1  0  0  0  0
 42 41  1  0  0  0  0
 43 39  1  0  0  0  0
 45 44  2  0  0  0  0
 46 47  1  0  0  0  0
 47 48  1  0  0  0  0
 48 50  1  0  0  0  0
 49 52  1  0  0  0  0
 50 49  1  0  0  0  0
 50 51  2  0  0  0  0
M  END
>  <MODEL>
6

>  <REMARK>
 VINA RESULT:      -6.5      4.555      8.770
  Name = 
  20 active torsions:
  status: ('A' for Active; 'I' for Inactive)
    1  A    between atoms: C_1  and  C_49
    2  A    between atoms: C_3  and  N_4
    3  A    between atoms: C_3  and  C_35
    4  A    between atoms: N_4  and  C_19
    5  A    between atoms: C_12  and  C_47
    6  A    between atoms: C_14  and  C_23
    7  A    between atoms: C_14  and  C_52
    8  A    between atoms: C_15  and  C_20
    9  A    between atoms: C_15  and  C_31
   10  A    between atoms: C_16  and  C_23
   11  A    between atoms: C_18  and  C_24
   12  A    between atoms: C_21  and  C_47
   13  A    between atoms: C_22  and  N_36
   14  A    between atoms: C_24  and  C_42
   15  A    between atoms: C_24  and  C_52
   16  A    between atoms: C_27  and  C_47
   17  A    between atoms: C_28  and  C_33
   18  A    between atoms: C_28  and  C_47
   19  A    between atoms: C_33  and  C_35
   20  A    between atoms: C_42  and  C_49
                            x       y       z     vdW  Elec       q    Type
                         _______ _______ _______ _____ _____    ______ ____

>  <TORSDO>
F 20

$$$$
=
 OpenBabel11042413353D

 52 56  0  0  1  0  0  0  0  0999 V2000
  180.0150  178.4980  139.7200 C   0  0  2  0  0  3  0  0  0  0  0  0
  180.2460  177.6070  141.9160 O   0  0  0  0  0  0  0  0  0  0  0  0
  180.7570  178.3150  141.0090 C   0  0  0  0  0  0  0  0  0  0  0  0
  182.0310  178.9500  141.1970 N   0  0  0  0  0  2  0  0  0  0  0  0
  184.2400  178.3400  142.1520 C   0  0  0  0  0  3  0  0  0  0  0  0
  184.6180  178.5460  144.5380 C   0  0  0  0  0  0  0  0  0  0  0  0
  182.9180  178.7850  142.3110 C   0  0  0  0  0  0  0  0  0  0  0  0
  185.0840  178.2220  143.2600 C   0  0  0  0  0  3  0  0  0  0  0  0
  182.4570  179.1150  143.5890 C   0  0  0  0  0  3  0  0  0  0  0  0
  183.2990  178.9970  144.6970 C   0  0  0  0  0  3  0  0  0  0  0  0
  185.5080  178.4440  145.6540 N   0  0  0  0  0  2  0  0  0  0  0  0
  186.5110  177.3940  145.7860 C   0  0  0  0  0  2  0  0  0  0  0  0
  187.5780  177.7990  146.7910 C   0  0  0  0  0  2  0  0  0  0  0  0
  188.9700  177.6070  146.2100 C   0  0  0  0  0  2  0  0  0  0  0  0
  188.8970  177.1020  144.7660 C   0  0  0  0  0  2  0  0  0  0  0  0
  190.1040  177.4900  143.9010 C   0  0  1  0  0  0  0  0  0  0  0  0
  189.6340  177.4730  142.4640 C   0  0  0  0  0  0  0  0  0  0  0  0
  188.8300  178.3520  142.0500 O   0  0  0  0  0  1  0  0  0  0  0  0
  190.1280  176.5380  141.5640 O   0  0  0  0  0  0  0  0  0  0  0  0
  191.9080  179.1070  143.9760 F   0  0  0  0  0  0  0  0  0  0  0  0
  190.5810  178.8940  144.3060 C   0  0  0  0  0  2  0  0  0  0  0  0
  191.2180  176.4490  144.1270 C   0  0  0  0  0  2  0  0  0  0  0  0
  191.7350  176.3950  145.5590 C   0  0  0  0  0  1  0  0  0  0  0  0
  180.9650  178.5820  138.5340 C   0  0  0  0  0  2  0  0  0  0  0  0
  180.5010  177.6440  137.4330 C   0  0  0  0  0  2  0  0  0  0  0  0
  180.5440  176.2020  137.9090 C   0  0  2  0  0  0  0  0  0  0  0  0
  182.7700  173.9200  136.8580 N   0  0  0  0  0  0  0  0  0  0  0  0
  181.7260  174.2200  137.5640 C   0  0  0  0  0  0  0  0  0  0  0  0
  184.9920  174.9070  136.5530 C   0  0  0  0  0  0  0  0  0  0  0  0
  180.4240  173.9890  137.0610 N   0  0  0  0  0  2  0  0  0  0  0  0
  183.7420  174.9370  137.0590 C   0  0  0  0  0  0  0  0  0  0  0  0
  181.8200  175.4790  138.3430 C   0  0  1  0  0  3  0  0  0  0  0  0
  183.6290  177.1080  138.1490 O   0  0  0  0  0  0  0  0  0  0  0  0
  183.1260  175.9920  137.8560 C   0  0  0  0  0  0  0  0  0  0  0  0
  179.6820  175.2450  137.0840 C   0  0  1  0  0  3  0  0  0  0  0  0
  179.2670  175.6410  138.5000 C   0  0  0  0  0  2  0  0  0  0  0  0
  187.2770  175.4880  137.3720 C   0  0  0  0  0  2  0  0  0  0  0  0
  188.2450  176.6480  137.5990 C   0  0  0  0  0  2  0  0  0  0  0  0
  186.1680  176.9100  135.6140 C   0  0  0  0  0  2  0  0  0  0  0  0
  185.9470  176.0290  136.8460 C   0  0  0  0  0  3  0  0  0  0  0  0
  188.4570  177.3760  136.3470 N   0  0  0  0  0  0  0  0  0  0  0  0
  189.3720  178.4610  136.6480 C   0  0  0  0  0  1  0  0  0  0  0  0
  187.1930  177.9910  135.9450 C   0  0  0  0  0  2  0  0  0  0  0  0
  186.7110  173.5440  135.5640 O   0  0  0  0  0  0  0  0  0  0  0  0
  185.4860  173.7770  135.7340 C   0  0  0  0  0  3  0  0  0  0  0  0
  179.0480  179.6800  139.7770 C   0  0  0  0  0  2  0  0  0  0  0  0
  179.0910  180.5420  138.5190 C   0  0  0  0  0  2  0  0  0  0  0  0
  179.5840  181.9400  138.8460 C   0  0  0  0  0  2  0  0  0  0  0  0
  180.4990  183.9370  137.6060 N   0  0  0  0  0  2  0  0  0  0  0  0
  180.3210  182.5220  137.6880 C   0  0  0  0  0  0  0  0  0  0  0  0
  180.7950  181.7620  136.7990 O   0  0  0  0  0  0  0  0  0  0  0  0
  181.2540  184.5600  136.5340 C   0  0  0  0  0  1  0  0  0  0  0  0
  1 24  1  6  0  0  0
  1 46  1  0  0  0  0
  1  3  1  0  0  0  0
  3  4  1  0  0  0  0
  3  2  2  0  0  0  0
  4  7  1  0  0  0  0
  5  7  2  0  0  0  0
  5  8  1  0  0  0  0
  6 10  1  0  0  0  0
  6 11  1  0  0  0  0
  7  9  1  0  0  0  0
  8  6  2  0  0  0  0
  9 10  2  0  0  0  0
 11 12  1  0  0  0  0
 12 13  1  0  0  0  0
 14 13  1  0  0  0  0
 15 14  1  0  0  0  0
 16 22  1  1  0  0  0
 16 21  1  0  0  0  0
 16 15  1  0  0  0  0
 17 16  1  0  0  0  0
 18 17  1  0  0  0  0
 19 17  2  0  0  0  0
 20 21  1  0  0  0  0
 22 23  1  0  0  0  0
 25 24  1  0  0  0  0
 26 25  1  6  0  0  0
 26 32  1  0  0  0  0
 26 36  1  0  0  0  0
 27 31  1  0  0  0  0
 27 28  2  0  0  0  0
 29 40  1  0  0  0  0
 29 31  2  0  0  0  0
 30 35  1  0  0  0  0
 30 28  1  0  0  0  0
 31 34  1  0  0  0  0
 32 28  1  6  0  0  0
 34 33  2  0  0  0  0
 34 32  1  0  0  0  0
 35 26  1  0  0  0  0
 35 36  1  1  0  0  0
 37 38  1  0  0  0  0
 39 43  1  0  0  0  0
 39 40  1  0  0  0  0
 40 37  1  0  0  0  0
 41 42  1  0  0  0  0
 41 38  1  0  0  0  0
 43 41  1  0  0  0  0
 44 45  2  0  0  0  0
 45 29  1  0  0  0  0
 47 48  1  0  0  0  0
 47 46  1  0  0  0  0
 49 50  1  0  0  0  0
 50 48  1  0  0  0  0
 51 50  2  0  0  0  0
 52 49  1  0  0  0  0
M  END
>  <MODEL>
7

>  <REMARK>
 VINA RESULT:      -6.5      2.565      4.856
  Name = 
  20 active torsions:
  status: ('A' for Active; 'I' for Inactive)
    1  A    between atoms: C_1  and  C_49
    2  A    between atoms: C_3  and  N_4
    3  A    between atoms: C_3  and  C_35
    4  A    between atoms: N_4  and  C_19
    5  A    between atoms: C_12  and  C_47
    6  A    between atoms: C_14  and  C_23
    7  A    between atoms: C_14  and  C_52
    8  A    between atoms: C_15  and  C_20
    9  A    between atoms: C_15  and  C_31
   10  A    between atoms: C_16  and  C_23
   11  A    between atoms: C_18  and  C_24
   12  A    between atoms: C_21  and  C_47
   13  A    between atoms: C_22  and  N_36
   14  A    between atoms: C_24  and  C_42
   15  A    between atoms: C_24  and  C_52
   16  A    between atoms: C_27  and  C_47
   17  A    between atoms: C_28  and  C_33
   18  A    between atoms: C_28  and  C_47
   19  A    between atoms: C_33  and  C_35
   20  A    between atoms: C_42  and  C_49
                            x       y       z     vdW  Elec       q    Type
                         _______ _______ _______ _____ _____    ______ ____

>  <TORSDO>
F 20

$$$$
=
 OpenBabel11042413353D

 52 56  0  0  1  0  0  0  0  0999 V2000
  182.5530  178.0030  138.4060 C   0  0  2  0  0  3  0  0  0  0  0  0
  182.2140  176.8420  140.4560 O   0  0  0  0  0  0  0  0  0  0  0  0
  182.7680  177.8130  139.8760 C   0  0  0  0  0  0  0  0  0  0  0  0
  183.5930  178.7350  140.6040 N   0  0  0  0  0  2  0  0  0  0  0  0
  185.3000  178.2750  142.3460 C   0  0  0  0  0  3  0  0  0  0  0  0
  184.7230  178.5120  144.6890 C   0  0  0  0  0  0  0  0  0  0  0  0
  183.9940  178.6320  141.9770 C   0  0  0  0  0  0  0  0  0  0  0  0
  185.6620  178.2170  143.6960 C   0  0  0  0  0  3  0  0  0  0  0  0
  183.0590  178.9340  142.9720 C   0  0  0  0  0  3  0  0  0  0  0  0
  183.4190  178.8750  144.3200 C   0  0  0  0  0  3  0  0  0  0  0  0
  185.1220  178.4720  146.0630 N   0  0  0  0  0  2  0  0  0  0  0  0
  186.3900  179.0070  146.5450 C   0  0  0  0  0  2  0  0  0  0  0  0
  187.2380  177.9000  147.1520 C   0  0  0  0  0  2  0  0  0  0  0  0
  188.0990  177.2330  146.0900 C   0  0  0  0  0  2  0  0  0  0  0  0
  189.3510  178.0660  145.7970 C   0  0  0  0  0  2  0  0  0  0  0  0
  190.3440  177.3940  144.8400 C   0  0  1  0  0  0  0  0  0  0  0  0
  190.9520  178.4940  143.9980 C   0  0  0  0  0  0  0  0  0  0  0  0
  190.8800  179.6940  144.3770 O   0  0  0  0  0  1  0  0  0  0  0  0
  191.6520  178.1970  142.8360 O   0  0  0  0  0  0  0  0  0  0  0  0
  191.2710  176.8900  147.0230 F   0  0  0  0  0  0  0  0  0  0  0  0
  191.4250  176.6740  145.6640 C   0  0  0  0  0  2  0  0  0  0  0  0
  189.5710  176.3920  143.9600 C   0  0  0  0  0  2  0  0  0  0  0  0
  188.9340  177.0150  142.7260 C   0  0  0  0  0  1  0  0  0  0  0  0
  183.7340  177.4880  137.5950 C   0  0  0  0  0  2  0  0  0  0  0  0
  183.2510  176.4930  136.5540 C   0  0  0  0  0  2  0  0  0  0  0  0
  183.1610  175.0980  137.1510 C   0  0  2  0  0  0  0  0  0  0  0  0
  185.0540  172.4960  136.1950 N   0  0  0  0  0  0  0  0  0  0  0  0
  184.0930  172.9710  136.9220 C   0  0  0  0  0  0  0  0  0  0  0  0
  187.3500  173.1920  135.6960 C   0  0  0  0  0  0  0  0  0  0  0  0
  182.7460  172.8530  136.5050 N   0  0  0  0  0  2  0  0  0  0  0  0
  186.1440  173.4070  136.2590 C   0  0  0  0  0  0  0  0  0  0  0  0
  184.3720  174.2700  137.5830 C   0  0  1  0  0  3  0  0  0  0  0  0
  186.3370  175.6580  137.1610 O   0  0  0  0  0  0  0  0  0  0  0  0
  185.6960  174.5870  136.9910 C   0  0  0  0  0  0  0  0  0  0  0  0
  182.1510  174.1850  136.4560 C   0  0  1  0  0  3  0  0  0  0  0  0
  181.8670  174.7390  137.8500 C   0  0  0  0  0  2  0  0  0  0  0  0
  189.2820  173.9380  137.0900 C   0  0  0  0  0  2  0  0  0  0  0  0
  190.4180  174.9570  137.1740 C   0  0  0  0  0  2  0  0  0  0  0  0
  189.3210  174.2750  134.5940 C   0  0  0  0  0  2  0  0  0  0  0  0
  188.4390  174.2150  135.8440 C   0  0  0  0  0  3  0  0  0  0  0  0
  191.2520  174.8790  135.9740 N   0  0  0  0  0  0  0  0  0  0  0  0
  192.2920  175.8790  136.1260 C   0  0  0  0  0  1  0  0  0  0  0  0
  190.4480  175.2790  134.8200 C   0  0  0  0  0  2  0  0  0  0  0  0
  188.5470  171.1350  135.3370 O   0  0  0  0  0  0  0  0  0  0  0  0
  187.6670  171.9500  134.9560 C   0  0  0  0  0  3  0  0  0  0  0  0
  182.1960  179.4480  138.0600 C   0  0  0  0  0  2  0  0  0  0  0  0
  180.8600  179.8880  138.6520 C   0  0  0  0  0  2  0  0  0  0  0  0
  180.8640  181.3800  138.9290 C   0  0  0  0  0  2  0  0  0  0  0  0
  179.8500  181.6080  136.6310 N   0  0  0  0  0  2  0  0  0  0  0  0
  180.6700  182.1500  137.6670 C   0  0  0  0  0  0  0  0  0  0  0  0
  181.2170  183.2780  137.5290 O   0  0  0  0  0  0  0  0  0  0  0  0
  179.5780  182.3310  135.4020 C   0  0  0  0  0  1  0  0  0  0  0  0
  1 24  1  6  0  0  0
  1  3  1  0  0  0  0
  3  2  2  0  0  0  0
  3  4  1  0  0  0  0
  4  7  1  0  0  0  0
  5  8  1  0  0  0  0
  6 11  1  0  0  0  0
  7  5  2  0  0  0  0
  7  9  1  0  0  0  0
  8  6  2  0  0  0  0
  9 10  2  0  0  0  0
 10  6  1  0  0  0  0
 11 12  1  0  0  0  0
 12 13  1  0  0  0  0
 14 13  1  0  0  0  0
 15 14  1  0  0  0  0
 16 22  1  6  0  0  0
 16 21  1  0  0  0  0
 16 15  1  0  0  0  0
 17 18  1  0  0  0  0
 17 16  1  0  0  0  0
 19 17  2  0  0  0  0
 21 20  1  0  0  0  0
 23 22  1  0  0  0  0
 25 24  1  0  0  0  0
 26 25  1  6  0  0  0
 26 32  1  0  0  0  0
 26 36  1  0  0  0  0
 27 31  1  0  0  0  0
 27 28  2  0  0  0  0
 29 40  1  0  0  0  0
 29 31  2  0  0  0  0
 30 28  1  0  0  0  0
 31 34  1  0  0  0  0
 32 28  1  6  0  0  0
 34 33  2  0  0  0  0
 34 32  1  0  0  0  0
 35 30  1  0  0  0  0
 35 26  1  0  0  0  0
 35 36  1  1  0  0  0
 37 38  1  0  0  0  0
 39 43  1  0  0  0  0
 39 40  1  0  0  0  0
 40 37  1  0  0  0  0
 41 42  1  0  0  0  0
 41 38  1  0  0  0  0
 43 41  1  0  0  0  0
 45 44  2  0  0  0  0
 45 29  1  0  0  0  0
 46  1  1  0  0  0  0
 46 47  1  0  0  0  0
 47 48  1  0  0  0  0
 49 50  1  0  0  0  0
 50 48  1  0  0  0  0
 51 50  2  0  0  0  0
 52 49  1  0  0  0  0
M  END
>  <MODEL>
8

>  <REMARK>
 VINA RESULT:      -6.5      2.774      5.159
  Name = 
  20 active torsions:
  status: ('A' for Active; 'I' for Inactive)
    1  A    between atoms: C_1  and  C_49
    2  A    between atoms: C_3  and  N_4
    3  A    between atoms: C_3  and  C_35
    4  A    between atoms: N_4  and  C_19
    5  A    between atoms: C_12  and  C_47
    6  A    between atoms: C_14  and  C_23
    7  A    between atoms: C_14  and  C_52
    8  A    between atoms: C_15  and  C_20
    9  A    between atoms: C_15  and  C_31
   10  A    between atoms: C_16  and  C_23
   11  A    between atoms: C_18  and  C_24
   12  A    between atoms: C_21  and  C_47
   13  A    between atoms: C_22  and  N_36
   14  A    between atoms: C_24  and  C_42
   15  A    between atoms: C_24  and  C_52
   16  A    between atoms: C_27  and  C_47
   17  A    between atoms: C_28  and  C_33
   18  A    between atoms: C_28  and  C_47
   19  A    between atoms: C_33  and  C_35
   20  A    between atoms: C_42  and  C_49
                            x       y       z     vdW  Elec       q    Type
                         _______ _______ _______ _____ _____    ______ ____

>  <TORSDO>
F 20

$$$$
=
 OpenBabel11042413353D

 52 56  0  0  1  0  0  0  0  0999 V2000
  188.6760  177.4510  142.1780 C   0  0  2  0  0  3  0  0  0  0  0  0
  188.7990  178.5430  140.0660 O   0  0  0  0  0  0  0  0  0  0  0  0
  189.0730  177.5110  140.7340 C   0  0  0  0  0  0  0  0  0  0  0  0
  189.7490  176.3980  140.1310 N   0  0  0  0  0  2  0  0  0  0  0  0
  191.6710  176.4860  138.5630 C   0  0  0  0  0  3  0  0  0  0  0  0
  191.3050  176.1490  136.1900 C   0  0  0  0  0  0  0  0  0  0  0  0
  190.2970  176.3400  138.8070 C   0  0  0  0  0  0  0  0  0  0  0  0
  192.1710  176.3900  137.2610 C   0  0  0  0  0  3  0  0  0  0  0  0
  189.4340  176.0910  137.7360 C   0  0  0  0  0  3  0  0  0  0  0  0
  189.9320  175.9950  136.4350 C   0  0  0  0  0  3  0  0  0  0  0  0
  191.8420  176.0280  134.8690 N   0  0  0  0  0  2  0  0  0  0  0  0
  193.1900  175.5450  134.5940 C   0  0  0  0  0  2  0  0  0  0  0  0
  193.3260  174.0850  134.9990 C   0  0  0  0  0  2  0  0  0  0  0  0
  194.7770  173.7370  135.2910 C   0  0  0  0  0  2  0  0  0  0  0  0
  195.3580  174.6630  136.3640 C   0  0  0  0  0  2  0  0  0  0  0  0
  196.4120  174.0040  137.2620 C   0  0  1  0  0  0  0  0  0  0  0  0
  197.6260  174.9070  137.2460 C   0  0  0  0  0  0  0  0  0  0  0  0
  197.8430  175.6580  136.2570 O   0  0  0  0  0  0  0  0  0  0  0  0
  198.4800  174.9720  138.3400 O   0  0  0  0  0  1  0  0  0  0  0  0
  194.5950  174.4510  138.8020 F   0  0  0  0  0  0  0  0  0  0  0  0
  195.8460  173.8720  138.6860 C   0  0  0  0  0  2  0  0  0  0  0  0
  196.7510  172.6180  136.6790 C   0  0  0  0  0  2  0  0  0  0  0  0
  196.3540  171.4540  137.5780 C   0  0  0  0  0  1  0  0  0  0  0  0
  187.1630  177.4310  142.3430 C   0  0  0  0  0  2  0  0  0  0  0  0
  186.7080  178.6780  143.0810 C   0  0  0  0  0  2  0  0  0  0  0  0
  185.6820  178.3240  144.1450 C   0  0  2  0  0  0  0  0  0  0  0  0
  182.4890  179.3590  144.1270 N   0  0  0  0  0  0  0  0  0  0  0  0
  183.4550  178.7270  144.7140 C   0  0  0  0  0  0  0  0  0  0  0  0
  181.5660  179.3790  141.8560 C   0  0  0  0  0  0  0  0  0  0  0  0
  184.2330  179.3630  145.7100 N   0  0  0  0  0  2  0  0  0  0  0  0
  182.4920  178.9860  142.7550 C   0  0  0  0  0  0  0  0  0  0  0  0
  184.2640  177.8390  143.8420 C   0  0  1  0  0  3  0  0  0  0  0  0
  184.0820  177.7310  141.4090 O   0  0  0  0  0  0  0  0  0  0  0  0
  183.6710  178.1610  142.5190 C   0  0  0  0  0  0  0  0  0  0  0  0
  185.6380  179.3010  145.3210 C   0  0  1  0  0  3  0  0  0  0  0  0
  186.2210  177.9000  145.4950 C   0  0  0  0  0  2  0  0  0  0  0  0
  180.8520  177.6190  140.2350 C   0  0  0  0  0  2  0  0  0  0  0  0
  180.9090  177.2040  138.7670 C   0  0  0  0  0  2  0  0  0  0  0  0
  181.1890  179.9910  139.4570 C   0  0  0  0  0  2  0  0  0  0  0  0
  181.6530  178.9070  140.4340 C   0  0  0  0  0  3  0  0  0  0  0  0
  180.3670  178.2700  137.9220 N   0  0  0  0  0  0  0  0  0  0  0  0
  180.4680  177.8040  136.5520 C   0  0  0  0  0  1  0  0  0  0  0  0
  181.2350  179.4410  138.0340 C   0  0  0  0  0  2  0  0  0  0  0  0
  179.3190  179.7800  142.6220 O   0  0  0  0  0  0  0  0  0  0  0  0
  180.4210  180.2420  142.2270 C   0  0  0  0  0  3  0  0  0  0  0  0
  189.3370  178.5560  143.0020 C   0  0  0  0  0  2  0  0  0  0  0  0
  190.2100  178.0140  144.1300 C   0  0  0  0  0  2  0  0  0  0  0  0
  189.4520  178.0260  145.4450 C   0  0  0  0  0  2  0  0  0  0  0  0
  191.4720  176.7400  146.2350 N   0  0  0  0  0  2  0  0  0  0  0  0
  190.1180  177.1420  146.4440 C   0  0  0  0  0  0  0  0  0  0  0  0
  189.4880  176.7690  147.4720 O   0  0  0  0  0  0  0  0  0  0  0  0
  192.1940  175.9250  147.1960 C   0  0  0  0  0  1  0  0  0  0  0  0
  1 24  1  6  0  0  0
  1 46  1  0  0  0  0
  2  3  2  0  0  0  0
  3  1  1  0  0  0  0
  4  3  1  0  0  0  0
  5  7  1  0  0  0  0
  6 10  2  0  0  0  0
  6  8  1  0  0  0  0
  7  4  1  0  0  0  0
  8  5  2  0  0  0  0
  9  7  2  0  0  0  0
 10  9  1  0  0  0  0
 11  6  1  0  0  0  0
 12 11  1  0  0  0  0
 12 13  1  0  0  0  0
 13 14  1  0  0  0  0
 14 15  1  0  0  0  0
 16 15  1  6  0  0  0
 16 21  1  0  0  0  0
 17 16  1  0  0  0  0
 17 19  1  0  0  0  0
 18 17  2  0  0  0  0
 21 20  1  0  0  0  0
 22 16  1  0  0  0  0
 22 23  1  0  0  0  0
 24 25  1  0  0  0  0
 26 25  1  6  0  0  0
 26 35  1  0  0  0  0
 26 36  1  0  0  0  0
 27 28  2  0  0  0  0
 28 30  1  0  0  0  0
 29 45  1  0  0  0  0
 29 31  2  0  0  0  0
 31 27  1  0  0  0  0
 32 34  1  6  0  0  0
 32 26  1  0  0  0  0
 32 28  1  0  0  0  0
 33 34  2  0  0  0  0
 34 31  1  0  0  0  0
 35 36  1  1  0  0  0
 35 30  1  0  0  0  0
 37 40  1  0  0  0  0
 38 37  1  0  0  0  0
 39 40  1  0  0  0  0
 40 29  1  0  0  0  0
 41 43  1  0  0  0  0
 41 38  1  0  0  0  0
 42 41  1  0  0  0  0
 43 39  1  0  0  0  0
 45 44  2  0  0  0  0
 46 47  1  0  0  0  0
 47 48  1  0  0  0  0
 48 50  1  0  0  0  0
 49 50  1  0  0  0  0
 49 52  1  0  0  0  0
 50 51  2  0  0  0  0
M  END
>  <MODEL>
9

>  <REMARK>
 VINA RESULT:      -6.4      4.266      8.800
  Name = 
  20 active torsions:
  status: ('A' for Active; 'I' for Inactive)
    1  A    between atoms: C_1  and  C_49
    2  A    between atoms: C_3  and  N_4
    3  A    between atoms: C_3  and  C_35
    4  A    between atoms: N_4  and  C_19
    5  A    between atoms: C_12  and  C_47
    6  A    between atoms: C_14  and  C_23
    7  A    between atoms: C_14  and  C_52
    8  A    between atoms: C_15  and  C_20
    9  A    between atoms: C_15  and  C_31
   10  A    between atoms: C_16  and  C_23
   11  A    between atoms: C_18  and  C_24
   12  A    between atoms: C_21  and  C_47
   13  A    between atoms: C_22  and  N_36
   14  A    between atoms: C_24  and  C_42
   15  A    between atoms: C_24  and  C_52
   16  A    between atoms: C_27  and  C_47
   17  A    between atoms: C_28  and  C_33
   18  A    between atoms: C_28  and  C_47
   19  A    between atoms: C_33  and  C_35
   20  A    between atoms: C_42  and  C_49
                            x       y       z     vdW  Elec       q    Type
                         _______ _______ _______ _____ _____    ______ ____

>  <TORSDO>
F 20

$$$$
