=
 OpenBabel11032419563D

 52 56  0  0  1  0  0  0  0  0999 V2000
  186.9260  177.6110  137.5750 C   0  0  1  0  0  3  0  0  0  0  0  0
  187.9640  175.7700  134.9830 C   0  0  0  0  0  2  0  0  0  0  0  0
  188.0310  176.8730  138.2340 N   0  0  0  0  0  0  0  0  0  0  0  0
  187.3430  178.9020  136.8400 C   0  0  0  0  0  1  0  0  0  0  0  0
  186.2090  176.6170  136.6540 C   0  0  2  0  0  3  0  0  0  0  0  0
  189.5150  174.9480  137.4030 C   0  0  0  0  0  3  0  0  0  0  0  0
  187.2300  175.5430  136.3130 C   0  0  2  0  0  3  0  0  0  0  0  0
  188.1450  175.5760  137.5320 C   0  0  2  0  0  3  0  0  0  0  0  0
  190.3880  176.3630  135.4680 C   0  0  0  0  0  2  0  0  0  0  0  0
  190.4840  175.2810  136.5390 C   0  0  0  0  0  0  0  0  0  0  0  0
  188.9990  176.8810  135.0830 C   0  0  0  0  0  2  0  0  0  0  0  0
  190.9560  172.7970  134.9270 C   0  0  0  0  0  1  0  0  0  0  0  0
  194.1270  173.1460  136.8510 C   0  0  0  0  0  0  0  0  0  0  0  0
  193.1500  172.6900  136.0190 N   0  0  0  0  0  0  0  0  0  0  0  0
  193.9140  174.3270  137.5730 C   0  0  0  0  0  3  0  0  0  0  0  0
  192.7350  174.9880  137.4410 N   0  0  0  0  0  0  0  0  0  0  0  0
  195.3610  172.4200  136.9680 N   0  0  0  0  0  0  0  0  0  0  0  0
  191.7460  174.5250  136.6250 C   0  0  0  0  0  0  0  0  0  0  0  0
  191.9670  173.3410  135.8870 C   0  0  0  0  0  0  0  0  0  0  0  0
  195.5760  171.3370  136.1860 O   0  0  0  0  0  1  0  0  0  0  0  0
  196.3370  172.7250  138.0050 C   0  0  0  0  0  2  0  0  0  0  0  0
  197.6660  173.1500  137.4080 C   0  0  0  0  0  2  0  0  0  0  0  0
  197.5210  174.4290  136.6010 C   0  0  0  0  0  2  0  0  0  0  0  0
  197.8950  175.5360  137.3670 O   0  0  0  0  0  1  0  0  0  0  0  0
  189.3050  177.6070  138.3150 C   0  0  0  0  0  2  0  0  0  0  0  0
  190.7510  176.0220  140.2410 O   0  0  0  0  0  0  0  0  0  0  0  0
  190.2480  177.1160  140.6200 C   0  0  0  0  0  0  0  0  0  0  0  0
  189.5900  177.9810  139.6930 N   0  0  0  0  0  2  0  0  0  0  0  0
  190.3210  177.4920  142.0620 C   0  0  0  0  0  2  0  0  0  0  0  0
  189.1700  176.9440  142.8590 C   0  0  0  0  0  0  0  0  0  0  0  0
  188.7840  175.7940  142.7150 O   0  0  0  0  0  0  0  0  0  0  0  0
  189.5030  178.2590  144.8070 O   0  0  0  0  0  1  0  0  0  0  0  0
  188.5340  177.8210  143.8940 C   0  0  2  0  0  3  0  0  0  0  0  0
  186.1330  177.8550  144.5560 C   0  0  0  0  0  2  0  0  0  0  0  0
  186.9720  177.8870  145.8260 C   0  0  0  0  0  2  0  0  0  0  0  0
  187.4340  177.0640  144.6310 C   0  0  0  0  0  3  0  0  0  0  0  0
  185.4220  177.1980  135.4810 C   0  0  0  0  0  2  0  0  0  0  0  0
  184.0110  176.6550  135.4970 C   0  0  0  0  0  2  0  0  0  0  0  0
  181.0880  177.1590  137.3760 C   0  0  2  0  0  3  0  0  0  0  0  0
  182.0720  176.2720  136.8660 O   0  0  0  0  0  0  0  0  0  0  0  0
  180.7090  178.0760  136.3930 O   0  0  0  0  0  1  0  0  0  0  0  0
  183.0140  178.1970  138.5860 C   0  0  2  0  0  3  0  0  0  0  0  0
  183.4270  178.1870  137.2470 O   0  0  0  0  0  0  0  0  0  0  0  0
  181.5200  177.8930  138.6570 C   0  0  2  0  0  3  0  0  0  0  0  0
  183.3850  176.8320  136.8650 C   0  0  2  0  0  3  0  0  0  0  0  0
  181.2370  177.0360  139.8790 C   0  0  0  0  0  2  0  0  0  0  0  0
  180.2990  176.0550  139.5690 O   0  0  0  0  0  1  0  0  0  0  0  0
  183.3200  179.5420  139.2240 C   0  0  0  0  0  2  0  0  0  0  0  0
  185.1670  178.9050  140.8300 C   0  0  0  0  0  0  0  0  0  0  0  0
  184.2580  178.2810  141.6870 O   0  0  0  0  0  1  0  0  0  0  0  0
  184.7120  179.5830  139.6610 N   0  0  0  0  0  2  0  0  0  0  0  0
  186.3930  178.9030  141.1050 O   0  0  0  0  0  0  0  0  0  0  0  0
  1  4  1  6  0  0  0
  1  3  1  0  0  0  0
  2 11  1  0  0  0  0
  3 25  1  0  0  0  0
  5 37  1  6  0  0  0
  5  1  1  0  0  0  0
  7  2  1  6  0  0  0
  7  5  1  0  0  0  0
  7  8  1  0  0  0  0
  8  6  1  6  0  0  0
  8  3  1  0  0  0  0
  9 10  1  0  0  0  0
 10 18  1  0  0  0  0
 10  6  2  0  0  0  0
 11  9  1  0  0  0  0
 12 19  1  0  0  0  0
 13 17  1  0  0  0  0
 13 15  1  0  0  0  0
 14 13  2  0  0  0  0
 16 15  2  0  0  0  0
 17 21  1  0  0  0  0
 18 16  1  0  0  0  0
 19 14  1  0  0  0  0
 19 18  2  0  0  0  0
 20 17  1  0  0  0  0
 22 21  1  0  0  0  0
 23 24  1  0  0  0  0
 23 22  1  0  0  0  0
 25 28  1  0  0  0  0
 26 27  2  0  0  0  0
 27 29  1  0  0  0  0
 28 27  1  0  0  0  0
 29 30  1  0  0  0  0
 30 33  1  0  0  0  0
 31 30  2  0  0  0  0
 33 36  1  0  0  0  0
 33 32  1  1  0  0  0
 34 36  1  0  0  0  0
 34 35  1  0  0  0  0
 36 35  1  0  0  0  0
 37 38  1  0  0  0  0
 39 41  1  6  0  0  0
 39 44  1  0  0  0  0
 40 39  1  0  0  0  0
 42 44  1  0  0  0  0
 42 48  1  6  0  0  0
 43 42  1  0  0  0  0
 44 46  1  1  0  0  0
 45 38  1  6  0  0  0
 45 40  1  0  0  0  0
 45 43  1  0  0  0  0
 47 46  1  0  0  0  0
 48 51  1  0  0  0  0
 49 52  2  0  0  0  0
 49 50  1  0  0  0  0
 51 49  1  0  0  0  0
M  END
>  <MODEL>
1

>  <REMARK>
 VINA RESULT:      -7.1      0.000      0.000
  Name = 
  16 active torsions:
  status: ('A' for Active; 'I' for Inactive)
    1  A    between atoms: C_1  and  C_24
    2  A    between atoms: C_1  and  C_47
    3  A    between atoms: C_10  and  C_17
    4  A    between atoms: N_12  and  C_32
    5  A    between atoms: C_13  and  C_24
    6  A    between atoms: C_13  and  C_42
    7  A    between atoms: C_15  and  C_43
    8  A    between atoms: C_17  and  C_29
    9  A    between atoms: C_21  and  C_48
   10  A    between atoms: C_22  and  C_49
   11  A    between atoms: C_29  and  N_36
   12  A    between atoms: C_32  and  N_51
   13  A    between atoms: C_34  and  C_44
   14  A    between atoms: C_34  and  C_49
   15  A    between atoms: C_37  and  C_39
   16  A    between atoms: N_38  and  C_48
                            x       y       z     vdW  Elec       q    Type
                         _______ _______ _______ _____ _____    ______ ____

>  <TORSDO>
F 16

$$$$
=
 OpenBabel11032419563D

 52 56  0  0  1  0  0  0  0  0999 V2000
  190.8580  176.7880  137.6090 C   0  0  1  0  0  3  0  0  0  0  0  0
  188.6060  175.7590  135.3600 C   0  0  0  0  0  2  0  0  0  0  0  0
  189.7020  177.6180  138.0300 N   0  0  0  0  0  0  0  0  0  0  0  0
  190.9090  175.3730  138.2220 C   0  0  0  0  0  1  0  0  0  0  0  0
  190.8570  176.7640  136.0760 C   0  0  2  0  0  3  0  0  0  0  0  0
  187.3870  177.9620  136.9720 C   0  0  0  0  0  3  0  0  0  0  0  0
  189.4220  177.0280  135.6480 C   0  0  2  0  0  3  0  0  0  0  0  0
  188.8880  177.8490  136.8170 C   0  0  2  0  0  3  0  0  0  0  0  0
  186.8470  175.4770  137.1730 C   0  0  0  0  0  2  0  0  0  0  0  0
  186.5090  176.9630  137.1370 C   0  0  0  0  0  0  0  0  0  0  0  0
  188.2110  175.0310  136.6350 C   0  0  0  0  0  2  0  0  0  0  0  0
  184.5570  176.6880  134.8780 C   0  0  0  0  0  1  0  0  0  0  0  0
  182.4520  178.0760  137.6210 C   0  0  0  0  0  0  0  0  0  0  0  0
  182.8800  177.6020  136.4180 N   0  0  0  0  0  0  0  0  0  0  0  0
  183.3610  178.1670  138.6810 C   0  0  0  0  0  3  0  0  0  0  0  0
  184.6520  177.7940  138.4900 N   0  0  0  0  0  0  0  0  0  0  0  0
  181.0800  178.4640  137.7870 N   0  0  0  0  0  0  0  0  0  0  0  0
  185.0910  177.3370  137.2830 C   0  0  0  0  0  0  0  0  0  0  0  0
  184.1700  177.2330  136.2160 C   0  0  0  0  0  0  0  0  0  0  0  0
  180.2030  178.2740  136.7730 O   0  0  0  0  0  1  0  0  0  0  0  0
  180.6230  179.1910  138.9640 C   0  0  0  0  0  2  0  0  0  0  0  0
  179.6580  178.3590  139.7890 C   0  0  0  0  0  2  0  0  0  0  0  0
  180.2460  178.0280  141.1500 C   0  0  0  0  0  2  0  0  0  0  0  0
  179.3200  177.3220  141.9230 O   0  0  0  0  0  1  0  0  0  0  0  0
  188.9280  177.0760  139.1590 C   0  0  0  0  0  2  0  0  0  0  0  0
  190.2820  176.2530  141.5670 O   0  0  0  0  0  0  0  0  0  0  0  0
  189.7450  177.3940  141.5420 C   0  0  0  0  0  0  0  0  0  0  0  0
  189.1300  177.8880  140.3510 N   0  0  0  0  0  2  0  0  0  0  0  0
  189.7300  178.2230  142.7820 C   0  0  0  0  0  2  0  0  0  0  0  0
  188.9460  177.5820  143.8940 C   0  0  0  0  0  0  0  0  0  0  0  0
  188.0140  176.8250  143.6630 O   0  0  0  0  0  0  0  0  0  0  0  0
  190.7150  177.4910  145.4720 O   0  0  0  0  0  1  0  0  0  0  0  0
  189.3680  177.8380  145.3080 C   0  0  2  0  0  3  0  0  0  0  0  0
  187.6600  177.9870  147.1150 C   0  0  0  0  0  2  0  0  0  0  0  0
  188.9170  177.3620  147.7040 C   0  0  0  0  0  2  0  0  0  0  0  0
  188.5050  177.0350  146.2750 C   0  0  0  0  0  3  0  0  0  0  0  0
  191.5590  175.5890  135.3980 C   0  0  0  0  0  2  0  0  0  0  0  0
  192.9310  176.0190  134.9290 C   0  0  0  0  0  2  0  0  0  0  0  0
  194.1420  173.2610  136.7330 C   0  0  2  0  0  3  0  0  0  0  0  0
  193.3120  173.7750  135.7020 O   0  0  0  0  0  0  0  0  0  0  0  0
  194.0520  174.0660  137.8710 O   0  0  0  0  0  1  0  0  0  0  0  0
  196.0040  174.2080  135.3600 C   0  0  2  0  0  3  0  0  0  0  0  0
  195.1340  175.2920  135.5350 O   0  0  0  0  0  0  0  0  0  0  0  0
  195.6120  173.0850  136.3150 C   0  0  2  0  0  3  0  0  0  0  0  0
  193.9060  174.8620  134.9940 C   0  0  2  0  0  3  0  0  0  0  0  0
  195.8090  171.7450  135.6270 C   0  0  0  0  0  2  0  0  0  0  0  0
  195.0500  170.7640  136.2610 O   0  0  0  0  0  1  0  0  0  0  0  0
  197.4410  174.6400  135.5990 C   0  0  0  0  0  2  0  0  0  0  0  0
  198.2580  174.8890  137.9790 C   0  0  0  0  0  0  0  0  0  0  0  0
  198.7870  173.5970  137.9730 O   0  0  0  0  0  0  0  0  0  0  0  0
  197.5390  175.3830  136.8510 N   0  0  0  0  0  2  0  0  0  0  0  0
  198.3830  175.6150  138.9970 O   0  0  0  0  0  1  0  0  0  0  0  0
  1  3  1  0  0  0  0
  1  4  1  1  0  0  0
  2 11  1  0  0  0  0
  3 25  1  0  0  0  0
  5 37  1  1  0  0  0
  5  1  1  0  0  0  0
  6 10  2  0  0  0  0
  7  2  1  1  0  0  0
  7  5  1  0  0  0  0
  7  8  1  0  0  0  0
  8  6  1  1  0  0  0
  8  3  1  0  0  0  0
 10  9  1  0  0  0  0
 10 18  1  0  0  0  0
 11  9  1  0  0  0  0
 12 19  1  0  0  0  0
 13 17  1  0  0  0  0
 13 15  1  0  0  0  0
 14 13  2  0  0  0  0
 16 15  2  0  0  0  0
 17 21  1  0  0  0  0
 18 16  1  0  0  0  0
 19 14  1  0  0  0  0
 19 18  2  0  0  0  0
 20 17  1  0  0  0  0
 21 22  1  0  0  0  0
 22 23  1  0  0  0  0
 23 24  1  0  0  0  0
 25 28  1  0  0  0  0
 27 26  2  0  0  0  0
 27 29  1  0  0  0  0
 28 27  1  0  0  0  0
 29 30  1  0  0  0  0
 30 33  1  0  0  0  0
 31 30  2  0  0  0  0
 33 32  1  6  0  0  0
 33 36  1  0  0  0  0
 34 35  1  0  0  0  0
 36 34  1  0  0  0  0
 36 35  1  0  0  0  0
 38 37  1  0  0  0  0
 39 41  1  1  0  0  0
 40 39  1  0  0  0  0
 42 43  1  0  0  0  0
 42 48  1  1  0  0  0
 42 44  1  0  0  0  0
 44 46  1  6  0  0  0
 44 39  1  0  0  0  0
 45 38  1  1  0  0  0
 45 43  1  0  0  0  0
 45 40  1  0  0  0  0
 46 47  1  0  0  0  0
 48 51  1  0  0  0  0
 49 52  1  0  0  0  0
 50 49  2  0  0  0  0
 51 49  1  0  0  0  0
M  END
>  <MODEL>
2

>  <REMARK>
 VINA RESULT:      -6.6      2.032     10.372
  Name = 
  16 active torsions:
  status: ('A' for Active; 'I' for Inactive)
    1  A    between atoms: C_1  and  C_24
    2  A    between atoms: C_1  and  C_47
    3  A    between atoms: C_10  and  C_17
    4  A    between atoms: N_12  and  C_32
    5  A    between atoms: C_13  and  C_24
    6  A    between atoms: C_13  and  C_42
    7  A    between atoms: C_15  and  C_43
    8  A    between atoms: C_17  and  C_29
    9  A    between atoms: C_21  and  C_48
   10  A    between atoms: C_22  and  C_49
   11  A    between atoms: C_29  and  N_36
   12  A    between atoms: C_32  and  N_51
   13  A    between atoms: C_34  and  C_44
   14  A    between atoms: C_34  and  C_49
   15  A    between atoms: C_37  and  C_39
   16  A    between atoms: N_38  and  C_48
                            x       y       z     vdW  Elec       q    Type
                         _______ _______ _______ _____ _____    ______ ____

>  <TORSDO>
F 16

$$$$
=
 OpenBabel11032419563D

 52 56  0  0  1  0  0  0  0  0999 V2000
  187.1240  176.6190  137.6290 C   0  0  1  0  0  3  0  0  0  0  0  0
  188.5070  175.2870  134.8910 C   0  0  0  0  0  2  0  0  0  0  0  0
  188.4900  176.3680  138.1500 N   0  0  0  0  0  0  0  0  0  0  0  0
  186.9380  177.9640  136.8950 C   0  0  0  0  0  1  0  0  0  0  0  0
  186.7480  175.4160  136.7560 C   0  0  2  0  0  3  0  0  0  0  0  0
  190.5000  175.1470  137.1150 C   0  0  0  0  0  3  0  0  0  0  0  0
  188.0590  174.8110  136.2810 C   0  0  2  0  0  3  0  0  0  0  0  0
  189.0150  175.2040  137.4020 C   0  0  2  0  0  3  0  0  0  0  0  0
  190.5580  176.7660  135.1440 C   0  0  0  0  0  2  0  0  0  0  0  0
  191.1710  175.8160  136.1670 C   0  0  0  0  0  0  0  0  0  0  0  0
  189.0440  176.7090  134.9180 C   0  0  0  0  0  2  0  0  0  0  0  0
  193.0230  176.8460  138.2890 C   0  0  0  0  0  1  0  0  0  0  0  0
  195.3500  175.1800  135.9040 C   0  0  0  0  0  0  0  0  0  0  0  0
  194.8410  175.8750  136.9580 N   0  0  0  0  0  0  0  0  0  0  0  0
  194.4750  174.6700  134.9360 C   0  0  0  0  0  3  0  0  0  0  0  0
  193.1410  174.8880  135.0590 N   0  0  0  0  0  0  0  0  0  0  0  0
  196.7670  174.9700  135.8050 N   0  0  0  0  0  0  0  0  0  0  0  0
  192.6280  175.6010  136.1020 C   0  0  0  0  0  0  0  0  0  0  0  0
  193.5090  176.1040  137.0850 C   0  0  0  0  0  0  0  0  0  0  0  0
  197.5760  175.3900  136.8040 O   0  0  0  0  0  1  0  0  0  0  0  0
  197.3840  174.4440  134.5940 C   0  0  0  0  0  2  0  0  0  0  0  0
  198.5380  173.5140  134.9190 C   0  0  0  0  0  2  0  0  0  0  0  0
  198.0400  172.1160  135.2450 C   0  0  0  0  0  2  0  0  0  0  0  0
  196.8240  171.8680  134.6020 O   0  0  0  0  0  1  0  0  0  0  0  0
  189.3890  177.5330  138.1230 C   0  0  0  0  0  2  0  0  0  0  0  0
  190.4190  176.1960  140.4600 O   0  0  0  0  0  0  0  0  0  0  0  0
  189.9660  177.3660  140.5890 C   0  0  0  0  0  0  0  0  0  0  0  0
  189.5160  178.1080  139.4550 N   0  0  0  0  0  2  0  0  0  0  0  0
  189.8760  177.9670  141.9520 C   0  0  0  0  0  2  0  0  0  0  0  0
  190.1080  176.9590  143.0430 C   0  0  0  0  0  0  0  0  0  0  0  0
  191.2200  176.5050  143.2660 O   0  0  0  0  0  0  0  0  0  0  0  0
  187.9570  175.9590  143.1260 O   0  0  0  0  0  1  0  0  0  0  0  0
  188.9510  176.5610  143.9080 C   0  0  2  0  0  3  0  0  0  0  0  0
  188.5690  177.6230  146.1290 C   0  0  0  0  0  2  0  0  0  0  0  0
  187.2110  177.3440  145.5000 C   0  0  0  0  0  2  0  0  0  0  0  0
  188.3790  177.7800  144.6240 C   0  0  0  0  0  3  0  0  0  0  0  0
  185.6800  175.6390  135.6870 C   0  0  0  0  0  2  0  0  0  0  0  0
  184.6360  174.5500  135.7770 C   0  0  0  0  0  2  0  0  0  0  0  0
  181.8260  176.6340  136.0760 C   0  0  2  0  0  3  0  0  0  0  0  0
  182.3720  175.3590  135.7740 O   0  0  0  0  0  0  0  0  0  0  0  0
  182.6120  177.6410  135.5100 O   0  0  0  0  0  1  0  0  0  0  0  0
  182.7670  176.2180  138.3540 C   0  0  2  0  0  3  0  0  0  0  0  0
  183.8620  176.0270  137.5010 O   0  0  0  0  0  0  0  0  0  0  0  0
  181.6330  176.8850  137.5810 C   0  0  2  0  0  3  0  0  0  0  0  0
  183.4620  175.0010  136.6220 C   0  0  2  0  0  3  0  0  0  0  0  0
  180.3030  176.3170  138.0460 C   0  0  0  0  0  2  0  0  0  0  0  0
  180.4950  175.0690  138.6350 O   0  0  0  0  0  1  0  0  0  0  0  0
  183.1710  177.0610  139.5520 C   0  0  0  0  0  2  0  0  0  0  0  0
  184.2910  179.3170  139.3340 C   0  0  0  0  0  0  0  0  0  0  0  0
  185.4520  178.8420  139.9470 O   0  0  0  0  0  1  0  0  0  0  0  0
  183.1480  178.4760  139.1980 N   0  0  0  0  0  2  0  0  0  0  0  0
  184.2360  180.5050  138.9270 O   0  0  0  0  0  0  0  0  0  0  0  0
  1  4  1  6  0  0  0
  1  3  1  0  0  0  0
  2 11  1  0  0  0  0
  5 37  1  6  0  0  0
  5  1  1  0  0  0  0
  7  2  1  6  0  0  0
  7  5  1  0  0  0  0
  7  8  1  0  0  0  0
  8  6  1  6  0  0  0
  8  3  1  0  0  0  0
  9 10  1  0  0  0  0
 10  6  2  0  0  0  0
 11  9  1  0  0  0  0
 13 14  1  0  0  0  0
 14 19  2  0  0  0  0
 15 16  1  0  0  0  0
 15 13  2  0  0  0  0
 16 18  2  0  0  0  0
 17 13  1  0  0  0  0
 17 20  1  0  0  0  0
 18 10  1  0  0  0  0
 18 19  1  0  0  0  0
 19 12  1  0  0  0  0
 21 22  1  0  0  0  0
 21 17  1  0  0  0  0
 22 23  1  0  0  0  0
 24 23  1  0  0  0  0
 25  3  1  0  0  0  0
 25 28  1  0  0  0  0
 26 27  2  0  0  0  0
 27 29  1  0  0  0  0
 28 27  1  0  0  0  0
 29 30  1  0  0  0  0
 30 31  2  0  0  0  0
 30 33  1  0  0  0  0
 33 32  1  6  0  0  0
 33 36  1  0  0  0  0
 35 34  1  0  0  0  0
 36 35  1  0  0  0  0
 36 34  1  0  0  0  0
 37 38  1  0  0  0  0
 39 41  1  1  0  0  0
 39 44  1  0  0  0  0
 40 39  1  0  0  0  0
 40 45  1  0  0  0  0
 42 48  1  1  0  0  0
 43 42  1  0  0  0  0
 44 46  1  1  0  0  0
 44 42  1  0  0  0  0
 45 38  1  6  0  0  0
 45 43  1  0  0  0  0
 46 47  1  0  0  0  0
 49 50  1  0  0  0  0
 51 49  1  0  0  0  0
 51 48  1  0  0  0  0
 52 49  2  0  0  0  0
M  END
>  <MODEL>
3

>  <REMARK>
 VINA RESULT:      -6.4      1.655      2.282
  Name = 
  16 active torsions:
  status: ('A' for Active; 'I' for Inactive)
    1  A    between atoms: C_1  and  C_24
    2  A    between atoms: C_1  and  C_47
    3  A    between atoms: C_10  and  C_17
    4  A    between atoms: N_12  and  C_32
    5  A    between atoms: C_13  and  C_24
    6  A    between atoms: C_13  and  C_42
    7  A    between atoms: C_15  and  C_43
    8  A    between atoms: C_17  and  C_29
    9  A    between atoms: C_21  and  C_48
   10  A    between atoms: C_22  and  C_49
   11  A    between atoms: C_29  and  N_36
   12  A    between atoms: C_32  and  N_51
   13  A    between atoms: C_34  and  C_44
   14  A    between atoms: C_34  and  C_49
   15  A    between atoms: C_37  and  C_39
   16  A    between atoms: N_38  and  C_48
                            x       y       z     vdW  Elec       q    Type
                         _______ _______ _______ _____ _____    ______ ____

>  <TORSDO>
F 16

$$$$
=
 OpenBabel11032419563D

 52 56  0  0  1  0  0  0  0  0999 V2000
  186.8330  177.6080  137.5080 C   0  0  1  0  0  3  0  0  0  0  0  0
  187.9340  175.6730  135.0120 C   0  0  0  0  0  2  0  0  0  0  0  0
  187.9710  176.9530  138.1980 N   0  0  0  0  0  0  0  0  0  0  0  0
  187.1940  178.8740  136.7010 C   0  0  0  0  0  1  0  0  0  0  0  0
  186.1540  176.5370  136.6470 C   0  0  2  0  0  3  0  0  0  0  0  0
  189.5300  175.0480  137.4620 C   0  0  0  0  0  3  0  0  0  0  0  0
  187.2160  175.4880  136.3580 C   0  0  2  0  0  3  0  0  0  0  0  0
  188.1350  175.6250  137.5670 C   0  0  2  0  0  3  0  0  0  0  0  0
  190.3340  176.3890  135.4470 C   0  0  0  0  0  2  0  0  0  0  0  0
  190.4790  175.3730  136.5740 C   0  0  0  0  0  0  0  0  0  0  0  0
  188.9220  176.8280  135.0440 C   0  0  0  0  0  2  0  0  0  0  0  0
  190.9600  172.7020  135.3000 C   0  0  0  0  0  1  0  0  0  0  0  0
  194.2130  173.4140  136.9720 C   0  0  0  0  0  0  0  0  0  0  0  0
  193.2110  172.8160  136.2690 N   0  0  0  0  0  0  0  0  0  0  0  0
  193.9920  174.6780  137.5330 C   0  0  0  0  0  3  0  0  0  0  0  0
  192.7840  175.2780  137.3780 N   0  0  0  0  0  0  0  0  0  0  0  0
  195.4770  172.7500  137.1180 N   0  0  0  0  0  0  0  0  0  0  0  0
  191.7720  174.6750  136.6920 C   0  0  0  0  0  0  0  0  0  0  0  0
  191.9990  173.4050  136.1150 C   0  0  0  0  0  0  0  0  0  0  0  0
  195.6920  171.5740  136.4830 O   0  0  0  0  0  1  0  0  0  0  0  0
  196.4950  173.2280  138.0450 C   0  0  0  0  0  2  0  0  0  0  0  0
  197.7480  173.6690  137.3120 C   0  0  0  0  0  2  0  0  0  0  0  0
  198.6680  174.4600  138.2260 C   0  0  0  0  0  2  0  0  0  0  0  0
  197.9270  175.3250  139.0350 O   0  0  0  0  0  1  0  0  0  0  0  0
  189.2140  177.7420  138.2300 C   0  0  0  0  0  2  0  0  0  0  0  0
  190.4200  176.2490  140.3810 O   0  0  0  0  0  0  0  0  0  0  0  0
  190.0040  177.4160  140.6200 C   0  0  0  0  0  0  0  0  0  0  0  0
  189.4710  178.2330  139.5770 N   0  0  0  0  0  2  0  0  0  0  0  0
  190.0470  177.9350  142.0190 C   0  0  0  0  0  2  0  0  0  0  0  0
  190.2220  176.8390  143.0340 C   0  0  0  0  0  0  0  0  0  0  0  0
  191.2800  176.2390  143.1490 O   0  0  0  0  0  0  0  0  0  0  0  0
  187.9630  176.1340  143.2210 O   0  0  0  0  0  1  0  0  0  0  0  0
  189.0840  176.5340  143.9600 C   0  0  2  0  0  3  0  0  0  0  0  0
  188.7840  177.3900  146.2800 C   0  0  0  0  0  2  0  0  0  0  0  0
  187.4460  177.4960  145.5610 C   0  0  0  0  0  2  0  0  0  0  0  0
  188.7390  177.7590  144.8010 C   0  0  0  0  0  3  0  0  0  0  0  0
  185.3380  177.0200  135.4500 C   0  0  0  0  0  2  0  0  0  0  0  0
  183.8880  176.6300  135.6320 C   0  0  0  0  0  2  0  0  0  0  0  0
  182.1000  176.3970  138.6450 C   0  0  2  0  0  3  0  0  0  0  0  0
  183.3440  176.5090  137.9710 O   0  0  0  0  0  0  0  0  0  0  0  0
  181.2810  175.4700  137.9950 O   0  0  0  0  0  1  0  0  0  0  0  0
  181.6150  178.6100  137.5880 C   0  0  2  0  0  3  0  0  0  0  0  0
  181.9860  177.7990  136.5080 O   0  0  0  0  0  0  0  0  0  0  0  0
  181.3640  177.7370  138.8140 C   0  0  2  0  0  3  0  0  0  0  0  0
  183.2850  177.3510  136.8200 C   0  0  2  0  0  3  0  0  0  0  0  0
  181.8580  178.4580  140.0570 C   0  0  0  0  0  2  0  0  0  0  0  0
  182.9200  179.2990  139.7320 O   0  0  0  0  0  1  0  0  0  0  0  0
  180.3770  179.4200  137.2410 C   0  0  0  0  0  2  0  0  0  0  0  0
  180.5830  181.4120  135.6980 C   0  0  0  0  0  0  0  0  0  0  0  0
  180.1900  180.6470  134.5970 O   0  0  0  0  0  0  0  0  0  0  0  0
  180.7430  180.8070  136.9790 N   0  0  0  0  0  2  0  0  0  0  0  0
  180.8310  182.6360  135.5570 O   0  0  0  0  0  1  0  0  0  0  0  0
  1  4  1  6  0  0  0
  1  3  1  0  0  0  0
  2 11  1  0  0  0  0
  3 25  1  0  0  0  0
  5 37  1  6  0  0  0
  5  1  1  0  0  0  0
  7  2  1  6  0  0  0
  7  5  1  0  0  0  0
  7  8  1  0  0  0  0
  8  6  1  6  0  0  0
  8  3  1  0  0  0  0
  9 10  1  0  0  0  0
 10 18  1  0  0  0  0
 10  6  2  0  0  0  0
 11  9  1  0  0  0  0
 12 19  1  0  0  0  0
 13 17  1  0  0  0  0
 13 15  1  0  0  0  0
 14 13  2  0  0  0  0
 16 15  2  0  0  0  0
 17 21  1  0  0  0  0
 18 16  1  0  0  0  0
 19 14  1  0  0  0  0
 19 18  2  0  0  0  0
 20 17  1  0  0  0  0
 22 21  1  0  0  0  0
 22 23  1  0  0  0  0
 23 24  1  0  0  0  0
 25 28  1  0  0  0  0
 26 27  2  0  0  0  0
 27 29  1  0  0  0  0
 28 27  1  0  0  0  0
 29 30  1  0  0  0  0
 30 31  2  0  0  0  0
 30 33  1  0  0  0  0
 33 32  1  6  0  0  0
 33 36  1  0  0  0  0
 35 34  1  0  0  0  0
 36 35  1  0  0  0  0
 36 34  1  0  0  0  0
 37 38  1  0  0  0  0
 39 41  1  6  0  0  0
 39 44  1  0  0  0  0
 40 39  1  0  0  0  0
 42 48  1  6  0  0  0
 42 44  1  0  0  0  0
 43 45  1  0  0  0  0
 43 42  1  0  0  0  0
 44 46  1  1  0  0  0
 45 38  1  6  0  0  0
 45 40  1  0  0  0  0
 47 46  1  0  0  0  0
 49 51  1  0  0  0  0
 50 49  2  0  0  0  0
 51 48  1  0  0  0  0
 52 49  1  0  0  0  0
M  END
>  <MODEL>
4

>  <REMARK>
 VINA RESULT:      -6.1      1.566      2.488
  Name = 
  16 active torsions:
  status: ('A' for Active; 'I' for Inactive)
    1  A    between atoms: C_1  and  C_24
    2  A    between atoms: C_1  and  C_47
    3  A    between atoms: C_10  and  C_17
    4  A    between atoms: N_12  and  C_32
    5  A    between atoms: C_13  and  C_24
    6  A    between atoms: C_13  and  C_42
    7  A    between atoms: C_15  and  C_43
    8  A    between atoms: C_17  and  C_29
    9  A    between atoms: C_21  and  C_48
   10  A    between atoms: C_22  and  C_49
   11  A    between atoms: C_29  and  N_36
   12  A    between atoms: C_32  and  N_51
   13  A    between atoms: C_34  and  C_44
   14  A    between atoms: C_34  and  C_49
   15  A    between atoms: C_37  and  C_39
   16  A    between atoms: N_38  and  C_48
                            x       y       z     vdW  Elec       q    Type
                         _______ _______ _______ _____ _____    ______ ____

>  <TORSDO>
F 16

$$$$
=
 OpenBabel11032419563D

 52 56  0  0  1  0  0  0  0  0999 V2000
  187.2790  177.1110  137.5450 C   0  0  1  0  0  3  0  0  0  0  0  0
  188.5770  175.7650  134.7720 C   0  0  0  0  0  2  0  0  0  0  0  0
  188.3770  176.3200  138.1540 N   0  0  0  0  0  0  0  0  0  0  0  0
  187.6760  178.5210  137.0600 C   0  0  0  0  0  1  0  0  0  0  0  0
  186.6760  176.2530  136.4270 C   0  0  2  0  0  3  0  0  0  0  0  0
  190.0100  174.6200  137.1330 C   0  0  0  0  0  3  0  0  0  0  0  0
  187.7710  175.2920  135.9920 C   0  0  2  0  0  3  0  0  0  0  0  0
  188.6030  175.1610  137.2630 C   0  0  2  0  0  3  0  0  0  0  0  0
  190.9300  176.3680  135.5190 C   0  0  0  0  0  2  0  0  0  0  0  0
  191.0130  175.1300  136.4060 C   0  0  0  0  0  0  0  0  0  0  0  0
  189.5430  176.8850  135.1230 C   0  0  0  0  0  2  0  0  0  0  0  0
  191.6050  172.7770  134.6450 C   0  0  0  0  0  1  0  0  0  0  0  0
  194.7390  173.1300  136.6280 C   0  0  0  0  0  0  0  0  0  0  0  0
  193.7910  172.6890  135.7560 N   0  0  0  0  0  0  0  0  0  0  0  0
  194.4690  174.2520  137.4210 C   0  0  0  0  0  3  0  0  0  0  0  0
  193.2650  174.8720  137.3160 N   0  0  0  0  0  0  0  0  0  0  0  0
  196.0010  172.4500  136.7140 N   0  0  0  0  0  0  0  0  0  0  0  0
  192.3050  174.4220  136.4590 C   0  0  0  0  0  0  0  0  0  0  0  0
  192.5830  173.2980  135.6500 C   0  0  0  0  0  0  0  0  0  0  0  0
  196.2690  171.4290  135.8670 O   0  0  0  0  0  1  0  0  0  0  0  0
  196.9530  172.7270  137.7810 C   0  0  0  0  0  2  0  0  0  0  0  0
  198.2800  173.2130  137.2270 C   0  0  0  0  0  2  0  0  0  0  0  0
  198.0950  174.4520  136.3680 C   0  0  0  0  0  2  0  0  0  0  0  0
  197.7580  175.5510  137.1620 O   0  0  0  0  0  1  0  0  0  0  0  0
  189.6030  177.0820  138.4440 C   0  0  0  0  0  2  0  0  0  0  0  0
  188.4670  178.2220  140.8360 O   0  0  0  0  0  0  0  0  0  0  0  0
  189.4880  177.4890  140.9470 C   0  0  0  0  0  0  0  0  0  0  0  0
  190.0470  176.8330  139.8080 N   0  0  0  0  0  2  0  0  0  0  0  0
  190.1320  177.3310  142.2840 C   0  0  0  0  0  2  0  0  0  0  0  0
  189.1470  176.9650  143.3590 C   0  0  0  0  0  0  0  0  0  0  0  0
  188.4960  175.9320  143.3040 O   0  0  0  0  0  0  0  0  0  0  0  0
  190.1720  178.6500  144.6790 O   0  0  0  0  0  1  0  0  0  0  0  0
  189.0180  177.8670  144.5480 C   0  0  2  0  0  3  0  0  0  0  0  0
  188.1160  177.9090  146.8700 C   0  0  0  0  0  2  0  0  0  0  0  0
  189.6150  177.6570  146.9510 C   0  0  0  0  0  2  0  0  0  0  0  0
  188.8030  177.0470  145.8160 C   0  0  0  0  0  3  0  0  0  0  0  0
  185.9370  176.9860  135.3090 C   0  0  0  0  0  2  0  0  0  0  0  0
  184.5660  177.4010  135.7940 C   0  0  0  0  0  2  0  0  0  0  0  0
  181.2270  176.3380  136.0040 C   0  0  2  0  0  3  0  0  0  0  0  0
  182.2530  176.9980  135.2780 O   0  0  0  0  0  0  0  0  0  0  0  0
  181.2780  176.7020  137.3520 O   0  0  0  0  0  1  0  0  0  0  0  0
  182.6990  174.3310  135.7710 C   0  0  2  0  0  3  0  0  0  0  0  0
  183.5420  175.3000  136.3310 O   0  0  0  0  0  0  0  0  0  0  0  0
  181.2520  174.8070  135.8600 C   0  0  2  0  0  3  0  0  0  0  0  0
  183.5260  176.3680  135.4110 C   0  0  2  0  0  3  0  0  0  0  0  0
  180.5020  174.3810  134.6090 C   0  0  0  0  0  2  0  0  0  0  0  0
  179.9390  173.1210  134.7950 O   0  0  0  0  0  1  0  0  0  0  0  0
  182.8730  173.0020  136.4870 C   0  0  0  0  0  2  0  0  0  0  0  0
  185.2720  172.5790  137.1640 C   0  0  0  0  0  0  0  0  0  0  0  0
  185.5110  171.8460  135.9990 O   0  0  0  0  0  0  0  0  0  0  0  0
  183.9710  173.0890  137.4440 N   0  0  0  0  0  2  0  0  0  0  0  0
  186.2000  172.7650  137.9910 O   0  0  0  0  0  1  0  0  0  0  0  0
  1  4  1  6  0  0  0
  1  3  1  0  0  0  0
  2 11  1  0  0  0  0
  3 25  1  0  0  0  0
  5 37  1  6  0  0  0
  5  1  1  0  0  0  0
  7  2  1  6  0  0  0
  7  5  1  0  0  0  0
  7  8  1  0  0  0  0
  8  6  1  6  0  0  0
  8  3  1  0  0  0  0
  9 10  1  0  0  0  0
 10 18  1  0  0  0  0
 10  6  2  0  0  0  0
 11  9  1  0  0  0  0
 12 19  1  0  0  0  0
 13 17  1  0  0  0  0
 13 15  1  0  0  0  0
 14 13  2  0  0  0  0
 16 15  2  0  0  0  0
 17 21  1  0  0  0  0
 18 16  1  0  0  0  0
 19 14  1  0  0  0  0
 19 18  2  0  0  0  0
 20 17  1  0  0  0  0
 22 21  1  0  0  0  0
 23 24  1  0  0  0  0
 23 22  1  0  0  0  0
 25 28  1  0  0  0  0
 26 27  2  0  0  0  0
 27 29  1  0  0  0  0
 28 27  1  0  0  0  0
 29 30  1  0  0  0  0
 30 33  1  0  0  0  0
 31 30  2  0  0  0  0
 33 32  1  1  0  0  0
 33 36  1  0  0  0  0
 34 35  1  0  0  0  0
 36 34  1  0  0  0  0
 36 35  1  0  0  0  0
 37 38  1  0  0  0  0
 39 41  1  1  0  0  0
 40 45  1  0  0  0  0
 40 39  1  0  0  0  0
 42 44  1  0  0  0  0
 42 43  1  0  0  0  0
 42 48  1  1  0  0  0
 44 46  1  6  0  0  0
 44 39  1  0  0  0  0
 45 38  1  1  0  0  0
 45 43  1  0  0  0  0
 46 47  1  0  0  0  0
 48 51  1  0  0  0  0
 49 51  1  0  0  0  0
 49 52  1  0  0  0  0
 50 49  2  0  0  0  0
M  END
>  <MODEL>
5

>  <REMARK>
 VINA RESULT:      -5.7      2.042      2.937
  Name = 
  16 active torsions:
  status: ('A' for Active; 'I' for Inactive)
    1  A    between atoms: C_1  and  C_24
    2  A    between atoms: C_1  and  C_47
    3  A    between atoms: C_10  and  C_17
    4  A    between atoms: N_12  and  C_32
    5  A    between atoms: C_13  and  C_24
    6  A    between atoms: C_13  and  C_42
    7  A    between atoms: C_15  and  C_43
    8  A    between atoms: C_17  and  C_29
    9  A    between atoms: C_21  and  C_48
   10  A    between atoms: C_22  and  C_49
   11  A    between atoms: C_29  and  N_36
   12  A    between atoms: C_32  and  N_51
   13  A    between atoms: C_34  and  C_44
   14  A    between atoms: C_34  and  C_49
   15  A    between atoms: C_37  and  C_39
   16  A    between atoms: N_38  and  C_48
                            x       y       z     vdW  Elec       q    Type
                         _______ _______ _______ _____ _____    ______ ____

>  <TORSDO>
F 16

$$$$
=
 OpenBabel11032419563D

 52 56  0  0  1  0  0  0  0  0999 V2000
  185.1910  178.2700  145.2070 C   0  0  1  0  0  3  0  0  0  0  0  0
  185.0550  179.2820  142.0220 C   0  0  0  0  0  2  0  0  0  0  0  0
  186.2920  177.4480  144.6480 N   0  0  0  0  0  0  0  0  0  0  0  0
  185.5930  179.6920  145.6530 C   0  0  0  0  0  1  0  0  0  0  0  0
  184.0640  178.2780  144.1670 C   0  0  2  0  0  3  0  0  0  0  0  0
  187.0870  177.0990  142.2300 C   0  0  0  0  0  3  0  0  0  0  0  0
  184.7250  178.0130  142.8240 C   0  0  2  0  0  3  0  0  0  0  0  0
  185.9540  177.2060  143.2280 C   0  0  2  0  0  3  0  0  0  0  0  0
  187.5770  179.5870  141.9570 C   0  0  0  0  0  2  0  0  0  0  0  0
  187.7940  178.1010  141.6920 C   0  0  0  0  0  0  0  0  0  0  0  0
  186.2530  180.0240  142.5920 C   0  0  0  0  0  2  0  0  0  0  0  0
  187.3180  177.9290  138.7370 C   0  0  0  0  0  1  0  0  0  0  0  0
  190.9170  177.0150  139.0460 C   0  0  0  0  0  0  0  0  0  0  0  0
  189.6760  177.2740  138.5500 N   0  0  0  0  0  0  0  0  0  0  0  0
  191.1400  177.1330  140.4230 C   0  0  0  0  0  3  0  0  0  0  0  0
  190.1160  177.4910  141.2390 N   0  0  0  0  0  0  0  0  0  0  0  0
  191.9770  176.6370  138.1540 N   0  0  0  0  0  0  0  0  0  0  0  0
  188.8660  177.7320  140.7510 C   0  0  0  0  0  0  0  0  0  0  0  0
  188.6450  177.6260  139.3590 C   0  0  0  0  0  0  0  0  0  0  0  0
  191.7560  176.6250  136.8200 O   0  0  0  0  0  1  0  0  0  0  0  0
  193.2490  176.1240  138.6450 C   0  0  0  0  0  2  0  0  0  0  0  0
  193.6510  174.8530  137.9200 C   0  0  0  0  0  2  0  0  0  0  0  0
  194.9140  175.0650  137.1020 C   0  0  0  0  0  2  0  0  0  0  0  0
  196.0480  174.8780  137.8960 O   0  0  0  0  0  1  0  0  0  0  0  0
  187.6410  178.0040  144.8420 C   0  0  0  0  0  2  0  0  0  0  0  0
  187.9590  178.1990  147.7000 O   0  0  0  0  0  0  0  0  0  0  0  0
  188.6160  177.3170  147.0830 C   0  0  0  0  0  0  0  0  0  0  0  0
  188.4400  177.1200  145.6790 N   0  0  0  0  0  2  0  0  0  0  0  0
  189.6090  176.4900  147.8290 C   0  0  0  0  0  2  0  0  0  0  0  0
  191.0220  176.7480  147.3840 C   0  0  0  0  0  0  0  0  0  0  0  0
  191.6690  177.6860  147.8250 O   0  0  0  0  0  0  0  0  0  0  0  0
  192.8250  175.2550  146.9920 O   0  0  0  0  0  1  0  0  0  0  0  0
  191.6580  175.7860  146.4280 C   0  0  2  0  0  3  0  0  0  0  0  0
  190.8210  176.3320  144.1460 C   0  0  0  0  0  2  0  0  0  0  0  0
  192.0520  175.4500  143.9970 C   0  0  0  0  0  2  0  0  0  0  0  0
  191.9900  176.4850  145.1130 C   0  0  0  0  0  3  0  0  0  0  0  0
  183.0790  179.4450  144.2170 C   0  0  0  0  0  2  0  0  0  0  0  0
  181.6700  178.9280  144.0320 C   0  0  0  0  0  2  0  0  0  0  0  0
  179.1750  178.5430  141.5930 C   0  0  2  0  0  3  0  0  0  0  0  0
  179.6860  179.2480  142.7140 O   0  0  0  0  0  0  0  0  0  0  0  0
  179.3080  177.1660  141.7870 O   0  0  0  0  0  1  0  0  0  0  0  0
  181.2840  179.2920  140.4790 C   0  0  2  0  0  3  0  0  0  0  0  0
  181.7290  178.6660  141.6490 O   0  0  0  0  0  0  0  0  0  0  0  0
  179.8110  178.9610  140.2560 C   0  0  2  0  0  3  0  0  0  0  0  0
  181.1070  179.3720  142.6980 C   0  0  2  0  0  3  0  0  0  0  0  0
  179.1000  180.1770  139.6880 C   0  0  0  0  0  2  0  0  0  0  0  0
  179.7590  181.3410  140.0760 O   0  0  0  0  0  1  0  0  0  0  0  0
  182.1210  178.8500  139.2900 C   0  0  0  0  0  2  0  0  0  0  0  0
  182.8000  176.6650  138.2150 C   0  0  0  0  0  0  0  0  0  0  0  0
  182.9320  177.2770  136.9670 O   0  0  0  0  0  0  0  0  0  0  0  0
  182.3390  177.4080  139.3410 N   0  0  0  0  0  2  0  0  0  0  0  0
  183.0550  175.4410  138.3460 O   0  0  0  0  0  1  0  0  0  0  0  0
  1  4  1  6  0  0  0
  2 11  1  0  0  0  0
  3 25  1  0  0  0  0
  3  1  1  0  0  0  0
  5 37  1  6  0  0  0
  5  1  1  0  0  0  0
  7  2  1  1  0  0  0
  7  8  1  0  0  0  0
  7  5  1  0  0  0  0
  8  6  1  6  0  0  0
  8  3  1  0  0  0  0
  9 11  1  0  0  0  0
 10  9  1  0  0  0  0
 10  6  2  0  0  0  0
 12 19  1  0  0  0  0
 13 15  1  0  0  0  0
 14 13  2  0  0  0  0
 14 19  1  0  0  0  0
 15 16  2  0  0  0  0
 17 21  1  0  0  0  0
 17 13  1  0  0  0  0
 18 16  1  0  0  0  0
 18 10  1  0  0  0  0
 19 18  2  0  0  0  0
 20 17  1  0  0  0  0
 22 21  1  0  0  0  0
 23 24  1  0  0  0  0
 23 22  1  0  0  0  0
 25 28  1  0  0  0  0
 27 26  2  0  0  0  0
 27 29  1  0  0  0  0
 28 27  1  0  0  0  0
 30 31  2  0  0  0  0
 30 29  1  0  0  0  0
 33 32  1  1  0  0  0
 33 30  1  0  0  0  0
 34 36  1  0  0  0  0
 35 34  1  0  0  0  0
 35 36  1  0  0  0  0
 36 33  1  0  0  0  0
 38 37  1  0  0  0  0
 39 41  1  1  0  0  0
 39 40  1  0  0  0  0
 42 48  1  6  0  0  0
 42 43  1  0  0  0  0
 43 45  1  0  0  0  0
 44 46  1  1  0  0  0
 44 42  1  0  0  0  0
 44 39  1  0  0  0  0
 45 40  1  0  0  0  0
 45 38  1  1  0  0  0
 46 47  1  0  0  0  0
 48 51  1  0  0  0  0
 49 52  1  0  0  0  0
 49 51  1  0  0  0  0
 50 49  2  0  0  0  0
M  END
>  <MODEL>
6

>  <REMARK>
 VINA RESULT:      -5.4      2.937      6.058
  Name = 
  16 active torsions:
  status: ('A' for Active; 'I' for Inactive)
    1  A    between atoms: C_1  and  C_24
    2  A    between atoms: C_1  and  C_47
    3  A    between atoms: C_10  and  C_17
    4  A    between atoms: N_12  and  C_32
    5  A    between atoms: C_13  and  C_24
    6  A    between atoms: C_13  and  C_42
    7  A    between atoms: C_15  and  C_43
    8  A    between atoms: C_17  and  C_29
    9  A    between atoms: C_21  and  C_48
   10  A    between atoms: C_22  and  C_49
   11  A    between atoms: C_29  and  N_36
   12  A    between atoms: C_32  and  N_51
   13  A    between atoms: C_34  and  C_44
   14  A    between atoms: C_34  and  C_49
   15  A    between atoms: C_37  and  C_39
   16  A    between atoms: N_38  and  C_48
                            x       y       z     vdW  Elec       q    Type
                         _______ _______ _______ _____ _____    ______ ____

>  <TORSDO>
F 16

$$$$
=
 OpenBabel11032419563D

 52 56  0  0  1  0  0  0  0  0999 V2000
  188.8400  176.2710  135.2410 C   0  0  1  0  0  3  0  0  0  0  0  0
  190.6400  177.1230  137.9280 C   0  0  0  0  0  2  0  0  0  0  0  0
  187.7610  176.2750  136.2600 N   0  0  0  0  0  0  0  0  0  0  0  0
  189.1370  177.6400  134.5940 C   0  0  0  0  0  1  0  0  0  0  0  0
  190.0780  175.6530  135.9010 C   0  0  2  0  0  3  0  0  0  0  0  0
  187.8430  176.5490  138.8130 C   0  0  0  0  0  3  0  0  0  0  0  0
  189.9180  175.8760  137.3960 C   0  0  2  0  0  3  0  0  0  0  0  0
  188.4020  175.9330  137.5490 C   0  0  2  0  0  3  0  0  0  0  0  0
  188.9080  178.8570  138.6030 C   0  0  0  0  0  2  0  0  0  0  0  0
  188.0390  177.7940  139.2660 C   0  0  0  0  0  0  0  0  0  0  0  0
  189.9220  178.4080  137.5450 C   0  0  0  0  0  2  0  0  0  0  0  0
  189.2280  177.1590  141.9450 C   0  0  0  0  0  1  0  0  0  0  0  0
  186.0370  178.8610  142.8420 C   0  0  0  0  0  0  0  0  0  0  0  0
  187.2290  178.2060  142.9090 N   0  0  0  0  0  0  0  0  0  0  0  0
  185.5060  179.1860  141.5880 C   0  0  0  0  0  3  0  0  0  0  0  0
  186.1810  178.8340  140.4640 N   0  0  0  0  0  0  0  0  0  0  0  0
  185.3500  179.2160  144.0520 N   0  0  0  0  0  0  0  0  0  0  0  0
  187.3650  178.1610  140.5240 C   0  0  0  0  0  0  0  0  0  0  0  0
  187.9070  177.8440  141.7910 C   0  0  0  0  0  0  0  0  0  0  0  0
  185.9330  178.9750  145.2480 O   0  0  0  0  0  1  0  0  0  0  0  0
  183.9750  179.7010  144.0420 C   0  0  0  0  0  2  0  0  0  0  0  0
  183.0140  178.6530  144.5720 C   0  0  0  0  0  2  0  0  0  0  0  0
  181.6510  178.7750  143.9120 C   0  0  0  0  0  2  0  0  0  0  0  0
  181.7680  178.6640  142.5240 O   0  0  0  0  0  1  0  0  0  0  0  0
  186.9640  177.5110  136.3140 C   0  0  0  0  0  2  0  0  0  0  0  0
  184.5990  177.1270  137.9180 O   0  0  0  0  0  0  0  0  0  0  0  0
  184.5000  177.0130  136.6660 C   0  0  0  0  0  0  0  0  0  0  0  0
  185.6170  177.2700  135.8140 N   0  0  0  0  0  2  0  0  0  0  0  0
  183.2010  176.5770  136.0730 C   0  0  0  0  0  2  0  0  0  0  0  0
  182.0170  177.0370  136.8780 C   0  0  0  0  0  0  0  0  0  0  0  0
  181.3940  178.0440  136.5770 O   0  0  0  0  0  0  0  0  0  0  0  0
  181.6090  174.8410  137.6790 O   0  0  0  0  0  1  0  0  0  0  0  0
  181.5660  176.1960  138.0320 C   0  0  2  0  0  3  0  0  0  0  0  0
  180.1580  177.0770  139.8880 C   0  0  0  0  0  2  0  0  0  0  0  0
  179.6930  175.6620  139.5750 C   0  0  0  0  0  2  0  0  0  0  0  0
  180.1490  176.5780  138.4470 C   0  0  0  0  0  3  0  0  0  0  0  0
  191.4370  176.0130  135.3050 C   0  0  0  0  0  2  0  0  0  0  0  0
  192.0680  174.7810  134.6970 C   0  0  0  0  0  2  0  0  0  0  0  0
  193.7890  175.0180  137.7480 C   0  0  2  0  0  3  0  0  0  0  0  0
  192.7940  174.3890  136.9550 O   0  0  0  0  0  0  0  0  0  0  0  0
  193.7340  176.4040  137.5800 O   0  0  0  0  0  1  0  0  0  0  0  0
  195.3610  174.1710  135.9990 C   0  0  2  0  0  3  0  0  0  0  0  0
  194.3950  174.8740  135.2670 O   0  0  0  0  0  0  0  0  0  0  0  0
  195.2130  174.5020  137.4810 C   0  0  2  0  0  3  0  0  0  0  0  0
  193.1740  174.2500  135.5870 C   0  0  2  0  0  3  0  0  0  0  0  0
  195.4870  173.2560  138.3060 C   0  0  0  0  0  2  0  0  0  0  0  0
  196.1380  173.5990  139.4890 O   0  0  0  0  0  1  0  0  0  0  0  0
  196.7560  174.5200  135.5070 C   0  0  0  0  0  2  0  0  0  0  0  0
  198.5070  174.5440  137.3300 C   0  0  0  0  0  0  0  0  0  0  0  0
  198.7210  173.1710  137.1950 O   0  0  0  0  0  0  0  0  0  0  0  0
  197.5020  175.2000  136.5600 N   0  0  0  0  0  2  0  0  0  0  0  0
  199.1780  175.2070  138.1610 O   0  0  0  0  0  1  0  0  0  0  0  0
  1  4  1  1  0  0  0
  1  5  1  0  0  0  0
  1  3  1  0  0  0  0
  3 25  1  0  0  0  0
  3  8  1  0  0  0  0
  5 37  1  6  0  0  0
  5  7  1  0  0  0  0
  6 10  2  0  0  0  0
  7  8  1  0  0  0  0
  7  2  1  6  0  0  0
  8  6  1  1  0  0  0
  9 10  1  0  0  0  0
 10 18  1  0  0  0  0
 11  2  1  0  0  0  0
 11  9  1  0  0  0  0
 13 14  1  0  0  0  0
 13 17  1  0  0  0  0
 15 13  2  0  0  0  0
 16 18  2  0  0  0  0
 16 15  1  0  0  0  0
 17 20  1  0  0  0  0
 18 19  1  0  0  0  0
 19 12  1  0  0  0  0
 19 14  2  0  0  0  0
 21 17  1  0  0  0  0
 21 22  1  0  0  0  0
 23 22  1  0  0  0  0
 24 23  1  0  0  0  0
 27 26  2  0  0  0  0
 28 25  1  0  0  0  0
 28 27  1  0  0  0  0
 29 27  1  0  0  0  0
 29 30  1  0  0  0  0
 30 33  1  0  0  0  0
 31 30  2  0  0  0  0
 33 32  1  6  0  0  0
 33 36  1  0  0  0  0
 35 34  1  0  0  0  0
 36 35  1  0  0  0  0
 36 34  1  0  0  0  0
 38 37  1  0  0  0  0
 39 41  1  6  0  0  0
 40 39  1  0  0  0  0
 42 48  1  6  0  0  0
 42 44  1  0  0  0  0
 43 45  1  0  0  0  0
 43 42  1  0  0  0  0
 44 39  1  0  0  0  0
 44 46  1  1  0  0  0
 45 38  1  6  0  0  0
 45 40  1  0  0  0  0
 46 47  1  0  0  0  0
 48 51  1  0  0  0  0
 49 52  1  0  0  0  0
 50 49  2  0  0  0  0
 51 49  1  0  0  0  0
M  END
>  <MODEL>
7

>  <REMARK>
 VINA RESULT:      -5.1      2.332     10.655
  Name = 
  16 active torsions:
  status: ('A' for Active; 'I' for Inactive)
    1  A    between atoms: C_1  and  C_24
    2  A    between atoms: C_1  and  C_47
    3  A    between atoms: C_10  and  C_17
    4  A    between atoms: N_12  and  C_32
    5  A    between atoms: C_13  and  C_24
    6  A    between atoms: C_13  and  C_42
    7  A    between atoms: C_15  and  C_43
    8  A    between atoms: C_17  and  C_29
    9  A    between atoms: C_21  and  C_48
   10  A    between atoms: C_22  and  C_49
   11  A    between atoms: C_29  and  N_36
   12  A    between atoms: C_32  and  N_51
   13  A    between atoms: C_34  and  C_44
   14  A    between atoms: C_34  and  C_49
   15  A    between atoms: C_37  and  C_39
   16  A    between atoms: N_38  and  C_48
                            x       y       z     vdW  Elec       q    Type
                         _______ _______ _______ _____ _____    ______ ____

>  <TORSDO>
F 16

$$$$
=
 OpenBabel11032419563D

 52 56  0  0  1  0  0  0  0  0999 V2000
  189.5090  175.9350  135.3790 C   0  0  1  0  0  3  0  0  0  0  0  0
  191.0760  176.8070  138.2020 C   0  0  0  0  0  2  0  0  0  0  0  0
  188.3450  175.9650  136.2990 N   0  0  0  0  0  0  0  0  0  0  0  0
  189.8780  177.2920  134.7420 C   0  0  0  0  0  1  0  0  0  0  0  0
  190.6770  175.3130  136.1530 C   0  0  2  0  0  3  0  0  0  0  0  0
  188.2050  176.2730  138.8450 C   0  0  0  0  0  3  0  0  0  0  0  0
  190.3880  175.5590  137.6260 C   0  0  2  0  0  3  0  0  0  0  0  0
  188.8660  175.6340  137.6430 C   0  0  2  0  0  3  0  0  0  0  0  0
  189.3110  178.5670  138.6990 C   0  0  0  0  0  2  0  0  0  0  0  0
  188.3740  177.5230  139.2980 C   0  0  0  0  0  0  0  0  0  0  0  0
  190.4080  178.0930  137.7410 C   0  0  0  0  0  2  0  0  0  0  0  0
  189.1440  176.6390  142.0570 C   0  0  0  0  0  1  0  0  0  0  0  0
  186.0810  178.6700  142.6670 C   0  0  0  0  0  0  0  0  0  0  0  0
  187.1740  177.8760  142.8370 N   0  0  0  0  0  0  0  0  0  0  0  0
  185.7490  179.1090  141.3800 C   0  0  0  0  0  3  0  0  0  0  0  0
  186.5130  178.7270  140.3250 N   0  0  0  0  0  0  0  0  0  0  0  0
  185.2950  179.0540  143.8060 N   0  0  0  0  0  0  0  0  0  0  0  0
  187.5970  177.9150  140.4860 C   0  0  0  0  0  0  0  0  0  0  0  0
  187.9390  177.4830  141.7880 C   0  0  0  0  0  0  0  0  0  0  0  0
  185.6950  178.6950  145.0470 O   0  0  0  0  0  1  0  0  0  0  0  0
  183.9960  179.6990  143.6610 C   0  0  0  0  0  2  0  0  0  0  0  0
  182.8630  178.7400  143.9770 C   0  0  0  0  0  2  0  0  0  0  0  0
  181.5150  179.3570  143.6470 C   0  0  0  0  0  2  0  0  0  0  0  0
  180.9380  178.7140  142.5480 O   0  0  0  0  0  1  0  0  0  0  0  0
  187.5600  177.2100  136.2660 C   0  0  0  0  0  2  0  0  0  0  0  0
  185.1550  178.1810  137.5230 O   0  0  0  0  0  0  0  0  0  0  0  0
  185.0440  177.3910  136.5460 C   0  0  0  0  0  0  0  0  0  0  0  0
  186.1960  176.9400  135.8330 N   0  0  0  0  0  2  0  0  0  0  0  0
  183.6900  176.9030  136.1520 C   0  0  0  0  0  2  0  0  0  0  0  0
  183.3050  175.6350  136.8630 C   0  0  0  0  0  0  0  0  0  0  0  0
  182.6770  175.6570  137.9110 O   0  0  0  0  0  0  0  0  0  0  0  0
  182.5110  173.7710  135.6280 O   0  0  0  0  0  1  0  0  0  0  0  0
  183.6510  174.3250  136.2250 C   0  0  2  0  0  3  0  0  0  0  0  0
  185.7110  173.5890  137.4170 C   0  0  0  0  0  2  0  0  0  0  0  0
  185.1990  172.4160  136.5920 C   0  0  0  0  0  2  0  0  0  0  0  0
  184.2110  173.3590  137.2650 C   0  0  0  0  0  3  0  0  0  0  0  0
  192.0870  175.6510  135.6750 C   0  0  0  0  0  2  0  0  0  0  0  0
  192.5030  174.6790  134.5940 C   0  0  0  0  0  2  0  0  0  0  0  0
  194.1230  172.9890  137.2100 C   0  0  2  0  0  3  0  0  0  0  0  0
  193.2890  172.9460  136.0620 O   0  0  0  0  0  0  0  0  0  0  0  0
  193.7720  174.0710  138.0210 O   0  0  0  0  0  1  0  0  0  0  0  0
  195.8460  173.8480  135.6160 C   0  0  2  0  0  3  0  0  0  0  0  0
  194.7540  174.7040  135.4200 O   0  0  0  0  0  0  0  0  0  0  0  0
  195.6260  173.0280  136.8840 C   0  0  2  0  0  3  0  0  0  0  0  0
  193.6940  173.8570  135.0410 C   0  0  2  0  0  3  0  0  0  0  0  0
  196.1580  171.6210  136.6740 C   0  0  0  0  0  2  0  0  0  0  0  0
  196.4120  171.4020  135.3220 O   0  0  0  0  0  1  0  0  0  0  0  0
  197.1350  174.6480  135.7100 C   0  0  0  0  0  2  0  0  0  0  0  0
  198.1920  174.9080  137.9910 C   0  0  0  0  0  0  0  0  0  0  0  0
  199.0050  173.7910  137.7840 O   0  0  0  0  0  0  0  0  0  0  0  0
  197.2280  175.2940  137.0150 N   0  0  0  0  0  2  0  0  0  0  0  0
  198.2840  175.5620  139.0610 O   0  0  0  0  0  1  0  0  0  0  0  0
  1  4  1  1  0  0  0
  1  5  1  0  0  0  0
  1  3  1  0  0  0  0
  3  8  1  0  0  0  0
  5 37  1  6  0  0  0
  5  7  1  0  0  0  0
  6 10  2  0  0  0  0
  7  8  1  0  0  0  0
  7  2  1  6  0  0  0
  8  6  1  1  0  0  0
  9 10  1  0  0  0  0
 10 18  1  0  0  0  0
 11  2  1  0  0  0  0
 11  9  1  0  0  0  0
 13 14  1  0  0  0  0
 13 17  1  0  0  0  0
 15 13  2  0  0  0  0
 16 18  2  0  0  0  0
 16 15  1  0  0  0  0
 17 20  1  0  0  0  0
 18 19  1  0  0  0  0
 19 12  1  0  0  0  0
 19 14  2  0  0  0  0
 21 17  1  0  0  0  0
 21 22  1  0  0  0  0
 23 22  1  0  0  0  0
 24 23  1  0  0  0  0
 25  3  1  0  0  0  0
 27 26  2  0  0  0  0
 28 25  1  0  0  0  0
 28 27  1  0  0  0  0
 29 27  1  0  0  0  0
 29 30  1  0  0  0  0
 30 31  2  0  0  0  0
 33 32  1  1  0  0  0
 33 30  1  0  0  0  0
 33 36  1  0  0  0  0
 35 36  1  0  0  0  0
 35 34  1  0  0  0  0
 36 34  1  0  0  0  0
 38 37  1  0  0  0  0
 39 41  1  6  0  0  0
 40 39  1  0  0  0  0
 42 48  1  1  0  0  0
 42 44  1  0  0  0  0
 43 42  1  0  0  0  0
 44 46  1  6  0  0  0
 44 39  1  0  0  0  0
 45 38  1  1  0  0  0
 45 43  1  0  0  0  0
 45 40  1  0  0  0  0
 47 46  1  0  0  0  0
 48 51  1  0  0  0  0
 49 52  1  0  0  0  0
 50 49  2  0  0  0  0
 51 49  1  0  0  0  0
M  END
>  <MODEL>
8

>  <REMARK>
 VINA RESULT:      -5.0      2.475     10.800
  Name = 
  16 active torsions:
  status: ('A' for Active; 'I' for Inactive)
    1  A    between atoms: C_1  and  C_24
    2  A    between atoms: C_1  and  C_47
    3  A    between atoms: C_10  and  C_17
    4  A    between atoms: N_12  and  C_32
    5  A    between atoms: C_13  and  C_24
    6  A    between atoms: C_13  and  C_42
    7  A    between atoms: C_15  and  C_43
    8  A    between atoms: C_17  and  C_29
    9  A    between atoms: C_21  and  C_48
   10  A    between atoms: C_22  and  C_49
   11  A    between atoms: C_29  and  N_36
   12  A    between atoms: C_32  and  N_51
   13  A    between atoms: C_34  and  C_44
   14  A    between atoms: C_34  and  C_49
   15  A    between atoms: C_37  and  C_39
   16  A    between atoms: N_38  and  C_48
                            x       y       z     vdW  Elec       q    Type
                         _______ _______ _______ _____ _____    ______ ____

>  <TORSDO>
F 16

$$$$
=
 OpenBabel11032419563D

 52 56  0  0  1  0  0  0  0  0999 V2000
  184.4240  178.6440  144.4620 C   0  0  1  0  0  3  0  0  0  0  0  0
  184.9070  178.9240  141.1640 C   0  0  0  0  0  2  0  0  0  0  0  0
  185.7080  177.9100  144.3450 N   0  0  0  0  0  0  0  0  0  0  0  0
  184.5550  180.1740  144.6220 C   0  0  0  0  0  1  0  0  0  0  0  0
  183.5710  178.2510  143.2500 C   0  0  2  0  0  3  0  0  0  0  0  0
  187.0670  177.1890  142.2880 C   0  0  0  0  0  3  0  0  0  0  0  0
  184.5460  177.8170  142.1670 C   0  0  2  0  0  3  0  0  0  0  0  0
  185.7320  177.3220  142.9880 C   0  0  2  0  0  3  0  0  0  0  0  0
  187.3280  179.6090  141.5240 C   0  0  0  0  0  2  0  0  0  0  0  0
  187.7630  178.1550  141.6730 C   0  0  0  0  0  0  0  0  0  0  0  0
  185.8540  179.9520  141.7620 C   0  0  0  0  0  2  0  0  0  0  0  0
  190.3430  178.4260  143.1770 C   0  0  0  0  0  1  0  0  0  0  0  0
  191.4440  177.0560  139.8920 C   0  0  0  0  0  0  0  0  0  0  0  0
  191.4330  177.5540  141.1590 N   0  0  0  0  0  0  0  0  0  0  0  0
  190.2320  176.8980  139.2100 C   0  0  0  0  0  3  0  0  0  0  0  0
  189.0710  177.2540  139.8170 N   0  0  0  0  0  0  0  0  0  0  0  0
  192.6910  176.6910  139.2800 N   0  0  0  0  0  0  0  0  0  0  0  0
  189.0560  177.7720  141.0780 C   0  0  0  0  0  0  0  0  0  0  0  0
  190.2780  177.9190  141.7710 C   0  0  0  0  0  0  0  0  0  0  0  0
  193.8350  176.7640  139.9980 O   0  0  0  0  0  1  0  0  0  0  0  0
  192.7880  176.3780  137.8610 C   0  0  0  0  0  2  0  0  0  0  0  0
  193.0710  174.9040  137.6360 C   0  0  0  0  0  2  0  0  0  0  0  0
  194.2360  174.7080  136.6800 C   0  0  0  0  0  2  0  0  0  0  0  0
  195.3960  175.2890  137.1980 O   0  0  0  0  0  1  0  0  0  0  0  0
  186.9070  178.7030  144.6600 C   0  0  0  0  0  2  0  0  0  0  0  0
  188.7750  176.5420  145.0520 O   0  0  0  0  0  0  0  0  0  0  0  0
  188.3420  177.1520  146.0680 C   0  0  0  0  0  0  0  0  0  0  0  0
  187.4770  178.2810  145.9320 N   0  0  0  0  0  2  0  0  0  0  0  0
  188.7180  176.6660  147.4280 C   0  0  0  0  0  2  0  0  0  0  0  0
  189.8170  177.4840  148.0480 C   0  0  0  0  0  0  0  0  0  0  0  0
  189.5760  178.3770  148.8460 O   0  0  0  0  0  0  0  0  0  0  0  0
  191.5740  177.6640  146.4630 O   0  0  0  0  0  1  0  0  0  0  0  0
  191.2380  177.1410  147.7180 C   0  0  2  0  0  3  0  0  0  0  0  0
  192.8770  175.3010  148.0840 C   0  0  0  0  0  2  0  0  0  0  0  0
  192.4300  175.2520  146.6290 C   0  0  0  0  0  2  0  0  0  0  0  0
  191.4330  175.6280  147.7170 C   0  0  0  0  0  3  0  0  0  0  0  0
  182.4770  179.2290  142.8240 C   0  0  0  0  0  2  0  0  0  0  0  0
  181.1510  178.5060  142.7520 C   0  0  0  0  0  2  0  0  0  0  0  0
  181.0310  176.8270  139.6710 C   0  0  2  0  0  3  0  0  0  0  0  0
  180.4280  177.1280  140.9200 O   0  0  0  0  0  0  0  0  0  0  0  0
  182.3960  176.5820  139.8410 O   0  0  0  0  0  1  0  0  0  0  0  0
  180.8150  179.2830  139.2600 C   0  0  2  0  0  3  0  0  0  0  0  0
  181.4910  179.2080  140.4840 O   0  0  0  0  0  0  0  0  0  0  0  0
  180.8100  177.9080  138.5990 C   0  0  2  0  0  3  0  0  0  0  0  0
  180.6310  178.4800  141.3290 C   0  0  2  0  0  3  0  0  0  0  0  0
  179.4820  177.6900  137.8950 C   0  0  0  0  0  2  0  0  0  0  0  0
  179.2390  176.3270  137.7410 O   0  0  0  0  0  1  0  0  0  0  0  0
  181.4710  180.3120  138.3550 C   0  0  0  0  0  2  0  0  0  0  0  0
  180.9790  182.7540  137.9210 C   0  0  0  0  0  0  0  0  0  0  0  0
  182.3120  183.1020  138.1470 O   0  0  0  0  0  1  0  0  0  0  0  0
  180.5440  181.4060  138.0860 N   0  0  0  0  0  2  0  0  0  0  0  0
  180.1440  183.6370  137.6010 O   0  0  0  0  0  0  0  0  0  0  0  0
  1  4  1  6  0  0  0
  2 11  1  0  0  0  0
  3  1  1  0  0  0  0
  3 25  1  0  0  0  0
  5 37  1  6  0  0  0
  5  1  1  0  0  0  0
  7  2  1  6  0  0  0
  7  8  1  0  0  0  0
  7  5  1  0  0  0  0
  8  6  1  6  0  0  0
  8  3  1  0  0  0  0
  9 10  1  0  0  0  0
  9 11  1  0  0  0  0
 10  6  2  0  0  0  0
 13 14  1  0  0  0  0
 14 19  2  0  0  0  0
 15 16  1  0  0  0  0
 15 13  2  0  0  0  0
 16 18  2  0  0  0  0
 17 13  1  0  0  0  0
 17 20  1  0  0  0  0
 18 10  1  0  0  0  0
 18 19  1  0  0  0  0
 19 12  1  0  0  0  0
 21 17  1  0  0  0  0
 22 21  1  0  0  0  0
 23 24  1  0  0  0  0
 23 22  1  0  0  0  0
 25 28  1  0  0  0  0
 26 27  2  0  0  0  0
 27 29  1  0  0  0  0
 28 27  1  0  0  0  0
 29 30  1  0  0  0  0
 30 31  2  0  0  0  0
 33 32  1  6  0  0  0
 33 30  1  0  0  0  0
 35 36  1  0  0  0  0
 35 34  1  0  0  0  0
 36 33  1  0  0  0  0
 36 34  1  0  0  0  0
 38 37  1  0  0  0  0
 39 41  1  1  0  0  0
 39 40  1  0  0  0  0
 40 45  1  0  0  0  0
 42 48  1  6  0  0  0
 42 43  1  0  0  0  0
 43 45  1  0  0  0  0
 44 46  1  1  0  0  0
 44 42  1  0  0  0  0
 44 39  1  0  0  0  0
 45 38  1  1  0  0  0
 47 46  1  0  0  0  0
 49 51  1  0  0  0  0
 49 50  1  0  0  0  0
 51 48  1  0  0  0  0
 52 49  2  0  0  0  0
M  END
>  <MODEL>
9

>  <REMARK>
 VINA RESULT:      -4.9      3.128      5.996
  Name = 
  16 active torsions:
  status: ('A' for Active; 'I' for Inactive)
    1  A    between atoms: C_1  and  C_24
    2  A    between atoms: C_1  and  C_47
    3  A    between atoms: C_10  and  C_17
    4  A    between atoms: N_12  and  C_32
    5  A    between atoms: C_13  and  C_24
    6  A    between atoms: C_13  and  C_42
    7  A    between atoms: C_15  and  C_43
    8  A    between atoms: C_17  and  C_29
    9  A    between atoms: C_21  and  C_48
   10  A    between atoms: C_22  and  C_49
   11  A    between atoms: C_29  and  N_36
   12  A    between atoms: C_32  and  N_51
   13  A    between atoms: C_34  and  C_44
   14  A    between atoms: C_34  and  C_49
   15  A    between atoms: C_37  and  C_39
   16  A    between atoms: N_38  and  C_48
                            x       y       z     vdW  Elec       q    Type
                         _______ _______ _______ _____ _____    ______ ____

>  <TORSDO>
F 16

$$$$
