=
 OpenBabel11042410163D

 55 59  0  0  1  0  0  0  0  0999 V2000
  186.8000  177.6220  136.2340 C   0  0  0  0  0  3  0  0  0  0  0  0
  187.7110  178.2380  137.0900 C   0  0  0  0  0  3  0  0  0  0  0  0
  189.3220  175.0370  136.4760 C   0  0  0  0  0  2  0  0  0  0  0  0
  188.4710  176.2630  136.4270 C   0  0  0  0  0  0  0  0  0  0  0  0
  190.7050  175.4180  136.7940 N   0  0  0  0  0  0  0  0  0  0  0  0
  187.2780  176.4260  135.8290 N   0  0  0  0  0  0  0  0  0  0  0  0
  192.4200  176.7600  137.7660 N   0  0  0  0  0  2  0  0  0  0  0  0
  191.0390  176.4640  137.5100 C   0  0  0  0  0  0  0  0  0  0  0  0
  189.9810  177.4020  138.0810 C   0  0  1  0  0  3  0  0  0  0  0  0
  188.7630  177.3460  137.1980 C   0  0  0  0  0  0  0  0  0  0  0  0
  189.6310  176.9960  139.5220 C   0  0  2  0  0  3  0  0  0  0  0  0
  191.5070  177.0520  142.6920 N   0  0  0  0  0  1  0  0  0  0  0  0
  188.6690  178.2770  140.3800 S   0  0  0  0  0  0  0  0  0  0  0  0
  190.4060  176.7140  141.8060 C   0  0  2  0  0  3  0  0  0  0  0  0
  190.8680  176.7910  140.3680 C   0  0  0  0  0  2  0  0  0  0  0  0
  189.2560  177.6960  142.0030 C   0  0  2  0  0  3  0  0  0  0  0  0
  188.1090  177.0040  142.7220 C   0  0  0  0  0  2  0  0  0  0  0  0
  187.0700  178.0050  143.1950 C   0  0  0  0  0  2  0  0  0  0  0  0
  185.8140  177.8090  142.4870 N   0  0  0  0  0  2  0  0  0  0  0  0
  184.4130  178.9960  144.4270 S   0  0  0  0  0  0  0  0  0  0  0  0
  184.5760  178.4030  142.8990 C   0  0  0  0  0  0  0  0  0  0  0  0
  183.4830  178.4780  141.9660 N   0  0  0  0  0  0  0  0  0  0  0  0
  182.1650  178.9010  142.4300 C   0  0  0  0  0  1  0  0  0  0  0  0
  182.9370  177.0550  140.1870 O   0  0  0  0  0  1  0  0  0  0  0  0
  183.6800  178.1810  140.5450 C   0  0  1  0  0  3  0  0  0  0  0  0
  183.2960  179.3740  139.6730 C   0  0  1  0  0  3  0  0  0  0  0  0
  184.4460  180.0290  139.2320 O   0  0  0  0  0  1  0  0  0  0  0  0
  180.8250  179.6220  138.8150 C   0  0  0  0  0  1  0  0  0  0  0  0
  182.3380  178.8100  138.2340 S   0  0  0  0  0  0  0  0  0  0  0  0
  195.1330  174.2020  137.8490 C   0  0  0  0  0  3  0  0  0  0  0  0
  193.5670  175.9950  137.3660 C   0  0  0  0  0  0  0  0  0  0  0  0
  195.7990  174.4340  136.6340 C   0  0  0  0  0  0  0  0  0  0  0  0
  195.3280  175.4460  135.7850 C   0  0  0  0  0  3  0  0  0  0  0  0
  194.2240  176.2200  136.1480 C   0  0  0  0  0  3  0  0  0  0  0  0
  194.0290  174.9810  138.2110 C   0  0  0  0  0  3  0  0  0  0  0  0
  197.9490  173.6190  137.2090 F   0  0  0  0  0  0  0  0  0  0  0  0
  196.9650  173.5680  136.2250 C   0  0  2  0  0  0  0  0  0  0  0  0
  197.4920  174.0770  134.9550 N   0  0  0  0  0  2  0  0  0  0  0  0
  198.6890  174.6750  135.1800 O   0  0  0  0  0  1  0  0  0  0  0  0
  196.4740  172.1200  136.0630 C   0  0  0  0  0  2  0  0  0  0  0  0
  194.5610  171.8510  134.6480 O   0  0  0  0  0  1  0  0  0  0  0  0
  195.9580  171.8040  134.6620 C   0  0  0  0  0  2  0  0  0  0  0  0
  185.6840  174.6110  135.5080 C   0  0  0  0  0  3  0  0  0  0  0  0
  186.5500  175.4980  135.0150 C   0  0  0  0  0  3  0  0  0  0  0  0
  185.4660  174.4710  136.9110 N   0  0  0  0  0  2  0  0  0  0  0  0
  184.9630  173.2300  137.4770 C   0  0  0  0  0  2  0  0  0  0  0  0
  183.4590  170.7110  136.4480 C   0  0  0  0  0  2  0  0  0  0  0  0
  182.6080  174.0020  137.4270 C   0  0  0  0  0  3  0  0  0  0  0  0
  180.4190  173.5250  138.1840 O   0  0  0  0  0  1  0  0  0  0  0  0
  181.2310  173.5420  137.0500 C   0  0  2  0  0  3  0  0  0  0  0  0
  183.5050  173.0680  137.1770 C   0  0  0  0  0  0  0  0  0  0  0  0
  181.4040  172.1110  136.5250 C   0  0  2  0  0  3  0  0  0  0  0  0
  182.8690  171.8890  136.6250 C   0  0  0  0  0  0  0  0  0  0  0  0
  179.8190  171.3340  135.1920 C   0  0  0  0  0  1  0  0  0  0  0  0
  181.0100  172.0570  135.1870 O   0  0  0  0  0  0  0  0  0  0  0  0
  1  2  2  0  0  0  0
  2 10  1  0  0  0  0
  3  5  1  0  0  0  0
  4  3  1  0  0  0  0
  4 10  2  0  0  0  0
  5  8  2  0  0  0  0
  6  1  1  0  0  0  0
  6  4  1  0  0  0  0
  8  7  1  0  0  0  0
  8  9  1  0  0  0  0
  9 10  1  6  0  0  0
  9 11  1  0  0  0  0
 11 15  1  1  0  0  0
 11 13  1  0  0  0  0
 13 16  1  0  0  0  0
 14 16  1  0  0  0  0
 14 12  1  1  0  0  0
 15 14  1  0  0  0  0
 16 17  1  6  0  0  0
 17 18  1  0  0  0  0
 19 21  1  0  0  0  0
 19 18  1  0  0  0  0
 21 20  2  0  0  0  0
 22 23  1  0  0  0  0
 22 21  1  0  0  0  0
 25 24  1  6  0  0  0
 25 22  1  0  0  0  0
 26 27  1  6  0  0  0
 26 25  1  0  0  0  0
 29 28  1  0  0  0  0
 29 26  1  0  0  0  0
 30 35  1  0  0  0  0
 31  7  1  0  0  0  0
 31 35  2  0  0  0  0
 32 30  2  0  0  0  0
 33 34  2  0  0  0  0
 33 32  1  0  0  0  0
 34 31  1  0  0  0  0
 37 32  1  0  0  0  0
 37 36  1  1  0  0  0
 38 39  1  0  0  0  0
 38 37  1  0  0  0  0
 40 37  1  0  0  0  0
 41 42  1  0  0  0  0
 42 40  1  0  0  0  0
 43 45  1  0  0  0  0
 44 43  2  0  0  0  0
 44  6  1  0  0  0  0
 45 46  1  0  0  0  0
 47 53  2  0  0  0  0
 50 48  1  0  0  0  0
 50 49  1  1  0  0  0
 51 48  2  0  0  0  0
 51 46  1  0  0  0  0
 52 55  1  6  0  0  0
 52 53  1  0  0  0  0
 52 50  1  0  0  0  0
 53 51  1  0  0  0  0
 55 54  1  0  0  0  0
M  END
>  <MODEL>
1

>  <REMARK>
 VINA RESULT:      -6.3      0.000      0.000
  Name = 
  19 active torsions:
  status: ('A' for Active; 'I' for Inactive)
    1  A    between atoms: N_2  and  C_46
    2  A    between atoms: N_2  and  C_48
    3  A    between atoms: C_8  and  C_39
    4  A    between atoms: C_9  and  N_33
    5  A    between atoms: C_14  and  C_24
    6  A    between atoms: C_14  and  S_37
    7  A    between atoms: C_16  and  C_18
    8  A    between atoms: C_18  and  N_38
    9  A    between atoms: C_18  and  C_47
   10  A    between atoms: C_20  and  N_32
   11  A    between atoms: C_22  and  C_26
   12  A    between atoms: C_22  and  N_32
   13  A    between atoms: C_23  and  C_46
   14  A    between atoms: C_23  and  C_53
   15  A    between atoms: C_24  and  N_52
   16  A    between atoms: N_28  and  C_43
   17  A    between atoms: C_45  and  C_47
   18  A    between atoms: C_48  and  N_52
   19  A    between atoms: C_49  and  O_51
                            x       y       z     vdW  Elec       q    Type
                         _______ _______ _______ _____ _____    ______ ____

>  <TORSDO>
F 19

$$$$
=
 OpenBabel11042410163D

 55 59  0  0  1  0  0  0  0  0999 V2000
  192.4330  177.2690  141.7370 C   0  0  0  0  0  3  0  0  0  0  0  0
  191.9200  177.8750  140.5910 C   0  0  0  0  0  3  0  0  0  0  0  0
  188.9660  176.2550  141.9580 C   0  0  0  0  0  2  0  0  0  0  0  0
  190.3080  176.8710  141.7370 C   0  0  0  0  0  0  0  0  0  0  0  0
  187.9380  177.0850  141.3150 N   0  0  0  0  0  0  0  0  0  0  0  0
  191.4420  176.6710  142.4310 N   0  0  0  0  0  0  0  0  0  0  0  0
  187.0750  178.6050  139.6930 N   0  0  0  0  0  2  0  0  0  0  0  0
  188.1410  177.8220  140.2500 C   0  0  0  0  0  0  0  0  0  0  0  0
  189.5090  177.8830  139.5800 C   0  0  1  0  0  3  0  0  0  0  0  0
  190.5650  177.5990  140.6150 C   0  0  0  0  0  0  0  0  0  0  0  0
  189.5840  176.8660  138.4290 C   0  0  2  0  0  3  0  0  0  0  0  0
  187.0340  175.0350  136.5020 N   0  0  0  0  0  1  0  0  0  0  0  0
  189.8360  177.6710  136.8200 S   0  0  0  0  0  0  0  0  0  0  0  0
  188.3760  175.3600  136.9580 C   0  0  2  0  0  3  0  0  0  0  0  0
  188.3010  176.0790  138.2860 C   0  0  0  0  0  2  0  0  0  0  0  0
  189.0640  176.2710  135.9480 C   0  0  2  0  0  3  0  0  0  0  0  0
  190.1440  175.4940  135.2100 C   0  0  0  0  0  2  0  0  0  0  0  0
  191.3580  176.3640  134.9360 C   0  0  0  0  0  2  0  0  0  0  0  0
  192.5770  175.5710  134.9940 N   0  0  0  0  0  2  0  0  0  0  0  0
  193.2210  176.1830  137.5140 S   0  0  0  0  0  0  0  0  0  0  0  0
  193.1920  175.1610  136.2230 C   0  0  0  0  0  0  0  0  0  0  0  0
  193.7770  173.8490  136.3170 N   0  0  0  0  0  0  0  0  0  0  0  0
  192.9160  172.6710  136.2850 C   0  0  0  0  0  1  0  0  0  0  0  0
  195.8650  174.5620  135.5310 O   0  0  0  0  0  1  0  0  0  0  0  0
  195.2290  173.6730  136.3980 C   0  0  1  0  0  3  0  0  0  0  0  0
  195.7300  173.8690  137.8270 C   0  0  1  0  0  3  0  0  0  0  0  0
  195.2920  172.8170  138.6330 O   0  0  0  0  0  1  0  0  0  0  0  0
  197.5880  174.7990  139.4360 C   0  0  0  0  0  1  0  0  0  0  0  0
  197.5470  173.9240  137.8470 S   0  0  0  0  0  0  0  0  0  0  0  0
  183.3480  178.6860  139.5650 C   0  0  0  0  0  3  0  0  0  0  0  0
  185.7090  178.6620  140.1340 C   0  0  0  0  0  0  0  0  0  0  0  0
  183.0040  178.7460  140.9250 C   0  0  0  0  0  0  0  0  0  0  0  0
  184.0280  178.7530  141.8840 C   0  0  0  0  0  3  0  0  0  0  0  0
  185.3680  178.7130  141.4920 C   0  0  0  0  0  3  0  0  0  0  0  0
  184.6910  178.6480  139.1750 C   0  0  0  0  0  3  0  0  0  0  0  0
  181.0490  177.4510  141.2720 F   0  0  0  0  0  0  0  0  0  0  0  0
  181.5550  178.7470  141.3480 C   0  0  2  0  0  0  0  0  0  0  0  0
  180.8130  179.6340  140.4470 N   0  0  0  0  0  2  0  0  0  0  0  0
  180.3610  180.7020  141.1500 O   0  0  0  0  0  1  0  0  0  0  0  0
  181.4630  179.2510  142.7970 C   0  0  0  0  0  2  0  0  0  0  0  0
  179.3540  178.1230  142.8990 O   0  0  0  0  0  1  0  0  0  0  0  0
  180.4780  178.4650  143.6560 C   0  0  0  0  0  2  0  0  0  0  0  0
  191.4800  176.3570  144.8470 C   0  0  0  0  0  3  0  0  0  0  0  0
  191.6420  175.8830  143.6110 C   0  0  0  0  0  3  0  0  0  0  0  0
  191.1590  177.7260  145.0930 N   0  0  0  0  0  2  0  0  0  0  0  0
  189.8850  178.2900  144.6790 C   0  0  0  0  0  2  0  0  0  0  0  0
  186.8360  177.7250  144.4610 C   0  0  0  0  0  2  0  0  0  0  0  0
  189.1940  178.1880  147.0570 C   0  0  0  0  0  3  0  0  0  0  0  0
  188.1070  176.8560  148.6800 O   0  0  0  0  0  1  0  0  0  0  0  0
  187.9780  178.0160  147.9180 C   0  0  2  0  0  3  0  0  0  0  0  0
  188.8750  178.1700  145.7770 C   0  0  0  0  0  0  0  0  0  0  0  0
  186.8030  177.8600  146.9450 C   0  0  2  0  0  3  0  0  0  0  0  0
  187.4480  177.9800  145.6130 C   0  0  0  0  0  0  0  0  0  0  0  0
  184.6470  178.3560  146.8950 C   0  0  0  0  0  1  0  0  0  0  0  0
  185.9040  178.9120  147.1290 O   0  0  0  0  0  0  0  0  0  0  0  0
  1  6  1  0  0  0  0
  2 10  1  0  0  0  0
  2  1  2  0  0  0  0
  4  3  1  0  0  0  0
  4  6  1  0  0  0  0
  5  3  1  0  0  0  0
  6 44  1  0  0  0  0
  7 31  1  0  0  0  0
  7  8  1  0  0  0  0
  8  5  2  0  0  0  0
  9  8  1  1  0  0  0
  9 10  1  0  0  0  0
 10  4  2  0  0  0  0
 11 15  1  6  0  0  0
 11  9  1  0  0  0  0
 13 11  1  0  0  0  0
 14 12  1  6  0  0  0
 14 15  1  0  0  0  0
 16 17  1  1  0  0  0
 16 13  1  0  0  0  0
 16 14  1  0  0  0  0
 18 19  1  0  0  0  0
 18 17  1  0  0  0  0
 19 21  1  0  0  0  0
 21 22  1  0  0  0  0
 21 20  2  0  0  0  0
 22 25  1  0  0  0  0
 23 22  1  0  0  0  0
 25 24  1  6  0  0  0
 25 26  1  0  0  0  0
 26 29  1  0  0  0  0
 26 27  1  1  0  0  0
 29 28  1  0  0  0  0
 30 32  1  0  0  0  0
 31 34  2  0  0  0  0
 32 37  1  0  0  0  0
 32 33  2  0  0  0  0
 34 33  1  0  0  0  0
 35 30  2  0  0  0  0
 35 31  1  0  0  0  0
 37 36  1  6  0  0  0
 37 40  1  0  0  0  0
 38 39  1  0  0  0  0
 38 37  1  0  0  0  0
 40 42  1  0  0  0  0
 41 42  1  0  0  0  0
 43 45  1  0  0  0  0
 44 43  2  0  0  0  0
 46 45  1  0  0  0  0
 46 51  1  0  0  0  0
 47 53  2  0  0  0  0
 48 50  1  0  0  0  0
 50 49  1  6  0  0  0
 51 48  2  0  0  0  0
 52 55  1  1  0  0  0
 52 50  1  0  0  0  0
 53 51  1  0  0  0  0
 53 52  1  0  0  0  0
 54 55  1  0  0  0  0
M  END
>  <MODEL>
2

>  <REMARK>
 VINA RESULT:      -6.2      4.597     11.896
  Name = 
  19 active torsions:
  status: ('A' for Active; 'I' for Inactive)
    1  A    between atoms: N_2  and  C_46
    2  A    between atoms: N_2  and  C_48
    3  A    between atoms: C_8  and  C_39
    4  A    between atoms: C_9  and  N_33
    5  A    between atoms: C_14  and  C_24
    6  A    between atoms: C_14  and  S_37
    7  A    between atoms: C_16  and  C_18
    8  A    between atoms: C_18  and  N_38
    9  A    between atoms: C_18  and  C_47
   10  A    between atoms: C_20  and  N_32
   11  A    between atoms: C_22  and  C_26
   12  A    between atoms: C_22  and  N_32
   13  A    between atoms: C_23  and  C_46
   14  A    between atoms: C_23  and  C_53
   15  A    between atoms: C_24  and  N_52
   16  A    between atoms: N_28  and  C_43
   17  A    between atoms: C_45  and  C_47
   18  A    between atoms: C_48  and  N_52
   19  A    between atoms: C_49  and  O_51
                            x       y       z     vdW  Elec       q    Type
                         _______ _______ _______ _____ _____    ______ ____

>  <TORSDO>
F 19

$$$$
=
 OpenBabel11042410163D

 55 59  0  0  1  0  0  0  0  0999 V2000
  186.3290  177.8700  136.4430 C   0  0  0  0  0  3  0  0  0  0  0  0
  187.4410  178.6290  136.8040 C   0  0  0  0  0  3  0  0  0  0  0  0
  188.6450  175.2450  137.3600 C   0  0  0  0  0  2  0  0  0  0  0  0
  187.8970  176.4630  136.9290 C   0  0  0  0  0  0  0  0  0  0  0  0
  190.0890  175.5020  137.2660 N   0  0  0  0  0  0  0  0  0  0  0  0
  186.6220  176.5540  136.5130 N   0  0  0  0  0  0  0  0  0  0  0  0
  192.0630  176.8400  137.2990 N   0  0  0  0  0  2  0  0  0  0  0  0
  190.6400  176.6830  137.4110 C   0  0  0  0  0  0  0  0  0  0  0  0
  189.7970  177.9210  137.6890 C   0  0  1  0  0  3  0  0  0  0  0  0
  188.4220  177.7050  137.1150 C   0  0  0  0  0  0  0  0  0  0  0  0
  189.7220  178.1870  139.2020 C   0  0  2  0  0  3  0  0  0  0  0  0
  186.9850  178.0310  141.6620 N   0  0  0  0  0  1  0  0  0  0  0  0
  190.3170  176.7730  140.1760 S   0  0  0  0  0  0  0  0  0  0  0  0
  188.3160  178.3510  141.1740 C   0  0  2  0  0  3  0  0  0  0  0  0
  188.3010  178.4200  139.6640 C   0  0  0  0  0  2  0  0  0  0  0  0
  189.3030  177.2710  141.6040 C   0  0  2  0  0  3  0  0  0  0  0  0
  190.2170  177.8160  142.6910 C   0  0  0  0  0  2  0  0  0  0  0  0
  190.2540  176.8910  143.8940 C   0  0  0  0  0  2  0  0  0  0  0  0
  190.7690  177.5930  145.0610 N   0  0  0  0  0  2  0  0  0  0  0  0
  191.7780  176.0540  146.9970 S   0  0  0  0  0  0  0  0  0  0  0  0
  190.6470  177.0910  146.3980 C   0  0  0  0  0  0  0  0  0  0  0  0
  189.5340  177.5060  147.2100 N   0  0  0  0  0  0  0  0  0  0  0  0
  189.7550  178.4220  148.3250 C   0  0  0  0  0  1  0  0  0  0  0  0
  187.4720  176.8340  148.0970 O   0  0  0  0  0  1  0  0  0  0  0  0
  188.1720  177.0590  146.9100 C   0  0  1  0  0  3  0  0  0  0  0  0
  187.4350  178.0770  146.0420 C   0  0  1  0  0  3  0  0  0  0  0  0
  186.9240  177.4490  144.9050 O   0  0  0  0  0  1  0  0  0  0  0  0
  184.8700  178.4990  145.6570 C   0  0  0  0  0  1  0  0  0  0  0  0
  186.0680  178.8220  146.9810 S   0  0  0  0  0  0  0  0  0  0  0  0
  194.7420  174.8330  135.6540 C   0  0  0  0  0  3  0  0  0  0  0  0
  193.0420  175.8110  137.0860 C   0  0  0  0  0  0  0  0  0  0  0  0
  194.9990  173.8370  136.6100 C   0  0  0  0  0  0  0  0  0  0  0  0
  194.2740  173.8470  137.8110 C   0  0  0  0  0  3  0  0  0  0  0  0
  193.3040  174.8240  138.0460 C   0  0  0  0  0  3  0  0  0  0  0  0
  193.7690  175.8080  135.8910 C   0  0  0  0  0  3  0  0  0  0  0  0
  196.5660  172.9400  135.0740 F   0  0  0  0  0  0  0  0  0  0  0  0
  196.0770  172.8070  136.3720 C   0  0  2  0  0  0  0  0  0  0  0  0
  195.4910  171.4760  136.5590 N   0  0  0  0  0  2  0  0  0  0  0  0
  196.0450  170.8980  137.6530 O   0  0  0  0  0  1  0  0  0  0  0  0
  197.2150  173.0410  137.3780 C   0  0  0  0  0  2  0  0  0  0  0  0
  197.9730  175.3080  137.5110 O   0  0  0  0  0  1  0  0  0  0  0  0
  198.2380  174.0730  136.9140 C   0  0  0  0  0  2  0  0  0  0  0  0
  184.5050  175.4220  136.9300 C   0  0  0  0  0  3  0  0  0  0  0  0
  185.6750  175.5020  136.2930 C   0  0  0  0  0  3  0  0  0  0  0  0
  184.1340  176.3540  137.9450 N   0  0  0  0  0  2  0  0  0  0  0  0
  183.2890  177.4980  137.6470 C   0  0  0  0  0  2  0  0  0  0  0  0
  181.7990  180.1060  138.4490 C   0  0  0  0  0  2  0  0  0  0  0  0
  181.7930  176.7170  139.4630 C   0  0  0  0  0  3  0  0  0  0  0  0
  179.5440  176.6330  140.1890 O   0  0  0  0  0  1  0  0  0  0  0  0
  180.7810  177.2230  140.4470 C   0  0  2  0  0  3  0  0  0  0  0  0
  182.2800  177.7030  138.7340 C   0  0  0  0  0  0  0  0  0  0  0  0
  180.6860  178.7340  140.2010 C   0  0  2  0  0  3  0  0  0  0  0  0
  181.6710  178.9620  139.1140 C   0  0  0  0  0  0  0  0  0  0  0  0
  180.0410  179.2450  142.2540 C   0  0  0  0  0  1  0  0  0  0  0  0
  181.0870  179.4180  141.3500 O   0  0  0  0  0  0  0  0  0  0  0  0
  1  6  1  0  0  0  0
  1  2  2  0  0  0  0
  2 10  1  0  0  0  0
  4 10  2  0  0  0  0
  4  3  1  0  0  0  0
  5  3  1  0  0  0  0
  5  8  2  0  0  0  0
  6  4  1  0  0  0  0
  7  8  1  0  0  0  0
  8  9  1  0  0  0  0
  9 10  1  1  0  0  0
  9 11  1  0  0  0  0
 11 15  1  1  0  0  0
 11 13  1  0  0  0  0
 13 16  1  0  0  0  0
 14 16  1  0  0  0  0
 14 12  1  6  0  0  0
 15 14  1  0  0  0  0
 16 17  1  1  0  0  0
 17 18  1  0  0  0  0
 18 19  1  0  0  0  0
 19 21  1  0  0  0  0
 21 20  2  0  0  0  0
 21 22  1  0  0  0  0
 22 23  1  0  0  0  0
 25 22  1  0  0  0  0
 25 24  1  1  0  0  0
 26 27  1  6  0  0  0
 26 25  1  0  0  0  0
 26 29  1  0  0  0  0
 28 29  1  0  0  0  0
 30 35  2  0  0  0  0
 30 32  1  0  0  0  0
 31  7  1  0  0  0  0
 31 34  2  0  0  0  0
 32 33  2  0  0  0  0
 33 34  1  0  0  0  0
 35 31  1  0  0  0  0
 37 36  1  6  0  0  0
 37 38  1  0  0  0  0
 37 32  1  0  0  0  0
 37 40  1  0  0  0  0
 38 39  1  0  0  0  0
 42 40  1  0  0  0  0
 42 41  1  0  0  0  0
 43 45  1  0  0  0  0
 44  6  1  0  0  0  0
 44 43  2  0  0  0  0
 46 45  1  0  0  0  0
 46 51  1  0  0  0  0
 47 53  2  0  0  0  0
 48 50  1  0  0  0  0
 50 49  1  6  0  0  0
 51 53  1  0  0  0  0
 51 48  2  0  0  0  0
 52 50  1  0  0  0  0
 52 55  1  1  0  0  0
 53 52  1  0  0  0  0
 55 54  1  0  0  0  0
M  END
>  <MODEL>
3

>  <REMARK>
 VINA RESULT:      -5.8      2.862      5.109
  Name = 
  19 active torsions:
  status: ('A' for Active; 'I' for Inactive)
    1  A    between atoms: N_2  and  C_46
    2  A    between atoms: N_2  and  C_48
    3  A    between atoms: C_8  and  C_39
    4  A    between atoms: C_9  and  N_33
    5  A    between atoms: C_14  and  C_24
    6  A    between atoms: C_14  and  S_37
    7  A    between atoms: C_16  and  C_18
    8  A    between atoms: C_18  and  N_38
    9  A    between atoms: C_18  and  C_47
   10  A    between atoms: C_20  and  N_32
   11  A    between atoms: C_22  and  C_26
   12  A    between atoms: C_22  and  N_32
   13  A    between atoms: C_23  and  C_46
   14  A    between atoms: C_23  and  C_53
   15  A    between atoms: C_24  and  N_52
   16  A    between atoms: N_28  and  C_43
   17  A    between atoms: C_45  and  C_47
   18  A    between atoms: C_48  and  N_52
   19  A    between atoms: C_49  and  O_51
                            x       y       z     vdW  Elec       q    Type
                         _______ _______ _______ _____ _____    ______ ____

>  <TORSDO>
F 19

$$$$
=
 OpenBabel11042410163D

 55 59  0  0  1  0  0  0  0  0999 V2000
  192.2660  177.4660  142.1760 C   0  0  0  0  0  3  0  0  0  0  0  0
  192.0620  177.9530  140.8860 C   0  0  0  0  0  3  0  0  0  0  0  0
  188.9150  176.2560  141.5430 C   0  0  0  0  0  2  0  0  0  0  0  0
  190.2400  176.9370  141.6390 C   0  0  0  0  0  0  0  0  0  0  0  0
  188.0690  176.9710  140.5770 N   0  0  0  0  0  0  0  0  0  0  0  0
  191.1480  176.8590  142.6270 N   0  0  0  0  0  0  0  0  0  0  0  0
  187.6220  178.3120  138.6560 N   0  0  0  0  0  2  0  0  0  0  0  0
  188.5260  177.6400  139.5460 C   0  0  0  0  0  0  0  0  0  0  0  0
  190.0210  177.7370  139.2670 C   0  0  1  0  0  3  0  0  0  0  0  0
  190.7640  177.5960  140.5680 C   0  0  0  0  0  0  0  0  0  0  0  0
  190.4490  176.6460  138.2710 C   0  0  2  0  0  3  0  0  0  0  0  0
  190.6010  176.4960  134.5940 N   0  0  0  0  0  1  0  0  0  0  0  0
  192.2550  176.5630  138.0810 S   0  0  0  0  0  0  0  0  0  0  0  0
  190.6460  175.9700  135.9480 C   0  0  2  0  0  3  0  0  0  0  0  0
  189.9130  176.9060  136.8820 C   0  0  0  0  0  2  0  0  0  0  0  0
  192.0920  175.8480  136.4150 C   0  0  2  0  0  3  0  0  0  0  0  0
  192.4920  174.3820  136.4670 C   0  0  0  0  0  2  0  0  0  0  0  0
  192.9860  173.8970  135.1150 C   0  0  0  0  0  2  0  0  0  0  0  0
  194.4380  173.9750  135.0460 N   0  0  0  0  0  2  0  0  0  0  0  0
  195.5030  171.5430  134.7500 S   0  0  0  0  0  0  0  0  0  0  0  0
  195.3070  172.9600  135.5660 C   0  0  0  0  0  0  0  0  0  0  0  0
  196.0060  173.1930  136.8020 N   0  0  0  0  0  0  0  0  0  0  0  0
  196.2050  172.0920  137.7380 C   0  0  0  0  0  1  0  0  0  0  0  0
  195.5410  175.4610  137.1660 O   0  0  0  0  0  1  0  0  0  0  0  0
  196.5630  174.5110  137.1170 C   0  0  1  0  0  3  0  0  0  0  0  0
  197.3310  174.4850  138.4370 C   0  0  1  0  0  3  0  0  0  0  0  0
  198.3680  175.4180  138.4020 O   0  0  0  0  0  1  0  0  0  0  0  0
  197.5870  175.3370  140.9090 C   0  0  0  0  0  1  0  0  0  0  0  0
  196.2130  174.8820  139.8160 S   0  0  0  0  0  0  0  0  0  0  0  0
  184.0790  177.6090  137.7300 C   0  0  0  0  0  3  0  0  0  0  0  0
  186.1870  178.3160  138.7060 C   0  0  0  0  0  0  0  0  0  0  0  0
  183.3680  178.2590  138.7530 C   0  0  0  0  0  0  0  0  0  0  0  0
  184.0840  178.9270  139.7570 C   0  0  0  0  0  3  0  0  0  0  0  0
  185.4800  178.9570  139.7330 C   0  0  0  0  0  3  0  0  0  0  0  0
  185.4760  177.6420  137.7070 C   0  0  0  0  0  3  0  0  0  0  0  0
  181.4700  177.1090  139.5880 F   0  0  0  0  0  0  0  0  0  0  0  0
  181.8610  178.1890  138.8000 C   0  0  2  0  0  0  0  0  0  0  0  0
  181.3650  178.0230  137.4300 N   0  0  0  0  0  2  0  0  0  0  0  0
  180.0840  177.5780  137.4730 O   0  0  0  0  0  1  0  0  0  0  0  0
  181.3250  179.4940  139.4120 C   0  0  0  0  0  2  0  0  0  0  0  0
  181.9740  181.5500  138.3720 O   0  0  0  0  0  1  0  0  0  0  0  0
  180.9870  180.5610  138.3750 C   0  0  0  0  0  2  0  0  0  0  0  0
  190.1560  176.4870  144.8210 C   0  0  0  0  0  3  0  0  0  0  0  0
  191.0490  176.1730  143.8810 C   0  0  0  0  0  3  0  0  0  0  0  0
  189.2650  177.5910  144.6760 N   0  0  0  0  0  2  0  0  0  0  0  0
  188.2440  177.8750  145.6720 C   0  0  0  0  0  2  0  0  0  0  0  0
  185.7240  179.1790  146.9420 C   0  0  0  0  0  2  0  0  0  0  0  0
  186.7670  178.1960  143.7070 C   0  0  0  0  0  3  0  0  0  0  0  0
  185.5080  179.7920  142.4970 O   0  0  0  0  0  1  0  0  0  0  0  0
  185.3970  178.6840  143.3380 C   0  0  2  0  0  3  0  0  0  0  0  0
  186.9590  178.2660  145.0110 C   0  0  0  0  0  0  0  0  0  0  0  0
  184.7410  179.1090  144.6570 C   0  0  2  0  0  3  0  0  0  0  0  0
  185.7850  178.8030  145.6680 C   0  0  0  0  0  0  0  0  0  0  0  0
  182.5810  178.9550  144.2060 C   0  0  0  0  0  1  0  0  0  0  0  0
  183.6140  178.3190  144.8910 O   0  0  0  0  0  0  0  0  0  0  0  0
  1  6  1  0  0  0  0
  2  1  2  0  0  0  0
  3  4  1  0  0  0  0
  4  6  1  0  0  0  0
  5  3  1  0  0  0  0
  6 44  1  0  0  0  0
  7 31  1  0  0  0  0
  7  8  1  0  0  0  0
  8  5  2  0  0  0  0
  9  8  1  1  0  0  0
  9 10  1  0  0  0  0
 10  2  1  0  0  0  0
 10  4  2  0  0  0  0
 11 15  1  6  0  0  0
 11  9  1  0  0  0  0
 13 11  1  0  0  0  0
 14 12  1  6  0  0  0
 14 16  1  0  0  0  0
 14 15  1  0  0  0  0
 16 17  1  1  0  0  0
 16 13  1  0  0  0  0
 18 17  1  0  0  0  0
 19 18  1  0  0  0  0
 19 21  1  0  0  0  0
 20 21  2  0  0  0  0
 21 22  1  0  0  0  0
 22 25  1  0  0  0  0
 22 23  1  0  0  0  0
 25 24  1  1  0  0  0
 25 26  1  0  0  0  0
 26 27  1  6  0  0  0
 26 29  1  0  0  0  0
 29 28  1  0  0  0  0
 30 32  1  0  0  0  0
 31 34  2  0  0  0  0
 32 37  1  0  0  0  0
 32 33  2  0  0  0  0
 34 33  1  0  0  0  0
 35 30  2  0  0  0  0
 35 31  1  0  0  0  0
 37 40  1  0  0  0  0
 37 36  1  1  0  0  0
 38 39  1  0  0  0  0
 38 37  1  0  0  0  0
 41 42  1  0  0  0  0
 42 40  1  0  0  0  0
 44 43  2  0  0  0  0
 45 43  1  0  0  0  0
 45 46  1  0  0  0  0
 48 51  2  0  0  0  0
 50 49  1  6  0  0  0
 50 48  1  0  0  0  0
 50 52  1  0  0  0  0
 51 53  1  0  0  0  0
 51 46  1  0  0  0  0
 52 55  1  1  0  0  0
 52 53  1  0  0  0  0
 53 47  2  0  0  0  0
 54 55  1  0  0  0  0
M  END
>  <MODEL>
4

>  <REMARK>
 VINA RESULT:      -5.6      4.435     11.524
  Name = 
  19 active torsions:
  status: ('A' for Active; 'I' for Inactive)
    1  A    between atoms: N_2  and  C_46
    2  A    between atoms: N_2  and  C_48
    3  A    between atoms: C_8  and  C_39
    4  A    between atoms: C_9  and  N_33
    5  A    between atoms: C_14  and  C_24
    6  A    between atoms: C_14  and  S_37
    7  A    between atoms: C_16  and  C_18
    8  A    between atoms: C_18  and  N_38
    9  A    between atoms: C_18  and  C_47
   10  A    between atoms: C_20  and  N_32
   11  A    between atoms: C_22  and  C_26
   12  A    between atoms: C_22  and  N_32
   13  A    between atoms: C_23  and  C_46
   14  A    between atoms: C_23  and  C_53
   15  A    between atoms: C_24  and  N_52
   16  A    between atoms: N_28  and  C_43
   17  A    between atoms: C_45  and  C_47
   18  A    between atoms: C_48  and  N_52
   19  A    between atoms: C_49  and  O_51
                            x       y       z     vdW  Elec       q    Type
                         _______ _______ _______ _____ _____    ______ ____

>  <TORSDO>
F 19

$$$$
=
 OpenBabel11042410163D

 55 59  0  0  1  0  0  0  0  0999 V2000
  192.2470  177.3790  141.9550 C   0  0  0  0  0  3  0  0  0  0  0  0
  191.6510  178.2230  141.0190 C   0  0  0  0  0  3  0  0  0  0  0  0
  188.8040  176.2890  142.1890 C   0  0  0  0  0  2  0  0  0  0  0  0
  190.1270  176.9590  142.0180 C   0  0  0  0  0  0  0  0  0  0  0  0
  187.7320  177.2280  141.8300 N   0  0  0  0  0  0  0  0  0  0  0  0
  191.3090  176.6230  142.5640 N   0  0  0  0  0  0  0  0  0  0  0  0
  186.7550  179.0660  140.6670 N   0  0  0  0  0  2  0  0  0  0  0  0
  187.8580  178.1920  140.9510 C   0  0  0  0  0  0  0  0  0  0  0  0
  189.1720  178.4260  140.2150 C   0  0  1  0  0  3  0  0  0  0  0  0
  190.3010  177.9280  141.0780 C   0  0  0  0  0  0  0  0  0  0  0  0
  189.1600  177.7010  138.8590 C   0  0  2  0  0  3  0  0  0  0  0  0
  190.4460  174.4400  137.7240 N   0  0  0  0  0  1  0  0  0  0  0  0
  187.5700  176.8840  138.5330 S   0  0  0  0  0  0  0  0  0  0  0  0
  189.8790  175.7700  137.5740 C   0  0  2  0  0  3  0  0  0  0  0  0
  190.1940  176.5990  138.7980 C   0  0  0  0  0  2  0  0  0  0  0  0
  188.3640  175.6780  137.4240 C   0  0  2  0  0  3  0  0  0  0  0  0
  187.9710  175.9950  135.9890 C   0  0  0  0  0  2  0  0  0  0  0  0
  187.0030  174.9610  135.4420 C   0  0  0  0  0  2  0  0  0  0  0  0
  185.6290  175.3490  135.7270 N   0  0  0  0  0  2  0  0  0  0  0  0
  185.2970  173.4050  137.5290 S   0  0  0  0  0  0  0  0  0  0  0  0
  184.8830  174.8440  136.8420 C   0  0  0  0  0  0  0  0  0  0  0  0
  183.7760  175.6070  137.3550 N   0  0  0  0  0  0  0  0  0  0  0  0
  183.7240  177.0470  137.1260 C   0  0  0  0  0  1  0  0  0  0  0  0
  182.0560  175.8670  138.9240 O   0  0  0  0  0  1  0  0  0  0  0  0
  182.6740  174.9550  138.0670 C   0  0  1  0  0  3  0  0  0  0  0  0
  181.6580  174.3670  137.0910 C   0  0  1  0  0  3  0  0  0  0  0  0
  181.7340  172.9730  137.1100 O   0  0  0  0  0  1  0  0  0  0  0  0
  179.6670  173.3440  138.4670 C   0  0  0  0  0  1  0  0  0  0  0  0
  179.9770  174.8810  137.5570 S   0  0  0  0  0  0  0  0  0  0  0  0
  183.0480  178.6890  140.8250 C   0  0  0  0  0  3  0  0  0  0  0  0
  185.4260  179.0000  141.2070 C   0  0  0  0  0  0  0  0  0  0  0  0
  182.7910  178.8330  142.1980 C   0  0  0  0  0  0  0  0  0  0  0  0
  183.8680  179.0510  143.0700 C   0  0  0  0  0  3  0  0  0  0  0  0
  185.1730  179.1350  142.5790 C   0  0  0  0  0  3  0  0  0  0  0  0
  184.3550  178.7760  140.3350 C   0  0  0  0  0  3  0  0  0  0  0  0
  181.4220  178.1180  143.9970 F   0  0  0  0  0  0  0  0  0  0  0  0
  181.3850  178.7000  142.7320 C   0  0  2  0  0  0  0  0  0  0  0  0
  180.6210  177.8550  141.8080 N   0  0  0  0  0  2  0  0  0  0  0  0
  179.5990  177.2730  142.4830 O   0  0  0  0  0  1  0  0  0  0  0  0
  180.7580  180.1000  142.8270 C   0  0  0  0  0  2  0  0  0  0  0  0
  180.2970  180.9110  140.6220 O   0  0  0  0  0  1  0  0  0  0  0  0
  179.6980  180.3670  141.7620 C   0  0  0  0  0  2  0  0  0  0  0  0
  191.5000  175.7580  144.8340 C   0  0  0  0  0  3  0  0  0  0  0  0
  191.5940  175.5890  143.5140 C   0  0  0  0  0  3  0  0  0  0  0  0
  191.1710  177.0210  145.4100 N   0  0  0  0  0  2  0  0  0  0  0  0
  191.0420  177.1840  146.8490 C   0  0  0  0  0  2  0  0  0  0  0  0
  188.4360  176.7940  145.2000 C   0  0  0  0  0  2  0  0  0  0  0  0
  189.3040  178.0410  148.3950 C   0  0  0  0  0  3  0  0  0  0  0  0
  187.2730  177.5040  149.4800 O   0  0  0  0  0  1  0  0  0  0  0  0
  187.8280  178.2950  148.4740 C   0  0  2  0  0  3  0  0  0  0  0  0
  189.6400  177.5610  147.2120 C   0  0  0  0  0  0  0  0  0  0  0  0
  187.2620  177.8640  147.1150 C   0  0  2  0  0  3  0  0  0  0  0  0
  188.4690  177.4240  146.3700 C   0  0  0  0  0  0  0  0  0  0  0  0
  185.3210  178.7170  146.4860 C   0  0  0  0  0  1  0  0  0  0  0  0
  186.6920  178.9670  146.4780 O   0  0  0  0  0  0  0  0  0  0  0  0
  1  6  1  0  0  0  0
  2 10  1  0  0  0  0
  2  1  2  0  0  0  0
  4  3  1  0  0  0  0
  4  6  1  0  0  0  0
  5  3  1  0  0  0  0
  6 44  1  0  0  0  0
  7  8  1  0  0  0  0
  7 31  1  0  0  0  0
  8  5  2  0  0  0  0
  9  8  1  1  0  0  0
  9 10  1  0  0  0  0
 10  4  2  0  0  0  0
 11 15  1  1  0  0  0
 11  9  1  0  0  0  0
 13 11  1  0  0  0  0
 14 12  1  1  0  0  0
 14 15  1  0  0  0  0
 16 17  1  6  0  0  0
 16 14  1  0  0  0  0
 16 13  1  0  0  0  0
 18 19  1  0  0  0  0
 18 17  1  0  0  0  0
 19 21  1  0  0  0  0
 21 22  1  0  0  0  0
 21 20  2  0  0  0  0
 22 25  1  0  0  0  0
 23 22  1  0  0  0  0
 25 24  1  1  0  0  0
 26 27  1  1  0  0  0
 26 29  1  0  0  0  0
 26 25  1  0  0  0  0
 29 28  1  0  0  0  0
 30 32  1  0  0  0  0
 31 34  2  0  0  0  0
 32 37  1  0  0  0  0
 32 33  2  0  0  0  0
 34 33  1  0  0  0  0
 35 30  2  0  0  0  0
 35 31  1  0  0  0  0
 37 40  1  0  0  0  0
 37 36  1  1  0  0  0
 38 39  1  0  0  0  0
 38 37  1  0  0  0  0
 41 42  1  0  0  0  0
 42 40  1  0  0  0  0
 43 45  1  0  0  0  0
 44 43  2  0  0  0  0
 45 46  1  0  0  0  0
 46 51  1  0  0  0  0
 47 53  2  0  0  0  0
 48 50  1  0  0  0  0
 50 49  1  1  0  0  0
 51 48  2  0  0  0  0
 52 55  1  6  0  0  0
 52 50  1  0  0  0  0
 53 52  1  0  0  0  0
 53 51  1  0  0  0  0
 55 54  1  0  0  0  0
M  END
>  <MODEL>
5

>  <REMARK>
 VINA RESULT:      -5.6      5.099     10.864
  Name = 
  19 active torsions:
  status: ('A' for Active; 'I' for Inactive)
    1  A    between atoms: N_2  and  C_46
    2  A    between atoms: N_2  and  C_48
    3  A    between atoms: C_8  and  C_39
    4  A    between atoms: C_9  and  N_33
    5  A    between atoms: C_14  and  C_24
    6  A    between atoms: C_14  and  S_37
    7  A    between atoms: C_16  and  C_18
    8  A    between atoms: C_18  and  N_38
    9  A    between atoms: C_18  and  C_47
   10  A    between atoms: C_20  and  N_32
   11  A    between atoms: C_22  and  C_26
   12  A    between atoms: C_22  and  N_32
   13  A    between atoms: C_23  and  C_46
   14  A    between atoms: C_23  and  C_53
   15  A    between atoms: C_24  and  N_52
   16  A    between atoms: N_28  and  C_43
   17  A    between atoms: C_45  and  C_47
   18  A    between atoms: C_48  and  N_52
   19  A    between atoms: C_49  and  O_51
                            x       y       z     vdW  Elec       q    Type
                         _______ _______ _______ _____ _____    ______ ____

>  <TORSDO>
F 19

$$$$
=
 OpenBabel11042410163D

 55 59  0  0  1  0  0  0  0  0999 V2000
  192.4200  177.1550  142.6900 C   0  0  0  0  0  3  0  0  0  0  0  0
  191.9680  178.0900  141.7610 C   0  0  0  0  0  3  0  0  0  0  0  0
  188.9960  176.0620  142.2750 C   0  0  0  0  0  2  0  0  0  0  0  0
  190.3210  176.7400  142.3800 C   0  0  0  0  0  0  0  0  0  0  0  0
  187.9820  177.0360  141.8490 N   0  0  0  0  0  0  0  0  0  0  0  0
  191.4070  176.3460  143.0670 N   0  0  0  0  0  0  0  0  0  0  0  0
  187.1770  178.9860  140.7350 N   0  0  0  0  0  2  0  0  0  0  0  0
  188.2320  178.0830  141.0990 C   0  0  0  0  0  0  0  0  0  0  0  0
  189.6420  178.3830  140.6040 C   0  0  1  0  0  3  0  0  0  0  0  0
  190.6280  177.7970  141.5790 C   0  0  0  0  0  0  0  0  0  0  0  0
  189.8490  177.7970  139.1980 C   0  0  2  0  0  3  0  0  0  0  0  0
  190.9650  174.5080  137.9700 N   0  0  0  0  0  1  0  0  0  0  0  0
  188.2870  177.2460  138.4490 S   0  0  0  0  0  0  0  0  0  0  0  0
  190.6060  175.9120  137.8670 C   0  0  2  0  0  3  0  0  0  0  0  0
  190.7340  176.5710  139.2220 C   0  0  0  0  0  2  0  0  0  0  0  0
  189.1630  176.0490  137.3920 C   0  0  2  0  0  3  0  0  0  0  0  0
  189.1420  176.5510  135.9570 C   0  0  0  0  0  2  0  0  0  0  0  0
  188.7250  175.4520  134.9950 C   0  0  0  0  0  2  0  0  0  0  0  0
  187.2900  175.2200  135.0790 N   0  0  0  0  0  2  0  0  0  0  0  0
  187.6840  172.7980  136.1350 S   0  0  0  0  0  0  0  0  0  0  0  0
  186.7150  174.0420  135.6600 C   0  0  0  0  0  0  0  0  0  0  0  0
  185.2880  173.9610  135.8270 N   0  0  0  0  0  0  0  0  0  0  0  0
  184.4880  173.2260  134.8540 C   0  0  0  0  0  1  0  0  0  0  0  0
  185.4670  175.5190  137.5680 O   0  0  0  0  0  1  0  0  0  0  0  0
  184.6270  174.5680  136.9850 C   0  0  1  0  0  3  0  0  0  0  0  0
  183.2950  175.2020  136.5920 C   0  0  1  0  0  3  0  0  0  0  0  0
  183.3810  175.7250  135.3010 O   0  0  0  0  0  1  0  0  0  0  0  0
  181.2920  174.6210  138.1900 C   0  0  0  0  0  1  0  0  0  0  0  0
  181.9720  173.9550  136.6470 S   0  0  0  0  0  0  0  0  0  0  0  0
  184.0260  178.9280  142.7310 C   0  0  0  0  0  3  0  0  0  0  0  0
  185.7800  178.8720  141.0520 C   0  0  0  0  0  0  0  0  0  0  0  0
  183.0540  178.6860  141.7470 C   0  0  0  0  0  0  0  0  0  0  0  0
  183.4600  178.5500  140.4110 C   0  0  0  0  0  3  0  0  0  0  0  0
  184.8110  178.6400  140.0680 C   0  0  0  0  0  3  0  0  0  0  0  0
  185.3780  179.0160  142.3840 C   0  0  0  0  0  3  0  0  0  0  0  0
  181.0740  177.3820  141.7760 F   0  0  0  0  0  0  0  0  0  0  0  0
  181.5910  178.6300  142.1150 C   0  0  2  0  0  0  0  0  0  0  0  0
  180.8910  179.6860  141.3760 N   0  0  0  0  0  2  0  0  0  0  0  0
  179.8540  179.1380  140.6950 O   0  0  0  0  0  1  0  0  0  0  0  0
  181.4540  178.8500  143.6300 C   0  0  0  0  0  2  0  0  0  0  0  0
  179.6820  177.3460  144.2060 O   0  0  0  0  0  1  0  0  0  0  0  0
  180.0240  178.7000  144.1420 C   0  0  0  0  0  2  0  0  0  0  0  0
  191.5650  175.3230  145.2730 C   0  0  0  0  0  3  0  0  0  0  0  0
  191.5530  175.2210  143.9430 C   0  0  0  0  0  3  0  0  0  0  0  0
  191.5030  176.5860  145.9330 N   0  0  0  0  0  2  0  0  0  0  0  0
  190.6880  176.7780  147.1220 C   0  0  0  0  0  2  0  0  0  0  0  0
  188.6360  178.3500  148.8480 C   0  0  0  0  0  2  0  0  0  0  0  0
  188.8190  177.1310  145.5320 C   0  0  0  0  0  3  0  0  0  0  0  0
  187.4310  178.7690  144.5410 O   0  0  0  0  0  1  0  0  0  0  0  0
  187.4410  177.7160  145.4550 C   0  0  2  0  0  3  0  0  0  0  0  0
  189.3160  177.2460  146.7490 C   0  0  0  0  0  0  0  0  0  0  0  0
  187.1430  178.2570  146.8600 C   0  0  2  0  0  3  0  0  0  0  0  0
  188.3700  177.9110  147.6220 C   0  0  0  0  0  0  0  0  0  0  0  0
  184.9320  178.2510  146.9050 C   0  0  0  0  0  1  0  0  0  0  0  0
  186.0480  177.5780  147.3970 O   0  0  0  0  0  0  0  0  0  0  0  0
  1  6  1  0  0  0  0
  2  1  2  0  0  0  0
  3  4  1  0  0  0  0
  4  6  1  0  0  0  0
  5  3  1  0  0  0  0
  6 44  1  0  0  0  0
  7 31  1  0  0  0  0
  7  8  1  0  0  0  0
  8  5  2  0  0  0  0
  9  8  1  1  0  0  0
  9 10  1  0  0  0  0
 10  2  1  0  0  0  0
 10  4  2  0  0  0  0
 11 15  1  1  0  0  0
 11  9  1  0  0  0  0
 13 11  1  0  0  0  0
 14 12  1  1  0  0  0
 14 15  1  0  0  0  0
 16 17  1  6  0  0  0
 16 14  1  0  0  0  0
 16 13  1  0  0  0  0
 18 19  1  0  0  0  0
 18 17  1  0  0  0  0
 19 21  1  0  0  0  0
 21 22  1  0  0  0  0
 21 20  2  0  0  0  0
 22 25  1  0  0  0  0
 23 22  1  0  0  0  0
 25 24  1  6  0  0  0
 26 27  1  6  0  0  0
 26 29  1  0  0  0  0
 26 25  1  0  0  0  0
 29 28  1  0  0  0  0
 31 35  2  0  0  0  0
 32 37  1  0  0  0  0
 32 30  2  0  0  0  0
 33 32  1  0  0  0  0
 34 33  2  0  0  0  0
 34 31  1  0  0  0  0
 35 30  1  0  0  0  0
 37 36  1  6  0  0  0
 37 40  1  0  0  0  0
 38 37  1  0  0  0  0
 39 38  1  0  0  0  0
 40 42  1  0  0  0  0
 42 41  1  0  0  0  0
 43 45  1  0  0  0  0
 44 43  2  0  0  0  0
 45 46  1  0  0  0  0
 48 51  2  0  0  0  0
 50 49  1  6  0  0  0
 50 48  1  0  0  0  0
 50 52  1  0  0  0  0
 51 46  1  0  0  0  0
 51 53  1  0  0  0  0
 52 55  1  1  0  0  0
 52 53  1  0  0  0  0
 53 47  2  0  0  0  0
 54 55  1  0  0  0  0
M  END
>  <MODEL>
6

>  <REMARK>
 VINA RESULT:      -5.1      4.732     10.834
  Name = 
  19 active torsions:
  status: ('A' for Active; 'I' for Inactive)
    1  A    between atoms: N_2  and  C_46
    2  A    between atoms: N_2  and  C_48
    3  A    between atoms: C_8  and  C_39
    4  A    between atoms: C_9  and  N_33
    5  A    between atoms: C_14  and  C_24
    6  A    between atoms: C_14  and  S_37
    7  A    between atoms: C_16  and  C_18
    8  A    between atoms: C_18  and  N_38
    9  A    between atoms: C_18  and  C_47
   10  A    between atoms: C_20  and  N_32
   11  A    between atoms: C_22  and  C_26
   12  A    between atoms: C_22  and  N_32
   13  A    between atoms: C_23  and  C_46
   14  A    between atoms: C_23  and  C_53
   15  A    between atoms: C_24  and  N_52
   16  A    between atoms: N_28  and  C_43
   17  A    between atoms: C_45  and  C_47
   18  A    between atoms: C_48  and  N_52
   19  A    between atoms: C_49  and  O_51
                            x       y       z     vdW  Elec       q    Type
                         _______ _______ _______ _____ _____    ______ ____

>  <TORSDO>
F 19

$$$$
=
 OpenBabel11042410163D

 55 59  0  0  1  0  0  0  0  0999 V2000
  189.2690  177.3460  142.4980 C   0  0  0  0  0  3  0  0  0  0  0  0
  188.9320  176.5190  141.4280 C   0  0  0  0  0  3  0  0  0  0  0  0
  192.0920  177.9260  140.3090 C   0  0  0  0  0  2  0  0  0  0  0  0
  190.9120  177.4630  141.0970 C   0  0  0  0  0  0  0  0  0  0  0  0
  192.4710  176.8860  139.3430 N   0  0  0  0  0  0  0  0  0  0  0  0
  190.4800  177.9060  142.2900 N   0  0  0  0  0  0  0  0  0  0  0  0
  192.0940  175.0460  137.8720 N   0  0  0  0  0  2  0  0  0  0  0  0
  191.6320  176.0340  138.8060 C   0  0  0  0  0  0  0  0  0  0  0  0
  190.1500  176.0520  139.1620 C   0  0  1  0  0  3  0  0  0  0  0  0
  189.9950  176.6180  140.5480 C   0  0  0  0  0  0  0  0  0  0  0  0
  189.3670  176.8920  138.1380 C   0  0  2  0  0  3  0  0  0  0  0  0
  189.9280  177.7290  134.5950 N   0  0  0  0  0  1  0  0  0  0  0  0
  187.9730  175.9720  137.4220 S   0  0  0  0  0  0  0  0  0  0  0  0
  189.2910  177.8250  135.8980 C   0  0  2  0  0  3  0  0  0  0  0  0
  190.2270  177.2950  136.9620 C   0  0  0  0  0  2  0  0  0  0  0  0
  188.0120  176.9970  135.9170 C   0  0  2  0  0  3  0  0  0  0  0  0
  186.8030  177.9210  135.9180 C   0  0  0  0  0  2  0  0  0  0  0  0
  185.5510  177.1900  136.3690 C   0  0  0  0  0  2  0  0  0  0  0  0
  184.8120  177.9920  137.3320 N   0  0  0  0  0  2  0  0  0  0  0  0
  183.2300  175.9340  137.9630 S   0  0  0  0  0  0  0  0  0  0  0  0
  183.8260  177.4470  138.2200 C   0  0  0  0  0  0  0  0  0  0  0  0
  183.3680  178.2330  139.3350 N   0  0  0  0  0  0  0  0  0  0  0  0
  183.5130  179.6850  139.3040 C   0  0  0  0  0  1  0  0  0  0  0  0
  183.2270  178.1360  141.6720 O   0  0  0  0  0  1  0  0  0  0  0  0
  182.7170  177.6030  140.4860 C   0  0  1  0  0  3  0  0  0  0  0  0
  181.2020  177.7820  140.4300 C   0  0  1  0  0  3  0  0  0  0  0  0
  180.5720  176.6710  140.9940 O   0  0  0  0  0  1  0  0  0  0  0  0
  179.6640  178.3360  142.4870 C   0  0  0  0  0  1  0  0  0  0  0  0
  180.7160  179.2750  141.3470 S   0  0  0  0  0  0  0  0  0  0  0  0
  195.5310  173.6650  137.4320 C   0  0  0  0  0  3  0  0  0  0  0  0
  193.4280  174.8790  137.3660 C   0  0  0  0  0  0  0  0  0  0  0  0
  196.0490  174.4740  136.4070 C   0  0  0  0  0  0  0  0  0  0  0  0
  195.2370  175.4780  135.8610 C   0  0  0  0  0  3  0  0  0  0  0  0
  193.9400  175.6800  136.3370 C   0  0  0  0  0  3  0  0  0  0  0  0
  194.2320  173.8700  137.9090 C   0  0  0  0  0  3  0  0  0  0  0  0
  198.0780  175.4450  135.6610 F   0  0  0  0  0  0  0  0  0  0  0  0
  197.4360  174.2260  135.8650 C   0  0  2  0  0  0  0  0  0  0  0  0
  197.3110  173.5010  134.5970 N   0  0  0  0  0  2  0  0  0  0  0  0
  197.3770  172.1680  134.8410 O   0  0  0  0  0  1  0  0  0  0  0  0
  198.2250  173.3930  136.8880 C   0  0  0  0  0  2  0  0  0  0  0  0
  198.4560  175.1350  138.5150 O   0  0  0  0  0  1  0  0  0  0  0  0
  199.1790  174.2200  137.7440 C   0  0  0  0  0  2  0  0  0  0  0  0
  191.4390  178.6170  144.4140 C   0  0  0  0  0  3  0  0  0  0  0  0
  191.0810  178.8770  143.1550 C   0  0  0  0  0  3  0  0  0  0  0  0
  191.1810  177.3540  145.0250 N   0  0  0  0  0  2  0  0  0  0  0  0
  191.1170  177.2130  146.4710 C   0  0  0  0  0  2  0  0  0  0  0  0
  188.3840  176.7590  145.0630 C   0  0  0  0  0  2  0  0  0  0  0  0
  189.5030  177.9820  148.1880 C   0  0  0  0  0  3  0  0  0  0  0  0
  187.6010  177.3560  149.4460 O   0  0  0  0  0  1  0  0  0  0  0  0
  188.0330  178.1820  148.4090 C   0  0  2  0  0  3  0  0  0  0  0  0
  189.7430  177.5340  146.9700 C   0  0  0  0  0  0  0  0  0  0  0  0
  187.3580  177.7550  147.1000 C   0  0  2  0  0  3  0  0  0  0  0  0
  188.5040  177.3700  146.2380 C   0  0  0  0  0  0  0  0  0  0  0  0
  185.4700  178.3410  146.1070 C   0  0  0  0  0  1  0  0  0  0  0  0
  186.6940  178.8470  146.5400 O   0  0  0  0  0  0  0  0  0  0  0  0
  2  1  2  0  0  0  0
  3  4  1  0  0  0  0
  4  6  1  0  0  0  0
  5  3  1  0  0  0  0
  6  1  1  0  0  0  0
  6 44  1  0  0  0  0
  7  8  1  0  0  0  0
  8  5  2  0  0  0  0
  9  8  1  6  0  0  0
  9 10  1  0  0  0  0
 10  4  2  0  0  0  0
 10  2  1  0  0  0  0
 11 15  1  6  0  0  0
 11  9  1  0  0  0  0
 13 11  1  0  0  0  0
 14 12  1  6  0  0  0
 14 16  1  0  0  0  0
 14 15  1  0  0  0  0
 16 17  1  1  0  0  0
 16 13  1  0  0  0  0
 17 18  1  0  0  0  0
 18 19  1  0  0  0  0
 19 21  1  0  0  0  0
 20 21  2  0  0  0  0
 21 22  1  0  0  0  0
 22 25  1  0  0  0  0
 23 22  1  0  0  0  0
 25 24  1  1  0  0  0
 26 25  1  0  0  0  0
 26 27  1  1  0  0  0
 26 29  1  0  0  0  0
 29 28  1  0  0  0  0
 30 35  1  0  0  0  0
 31  7  1  0  0  0  0
 31 35  2  0  0  0  0
 32 30  2  0  0  0  0
 33 34  2  0  0  0  0
 33 32  1  0  0  0  0
 34 31  1  0  0  0  0
 37 36  1  6  0  0  0
 37 32  1  0  0  0  0
 37 40  1  0  0  0  0
 38 39  1  0  0  0  0
 38 37  1  0  0  0  0
 40 42  1  0  0  0  0
 42 41  1  0  0  0  0
 43 45  1  0  0  0  0
 44 43  2  0  0  0  0
 45 46  1  0  0  0  0
 46 51  1  0  0  0  0
 47 53  2  0  0  0  0
 48 50  1  0  0  0  0
 50 49  1  1  0  0  0
 51 48  2  0  0  0  0
 52 55  1  6  0  0  0
 52 50  1  0  0  0  0
 53 51  1  0  0  0  0
 53 52  1  0  0  0  0
 54 55  1  0  0  0  0
M  END
>  <MODEL>
7

>  <REMARK>
 VINA RESULT:      -5.0      3.149      7.186
  Name = 
  19 active torsions:
  status: ('A' for Active; 'I' for Inactive)
    1  A    between atoms: N_2  and  C_46
    2  A    between atoms: N_2  and  C_48
    3  A    between atoms: C_8  and  C_39
    4  A    between atoms: C_9  and  N_33
    5  A    between atoms: C_14  and  C_24
    6  A    between atoms: C_14  and  S_37
    7  A    between atoms: C_16  and  C_18
    8  A    between atoms: C_18  and  N_38
    9  A    between atoms: C_18  and  C_47
   10  A    between atoms: C_20  and  N_32
   11  A    between atoms: C_22  and  C_26
   12  A    between atoms: C_22  and  N_32
   13  A    between atoms: C_23  and  C_46
   14  A    between atoms: C_23  and  C_53
   15  A    between atoms: C_24  and  N_52
   16  A    between atoms: N_28  and  C_43
   17  A    between atoms: C_45  and  C_47
   18  A    between atoms: C_48  and  N_52
   19  A    between atoms: C_49  and  O_51
                            x       y       z     vdW  Elec       q    Type
                         _______ _______ _______ _____ _____    ______ ____

>  <TORSDO>
F 19

$$$$
=
 OpenBabel11042410163D

 55 59  0  0  1  0  0  0  0  0999 V2000
  192.7750  177.1240  142.4520 C   0  0  0  0  0  3  0  0  0  0  0  0
  192.4420  177.6300  141.1960 C   0  0  0  0  0  3  0  0  0  0  0  0
  189.2860  176.1800  142.2710 C   0  0  0  0  0  2  0  0  0  0  0  0
  190.6610  176.7560  142.1880 C   0  0  0  0  0  0  0  0  0  0  0  0
  188.3790  176.9610  141.4190 N   0  0  0  0  0  0  0  0  0  0  0  0
  191.6810  176.6050  143.0490 N   0  0  0  0  0  0  0  0  0  0  0  0
  187.7900  178.3400  139.5630 N   0  0  0  0  0  2  0  0  0  0  0  0
  188.7480  177.5960  140.3320 C   0  0  0  0  0  0  0  0  0  0  0  0
  190.1960  177.5780  139.8590 C   0  0  1  0  0  3  0  0  0  0  0  0
  191.0900  177.3750  141.0530 C   0  0  0  0  0  0  0  0  0  0  0  0
  190.4050  176.4600  138.8240 C   0  0  2  0  0  3  0  0  0  0  0  0
  188.8680  175.7160  135.5600 N   0  0  0  0  0  1  0  0  0  0  0  0
  191.8540  176.7640  137.7700 S   0  0  0  0  0  0  0  0  0  0  0  0
  189.6840  175.4560  136.7340 C   0  0  2  0  0  3  0  0  0  0  0  0
  189.2350  176.3450  137.8720 C   0  0  0  0  0  2  0  0  0  0  0  0
  191.1480  175.7540  136.4300 C   0  0  2  0  0  3  0  0  0  0  0  0
  191.9260  174.4500  136.3330 C   0  0  0  0  0  2  0  0  0  0  0  0
  192.7990  174.2380  137.5570 C   0  0  0  0  0  2  0  0  0  0  0  0
  194.1530  174.7070  137.3040 N   0  0  0  0  0  2  0  0  0  0  0  0
  195.8580  174.2110  139.3010 S   0  0  0  0  0  0  0  0  0  0  0  0
  195.3240  174.0130  137.7550 C   0  0  0  0  0  0  0  0  0  0  0  0
  196.0230  173.1420  136.8470 N   0  0  0  0  0  0  0  0  0  0  0  0
  197.4820  173.1440  136.8230 C   0  0  0  0  0  1  0  0  0  0  0  0
  195.7950  172.2970  134.6740 O   0  0  0  0  0  1  0  0  0  0  0  0
  195.2940  172.2180  135.9750 C   0  0  1  0  0  3  0  0  0  0  0  0
  195.3800  170.7850  136.4940 C   0  0  1  0  0  3  0  0  0  0  0  0
  194.7550  170.6930  137.7390 O   0  0  0  0  0  1  0  0  0  0  0  0
  192.9100  170.2360  135.7850 C   0  0  0  0  0  1  0  0  0  0  0  0
  194.5650  169.6510  135.3290 S   0  0  0  0  0  0  0  0  0  0  0  0
  184.1090  178.0990  139.0100 C   0  0  0  0  0  3  0  0  0  0  0  0
  186.3780  178.4540  139.8000 C   0  0  0  0  0  0  0  0  0  0  0  0
  183.5930  178.6250  140.2050 C   0  0  0  0  0  0  0  0  0  0  0  0
  184.4850  179.0540  141.1990 C   0  0  0  0  0  3  0  0  0  0  0  0
  185.8640  178.9710  140.9970 C   0  0  0  0  0  3  0  0  0  0  0  0
  185.4910  178.0190  138.8100 C   0  0  0  0  0  3  0  0  0  0  0  0
  181.5560  179.7380  139.7230 F   0  0  0  0  0  0  0  0  0  0  0  0
  182.1020  178.6750  140.4380 C   0  0  2  0  0  0  0  0  0  0  0  0
  181.8660  178.8560  141.8740 N   0  0  0  0  0  2  0  0  0  0  0  0
  180.5410  179.0580  142.0830 O   0  0  0  0  0  1  0  0  0  0  0  0
  181.4820  177.3550  139.9520 C   0  0  0  0  0  2  0  0  0  0  0  0
  179.6060  177.5940  138.4830 O   0  0  0  0  0  1  0  0  0  0  0  0
  179.9620  177.4060  139.8210 C   0  0  0  0  0  2  0  0  0  0  0  0
  191.4560  176.5310  145.4750 C   0  0  0  0  0  3  0  0  0  0  0  0
  191.6950  175.9250  144.3110 C   0  0  0  0  0  3  0  0  0  0  0  0
  191.2350  177.9380  145.5600 N   0  0  0  0  0  2  0  0  0  0  0  0
  190.0190  178.5450  145.0410 C   0  0  0  0  0  2  0  0  0  0  0  0
  187.0700  177.8290  144.3690 C   0  0  0  0  0  2  0  0  0  0  0  0
  189.0120  178.2830  147.2910 C   0  0  0  0  0  3  0  0  0  0  0  0
  187.7920  176.8120  148.6830 O   0  0  0  0  0  1  0  0  0  0  0  0
  187.7000  178.0020  147.9620 C   0  0  2  0  0  3  0  0  0  0  0  0
  188.8750  178.3140  145.9780 C   0  0  0  0  0  0  0  0  0  0  0  0
  186.6830  177.8330  146.8260 C   0  0  2  0  0  3  0  0  0  0  0  0
  187.4990  178.0570  145.6060 C   0  0  0  0  0  0  0  0  0  0  0  0
  184.5550  178.2500  146.3910 C   0  0  0  0  0  1  0  0  0  0  0  0
  185.7050  178.8240  146.9270 O   0  0  0  0  0  0  0  0  0  0  0  0
  1  6  1  0  0  0  0
  2  1  2  0  0  0  0
  4  3  1  0  0  0  0
  4  6  1  0  0  0  0
  5  3  1  0  0  0  0
  6 44  1  0  0  0  0
  7 31  1  0  0  0  0
  7  8  1  0  0  0  0
  8  5  2  0  0  0  0
  9  8  1  1  0  0  0
  9 10  1  0  0  0  0
 10  2  1  0  0  0  0
 10  4  2  0  0  0  0
 11 15  1  6  0  0  0
 11  9  1  0  0  0  0
 13 11  1  0  0  0  0
 14 12  1  6  0  0  0
 14 15  1  0  0  0  0
 16 17  1  1  0  0  0
 16 14  1  0  0  0  0
 16 13  1  0  0  0  0
 17 18  1  0  0  0  0
 19 18  1  0  0  0  0
 19 21  1  0  0  0  0
 21 20  2  0  0  0  0
 22 21  1  0  0  0  0
 23 22  1  0  0  0  0
 25 24  1  6  0  0  0
 25 26  1  0  0  0  0
 25 22  1  0  0  0  0
 26 27  1  1  0  0  0
 29 28  1  0  0  0  0
 29 26  1  0  0  0  0
 30 32  1  0  0  0  0
 31 34  2  0  0  0  0
 32 37  1  0  0  0  0
 32 33  2  0  0  0  0
 34 33  1  0  0  0  0
 35 30  2  0  0  0  0
 35 31  1  0  0  0  0
 37 36  1  6  0  0  0
 37 38  1  0  0  0  0
 38 39  1  0  0  0  0
 40 37  1  0  0  0  0
 41 42  1  0  0  0  0
 42 40  1  0  0  0  0
 43 45  1  0  0  0  0
 44 43  2  0  0  0  0
 46 45  1  0  0  0  0
 46 51  1  0  0  0  0
 47 53  2  0  0  0  0
 48 50  1  0  0  0  0
 50 49  1  6  0  0  0
 51 48  2  0  0  0  0
 52 55  1  1  0  0  0
 52 50  1  0  0  0  0
 53 51  1  0  0  0  0
 53 52  1  0  0  0  0
 54 55  1  0  0  0  0
M  END
>  <MODEL>
8

>  <REMARK>
 VINA RESULT:      -5.0      4.457     11.875
  Name = 
  19 active torsions:
  status: ('A' for Active; 'I' for Inactive)
    1  A    between atoms: N_2  and  C_46
    2  A    between atoms: N_2  and  C_48
    3  A    between atoms: C_8  and  C_39
    4  A    between atoms: C_9  and  N_33
    5  A    between atoms: C_14  and  C_24
    6  A    between atoms: C_14  and  S_37
    7  A    between atoms: C_16  and  C_18
    8  A    between atoms: C_18  and  N_38
    9  A    between atoms: C_18  and  C_47
   10  A    between atoms: C_20  and  N_32
   11  A    between atoms: C_22  and  C_26
   12  A    between atoms: C_22  and  N_32
   13  A    between atoms: C_23  and  C_46
   14  A    between atoms: C_23  and  C_53
   15  A    between atoms: C_24  and  N_52
   16  A    between atoms: N_28  and  C_43
   17  A    between atoms: C_45  and  C_47
   18  A    between atoms: C_48  and  N_52
   19  A    between atoms: C_49  and  O_51
                            x       y       z     vdW  Elec       q    Type
                         _______ _______ _______ _____ _____    ______ ____

>  <TORSDO>
F 19

$$$$
=
 OpenBabel11042410163D

 55 59  0  0  1  0  0  0  0  0999 V2000
  186.7130  177.8610  136.8780 C   0  0  0  0  0  3  0  0  0  0  0  0
  187.6640  178.3890  137.7490 C   0  0  0  0  0  3  0  0  0  0  0  0
  189.1910  175.2240  136.8170 C   0  0  0  0  0  2  0  0  0  0  0  0
  188.3630  176.4630  136.8990 C   0  0  0  0  0  0  0  0  0  0  0  0
  190.5910  175.5540  137.1150 N   0  0  0  0  0  0  0  0  0  0  0  0
  187.1540  176.6950  136.3590 N   0  0  0  0  0  0  0  0  0  0  0  0
  192.3640  176.7820  138.1340 N   0  0  0  0  0  2  0  0  0  0  0  0
  190.9690  176.5310  137.9040 C   0  0  0  0  0  0  0  0  0  0  0  0
  189.9500  177.4350  138.5870 C   0  0  1  0  0  3  0  0  0  0  0  0
  188.7010  177.4730  137.7470 C   0  0  0  0  0  0  0  0  0  0  0  0
  189.6410  176.9160  140.0010 C   0  0  2  0  0  3  0  0  0  0  0  0
  191.3360  177.2740  143.2530 N   0  0  0  0  0  1  0  0  0  0  0  0
  188.3910  177.9300  140.8450 S   0  0  0  0  0  0  0  0  0  0  0  0
  190.3690  176.7350  142.3100 C   0  0  2  0  0  3  0  0  0  0  0  0
  190.8590  176.9570  140.8970 C   0  0  0  0  0  2  0  0  0  0  0  0
  189.0270  177.4380  142.4780 C   0  0  2  0  0  3  0  0  0  0  0  0
  188.0310  176.4900  143.1290 C   0  0  0  0  0  2  0  0  0  0  0  0
  187.3300  177.1500  144.3040 C   0  0  0  0  0  2  0  0  0  0  0  0
  186.3660  178.1340  143.8340 N   0  0  0  0  0  2  0  0  0  0  0  0
  185.6410  179.0510  146.2360 S   0  0  0  0  0  0  0  0  0  0  0  0
  185.3300  178.6800  144.6620 C   0  0  0  0  0  0  0  0  0  0  0  0
  184.0230  178.9020  144.1030 N   0  0  0  0  0  0  0  0  0  0  0  0
  182.8450  178.7980  144.9580 C   0  0  0  0  0  1  0  0  0  0  0  0
  184.9900  178.9130  141.9690 O   0  0  0  0  0  1  0  0  0  0  0  0
  183.8560  179.2760  142.6960 C   0  0  1  0  0  3  0  0  0  0  0  0
  182.6080  178.6310  142.0970 C   0  0  1  0  0  3  0  0  0  0  0  0
  181.4670  179.3010  142.5430 O   0  0  0  0  0  1  0  0  0  0  0  0
  180.9770  178.1040  140.1070 C   0  0  0  0  0  1  0  0  0  0  0  0
  182.6780  178.7080  140.2820 S   0  0  0  0  0  0  0  0  0  0  0  0
  195.1250  174.2800  137.9790 C   0  0  0  0  0  3  0  0  0  0  0  0
  193.4820  176.0340  137.6310 C   0  0  0  0  0  0  0  0  0  0  0  0
  195.6620  174.5070  136.7010 C   0  0  0  0  0  0  0  0  0  0  0  0
  195.0890  175.4980  135.8910 C   0  0  0  0  0  3  0  0  0  0  0  0
  194.0100  176.2550  136.3520 C   0  0  0  0  0  3  0  0  0  0  0  0
  194.0460  175.0410  138.4390 C   0  0  0  0  0  3  0  0  0  0  0  0
  197.6350  174.4360  135.3890 F   0  0  0  0  0  0  0  0  0  0  0  0
  196.8010  173.6590  136.1890 C   0  0  2  0  0  0  0  0  0  0  0  0
  196.2360  172.5540  135.4080 N   0  0  0  0  0  2  0  0  0  0  0  0
  197.2020  172.0380  134.6070 O   0  0  0  0  0  1  0  0  0  0  0  0
  197.5950  173.1190  137.3900 C   0  0  0  0  0  2  0  0  0  0  0  0
  198.1990  175.1960  138.4170 O   0  0  0  0  0  1  0  0  0  0  0  0
  198.7270  174.0390  137.8360 C   0  0  0  0  0  2  0  0  0  0  0  0
  185.4760  174.9770  135.9440 C   0  0  0  0  0  3  0  0  0  0  0  0
  186.3810  175.8500  135.4970 C   0  0  0  0  0  3  0  0  0  0  0  0
  185.2570  174.7660  137.3380 N   0  0  0  0  0  2  0  0  0  0  0  0
  184.1690  175.4280  138.0400 C   0  0  0  0  0  2  0  0  0  0  0  0
  182.1160  177.2330  136.5610 C   0  0  0  0  0  2  0  0  0  0  0  0
  182.4180  173.8040  137.3760 C   0  0  0  0  0  3  0  0  0  0  0  0
  181.1860  172.9590  135.5430 O   0  0  0  0  0  1  0  0  0  0  0  0
  181.0820  173.7330  136.6980 C   0  0  2  0  0  3  0  0  0  0  0  0
  182.8500  175.0490  137.4430 C   0  0  0  0  0  0  0  0  0  0  0  0
  180.7360  175.1770  136.3150 C   0  0  2  0  0  3  0  0  0  0  0  0
  181.8950  175.9500  136.8290 C   0  0  0  0  0  0  0  0  0  0  0  0
  179.3920  174.6130  137.9790 C   0  0  0  0  0  1  0  0  0  0  0  0
  179.5750  175.5700  136.9830 O   0  0  0  0  0  0  0  0  0  0  0  0
  1  2  2  0  0  0  0
  3  4  1  0  0  0  0
  3  5  1  0  0  0  0
  4 10  2  0  0  0  0
  5  8  2  0  0  0  0
  6  1  1  0  0  0  0
  6  4  1  0  0  0  0
  8  7  1  0  0  0  0
  8  9  1  0  0  0  0
  9 10  1  6  0  0  0
  9 11  1  0  0  0  0
 10  2  1  0  0  0  0
 11 13  1  0  0  0  0
 11 15  1  1  0  0  0
 13 16  1  0  0  0  0
 14 16  1  0  0  0  0
 14 12  1  1  0  0  0
 15 14  1  0  0  0  0
 16 17  1  6  0  0  0
 17 18  1  0  0  0  0
 19 18  1  0  0  0  0
 19 21  1  0  0  0  0
 21 20  2  0  0  0  0
 22 21  1  0  0  0  0
 22 23  1  0  0  0  0
 25 24  1  6  0  0  0
 25 22  1  0  0  0  0
 26 27  1  1  0  0  0
 26 25  1  0  0  0  0
 28 29  1  0  0  0  0
 29 26  1  0  0  0  0
 30 35  1  0  0  0  0
 31  7  1  0  0  0  0
 31 35  2  0  0  0  0
 32 30  2  0  0  0  0
 33 34  2  0  0  0  0
 33 32  1  0  0  0  0
 34 31  1  0  0  0  0
 37 36  1  6  0  0  0
 37 32  1  0  0  0  0
 37 40  1  0  0  0  0
 38 37  1  0  0  0  0
 39 38  1  0  0  0  0
 40 42  1  0  0  0  0
 42 41  1  0  0  0  0
 43 45  1  0  0  0  0
 44 43  2  0  0  0  0
 44  6  1  0  0  0  0
 45 46  1  0  0  0  0
 47 53  2  0  0  0  0
 48 51  2  0  0  0  0
 50 49  1  6  0  0  0
 50 48  1  0  0  0  0
 51 46  1  0  0  0  0
 52 50  1  0  0  0  0
 52 53  1  0  0  0  0
 52 55  1  1  0  0  0
 53 51  1  0  0  0  0
 55 54  1  0  0  0  0
M  END
>  <MODEL>
9

>  <REMARK>
 VINA RESULT:      -4.9      1.585      2.308
  Name = 
  19 active torsions:
  status: ('A' for Active; 'I' for Inactive)
    1  A    between atoms: N_2  and  C_46
    2  A    between atoms: N_2  and  C_48
    3  A    between atoms: C_8  and  C_39
    4  A    between atoms: C_9  and  N_33
    5  A    between atoms: C_14  and  C_24
    6  A    between atoms: C_14  and  S_37
    7  A    between atoms: C_16  and  C_18
    8  A    between atoms: C_18  and  N_38
    9  A    between atoms: C_18  and  C_47
   10  A    between atoms: C_20  and  N_32
   11  A    between atoms: C_22  and  C_26
   12  A    between atoms: C_22  and  N_32
   13  A    between atoms: C_23  and  C_46
   14  A    between atoms: C_23  and  C_53
   15  A    between atoms: C_24  and  N_52
   16  A    between atoms: N_28  and  C_43
   17  A    between atoms: C_45  and  C_47
   18  A    between atoms: C_48  and  N_52
   19  A    between atoms: C_49  and  O_51
                            x       y       z     vdW  Elec       q    Type
                         _______ _______ _______ _____ _____    ______ ____

>  <TORSDO>
F 19

$$$$
