=
 OpenBabel11042411473D

 47 49  0  0  1  0  0  0  0  0999 V2000
  188.6770  177.7890  139.8160 N   0  0  0  0  0  2  0  0  0  0  0  0
  189.5670  177.6740  137.5080 N   0  0  0  0  0  2  0  0  0  0  0  0
  189.0730  179.6980  138.5340 O   0  0  0  0  0  0  0  0  0  0  0  0
  189.1090  178.4430  138.6200 C   0  0  0  0  0  0  0  0  0  0  0  0
  191.9780  175.0030  136.3330 C   0  0  0  0  0  0  0  0  0  0  0  0
  190.8280  175.7880  138.3330 C   0  0  0  0  0  0  0  0  0  0  0  0
  189.6200  176.2210  137.5470 C   0  0  2  0  0  3  0  0  0  0  0  0
  190.7170  175.1550  135.5850 C   0  0  0  0  0  3  0  0  0  0  0  0
  190.8370  175.9080  139.5850 O   0  0  0  0  0  0  0  0  0  0  0  0
  192.0170  175.2740  137.6400 C   0  0  0  0  0  3  0  0  0  0  0  0
  189.6130  175.6750  136.1320 C   0  0  0  0  0  0  0  0  0  0  0  0
  193.1180  174.4740  135.6390 N   0  0  0  0  0  2  0  0  0  0  0  0
  194.7300  176.0710  136.2440 O   0  0  0  0  0  0  0  0  0  0  0  0
  194.4560  174.9860  135.6650 C   0  0  0  0  0  0  0  0  0  0  0  0
  195.5490  174.2160  134.9990 C   0  0  0  0  0  2  0  0  0  0  0  0
  198.3480  172.6660  135.0840 C   0  0  0  0  0  2  0  0  0  0  0  0
  196.1350  173.1700  135.9480 C   0  0  2  0  0  3  0  0  0  0  0  0
  197.6220  173.3750  136.2060 C   0  0  2  0  0  3  0  0  0  0  0  0
  197.4190  171.5460  134.6470 C   0  0  0  0  0  2  0  0  0  0  0  0
  196.0630  171.8050  135.2930 C   0  0  0  0  0  2  0  0  0  0  0  0
  198.0450  174.8050  136.3770 C   0  0  0  0  0  0  0  0  0  0  0  0
  197.7170  175.5090  137.5260 O   0  0  0  0  0  1  0  0  0  0  0  0
  198.7620  175.3510  135.4980 O   0  0  0  0  0  0  0  0  0  0  0  0
  188.4500  175.7050  135.3550 O   0  0  0  0  0  0  0  0  0  0  0  0
  187.4350  174.7140  135.4460 C   0  0  1  0  0  3  0  0  0  0  0  0
  187.7920  173.7570  136.3950 O   0  0  0  0  0  1  0  0  0  0  0  0
  186.1360  175.3650  135.8650 C   0  0  0  0  0  1  0  0  0  0  0  0
  187.9990  178.5070  140.8840 C   0  0  1  0  0  3  0  0  0  0  0  0
  185.5600  178.5690  141.7890 C   0  0  0  0  0  1  0  0  0  0  0  0
  185.6440  178.2300  138.2790 O   0  0  0  0  0  0  0  0  0  0  0  0
  186.0720  178.3620  139.4340 C   0  0  0  0  0  0  0  0  0  0  0  0
  186.5230  178.5000  140.6500 C   0  0  0  0  0  0  0  0  0  0  0  0
  188.3340  177.8850  142.2300 C   0  0  0  0  0  2  0  0  0  0  0  0
  189.9130  178.9470  143.7580 N   0  0  0  0  0  2  0  0  0  0  0  0
  190.2360  178.0730  144.8870 C   0  0  2  0  0  3  0  0  0  0  0  0
  190.3680  176.6530  144.3810 C   0  0  1  0  0  3  0  0  0  0  0  0
  189.8030  178.1050  142.5700 C   0  0  1  0  0  3  0  0  0  0  0  0
  190.4520  176.7790  142.8800 C   0  0  0  0  0  2  0  0  0  0  0  0
  189.6820  177.7530  147.2110 O   0  0  0  0  0  1  0  0  0  0  0  0
  189.1650  178.1590  145.9780 C   0  0  2  0  0  3  0  0  0  0  0  0
  187.9550  177.3100  145.6300 C   0  0  0  0  0  2  0  0  0  0  0  0
  186.8390  178.1230  145.4340 O   0  0  0  0  0  0  0  0  0  0  0  0
  186.3080  178.3040  146.7090 C   0  0  0  0  0  2  0  0  0  0  0  0
  184.4150  178.8590  145.3690 O   0  0  0  0  0  1  0  0  0  0  0  0
  184.7970  178.3950  146.6280 C   0  0  0  0  0  2  0  0  0  0  0  0
  191.6300  176.0160  144.9350 C   0  0  0  0  0  2  0  0  0  0  0  0
  192.1070  175.0640  144.0440 O   0  0  0  0  0  1  0  0  0  0  0  0
  1 28  1  0  0  0  0
  2  4  1  0  0  0  0
  3  4  2  0  0  0  0
  4  1  1  0  0  0  0
  5 10  2  0  0  0  0
  6  9  2  0  0  0  0
  7  2  1  6  0  0  0
  7  6  1  0  0  0  0
  8 11  2  0  0  0  0
  8  5  1  0  0  0  0
 10  6  1  0  0  0  0
 11  7  1  0  0  0  0
 12 14  1  0  0  0  0
 12  5  1  0  0  0  0
 14 13  2  0  0  0  0
 15 14  1  0  0  0  0
 16 18  1  0  0  0  0
 17 15  1  6  0  0  0
 17 18  1  0  0  0  0
 18 21  1  6  0  0  0
 19 16  1  0  0  0  0
 19 20  1  0  0  0  0
 20 17  1  0  0  0  0
 21 22  1  0  0  0  0
 23 21  2  0  0  0  0
 24 25  1  0  0  0  0
 24 11  1  0  0  0  0
 25 27  1  1  0  0  0
 25 26  1  0  0  0  0
 28 33  1  1  0  0  0
 30 31  2  0  0  0  0
 31 32  2  0  0  0  0
 32 28  1  0  0  0  0
 32 29  1  0  0  0  0
 34 35  1  0  0  0  0
 35 40  1  1  0  0  0
 36 35  1  0  0  0  0
 36 46  1  1  0  0  0
 37 33  1  1  0  0  0
 37 38  1  0  0  0  0
 37 34  1  0  0  0  0
 38 36  1  0  0  0  0
 40 39  1  1  0  0  0
 41 40  1  0  0  0  0
 42 41  1  0  0  0  0
 42 43  1  0  0  0  0
 44 45  1  0  0  0  0
 45 43  1  0  0  0  0
 47 46  1  0  0  0  0
M  END
>  <MODEL>
1

>  <REMARK>
 VINA RESULT:      -6.7      0.000      0.000
  Name = 
  17 active torsions:
  status: ('A' for Active; 'I' for Inactive)
    1  A    between atoms: C_1  and  O_24
    2  A    between atoms: N_3  and  C_8
    3  A    between atoms: N_5  and  C_12
    4  A    between atoms: C_6  and  C_37
    5  A    between atoms: N_10  and  C_23
    6  A    between atoms: C_11  and  C_12
    7  A    between atoms: C_11  and  C_32
    8  A    between atoms: C_12  and  C_31
    9  A    between atoms: C_17  and  C_18
   10  A    between atoms: C_17  and  C_19
   11  A    between atoms: C_19  and  O_41
   12  A    between atoms: C_21  and  C_34
   13  A    between atoms: O_24  and  C_44
   14  A    between atoms: C_29  and  C_45
   15  A    between atoms: C_30  and  C_45
   16  A    between atoms: C_35  and  O_41
   17  A    between atoms: C_35  and  C_47
                            x       y       z     vdW  Elec       q    Type
                         _______ _______ _______ _____ _____    ______ ____

>  <TORSDO>
F 17

$$$$
=
 OpenBabel11042411473D

 47 49  0  0  1  0  0  0  0  0999 V2000
  182.6300  177.3830  137.7500 N   0  0  0  0  0  2  0  0  0  0  0  0
  182.5660  176.8510  140.1680 N   0  0  0  0  0  2  0  0  0  0  0  0
  182.2680  175.2180  138.5430 O   0  0  0  0  0  0  0  0  0  0  0  0
  182.4850  176.4310  138.8070 C   0  0  0  0  0  0  0  0  0  0  0  0
  184.8460  178.6870  142.5680 C   0  0  0  0  0  0  0  0  0  0  0  0
  184.2300  178.6000  140.2110 C   0  0  0  0  0  0  0  0  0  0  0  0
  182.8050  178.2390  140.5320 C   0  0  2  0  0  3  0  0  0  0  0  0
  183.4150  178.6140  142.9130 C   0  0  0  0  0  3  0  0  0  0  0  0
  184.5820  178.7630  139.0150 O   0  0  0  0  0  0  0  0  0  0  0  0
  185.2240  178.7130  141.2870 C   0  0  0  0  0  3  0  0  0  0  0  0
  182.4590  178.4470  141.9930 C   0  0  0  0  0  0  0  0  0  0  0  0
  185.7950  178.8230  143.6350 N   0  0  0  0  0  2  0  0  0  0  0  0
  186.5700  176.6100  143.7660 O   0  0  0  0  0  0  0  0  0  0  0  0
  186.6600  177.8050  144.1540 C   0  0  0  0  0  0  0  0  0  0  0  0
  187.6930  178.1670  145.1710 C   0  0  0  0  0  2  0  0  0  0  0  0
  188.2100  178.5950  148.3000 C   0  0  0  0  0  2  0  0  0  0  0  0
  187.6200  177.2320  146.3780 C   0  0  2  0  0  3  0  0  0  0  0  0
  187.0470  177.9100  147.6160 C   0  0  2  0  0  3  0  0  0  0  0  0
  189.4360  177.7820  147.9210 C   0  0  0  0  0  2  0  0  0  0  0  0
  189.0260  176.8420  146.7930 C   0  0  0  0  0  2  0  0  0  0  0  0
  185.8880  178.8260  147.3580 C   0  0  0  0  0  0  0  0  0  0  0  0
  184.6860  178.3300  146.8710 O   0  0  0  0  0  0  0  0  0  0  0  0
  185.9820  180.0470  147.6480 O   0  0  0  0  0  1  0  0  0  0  0  0
  181.1280  178.4650  142.4240 O   0  0  0  0  0  0  0  0  0  0  0  0
  180.6290  179.4220  143.3500 C   0  0  1  0  0  3  0  0  0  0  0  0
  180.1180  180.5230  142.6630 O   0  0  0  0  0  1  0  0  0  0  0  0
  179.5240  178.7960  144.1700 C   0  0  0  0  0  1  0  0  0  0  0  0
  182.3360  177.0490  136.3650 C   0  0  1  0  0  3  0  0  0  0  0  0
  180.1220  177.2260  135.0110 C   0  0  0  0  0  1  0  0  0  0  0  0
  181.0220  180.3160  136.4530 O   0  0  0  0  0  0  0  0  0  0  0  0
  181.0920  179.1110  136.1760 C   0  0  0  0  0  0  0  0  0  0  0  0
  181.1650  177.8420  135.8840 C   0  0  0  0  0  0  0  0  0  0  0  0
  183.5540  177.3030  135.4940 C   0  0  0  0  0  2  0  0  0  0  0  0
  185.3650  175.9340  134.5980 N   0  0  0  0  0  2  0  0  0  0  0  0
  185.7890  174.9120  135.5550 C   0  0  2  0  0  3  0  0  0  0  0  0
  184.5630  174.3530  136.2450 C   0  0  1  0  0  3  0  0  0  0  0  0
  183.9130  176.0540  134.6980 C   0  0  1  0  0  3  0  0  0  0  0  0
  183.3960  174.8320  135.4180 C   0  0  0  0  0  2  0  0  0  0  0  0
  186.2900  176.6890  137.1050 O   0  0  0  0  0  1  0  0  0  0  0  0
  186.7690  175.4860  136.5820 C   0  0  2  0  0  3  0  0  0  0  0  0
  188.1400  175.7110  135.9670 C   0  0  0  0  0  2  0  0  0  0  0  0
  188.7510  176.8210  136.5480 O   0  0  0  0  0  0  0  0  0  0  0  0
  190.1090  176.5120  136.5570 C   0  0  0  0  0  2  0  0  0  0  0  0
  190.3410  175.8620  138.8390 O   0  0  0  0  0  1  0  0  0  0  0  0
  190.7010  176.8400  137.9130 C   0  0  0  0  0  2  0  0  0  0  0  0
  184.6180  172.8360  136.2610 C   0  0  0  0  0  2  0  0  0  0  0  0
  183.9230  172.3500  137.3610 O   0  0  0  0  0  1  0  0  0  0  0  0
  1  4  1  0  0  0  0
  3  4  2  0  0  0  0
  4  2  1  0  0  0  0
  5  8  1  0  0  0  0
  5 12  1  0  0  0  0
  6  7  1  0  0  0  0
  6 10  1  0  0  0  0
  7  2  1  1  0  0  0
  7 11  1  0  0  0  0
  9  6  2  0  0  0  0
 10  5  2  0  0  0  0
 11 24  1  0  0  0  0
 11  8  2  0  0  0  0
 12 14  1  0  0  0  0
 13 14  2  0  0  0  0
 14 15  1  0  0  0  0
 17 15  1  6  0  0  0
 17 20  1  0  0  0  0
 17 18  1  0  0  0  0
 18 21  1  6  0  0  0
 18 16  1  0  0  0  0
 19 16  1  0  0  0  0
 20 19  1  0  0  0  0
 21 23  1  0  0  0  0
 22 21  2  0  0  0  0
 24 25  1  0  0  0  0
 25 27  1  6  0  0  0
 26 25  1  0  0  0  0
 28 33  1  6  0  0  0
 28  1  1  0  0  0  0
 29 32  1  0  0  0  0
 31 30  2  0  0  0  0
 32 31  2  0  0  0  0
 32 28  1  0  0  0  0
 34 37  1  0  0  0  0
 34 35  1  0  0  0  0
 35 36  1  0  0  0  0
 35 40  1  1  0  0  0
 36 46  1  6  0  0  0
 37 38  1  0  0  0  0
 37 33  1  1  0  0  0
 38 36  1  0  0  0  0
 40 39  1  6  0  0  0
 41 42  1  0  0  0  0
 41 40  1  0  0  0  0
 42 43  1  0  0  0  0
 43 45  1  0  0  0  0
 45 44  1  0  0  0  0
 46 47  1  0  0  0  0
M  END
>  <MODEL>
2

>  <REMARK>
 VINA RESULT:      -6.7      4.474     11.136
  Name = 
  17 active torsions:
  status: ('A' for Active; 'I' for Inactive)
    1  A    between atoms: C_1  and  O_24
    2  A    between atoms: N_3  and  C_8
    3  A    between atoms: N_5  and  C_12
    4  A    between atoms: C_6  and  C_37
    5  A    between atoms: N_10  and  C_23
    6  A    between atoms: C_11  and  C_12
    7  A    between atoms: C_11  and  C_32
    8  A    between atoms: C_12  and  C_31
    9  A    between atoms: C_17  and  C_18
   10  A    between atoms: C_17  and  C_19
   11  A    between atoms: C_19  and  O_41
   12  A    between atoms: C_21  and  C_34
   13  A    between atoms: O_24  and  C_44
   14  A    between atoms: C_29  and  C_45
   15  A    between atoms: C_30  and  C_45
   16  A    between atoms: C_35  and  O_41
   17  A    between atoms: C_35  and  C_47
                            x       y       z     vdW  Elec       q    Type
                         _______ _______ _______ _____ _____    ______ ____

>  <TORSDO>
F 17

$$$$
=
 OpenBabel11042411473D

 47 49  0  0  1  0  0  0  0  0999 V2000
  181.8580  178.6500  138.9870 N   0  0  0  0  0  2  0  0  0  0  0  0
  182.6500  177.5260  141.0470 N   0  0  0  0  0  2  0  0  0  0  0  0
  181.5410  176.3690  139.3660 O   0  0  0  0  0  0  0  0  0  0  0  0
  182.0010  177.4670  139.7780 C   0  0  0  0  0  0  0  0  0  0  0  0
  185.5070  178.4970  143.3330 C   0  0  0  0  0  0  0  0  0  0  0  0
  184.6120  178.9320  141.1080 C   0  0  0  0  0  0  0  0  0  0  0  0
  183.1910  178.7680  141.5770 C   0  0  2  0  0  3  0  0  0  0  0  0
  184.1390  178.6080  143.8710 C   0  0  0  0  0  3  0  0  0  0  0  0
  184.8450  179.2410  139.9120 O   0  0  0  0  0  0  0  0  0  0  0  0
  185.7290  178.6830  142.0280 C   0  0  0  0  0  3  0  0  0  0  0  0
  183.0670  178.7710  143.0880 C   0  0  0  0  0  0  0  0  0  0  0  0
  186.5840  178.2800  144.2560 N   0  0  0  0  0  2  0  0  0  0  0  0
  187.4790  176.2990  143.3670 O   0  0  0  0  0  0  0  0  0  0  0  0
  187.5610  177.2320  144.2090 C   0  0  0  0  0  0  0  0  0  0  0  0
  188.7020  177.2500  145.1730 C   0  0  0  0  0  2  0  0  0  0  0  0
  191.6570  178.4780  145.0990 C   0  0  0  0  0  2  0  0  0  0  0  0
  189.9980  176.8120  144.4900 C   0  0  2  0  0  3  0  0  0  0  0  0
  191.2300  177.0490  145.3540 C   0  0  2  0  0  3  0  0  0  0  0  0
  191.1860  178.7940  143.6900 C   0  0  0  0  0  2  0  0  0  0  0  0
  190.2370  177.6780  143.2690 C   0  0  0  0  0  2  0  0  0  0  0  0
  191.0520  176.7340  146.8110 C   0  0  0  0  0  0  0  0  0  0  0  0
  190.3180  177.5740  147.6350 O   0  0  0  0  0  1  0  0  0  0  0  0
  191.5180  175.6610  147.2760 O   0  0  0  0  0  0  0  0  0  0  0  0
  181.8250  178.9380  143.7090 O   0  0  0  0  0  0  0  0  0  0  0  0
  180.5930  178.6380  143.0660 C   0  0  1  0  0  3  0  0  0  0  0  0
  179.8130  177.8300  143.8930 O   0  0  0  0  0  1  0  0  0  0  0  0
  179.8480  179.9230  142.7870 C   0  0  0  0  0  1  0  0  0  0  0  0
  181.0170  178.6880  137.8010 C   0  0  1  0  0  3  0  0  0  0  0  0
  178.9500  179.9790  136.8900 C   0  0  0  0  0  1  0  0  0  0  0  0
  180.2590  181.4910  139.7960 O   0  0  0  0  0  0  0  0  0  0  0  0
  180.1440  180.6660  138.8780 C   0  0  0  0  0  0  0  0  0  0  0  0
  180.0250  179.7990  137.9110 C   0  0  0  0  0  0  0  0  0  0  0  0
  181.8730  178.8500  136.5560 C   0  0  0  0  0  2  0  0  0  0  0  0
  182.5400  177.3960  134.7130 N   0  0  0  0  0  2  0  0  0  0  0  0
  182.7680  176.0230  135.1690 C   0  0  2  0  0  3  0  0  0  0  0  0
  181.7110  175.6680  136.1920 C   0  0  1  0  0  3  0  0  0  0  0  0
  181.3920  177.9170  135.4510 C   0  0  1  0  0  3  0  0  0  0  0  0
  180.6630  176.7460  136.0630 C   0  0  0  0  0  2  0  0  0  0  0  0
  184.0990  175.6320  137.1400 O   0  0  0  0  0  1  0  0  0  0  0  0
  184.1700  175.8640  135.7650 C   0  0  2  0  0  3  0  0  0  0  0  0
  185.0230  177.0910  135.4990 C   0  0  0  0  0  2  0  0  0  0  0  0
  186.3000  176.9120  136.0310 O   0  0  0  0  0  0  0  0  0  0  0  0
  186.4660  177.9770  136.9140 C   0  0  0  0  0  2  0  0  0  0  0  0
  187.8980  178.5780  138.7230 O   0  0  0  0  0  1  0  0  0  0  0  0
  187.8760  177.9700  137.4680 C   0  0  0  0  0  2  0  0  0  0  0  0
  181.1170  174.3060  135.8790 C   0  0  0  0  0  2  0  0  0  0  0  0
  181.0850  173.5300  137.0300 O   0  0  0  0  0  1  0  0  0  0  0  0
  1  4  1  0  0  0  0
  3  4  2  0  0  0  0
  4  2  1  0  0  0  0
  5  8  1  0  0  0  0
  5 12  1  0  0  0  0
  6  7  1  0  0  0  0
  6 10  1  0  0  0  0
  7  2  1  1  0  0  0
  7 11  1  0  0  0  0
  9  6  2  0  0  0  0
 10  5  2  0  0  0  0
 11 24  1  0  0  0  0
 11  8  2  0  0  0  0
 13 14  2  0  0  0  0
 14 12  1  0  0  0  0
 14 15  1  0  0  0  0
 16 18  1  0  0  0  0
 17 15  1  1  0  0  0
 17 18  1  0  0  0  0
 18 21  1  1  0  0  0
 19 16  1  0  0  0  0
 20 19  1  0  0  0  0
 20 17  1  0  0  0  0
 21 23  2  0  0  0  0
 21 22  1  0  0  0  0
 25 27  1  1  0  0  0
 25 24  1  0  0  0  0
 25 26  1  0  0  0  0
 28 33  1  6  0  0  0
 28 32  1  0  0  0  0
 28  1  1  0  0  0  0
 29 32  1  0  0  0  0
 31 30  2  0  0  0  0
 32 31  2  0  0  0  0
 34 35  1  0  0  0  0
 34 37  1  0  0  0  0
 35 40  1  1  0  0  0
 35 36  1  0  0  0  0
 36 46  1  6  0  0  0
 37 38  1  0  0  0  0
 37 33  1  1  0  0  0
 38 36  1  0  0  0  0
 40 39  1  1  0  0  0
 41 40  1  0  0  0  0
 41 42  1  0  0  0  0
 42 43  1  0  0  0  0
 43 45  1  0  0  0  0
 45 44  1  0  0  0  0
 46 47  1  0  0  0  0
M  END
>  <MODEL>
3

>  <REMARK>
 VINA RESULT:      -6.6      5.847     10.507
  Name = 
  17 active torsions:
  status: ('A' for Active; 'I' for Inactive)
    1  A    between atoms: C_1  and  O_24
    2  A    between atoms: N_3  and  C_8
    3  A    between atoms: N_5  and  C_12
    4  A    between atoms: C_6  and  C_37
    5  A    between atoms: N_10  and  C_23
    6  A    between atoms: C_11  and  C_12
    7  A    between atoms: C_11  and  C_32
    8  A    between atoms: C_12  and  C_31
    9  A    between atoms: C_17  and  C_18
   10  A    between atoms: C_17  and  C_19
   11  A    between atoms: C_19  and  O_41
   12  A    between atoms: C_21  and  C_34
   13  A    between atoms: O_24  and  C_44
   14  A    between atoms: C_29  and  C_45
   15  A    between atoms: C_30  and  C_45
   16  A    between atoms: C_35  and  O_41
   17  A    between atoms: C_35  and  C_47
                            x       y       z     vdW  Elec       q    Type
                         _______ _______ _______ _____ _____    ______ ____

>  <TORSDO>
F 17

$$$$
=
 OpenBabel11042411473D

 47 49  0  0  1  0  0  0  0  0999 V2000
  189.6420  176.1100  138.1090 N   0  0  0  0  0  2  0  0  0  0  0  0
  188.7470  174.9520  136.1110 N   0  0  0  0  0  2  0  0  0  0  0  0
  190.2530  173.9270  137.5520 O   0  0  0  0  0  0  0  0  0  0  0  0
  189.5730  174.9510  137.2740 C   0  0  0  0  0  0  0  0  0  0  0  0
  186.8400  177.6590  137.9460 C   0  0  0  0  0  0  0  0  0  0  0  0
  188.5920  177.3560  136.2790 C   0  0  0  0  0  0  0  0  0  0  0  0
  187.9480  176.1090  135.7360 C   0  0  2  0  0  3  0  0  0  0  0  0
  186.0510  176.6180  137.2620 C   0  0  0  0  0  3  0  0  0  0  0  0
  189.6410  177.8010  135.7490 O   0  0  0  0  0  0  0  0  0  0  0  0
  188.0280  178.0260  137.4580 C   0  0  0  0  0  3  0  0  0  0  0  0
  186.5240  175.9220  136.2230 C   0  0  0  0  0  0  0  0  0  0  0  0
  186.2550  178.3170  139.0800 N   0  0  0  0  0  2  0  0  0  0  0  0
  184.0410  178.5250  138.3240 O   0  0  0  0  0  0  0  0  0  0  0  0
  184.8780  178.6720  139.2540 C   0  0  0  0  0  0  0  0  0  0  0  0
  184.4230  179.2200  140.5670 C   0  0  0  0  0  2  0  0  0  0  0  0
  182.5720  179.0900  143.1750 C   0  0  0  0  0  2  0  0  0  0  0  0
  184.0520  178.0910  141.5290 C   0  0  2  0  0  3  0  0  0  0  0  0
  182.6000  178.1570  141.9850 C   0  0  2  0  0  3  0  0  0  0  0  0
  183.9510  178.9840  143.8040 C   0  0  0  0  0  2  0  0  0  0  0  0
  184.8450  178.2470  142.8130 C   0  0  0  0  0  2  0  0  0  0  0  0
  181.6160  178.5290  140.9150 C   0  0  0  0  0  0  0  0  0  0  0  0
  181.2750  177.6250  139.9190 O   0  0  0  0  0  0  0  0  0  0  0  0
  181.0430  179.6480  140.9590 O   0  0  0  0  0  1  0  0  0  0  0  0
  185.6640  175.0100  135.6030 O   0  0  0  0  0  0  0  0  0  0  0  0
  185.0820  173.9080  136.2880 C   0  0  1  0  0  3  0  0  0  0  0  0
  183.8790  173.5540  135.6780 O   0  0  0  0  0  1  0  0  0  0  0  0
  186.0270  172.7290  136.2350 C   0  0  0  0  0  1  0  0  0  0  0  0
  190.6290  176.2380  139.1690 C   0  0  1  0  0  3  0  0  0  0  0  0
  192.2220  176.5170  137.1320 C   0  0  0  0  0  1  0  0  0  0  0  0
  193.8050  177.3970  140.1590 O   0  0  0  0  0  0  0  0  0  0  0  0
  192.9010  177.0260  139.3970 C   0  0  0  0  0  0  0  0  0  0  0  0
  191.9500  176.6360  138.5950 C   0  0  0  0  0  0  0  0  0  0  0  0
  190.1620  177.2510  140.2010 C   0  0  0  0  0  2  0  0  0  0  0  0
  189.8630  175.8470  142.1750 N   0  0  0  0  0  2  0  0  0  0  0  0
  189.8650  176.6420  143.4040 C   0  0  2  0  0  3  0  0  0  0  0  0
  189.1080  177.9280  143.1520 C   0  0  1  0  0  3  0  0  0  0  0  0
  189.1570  176.6180  141.1550 C   0  0  1  0  0  3  0  0  0  0  0  0
  188.3740  177.7030  141.8540 C   0  0  0  0  0  2  0  0  0  0  0  0
  192.2250  176.3150  143.0360 O   0  0  0  0  0  1  0  0  0  0  0  0
  191.2940  176.9410  143.8680 C   0  0  2  0  0  3  0  0  0  0  0  0
  191.5120  176.4920  145.3020 C   0  0  0  0  0  2  0  0  0  0  0  0
  190.8850  177.3750  146.1810 O   0  0  0  0  0  0  0  0  0  0  0  0
  191.0040  176.7720  147.4310 C   0  0  0  0  0  2  0  0  0  0  0  0
  193.0080  176.1200  148.5460 O   0  0  0  0  0  1  0  0  0  0  0  0
  192.2030  175.8440  147.4420 C   0  0  0  0  0  2  0  0  0  0  0  0
  188.1260  178.1850  144.2820 C   0  0  0  0  0  2  0  0  0  0  0  0
  187.7320  176.9790  144.8470 O   0  0  0  0  0  1  0  0  0  0  0  0
  1 28  1  0  0  0  0
  2  4  1  0  0  0  0
  4  3  2  0  0  0  0
  4  1  1  0  0  0  0
  5 12  1  0  0  0  0
  6 10  1  0  0  0  0
  7  2  1  1  0  0  0
  7 11  1  0  0  0  0
  7  6  1  0  0  0  0
  8  5  1  0  0  0  0
  9  6  2  0  0  0  0
 10  5  2  0  0  0  0
 11  8  2  0  0  0  0
 12 14  1  0  0  0  0
 13 14  2  0  0  0  0
 14 15  1  0  0  0  0
 16 19  1  0  0  0  0
 17 15  1  6  0  0  0
 17 18  1  0  0  0  0
 17 20  1  0  0  0  0
 18 21  1  6  0  0  0
 18 16  1  0  0  0  0
 20 19  1  0  0  0  0
 21 23  1  0  0  0  0
 22 21  2  0  0  0  0
 24 11  1  0  0  0  0
 24 25  1  0  0  0  0
 25 27  1  6  0  0  0
 26 25  1  0  0  0  0
 28 33  1  1  0  0  0
 29 32  1  0  0  0  0
 31 30  2  0  0  0  0
 32 28  1  0  0  0  0
 32 31  2  0  0  0  0
 34 35  1  0  0  0  0
 35 40  1  6  0  0  0
 36 35  1  0  0  0  0
 36 46  1  1  0  0  0
 37 33  1  6  0  0  0
 37 38  1  0  0  0  0
 37 34  1  0  0  0  0
 38 36  1  0  0  0  0
 40 39  1  6  0  0  0
 40 41  1  0  0  0  0
 41 42  1  0  0  0  0
 42 43  1  0  0  0  0
 43 45  1  0  0  0  0
 45 44  1  0  0  0  0
 46 47  1  0  0  0  0
M  END
>  <MODEL>
4

>  <REMARK>
 VINA RESULT:      -6.3      3.402      8.792
  Name = 
  17 active torsions:
  status: ('A' for Active; 'I' for Inactive)
    1  A    between atoms: C_1  and  O_24
    2  A    between atoms: N_3  and  C_8
    3  A    between atoms: N_5  and  C_12
    4  A    between atoms: C_6  and  C_37
    5  A    between atoms: N_10  and  C_23
    6  A    between atoms: C_11  and  C_12
    7  A    between atoms: C_11  and  C_32
    8  A    between atoms: C_12  and  C_31
    9  A    between atoms: C_17  and  C_18
   10  A    between atoms: C_17  and  C_19
   11  A    between atoms: C_19  and  O_41
   12  A    between atoms: C_21  and  C_34
   13  A    between atoms: O_24  and  C_44
   14  A    between atoms: C_29  and  C_45
   15  A    between atoms: C_30  and  C_45
   16  A    between atoms: C_35  and  O_41
   17  A    between atoms: C_35  and  C_47
                            x       y       z     vdW  Elec       q    Type
                         _______ _______ _______ _____ _____    ______ ____

>  <TORSDO>
F 17

$$$$
=
 OpenBabel11042411473D

 47 49  0  0  1  0  0  0  0  0999 V2000
  183.0530  177.2290  137.3940 N   0  0  0  0  0  2  0  0  0  0  0  0
  182.7050  176.8760  139.8210 N   0  0  0  0  0  2  0  0  0  0  0  0
  182.3850  175.1730  138.2740 O   0  0  0  0  0  0  0  0  0  0  0  0
  182.7070  176.3720  138.4860 C   0  0  0  0  0  0  0  0  0  0  0  0
  185.0140  178.6270  142.2570 C   0  0  0  0  0  0  0  0  0  0  0  0
  184.5280  178.4580  139.8750 C   0  0  0  0  0  0  0  0  0  0  0  0
  183.0580  178.2540  140.1230 C   0  0  2  0  0  3  0  0  0  0  0  0
  183.5650  178.7110  142.5150 C   0  0  0  0  0  3  0  0  0  0  0  0
  184.9620  178.5160  138.6960 O   0  0  0  0  0  0  0  0  0  0  0  0
  185.4650  178.5400  141.0030 C   0  0  0  0  0  3  0  0  0  0  0  0
  182.6510  178.5810  141.5470 C   0  0  0  0  0  0  0  0  0  0  0  0
  185.9090  178.7350  143.3730 N   0  0  0  0  0  2  0  0  0  0  0  0
  184.5030  177.9640  145.0900 O   0  0  0  0  0  0  0  0  0  0  0  0
  185.6470  178.3490  144.7290 C   0  0  0  0  0  0  0  0  0  0  0  0
  186.7530  178.3970  145.7310 C   0  0  0  0  0  2  0  0  0  0  0  0
  189.8840  177.7590  145.9220 C   0  0  0  0  0  2  0  0  0  0  0  0
  187.5570  177.0960  145.7180 C   0  0  2  0  0  3  0  0  0  0  0  0
  188.7390  177.1230  146.6780 C   0  0  2  0  0  3  0  0  0  0  0  0
  189.6230  177.4490  144.4570 C   0  0  0  0  0  2  0  0  0  0  0  0
  188.1970  176.9180  144.3550 C   0  0  0  0  0  2  0  0  0  0  0  0
  188.4660  177.7750  148.0010 C   0  0  0  0  0  0  0  0  0  0  0  0
  189.1060  178.9540  148.3570 O   0  0  0  0  0  0  0  0  0  0  0  0
  187.5980  177.2840  148.7690 O   0  0  0  0  0  1  0  0  0  0  0  0
  181.3060  178.7510  141.8920 O   0  0  0  0  0  0  0  0  0  0  0  0
  180.2790  178.9370  140.9270 C   0  0  1  0  0  3  0  0  0  0  0  0
  179.0970  178.3480  141.3740 O   0  0  0  0  0  1  0  0  0  0  0  0
  180.0460  180.4180  140.7220 C   0  0  0  0  0  1  0  0  0  0  0  0
  182.8550  176.8310  136.0090 C   0  0  1  0  0  3  0  0  0  0  0  0
  181.3190  178.8630  135.4840 C   0  0  0  0  0  1  0  0  0  0  0  0
  179.7310  175.8020  134.7470 O   0  0  0  0  0  0  0  0  0  0  0  0
  180.6270  176.5760  135.1100 C   0  0  0  0  0  0  0  0  0  0  0  0
  181.5700  177.3920  135.4930 C   0  0  0  0  0  0  0  0  0  0  0  0
  184.0260  177.2920  135.1580 C   0  0  0  0  0  2  0  0  0  0  0  0
  186.2860  176.4880  134.7120 N   0  0  0  0  0  2  0  0  0  0  0  0
  186.9060  175.9350  135.9170 C   0  0  2  0  0  3  0  0  0  0  0  0
  185.8630  175.1550  136.6870 C   0  0  1  0  0  3  0  0  0  0  0  0
  184.8770  176.1040  134.7290 C   0  0  1  0  0  3  0  0  0  0  0  0
  184.7140  174.9820  135.7250 C   0  0  0  0  0  2  0  0  0  0  0  0
  187.5380  178.2540  136.0970 O   0  0  0  0  0  1  0  0  0  0  0  0
  187.5030  177.0430  136.7900 C   0  0  2  0  0  3  0  0  0  0  0  0
  188.9040  176.6820  137.2540 C   0  0  0  0  0  2  0  0  0  0  0  0
  189.5720  177.8240  137.6950 O   0  0  0  0  0  0  0  0  0  0  0  0
  189.5130  177.7510  139.0860 C   0  0  0  0  0  2  0  0  0  0  0  0
  190.8890  176.9600  140.8650 O   0  0  0  0  0  1  0  0  0  0  0  0
  190.4360  176.6560  139.5820 C   0  0  0  0  0  2  0  0  0  0  0  0
  186.4200  173.8050  137.1010 C   0  0  0  0  0  2  0  0  0  0  0  0
  185.5730  173.2080  138.0260 O   0  0  0  0  0  1  0  0  0  0  0  0
  1  4  1  0  0  0  0
  3  4  2  0  0  0  0
  4  2  1  0  0  0  0
  5  8  1  0  0  0  0
  5 12  1  0  0  0  0
  6  7  1  0  0  0  0
  6 10  1  0  0  0  0
  7  2  1  1  0  0  0
  7 11  1  0  0  0  0
  9  6  2  0  0  0  0
 10  5  2  0  0  0  0
 11 24  1  0  0  0  0
 11  8  2  0  0  0  0
 12 14  1  0  0  0  0
 14 13  2  0  0  0  0
 14 15  1  0  0  0  0
 16 18  1  0  0  0  0
 17 15  1  6  0  0  0
 17 18  1  0  0  0  0
 18 21  1  1  0  0  0
 19 16  1  0  0  0  0
 20 19  1  0  0  0  0
 20 17  1  0  0  0  0
 21 22  2  0  0  0  0
 21 23  1  0  0  0  0
 25 27  1  1  0  0  0
 25 26  1  0  0  0  0
 25 24  1  0  0  0  0
 28 33  1  6  0  0  0
 28  1  1  0  0  0  0
 29 32  1  0  0  0  0
 30 31  2  0  0  0  0
 31 32  2  0  0  0  0
 32 28  1  0  0  0  0
 34 37  1  0  0  0  0
 34 35  1  0  0  0  0
 35 36  1  0  0  0  0
 35 40  1  1  0  0  0
 36 46  1  6  0  0  0
 37 33  1  1  0  0  0
 37 38  1  0  0  0  0
 38 36  1  0  0  0  0
 40 39  1  6  0  0  0
 40 41  1  0  0  0  0
 41 42  1  0  0  0  0
 42 43  1  0  0  0  0
 43 45  1  0  0  0  0
 45 44  1  0  0  0  0
 46 47  1  0  0  0  0
M  END
>  <MODEL>
5

>  <REMARK>
 VINA RESULT:      -6.1      4.572     10.380
  Name = 
  17 active torsions:
  status: ('A' for Active; 'I' for Inactive)
    1  A    between atoms: C_1  and  O_24
    2  A    between atoms: N_3  and  C_8
    3  A    between atoms: N_5  and  C_12
    4  A    between atoms: C_6  and  C_37
    5  A    between atoms: N_10  and  C_23
    6  A    between atoms: C_11  and  C_12
    7  A    between atoms: C_11  and  C_32
    8  A    between atoms: C_12  and  C_31
    9  A    between atoms: C_17  and  C_18
   10  A    between atoms: C_17  and  C_19
   11  A    between atoms: C_19  and  O_41
   12  A    between atoms: C_21  and  C_34
   13  A    between atoms: O_24  and  C_44
   14  A    between atoms: C_29  and  C_45
   15  A    between atoms: C_30  and  C_45
   16  A    between atoms: C_35  and  O_41
   17  A    between atoms: C_35  and  C_47
                            x       y       z     vdW  Elec       q    Type
                         _______ _______ _______ _____ _____    ______ ____

>  <TORSDO>
F 17

$$$$
=
 OpenBabel11042411473D

 47 49  0  0  1  0  0  0  0  0999 V2000
  182.3470  178.9800  139.0780 N   0  0  0  0  0  2  0  0  0  0  0  0
  184.6440  179.7760  139.5530 N   0  0  0  0  0  2  0  0  0  0  0  0
  183.0020  181.1920  138.7240 O   0  0  0  0  0  0  0  0  0  0  0  0
  183.3140  180.0340  139.1070 C   0  0  0  0  0  0  0  0  0  0  0  0
  187.1060  178.4050  142.0810 C   0  0  0  0  0  0  0  0  0  0  0  0
  184.7510  178.3000  141.4610 C   0  0  0  0  0  0  0  0  0  0  0  0
  185.0640  178.4550  139.9970 C   0  0  2  0  0  3  0  0  0  0  0  0
  187.4560  178.2770  140.6550 C   0  0  0  0  0  3  0  0  0  0  0  0
  183.5610  178.1410  141.8340 O   0  0  0  0  0  0  0  0  0  0  0  0
  185.8250  178.3830  142.4600 C   0  0  0  0  0  3  0  0  0  0  0  0
  186.5340  178.2590  139.6860 C   0  0  0  0  0  0  0  0  0  0  0  0
  188.1730  178.4580  143.0390 N   0  0  0  0  0  2  0  0  0  0  0  0
  187.1650  177.3120  144.8240 O   0  0  0  0  0  0  0  0  0  0  0  0
  188.1900  177.8650  144.3440 C   0  0  0  0  0  0  0  0  0  0  0  0
  189.4480  177.8970  145.1470 C   0  0  0  0  0  2  0  0  0  0  0  0
  191.3080  176.9830  147.5880 C   0  0  0  0  0  2  0  0  0  0  0  0
  189.6990  176.5470  145.8210 C   0  0  2  0  0  3  0  0  0  0  0  0
  189.8520  176.6610  147.3330 C   0  0  2  0  0  3  0  0  0  0  0  0
  192.0650  176.3810  146.4160 C   0  0  0  0  0  2  0  0  0  0  0  0
  191.0350  175.9980  145.3590 C   0  0  0  0  0  2  0  0  0  0  0  0
  188.9070  177.6210  147.9950 C   0  0  0  0  0  0  0  0  0  0  0  0
  187.5440  177.3640  148.0300 O   0  0  0  0  0  0  0  0  0  0  0  0
  189.3620  178.6360  148.5830 O   0  0  0  0  0  1  0  0  0  0  0  0
  186.9730  178.0590  138.3730 O   0  0  0  0  0  0  0  0  0  0  0  0
  188.3200  177.7390  138.0480 C   0  0  1  0  0  3  0  0  0  0  0  0
  188.4170  176.3900  137.7080 O   0  0  0  0  0  1  0  0  0  0  0  0
  188.7640  178.5780  136.8710 C   0  0  0  0  0  1  0  0  0  0  0  0
  181.0550  179.1380  138.4290 C   0  0  1  0  0  3  0  0  0  0  0  0
  179.7750  181.3900  138.1970 C   0  0  0  0  0  1  0  0  0  0  0  0
  180.0760  180.4010  141.5690 O   0  0  0  0  0  0  0  0  0  0  0  0
  180.1900  180.3420  140.3370 C   0  0  0  0  0  0  0  0  0  0  0  0
  180.3110  180.2800  139.0400 C   0  0  0  0  0  0  0  0  0  0  0  0
  181.2400  179.3500  136.9360 C   0  0  0  0  0  2  0  0  0  0  0  0
  182.0230  177.4440  135.6290 N   0  0  0  0  0  2  0  0  0  0  0  0
  182.3070  176.2890  136.4820 C   0  0  2  0  0  3  0  0  0  0  0  0
  181.2440  176.2040  137.5560 C   0  0  1  0  0  3  0  0  0  0  0  0
  180.8330  178.1010  136.1640 C   0  0  1  0  0  3  0  0  0  0  0  0
  180.1480  177.1330  137.0960 C   0  0  0  0  0  2  0  0  0  0  0  0
  184.3970  177.4850  136.5860 O   0  0  0  0  0  1  0  0  0  0  0  0
  183.7000  176.3940  137.1100 C   0  0  2  0  0  3  0  0  0  0  0  0
  184.5020  175.1230  136.8850 C   0  0  0  0  0  2  0  0  0  0  0  0
  184.1770  174.1750  137.8540 O   0  0  0  0  0  0  0  0  0  0  0  0
  184.5850  172.9600  137.3070 C   0  0  0  0  0  2  0  0  0  0  0  0
  182.7760  172.1560  135.9790 O   0  0  0  0  0  1  0  0  0  0  0  0
  183.4030  172.0150  137.2160 C   0  0  0  0  0  2  0  0  0  0  0  0
  180.7260  174.7810  137.6660 C   0  0  0  0  0  2  0  0  0  0  0  0
  180.0560  174.4310  136.5010 O   0  0  0  0  0  1  0  0  0  0  0  0
  1  4  1  0  0  0  0
  3  4  2  0  0  0  0
  4  2  1  0  0  0  0
  5 10  2  0  0  0  0
  5 12  1  0  0  0  0
  6  9  2  0  0  0  0
  6 10  1  0  0  0  0
  7  2  1  1  0  0  0
  7  6  1  0  0  0  0
  8  5  1  0  0  0  0
 11  7  1  0  0  0  0
 11  8  2  0  0  0  0
 12 14  1  0  0  0  0
 14 13  2  0  0  0  0
 14 15  1  0  0  0  0
 17 15  1  6  0  0  0
 17 18  1  0  0  0  0
 18 16  1  0  0  0  0
 18 21  1  6  0  0  0
 19 16  1  0  0  0  0
 20 17  1  0  0  0  0
 20 19  1  0  0  0  0
 21 22  2  0  0  0  0
 21 23  1  0  0  0  0
 24 11  1  0  0  0  0
 25 27  1  6  0  0  0
 25 24  1  0  0  0  0
 26 25  1  0  0  0  0
 28 33  1  6  0  0  0
 28 32  1  0  0  0  0
 28  1  1  0  0  0  0
 29 32  1  0  0  0  0
 31 30  2  0  0  0  0
 32 31  2  0  0  0  0
 34 37  1  0  0  0  0
 34 35  1  0  0  0  0
 35 40  1  1  0  0  0
 35 36  1  0  0  0  0
 36 46  1  6  0  0  0
 37 33  1  1  0  0  0
 37 38  1  0  0  0  0
 38 36  1  0  0  0  0
 40 39  1  6  0  0  0
 41 40  1  0  0  0  0
 41 42  1  0  0  0  0
 43 42  1  0  0  0  0
 44 45  1  0  0  0  0
 45 43  1  0  0  0  0
 47 46  1  0  0  0  0
M  END
>  <MODEL>
6

>  <REMARK>
 VINA RESULT:      -6.0      5.418     10.172
  Name = 
  17 active torsions:
  status: ('A' for Active; 'I' for Inactive)
    1  A    between atoms: C_1  and  O_24
    2  A    between atoms: N_3  and  C_8
    3  A    between atoms: N_5  and  C_12
    4  A    between atoms: C_6  and  C_37
    5  A    between atoms: N_10  and  C_23
    6  A    between atoms: C_11  and  C_12
    7  A    between atoms: C_11  and  C_32
    8  A    between atoms: C_12  and  C_31
    9  A    between atoms: C_17  and  C_18
   10  A    between atoms: C_17  and  C_19
   11  A    between atoms: C_19  and  O_41
   12  A    between atoms: C_21  and  C_34
   13  A    between atoms: O_24  and  C_44
   14  A    between atoms: C_29  and  C_45
   15  A    between atoms: C_30  and  C_45
   16  A    between atoms: C_35  and  O_41
   17  A    between atoms: C_35  and  C_47
                            x       y       z     vdW  Elec       q    Type
                         _______ _______ _______ _____ _____    ______ ____

>  <TORSDO>
F 17

$$$$
=
 OpenBabel11042411473D

 47 49  0  0  1  0  0  0  0  0999 V2000
  185.2120  177.9070  138.1210 N   0  0  0  0  0  2  0  0  0  0  0  0
  182.7520  178.1000  138.3310 N   0  0  0  0  0  2  0  0  0  0  0  0
  183.7460  176.8520  136.6430 O   0  0  0  0  0  0  0  0  0  0  0  0
  183.8990  177.5820  137.6580 C   0  0  0  0  0  0  0  0  0  0  0  0
  184.9390  178.2150  141.4190 C   0  0  0  0  0  0  0  0  0  0  0  0
  184.2360  179.5810  139.5270 C   0  0  0  0  0  0  0  0  0  0  0  0
  182.8680  178.9560  139.5010 C   0  0  2  0  0  3  0  0  0  0  0  0
  183.5380  177.7930  141.5950 C   0  0  0  0  0  3  0  0  0  0  0  0
  184.5200  180.5020  138.7180 O   0  0  0  0  0  0  0  0  0  0  0  0
  185.2590  179.0860  140.4580 C   0  0  0  0  0  3  0  0  0  0  0  0
  182.5650  178.1520  140.7500 C   0  0  0  0  0  0  0  0  0  0  0  0
  185.9140  177.7380  142.3570 N   0  0  0  0  0  2  0  0  0  0  0  0
  184.9760  178.5450  144.3540 O   0  0  0  0  0  0  0  0  0  0  0  0
  185.8710  177.8660  143.7840 C   0  0  0  0  0  0  0  0  0  0  0  0
  186.9030  177.1750  144.6140 C   0  0  0  0  0  2  0  0  0  0  0  0
  189.4230  176.9020  146.5680 C   0  0  0  0  0  2  0  0  0  0  0  0
  187.6660  178.1780  145.4800 C   0  0  2  0  0  3  0  0  0  0  0  0
  189.1690  177.9290  145.4870 C   0  0  2  0  0  3  0  0  0  0  0  0
  188.3040  177.0930  147.5780 C   0  0  0  0  0  2  0  0  0  0  0  0
  187.2590  177.9960  146.9300 C   0  0  0  0  0  2  0  0  0  0  0  0
  189.7540  177.5500  144.1590 C   0  0  0  0  0  0  0  0  0  0  0  0
  189.7420  178.4430  143.0970 O   0  0  0  0  0  0  0  0  0  0  0  0
  190.3240  176.4350  144.0250 O   0  0  0  0  0  1  0  0  0  0  0  0
  181.2580  177.7570  141.0540 O   0  0  0  0  0  0  0  0  0  0  0  0
  180.3760  178.5460  141.8420 C   0  0  1  0  0  3  0  0  0  0  0  0
  179.6630  177.7270  142.7170 O   0  0  0  0  0  1  0  0  0  0  0  0
  181.1790  179.5450  142.6440 C   0  0  0  0  0  1  0  0  0  0  0  0
  186.4020  177.5930  137.3460 C   0  0  1  0  0  3  0  0  0  0  0  0
  188.3340  179.3300  137.2170 C   0  0  0  0  0  1  0  0  0  0  0  0
  188.4640  177.4510  140.1990 O   0  0  0  0  0  0  0  0  0  0  0  0
  188.0410  177.8440  139.1030 C   0  0  0  0  0  0  0  0  0  0  0  0
  187.5960  178.2570  137.9490 C   0  0  0  0  0  0  0  0  0  0  0  0
  186.6000  176.0880  137.2770 C   0  0  0  0  0  2  0  0  0  0  0  0
  188.2380  175.7530  135.4990 N   0  0  0  0  0  2  0  0  0  0  0  0
  188.8040  174.4040  135.5390 C   0  0  2  0  0  3  0  0  0  0  0  0
  187.7020  173.4230  135.8750 C   0  0  1  0  0  3  0  0  0  0  0  0
  186.8210  175.6430  135.8360 C   0  0  1  0  0  3  0  0  0  0  0  0
  186.4200  174.1960  135.6890 C   0  0  0  0  0  2  0  0  0  0  0  0
  189.6320  173.3790  137.5580 O   0  0  0  0  0  1  0  0  0  0  0  0
  189.9390  174.3100  136.5630 C   0  0  2  0  0  3  0  0  0  0  0  0
  190.2190  175.6610  137.2000 C   0  0  0  0  0  2  0  0  0  0  0  0
  190.8880  175.4910  138.4110 O   0  0  0  0  0  0  0  0  0  0  0  0
  191.5900  176.6800  138.5960 C   0  0  0  0  0  2  0  0  0  0  0  0
  193.4890  176.5170  137.1640 O   0  0  0  0  0  1  0  0  0  0  0  0
  193.0790  176.4180  138.4930 C   0  0  0  0  0  2  0  0  0  0  0  0
  187.7520  172.2370  134.9290 C   0  0  0  0  0  2  0  0  0  0  0  0
  188.5150  171.2190  135.4880 O   0  0  0  0  0  1  0  0  0  0  0  0
  3  4  2  0  0  0  0
  4  1  1  0  0  0  0
  4  2  1  0  0  0  0
  5  8  1  0  0  0  0
  5 12  1  0  0  0  0
  6 10  1  0  0  0  0
  7  2  1  6  0  0  0
  7  6  1  0  0  0  0
  7 11  1  0  0  0  0
  9  6  2  0  0  0  0
 10  5  2  0  0  0  0
 11 24  1  0  0  0  0
 11  8  2  0  0  0  0
 12 14  1  0  0  0  0
 14 13  2  0  0  0  0
 14 15  1  0  0  0  0
 16 19  1  0  0  0  0
 17 15  1  6  0  0  0
 17 18  1  0  0  0  0
 17 20  1  0  0  0  0
 18 21  1  6  0  0  0
 18 16  1  0  0  0  0
 20 19  1  0  0  0  0
 22 21  2  0  0  0  0
 23 21  1  0  0  0  0
 24 25  1  0  0  0  0
 25 27  1  1  0  0  0
 25 26  1  0  0  0  0
 28 33  1  1  0  0  0
 28 32  1  0  0  0  0
 28  1  1  0  0  0  0
 29 32  1  0  0  0  0
 31 30  2  0  0  0  0
 32 31  2  0  0  0  0
 34 35  1  0  0  0  0
 34 37  1  0  0  0  0
 35 36  1  0  0  0  0
 35 40  1  1  0  0  0
 36 46  1  6  0  0  0
 37 33  1  1  0  0  0
 38 37  1  0  0  0  0
 38 36  1  0  0  0  0
 40 41  1  0  0  0  0
 40 39  1  1  0  0  0
 41 42  1  0  0  0  0
 42 43  1  0  0  0  0
 44 45  1  0  0  0  0
 45 43  1  0  0  0  0
 46 47  1  0  0  0  0
M  END
>  <MODEL>
7

>  <REMARK>
 VINA RESULT:      -5.9      3.301      9.944
  Name = 
  17 active torsions:
  status: ('A' for Active; 'I' for Inactive)
    1  A    between atoms: C_1  and  O_24
    2  A    between atoms: N_3  and  C_8
    3  A    between atoms: N_5  and  C_12
    4  A    between atoms: C_6  and  C_37
    5  A    between atoms: N_10  and  C_23
    6  A    between atoms: C_11  and  C_12
    7  A    between atoms: C_11  and  C_32
    8  A    between atoms: C_12  and  C_31
    9  A    between atoms: C_17  and  C_18
   10  A    between atoms: C_17  and  C_19
   11  A    between atoms: C_19  and  O_41
   12  A    between atoms: C_21  and  C_34
   13  A    between atoms: O_24  and  C_44
   14  A    between atoms: C_29  and  C_45
   15  A    between atoms: C_30  and  C_45
   16  A    between atoms: C_35  and  O_41
   17  A    between atoms: C_35  and  C_47
                            x       y       z     vdW  Elec       q    Type
                         _______ _______ _______ _____ _____    ______ ____

>  <TORSDO>
F 17

$$$$
=
 OpenBabel11042411473D

 47 49  0  0  1  0  0  0  0  0999 V2000
  189.4580  177.8840  142.8400 N   0  0  0  0  0  2  0  0  0  0  0  0
  189.4190  178.3720  145.2680 N   0  0  0  0  0  2  0  0  0  0  0  0
  190.8890  179.4440  143.8240 O   0  0  0  0  0  0  0  0  0  0  0  0
  189.9580  178.6070  143.9680 C   0  0  0  0  0  0  0  0  0  0  0  0
  185.8090  178.0020  144.1880 C   0  0  0  0  0  0  0  0  0  0  0  0
  187.9350  176.8090  144.1810 C   0  0  0  0  0  0  0  0  0  0  0  0
  188.3510  177.4110  145.4950 C   0  0  2  0  0  3  0  0  0  0  0  0
  186.0620  178.3820  145.5890 C   0  0  0  0  0  3  0  0  0  0  0  0
  188.6810  175.9730  143.6100 O   0  0  0  0  0  0  0  0  0  0  0  0
  186.6840  177.2300  143.5360 C   0  0  0  0  0  3  0  0  0  0  0  0
  187.2040  178.0890  146.2210 C   0  0  0  0  0  0  0  0  0  0  0  0
  184.5680  178.4030  143.5900 N   0  0  0  0  0  2  0  0  0  0  0  0
  183.3680  178.9980  145.5190 O   0  0  0  0  0  0  0  0  0  0  0  0
  183.4210  178.9390  144.2620 C   0  0  0  0  0  0  0  0  0  0  0  0
  182.2690  179.4430  143.4570 C   0  0  0  0  0  2  0  0  0  0  0  0
  179.3450  179.4370  142.1530 C   0  0  0  0  0  2  0  0  0  0  0  0
  181.1850  178.3710  143.3270 C   0  0  2  0  0  3  0  0  0  0  0  0
  180.4580  178.4260  141.9890 C   0  0  2  0  0  3  0  0  0  0  0  0
  178.9940  179.4140  143.6320 C   0  0  0  0  0  2  0  0  0  0  0  0
  180.0950  178.6370  144.3460 C   0  0  0  0  0  2  0  0  0  0  0  0
  181.3350  178.6970  140.8020 C   0  0  0  0  0  0  0  0  0  0  0  0
  182.3020  177.7820  140.4110 O   0  0  0  0  0  1  0  0  0  0  0  0
  181.1470  179.7330  140.1130 O   0  0  0  0  0  0  0  0  0  0  0  0
  187.3090  178.4320  147.5730 O   0  0  0  0  0  0  0  0  0  0  0  0
  187.9960  177.6280  148.5230 C   0  0  1  0  0  3  0  0  0  0  0  0
  188.1950  176.3490  148.0040 O   0  0  0  0  0  1  0  0  0  0  0  0
  189.3400  178.2510  148.8290 C   0  0  0  0  0  1  0  0  0  0  0  0
  190.1180  177.9240  141.5450 C   0  0  1  0  0  3  0  0  0  0  0  0
  191.7690  176.3440  142.7900 C   0  0  0  0  0  1  0  0  0  0  0  0
  193.1170  177.5050  139.7450 O   0  0  0  0  0  0  0  0  0  0  0  0
  192.2900  177.3520  140.6540 C   0  0  0  0  0  0  0  0  0  0  0  0
  191.4190  177.1910  141.6110 C   0  0  0  0  0  0  0  0  0  0  0  0
  189.2170  177.3270  140.4780 C   0  0  0  0  0  2  0  0  0  0  0  0
  189.7810  178.1250  138.2420 N   0  0  0  0  0  2  0  0  0  0  0  0
  188.9770  177.4590  137.2160 C   0  0  2  0  0  3  0  0  0  0  0  0
  187.5630  177.3040  137.7310 C   0  0  1  0  0  3  0  0  0  0  0  0
  188.9150  178.3560  139.3950 C   0  0  1  0  0  3  0  0  0  0  0  0
  187.4850  178.2030  138.9390 C   0  0  0  0  0  2  0  0  0  0  0  0
  188.9270  175.0720  137.5470 O   0  0  0  0  0  1  0  0  0  0  0  0
  189.5690  176.0960  136.8470 C   0  0  2  0  0  3  0  0  0  0  0  0
  191.0600  176.0480  137.1330 C   0  0  0  0  0  2  0  0  0  0  0  0
  191.3810  174.8740  137.8120 O   0  0  0  0  0  0  0  0  0  0  0  0
  192.7430  174.6940  137.5810 C   0  0  0  0  0  2  0  0  0  0  0  0
  194.5090  176.1250  136.8610 O   0  0  0  0  0  1  0  0  0  0  0  0
  193.2240  175.6870  136.5430 C   0  0  0  0  0  2  0  0  0  0  0  0
  186.5690  177.7470  136.6710 C   0  0  0  0  0  2  0  0  0  0  0  0
  187.1830  178.6250  135.7880 O   0  0  0  0  0  1  0  0  0  0  0  0
  1  4  1  0  0  0  0
  3  4  2  0  0  0  0
  4  2  1  0  0  0  0
  5  8  1  0  0  0  0
  6  7  1  0  0  0  0
  7  2  1  6  0  0  0
  7 11  1  0  0  0  0
  8 11  2  0  0  0  0
  9  6  2  0  0  0  0
 10  6  1  0  0  0  0
 10  5  2  0  0  0  0
 11 24  1  0  0  0  0
 12  5  1  0  0  0  0
 12 14  1  0  0  0  0
 14 13  2  0  0  0  0
 15 14  1  0  0  0  0
 16 19  1  0  0  0  0
 17 15  1  6  0  0  0
 17 20  1  0  0  0  0
 18 21  1  6  0  0  0
 18 16  1  0  0  0  0
 18 17  1  0  0  0  0
 19 20  1  0  0  0  0
 22 21  1  0  0  0  0
 23 21  2  0  0  0  0
 24 25  1  0  0  0  0
 25 27  1  6  0  0  0
 26 25  1  0  0  0  0
 28 33  1  6  0  0  0
 28 32  1  0  0  0  0
 28  1  1  0  0  0  0
 30 31  2  0  0  0  0
 31 32  2  0  0  0  0
 32 29  1  0  0  0  0
 34 37  1  0  0  0  0
 35 40  1  1  0  0  0
 35 36  1  0  0  0  0
 35 34  1  0  0  0  0
 36 46  1  6  0  0  0
 36 38  1  0  0  0  0
 37 33  1  1  0  0  0
 38 37  1  0  0  0  0
 40 41  1  0  0  0  0
 40 39  1  1  0  0  0
 41 42  1  0  0  0  0
 43 42  1  0  0  0  0
 45 44  1  0  0  0  0
 45 43  1  0  0  0  0
 47 46  1  0  0  0  0
M  END
>  <MODEL>
8

>  <REMARK>
 VINA RESULT:      -5.9      2.953     11.790
  Name = 
  17 active torsions:
  status: ('A' for Active; 'I' for Inactive)
    1  A    between atoms: C_1  and  O_24
    2  A    between atoms: N_3  and  C_8
    3  A    between atoms: N_5  and  C_12
    4  A    between atoms: C_6  and  C_37
    5  A    between atoms: N_10  and  C_23
    6  A    between atoms: C_11  and  C_12
    7  A    between atoms: C_11  and  C_32
    8  A    between atoms: C_12  and  C_31
    9  A    between atoms: C_17  and  C_18
   10  A    between atoms: C_17  and  C_19
   11  A    between atoms: C_19  and  O_41
   12  A    between atoms: C_21  and  C_34
   13  A    between atoms: O_24  and  C_44
   14  A    between atoms: C_29  and  C_45
   15  A    between atoms: C_30  and  C_45
   16  A    between atoms: C_35  and  O_41
   17  A    between atoms: C_35  and  C_47
                            x       y       z     vdW  Elec       q    Type
                         _______ _______ _______ _____ _____    ______ ____

>  <TORSDO>
F 17

$$$$
=
 OpenBabel11042411473D

 47 49  0  0  1  0  0  0  0  0999 V2000
  182.3700  178.0370  138.6150 N   0  0  0  0  0  2  0  0  0  0  0  0
  182.6960  177.3110  140.9600 N   0  0  0  0  0  2  0  0  0  0  0  0
  181.7100  175.9310  139.3740 O   0  0  0  0  0  0  0  0  0  0  0  0
  182.2410  177.0430  139.6350 C   0  0  0  0  0  0  0  0  0  0  0  0
  185.5930  178.4220  143.1280 C   0  0  0  0  0  0  0  0  0  0  0  0
  184.7370  178.5960  140.8530 C   0  0  0  0  0  0  0  0  0  0  0  0
  183.3070  178.5810  141.3220 C   0  0  2  0  0  3  0  0  0  0  0  0
  184.2320  178.6850  143.6280 C   0  0  0  0  0  3  0  0  0  0  0  0
  184.9940  178.7230  139.6290 O   0  0  0  0  0  0  0  0  0  0  0  0
  185.8330  178.4130  141.8140 C   0  0  0  0  0  3  0  0  0  0  0  0
  183.1750  178.8000  142.8160 C   0  0  0  0  0  0  0  0  0  0  0  0
  186.6510  178.2730  144.0870 N   0  0  0  0  0  2  0  0  0  0  0  0
  187.3050  176.0660  143.6190 O   0  0  0  0  0  0  0  0  0  0  0  0
  187.5020  177.1330  144.2590 C   0  0  0  0  0  0  0  0  0  0  0  0
  188.6510  177.2130  145.2110 C   0  0  0  0  0  2  0  0  0  0  0  0
  191.5990  178.4540  145.1070 C   0  0  0  0  0  2  0  0  0  0  0  0
  189.9480  176.7660  144.5380 C   0  0  2  0  0  3  0  0  0  0  0  0
  191.1800  177.0300  145.3950 C   0  0  2  0  0  3  0  0  0  0  0  0
  191.1260  178.7350  143.6910 C   0  0  0  0  0  2  0  0  0  0  0  0
  190.1820  177.6050  143.2960 C   0  0  0  0  0  2  0  0  0  0  0  0
  191.0050  176.7470  146.8590 C   0  0  0  0  0  0  0  0  0  0  0  0
  192.0930  176.7700  147.7200 O   0  0  0  0  0  1  0  0  0  0  0  0
  189.8510  176.5540  147.3220 O   0  0  0  0  0  0  0  0  0  0  0  0
  181.9420  179.1230  143.3920 O   0  0  0  0  0  0  0  0  0  0  0  0
  180.7200  179.0940  142.6660 C   0  0  1  0  0  3  0  0  0  0  0  0
  179.9170  178.0530  143.1310 O   0  0  0  0  0  1  0  0  0  0  0  0
  179.9900  180.4050  142.8620 C   0  0  0  0  0  1  0  0  0  0  0  0
  181.7270  177.8980  137.3180 C   0  0  1  0  0  3  0  0  0  0  0  0
  179.1570  178.3020  137.3650 C   0  0  0  0  0  1  0  0  0  0  0  0
  180.9340  181.2740  136.6950 O   0  0  0  0  0  0  0  0  0  0  0  0
  180.7480  180.0770  136.9550 C   0  0  0  0  0  0  0  0  0  0  0  0
  180.5520  178.8170  137.2280 C   0  0  0  0  0  0  0  0  0  0  0  0
  182.7220  178.1850  136.2060 C   0  0  0  0  0  2  0  0  0  0  0  0
  184.5200  176.9450  135.1170 N   0  0  0  0  0  2  0  0  0  0  0  0
  185.2560  176.1170  136.0740 C   0  0  2  0  0  3  0  0  0  0  0  0
  184.2710  175.5060  137.0470 C   0  0  1  0  0  3  0  0  0  0  0  0
  183.1090  176.8960  135.4900 C   0  0  1  0  0  3  0  0  0  0  0  0
  182.9160  175.7250  136.4210 C   0  0  0  0  0  2  0  0  0  0  0  0
  186.3180  178.2610  136.3720 O   0  0  0  0  0  1  0  0  0  0  0  0
  186.3120  176.9380  136.8200 C   0  0  2  0  0  3  0  0  0  0  0  0
  187.6970  176.3380  136.6500 C   0  0  0  0  0  2  0  0  0  0  0  0
  188.2180  175.9760  137.8910 O   0  0  0  0  0  0  0  0  0  0  0  0
  189.2330  176.8990  138.1300 C   0  0  0  0  0  2  0  0  0  0  0  0
  191.0580  175.6170  137.2880 O   0  0  0  0  0  1  0  0  0  0  0  0
  190.5240  176.1730  138.4500 C   0  0  0  0  0  2  0  0  0  0  0  0
  184.5500  174.0230  137.2100 C   0  0  0  0  0  2  0  0  0  0  0  0
  185.4070  173.5910  136.2060 O   0  0  0  0  0  1  0  0  0  0  0  0
  1  4  1  0  0  0  0
  3  4  2  0  0  0  0
  4  2  1  0  0  0  0
  5  8  1  0  0  0  0
  5 12  1  0  0  0  0
  6  7  1  0  0  0  0
  6 10  1  0  0  0  0
  7  2  1  1  0  0  0
  7 11  1  0  0  0  0
  9  6  2  0  0  0  0
 10  5  2  0  0  0  0
 11 24  1  0  0  0  0
 11  8  2  0  0  0  0
 12 14  1  0  0  0  0
 13 14  2  0  0  0  0
 14 15  1  0  0  0  0
 16 18  1  0  0  0  0
 17 15  1  1  0  0  0
 17 18  1  0  0  0  0
 18 21  1  1  0  0  0
 19 16  1  0  0  0  0
 20 19  1  0  0  0  0
 20 17  1  0  0  0  0
 21 23  2  0  0  0  0
 21 22  1  0  0  0  0
 25 27  1  1  0  0  0
 25 26  1  0  0  0  0
 25 24  1  0  0  0  0
 28 33  1  6  0  0  0
 28  1  1  0  0  0  0
 30 31  2  0  0  0  0
 31 32  2  0  0  0  0
 32 28  1  0  0  0  0
 32 29  1  0  0  0  0
 34 37  1  0  0  0  0
 34 35  1  0  0  0  0
 35 40  1  1  0  0  0
 35 36  1  0  0  0  0
 36 46  1  6  0  0  0
 37 33  1  1  0  0  0
 37 38  1  0  0  0  0
 38 36  1  0  0  0  0
 40 39  1  6  0  0  0
 41 40  1  0  0  0  0
 41 42  1  0  0  0  0
 42 43  1  0  0  0  0
 43 45  1  0  0  0  0
 44 45  1  0  0  0  0
 47 46  1  0  0  0  0
M  END
>  <MODEL>
9

>  <REMARK>
 VINA RESULT:      -5.9      4.329     10.022
  Name = 
  17 active torsions:
  status: ('A' for Active; 'I' for Inactive)
    1  A    between atoms: C_1  and  O_24
    2  A    between atoms: N_3  and  C_8
    3  A    between atoms: N_5  and  C_12
    4  A    between atoms: C_6  and  C_37
    5  A    between atoms: N_10  and  C_23
    6  A    between atoms: C_11  and  C_12
    7  A    between atoms: C_11  and  C_32
    8  A    between atoms: C_12  and  C_31
    9  A    between atoms: C_17  and  C_18
   10  A    between atoms: C_17  and  C_19
   11  A    between atoms: C_19  and  O_41
   12  A    between atoms: C_21  and  C_34
   13  A    between atoms: O_24  and  C_44
   14  A    between atoms: C_29  and  C_45
   15  A    between atoms: C_30  and  C_45
   16  A    between atoms: C_35  and  O_41
   17  A    between atoms: C_35  and  C_47
                            x       y       z     vdW  Elec       q    Type
                         _______ _______ _______ _____ _____    ______ ____

>  <TORSDO>
F 17

$$$$
