=
 OpenBabel11042413123D

 32 36  0  0  1  0  0  0  0  0999 V2000
  186.7880  176.8330  144.7000 O   0  0  0  0  0  1  0  0  0  0  0  0
  188.3040  177.8240  139.3600 N   0  0  0  0  0  0  0  0  0  0  0  0
  188.2730  176.0290  137.6910 C   0  0  0  0  0  0  0  0  0  0  0  0
  191.8360  177.0960  140.3080 C   0  0  0  0  0  2  0  0  0  0  0  0
  187.8170  177.2180  143.8350 C   0  0  2  0  0  0  0  0  0  0  0  0
  189.0770  176.5020  143.9560 C   0  0  2  0  0  3  0  0  0  0  0  0
  188.9350  177.1820  141.5740 C   0  0  0  0  0  0  0  0  0  0  0  0
  189.2190  177.1930  140.2570 C   0  0  0  0  0  0  0  0  0  0  0  0
  188.9660  177.8870  144.4770 N   0  0  0  0  0  0  0  0  0  0  0  0
  191.1930  177.0350  142.6910 C   0  0  0  0  0  0  0  0  0  0  0  0
  188.9280  177.7440  146.2180 Cl  0  0  0  0  0  0  0  0  0  0  0  0
  190.5450  175.9050  138.6900 N   0  0  0  0  0  0  0  0  0  0  0  0
  187.9360  177.3800  138.1980 C   0  0  0  0  0  0  0  0  0  0  0  0
  191.7480  177.8940  141.6030 C   0  0  0  0  0  2  0  0  0  0  0  0
  190.5070  176.6880  139.7220 C   0  0  0  0  0  0  0  0  0  0  0  0
  189.4450  175.4110  137.9140 C   0  0  0  0  0  3  0  0  0  0  0  0
  189.7900  176.4840  142.5990 C   0  0  1  0  0  3  0  0  0  0  0  0
  187.4050  177.8670  142.1960 S   0  0  0  0  0  0  0  0  0  0  0  0
  191.9140  176.7150  143.6200 O   0  0  0  0  0  0  0  0  0  0  0  0
  186.9250  178.1820  137.4470 C   0  0  0  0  0  2  0  0  0  0  0  0
  186.1520  178.9250  138.3410 O   0  0  0  0  0  0  0  0  0  0  0  0
  184.9130  178.2820  138.3600 C   0  0  0  0  0  2  0  0  0  0  0  0
  184.0890  178.7440  140.5400 O   0  0  0  0  0  1  0  0  0  0  0  0
  183.9340  179.0810  139.1970 C   0  0  0  0  0  3  0  0  0  0  0  0
  184.1750  180.4450  139.0320 O   0  0  0  0  0  1  0  0  0  0  0  0
  187.3060  175.3970  136.8940 O   0  0  0  0  0  0  0  0  0  0  0  0
  186.6740  174.1650  137.2280 C   0  0  1  0  0  3  0  0  0  0  0  0
  185.1590  174.3510  137.2380 C   0  0  0  0  0  2  0  0  0  0  0  0
  184.7950  172.1480  136.1470 C   0  0  0  0  0  2  0  0  0  0  0  0
  187.1080  173.0780  136.2720 C   0  0  0  0  0  3  0  0  0  0  0  0
  184.4820  172.9940  137.3780 C   0  0  0  0  0  2  0  0  0  0  0  0
  186.2660  172.1370  135.8210 C   0  0  0  0  0  3  0  0  0  0  0  0
  2  8  1  0  0  0  0
  3 16  2  0  0  0  0
  3 13  1  0  0  0  0
  4 14  1  0  0  0  0
  5  6  1  0  0  0  0
  5  9  1  0  0  0  0
  5  1  1  1  0  0  0
  6  9  1  1  0  0  0
  7 18  1  0  0  0  0
  8  7  2  0  0  0  0
  9 11  1  0  0  0  0
 10 19  2  0  0  0  0
 12 15  2  0  0  0  0
 13  2  2  0  0  0  0
 14 10  1  0  0  0  0
 15  8  1  0  0  0  0
 15  4  1  0  0  0  0
 16 12  1  0  0  0  0
 17  7  1  6  0  0  0
 17 10  1  0  0  0  0
 17  6  1  0  0  0  0
 18  5  1  0  0  0  0
 20 13  1  0  0  0  0
 20 21  1  0  0  0  0
 21 22  1  0  0  0  0
 22 24  1  0  0  0  0
 24 23  1  0  0  0  0
 25 24  1  0  0  0  0
 26  3  1  0  0  0  0
 27 26  1  6  0  0  0
 27 28  1  0  0  0  0
 28 31  1  0  0  0  0
 29 31  1  0  0  0  0
 30 27  1  0  0  0  0
 32 29  1  0  0  0  0
 32 30  2  0  0  0  0
M  END
>  <MODEL>
1

>  <REMARK>
 VINA RESULT:      -7.8      0.000      0.000
  Name = 
  6 active torsions:
  status: ('A' for Active; 'I' for Inactive)
    1  A    between atoms: C_2  and  O_28
    2  A    between atoms: C_3  and  O_14
    3  A    between atoms: C_3  and  C_23
    4  A    between atoms: C_5  and  O_28
    5  A    between atoms: O_14  and  C_16
    6  A    between atoms: C_16  and  C_24
                            x       y       z     vdW  Elec       q    Type
                         _______ _______ _______ _____ _____    ______ ____

>  <TORSDO>
F 6

$$$$
=
 OpenBabel11042413123D

 32 36  0  0  1  0  0  0  0  0999 V2000
  182.0570  174.7370  137.8480 O   0  0  0  0  0  1  0  0  0  0  0  0
  184.5610  178.6630  141.0280 N   0  0  0  0  0  0  0  0  0  0  0  0
  185.3260  178.1410  143.2980 C   0  0  0  0  0  0  0  0  0  0  0  0
  181.1960  179.7210  142.2370 C   0  0  0  0  0  2  0  0  0  0  0  0
  181.9230  175.9700  138.4940 C   0  0  2  0  0  0  0  0  0  0  0  0
  180.7780  176.1270  139.3770 C   0  0  2  0  0  3  0  0  0  0  0  0
  182.5460  177.5840  140.3300 C   0  0  2  0  0  3  0  0  0  0  0  0
  183.1870  178.3380  141.2440 C   0  0  0  0  0  0  0  0  0  0  0  0
  180.7820  176.7960  138.0520 N   0  0  0  0  0  0  0  0  0  0  0  0
  180.1250  178.2530  140.5660 C   0  0  0  0  0  0  0  0  0  0  0  0
  179.6600  175.8980  137.0570 Cl  0  0  0  0  0  0  0  0  0  0  0  0
  182.9760  178.8880  143.5950 N   0  0  0  0  0  0  0  0  0  0  0  0
  185.5010  178.6650  141.9220 C   0  0  1  0  0  3  0  0  0  0  0  0
  180.5750  179.6490  140.8480 C   0  0  0  0  0  2  0  0  0  0  0  0
  182.4840  178.9500  142.3980 C   0  0  0  0  0  0  0  0  0  0  0  0
  184.1990  178.2720  144.0170 C   0  0  0  0  0  3  0  0  0  0  0  0
  181.1220  177.1210  140.4920 C   0  0  1  0  0  3  0  0  0  0  0  0
  183.4060  176.9210  138.9100 S   0  0  0  0  0  0  0  0  0  0  0  0
  178.9320  178.0220  140.4750 O   0  0  0  0  0  0  0  0  0  0  0  0
  186.8840  178.9890  141.4620 C   0  0  0  0  0  2  0  0  0  0  0  0
  187.0330  178.6270  140.1220 O   0  0  0  0  0  0  0  0  0  0  0  0
  188.3710  178.2460  140.0040 C   0  0  0  0  0  2  0  0  0  0  0  0
  187.7180  177.2880  137.9310 O   0  0  0  0  0  1  0  0  0  0  0  0
  188.7180  178.0400  138.5430 C   0  0  0  0  0  3  0  0  0  0  0  0
  188.8240  179.2750  137.9040 O   0  0  0  0  0  1  0  0  0  0  0  0
  186.4400  177.5130  143.8770 O   0  0  0  0  0  0  0  0  0  0  0  0
  187.1970  178.0590  144.9520 C   0  0  1  0  0  3  0  0  0  0  0  0
  186.7180  177.4640  146.2740 C   0  0  0  0  0  2  0  0  0  0  0  0
  189.0430  177.2730  147.1310 C   0  0  0  0  0  2  0  0  0  0  0  0
  188.6730  177.8250  144.7240 C   0  0  0  0  0  3  0  0  0  0  0  0
  187.6660  177.8780  147.3900 C   0  0  0  0  0  2  0  0  0  0  0  0
  189.5160  177.5160  145.7210 C   0  0  0  0  0  3  0  0  0  0  0  0
  2  8  2  0  0  0  0
  2 13  1  0  0  0  0
  3 26  1  0  0  0  0
  3 16  2  0  0  0  0
  4 15  1  0  0  0  0
  5  1  1  6  0  0  0
  5 18  1  0  0  0  0
  5  6  1  0  0  0  0
  6  9  1  6  0  0  0
  6 17  1  0  0  0  0
  7 18  1  1  0  0  0
  7 17  1  0  0  0  0
  7  8  1  0  0  0  0
  8 15  1  0  0  0  0
  9  5  1  0  0  0  0
 10 14  1  0  0  0  0
 11  9  1  0  0  0  0
 12 16  1  0  0  0  0
 13 20  1  6  0  0  0
 13  3  1  0  0  0  0
 14  4  1  0  0  0  0
 15 12  2  0  0  0  0
 17 10  1  6  0  0  0
 19 10  2  0  0  0  0
 21 20  1  0  0  0  0
 22 21  1  0  0  0  0
 23 24  1  0  0  0  0
 24 22  1  0  0  0  0
 25 24  1  0  0  0  0
 27 26  1  6  0  0  0
 27 28  1  0  0  0  0
 28 31  1  0  0  0  0
 29 31  1  0  0  0  0
 30 27  1  0  0  0  0
 30 32  2  0  0  0  0
 32 29  1  0  0  0  0
M  END
>  <MODEL>
2

>  <REMARK>
 VINA RESULT:      -7.3      4.372      8.744
  Name = 
  6 active torsions:
  status: ('A' for Active; 'I' for Inactive)
    1  A    between atoms: C_2  and  O_28
    2  A    between atoms: C_3  and  O_14
    3  A    between atoms: C_3  and  C_23
    4  A    between atoms: C_5  and  O_28
    5  A    between atoms: O_14  and  C_16
    6  A    between atoms: C_16  and  C_24
                            x       y       z     vdW  Elec       q    Type
                         _______ _______ _______ _____ _____    ______ ____

>  <TORSDO>
F 6

$$$$
=
 OpenBabel11042413123D

 32 36  0  0  1  0  0  0  0  0999 V2000
  191.3970  173.5490  137.3650 O   0  0  0  0  0  1  0  0  0  0  0  0
  189.7480  178.0090  140.3970 N   0  0  0  0  0  0  0  0  0  0  0  0
  187.8270  177.8570  141.9120 C   0  0  0  0  0  0  0  0  0  0  0  0
  187.6060  179.0660  137.5340 C   0  0  0  0  0  2  0  0  0  0  0  0
  190.8970  174.8550  137.3370 C   0  0  2  0  0  0  0  0  0  0  0  0
  189.7030  175.0820  136.5360 C   0  0  2  0  0  3  0  0  0  0  0  0
  189.5870  176.7440  138.3750 C   0  0  2  0  0  3  0  0  0  0  0  0
  189.0420  177.6530  139.2080 C   0  0  0  0  0  0  0  0  0  0  0  0
  191.0210  175.5530  136.0410 N   0  0  0  0  0  0  0  0  0  0  0  0
  188.6270  177.3230  136.1150 C   0  0  0  0  0  0  0  0  0  0  0  0
  191.4620  174.4670  134.7440 Cl  0  0  0  0  0  0  0  0  0  0  0  0
  186.8420  178.5250  139.7310 N   0  0  0  0  0  0  0  0  0  0  0  0
  189.2330  178.1850  141.5740 C   0  0  1  0  0  3  0  0  0  0  0  0
  188.6830  178.7650  136.5000 C   0  0  0  0  0  2  0  0  0  0  0  0
  187.8000  178.3900  138.8690 C   0  0  0  0  0  0  0  0  0  0  0  0
  186.7890  178.0360  141.0770 C   0  0  0  0  0  3  0  0  0  0  0  0
  188.8990  176.2420  137.1330 C   0  0  1  0  0  3  0  0  0  0  0  0
  191.1250  175.9260  138.7780 S   0  0  0  0  0  0  0  0  0  0  0  0
  188.2800  177.0250  134.9860 O   0  0  0  0  0  0  0  0  0  0  0  0
  190.1690  178.5050  142.6910 C   0  0  0  0  0  2  0  0  0  0  0  0
  191.0920  177.4700  142.8460 O   0  0  0  0  0  0  0  0  0  0  0  0
  191.6790  177.6990  144.0920 C   0  0  0  0  0  2  0  0  0  0  0  0
  192.0480  175.3780  144.4320 O   0  0  0  0  0  1  0  0  0  0  0  0
  191.4510  176.5030  144.9950 C   0  0  0  0  0  3  0  0  0  0  0  0
  192.0110  176.7460  146.2490 O   0  0  0  0  0  1  0  0  0  0  0  0
  187.5890  177.3740  143.2080 O   0  0  0  0  0  0  0  0  0  0  0  0
  187.2310  178.1950  144.3150 C   0  0  1  0  0  3  0  0  0  0  0  0
  185.7110  178.2470  144.4470 C   0  0  0  0  0  2  0  0  0  0  0  0
  185.8350  178.0990  146.9250 C   0  0  0  0  0  2  0  0  0  0  0  0
  187.8950  177.6910  145.5760 C   0  0  0  0  0  3  0  0  0  0  0  0
  185.3380  178.9380  145.7510 C   0  0  0  0  0  2  0  0  0  0  0  0
  187.2770  177.6930  146.7660 C   0  0  0  0  0  3  0  0  0  0  0  0
  2 13  1  0  0  0  0
  3 26  1  0  0  0  0
  4 15  1  0  0  0  0
  5  1  1  1  0  0  0
  5 18  1  0  0  0  0
  6  9  1  6  0  0  0
  6 17  1  0  0  0  0
  6  5  1  0  0  0  0
  7 18  1  1  0  0  0
  7  8  1  0  0  0  0
  8  2  2  0  0  0  0
  9  5  1  0  0  0  0
 10 14  1  0  0  0  0
 11  9  1  0  0  0  0
 12 16  1  0  0  0  0
 13  3  1  0  0  0  0
 13 20  1  1  0  0  0
 14  4  1  0  0  0  0
 15  8  1  0  0  0  0
 15 12  2  0  0  0  0
 16  3  2  0  0  0  0
 17 10  1  6  0  0  0
 17  7  1  0  0  0  0
 19 10  2  0  0  0  0
 20 21  1  0  0  0  0
 21 22  1  0  0  0  0
 22 24  1  0  0  0  0
 23 24  1  0  0  0  0
 24 25  1  0  0  0  0
 27 26  1  6  0  0  0
 27 28  1  0  0  0  0
 27 30  1  0  0  0  0
 28 31  1  0  0  0  0
 30 32  2  0  0  0  0
 31 29  1  0  0  0  0
 32 29  1  0  0  0  0
M  END
>  <MODEL>
3

>  <REMARK>
 VINA RESULT:      -6.9      3.860      7.857
  Name = 
  6 active torsions:
  status: ('A' for Active; 'I' for Inactive)
    1  A    between atoms: C_2  and  O_28
    2  A    between atoms: C_3  and  O_14
    3  A    between atoms: C_3  and  C_23
    4  A    between atoms: C_5  and  O_28
    5  A    between atoms: O_14  and  C_16
    6  A    between atoms: C_16  and  C_24
                            x       y       z     vdW  Elec       q    Type
                         _______ _______ _______ _____ _____    ______ ____

>  <TORSDO>
F 6

$$$$
=
 OpenBabel11042413123D

 32 36  0  0  1  0  0  0  0  0999 V2000
  183.4610  173.5820  136.9520 O   0  0  0  0  0  1  0  0  0  0  0  0
  186.4930  178.1180  138.3740 N   0  0  0  0  0  0  0  0  0  0  0  0
  187.3490  178.3930  140.6540 C   0  0  0  0  0  0  0  0  0  0  0  0
  183.3160  179.8930  139.1850 C   0  0  0  0  0  2  0  0  0  0  0  0
  183.4770  174.9720  137.0950 C   0  0  2  0  0  0  0  0  0  0  0  0
  182.4060  175.5630  137.8840 C   0  0  2  0  0  3  0  0  0  0  0  0
  184.3510  177.0750  138.1800 C   0  0  2  0  0  3  0  0  0  0  0  0
  185.1120  178.0420  138.7300 C   0  0  0  0  0  0  0  0  0  0  0  0
  182.3870  175.6920  136.4060 N   0  0  0  0  0  0  0  0  0  0  0  0
  182.0180  178.0330  138.2100 C   0  0  0  0  0  0  0  0  0  0  0  0
  181.1310  174.6130  135.8460 Cl  0  0  0  0  0  0  0  0  0  0  0  0
  185.0960  179.4380  140.7110 N   0  0  0  0  0  0  0  0  0  0  0  0
  187.4830  178.3520  139.1780 C   0  0  1  0  0  3  0  0  0  0  0  0
  182.6050  179.3790  137.9390 C   0  0  0  0  0  2  0  0  0  0  0  0
  184.5380  179.1060  139.5890 C   0  0  0  0  0  0  0  0  0  0  0  0
  186.2850  178.8970  141.3010 C   0  0  0  0  0  3  0  0  0  0  0  0
  182.9050  176.8560  138.5380 C   0  0  1  0  0  3  0  0  0  0  0  0
  185.0600  175.8490  137.0880 S   0  0  0  0  0  0  0  0  0  0  0  0
  180.8060  177.9110  138.2420 O   0  0  0  0  0  0  0  0  0  0  0  0
  188.8580  178.3370  138.5960 C   0  0  0  0  0  2  0  0  0  0  0  0
  188.8840  177.5170  137.4660 O   0  0  0  0  0  0  0  0  0  0  0  0
  190.2230  177.1510  137.3230 C   0  0  0  0  0  2  0  0  0  0  0  0
  190.6270  175.0250  138.3020 O   0  0  0  0  0  1  0  0  0  0  0  0
  190.6820  176.3940  138.5530 C   0  0  0  0  0  3  0  0  0  0  0  0
  191.9930  176.7540  138.8660 O   0  0  0  0  0  1  0  0  0  0  0  0
  188.4370  177.9100  141.3980 O   0  0  0  0  0  0  0  0  0  0  0  0
  188.6070  178.1200  142.7960 C   0  0  1  0  0  3  0  0  0  0  0  0
  188.1600  176.8760  143.5600 C   0  0  0  0  0  2  0  0  0  0  0  0
  190.0650  177.0600  145.1460 C   0  0  0  0  0  2  0  0  0  0  0  0
  190.0410  178.4900  143.1000 C   0  0  0  0  0  3  0  0  0  0  0  0
  188.5440  177.0160  145.0270 C   0  0  0  0  0  2  0  0  0  0  0  0
  190.6840  178.0470  144.1900 C   0  0  0  0  0  3  0  0  0  0  0  0
  2  8  2  0  0  0  0
  2 13  1  0  0  0  0
  3 16  2  0  0  0  0
  3 26  1  0  0  0  0
  4 15  1  0  0  0  0
  5  1  1  6  0  0  0
  5  6  1  0  0  0  0
  6  9  1  6  0  0  0
  6 17  1  0  0  0  0
  7 18  1  1  0  0  0
  7 17  1  0  0  0  0
  7  8  1  0  0  0  0
  8 15  1  0  0  0  0
  9  5  1  0  0  0  0
 10 19  2  0  0  0  0
 11  9  1  0  0  0  0
 12 16  1  0  0  0  0
 13 20  1  1  0  0  0
 13  3  1  0  0  0  0
 14 10  1  0  0  0  0
 14  4  1  0  0  0  0
 15 12  2  0  0  0  0
 17 10  1  6  0  0  0
 18  5  1  0  0  0  0
 21 20  1  0  0  0  0
 22 21  1  0  0  0  0
 22 24  1  0  0  0  0
 23 24  1  0  0  0  0
 24 25  1  0  0  0  0
 27 26  1  6  0  0  0
 27 30  1  0  0  0  0
 27 28  1  0  0  0  0
 28 31  1  0  0  0  0
 30 32  2  0  0  0  0
 31 29  1  0  0  0  0
 32 29  1  0  0  0  0
M  END
>  <MODEL>
4

>  <REMARK>
 VINA RESULT:      -6.9      3.804      8.027
  Name = 
  6 active torsions:
  status: ('A' for Active; 'I' for Inactive)
    1  A    between atoms: C_2  and  O_28
    2  A    between atoms: C_3  and  O_14
    3  A    between atoms: C_3  and  C_23
    4  A    between atoms: C_5  and  O_28
    5  A    between atoms: O_14  and  C_16
    6  A    between atoms: C_16  and  C_24
                            x       y       z     vdW  Elec       q    Type
                         _______ _______ _______ _____ _____    ______ ____

>  <TORSDO>
F 6

$$$$
=
 OpenBabel11042413123D

 32 36  0  0  1  0  0  0  0  0999 V2000
  185.2940  177.5140  143.1540 O   0  0  0  0  0  1  0  0  0  0  0  0
  189.2980  178.4300  139.2910 N   0  0  0  0  0  0  0  0  0  0  0  0
  189.8780  176.7050  137.6490 C   0  0  0  0  0  0  0  0  0  0  0  0
  191.8280  177.1820  141.7290 C   0  0  0  0  0  2  0  0  0  0  0  0
  186.6480  177.7730  142.9210 C   0  0  2  0  0  0  0  0  0  0  0  0
  187.6060  176.8820  143.5580 C   0  0  2  0  0  3  0  0  0  0  0  0
  188.7070  177.6430  141.4690 C   0  0  0  0  0  0  0  0  0  0  0  0
  189.5900  177.6500  140.4510 C   0  0  0  0  0  0  0  0  0  0  0  0
  187.4110  178.2540  144.0900 N   0  0  0  0  0  0  0  0  0  0  0  0
  190.1130  177.1450  143.5040 C   0  0  0  0  0  0  0  0  0  0  0  0
  186.5220  178.0690  145.5830 Cl  0  0  0  0  0  0  0  0  0  0  0  0
  191.3560  176.2320  139.5890 N   0  0  0  0  0  0  0  0  0  0  0  0
  189.4900  178.0760  138.0580 C   0  0  0  0  0  0  0  0  0  0  0  0
  191.2150  177.9470  142.8950 C   0  0  0  0  0  2  0  0  0  0  0  0
  190.9110  176.9830  140.5470 C   0  0  0  0  0  0  0  0  0  0  0  0
  190.7200  175.9210  138.3420 C   0  0  0  0  0  3  0  0  0  0  0  0
  188.8770  176.8020  142.7070 C   0  0  1  0  0  3  0  0  0  0  0  0
  187.1530  178.5200  141.3510 S   0  0  0  0  0  0  0  0  0  0  0  0
  190.2560  176.7010  144.6290 O   0  0  0  0  0  0  0  0  0  0  0  0
  189.0620  179.0330  136.9950 C   0  0  0  0  0  2  0  0  0  0  0  0
  187.7280  179.3930  137.1920 O   0  0  0  0  0  0  0  0  0  0  0  0
  187.0050  178.5620  136.3350 C   0  0  0  0  0  2  0  0  0  0  0  0
  186.1600  176.6290  137.4260 O   0  0  0  0  0  1  0  0  0  0  0  0
  185.8420  177.9410  137.0830 C   0  0  0  0  0  3  0  0  0  0  0  0
  185.5830  178.6720  138.2420 O   0  0  0  0  0  1  0  0  0  0  0  0
  189.3530  176.2390  136.4340 O   0  0  0  0  0  0  0  0  0  0  0  0
  189.1800  174.8620  136.1110 C   0  0  1  0  0  3  0  0  0  0  0  0
  188.4710  174.1500  137.2610 C   0  0  0  0  0  2  0  0  0  0  0  0
  187.0790  172.8180  135.6900 C   0  0  0  0  0  2  0  0  0  0  0  0
  188.4330  174.7200  134.8050 C   0  0  0  0  0  3  0  0  0  0  0  0
  188.0940  172.7400  136.8270 C   0  0  0  0  0  2  0  0  0  0  0  0
  187.5160  173.7630  134.6000 C   0  0  0  0  0  3  0  0  0  0  0  0
  2  8  1  0  0  0  0
  3 13  1  0  0  0  0
  3 16  2  0  0  0  0
  4 14  1  0  0  0  0
  5  1  1  1  0  0  0
  5  6  1  0  0  0  0
  5  9  1  0  0  0  0
  6  9  1  1  0  0  0
  8 15  1  0  0  0  0
  8  7  2  0  0  0  0
  9 11  1  0  0  0  0
 10 19  2  0  0  0  0
 12 15  2  0  0  0  0
 13  2  2  0  0  0  0
 14 10  1  0  0  0  0
 15  4  1  0  0  0  0
 16 12  1  0  0  0  0
 17  7  1  6  0  0  0
 17 10  1  0  0  0  0
 17  6  1  0  0  0  0
 18  7  1  0  0  0  0
 18  5  1  0  0  0  0
 20 21  1  0  0  0  0
 20 13  1  0  0  0  0
 22 24  1  0  0  0  0
 22 21  1  0  0  0  0
 24 23  1  0  0  0  0
 24 25  1  0  0  0  0
 26  3  1  0  0  0  0
 27 26  1  1  0  0  0
 27 28  1  0  0  0  0
 29 31  1  0  0  0  0
 30 27  1  0  0  0  0
 31 28  1  0  0  0  0
 32 30  2  0  0  0  0
 32 29  1  0  0  0  0
M  END
>  <MODEL>
5

>  <REMARK>
 VINA RESULT:      -6.8      1.728      2.170
  Name = 
  6 active torsions:
  status: ('A' for Active; 'I' for Inactive)
    1  A    between atoms: C_2  and  O_28
    2  A    between atoms: C_3  and  O_14
    3  A    between atoms: C_3  and  C_23
    4  A    between atoms: C_5  and  O_28
    5  A    between atoms: O_14  and  C_16
    6  A    between atoms: C_16  and  C_24
                            x       y       z     vdW  Elec       q    Type
                         _______ _______ _______ _____ _____    ______ ____

>  <TORSDO>
F 6

$$$$
=
 OpenBabel11042413123D

 32 36  0  0  1  0  0  0  0  0999 V2000
  186.3830  176.7730  145.6770 O   0  0  0  0  0  1  0  0  0  0  0  0
  188.6720  178.3110  140.7590 N   0  0  0  0  0  0  0  0  0  0  0  0
  189.2710  176.6350  139.0720 C   0  0  0  0  0  0  0  0  0  0  0  0
  192.0360  178.1350  142.3560 C   0  0  0  0  0  2  0  0  0  0  0  0
  187.4710  177.3750  145.0380 C   0  0  2  0  0  0  0  0  0  0  0  0
  188.7930  176.8760  145.3840 C   0  0  2  0  0  3  0  0  0  0  0  0
  188.9810  177.6590  143.0370 C   0  0  0  0  0  0  0  0  0  0  0  0
  189.4990  177.7920  141.8000 C   0  0  0  0  0  0  0  0  0  0  0  0
  188.3440  178.1900  145.9060 N   0  0  0  0  0  0  0  0  0  0  0  0
  190.9800  177.8290  144.5660 C   0  0  0  0  0  0  0  0  0  0  0  0
  188.0070  177.9430  147.6030 Cl  0  0  0  0  0  0  0  0  0  0  0  0
  191.3010  176.8390  140.4890 N   0  0  0  0  0  0  0  0  0  0  0  0
  188.6110  177.8790  139.5370 C   0  0  0  0  0  0  0  0  0  0  0  0
  191.5680  178.8310  143.6280 C   0  0  0  0  0  2  0  0  0  0  0  0
  190.9330  177.5430  141.5140 C   0  0  0  0  0  0  0  0  0  0  0  0
  190.4710  176.2120  139.5030 C   0  0  0  0  0  3  0  0  0  0  0  0
  189.7380  177.0560  144.1910 C   0  0  1  0  0  3  0  0  0  0  0  0
  187.2650  178.0380  143.3670 S   0  0  0  0  0  0  0  0  0  0  0  0
  191.5600  177.5830  145.6100 O   0  0  0  0  0  0  0  0  0  0  0  0
  187.6330  178.5400  138.6230 C   0  0  0  0  0  2  0  0  0  0  0  0
  186.4190  178.7280  139.2870 O   0  0  0  0  0  0  0  0  0  0  0  0
  185.4470  178.3170  138.3720 C   0  0  0  0  0  2  0  0  0  0  0  0
  183.5360  178.2170  139.7800 O   0  0  0  0  0  1  0  0  0  0  0  0
  184.1110  178.9350  138.7330 C   0  0  0  0  0  3  0  0  0  0  0  0
  184.2950  180.2600  139.1260 O   0  0  0  0  0  1  0  0  0  0  0  0
  188.5970  175.8960  138.0880 O   0  0  0  0  0  0  0  0  0  0  0  0
  189.1750  175.5020  136.8470 C   0  0  1  0  0  3  0  0  0  0  0  0
  189.9070  176.6870  136.2220 C   0  0  0  0  0  2  0  0  0  0  0  0
  191.7870  175.2420  135.4780 C   0  0  0  0  0  2  0  0  0  0  0  0
  190.0840  174.3120  137.0480 C   0  0  0  0  0  3  0  0  0  0  0  0
  190.7030  176.2120  135.0140 C   0  0  0  0  0  2  0  0  0  0  0  0
  191.2450  174.1730  136.3900 C   0  0  0  0  0  3  0  0  0  0  0  0
  2  8  1  0  0  0  0
  3 16  2  0  0  0  0
  3 13  1  0  0  0  0
  4 14  1  0  0  0  0
  5  6  1  0  0  0  0
  5  1  1  1  0  0  0
  5  9  1  0  0  0  0
  6  9  1  1  0  0  0
  7 18  1  0  0  0  0
  8  7  2  0  0  0  0
  9 11  1  0  0  0  0
 10 19  2  0  0  0  0
 12 15  2  0  0  0  0
 13  2  2  0  0  0  0
 14 10  1  0  0  0  0
 15  8  1  0  0  0  0
 15  4  1  0  0  0  0
 16 12  1  0  0  0  0
 17  7  1  6  0  0  0
 17 10  1  0  0  0  0
 17  6  1  0  0  0  0
 18  5  1  0  0  0  0
 20 21  1  0  0  0  0
 20 13  1  0  0  0  0
 22 24  1  0  0  0  0
 22 21  1  0  0  0  0
 24 25  1  0  0  0  0
 24 23  1  0  0  0  0
 26  3  1  0  0  0  0
 27 30  1  0  0  0  0
 27 26  1  1  0  0  0
 28 27  1  0  0  0  0
 29 32  1  0  0  0  0
 31 29  1  0  0  0  0
 31 28  1  0  0  0  0
 32 30  2  0  0  0  0
M  END
>  <MODEL>
6

>  <REMARK>
 VINA RESULT:      -6.7      2.239      2.847
  Name = 
  6 active torsions:
  status: ('A' for Active; 'I' for Inactive)
    1  A    between atoms: C_2  and  O_28
    2  A    between atoms: C_3  and  O_14
    3  A    between atoms: C_3  and  C_23
    4  A    between atoms: C_5  and  O_28
    5  A    between atoms: O_14  and  C_16
    6  A    between atoms: C_16  and  C_24
                            x       y       z     vdW  Elec       q    Type
                         _______ _______ _______ _____ _____    ______ ____

>  <TORSDO>
F 6

$$$$
=
 OpenBabel11042413123D

 32 36  0  0  1  0  0  0  0  0999 V2000
  181.8910  176.7910  137.9340 O   0  0  0  0  0  1  0  0  0  0  0  0
  185.7650  178.8780  141.4600 N   0  0  0  0  0  0  0  0  0  0  0  0
  187.1090  177.3920  142.8720 C   0  0  0  0  0  0  0  0  0  0  0  0
  183.1120  179.2060  144.0590 C   0  0  0  0  0  2  0  0  0  0  0  0
  182.1330  177.5910  139.0560 C   0  0  2  0  0  0  0  0  0  0  0  0
  181.3460  177.3070  140.2460 C   0  0  2  0  0  3  0  0  0  0  0  0
  183.5040  178.2000  141.0840 C   0  0  0  0  0  0  0  0  0  0  0  0
  184.4930  178.4660  141.9600 C   0  0  0  0  0  0  0  0  0  0  0  0
  181.0360  178.5070  139.4290 N   0  0  0  0  0  0  0  0  0  0  0  0
  181.3890  178.6430  142.3840 C   0  0  0  0  0  0  0  0  0  0  0  0
  179.5510  178.1420  138.5830 Cl  0  0  0  0  0  0  0  0  0  0  0  0
  185.0890  177.8780  144.2340 N   0  0  0  0  0  0  0  0  0  0  0  0
  186.9240  178.4890  141.8930 C   0  0  0  0  0  0  0  0  0  0  0  0
  182.0910  179.7650  143.0760 C   0  0  0  0  0  2  0  0  0  0  0  0
  184.2670  178.4710  143.4260 C   0  0  0  0  0  0  0  0  0  0  0  0
  186.2860  177.1590  143.9080 C   0  0  0  0  0  3  0  0  0  0  0  0
  182.1490  177.6890  141.4950 C   0  0  1  0  0  3  0  0  0  0  0  0
  183.7880  178.2740  139.3190 S   0  0  0  0  0  0  0  0  0  0  0  0
  180.2050  178.4580  142.6080 O   0  0  0  0  0  0  0  0  0  0  0  0
  188.1310  179.0120  141.1850 C   0  0  0  0  0  2  0  0  0  0  0  0
  187.9560  178.8990  139.8050 O   0  0  0  0  0  0  0  0  0  0  0  0
  189.1430  178.3290  139.3410 C   0  0  0  0  0  2  0  0  0  0  0  0
  189.0530  179.3920  137.2190 O   0  0  0  0  0  1  0  0  0  0  0  0
  189.0700  178.1440  137.8390 C   0  0  0  0  0  3  0  0  0  0  0  0
  190.1800  177.4240  137.3980 O   0  0  0  0  0  1  0  0  0  0  0  0
  188.2490  176.5890  142.7090 O   0  0  0  0  0  0  0  0  0  0  0  0
  189.2060  176.3400  143.7340 C   0  0  1  0  0  3  0  0  0  0  0  0
  190.5860  176.1450  143.1120 C   0  0  0  0  0  2  0  0  0  0  0  0
  191.6810  177.4480  144.9240 C   0  0  0  0  0  2  0  0  0  0  0  0
  189.1910  177.4610  144.7480 C   0  0  0  0  0  3  0  0  0  0  0  0
  191.6360  176.0980  144.2140 C   0  0  0  0  0  2  0  0  0  0  0  0
  190.3090  177.9290  145.3210 C   0  0  0  0  0  3  0  0  0  0  0  0
  2 13  2  0  0  0  0
  2  8  1  0  0  0  0
  3 16  2  0  0  0  0
  5  1  1  6  0  0  0
  5 18  1  0  0  0  0
  5  9  1  0  0  0  0
  5  6  1  0  0  0  0
  6  9  1  6  0  0  0
  6 17  1  0  0  0  0
  7  8  2  0  0  0  0
  8 15  1  0  0  0  0
 10 19  2  0  0  0  0
 10 14  1  0  0  0  0
 11  9  1  0  0  0  0
 13  3  1  0  0  0  0
 14  4  1  0  0  0  0
 15  4  1  0  0  0  0
 15 12  2  0  0  0  0
 16 12  1  0  0  0  0
 17  7  1  6  0  0  0
 17 10  1  0  0  0  0
 18  7  1  0  0  0  0
 20 13  1  0  0  0  0
 21 20  1  0  0  0  0
 22 21  1  0  0  0  0
 23 24  1  0  0  0  0
 24 22  1  0  0  0  0
 25 24  1  0  0  0  0
 26  3  1  0  0  0  0
 27 26  1  6  0  0  0
 27 30  1  0  0  0  0
 28 27  1  0  0  0  0
 28 31  1  0  0  0  0
 29 32  1  0  0  0  0
 30 32  2  0  0  0  0
 31 29  1  0  0  0  0
M  END
>  <MODEL>
7

>  <REMARK>
 VINA RESULT:      -6.5      4.217      7.986
  Name = 
  6 active torsions:
  status: ('A' for Active; 'I' for Inactive)
    1  A    between atoms: C_2  and  O_28
    2  A    between atoms: C_3  and  O_14
    3  A    between atoms: C_3  and  C_23
    4  A    between atoms: C_5  and  O_28
    5  A    between atoms: O_14  and  C_16
    6  A    between atoms: C_16  and  C_24
                            x       y       z     vdW  Elec       q    Type
                         _______ _______ _______ _____ _____    ______ ____

>  <TORSDO>
F 6

$$$$
=
 OpenBabel11042413123D

 32 36  0  0  1  0  0  0  0  0999 V2000
  186.4210  179.6060  136.9460 O   0  0  0  0  0  1  0  0  0  0  0  0
  188.6650  176.7390  141.2510 N   0  0  0  0  0  0  0  0  0  0  0  0
  190.0690  177.8650  142.9150 C   0  0  0  0  0  0  0  0  0  0  0  0
  191.5960  175.9380  139.0900 C   0  0  0  0  0  2  0  0  0  0  0  0
  187.2930  178.5850  137.3350 C   0  0  2  0  0  0  0  0  0  0  0  0
  188.6420  178.6320  136.7920 C   0  0  2  0  0  3  0  0  0  0  0  0
  188.8640  177.5340  139.0060 C   0  0  2  0  0  3  0  0  0  0  0  0
  189.4680  177.0680  140.1170 C   0  0  0  0  0  0  0  0  0  0  0  0
  187.6740  177.6370  136.2680 N   0  0  0  0  0  0  0  0  0  0  0  0
  190.4220  176.8780  137.1330 C   0  0  0  0  0  0  0  0  0  0  0  0
  187.2120  178.2060  134.6810 Cl  0  0  0  0  0  0  0  0  0  0  0  0
  191.6600  177.1530  141.1450 N   0  0  0  0  0  0  0  0  0  0  0  0
  188.9420  177.0010  142.4910 C   0  0  1  0  0  3  0  0  0  0  0  0
  190.7300  175.6210  137.8770 C   0  0  0  0  0  2  0  0  0  0  0  0
  190.9180  176.7620  140.1570 C   0  0  0  0  0  0  0  0  0  0  0  0
  191.2670  177.8950  142.3060 C   0  0  0  0  0  3  0  0  0  0  0  0
  189.6150  177.9800  137.7800 C   0  0  1  0  0  3  0  0  0  0  0  0
  187.0990  177.8230  138.9650 S   0  0  0  0  0  0  0  0  0  0  0  0
  190.8960  177.0410  136.0220 O   0  0  0  0  0  0  0  0  0  0  0  0
  187.9310  176.6090  143.5170 C   0  0  0  0  0  2  0  0  0  0  0  0
  186.7630  177.3520  143.3380 O   0  0  0  0  0  0  0  0  0  0  0  0
  186.3720  177.7180  144.6270 C   0  0  0  0  0  2  0  0  0  0  0  0
  184.2600  178.2600  143.6860 O   0  0  0  0  0  1  0  0  0  0  0  0
  185.2440  178.7270  144.5540 C   0  0  0  0  0  3  0  0  0  0  0  0
  184.6930  178.9110  145.8230 O   0  0  0  0  0  1  0  0  0  0  0  0
  189.8600  178.6570  144.0550 O   0  0  0  0  0  0  0  0  0  0  0  0
  190.4300  178.3880  145.3320 C   0  0  1  0  0  3  0  0  0  0  0  0
  189.3300  177.9850  146.3110 C   0  0  0  0  0  2  0  0  0  0  0  0
  190.7570  176.2190  147.3220 C   0  0  0  0  0  2  0  0  0  0  0  0
  191.5030  177.3300  145.2150 C   0  0  0  0  0  3  0  0  0  0  0  0
  189.9590  177.4890  147.6050 C   0  0  0  0  0  2  0  0  0  0  0  0
  191.6800  176.3770  146.1410 C   0  0  0  0  0  3  0  0  0  0  0  0
  2 13  1  0  0  0  0
  3 26  1  0  0  0  0
  4 15  1  0  0  0  0
  5  1  1  6  0  0  0
  5 18  1  0  0  0  0
  6  9  1  6  0  0  0
  6  5  1  0  0  0  0
  6 17  1  0  0  0  0
  7 18  1  1  0  0  0
  7  8  1  0  0  0  0
  8 15  1  0  0  0  0
  8  2  2  0  0  0  0
  9  5  1  0  0  0  0
 10 14  1  0  0  0  0
 11  9  1  0  0  0  0
 12 16  1  0  0  0  0
 13  3  1  0  0  0  0
 13 20  1  6  0  0  0
 14  4  1  0  0  0  0
 15 12  2  0  0  0  0
 16  3  2  0  0  0  0
 17 10  1  6  0  0  0
 17  7  1  0  0  0  0
 19 10  2  0  0  0  0
 21 20  1  0  0  0  0
 21 22  1  0  0  0  0
 23 24  1  0  0  0  0
 24 22  1  0  0  0  0
 24 25  1  0  0  0  0
 27 26  1  6  0  0  0
 27 28  1  0  0  0  0
 28 31  1  0  0  0  0
 29 31  1  0  0  0  0
 30 27  1  0  0  0  0
 30 32  2  0  0  0  0
 32 29  1  0  0  0  0
M  END
>  <MODEL>
8

>  <REMARK>
 VINA RESULT:      -6.4      3.735      7.305
  Name = 
  6 active torsions:
  status: ('A' for Active; 'I' for Inactive)
    1  A    between atoms: C_2  and  O_28
    2  A    between atoms: C_3  and  O_14
    3  A    between atoms: C_3  and  C_23
    4  A    between atoms: C_5  and  O_28
    5  A    between atoms: O_14  and  C_16
    6  A    between atoms: C_16  and  C_24
                            x       y       z     vdW  Elec       q    Type
                         _______ _______ _______ _____ _____    ______ ____

>  <TORSDO>
F 6

$$$$
=
 OpenBabel11042413123D

 32 36  0  0  1  0  0  0  0  0999 V2000
  190.7250  176.3770  140.8500 O   0  0  0  0  0  1  0  0  0  0  0  0
  186.1460  178.4810  138.3210 N   0  0  0  0  0  0  0  0  0  0  0  0
  184.1060  177.1410  138.0980 C   0  0  0  0  0  0  0  0  0  0  0  0
  187.4860  177.2710  135.0590 C   0  0  0  0  0  2  0  0  0  0  0  0
  190.1760  176.8730  139.6640 C   0  0  2  0  0  0  0  0  0  0  0  0
  190.3340  176.0510  138.4740 C   0  0  2  0  0  3  0  0  0  0  0  0
  188.2080  177.2850  138.1410 C   0  0  2  0  0  3  0  0  0  0  0  0
  187.0040  177.5850  137.6140 C   0  0  0  0  0  0  0  0  0  0  0  0
  191.1530  177.2780  138.6340 N   0  0  0  0  0  0  0  0  0  0  0  0
  189.6290  176.6980  136.1410 C   0  0  0  0  0  0  0  0  0  0  0  0
  192.7710  176.7290  139.0040 Cl  0  0  0  0  0  0  0  0  0  0  0  0
  185.4230  176.6040  136.0610 N   0  0  0  0  0  0  0  0  0  0  0  0
  184.8650  178.3560  138.4790 C   0  0  1  0  0  3  0  0  0  0  0  0
  188.9020  177.7440  135.3620 C   0  0  0  0  0  2  0  0  0  0  0  0
  186.5940  177.1200  136.2670 C   0  0  0  0  0  0  0  0  0  0  0  0
  184.3690  176.3970  137.0110 C   0  0  0  0  0  3  0  0  0  0  0  0
  189.1600  176.2980  137.5200 C   0  0  1  0  0  3  0  0  0  0  0  0
  188.7030  177.9220  139.7370 S   0  0  0  0  0  0  0  0  0  0  0  0
  190.5610  176.1120  135.6190 O   0  0  0  0  0  0  0  0  0  0  0  0
  184.1710  179.3900  139.3020 C   0  0  0  0  0  2  0  0  0  0  0  0
  184.9120  179.6520  140.4550 O   0  0  0  0  0  0  0  0  0  0  0  0
  184.3110  178.8770  141.4480 C   0  0  0  0  0  2  0  0  0  0  0  0
  184.4810  178.2650  143.7370 O   0  0  0  0  0  1  0  0  0  0  0  0
  185.1640  178.8980  142.7010 C   0  0  0  0  0  3  0  0  0  0  0  0
  186.3660  178.2310  142.4650 O   0  0  0  0  0  1  0  0  0  0  0  0
  183.0210  176.7950  138.9180 O   0  0  0  0  0  0  0  0  0  0  0  0
  181.6840  176.6380  138.4540 C   0  0  1  0  0  3  0  0  0  0  0  0
  181.2700  175.1720  138.5620 C   0  0  0  0  0  2  0  0  0  0  0  0
  178.9950  175.7850  139.3530 C   0  0  0  0  0  2  0  0  0  0  0  0
  180.7530  177.5510  139.2180 C   0  0  0  0  0  3  0  0  0  0  0  0
  179.7810  175.0430  138.2750 C   0  0  0  0  0  2  0  0  0  0  0  0
  179.5180  177.1790  139.5830 C   0  0  0  0  0  3  0  0  0  0  0  0
  2 13  1  0  0  0  0
  3 13  1  0  0  0  0
  3 26  1  0  0  0  0
  4 14  1  0  0  0  0
  4 15  1  0  0  0  0
  5 18  1  0  0  0  0
  5  1  1  1  0  0  0
  6  9  1  6  0  0  0
  6  5  1  0  0  0  0
  7  8  1  1  0  0  0
  7 18  1  0  0  0  0
  8  2  2  0  0  0  0
  9 11  1  0  0  0  0
  9  5  1  0  0  0  0
 12 15  2  0  0  0  0
 12 16  1  0  0  0  0
 13 20  1  1  0  0  0
 14 10  1  0  0  0  0
 15  8  1  0  0  0  0
 16  3  2  0  0  0  0
 17 10  1  6  0  0  0
 17  7  1  0  0  0  0
 17  6  1  0  0  0  0
 19 10  2  0  0  0  0
 20 21  1  0  0  0  0
 21 22  1  0  0  0  0
 22 24  1  0  0  0  0
 24 23  1  0  0  0  0
 25 24  1  0  0  0  0
 27 28  1  0  0  0  0
 27 26  1  1  0  0  0
 27 30  1  0  0  0  0
 29 32  1  0  0  0  0
 30 32  2  0  0  0  0
 31 28  1  0  0  0  0
 31 29  1  0  0  0  0
M  END
>  <MODEL>
9

>  <REMARK>
 VINA RESULT:      -6.3      3.194      5.501
  Name = 
  6 active torsions:
  status: ('A' for Active; 'I' for Inactive)
    1  A    between atoms: C_2  and  O_28
    2  A    between atoms: C_3  and  O_14
    3  A    between atoms: C_3  and  C_23
    4  A    between atoms: C_5  and  O_28
    5  A    between atoms: O_14  and  C_16
    6  A    between atoms: C_16  and  C_24
                            x       y       z     vdW  Elec       q    Type
                         _______ _______ _______ _____ _____    ______ ____

>  <TORSDO>
F 6

$$$$
