=
 OpenBabel11042412503D

 46 49  0  0  1  0  0  0  0  0999 V2000
  188.2130  178.7970  137.6890 O   0  0  0  0  0  0  0  0  0  0  0  0
  188.2050  177.9380  136.7640 C   0  0  0  0  0  0  0  0  0  0  0  0
  185.6730  177.9690  138.2430 N   0  0  0  0  0  0  0  0  0  0  0  0
  185.7680  177.2820  137.1450 C   0  0  0  0  0  0  0  0  0  0  0  0
  187.0080  177.2250  136.4310 N   0  0  0  0  0  2  0  0  0  0  0  0
  181.6440  173.1370  135.7320 F   0  0  0  0  0  0  0  0  0  0  0  0
  184.6460  176.4700  136.6370 C   0  0  0  0  0  0  0  0  0  0  0  0
  184.8660  172.9800  137.5260 C   0  0  0  0  0  3  0  0  0  0  0  0
  183.4250  177.0040  135.9500 C   0  0  0  0  0  3  0  0  0  0  0  0
  185.2580  174.2830  137.4320 N   0  0  0  0  0  0  0  0  0  0  0  0
  182.7930  173.4990  136.3570 C   0  0  1  0  0  3  0  0  0  0  0  0
  183.6320  172.5520  136.9960 C   0  0  0  0  0  0  0  0  0  0  0  0
  184.4480  175.1750  136.8080 C   0  0  0  0  0  0  0  0  0  0  0  0
  182.5930  175.8080  135.7740 N   0  0  0  0  0  0  0  0  0  0  0  0
  183.2350  174.8190  136.2910 C   0  0  0  0  0  0  0  0  0  0  0  0
  183.3170  171.1890  137.0810 O   0  0  0  0  0  0  0  0  0  0  0  0
  183.4030  170.2690  136.0320 C   0  0  0  0  0  0  0  0  0  0  0  0
  182.3780  169.8850  135.4110 O   0  0  0  0  0  0  0  0  0  0  0  0
  184.6060  169.7150  135.7330 F   0  0  0  0  0  0  0  0  0  0  0  0
  183.9220  179.1730  139.4870 C   0  0  0  0  0  0  0  0  0  0  0  0
  184.3150  180.2790  139.0320 O   0  0  0  0  0  0  0  0  0  0  0  0
  184.5260  177.9590  139.0480 N   0  0  0  0  0  2  0  0  0  0  0  0
  182.8720  179.1380  140.5390 C   0  0  0  0  0  2  0  0  0  0  0  0
  183.4100  178.4960  141.7300 N   0  0  0  0  0  2  0  0  0  0  0  0
  184.4610  179.2700  142.1720 O   0  0  0  0  0  0  0  0  0  0  0  0
  185.6800  178.6980  142.5420 C   0  0  0  0  0  0  0  0  0  0  0  0
  186.7070  178.8710  141.8330 O   0  0  0  0  0  0  0  0  0  0  0  0
  187.2890  177.8920  145.6670 C   0  0  0  0  0  2  0  0  0  0  0  0
  185.7690  177.8500  143.7700 C   0  0  2  0  0  3  0  0  0  0  0  0
  186.2040  178.6820  144.9640 C   0  0  1  0  0  3  0  0  0  0  0  0
  186.8010  176.7430  143.6050 C   0  0  0  0  0  2  0  0  0  0  0  0
  187.9250  177.0130  144.5980 C   0  0  1  0  0  3  0  0  0  0  0  0
  189.8970  176.8960  142.9450 C   0  0  1  0  0  3  0  0  0  0  0  0
  191.6000  178.7620  143.9610 S   0  0  0  0  0  0  0  0  0  0  0  0
  189.1320  176.6170  141.7450 N   0  0  0  0  0  1  0  0  0  0  0  0
  190.5100  177.3300  145.9860 C   0  0  0  0  0  1  0  0  0  0  0  0
  191.1220  177.6970  142.5650 C   0  0  0  0  0  2  0  0  0  0  0  0
  189.1000  177.7520  143.9180 C   0  0  2  0  0  3  0  0  0  0  0  0
  190.1130  178.3300  144.9040 C   0  0  2  0  0  3  0  0  0  0  0  0
  183.6770  178.6800  145.2900 C   0  0  0  0  0  1  0  0  0  0  0  0
  185.0390  179.0120  145.8980 C   0  0  0  0  0  2  0  0  0  0  0  0
  189.4660  177.6420  136.0240 C   0  0  0  0  0  2  0  0  0  0  0  0
  190.2120  176.5380  136.6850 C   0  0  0  0  0  0  0  0  0  0  0  0
  191.6030  176.3740  136.4340 N   0  0  0  0  0  2  0  0  0  0  0  0
  192.3860  175.3680  137.1160 C   0  0  0  0  0  1  0  0  0  0  0  0
  189.6180  175.7920  137.5060 O   0  0  0  0  0  0  0  0  0  0  0  0
  2  1  2  0  0  0  0
  3 22  1  0  0  0  0
  4  3  2  0  0  0  0
  5  2  1  0  0  0  0
  5  4  1  0  0  0  0
  7 13  1  0  0  0  0
  7  4  1  0  0  0  0
  9  7  2  0  0  0  0
 10  8  1  0  0  0  0
 11  6  1  6  0  0  0
 11 12  1  0  0  0  0
 12 16  1  0  0  0  0
 12  8  2  0  0  0  0
 13 10  2  0  0  0  0
 14  9  1  0  0  0  0
 14 15  2  0  0  0  0
 15 11  1  0  0  0  0
 15 13  1  0  0  0  0
 17 16  1  0  0  0  0
 18 17  2  0  0  0  0
 19 17  1  0  0  0  0
 20 23  1  0  0  0  0
 21 20  2  0  0  0  0
 22 20  1  0  0  0  0
 23 24  1  0  0  0  0
 24 25  1  0  0  0  0
 25 26  1  0  0  0  0
 27 26  2  0  0  0  0
 29 26  1  6  0  0  0
 29 30  1  0  0  0  0
 30 28  1  0  0  0  0
 30 41  1  1  0  0  0
 31 29  1  0  0  0  0
 32 31  1  6  0  0  0
 32 28  1  0  0  0  0
 33 35  1  6  0  0  0
 33 38  1  0  0  0  0
 34 39  1  0  0  0  0
 37 33  1  0  0  0  0
 37 34  1  0  0  0  0
 38 32  1  1  0  0  0
 38 39  1  0  0  0  0
 39 36  1  1  0  0  0
 40 41  1  0  0  0  0
 42 43  1  0  0  0  0
 42  2  1  0  0  0  0
 43 46  2  0  0  0  0
 44 43  1  0  0  0  0
 44 45  1  0  0  0  0
M  END
>  <MODEL>
1

>  <REMARK>
 VINA RESULT:      -8.1      0.000      0.000
  Name = 
  13 active torsions:
  status: ('A' for Active; 'I' for Inactive)
    1  A    between atoms: C_2  and  C_28
    2  A    between atoms: C_2  and  O_34
    3  A    between atoms: O_3  and  C_5
    4  A    between atoms: O_3  and  C_38
    5  A    between atoms: C_7  and  C_11
    6  A    between atoms: C_7  and  N_43
    7  A    between atoms: C_10  and  C_27
    8  A    between atoms: C_12  and  C_36
    9  A    between atoms: C_13  and  C_36
   10  A    between atoms: N_17  and  N_42
   11  A    between atoms: C_25  and  C_33
   12  A    between atoms: C_30  and  C_35
   13  A    between atoms: O_34  and  N_43
                            x       y       z     vdW  Elec       q    Type
                         _______ _______ _______ _____ _____    ______ ____

>  <TORSDO>
F 13

$$$$
=
 OpenBabel11042412503D

 46 49  0  0  1  0  0  0  0  0999 V2000
  187.1480  177.6960  146.6080 O   0  0  0  0  0  0  0  0  0  0  0  0
  188.1530  177.5090  145.8660 C   0  0  0  0  0  0  0  0  0  0  0  0
  185.7450  178.1210  144.3080 N   0  0  0  0  0  0  0  0  0  0  0  0
  186.9020  178.0890  143.7180 C   0  0  0  0  0  0  0  0  0  0  0  0
  188.0820  177.7540  144.4570 N   0  0  0  0  0  2  0  0  0  0  0  0
  188.3930  178.2910  137.8930 F   0  0  0  0  0  0  0  0  0  0  0  0
  187.0400  178.3050  142.2660 C   0  0  0  0  0  0  0  0  0  0  0  0
  190.1250  177.0250  140.8980 C   0  0  0  0  0  3  0  0  0  0  0  0
  185.9780  178.8530  141.3610 C   0  0  0  0  0  3  0  0  0  0  0  0
  189.2090  177.3440  141.8560 N   0  0  0  0  0  0  0  0  0  0  0  0
  188.6520  177.9080  139.1700 C   0  0  1  0  0  3  0  0  0  0  0  0
  189.8760  177.2940  139.5360 C   0  0  0  0  0  0  0  0  0  0  0  0
  188.0460  177.9410  141.4890 C   0  0  0  0  0  0  0  0  0  0  0  0
  186.5840  178.7410  140.0300 N   0  0  0  0  0  0  0  0  0  0  0  0
  187.7460  178.2100  140.1850 C   0  0  0  0  0  0  0  0  0  0  0  0
  190.8820  176.9870  138.6110 O   0  0  0  0  0  0  0  0  0  0  0  0
  190.8530  175.9260  137.7020 C   0  0  0  0  0  0  0  0  0  0  0  0
  190.7750  174.7320  138.0900 O   0  0  0  0  0  0  0  0  0  0  0  0
  190.9970  176.1840  136.3760 F   0  0  0  0  0  0  0  0  0  0  0  0
  183.3770  178.7980  144.2760 C   0  0  0  0  0  0  0  0  0  0  0  0
  183.4450  179.2020  145.4660 O   0  0  0  0  0  0  0  0  0  0  0  0
  184.5440  178.3190  143.6130 N   0  0  0  0  0  2  0  0  0  0  0  0
  182.0630  178.7540  143.5840 C   0  0  0  0  0  2  0  0  0  0  0  0
  182.2340  179.1890  142.2050 N   0  0  0  0  0  2  0  0  0  0  0  0
  181.3860  178.4300  141.4280 O   0  0  0  0  0  0  0  0  0  0  0  0
  181.8780  177.5230  140.4890 C   0  0  0  0  0  0  0  0  0  0  0  0
  183.1040  177.2320  140.4630 O   0  0  0  0  0  0  0  0  0  0  0  0
  180.9660  174.7400  138.3850 C   0  0  0  0  0  2  0  0  0  0  0  0
  180.9570  176.9080  139.4840 C   0  0  2  0  0  3  0  0  0  0  0  0
  180.8140  175.4160  139.7320 C   0  0  1  0  0  3  0  0  0  0  0  0
  181.4930  177.0700  138.0690 C   0  0  0  0  0  2  0  0  0  0  0  0
  181.8160  175.6780  137.5390 C   0  0  1  0  0  3  0  0  0  0  0  0
  184.2440  176.2070  136.8600 C   0  0  1  0  0  3  0  0  0  0  0  0
  185.4720  173.8060  137.2290 S   0  0  0  0  0  0  0  0  0  0  0  0
  184.2910  177.5730  137.3470 N   0  0  0  0  0  1  0  0  0  0  0  0
  183.0440  173.4180  136.0920 C   0  0  0  0  0  1  0  0  0  0  0  0
  185.6240  175.6020  136.9780 C   0  0  0  0  0  2  0  0  0  0  0  0
  183.3160  175.3530  137.7120 C   0  0  2  0  0  3  0  0  0  0  0  0
  183.6700  173.9000  137.3970 C   0  0  2  0  0  3  0  0  0  0  0  0
  179.5300  173.7190  141.1320 C   0  0  0  0  0  1  0  0  0  0  0  0
  179.4880  175.0630  140.4050 C   0  0  0  0  0  2  0  0  0  0  0  0
  189.4230  177.0020  146.4610 C   0  0  0  0  0  2  0  0  0  0  0  0
  190.5680  177.2660  145.5480 C   0  0  0  0  0  0  0  0  0  0  0  0
  190.6510  178.5090  144.8590 N   0  0  0  0  0  2  0  0  0  0  0  0
  191.7860  178.8430  144.0260 C   0  0  0  0  0  1  0  0  0  0  0  0
  191.4830  176.4100  145.4360 O   0  0  0  0  0  0  0  0  0  0  0  0
  2 42  1  0  0  0  0
  2  1  2  0  0  0  0
  4  3  2  0  0  0  0
  4  5  1  0  0  0  0
  5  2  1  0  0  0  0
  7  4  1  0  0  0  0
  8 10  1  0  0  0  0
  9  7  2  0  0  0  0
 11  6  1  1  0  0  0
 11 12  1  0  0  0  0
 11 15  1  0  0  0  0
 12  8  2  0  0  0  0
 13 10  2  0  0  0  0
 13  7  1  0  0  0  0
 14 15  2  0  0  0  0
 14  9  1  0  0  0  0
 15 13  1  0  0  0  0
 16 12  1  0  0  0  0
 17 18  2  0  0  0  0
 17 16  1  0  0  0  0
 19 17  1  0  0  0  0
 20 21  2  0  0  0  0
 22 20  1  0  0  0  0
 22  3  1  0  0  0  0
 23 20  1  0  0  0  0
 24 23  1  0  0  0  0
 25 24  1  0  0  0  0
 26 25  1  0  0  0  0
 27 26  2  0  0  0  0
 28 30  1  0  0  0  0
 29 30  1  0  0  0  0
 29 26  1  1  0  0  0
 30 41  1  6  0  0  0
 31 29  1  0  0  0  0
 32 31  1  1  0  0  0
 32 28  1  0  0  0  0
 33 37  1  0  0  0  0
 33 35  1  1  0  0  0
 33 38  1  0  0  0  0
 34 39  1  0  0  0  0
 37 34  1  0  0  0  0
 38 32  1  6  0  0  0
 39 36  1  6  0  0  0
 39 38  1  0  0  0  0
 41 40  1  0  0  0  0
 43 42  1  0  0  0  0
 44 43  1  0  0  0  0
 45 44  1  0  0  0  0
 46 43  2  0  0  0  0
M  END
>  <MODEL>
2

>  <REMARK>
 VINA RESULT:      -7.5      3.630      7.920
  Name = 
  13 active torsions:
  status: ('A' for Active; 'I' for Inactive)
    1  A    between atoms: C_2  and  C_28
    2  A    between atoms: C_2  and  O_34
    3  A    between atoms: O_3  and  C_5
    4  A    between atoms: O_3  and  C_38
    5  A    between atoms: C_7  and  C_11
    6  A    between atoms: C_7  and  N_43
    7  A    between atoms: C_10  and  C_27
    8  A    between atoms: C_12  and  C_36
    9  A    between atoms: C_13  and  C_36
   10  A    between atoms: N_17  and  N_42
   11  A    between atoms: C_25  and  C_33
   12  A    between atoms: C_30  and  C_35
   13  A    between atoms: O_34  and  N_43
                            x       y       z     vdW  Elec       q    Type
                         _______ _______ _______ _____ _____    ______ ____

>  <TORSDO>
F 13

$$$$
=
 OpenBabel11042412503D

 46 49  0  0  1  0  0  0  0  0999 V2000
  185.0500  179.6380  141.2460 O   0  0  0  0  0  0  0  0  0  0  0  0
  185.3380  178.9380  142.2570 C   0  0  0  0  0  0  0  0  0  0  0  0
  187.3940  178.7430  140.1760 N   0  0  0  0  0  0  0  0  0  0  0  0
  187.6200  178.2410  141.3520 C   0  0  0  0  0  0  0  0  0  0  0  0
  186.6120  178.2940  142.3680 N   0  0  0  0  0  2  0  0  0  0  0  0
  192.5110  175.6530  143.7130 F   0  0  0  0  0  0  0  0  0  0  0  0
  188.8720  177.5260  141.6650 C   0  0  0  0  0  0  0  0  0  0  0  0
  190.0140  178.0180  145.0530 C   0  0  0  0  0  3  0  0  0  0  0  0
  189.5670  176.5510  140.7630 C   0  0  0  0  0  3  0  0  0  0  0  0
  189.2270  178.1870  143.9520 N   0  0  0  0  0  0  0  0  0  0  0  0
  191.4050  176.4300  143.8380 C   0  0  0  0  0  0  0  0  0  0  0  0
  191.1180  177.1410  145.0300 C   0  0  0  0  0  0  0  0  0  0  0  0
  189.5220  177.5060  142.8150 C   0  0  1  0  0  3  0  0  0  0  0  0
  190.6670  176.0520  141.5970 N   0  0  0  0  0  0  0  0  0  0  0  0
  190.5690  176.6320  142.7420 C   0  0  0  0  0  0  0  0  0  0  0  0
  191.9140  177.0560  146.1800 O   0  0  0  0  0  0  0  0  0  0  0  0
  191.6570  176.2420  147.2860 C   0  0  0  0  0  0  0  0  0  0  0  0
  192.5880  175.6710  147.9110 O   0  0  0  0  0  0  0  0  0  0  0  0
  190.3700  175.9940  147.6430 F   0  0  0  0  0  0  0  0  0  0  0  0
  187.8630  178.1270  137.8380 C   0  0  0  0  0  0  0  0  0  0  0  0
  186.6380  177.9590  137.6040 O   0  0  0  0  0  0  0  0  0  0  0  0
  188.2930  178.6090  139.1080 N   0  0  0  0  0  2  0  0  0  0  0  0
  188.8710  177.7530  136.8100 C   0  0  0  0  0  2  0  0  0  0  0  0
  188.1960  177.1140  135.6890 N   0  0  0  0  0  2  0  0  0  0  0  0
  188.2080  175.7560  135.9240 O   0  0  0  0  0  0  0  0  0  0  0  0
  187.0930  174.9620  135.6520 C   0  0  0  0  0  0  0  0  0  0  0  0
  186.1490  175.4070  134.9450 O   0  0  0  0  0  0  0  0  0  0  0  0
  185.4150  171.7760  135.8440 C   0  0  0  0  0  2  0  0  0  0  0  0
  186.9950  173.5840  136.2220 C   0  0  2  0  0  3  0  0  0  0  0  0
  186.4920  172.6060  135.1750 C   0  0  1  0  0  3  0  0  0  0  0  0
  186.0120  173.5330  137.3830 C   0  0  0  0  0  2  0  0  0  0  0  0
  184.8470  172.6460  136.9570 C   0  0  1  0  0  3  0  0  0  0  0  0
  183.0660  174.4370  137.4640 C   0  0  1  0  0  3  0  0  0  0  0  0
  181.0790  173.7690  135.7280 S   0  0  0  0  0  0  0  0  0  0  0  0
  183.9680  175.5340  137.7620 N   0  0  0  0  0  1  0  0  0  0  0  0
  182.1220  171.5210  136.8220 C   0  0  0  0  0  1  0  0  0  0  0  0
  181.8020  175.0000  136.8560 C   0  0  0  0  0  2  0  0  0  0  0  0
  183.6680  173.4960  136.4320 C   0  0  2  0  0  3  0  0  0  0  0  0
  182.5070  172.6650  135.8880 C   0  0  2  0  0  3  0  0  0  0  0  0
  188.9330  171.9020  135.3540 C   0  0  0  0  0  1  0  0  0  0  0  0
  187.6130  171.7370  134.6040 C   0  0  0  0  0  2  0  0  0  0  0  0
  184.3280  178.7590  143.3400 C   0  0  0  0  0  2  0  0  0  0  0  0
  184.9790  178.8220  144.6760 C   0  0  0  0  0  0  0  0  0  0  0  0
  185.7500  177.7190  145.1400 N   0  0  0  0  0  2  0  0  0  0  0  0
  186.4690  177.7670  146.3940 C   0  0  0  0  0  1  0  0  0  0  0  0
  184.8900  179.8730  145.3610 O   0  0  0  0  0  0  0  0  0  0  0  0
  1  2  2  0  0  0  0
  2  5  1  0  0  0  0
  2 42  1  0  0  0  0
  3  4  2  0  0  0  0
  4  7  1  0  0  0  0
  4  5  1  0  0  0  0
  6 11  1  0  0  0  0
  9 14  1  0  0  0  0
  9  7  2  0  0  0  0
 10  8  2  0  0  0  0
 11 12  2  0  0  0  0
 12  8  1  0  0  0  0
 12 16  1  0  0  0  0
 13  7  1  1  0  0  0
 13 10  1  0  0  0  0
 14 15  2  0  0  0  0
 15 13  1  0  0  0  0
 15 11  1  0  0  0  0
 16 17  1  0  0  0  0
 17 19  1  0  0  0  0
 17 18  2  0  0  0  0
 20 22  1  0  0  0  0
 21 20  2  0  0  0  0
 22  3  1  0  0  0  0
 23 20  1  0  0  0  0
 24 25  1  0  0  0  0
 24 23  1  0  0  0  0
 26 25  1  0  0  0  0
 27 26  2  0  0  0  0
 29 26  1  6  0  0  0
 29 31  1  0  0  0  0
 30 41  1  1  0  0  0
 30 28  1  0  0  0  0
 30 29  1  0  0  0  0
 32 28  1  6  0  0  0
 32 31  1  0  0  0  0
 33 35  1  6  0  0  0
 34 39  1  0  0  0  0
 34 37  1  0  0  0  0
 37 33  1  0  0  0  0
 38 32  1  1  0  0  0
 38 33  1  0  0  0  0
 39 38  1  0  0  0  0
 39 36  1  1  0  0  0
 41 40  1  0  0  0  0
 42 43  1  0  0  0  0
 43 44  1  0  0  0  0
 43 46  2  0  0  0  0
 44 45  1  0  0  0  0
M  END
>  <MODEL>
3

>  <REMARK>
 VINA RESULT:      -7.5      4.464     10.116
  Name = 
  13 active torsions:
  status: ('A' for Active; 'I' for Inactive)
    1  A    between atoms: C_2  and  C_28
    2  A    between atoms: C_2  and  O_34
    3  A    between atoms: O_3  and  C_5
    4  A    between atoms: O_3  and  C_38
    5  A    between atoms: C_7  and  C_11
    6  A    between atoms: C_7  and  N_43
    7  A    between atoms: C_10  and  C_27
    8  A    between atoms: C_12  and  C_36
    9  A    between atoms: C_13  and  C_36
   10  A    between atoms: N_17  and  N_42
   11  A    between atoms: C_25  and  C_33
   12  A    between atoms: C_30  and  C_35
   13  A    between atoms: O_34  and  N_43
                            x       y       z     vdW  Elec       q    Type
                         _______ _______ _______ _____ _____    ______ ____

>  <TORSDO>
F 13

$$$$
=
 OpenBabel11042412503D

 46 49  0  0  1  0  0  0  0  0999 V2000
  186.2260  178.5260  146.7620 O   0  0  0  0  0  0  0  0  0  0  0  0
  187.3310  177.9250  146.8770 C   0  0  0  0  0  0  0  0  0  0  0  0
  186.3590  177.8970  144.1110 N   0  0  0  0  0  0  0  0  0  0  0  0
  187.5650  177.4930  144.3730 C   0  0  0  0  0  0  0  0  0  0  0  0
  188.0420  177.4630  145.7230 N   0  0  0  0  0  2  0  0  0  0  0  0
  190.9150  176.3250  139.5140 F   0  0  0  0  0  0  0  0  0  0  0  0
  188.4550  176.9690  143.3200 C   0  0  0  0  0  0  0  0  0  0  0  0
  188.3390  178.8640  140.2510 C   0  0  0  0  0  3  0  0  0  0  0  0
  189.4510  175.8620  143.4920 C   0  0  0  0  0  2  0  0  0  0  0  0
  187.9980  178.5000  141.5200 N   0  0  0  0  0  0  0  0  0  0  0  0
  190.0110  177.0950  140.1730 C   0  0  0  0  0  0  0  0  0  0  0  0
  189.3490  178.1790  139.5440 C   0  0  0  0  0  0  0  0  0  0  0  0
  188.6350  177.4530  142.1030 C   0  0  0  0  0  0  0  0  0  0  0  0
  190.1420  175.8320  142.1980 N   0  0  0  0  0  0  0  0  0  0  0  0
  189.6310  176.7650  141.4720 C   0  0  0  0  0  0  0  0  0  0  0  0
  189.6120  178.5720  138.2260 O   0  0  0  0  0  0  0  0  0  0  0  0
  188.7070  178.5050  137.1630 C   0  0  0  0  0  0  0  0  0  0  0  0
  188.0030  179.4960  136.8370 O   0  0  0  0  0  0  0  0  0  0  0  0
  188.5230  177.3220  136.5220 F   0  0  0  0  0  0  0  0  0  0  0  0
  184.8980  178.8310  142.3620 C   0  0  0  0  0  0  0  0  0  0  0  0
  184.7120  179.8790  143.0340 O   0  0  0  0  0  0  0  0  0  0  0  0
  185.7980  177.8290  142.8280 N   0  0  0  0  0  2  0  0  0  0  0  0
  184.1230  178.6060  141.1130 C   0  0  0  0  0  2  0  0  0  0  0  0
  184.6350  179.4810  140.0690 N   0  0  0  0  0  2  0  0  0  0  0  0
  183.9670  179.1640  138.9060 O   0  0  0  0  0  0  0  0  0  0  0  0
  184.2580  177.9980  138.1950 C   0  0  0  0  0  0  0  0  0  0  0  0
  185.4490  177.7080  137.9040 O   0  0  0  0  0  0  0  0  0  0  0  0
  182.8650  174.6860  137.8880 C   0  0  0  0  0  2  0  0  0  0  0  0
  183.1530  177.0960  137.7480 C   0  0  2  0  0  3  0  0  0  0  0  0
  182.9740  175.9450  138.7230 C   0  0  1  0  0  3  0  0  0  0  0  0
  183.4560  176.4790  136.3900 C   0  0  0  0  0  2  0  0  0  0  0  0
  183.6130  174.9760  136.5940 C   0  0  1  0  0  3  0  0  0  0  0  0
  185.8640  174.5580  135.4120 C   0  0  1  0  0  3  0  0  0  0  0  0
  187.0450  172.7490  137.0680 S   0  0  0  0  0  0  0  0  0  0  0  0
  186.0660  175.8980  134.8940 N   0  0  0  0  0  1  0  0  0  0  0  0
  184.4180  172.1440  136.7890 C   0  0  0  0  0  1  0  0  0  0  0  0
  187.2120  173.9400  135.7030 C   0  0  0  0  0  2  0  0  0  0  0  0
  185.1020  174.5880  136.7290 C   0  0  2  0  0  3  0  0  0  0  0  0
  185.3230  173.2230  137.3780 C   0  0  2  0  0  3  0  0  0  0  0  0
  180.8160  177.2320  139.1400 C   0  0  0  0  0  1  0  0  0  0  0  0
  181.7600  176.1360  139.6330 C   0  0  0  0  0  2  0  0  0  0  0  0
  187.8910  177.6700  148.2360 C   0  0  0  0  0  2  0  0  0  0  0  0
  189.3770  177.6350  148.1880 C   0  0  0  0  0  0  0  0  0  0  0  0
  190.0380  176.6060  147.4600 N   0  0  0  0  0  2  0  0  0  0  0  0
  191.4770  176.5780  147.3160 C   0  0  0  0  0  1  0  0  0  0  0  0
  190.0380  178.5480  148.7460 O   0  0  0  0  0  0  0  0  0  0  0  0
  1  2  2  0  0  0  0
  2 42  1  0  0  0  0
  3  4  2  0  0  0  0
  4  5  1  0  0  0  0
  5  2  1  0  0  0  0
  6 11  1  0  0  0  0
  7  9  1  0  0  0  0
  7  4  1  0  0  0  0
  8 10  2  0  0  0  0
 10 13  1  0  0  0  0
 11 15  1  0  0  0  0
 12 11  2  0  0  0  0
 12  8  1  0  0  0  0
 13  7  2  0  0  0  0
 14  9  1  0  0  0  0
 15 13  1  0  0  0  0
 15 14  2  0  0  0  0
 16 12  1  0  0  0  0
 17 16  1  0  0  0  0
 18 17  2  0  0  0  0
 19 17  1  0  0  0  0
 20 22  1  0  0  0  0
 20 21  2  0  0  0  0
 22  3  1  0  0  0  0
 23 20  1  0  0  0  0
 24 23  1  0  0  0  0
 25 24  1  0  0  0  0
 26 25  1  0  0  0  0
 27 26  2  0  0  0  0
 28 30  1  0  0  0  0
 29 26  1  1  0  0  0
 29 30  1  0  0  0  0
 30 41  1  6  0  0  0
 31 29  1  0  0  0  0
 32 31  1  1  0  0  0
 32 28  1  0  0  0  0
 33 35  1  1  0  0  0
 33 37  1  0  0  0  0
 33 38  1  0  0  0  0
 34 39  1  0  0  0  0
 37 34  1  0  0  0  0
 38 32  1  6  0  0  0
 38 39  1  0  0  0  0
 39 36  1  6  0  0  0
 40 41  1  0  0  0  0
 43 42  1  0  0  0  0
 43 46  2  0  0  0  0
 44 43  1  0  0  0  0
 45 44  1  0  0  0  0
M  END
>  <MODEL>
4

>  <REMARK>
 VINA RESULT:      -7.4      3.509      8.517
  Name = 
  13 active torsions:
  status: ('A' for Active; 'I' for Inactive)
    1  A    between atoms: C_2  and  C_28
    2  A    between atoms: C_2  and  O_34
    3  A    between atoms: O_3  and  C_5
    4  A    between atoms: O_3  and  C_38
    5  A    between atoms: C_7  and  C_11
    6  A    between atoms: C_7  and  N_43
    7  A    between atoms: C_10  and  C_27
    8  A    between atoms: C_12  and  C_36
    9  A    between atoms: C_13  and  C_36
   10  A    between atoms: N_17  and  N_42
   11  A    between atoms: C_25  and  C_33
   12  A    between atoms: C_30  and  C_35
   13  A    between atoms: O_34  and  N_43
                            x       y       z     vdW  Elec       q    Type
                         _______ _______ _______ _____ _____    ______ ____

>  <TORSDO>
F 13

$$$$
=
 OpenBabel11042412503D

 46 49  0  0  1  0  0  0  0  0999 V2000
  193.4370  176.7720  137.1960 O   0  0  0  0  0  0  0  0  0  0  0  0
  193.1010  175.8640  136.3850 C   0  0  0  0  0  0  0  0  0  0  0  0
  190.9580  176.4700  138.2930 N   0  0  0  0  0  0  0  0  0  0  0  0
  190.7150  175.7000  137.2760 C   0  0  0  0  0  0  0  0  0  0  0  0
  191.7590  175.3630  136.3560 N   0  0  0  0  0  2  0  0  0  0  0  0
  185.0560  174.1530  135.9430 F   0  0  0  0  0  0  0  0  0  0  0  0
  189.3940  175.0750  137.0720 C   0  0  0  0  0  0  0  0  0  0  0  0
  186.8880  177.3560  135.8300 C   0  0  0  0  0  3  0  0  0  0  0  0
  189.0940  173.6120  137.1980 C   0  0  0  0  0  2  0  0  0  0  0  0
  188.1030  176.9550  136.3030 N   0  0  0  0  0  0  0  0  0  0  0  0
  186.0540  175.0720  135.9840 C   0  0  0  0  0  0  0  0  0  0  0  0
  185.8350  176.4340  135.6570 C   0  0  0  0  0  0  0  0  0  0  0  0
  188.2920  175.6490  136.6210 C   0  0  0  0  0  0  0  0  0  0  0  0
  187.6920  173.5220  136.7760 N   0  0  0  0  0  0  0  0  0  0  0  0
  187.3140  174.7110  136.4580 C   0  0  0  0  0  0  0  0  0  0  0  0
  184.5990  176.9230  135.2170 O   0  0  0  0  0  0  0  0  0  0  0  0
  183.5080  177.2280  136.0360 C   0  0  0  0  0  0  0  0  0  0  0  0
  182.3270  176.9930  135.6710 O   0  0  0  0  0  0  0  0  0  0  0  0
  183.7230  177.8660  137.2150 F   0  0  0  0  0  0  0  0  0  0  0  0
  189.3690  178.0010  139.3870 C   0  0  0  0  0  0  0  0  0  0  0  0
  189.5260  178.8610  138.4810 O   0  0  0  0  0  0  0  0  0  0  0  0
  190.0100  176.7310  139.2910 N   0  0  0  0  0  2  0  0  0  0  0  0
  188.5690  178.3360  140.5950 C   0  0  0  0  0  2  0  0  0  0  0  0
  187.2000  178.6270  140.1950 N   0  0  0  0  0  2  0  0  0  0  0  0
  186.3690  178.0270  141.1160 O   0  0  0  0  0  0  0  0  0  0  0  0
  186.1160  178.6130  142.3580 C   0  0  0  0  0  0  0  0  0  0  0  0
  185.9850  179.8620  142.4590 O   0  0  0  0  0  0  0  0  0  0  0  0
  187.3770  177.6860  145.6070 C   0  0  0  0  0  2  0  0  0  0  0  0
  186.0290  177.7650  143.5850 C   0  0  2  0  0  3  0  0  0  0  0  0
  186.4260  178.5610  144.8160 C   0  0  1  0  0  3  0  0  0  0  0  0
  186.9740  176.5750  143.5060 C   0  0  0  0  0  2  0  0  0  0  0  0
  188.0280  176.7540  144.5940 C   0  0  1  0  0  3  0  0  0  0  0  0
  190.3940  176.3860  143.6450 C   0  0  1  0  0  3  0  0  0  0  0  0
  191.6490  178.6990  144.3400 S   0  0  0  0  0  0  0  0  0  0  0  0
  190.0190  175.6290  142.4660 N   0  0  0  0  0  1  0  0  0  0  0  0
  190.0890  177.8620  146.3910 C   0  0  0  0  0  1  0  0  0  0  0  0
  191.6400  177.1840  143.3340 C   0  0  0  0  0  2  0  0  0  0  0  0
  189.3140  177.3890  144.0210 C   0  0  2  0  0  3  0  0  0  0  0  0
  189.9750  178.3920  144.9650 C   0  0  2  0  0  3  0  0  0  0  0  0
  185.4400  178.8270  147.1500 C   0  0  0  0  0  1  0  0  0  0  0  0
  185.2170  178.9910  145.6470 C   0  0  0  0  0  2  0  0  0  0  0  0
  194.1210  175.2870  135.4620 C   0  0  0  0  0  2  0  0  0  0  0  0
  195.4930  175.6140  135.9320 C   0  0  0  0  0  0  0  0  0  0  0  0
  196.2550  174.6330  136.6280 N   0  0  0  0  0  2  0  0  0  0  0  0
  197.6220  174.8760  137.0320 C   0  0  0  0  0  1  0  0  0  0  0  0
  195.9920  176.7360  135.6610 O   0  0  0  0  0  0  0  0  0  0  0  0
  2  1  2  0  0  0  0
  3 22  1  0  0  0  0
  4  3  2  0  0  0  0
  5  2  1  0  0  0  0
  5  4  1  0  0  0  0
  6 11  1  0  0  0  0
  7  9  1  0  0  0  0
  7  4  1  0  0  0  0
  8 10  2  0  0  0  0
 10 13  1  0  0  0  0
 11 15  1  0  0  0  0
 12  8  1  0  0  0  0
 12 11  2  0  0  0  0
 13  7  2  0  0  0  0
 14  9  1  0  0  0  0
 15 13  1  0  0  0  0
 15 14  2  0  0  0  0
 16 12  1  0  0  0  0
 16 17  1  0  0  0  0
 17 19  1  0  0  0  0
 18 17  2  0  0  0  0
 20 23  1  0  0  0  0
 21 20  2  0  0  0  0
 22 20  1  0  0  0  0
 24 23  1  0  0  0  0
 24 25  1  0  0  0  0
 25 26  1  0  0  0  0
 26 27  2  0  0  0  0
 29 26  1  6  0  0  0
 29 30  1  0  0  0  0
 30 28  1  0  0  0  0
 30 41  1  1  0  0  0
 31 29  1  0  0  0  0
 32 31  1  6  0  0  0
 32 28  1  0  0  0  0
 33 35  1  6  0  0  0
 33 38  1  0  0  0  0
 34 39  1  0  0  0  0
 37 33  1  0  0  0  0
 37 34  1  0  0  0  0
 38 32  1  1  0  0  0
 38 39  1  0  0  0  0
 39 36  1  1  0  0  0
 41 40  1  0  0  0  0
 42 43  1  0  0  0  0
 42  2  1  0  0  0  0
 43 44  1  0  0  0  0
 44 45  1  0  0  0  0
 46 43  2  0  0  0  0
M  END
>  <MODEL>
5

>  <REMARK>
 VINA RESULT:      -7.2      2.760      4.401
  Name = 
  13 active torsions:
  status: ('A' for Active; 'I' for Inactive)
    1  A    between atoms: C_2  and  C_28
    2  A    between atoms: C_2  and  O_34
    3  A    between atoms: O_3  and  C_5
    4  A    between atoms: O_3  and  C_38
    5  A    between atoms: C_7  and  C_11
    6  A    between atoms: C_7  and  N_43
    7  A    between atoms: C_10  and  C_27
    8  A    between atoms: C_12  and  C_36
    9  A    between atoms: C_13  and  C_36
   10  A    between atoms: N_17  and  N_42
   11  A    between atoms: C_25  and  C_33
   12  A    between atoms: C_30  and  C_35
   13  A    between atoms: O_34  and  N_43
                            x       y       z     vdW  Elec       q    Type
                         _______ _______ _______ _____ _____    ______ ____

>  <TORSDO>
F 13

$$$$
=
 OpenBabel11042412503D

 46 49  0  0  1  0  0  0  0  0999 V2000
  191.6880  176.0270  144.8030 O   0  0  0  0  0  0  0  0  0  0  0  0
  190.8800  176.9180  145.1860 C   0  0  0  0  0  0  0  0  0  0  0  0
  190.5790  176.3320  142.3290 N   0  0  0  0  0  0  0  0  0  0  0  0
  189.7040  177.0820  142.9280 C   0  0  0  0  0  0  0  0  0  0  0  0
  189.8570  177.4090  144.3130 N   0  0  0  0  0  2  0  0  0  0  0  0
  184.6430  179.7040  141.0030 F   0  0  0  0  0  0  0  0  0  0  0  0
  188.5770  177.6950  142.1990 C   0  0  0  0  0  0  0  0  0  0  0  0
  185.6900  178.3340  144.2670 C   0  0  0  0  0  3  0  0  0  0  0  0
  188.6160  178.1750  140.7790 C   0  0  0  0  0  3  0  0  0  0  0  0
  186.9340  177.8760  143.9480 N   0  0  0  0  0  0  0  0  0  0  0  0
  185.3980  179.1750  141.9990 C   0  0  1  0  0  3  0  0  0  0  0  0
  184.8900  178.9920  143.3100 C   0  0  0  0  0  0  0  0  0  0  0  0
  187.4010  178.0500  142.6860 C   0  0  0  0  0  0  0  0  0  0  0  0
  187.3000  178.7980  140.6030 N   0  0  0  0  0  0  0  0  0  0  0  0
  186.6770  178.6950  141.7250 C   0  0  0  0  0  0  0  0  0  0  0  0
  183.6020  179.3890  143.6910 O   0  0  0  0  0  0  0  0  0  0  0  0
  182.4160  178.7310  143.3520 C   0  0  0  0  0  0  0  0  0  0  0  0
  182.0370  178.6380  142.1560 O   0  0  0  0  0  0  0  0  0  0  0  0
  181.6150  178.2570  144.3400 F   0  0  0  0  0  0  0  0  0  0  0  0
  191.4420  176.7460  140.0600 C   0  0  0  0  0  0  0  0  0  0  0  0
  192.3810  177.4530  140.5120 O   0  0  0  0  0  0  0  0  0  0  0  0
  190.5490  176.0820  140.9500 N   0  0  0  0  0  2  0  0  0  0  0  0
  191.2220  176.6610  138.5920 C   0  0  0  0  0  2  0  0  0  0  0  0
  190.9210  175.2830  138.2330 N   0  0  0  0  0  2  0  0  0  0  0  0
  189.5810  175.2260  137.9170 O   0  0  0  0  0  0  0  0  0  0  0  0
  189.1460  174.7630  136.6740 C   0  0  0  0  0  0  0  0  0  0  0  0
  189.2270  173.5390  136.3850 O   0  0  0  0  0  0  0  0  0  0  0  0
  186.7780  177.3200  135.7490 C   0  0  0  0  0  2  0  0  0  0  0  0
  188.6070  175.7210  135.6620 C   0  0  2  0  0  3  0  0  0  0  0  0
  188.1400  177.0010  136.3330 C   0  0  1  0  0  3  0  0  0  0  0  0
  187.4040  175.1400  134.9330 C   0  0  0  0  0  2  0  0  0  0  0  0
  186.1920  175.9880  135.3030 C   0  0  1  0  0  3  0  0  0  0  0  0
  184.7890  173.9820  136.1060 C   0  0  1  0  0  3  0  0  0  0  0  0
  183.1670  175.1320  137.9650 S   0  0  0  0  0  0  0  0  0  0  0  0
  185.8190  172.9650  135.9960 N   0  0  0  0  0  1  0  0  0  0  0  0
  183.3940  176.7710  135.8190 C   0  0  0  0  0  1  0  0  0  0  0  0
  183.8620  173.6140  137.2420 C   0  0  0  0  0  2  0  0  0  0  0  0
  185.3900  175.3360  136.4510 C   0  0  2  0  0  3  0  0  0  0  0  0
  184.2340  176.1970  136.9570 C   0  0  2  0  0  3  0  0  0  0  0  0
  188.9990  179.2280  137.2220 C   0  0  0  0  0  1  0  0  0  0  0  0
  189.1280  178.1520  136.1440 C   0  0  0  0  0  2  0  0  0  0  0  0
  191.0080  177.4850  146.5600 C   0  0  0  0  0  2  0  0  0  0  0  0
  189.7990  177.1710  147.3680 C   0  0  0  0  0  0  0  0  0  0  0  0
  189.1420  178.2070  148.0900 N   0  0  0  0  0  2  0  0  0  0  0  0
  187.9170  177.9670  148.8210 C   0  0  0  0  0  1  0  0  0  0  0  0
  189.3340  176.0020  147.3610 O   0  0  0  0  0  0  0  0  0  0  0  0
  1  2  2  0  0  0  0
  2 42  1  0  0  0  0
  3  4  2  0  0  0  0
  4  5  1  0  0  0  0
  5  2  1  0  0  0  0
  7 13  1  0  0  0  0
  7  4  1  0  0  0  0
  9  7  2  0  0  0  0
 10  8  1  0  0  0  0
 11  6  1  6  0  0  0
 11 12  1  0  0  0  0
 12 16  1  0  0  0  0
 12  8  2  0  0  0  0
 13 10  2  0  0  0  0
 14  9  1  0  0  0  0
 14 15  2  0  0  0  0
 15 11  1  0  0  0  0
 15 13  1  0  0  0  0
 17 16  1  0  0  0  0
 17 19  1  0  0  0  0
 18 17  2  0  0  0  0
 20 21  2  0  0  0  0
 20 22  1  0  0  0  0
 22  3  1  0  0  0  0
 23 20  1  0  0  0  0
 24 23  1  0  0  0  0
 25 24  1  0  0  0  0
 26 25  1  0  0  0  0
 27 26  2  0  0  0  0
 28 30  1  0  0  0  0
 29 30  1  0  0  0  0
 29 26  1  1  0  0  0
 30 41  1  6  0  0  0
 31 29  1  0  0  0  0
 32 31  1  1  0  0  0
 32 28  1  0  0  0  0
 33 35  1  1  0  0  0
 33 38  1  0  0  0  0
 33 37  1  0  0  0  0
 37 34  1  0  0  0  0
 38 32  1  6  0  0  0
 38 39  1  0  0  0  0
 39 36  1  6  0  0  0
 39 34  1  0  0  0  0
 41 40  1  0  0  0  0
 42 43  1  0  0  0  0
 43 44  1  0  0  0  0
 44 45  1  0  0  0  0
 46 43  2  0  0  0  0
M  END
>  <MODEL>
6

>  <REMARK>
 VINA RESULT:      -7.2      3.754      9.254
  Name = 
  13 active torsions:
  status: ('A' for Active; 'I' for Inactive)
    1  A    between atoms: C_2  and  C_28
    2  A    between atoms: C_2  and  O_34
    3  A    between atoms: O_3  and  C_5
    4  A    between atoms: O_3  and  C_38
    5  A    between atoms: C_7  and  C_11
    6  A    between atoms: C_7  and  N_43
    7  A    between atoms: C_10  and  C_27
    8  A    between atoms: C_12  and  C_36
    9  A    between atoms: C_13  and  C_36
   10  A    between atoms: N_17  and  N_42
   11  A    between atoms: C_25  and  C_33
   12  A    between atoms: C_30  and  C_35
   13  A    between atoms: O_34  and  N_43
                            x       y       z     vdW  Elec       q    Type
                         _______ _______ _______ _____ _____    ______ ____

>  <TORSDO>
F 13

$$$$
=
 OpenBabel11042412503D

 46 49  0  0  1  0  0  0  0  0999 V2000
  190.5460  177.1040  136.4290 O   0  0  0  0  0  0  0  0  0  0  0  0
  190.2850  176.1720  135.6170 C   0  0  0  0  0  0  0  0  0  0  0  0
  187.8830  177.1000  137.0180 N   0  0  0  0  0  0  0  0  0  0  0  0
  187.7670  176.2820  136.0160 C   0  0  0  0  0  0  0  0  0  0  0  0
  188.9320  175.7890  135.3460 N   0  0  0  0  0  2  0  0  0  0  0  0
  182.5350  173.4400  135.1540 F   0  0  0  0  0  0  0  0  0  0  0  0
  186.4560  175.7620  135.5850 C   0  0  0  0  0  0  0  0  0  0  0  0
  185.4440  172.7670  137.3250 C   0  0  0  0  0  3  0  0  0  0  0  0
  185.5160  176.4450  134.6390 C   0  0  0  0  0  3  0  0  0  0  0  0
  186.2580  173.8000  136.9650 N   0  0  0  0  0  0  0  0  0  0  0  0
  183.7160  173.5760  135.8110 C   0  0  1  0  0  3  0  0  0  0  0  0
  184.1580  172.6250  136.7640 C   0  0  0  0  0  0  0  0  0  0  0  0
  185.8230  174.6960  136.0430 C   0  0  0  0  0  0  0  0  0  0  0  0
  184.3340  175.5760  134.6580 N   0  0  0  0  0  0  0  0  0  0  0  0
  184.5820  174.6160  135.4800 C   0  0  0  0  0  0  0  0  0  0  0  0
  183.3960  171.5110  137.1410 O   0  0  0  0  0  0  0  0  0  0  0  0
  183.1450  170.3920  136.3430 C   0  0  0  0  0  0  0  0  0  0  0  0
  184.0820  169.6740  135.9060 O   0  0  0  0  0  0  0  0  0  0  0  0
  181.8700  170.1210  135.9610 F   0  0  0  0  0  0  0  0  0  0  0  0
  186.9720  178.2640  138.9890 C   0  0  0  0  0  0  0  0  0  0  0  0
  188.1110  178.7010  139.2960 O   0  0  0  0  0  0  0  0  0  0  0  0
  186.7880  177.5150  137.7900 N   0  0  0  0  0  2  0  0  0  0  0  0
  185.8270  178.4670  139.9150 C   0  0  0  0  0  2  0  0  0  0  0  0
  186.2050  179.4330  140.9370 N   0  0  0  0  0  2  0  0  0  0  0  0
  186.5150  178.7230  142.0760 O   0  0  0  0  0  0  0  0  0  0  0  0
  185.6950  178.7650  143.2050 C   0  0  0  0  0  0  0  0  0  0  0  0
  184.7610  179.6070  143.2840 O   0  0  0  0  0  0  0  0  0  0  0  0
  187.7220  177.6990  145.9910 C   0  0  0  0  0  2  0  0  0  0  0  0
  185.9370  177.8290  144.3450 C   0  0  2  0  0  3  0  0  0  0  0  0
  186.5710  178.5620  145.5140 C   0  0  1  0  0  3  0  0  0  0  0  0
  186.8950  176.7140  143.9520 C   0  0  0  0  0  2  0  0  0  0  0  0
  188.1630  176.8860  144.7820 C   0  0  1  0  0  3  0  0  0  0  0  0
  189.9100  176.8220  142.8900 C   0  0  1  0  0  3  0  0  0  0  0  0
  191.7400  178.6460  143.7470 S   0  0  0  0  0  0  0  0  0  0  0  0
  188.9980  176.5870  141.7870 N   0  0  0  0  0  1  0  0  0  0  0  0
  190.9040  177.1460  145.8430 C   0  0  0  0  0  1  0  0  0  0  0  0
  191.0830  177.6310  142.3870 C   0  0  0  0  0  2  0  0  0  0  0  0
  189.2480  177.6440  143.9850 C   0  0  2  0  0  3  0  0  0  0  0  0
  190.3820  178.1850  144.8550 C   0  0  2  0  0  3  0  0  0  0  0  0
  184.1490  178.4060  146.2870 C   0  0  0  0  0  1  0  0  0  0  0  0
  185.5690  178.8510  146.6330 C   0  0  0  0  0  2  0  0  0  0  0  0
  191.4030  175.4420  134.9510 C   0  0  0  0  0  2  0  0  0  0  0  0
  192.6380  175.5140  135.7770 C   0  0  0  0  0  0  0  0  0  0  0  0
  192.6610  174.9120  137.0670 N   0  0  0  0  0  2  0  0  0  0  0  0
  193.8630  174.8840  137.8720 C   0  0  0  0  0  1  0  0  0  0  0  0
  193.6700  176.0570  135.3060 O   0  0  0  0  0  0  0  0  0  0  0  0
  2  1  2  0  0  0  0
  3 22  1  0  0  0  0
  4  3  2  0  0  0  0
  5  2  1  0  0  0  0
  5  4  1  0  0  0  0
  7  4  1  0  0  0  0
  7 13  1  0  0  0  0
  9 14  1  0  0  0  0
  9  7  2  0  0  0  0
 10  8  1  0  0  0  0
 11  6  1  6  0  0  0
 11 12  1  0  0  0  0
 12 16  1  0  0  0  0
 12  8  2  0  0  0  0
 13 10  2  0  0  0  0
 14 15  2  0  0  0  0
 15 11  1  0  0  0  0
 15 13  1  0  0  0  0
 17 16  1  0  0  0  0
 18 17  2  0  0  0  0
 19 17  1  0  0  0  0
 20 21  2  0  0  0  0
 20 23  1  0  0  0  0
 22 20  1  0  0  0  0
 23 24  1  0  0  0  0
 24 25  1  0  0  0  0
 25 26  1  0  0  0  0
 26 27  2  0  0  0  0
 29 26  1  6  0  0  0
 29 30  1  0  0  0  0
 30 28  1  0  0  0  0
 30 41  1  1  0  0  0
 31 29  1  0  0  0  0
 32 31  1  6  0  0  0
 32 28  1  0  0  0  0
 33 35  1  6  0  0  0
 33 38  1  0  0  0  0
 34 39  1  0  0  0  0
 37 33  1  0  0  0  0
 37 34  1  0  0  0  0
 38 32  1  1  0  0  0
 38 39  1  0  0  0  0
 39 36  1  1  0  0  0
 40 41  1  0  0  0  0
 42  2  1  0  0  0  0
 42 43  1  0  0  0  0
 43 44  1  0  0  0  0
 44 45  1  0  0  0  0
 46 43  2  0  0  0  0
M  END
>  <MODEL>
7

>  <REMARK>
 VINA RESULT:      -7.2      1.585      2.030
  Name = 
  13 active torsions:
  status: ('A' for Active; 'I' for Inactive)
    1  A    between atoms: C_2  and  C_28
    2  A    between atoms: C_2  and  O_34
    3  A    between atoms: O_3  and  C_5
    4  A    between atoms: O_3  and  C_38
    5  A    between atoms: C_7  and  C_11
    6  A    between atoms: C_7  and  N_43
    7  A    between atoms: C_10  and  C_27
    8  A    between atoms: C_12  and  C_36
    9  A    between atoms: C_13  and  C_36
   10  A    between atoms: N_17  and  N_42
   11  A    between atoms: C_25  and  C_33
   12  A    between atoms: C_30  and  C_35
   13  A    between atoms: O_34  and  N_43
                            x       y       z     vdW  Elec       q    Type
                         _______ _______ _______ _____ _____    ______ ____

>  <TORSDO>
F 13

$$$$
=
 OpenBabel11042412503D

 46 49  0  0  1  0  0  0  0  0999 V2000
  192.6620  176.3360  137.1930 O   0  0  0  0  0  0  0  0  0  0  0  0
  192.1730  176.0320  136.0690 C   0  0  0  0  0  0  0  0  0  0  0  0
  190.0880  176.7110  138.0160 N   0  0  0  0  0  0  0  0  0  0  0  0
  189.7750  176.5600  136.7640 C   0  0  0  0  0  0  0  0  0  0  0  0
  190.7740  176.1900  135.8080 N   0  0  0  0  0  2  0  0  0  0  0  0
  183.9440  176.0150  135.3890 F   0  0  0  0  0  0  0  0  0  0  0  0
  188.3820  176.6730  136.2930 C   0  0  0  0  0  0  0  0  0  0  0  0
  186.4120  173.7050  136.8740 C   0  0  0  0  0  3  0  0  0  0  0  0
  187.7400  177.9190  135.7620 C   0  0  0  0  0  3  0  0  0  0  0  0
  187.5240  174.4950  136.8520 N   0  0  0  0  0  0  0  0  0  0  0  0
  185.0830  175.5200  135.9370 C   0  0  1  0  0  3  0  0  0  0  0  0
  185.1670  174.1900  136.4210 C   0  0  0  0  0  0  0  0  0  0  0  0
  187.4280  175.7620  136.3760 C   0  0  0  0  0  0  0  0  0  0  0  0
  186.3440  177.5150  135.5630 N   0  0  0  0  0  0  0  0  0  0  0  0
  186.2460  176.2880  135.9400 C   0  0  0  0  0  0  0  0  0  0  0  0
  184.0780  173.3090  136.4230 O   0  0  0  0  0  0  0  0  0  0  0  0
  182.7820  173.6210  136.8430 C   0  0  0  0  0  0  0  0  0  0  0  0
  182.5760  174.4170  137.7960 O   0  0  0  0  0  0  0  0  0  0  0  0
  181.7280  172.9880  136.2670 F   0  0  0  0  0  0  0  0  0  0  0  0
  188.7310  178.2730  139.3510 C   0  0  0  0  0  0  0  0  0  0  0  0
  189.1080  179.2480  138.6520 O   0  0  0  0  0  0  0  0  0  0  0  0
  189.1340  176.9480  139.0140 N   0  0  0  0  0  2  0  0  0  0  0  0
  187.9200  178.5100  140.5750 C   0  0  0  0  0  2  0  0  0  0  0  0
  186.5350  178.7420  140.1930 N   0  0  0  0  0  2  0  0  0  0  0  0
  185.7420  178.2340  141.1990 O   0  0  0  0  0  0  0  0  0  0  0  0
  185.7640  178.7770  142.4850 C   0  0  0  0  0  0  0  0  0  0  0  0
  185.8530  180.0230  142.6510 O   0  0  0  0  0  0  0  0  0  0  0  0
  187.1120  177.7250  145.6600 C   0  0  0  0  0  2  0  0  0  0  0  0
  185.7110  177.8790  143.6790 C   0  0  2  0  0  3  0  0  0  0  0  0
  186.1380  178.6280  144.9300 C   0  0  1  0  0  3  0  0  0  0  0  0
  186.6580  176.6980  143.5280 C   0  0  0  0  0  2  0  0  0  0  0  0
  187.7390  176.8370  144.5940 C   0  0  1  0  0  3  0  0  0  0  0  0
  189.9880  176.5270  143.3780 C   0  0  1  0  0  3  0  0  0  0  0  0
  191.4380  178.6280  144.3210 S   0  0  0  0  0  0  0  0  0  0  0  0
  189.4670  175.9980  142.1310 N   0  0  0  0  0  1  0  0  0  0  0  0
  190.0110  177.5280  146.3450 C   0  0  0  0  0  1  0  0  0  0  0  0
  191.2490  177.3070  143.0850 C   0  0  0  0  0  2  0  0  0  0  0  0
  189.0080  177.5010  144.0140 C   0  0  2  0  0  3  0  0  0  0  0  0
  189.8080  178.2970  145.0430 C   0  0  2  0  0  3  0  0  0  0  0  0
  183.6120  178.9210  145.0770 C   0  0  0  0  0  1  0  0  0  0  0  0
  184.9490  179.0190  145.8090 C   0  0  0  0  0  2  0  0  0  0  0  0
  193.0610  175.4760  135.0070 C   0  0  0  0  0  2  0  0  0  0  0  0
  194.4220  176.0680  135.1030 C   0  0  0  0  0  0  0  0  0  0  0  0
  195.4740  175.3280  135.7120 N   0  0  0  0  0  2  0  0  0  0  0  0
  196.8310  175.8280  135.7550 C   0  0  0  0  0  1  0  0  0  0  0  0
  194.6460  177.1970  134.5940 O   0  0  0  0  0  0  0  0  0  0  0  0
  2  1  2  0  0  0  0
  3 22  1  0  0  0  0
  4  3  2  0  0  0  0
  5  2  1  0  0  0  0
  5  4  1  0  0  0  0
  7 13  1  0  0  0  0
  7  4  1  0  0  0  0
  9  7  2  0  0  0  0
 10  8  1  0  0  0  0
 11  6  1  6  0  0  0
 11 15  1  0  0  0  0
 11 12  1  0  0  0  0
 12 16  1  0  0  0  0
 12  8  2  0  0  0  0
 13 10  2  0  0  0  0
 14  9  1  0  0  0  0
 14 15  2  0  0  0  0
 15 13  1  0  0  0  0
 16 17  1  0  0  0  0
 17 18  2  0  0  0  0
 19 17  1  0  0  0  0
 20 23  1  0  0  0  0
 21 20  2  0  0  0  0
 22 20  1  0  0  0  0
 24 23  1  0  0  0  0
 24 25  1  0  0  0  0
 25 26  1  0  0  0  0
 26 27  2  0  0  0  0
 29 26  1  6  0  0  0
 29 30  1  0  0  0  0
 30 28  1  0  0  0  0
 30 41  1  1  0  0  0
 31 29  1  0  0  0  0
 32 31  1  6  0  0  0
 32 28  1  0  0  0  0
 33 35  1  6  0  0  0
 33 38  1  0  0  0  0
 34 39  1  0  0  0  0
 37 33  1  0  0  0  0
 37 34  1  0  0  0  0
 38 32  1  1  0  0  0
 38 39  1  0  0  0  0
 39 36  1  1  0  0  0
 40 41  1  0  0  0  0
 42 43  1  0  0  0  0
 42  2  1  0  0  0  0
 43 44  1  0  0  0  0
 44 45  1  0  0  0  0
 46 43  2  0  0  0  0
M  END
>  <MODEL>
8

>  <REMARK>
 VINA RESULT:      -7.1      2.077      3.304
  Name = 
  13 active torsions:
  status: ('A' for Active; 'I' for Inactive)
    1  A    between atoms: C_2  and  C_28
    2  A    between atoms: C_2  and  O_34
    3  A    between atoms: O_3  and  C_5
    4  A    between atoms: O_3  and  C_38
    5  A    between atoms: C_7  and  C_11
    6  A    between atoms: C_7  and  N_43
    7  A    between atoms: C_10  and  C_27
    8  A    between atoms: C_12  and  C_36
    9  A    between atoms: C_13  and  C_36
   10  A    between atoms: N_17  and  N_42
   11  A    between atoms: C_25  and  C_33
   12  A    between atoms: C_30  and  C_35
   13  A    between atoms: O_34  and  N_43
                            x       y       z     vdW  Elec       q    Type
                         _______ _______ _______ _____ _____    ______ ____

>  <TORSDO>
F 13

$$$$
=
 OpenBabel11042412503D

 46 49  0  0  1  0  0  0  0  0999 V2000
  195.7980  176.3380  135.9750 O   0  0  0  0  0  0  0  0  0  0  0  0
  195.2460  175.3000  135.5140 C   0  0  0  0  0  0  0  0  0  0  0  0
  193.5790  176.6100  137.5390 N   0  0  0  0  0  0  0  0  0  0  0  0
  193.0850  175.6420  136.8280 C   0  0  0  0  0  0  0  0  0  0  0  0
  193.8970  174.9660  135.8620 N   0  0  0  0  0  2  0  0  0  0  0  0
  187.1740  174.5670  137.1410 F   0  0  0  0  0  0  0  0  0  0  0  0
  191.7140  175.1430  137.0400 C   0  0  0  0  0  0  0  0  0  0  0  0
  189.1510  177.5220  136.1460 C   0  0  0  0  0  3  0  0  0  0  0  0
  191.3470  173.7440  137.4350 C   0  0  0  0  0  2  0  0  0  0  0  0
  190.4130  177.0500  136.3590 N   0  0  0  0  0  0  0  0  0  0  0  0
  188.2160  175.3730  136.8110 C   0  0  0  0  0  0  0  0  0  0  0  0
  188.0230  176.7040  136.3630 C   0  0  0  0  0  0  0  0  0  0  0  0
  190.5790  175.7760  136.7970 C   0  0  0  0  0  0  0  0  0  0  0  0
  189.8810  173.7570  137.3840 N   0  0  0  0  0  0  0  0  0  0  0  0
  189.5240  174.9360  137.0080 C   0  0  0  0  0  0  0  0  0  0  0  0
  186.7550  177.2690  136.1750 O   0  0  0  0  0  0  0  0  0  0  0  0
  185.9220  177.7480  137.1900 C   0  0  0  0  0  0  0  0  0  0  0  0
  186.1150  178.8720  137.7210 O   0  0  0  0  0  0  0  0  0  0  0  0
  184.9340  176.9500  137.6690 F   0  0  0  0  0  0  0  0  0  0  0  0
  193.3600  177.1940  139.9220 C   0  0  0  0  0  0  0  0  0  0  0  0
  194.5130  176.7540  140.1670 O   0  0  0  0  0  0  0  0  0  0  0  0
  192.8720  177.2230  138.5820 N   0  0  0  0  0  2  0  0  0  0  0  0
  192.4770  177.6200  141.0390 C   0  0  0  0  0  2  0  0  0  0  0  0
  191.6120  176.5100  141.4140 N   0  0  0  0  0  2  0  0  0  0  0  0
  191.2240  176.7160  142.7200 O   0  0  0  0  0  0  0  0  0  0  0  0
  190.1200  177.5100  143.0340 C   0  0  0  0  0  0  0  0  0  0  0  0
  190.2560  178.5400  143.7460 O   0  0  0  0  0  0  0  0  0  0  0  0
  186.5860  178.1870  142.8030 C   0  0  0  0  0  2  0  0  0  0  0  0
  188.7580  177.1260  142.5520 C   0  0  2  0  0  3  0  0  0  0  0  0
  187.9550  178.3600  142.1790 C   0  0  1  0  0  3  0  0  0  0  0  0
  187.9710  176.3990  143.6330 C   0  0  0  0  0  2  0  0  0  0  0  0
  186.7870  177.2820  144.0100 C   0  0  1  0  0  3  0  0  0  0  0  0
  187.5180  177.2970  146.4810 C   0  0  1  0  0  3  0  0  0  0  0  0
  186.3100  179.5510  147.4140 S   0  0  0  0  0  0  0  0  0  0  0  0
  188.8410  176.7320  146.2980 N   0  0  0  0  0  1  0  0  0  0  0  0
  184.6140  178.2290  145.7670 C   0  0  0  0  0  1  0  0  0  0  0  0
  187.5520  178.2440  147.6590 C   0  0  0  0  0  2  0  0  0  0  0  0
  187.1000  178.1190  145.2700 C   0  0  2  0  0  3  0  0  0  0  0  0
  185.9350  178.9920  145.7310 C   0  0  2  0  0  3  0  0  0  0  0  0
  188.3760  177.3590  139.8740 C   0  0  0  0  0  1  0  0  0  0  0  0
  187.8730  178.5660  140.6660 C   0  0  0  0  0  2  0  0  0  0  0  0
  196.0180  174.3950  134.6130 C   0  0  0  0  0  2  0  0  0  0  0  0
  197.2580  173.9250  135.2860 C   0  0  0  0  0  0  0  0  0  0  0  0
  197.1710  173.2290  136.5240 N   0  0  0  0  0  2  0  0  0  0  0  0
  198.3420  172.6820  137.1740 C   0  0  0  0  0  1  0  0  0  0  0  0
  198.3720  174.0970  134.7250 O   0  0  0  0  0  0  0  0  0  0  0  0
  2  5  1  0  0  0  0
  2  1  2  0  0  0  0
  3 22  1  0  0  0  0
  4  7  1  0  0  0  0
  4  3  2  0  0  0  0
  5  4  1  0  0  0  0
  7  9  1  0  0  0  0
  8 10  2  0  0  0  0
  8 12  1  0  0  0  0
 10 13  1  0  0  0  0
 11 15  1  0  0  0  0
 11  6  1  0  0  0  0
 12 11  2  0  0  0  0
 13 15  1  0  0  0  0
 13  7  2  0  0  0  0
 14  9  1  0  0  0  0
 15 14  2  0  0  0  0
 16 12  1  0  0  0  0
 16 17  1  0  0  0  0
 17 19  1  0  0  0  0
 17 18  2  0  0  0  0
 20 21  2  0  0  0  0
 20 23  1  0  0  0  0
 22 20  1  0  0  0  0
 23 24  1  0  0  0  0
 24 25  1  0  0  0  0
 25 26  1  0  0  0  0
 26 27  2  0  0  0  0
 29 26  1  1  0  0  0
 29 31  1  0  0  0  0
 30 41  1  6  0  0  0
 30 29  1  0  0  0  0
 30 28  1  0  0  0  0
 31 32  1  0  0  0  0
 32 28  1  6  0  0  0
 33 35  1  6  0  0  0
 33 37  1  0  0  0  0
 34 37  1  0  0  0  0
 38 32  1  6  0  0  0
 38 39  1  0  0  0  0
 38 33  1  0  0  0  0
 39 36  1  1  0  0  0
 39 34  1  0  0  0  0
 40 41  1  0  0  0  0
 42 43  1  0  0  0  0
 42  2  1  0  0  0  0
 43 44  1  0  0  0  0
 44 45  1  0  0  0  0
 46 43  2  0  0  0  0
M  END
>  <MODEL>
9

>  <REMARK>
 VINA RESULT:      -7.0      3.992      6.818
  Name = 
  13 active torsions:
  status: ('A' for Active; 'I' for Inactive)
    1  A    between atoms: C_2  and  C_28
    2  A    between atoms: C_2  and  O_34
    3  A    between atoms: O_3  and  C_5
    4  A    between atoms: O_3  and  C_38
    5  A    between atoms: C_7  and  C_11
    6  A    between atoms: C_7  and  N_43
    7  A    between atoms: C_10  and  C_27
    8  A    between atoms: C_12  and  C_36
    9  A    between atoms: C_13  and  C_36
   10  A    between atoms: N_17  and  N_42
   11  A    between atoms: C_25  and  C_33
   12  A    between atoms: C_30  and  C_35
   13  A    between atoms: O_34  and  N_43
                            x       y       z     vdW  Elec       q    Type
                         _______ _______ _______ _____ _____    ______ ____

>  <TORSDO>
F 13

$$$$
