=
 OpenBabel11032421073D

 54 57  0  0  1  0  0  0  0  0999 V2000
  185.1740  178.5750  140.8870 C   0  0  1  0  0  3  0  0  0  0  0  0
  183.1240  177.2480  138.4560 C   0  0  0  0  0  0  0  0  0  0  0  0
  183.1410  178.0980  139.5280 C   0  0  0  0  0  0  0  0  0  0  0  0
  182.0240  176.4180  138.2320 C   0  0  0  0  0  0  0  0  0  0  0  0
  185.1510  178.4960  138.3070 C   0  0  0  0  0  3  0  0  0  0  0  0
  180.9700  177.3230  140.1750 C   0  0  0  0  0  0  0  0  0  0  0  0
  184.3630  177.3490  137.6450 C   0  0  0  0  0  3  0  0  0  0  0  0
  180.9680  176.4820  139.1000 N   0  0  0  0  0  0  0  0  0  0  0  0
  179.5910  177.3620  141.2510 Cl  0  0  0  0  0  0  0  0  0  0  0  0
  184.3950  178.8890  139.5920 C   0  0  2  0  0  3  0  0  0  0  0  0
  182.0700  178.1600  140.4130 C   0  0  0  0  0  3  0  0  0  0  0  0
  182.3250  174.2660  137.2510 C   0  0  0  0  0  3  0  0  0  0  0  0
  182.0090  175.5120  137.1210 N   0  0  0  0  0  0  0  0  0  0  0  0
  184.3120  172.1830  137.2640 C   0  0  0  0  0  1  0  0  0  0  0  0
  182.3100  173.3570  136.0590 C   0  0  2  0  0  3  0  0  0  0  0  0
  181.2170  172.4010  136.1900 N   0  0  0  0  0  2  0  0  0  0  0  0
  182.1960  171.3160  136.2070 C   0  0  0  0  0  2  0  0  0  0  0  0
  183.3650  172.2570  136.0710 C   0  0  0  0  0  0  0  0  0  0  0  0
  184.0620  172.1070  134.7320 C   0  0  0  0  0  1  0  0  0  0  0  0
  187.4400  178.1800  139.7920 N   0  0  0  0  0  2  0  0  0  0  0  0
  187.2050  179.5800  141.6450 O   0  0  0  0  0  0  0  0  0  0  0  0
  186.6570  178.8250  140.8000 C   0  0  0  0  0  0  0  0  0  0  0  0
  188.8800  178.3630  139.6890 C   0  0  0  0  0  2  0  0  0  0  0  0
  189.3850  177.7730  138.3820 C   0  0  2  0  0  3  0  0  0  0  0  0
  188.9400  179.8610  137.3840 O   0  0  0  0  0  0  0  0  0  0  0  0
  189.0190  178.6520  137.2310 C   0  0  0  0  0  3  0  0  0  0  0  0
  188.8290  176.5040  138.1970 O   0  0  0  0  0  0  0  0  0  0  0  0
  189.7420  175.8060  137.3930 C   0  0  2  0  0  3  0  0  0  0  0  0
  189.0420  175.0300  136.3650 N   0  0  0  0  0  2  0  0  0  0  0  0
  187.6650  174.7790  136.7770 C   0  0  0  0  0  2  0  0  0  0  0  0
  187.1180  173.7690  135.9880 O   0  0  0  0  0  1  0  0  0  0  0  0
  190.5300  174.9710  138.1930 O   0  0  0  0  0  0  0  0  0  0  0  0
  191.3190  174.2450  137.2960 C   0  0  0  0  0  2  0  0  0  0  0  0
  192.6780  174.7550  137.3240 N   0  0  0  0  0  1  0  0  0  0  0  0
  184.5910  179.2480  142.0490 N   0  0  0  0  0  2  0  0  0  0  0  0
  184.2810  178.2780  143.1010 C   0  0  0  0  0  2  0  0  0  0  0  0
  184.8530  178.6870  144.4550 C   0  0  1  0  0  3  0  0  0  0  0  0
  183.8210  179.3070  145.2630 N   0  0  0  0  0  1  0  0  0  0  0  0
  185.4040  177.4740  145.1860 C   0  0  0  0  0  2  0  0  0  0  0  0
  186.3220  177.8890  146.2360 N   0  0  0  0  0  2  0  0  0  0  0  0
  187.4950  178.3210  145.5980 N   0  0  0  0  0  2  0  0  0  0  0  0
  191.2360  176.8190  144.7640 C   0  0  0  0  0  2  0  0  0  0  0  0
  188.3370  177.1490  145.4030 C   0  0  1  0  0  3  0  0  0  0  0  0
  187.9150  176.7400  143.0940 O   0  0  0  0  0  1  0  0  0  0  0  0
  188.9040  177.1670  143.9790 C   0  0  2  0  0  3  0  0  0  0  0  0
  190.7810  176.8920  146.1510 N   0  0  0  0  0  0  0  0  0  0  0  0
  189.3930  177.1050  146.4760 C   0  0  0  0  0  0  0  0  0  0  0  0
  189.0360  177.1970  147.6840 O   0  0  0  0  0  0  0  0  0  0  0  0
  190.1450  176.2760  143.8510 C   0  0  1  0  0  3  0  0  0  0  0  0
  190.6710  176.2870  142.4210 C   0  0  0  0  0  2  0  0  0  0  0  0
  191.2140  177.5360  142.1310 O   0  0  0  0  0  1  0  0  0  0  0  0
  191.7860  176.9760  147.2050 C   0  0  0  0  0  2  0  0  0  0  0  0
  192.3100  175.6170  147.5460 C   0  0  0  0  0  3  0  0  0  0  0  0
  192.9450  175.4340  148.5680 O   0  0  0  0  0  0  0  0  0  0  0  0
  1 22  1  6  0  0  0
  1 35  1  0  0  0  0
  2  3  2  0  0  0  0
  3 10  1  0  0  0  0
  3 11  1  0  0  0  0
  4  2  1  0  0  0  0
  4  8  2  0  0  0  0
  5 10  1  0  0  0  0
  6 11  2  0  0  0  0
  6  9  1  0  0  0  0
  7  5  2  0  0  0  0
  7  2  1  0  0  0  0
  8  6  1  0  0  0  0
 10  1  1  1  0  0  0
 13 12  2  0  0  0  0
 13  4  1  0  0  0  0
 15 18  1  0  0  0  0
 15 16  1  0  0  0  0
 15 12  1  1  0  0  0
 16 17  1  0  0  0  0
 18 17  1  0  0  0  0
 18 14  1  0  0  0  0
 19 18  1  0  0  0  0
 20 22  1  0  0  0  0
 22 21  2  0  0  0  0
 23 20  1  0  0  0  0
 24 26  1  6  0  0  0
 24 23  1  0  0  0  0
 26 25  2  0  0  0  0
 27 24  1  0  0  0  0
 28 29  1  6  0  0  0
 28 32  1  0  0  0  0
 28 27  1  0  0  0  0
 29 30  1  0  0  0  0
 31 30  1  0  0  0  0
 33 34  1  0  0  0  0
 33 32  1  0  0  0  0
 35 36  1  0  0  0  0
 36 37  1  0  0  0  0
 37 39  1  0  0  0  0
 37 38  1  1  0  0  0
 39 40  1  0  0  0  0
 41 40  1  0  0  0  0
 42 46  1  0  0  0  0
 43 41  1  1  0  0  0
 43 47  1  0  0  0  0
 45 44  1  6  0  0  0
 45 43  1  0  0  0  0
 46 47  1  0  0  0  0
 46 52  1  0  0  0  0
 47 48  2  0  0  0  0
 49 50  1  6  0  0  0
 49 45  1  0  0  0  0
 49 42  1  0  0  0  0
 51 50  1  0  0  0  0
 52 53  1  0  0  0  0
 53 54  2  0  0  0  0
M  END
>  <MODEL>
1

>  <REMARK>
 VINA RESULT:      -6.5      0.000      0.000
  Name = 
  23 active torsions:
  status: ('A' for Active; 'I' for Inactive)
    1  A    between atoms: C_2  and  O_5
    2  A    between atoms: C_2  and  O_19
    3  A    between atoms: C_2  and  N_50
    4  A    between atoms: N_4  and  C_27
    5  A    between atoms: N_4  and  C_37
    6  A    between atoms: O_5  and  C_48
    7  A    between atoms: C_6  and  C_46
    8  A    between atoms: C_7  and  N_51
    9  A    between atoms: C_9  and  C_41
   10  A    between atoms: N_10  and  C_49
   11  A    between atoms: C_14  and  N_53
   12  A    between atoms: C_15  and  C_21
   13  A    between atoms: C_17  and  C_32
   14  A    between atoms: C_17  and  N_54
   15  A    between atoms: O_19  and  C_39
   16  A    between atoms: C_21  and  N_25
   17  A    between atoms: C_24  and  N_50
   18  A    between atoms: C_27  and  C_33
   19  A    between atoms: C_27  and  C_42
   20  A    between atoms: C_28  and  C_48
   21  A    between atoms: C_32  and  C_37
   22  A    between atoms: C_48  and  C_49
   23  A    between atoms: N_51  and  N_54
                            x       y       z     vdW  Elec       q    Type
                         _______ _______ _______ _____ _____    ______ ____

>  <TORSDO>
F 23

$$$$
=
 OpenBabel11032421073D

 54 57  0  0  1  0  0  0  0  0999 V2000
  185.5890  178.5750  140.9470 C   0  0  1  0  0  3  0  0  0  0  0  0
  182.7720  177.6710  139.1790 C   0  0  0  0  0  0  0  0  0  0  0  0
  183.2220  178.5010  140.1690 C   0  0  0  0  0  0  0  0  0  0  0  0
  181.5160  177.0690  139.2800 C   0  0  0  0  0  0  0  0  0  0  0  0
  184.8880  178.5050  138.4630 C   0  0  0  0  0  3  0  0  0  0  0  0
  181.1860  178.1580  141.3810 C   0  0  0  0  0  0  0  0  0  0  0  0
  183.7570  177.5320  138.0780 C   0  0  0  0  0  3  0  0  0  0  0  0
  180.7500  177.3340  140.3830 N   0  0  0  0  0  0  0  0  0  0  0  0
  180.1620  178.4610  142.7670 Cl  0  0  0  0  0  0  0  0  0  0  0  0
  184.5750  179.0350  139.8770 C   0  0  2  0  0  3  0  0  0  0  0  0
  182.4460  178.7680  141.2920 C   0  0  0  0  0  3  0  0  0  0  0  0
  181.1850  174.9020  138.3430 C   0  0  0  0  0  3  0  0  0  0  0  0
  181.0470  176.1850  138.2550 N   0  0  0  0  0  0  0  0  0  0  0  0
  183.2210  173.4130  136.9580 C   0  0  0  0  0  1  0  0  0  0  0  0
  180.6920  174.0160  137.2390 C   0  0  2  0  0  3  0  0  0  0  0  0
  180.1090  172.8070  137.8100 N   0  0  0  0  0  2  0  0  0  0  0  0
  181.1320  172.0160  137.1270 C   0  0  0  0  0  2  0  0  0  0  0  0
  181.7760  173.2300  136.5080 C   0  0  0  0  0  0  0  0  0  0  0  0
  181.5990  173.2620  135.0020 C   0  0  0  0  0  1  0  0  0  0  0  0
  187.4800  177.7910  139.4320 N   0  0  0  0  0  2  0  0  0  0  0  0
  187.8350  179.3720  141.1120 O   0  0  0  0  0  0  0  0  0  0  0  0
  187.0280  178.6220  140.5040 C   0  0  0  0  0  0  0  0  0  0  0  0
  188.8670  177.7750  138.9910 C   0  0  0  0  0  2  0  0  0  0  0  0
  188.9290  177.7140  137.4740 C   0  0  2  0  0  3  0  0  0  0  0  0
  187.5780  176.8590  135.7430 O   0  0  0  0  0  0  0  0  0  0  0  0
  187.6440  177.1950  136.9150 C   0  0  0  0  0  3  0  0  0  0  0  0
  189.9810  176.8800  137.0830 O   0  0  0  0  0  0  0  0  0  0  0  0
  190.0240  175.8550  138.0390 C   0  0  2  0  0  3  0  0  0  0  0  0
  191.4050  175.5790  138.4440 N   0  0  0  0  0  2  0  0  0  0  0  0
  192.3130  176.5260  137.8050 C   0  0  0  0  0  2  0  0  0  0  0  0
  193.5760  176.4260  138.3860 O   0  0  0  0  0  1  0  0  0  0  0  0
  189.4200  174.7030  137.5200 O   0  0  0  0  0  0  0  0  0  0  0  0
  190.4220  174.0690  136.7790 C   0  0  0  0  0  2  0  0  0  0  0  0
  189.8330  173.0160  135.9700 N   0  0  0  0  0  1  0  0  0  0  0  0
  185.4010  179.2840  142.2130 N   0  0  0  0  0  2  0  0  0  0  0  0
  185.3790  178.3390  143.3310 C   0  0  0  0  0  2  0  0  0  0  0  0
  185.0570  179.0180  144.6590 C   0  0  1  0  0  3  0  0  0  0  0  0
  183.6440  179.3370  144.7250 N   0  0  0  0  0  1  0  0  0  0  0  0
  185.4230  178.1090  145.8210 C   0  0  0  0  0  2  0  0  0  0  0  0
  186.7600  178.4170  146.3030 N   0  0  0  0  0  2  0  0  0  0  0  0
  187.5390  177.2670  146.0980 N   0  0  0  0  0  2  0  0  0  0  0  0
  191.4740  176.2210  145.4910 C   0  0  0  0  0  2  0  0  0  0  0  0
  188.9230  177.7000  145.9710 C   0  0  1  0  0  3  0  0  0  0  0  0
  189.5340  177.7460  148.2730 O   0  0  0  0  0  1  0  0  0  0  0  0
  189.7570  177.0540  147.0830 C   0  0  2  0  0  3  0  0  0  0  0  0
  190.6800  176.7240  144.3720 N   0  0  0  0  0  0  0  0  0  0  0  0
  189.4210  177.3920  144.5830 C   0  0  0  0  0  0  0  0  0  0  0  0
  188.7420  177.7840  143.5940 O   0  0  0  0  0  0  0  0  0  0  0  0
  191.2520  177.0560  146.7450 C   0  0  1  0  0  3  0  0  0  0  0  0
  192.0610  176.4370  147.8790 C   0  0  0  0  0  2  0  0  0  0  0  0
  192.0930  175.0530  147.7300 O   0  0  0  0  0  1  0  0  0  0  0  0
  191.0690  176.3370  143.0200 C   0  0  0  0  0  2  0  0  0  0  0  0
  191.7580  177.4680  142.3230 C   0  0  0  0  0  3  0  0  0  0  0  0
  191.7160  177.5690  141.1120 O   0  0  0  0  0  0  0  0  0  0  0  0
  1 22  1  6  0  0  0
  1 35  1  0  0  0  0
  2  4  1  0  0  0  0
  2  3  2  0  0  0  0
  3 11  1  0  0  0  0
  4  8  2  0  0  0  0
  5 10  1  0  0  0  0
  6  9  1  0  0  0  0
  7  5  2  0  0  0  0
  7  2  1  0  0  0  0
  8  6  1  0  0  0  0
 10  3  1  0  0  0  0
 10  1  1  1  0  0  0
 11  6  2  0  0  0  0
 13 12  2  0  0  0  0
 13  4  1  0  0  0  0
 15 16  1  0  0  0  0
 15 12  1  1  0  0  0
 17 16  1  0  0  0  0
 18 14  1  0  0  0  0
 18 17  1  0  0  0  0
 18 15  1  0  0  0  0
 19 18  1  0  0  0  0
 20 22  1  0  0  0  0
 22 21  2  0  0  0  0
 23 20  1  0  0  0  0
 24 26  1  1  0  0  0
 24 23  1  0  0  0  0
 25 26  2  0  0  0  0
 27 24  1  0  0  0  0
 28 27  1  6  0  0  0
 28 29  1  0  0  0  0
 30 31  1  0  0  0  0
 30 29  1  0  0  0  0
 32 28  1  0  0  0  0
 33 32  1  0  0  0  0
 34 33  1  0  0  0  0
 35 36  1  0  0  0  0
 36 37  1  0  0  0  0
 37 38  1  6  0  0  0
 37 39  1  0  0  0  0
 39 40  1  0  0  0  0
 41 40  1  0  0  0  0
 42 49  1  0  0  0  0
 43 41  1  6  0  0  0
 43 45  1  0  0  0  0
 45 44  1  1  0  0  0
 46 47  1  0  0  0  0
 46 42  1  0  0  0  0
 47 43  1  0  0  0  0
 48 47  2  0  0  0  0
 49 45  1  0  0  0  0
 49 50  1  1  0  0  0
 51 50  1  0  0  0  0
 52 46  1  0  0  0  0
 53 52  1  0  0  0  0
 54 53  2  0  0  0  0
M  END
>  <MODEL>
2

>  <REMARK>
 VINA RESULT:      -6.3      1.344      2.847
  Name = 
  23 active torsions:
  status: ('A' for Active; 'I' for Inactive)
    1  A    between atoms: C_2  and  O_5
    2  A    between atoms: C_2  and  O_19
    3  A    between atoms: C_2  and  N_50
    4  A    between atoms: N_4  and  C_27
    5  A    between atoms: N_4  and  C_37
    6  A    between atoms: O_5  and  C_48
    7  A    between atoms: C_6  and  C_46
    8  A    between atoms: C_7  and  N_51
    9  A    between atoms: C_9  and  C_41
   10  A    between atoms: N_10  and  C_49
   11  A    between atoms: C_14  and  N_53
   12  A    between atoms: C_15  and  C_21
   13  A    between atoms: C_17  and  C_32
   14  A    between atoms: C_17  and  N_54
   15  A    between atoms: O_19  and  C_39
   16  A    between atoms: C_21  and  N_25
   17  A    between atoms: C_24  and  N_50
   18  A    between atoms: C_27  and  C_33
   19  A    between atoms: C_27  and  C_42
   20  A    between atoms: C_28  and  C_48
   21  A    between atoms: C_32  and  C_37
   22  A    between atoms: C_48  and  C_49
   23  A    between atoms: N_51  and  N_54
                            x       y       z     vdW  Elec       q    Type
                         _______ _______ _______ _____ _____    ______ ____

>  <TORSDO>
F 23

$$$$
=
 OpenBabel11032421073D

 54 57  0  0  1  0  0  0  0  0999 V2000
  188.2460  177.3710  136.5750 C   0  0  1  0  0  3  0  0  0  0  0  0
  189.9560  174.7340  135.1610 C   0  0  0  0  0  0  0  0  0  0  0  0
  188.6990  175.2130  135.4130 C   0  0  0  0  0  0  0  0  0  0  0  0
  190.2260  173.3690  135.2740 C   0  0  0  0  0  0  0  0  0  0  0  0
  190.0160  177.0760  134.7190 C   0  0  0  0  0  3  0  0  0  0  0  0
  187.9490  172.9900  135.8900 C   0  0  0  0  0  0  0  0  0  0  0  0
  190.8990  175.8150  134.7820 C   0  0  0  0  0  3  0  0  0  0  0  0
  189.2070  172.5280  135.6330 N   0  0  0  0  0  0  0  0  0  0  0  0
  186.6860  171.8670  136.3440 Cl  0  0  0  0  0  0  0  0  0  0  0  0
  188.6200  176.6850  135.2430 C   0  0  2  0  0  3  0  0  0  0  0  0
  187.6650  174.3590  135.7820 C   0  0  0  0  0  3  0  0  0  0  0  0
  192.3260  172.4980  135.9920 C   0  0  0  0  0  3  0  0  0  0  0  0
  191.5450  172.8640  135.0290 N   0  0  0  0  0  0  0  0  0  0  0  0
  194.4610  173.8140  137.4030 C   0  0  0  0  0  1  0  0  0  0  0  0
  193.7030  171.9890  135.6900 C   0  0  2  0  0  3  0  0  0  0  0  0
  193.9250  170.7350  136.4000 N   0  0  0  0  0  2  0  0  0  0  0  0
  195.0120  171.3700  137.1420 C   0  0  0  0  0  2  0  0  0  0  0  0
  194.8300  172.6910  136.4400 C   0  0  0  0  0  0  0  0  0  0  0  0
  196.0060  173.0240  135.5410 C   0  0  0  0  0  1  0  0  0  0  0  0
  185.8260  177.1730  135.8060 N   0  0  0  0  0  2  0  0  0  0  0  0
  186.4330  178.5490  137.5910 O   0  0  0  0  0  0  0  0  0  0  0  0
  186.7890  177.7290  136.7050 C   0  0  0  0  0  0  0  0  0  0  0  0
  184.4130  177.5150  135.8700 C   0  0  0  0  0  2  0  0  0  0  0  0
  183.6930  176.5700  136.8200 C   0  0  2  0  0  3  0  0  0  0  0  0
  182.5930  174.5130  136.4840 O   0  0  0  0  0  0  0  0  0  0  0  0
  182.8030  175.6390  136.0620 C   0  0  0  0  0  3  0  0  0  0  0  0
  182.9310  177.3120  137.7270 O   0  0  0  0  0  0  0  0  0  0  0  0
  183.4330  176.9880  138.9950 C   0  0  2  0  0  3  0  0  0  0  0  0
  182.5950  175.9750  139.6430 N   0  0  0  0  0  2  0  0  0  0  0  0
  181.1840  176.2790  139.4280 C   0  0  0  0  0  2  0  0  0  0  0  0
  180.5310  175.1490  138.9420 O   0  0  0  0  0  1  0  0  0  0  0  0
  183.5090  178.1440  139.7800 O   0  0  0  0  0  0  0  0  0  0  0  0
  183.1880  179.1940  138.9150 C   0  0  0  0  0  2  0  0  0  0  0  0
  184.1150  180.2930  139.1230 N   0  0  0  0  0  1  0  0  0  0  0  0
  188.7070  176.6000  137.7310 N   0  0  0  0  0  2  0  0  0  0  0  0
  189.8970  177.2210  138.3180 C   0  0  0  0  0  2  0  0  0  0  0  0
  189.9530  177.0490  139.8320 C   0  0  1  0  0  3  0  0  0  0  0  0
  191.2720  177.4000  140.3240 N   0  0  0  0  0  1  0  0  0  0  0  0
  188.9150  177.9310  140.5050 C   0  0  0  0  0  2  0  0  0  0  0  0
  188.3490  177.2540  141.6620 N   0  0  0  0  0  2  0  0  0  0  0  0
  188.7350  177.9920  142.7910 N   0  0  0  0  0  2  0  0  0  0  0  0
  189.2730  177.4190  146.8320 C   0  0  0  0  0  2  0  0  0  0  0  0
  188.8740  177.0520  143.8950 C   0  0  1  0  0  3  0  0  0  0  0  0
  191.2160  176.6340  143.7610 O   0  0  0  0  0  1  0  0  0  0  0  0
  190.2460  177.2470  144.5520 C   0  0  2  0  0  3  0  0  0  0  0  0
  187.9280  177.3390  146.2650 N   0  0  0  0  0  0  0  0  0  0  0  0
  187.7180  177.2170  144.8440 C   0  0  0  0  0  0  0  0  0  0  0  0
  186.5430  177.1850  144.3820 O   0  0  0  0  0  0  0  0  0  0  0  0
  190.2810  176.6710  145.9720 C   0  0  1  0  0  3  0  0  0  0  0  0
  191.6620  176.8490  146.5910 C   0  0  0  0  0  2  0  0  0  0  0  0
  192.0770  175.6490  147.1620 O   0  0  0  0  0  1  0  0  0  0  0  0
  186.7920  177.6180  147.1370 C   0  0  0  0  0  2  0  0  0  0  0  0
  186.5100  179.0860  147.1850 C   0  0  0  0  0  3  0  0  0  0  0  0
  185.5560  179.5550  146.5930 O   0  0  0  0  0  0  0  0  0  0  0  0
  1 22  1  1  0  0  0
  1 35  1  0  0  0  0
  2  4  1  0  0  0  0
  2  3  2  0  0  0  0
  3 11  1  0  0  0  0
  4  8  2  0  0  0  0
  5  7  2  0  0  0  0
  5 10  1  0  0  0  0
  6  9  1  0  0  0  0
  7  2  1  0  0  0  0
  8  6  1  0  0  0  0
 10  3  1  0  0  0  0
 10  1  1  1  0  0  0
 11  6  2  0  0  0  0
 13  4  1  0  0  0  0
 13 12  2  0  0  0  0
 15 12  1  1  0  0  0
 15 16  1  0  0  0  0
 15 18  1  0  0  0  0
 16 17  1  0  0  0  0
 18 17  1  0  0  0  0
 18 14  1  0  0  0  0
 19 18  1  0  0  0  0
 20 23  1  0  0  0  0
 20 22  1  0  0  0  0
 22 21  2  0  0  0  0
 24 23  1  6  0  0  0
 24 27  1  0  0  0  0
 26 25  2  0  0  0  0
 26 24  1  0  0  0  0
 28 27  1  6  0  0  0
 28 29  1  0  0  0  0
 28 32  1  0  0  0  0
 30 29  1  0  0  0  0
 31 30  1  0  0  0  0
 33 34  1  0  0  0  0
 33 32  1  0  0  0  0
 35 36  1  0  0  0  0
 36 37  1  0  0  0  0
 37 38  1  1  0  0  0
 37 39  1  0  0  0  0
 39 40  1  0  0  0  0
 40 41  1  0  0  0  0
 43 41  1  6  0  0  0
 43 45  1  0  0  0  0
 43 47  1  0  0  0  0
 45 44  1  6  0  0  0
 45 49  1  0  0  0  0
 46 42  1  0  0  0  0
 46 52  1  0  0  0  0
 47 46  1  0  0  0  0
 48 47  2  0  0  0  0
 49 50  1  1  0  0  0
 49 42  1  0  0  0  0
 50 51  1  0  0  0  0
 52 53  1  0  0  0  0
 54 53  2  0  0  0  0
M  END
>  <MODEL>
3

>  <REMARK>
 VINA RESULT:      -5.9      3.188      7.545
  Name = 
  23 active torsions:
  status: ('A' for Active; 'I' for Inactive)
    1  A    between atoms: C_2  and  O_5
    2  A    between atoms: C_2  and  O_19
    3  A    between atoms: C_2  and  N_50
    4  A    between atoms: N_4  and  C_27
    5  A    between atoms: N_4  and  C_37
    6  A    between atoms: O_5  and  C_48
    7  A    between atoms: C_6  and  C_46
    8  A    between atoms: C_7  and  N_51
    9  A    between atoms: C_9  and  C_41
   10  A    between atoms: N_10  and  C_49
   11  A    between atoms: C_14  and  N_53
   12  A    between atoms: C_15  and  C_21
   13  A    between atoms: C_17  and  C_32
   14  A    between atoms: C_17  and  N_54
   15  A    between atoms: O_19  and  C_39
   16  A    between atoms: C_21  and  N_25
   17  A    between atoms: C_24  and  N_50
   18  A    between atoms: C_27  and  C_33
   19  A    between atoms: C_27  and  C_42
   20  A    between atoms: C_28  and  C_48
   21  A    between atoms: C_32  and  C_37
   22  A    between atoms: C_48  and  C_49
   23  A    between atoms: N_51  and  N_54
                            x       y       z     vdW  Elec       q    Type
                         _______ _______ _______ _____ _____    ______ ____

>  <TORSDO>
F 23

$$$$
=
 OpenBabel11032421073D

 54 57  0  0  1  0  0  0  0  0999 V2000
  188.7150  175.4660  136.6480 C   0  0  1  0  0  3  0  0  0  0  0  0
  192.0770  174.7100  136.5820 C   0  0  0  0  0  0  0  0  0  0  0  0
  191.0550  175.0800  137.4140 C   0  0  0  0  0  0  0  0  0  0  0  0
  193.3580  175.2330  136.7650 C   0  0  0  0  0  0  0  0  0  0  0  0
  190.1610  173.4600  135.9100 C   0  0  0  0  0  3  0  0  0  0  0  0
  192.5580  176.4920  138.6300 C   0  0  0  0  0  0  0  0  0  0  0  0
  191.6310  173.7460  135.5460 C   0  0  0  0  0  3  0  0  0  0  0  0
  193.5670  176.1110  137.7930 N   0  0  0  0  0  0  0  0  0  0  0  0
  192.8840  177.6180  139.9300 Cl  0  0  0  0  0  0  0  0  0  0  0  0
  189.7760  174.4200  137.0530 C   0  0  2  0  0  3  0  0  0  0  0  0
  191.2660  175.9760  138.4570 C   0  0  0  0  0  3  0  0  0  0  0  0
  195.6420  174.7210  136.3070 C   0  0  0  0  0  3  0  0  0  0  0  0
  194.4280  174.8630  135.8850 N   0  0  0  0  0  0  0  0  0  0  0  0
  198.2780  174.5460  137.4490 C   0  0  0  0  0  1  0  0  0  0  0  0
  196.7320  174.3480  135.3490 C   0  0  2  0  0  3  0  0  0  0  0  0
  196.6820  172.9140  135.0890 N   0  0  0  0  0  2  0  0  0  0  0  0
  198.0180  172.7840  135.6680 C   0  0  0  0  0  2  0  0  0  0  0  0
  198.1270  174.2580  135.9600 C   0  0  0  0  0  0  0  0  0  0  0  0
  199.1800  174.9300  135.1010 C   0  0  0  0  0  1  0  0  0  0  0  0
  186.6160  174.0440  136.4030 N   0  0  0  0  0  2  0  0  0  0  0  0
  187.5200  175.2120  134.5950 O   0  0  0  0  0  0  0  0  0  0  0  0
  187.5840  174.9200  135.8170 C   0  0  0  0  0  0  0  0  0  0  0  0
  185.5260  173.4630  135.6330 C   0  0  0  0  0  2  0  0  0  0  0  0
  184.2650  173.4110  136.4800 C   0  0  2  0  0  3  0  0  0  0  0  0
  184.1520  171.0660  136.2740 O   0  0  0  0  0  0  0  0  0  0  0  0
  184.0450  172.0320  137.0120 C   0  0  0  0  0  3  0  0  0  0  0  0
  183.1660  173.7930  135.7040 O   0  0  0  0  0  0  0  0  0  0  0  0
  182.5570  174.8430  136.4050 C   0  0  2  0  0  3  0  0  0  0  0  0
  183.5560  175.6350  137.1290 N   0  0  0  0  0  2  0  0  0  0  0  0
  183.6700  176.9620  136.5340 C   0  0  0  0  0  2  0  0  0  0  0  0
  184.4000  176.8820  135.3500 O   0  0  0  0  0  1  0  0  0  0  0  0
  181.6010  174.3250  137.2880 O   0  0  0  0  0  0  0  0  0  0  0  0
  180.5680  173.8570  136.4730 C   0  0  0  0  0  2  0  0  0  0  0  0
  179.4610  173.4120  137.3010 N   0  0  0  0  0  1  0  0  0  0  0  0
  188.2110  176.2050  137.8080 N   0  0  0  0  0  2  0  0  0  0  0  0
  187.3160  177.2820  137.3790 C   0  0  0  0  0  2  0  0  0  0  0  0
  187.2810  178.4380  138.3730 C   0  0  1  0  0  3  0  0  0  0  0  0
  185.9080  178.7600  138.7130 N   0  0  0  0  0  1  0  0  0  0  0  0
  188.0410  178.0730  139.6380 C   0  0  0  0  0  2  0  0  0  0  0  0
  187.2460  178.3890  140.8140 N   0  0  0  0  0  2  0  0  0  0  0  0
  188.1490  178.7280  141.8330 N   0  0  0  0  0  2  0  0  0  0  0  0
  189.5440  177.1370  145.3640 C   0  0  0  0  0  2  0  0  0  0  0  0
  188.3160  177.5500  142.6730 C   0  0  1  0  0  3  0  0  0  0  0  0
  190.3460  176.7000  141.7600 O   0  0  0  0  0  1  0  0  0  0  0  0
  189.8110  177.3000  142.8990 C   0  0  2  0  0  3  0  0  0  0  0  0
  188.1260  177.4690  145.2330 N   0  0  0  0  0  0  0  0  0  0  0  0
  187.5310  177.7250  143.9460 C   0  0  0  0  0  0  0  0  0  0  0  0
  186.3120  178.0450  143.8680 O   0  0  0  0  0  0  0  0  0  0  0  0
  190.0590  176.4160  144.1260 C   0  0  1  0  0  3  0  0  0  0  0  0
  191.5500  176.1570  144.3110 C   0  0  0  0  0  2  0  0  0  0  0  0
  191.9180  176.4590  145.6200 O   0  0  0  0  0  1  0  0  0  0  0  0
  187.3710  177.7660  146.4450 C   0  0  0  0  0  2  0  0  0  0  0  0
  188.2840  177.8750  147.6250 C   0  0  0  0  0  3  0  0  0  0  0  0
  187.8370  177.9020  148.7560 O   0  0  0  0  0  0  0  0  0  0  0  0
  1 22  1  1  0  0  0
  1 35  1  0  0  0  0
  2  4  1  0  0  0  0
  2  3  2  0  0  0  0
  3 11  1  0  0  0  0
  4  8  2  0  0  0  0
  5 10  1  0  0  0  0
  6  9  1  0  0  0  0
  7  5  2  0  0  0  0
  7  2  1  0  0  0  0
  8  6  1  0  0  0  0
 10  1  1  6  0  0  0
 10  3  1  0  0  0  0
 11  6  2  0  0  0  0
 13 12  2  0  0  0  0
 13  4  1  0  0  0  0
 15 18  1  0  0  0  0
 15 12  1  1  0  0  0
 16 15  1  0  0  0  0
 16 17  1  0  0  0  0
 17 18  1  0  0  0  0
 18 14  1  0  0  0  0
 19 18  1  0  0  0  0
 21 22  2  0  0  0  0
 22 20  1  0  0  0  0
 23 20  1  0  0  0  0
 24 23  1  6  0  0  0
 24 26  1  0  0  0  0
 25 26  2  0  0  0  0
 27 24  1  0  0  0  0
 28 27  1  1  0  0  0
 28 29  1  0  0  0  0
 28 32  1  0  0  0  0
 30 29  1  0  0  0  0
 31 30  1  0  0  0  0
 33 32  1  0  0  0  0
 33 34  1  0  0  0  0
 36 35  1  0  0  0  0
 36 37  1  0  0  0  0
 37 38  1  1  0  0  0
 37 39  1  0  0  0  0
 39 40  1  0  0  0  0
 40 41  1  0  0  0  0
 43 41  1  6  0  0  0
 43 45  1  0  0  0  0
 43 47  1  0  0  0  0
 45 44  1  6  0  0  0
 45 49  1  0  0  0  0
 46 42  1  0  0  0  0
 46 52  1  0  0  0  0
 47 46  1  0  0  0  0
 48 47  2  0  0  0  0
 49 50  1  1  0  0  0
 49 42  1  0  0  0  0
 50 51  1  0  0  0  0
 52 53  1  0  0  0  0
 53 54  2  0  0  0  0
M  END
>  <MODEL>
4

>  <REMARK>
 VINA RESULT:      -5.8      3.555      8.767
  Name = 
  23 active torsions:
  status: ('A' for Active; 'I' for Inactive)
    1  A    between atoms: C_2  and  O_5
    2  A    between atoms: C_2  and  O_19
    3  A    between atoms: C_2  and  N_50
    4  A    between atoms: N_4  and  C_27
    5  A    between atoms: N_4  and  C_37
    6  A    between atoms: O_5  and  C_48
    7  A    between atoms: C_6  and  C_46
    8  A    between atoms: C_7  and  N_51
    9  A    between atoms: C_9  and  C_41
   10  A    between atoms: N_10  and  C_49
   11  A    between atoms: C_14  and  N_53
   12  A    between atoms: C_15  and  C_21
   13  A    between atoms: C_17  and  C_32
   14  A    between atoms: C_17  and  N_54
   15  A    between atoms: O_19  and  C_39
   16  A    between atoms: C_21  and  N_25
   17  A    between atoms: C_24  and  N_50
   18  A    between atoms: C_27  and  C_33
   19  A    between atoms: C_27  and  C_42
   20  A    between atoms: C_28  and  C_48
   21  A    between atoms: C_32  and  C_37
   22  A    between atoms: C_48  and  C_49
   23  A    between atoms: N_51  and  N_54
                            x       y       z     vdW  Elec       q    Type
                         _______ _______ _______ _____ _____    ______ ____

>  <TORSDO>
F 23

$$$$
=
 OpenBabel11032421073D

 54 57  0  0  1  0  0  0  0  0999 V2000
  187.8270  177.8080  137.9730 C   0  0  1  0  0  3  0  0  0  0  0  0
  190.8620  176.2720  137.4170 C   0  0  0  0  0  0  0  0  0  0  0  0
  189.9840  176.6360  138.4020 C   0  0  0  0  0  0  0  0  0  0  0  0
  192.2380  176.3760  137.6250 C   0  0  0  0  0  0  0  0  0  0  0  0
  188.6740  175.7970  136.5950 C   0  0  0  0  0  3  0  0  0  0  0  0
  191.8230  177.2100  139.8240 C   0  0  0  0  0  0  0  0  0  0  0  0
  190.1630  175.7910  136.1990 C   0  0  0  0  0  3  0  0  0  0  0  0
  192.6850  176.8410  138.8320 N   0  0  0  0  0  0  0  0  0  0  0  0
  192.4520  177.7960  141.3490 Cl  0  0  0  0  0  0  0  0  0  0  0  0
  188.5720  176.4560  137.9850 C   0  0  2  0  0  3  0  0  0  0  0  0
  190.4380  177.1120  139.6280 C   0  0  0  0  0  3  0  0  0  0  0  0
  194.1830  175.2560  136.8200 C   0  0  0  0  0  3  0  0  0  0  0  0
  193.1610  176.0130  136.5900 N   0  0  0  0  0  0  0  0  0  0  0  0
  196.7790  174.3360  137.6570 C   0  0  0  0  0  1  0  0  0  0  0  0
  195.1310  174.9140  135.7110 C   0  0  2  0  0  3  0  0  0  0  0  0
  194.7810  173.6120  135.1550 N   0  0  0  0  0  2  0  0  0  0  0  0
  196.0880  173.1060  135.5710 C   0  0  0  0  0  2  0  0  0  0  0  0
  196.5050  174.4290  136.1600 C   0  0  0  0  0  0  0  0  0  0  0  0
  197.6330  175.0700  135.3750 C   0  0  0  0  0  1  0  0  0  0  0  0
  185.5600  177.0360  137.1080 N   0  0  0  0  0  2  0  0  0  0  0  0
  186.7850  178.6950  136.0150 O   0  0  0  0  0  0  0  0  0  0  0  0
  186.6990  177.8910  136.9790 C   0  0  0  0  0  0  0  0  0  0  0  0
  184.4610  177.0550  136.1530 C   0  0  0  0  0  2  0  0  0  0  0  0
  183.3280  176.1700  136.6490 C   0  0  2  0  0  3  0  0  0  0  0  0
  182.9490  173.8490  136.8010 O   0  0  0  0  0  0  0  0  0  0  0  0
  183.5490  174.7510  136.2370 C   0  0  0  0  0  3  0  0  0  0  0  0
  182.1160  176.6270  136.1250 O   0  0  0  0  0  0  0  0  0  0  0  0
  181.2800  176.8330  137.2310 C   0  0  2  0  0  3  0  0  0  0  0  0
  180.4830  178.0520  137.0620 N   0  0  0  0  0  2  0  0  0  0  0  0
  181.3480  179.2260  137.1030 C   0  0  0  0  0  2  0  0  0  0  0  0
  180.5980  180.3690  136.8320 O   0  0  0  0  0  1  0  0  0  0  0  0
  182.0530  176.9060  138.3970 O   0  0  0  0  0  0  0  0  0  0  0  0
  181.2930  176.2650  139.3790 C   0  0  0  0  0  2  0  0  0  0  0  0
  180.7110  177.2570  140.2650 N   0  0  0  0  0  1  0  0  0  0  0  0
  187.3810  178.1940  139.3130 N   0  0  0  0  0  2  0  0  0  0  0  0
  185.9680  178.5760  139.2920 C   0  0  0  0  0  2  0  0  0  0  0  0
  185.4500  178.9620  140.6740 C   0  0  1  0  0  3  0  0  0  0  0  0
  184.2430  178.2160  140.9790 N   0  0  0  0  0  1  0  0  0  0  0  0
  186.5010  178.6720  141.7330 C   0  0  0  0  0  2  0  0  0  0  0  0
  185.8890  178.0440  142.8940 N   0  0  0  0  0  2  0  0  0  0  0  0
  186.8400  177.1550  143.4200 N   0  0  0  0  0  2  0  0  0  0  0  0
  189.5930  177.0570  146.4790 C   0  0  0  0  0  2  0  0  0  0  0  0
  187.6460  177.9000  144.3760 C   0  0  1  0  0  3  0  0  0  0  0  0
  186.0520  178.1400  146.1310 O   0  0  0  0  0  1  0  0  0  0  0  0
  187.2430  177.4950  145.7990 C   0  0  2  0  0  3  0  0  0  0  0  0
  190.0400  177.3340  145.1150 N   0  0  0  0  0  0  0  0  0  0  0  0
  189.1060  177.6890  144.0760 C   0  0  0  0  0  0  0  0  0  0  0  0
  189.5190  177.8880  142.8990 O   0  0  0  0  0  0  0  0  0  0  0  0
  188.3340  177.8430  146.8180 C   0  0  1  0  0  3  0  0  0  0  0  0
  187.8970  177.4580  148.2270 C   0  0  0  0  0  2  0  0  0  0  0  0
  188.5720  178.2450  149.1570 O   0  0  0  0  0  1  0  0  0  0  0  0
  191.4200  177.0200  144.7620 C   0  0  0  0  0  2  0  0  0  0  0  0
  191.4910  175.7420  143.9870 C   0  0  0  0  0  3  0  0  0  0  0  0
  192.2670  174.8620  144.3100 O   0  0  0  0  0  0  0  0  0  0  0  0
  1 22  1  6  0  0  0
  1 35  1  0  0  0  0
  2  4  1  0  0  0  0
  2  3  2  0  0  0  0
  3 11  1  0  0  0  0
  4  8  2  0  0  0  0
  5 10  1  0  0  0  0
  6  9  1  0  0  0  0
  7  5  2  0  0  0  0
  7  2  1  0  0  0  0
  8  6  1  0  0  0  0
 10  1  1  6  0  0  0
 10  3  1  0  0  0  0
 11  6  2  0  0  0  0
 13 12  2  0  0  0  0
 13  4  1  0  0  0  0
 15 18  1  0  0  0  0
 15 12  1  1  0  0  0
 16 17  1  0  0  0  0
 16 15  1  0  0  0  0
 17 18  1  0  0  0  0
 18 14  1  0  0  0  0
 19 18  1  0  0  0  0
 21 22  2  0  0  0  0
 22 20  1  0  0  0  0
 23 20  1  0  0  0  0
 24 23  1  6  0  0  0
 26 24  1  0  0  0  0
 26 25  2  0  0  0  0
 27 24  1  0  0  0  0
 28 27  1  6  0  0  0
 28 32  1  0  0  0  0
 29 30  1  0  0  0  0
 29 28  1  0  0  0  0
 31 30  1  0  0  0  0
 32 33  1  0  0  0  0
 33 34  1  0  0  0  0
 36 35  1  0  0  0  0
 36 37  1  0  0  0  0
 37 38  1  1  0  0  0
 37 39  1  0  0  0  0
 39 40  1  0  0  0  0
 40 41  1  0  0  0  0
 42 49  1  0  0  0  0
 43 41  1  6  0  0  0
 43 45  1  0  0  0  0
 45 44  1  1  0  0  0
 45 49  1  0  0  0  0
 46 42  1  0  0  0  0
 47 43  1  0  0  0  0
 47 46  1  0  0  0  0
 48 47  2  0  0  0  0
 49 50  1  1  0  0  0
 50 51  1  0  0  0  0
 52 46  1  0  0  0  0
 53 54  2  0  0  0  0
 53 52  1  0  0  0  0
M  END
>  <MODEL>
5

>  <REMARK>
 VINA RESULT:      -5.6      3.461      7.961
  Name = 
  23 active torsions:
  status: ('A' for Active; 'I' for Inactive)
    1  A    between atoms: C_2  and  O_5
    2  A    between atoms: C_2  and  O_19
    3  A    between atoms: C_2  and  N_50
    4  A    between atoms: N_4  and  C_27
    5  A    between atoms: N_4  and  C_37
    6  A    between atoms: O_5  and  C_48
    7  A    between atoms: C_6  and  C_46
    8  A    between atoms: C_7  and  N_51
    9  A    between atoms: C_9  and  C_41
   10  A    between atoms: N_10  and  C_49
   11  A    between atoms: C_14  and  N_53
   12  A    between atoms: C_15  and  C_21
   13  A    between atoms: C_17  and  C_32
   14  A    between atoms: C_17  and  N_54
   15  A    between atoms: O_19  and  C_39
   16  A    between atoms: C_21  and  N_25
   17  A    between atoms: C_24  and  N_50
   18  A    between atoms: C_27  and  C_33
   19  A    between atoms: C_27  and  C_42
   20  A    between atoms: C_28  and  C_48
   21  A    between atoms: C_32  and  C_37
   22  A    between atoms: C_48  and  C_49
   23  A    between atoms: N_51  and  N_54
                            x       y       z     vdW  Elec       q    Type
                         _______ _______ _______ _____ _____    ______ ____

>  <TORSDO>
F 23

$$$$
=
 OpenBabel11032421073D

 54 57  0  0  1  0  0  0  0  0999 V2000
  188.3550  177.4410  137.1740 C   0  0  1  0  0  3  0  0  0  0  0  0
  185.1130  176.7060  136.2660 C   0  0  0  0  0  0  0  0  0  0  0  0
  185.8790  177.6070  136.9550 C   0  0  0  0  0  0  0  0  0  0  0  0
  183.8590  176.3300  136.7520 C   0  0  0  0  0  0  0  0  0  0  0  0
  187.0750  177.0740  134.9620 C   0  0  0  0  0  3  0  0  0  0  0  0
  184.1680  177.7850  138.6210 C   0  0  0  0  0  0  0  0  0  0  0  0
  185.7830  176.2380  135.0270 C   0  0  0  0  0  3  0  0  0  0  0  0
  183.4150  176.8860  137.9210 N   0  0  0  0  0  0  0  0  0  0  0  0
  183.5470  178.4660  140.1090 Cl  0  0  0  0  0  0  0  0  0  0  0  0
  187.1730  177.8710  136.2790 C   0  0  2  0  0  3  0  0  0  0  0  0
  185.4290  178.1700  138.1450 C   0  0  0  0  0  3  0  0  0  0  0  0
  182.7000  174.2530  136.5810 C   0  0  0  0  0  3  0  0  0  0  0  0
  183.0610  175.3720  136.0440 N   0  0  0  0  0  0  0  0  0  0  0  0
  183.4650  171.4940  136.8690 C   0  0  0  0  0  1  0  0  0  0  0  0
  181.8770  173.2740  135.7990 C   0  0  2  0  0  3  0  0  0  0  0  0
  180.6050  173.0560  136.4770 N   0  0  0  0  0  2  0  0  0  0  0  0
  180.9610  171.6490  136.6490 C   0  0  0  0  0  2  0  0  0  0  0  0
  182.2880  171.8140  135.9550 C   0  0  0  0  0  0  0  0  0  0  0  0
  182.3320  171.0790  134.6290 C   0  0  0  0  0  1  0  0  0  0  0  0
  188.3570  177.8700  139.6840 N   0  0  0  0  0  2  0  0  0  0  0  0
  188.9930  179.5200  138.1620 O   0  0  0  0  0  0  0  0  0  0  0  0
  188.6020  178.3400  138.3570 C   0  0  0  0  0  0  0  0  0  0  0  0
  188.5470  178.7110  140.8560 C   0  0  0  0  0  2  0  0  0  0  0  0
  188.7970  177.8460  142.0810 C   0  0  2  0  0  3  0  0  0  0  0  0
  187.3020  176.5130  143.3220 O   0  0  0  0  0  0  0  0  0  0  0  0
  187.5240  177.6060  142.8250 C   0  0  0  0  0  3  0  0  0  0  0  0
  189.7170  178.4810  142.9210 O   0  0  0  0  0  0  0  0  0  0  0  0
  190.7360  177.5440  143.1400 C   0  0  2  0  0  3  0  0  0  0  0  0
  190.9700  176.7390  141.9380 N   0  0  0  0  0  2  0  0  0  0  0  0
  192.1360  177.2410  141.2170 C   0  0  0  0  0  2  0  0  0  0  0  0
  191.7630  177.6150  139.9280 O   0  0  0  0  0  1  0  0  0  0  0  0
  190.3980  176.7270  144.2250 O   0  0  0  0  0  0  0  0  0  0  0  0
  190.5530  177.5370  145.3540 C   0  0  0  0  0  2  0  0  0  0  0  0
  189.8560  176.9390  146.4790 N   0  0  0  0  0  1  0  0  0  0  0  0
  188.2430  176.0410  137.5870 N   0  0  0  0  0  2  0  0  0  0  0  0
  189.5400  175.3710  137.4820 C   0  0  0  0  0  2  0  0  0  0  0  0
  189.4210  173.9630  136.9050 C   0  0  1  0  0  3  0  0  0  0  0  0
  188.5140  173.9650  135.7730 N   0  0  0  0  0  1  0  0  0  0  0  0
  190.7820  173.4560  136.4580 C   0  0  0  0  0  2  0  0  0  0  0  0
  191.7290  174.5570  136.3720 N   0  0  0  0  0  2  0  0  0  0  0  0
  192.8530  174.1840  137.1240 N   0  0  0  0  0  2  0  0  0  0  0  0
  196.8460  173.3770  136.5310 C   0  0  0  0  0  2  0  0  0  0  0  0
  193.9240  173.8860  136.1830 C   0  0  1  0  0  3  0  0  0  0  0  0
  194.5180  176.1050  135.5500 O   0  0  0  0  0  1  0  0  0  0  0  0
  194.9800  174.9940  136.2550 C   0  0  2  0  0  3  0  0  0  0  0  0
  195.8860  172.2750  136.5710 N   0  0  0  0  0  0  0  0  0  0  0  0
  194.4690  172.5100  136.4600 C   0  0  0  0  0  0  0  0  0  0  0  0
  193.6620  171.5410  136.5330 O   0  0  0  0  0  0  0  0  0  0  0  0
  196.3270  174.5320  135.6870 C   0  0  1  0  0  3  0  0  0  0  0  0
  197.3500  175.6600  135.7410 C   0  0  0  0  0  2  0  0  0  0  0  0
  197.9350  175.7000  137.0040 O   0  0  0  0  0  1  0  0  0  0  0  0
  196.3660  170.9530  136.9590 C   0  0  0  0  0  2  0  0  0  0  0  0
  197.8450  170.8480  136.7570 C   0  0  0  0  0  3  0  0  0  0  0  0
  198.4860  169.9720  137.3070 O   0  0  0  0  0  0  0  0  0  0  0  0
  1 35  1  1  0  0  0
  1 22  1  0  0  0  0
  2  4  1  0  0  0  0
  2  3  2  0  0  0  0
  3 11  1  0  0  0  0
  4  8  2  0  0  0  0
  5  7  2  0  0  0  0
  5 10  1  0  0  0  0
  6  9  1  0  0  0  0
  7  2  1  0  0  0  0
  8  6  1  0  0  0  0
 10  3  1  0  0  0  0
 10  1  1  1  0  0  0
 11  6  2  0  0  0  0
 13 12  2  0  0  0  0
 13  4  1  0  0  0  0
 15 18  1  0  0  0  0
 15 16  1  0  0  0  0
 15 12  1  1  0  0  0
 16 17  1  0  0  0  0
 18 17  1  0  0  0  0
 18 14  1  0  0  0  0
 19 18  1  0  0  0  0
 20 23  1  0  0  0  0
 21 22  2  0  0  0  0
 22 20  1  0  0  0  0
 24 23  1  6  0  0  0
 24 26  1  0  0  0  0
 24 27  1  0  0  0  0
 26 25  2  0  0  0  0
 27 28  1  0  0  0  0
 28 29  1  6  0  0  0
 28 32  1  0  0  0  0
 30 29  1  0  0  0  0
 31 30  1  0  0  0  0
 32 33  1  0  0  0  0
 33 34  1  0  0  0  0
 36 35  1  0  0  0  0
 37 38  1  6  0  0  0
 37 36  1  0  0  0  0
 39 37  1  0  0  0  0
 40 39  1  0  0  0  0
 40 41  1  0  0  0  0
 42 46  1  0  0  0  0
 43 45  1  0  0  0  0
 43 47  1  0  0  0  0
 43 41  1  1  0  0  0
 45 44  1  6  0  0  0
 46 52  1  0  0  0  0
 47 48  2  0  0  0  0
 47 46  1  0  0  0  0
 49 50  1  1  0  0  0
 49 45  1  0  0  0  0
 49 42  1  0  0  0  0
 50 51  1  0  0  0  0
 53 52  1  0  0  0  0
 53 54  2  0  0  0  0
M  END
>  <MODEL>
6

>  <REMARK>
 VINA RESULT:      -5.5      3.255      7.614
  Name = 
  23 active torsions:
  status: ('A' for Active; 'I' for Inactive)
    1  A    between atoms: C_2  and  O_5
    2  A    between atoms: C_2  and  O_19
    3  A    between atoms: C_2  and  N_50
    4  A    between atoms: N_4  and  C_27
    5  A    between atoms: N_4  and  C_37
    6  A    between atoms: O_5  and  C_48
    7  A    between atoms: C_6  and  C_46
    8  A    between atoms: C_7  and  N_51
    9  A    between atoms: C_9  and  C_41
   10  A    between atoms: N_10  and  C_49
   11  A    between atoms: C_14  and  N_53
   12  A    between atoms: C_15  and  C_21
   13  A    between atoms: C_17  and  C_32
   14  A    between atoms: C_17  and  N_54
   15  A    between atoms: O_19  and  C_39
   16  A    between atoms: C_21  and  N_25
   17  A    between atoms: C_24  and  N_50
   18  A    between atoms: C_27  and  C_33
   19  A    between atoms: C_27  and  C_42
   20  A    between atoms: C_28  and  C_48
   21  A    between atoms: C_32  and  C_37
   22  A    between atoms: C_48  and  C_49
   23  A    between atoms: N_51  and  N_54
                            x       y       z     vdW  Elec       q    Type
                         _______ _______ _______ _____ _____    ______ ____

>  <TORSDO>
F 23

$$$$
=
 OpenBabel11032421073D

 54 57  0  0  1  0  0  0  0  0999 V2000
  190.4710  176.5400  137.9770 C   0  0  1  0  0  3  0  0  0  0  0  0
  188.9340  177.9870  140.7010 C   0  0  0  0  0  0  0  0  0  0  0  0
  190.1250  177.4790  140.2590 C   0  0  0  0  0  0  0  0  0  0  0  0
  188.5180  177.7670  142.0150 C   0  0  0  0  0  0  0  0  0  0  0  0
  189.2080  178.7400  138.4550 C   0  0  0  0  0  3  0  0  0  0  0  0
  190.5190  176.5260  142.4200 C   0  0  0  0  0  0  0  0  0  0  0  0
  188.2240  178.7440  139.6410 C   0  0  0  0  0  3  0  0  0  0  0  0
  189.3290  177.0420  142.8460 N   0  0  0  0  0  0  0  0  0  0  0  0
  191.5150  175.6080  143.5280 Cl  0  0  0  0  0  0  0  0  0  0  0  0
  190.3830  177.8180  138.8380 C   0  0  2  0  0  3  0  0  0  0  0  0
  190.9480  176.7380  141.1020 C   0  0  0  0  0  3  0  0  0  0  0  0
  186.3070  177.5030  142.8670 C   0  0  0  0  0  3  0  0  0  0  0  0
  187.2630  178.2810  142.4780 N   0  0  0  0  0  0  0  0  0  0  0  0
  186.3400  178.6530  145.5050 C   0  0  0  0  0  1  0  0  0  0  0  0
  185.0050  178.0840  143.3300 C   0  0  2  0  0  3  0  0  0  0  0  0
  184.8000  179.3820  142.6990 N   0  0  0  0  0  2  0  0  0  0  0  0
  184.8180  180.0050  144.0220 C   0  0  0  0  0  2  0  0  0  0  0  0
  185.0290  178.6900  144.7290 C   0  0  0  0  0  0  0  0  0  0  0  0
  183.8210  178.2900  145.5550 C   0  0  0  0  0  1  0  0  0  0  0  0
  192.0010  174.5320  137.6400 N   0  0  0  0  0  2  0  0  0  0  0  0
  192.8530  176.6540  138.1090 O   0  0  0  0  0  0  0  0  0  0  0  0
  191.8460  175.9290  137.9030 C   0  0  0  0  0  0  0  0  0  0  0  0
  193.3060  173.8900  137.5930 C   0  0  0  0  0  2  0  0  0  0  0  0
  193.7390  173.7000  136.1480 C   0  0  2  0  0  3  0  0  0  0  0  0
  194.0080  171.5450  135.2310 O   0  0  0  0  0  0  0  0  0  0  0  0
  193.2260  172.4030  135.6110 C   0  0  0  0  0  3  0  0  0  0  0  0
  195.1350  173.7180  136.0730 O   0  0  0  0  0  0  0  0  0  0  0  0
  195.5130  175.0260  136.4050 C   0  0  2  0  0  3  0  0  0  0  0  0
  195.8360  175.7960  135.2000 N   0  0  0  0  0  2  0  0  0  0  0  0
  194.9360  176.9380  135.0780 C   0  0  0  0  0  2  0  0  0  0  0  0
  195.6170  178.1080  135.4060 O   0  0  0  0  0  1  0  0  0  0  0  0
  196.6070  174.9920  137.2790 O   0  0  0  0  0  0  0  0  0  0  0  0
  197.6030  174.2980  136.5880 C   0  0  0  0  0  2  0  0  0  0  0  0
  198.8960  174.8940  136.8740 N   0  0  0  0  0  1  0  0  0  0  0  0
  189.4710  175.5470  138.3750 N   0  0  0  0  0  2  0  0  0  0  0  0
  188.2410  175.7200  137.6010 C   0  0  0  0  0  2  0  0  0  0  0  0
  187.8950  174.4840  136.7770 C   0  0  1  0  0  3  0  0  0  0  0  0
  188.7170  173.3640  137.1930 N   0  0  0  0  0  1  0  0  0  0  0  0
  186.4290  174.1230  136.9520 C   0  0  0  0  0  2  0  0  0  0  0  0
  185.7910  173.9530  135.6560 N   0  0  0  0  0  2  0  0  0  0  0  0
  184.7030  174.8380  135.6210 N   0  0  0  0  0  2  0  0  0  0  0  0
  181.6570  175.9950  138.1370 C   0  0  0  0  0  2  0  0  0  0  0  0
  184.2220  174.9860  136.9880 C   0  0  1  0  0  3  0  0  0  0  0  0
  185.1420  177.1240  137.4990 O   0  0  0  0  0  1  0  0  0  0  0  0
  183.9350  176.4660  137.2640 C   0  0  2  0  0  3  0  0  0  0  0  0
  181.8230  174.5810  137.8080 N   0  0  0  0  0  0  0  0  0  0  0  0
  183.0340  174.0870  137.2030 C   0  0  0  0  0  0  0  0  0  0  0  0
  183.1330  172.8650  136.8980 O   0  0  0  0  0  0  0  0  0  0  0  0
  182.9940  176.6480  138.4600 C   0  0  1  0  0  3  0  0  0  0  0  0
  182.7480  178.1270  138.7320 C   0  0  0  0  0  2  0  0  0  0  0  0
  182.2810  178.7450  137.5750 O   0  0  0  0  0  1  0  0  0  0  0  0
  180.6540  173.7100  137.8880 C   0  0  0  0  0  2  0  0  0  0  0  0
  179.6390  174.2740  138.8310 C   0  0  0  0  0  3  0  0  0  0  0  0
  179.5770  173.8850  139.9820 O   0  0  0  0  0  0  0  0  0  0  0  0
  1 22  1  1  0  0  0
  1 35  1  0  0  0  0
  2  4  1  0  0  0  0
  3  2  2  0  0  0  0
  3 11  1  0  0  0  0
  4 13  1  0  0  0  0
  4  8  2  0  0  0  0
  5 10  1  0  0  0  0
  5  7  2  0  0  0  0
  6  8  1  0  0  0  0
  6  9  1  0  0  0  0
  7  2  1  0  0  0  0
 10  1  1  6  0  0  0
 10  3  1  0  0  0  0
 11  6  2  0  0  0  0
 13 12  2  0  0  0  0
 15 12  1  6  0  0  0
 15 18  1  0  0  0  0
 16 15  1  0  0  0  0
 16 17  1  0  0  0  0
 17 18  1  0  0  0  0
 18 14  1  0  0  0  0
 18 19  1  0  0  0  0
 20 22  1  0  0  0  0
 22 21  2  0  0  0  0
 23 20  1  0  0  0  0
 24 26  1  1  0  0  0
 24 23  1  0  0  0  0
 25 26  2  0  0  0  0
 27 24  1  0  0  0  0
 27 28  1  0  0  0  0
 28 29  1  6  0  0  0
 28 32  1  0  0  0  0
 30 29  1  0  0  0  0
 30 31  1  0  0  0  0
 33 34  1  0  0  0  0
 33 32  1  0  0  0  0
 36 35  1  0  0  0  0
 37 39  1  0  0  0  0
 37 38  1  1  0  0  0
 37 36  1  0  0  0  0
 40 39  1  0  0  0  0
 41 40  1  0  0  0  0
 42 49  1  0  0  0  0
 43 41  1  6  0  0  0
 43 47  1  0  0  0  0
 43 45  1  0  0  0  0
 45 44  1  1  0  0  0
 45 49  1  0  0  0  0
 46 52  1  0  0  0  0
 46 42  1  0  0  0  0
 47 46  1  0  0  0  0
 48 47  2  0  0  0  0
 49 50  1  6  0  0  0
 51 50  1  0  0  0  0
 52 53  1  0  0  0  0
 53 54  2  0  0  0  0
M  END
>  <MODEL>
7

>  <REMARK>
 VINA RESULT:      -5.4      3.730      9.344
  Name = 
  23 active torsions:
  status: ('A' for Active; 'I' for Inactive)
    1  A    between atoms: C_2  and  O_5
    2  A    between atoms: C_2  and  O_19
    3  A    between atoms: C_2  and  N_50
    4  A    between atoms: N_4  and  C_27
    5  A    between atoms: N_4  and  C_37
    6  A    between atoms: O_5  and  C_48
    7  A    between atoms: C_6  and  C_46
    8  A    between atoms: C_7  and  N_51
    9  A    between atoms: C_9  and  C_41
   10  A    between atoms: N_10  and  C_49
   11  A    between atoms: C_14  and  N_53
   12  A    between atoms: C_15  and  C_21
   13  A    between atoms: C_17  and  C_32
   14  A    between atoms: C_17  and  N_54
   15  A    between atoms: O_19  and  C_39
   16  A    between atoms: C_21  and  N_25
   17  A    between atoms: C_24  and  N_50
   18  A    between atoms: C_27  and  C_33
   19  A    between atoms: C_27  and  C_42
   20  A    between atoms: C_28  and  C_48
   21  A    between atoms: C_32  and  C_37
   22  A    between atoms: C_48  and  C_49
   23  A    between atoms: N_51  and  N_54
                            x       y       z     vdW  Elec       q    Type
                         _______ _______ _______ _____ _____    ______ ____

>  <TORSDO>
F 23

$$$$
=
 OpenBabel11032421073D

 54 57  0  0  1  0  0  0  0  0999 V2000
  188.3500  177.1850  137.2120 C   0  0  1  0  0  3  0  0  0  0  0  0
  185.0250  176.9500  136.3370 C   0  0  0  0  0  0  0  0  0  0  0  0
  185.9230  177.7180  137.0280 C   0  0  0  0  0  0  0  0  0  0  0  0
  183.7350  176.7560  136.8330 C   0  0  0  0  0  0  0  0  0  0  0  0
  187.0060  177.0450  135.0130 C   0  0  0  0  0  3  0  0  0  0  0  0
  184.2750  178.1220  138.7170 C   0  0  0  0  0  0  0  0  0  0  0  0
  185.6050  176.4070  135.0830 C   0  0  0  0  0  3  0  0  0  0  0  0
  183.3910  177.3550  138.0150 N   0  0  0  0  0  0  0  0  0  0  0  0
  183.7780  178.8640  140.2220 Cl  0  0  0  0  0  0  0  0  0  0  0  0
  187.2340  177.7980  136.3390 C   0  0  2  0  0  3  0  0  0  0  0  0
  185.5750  178.3240  138.2310 C   0  0  0  0  0  3  0  0  0  0  0  0
  182.0570  175.0660  136.7260 C   0  0  0  0  0  3  0  0  0  0  0  0
  182.7970  175.9380  136.1230 N   0  0  0  0  0  0  0  0  0  0  0  0
  180.1390  173.6000  138.2930 C   0  0  0  0  0  1  0  0  0  0  0  0
  181.0990  174.2210  135.9420 C   0  0  2  0  0  3  0  0  0  0  0  0
  180.0670  175.0690  135.3590 N   0  0  0  0  0  2  0  0  0  0  0  0
  179.0630  174.3520  136.1440 C   0  0  0  0  0  2  0  0  0  0  0  0
  180.0870  173.4450  136.7780 C   0  0  0  0  0  0  0  0  0  0  0  0
  179.9340  172.0080  136.3180 C   0  0  0  0  0  1  0  0  0  0  0  0
  188.7790  177.4770  139.7060 N   0  0  0  0  0  2  0  0  0  0  0  0
  189.0480  179.2440  138.2050 O   0  0  0  0  0  0  0  0  0  0  0  0
  188.7590  178.0330  138.3890 C   0  0  0  0  0  0  0  0  0  0  0  0
  189.1330  178.2640  140.8770 C   0  0  0  0  0  2  0  0  0  0  0  0
  188.2800  177.8420  142.0630 C   0  0  2  0  0  3  0  0  0  0  0  0
  185.9610  177.9600  142.4640 O   0  0  0  0  0  0  0  0  0  0  0  0
  186.9510  178.5240  142.0240 C   0  0  0  0  0  3  0  0  0  0  0  0
  188.9390  178.1700  143.2520 O   0  0  0  0  0  0  0  0  0  0  0  0
  188.9110  177.0040  144.0310 C   0  0  2  0  0  3  0  0  0  0  0  0
  187.9530  177.1370  145.1330 N   0  0  0  0  0  2  0  0  0  0  0  0
  188.5560  177.8830  146.2330 C   0  0  0  0  0  2  0  0  0  0  0  0
  188.3800  177.1830  147.4240 O   0  0  0  0  0  1  0  0  0  0  0  0
  190.1950  176.7360  144.5210 O   0  0  0  0  0  0  0  0  0  0  0  0
  190.9240  176.2970  143.4120 C   0  0  0  0  0  2  0  0  0  0  0  0
  191.9760  177.2530  143.1140 N   0  0  0  0  0  1  0  0  0  0  0  0
  188.0240  175.8210  137.6310 N   0  0  0  0  0  2  0  0  0  0  0  0
  188.8780  174.8550  136.9360 C   0  0  0  0  0  2  0  0  0  0  0  0
  190.3420  175.2830  136.9170 C   0  0  1  0  0  3  0  0  0  0  0  0
  190.9480  175.0410  138.2120 N   0  0  0  0  0  1  0  0  0  0  0  0
  191.1050  174.5110  135.8530 C   0  0  0  0  0  2  0  0  0  0  0  0
  191.7320  173.3340  136.4330 N   0  0  0  0  0  2  0  0  0  0  0  0
  192.9780  173.1880  135.8050 N   0  0  0  0  0  2  0  0  0  0  0  0
  196.8890  172.3750  136.7980 C   0  0  0  0  0  2  0  0  0  0  0  0
  193.9270  172.7580  136.8220 C   0  0  1  0  0  3  0  0  0  0  0  0
  193.7500  170.3970  136.5520 O   0  0  0  0  0  1  0  0  0  0  0  0
  194.6180  171.4710  136.3550 C   0  0  2  0  0  3  0  0  0  0  0  0
  196.3060  173.6650  137.1620 N   0  0  0  0  0  0  0  0  0  0  0  0
  194.8820  173.8820  137.1260 C   0  0  0  0  0  0  0  0  0  0  0  0
  194.4110  175.0180  137.4130 O   0  0  0  0  0  0  0  0  0  0  0  0
  195.9340  171.2300  137.1030 C   0  0  1  0  0  3  0  0  0  0  0  0
  196.5840  169.9310  136.6430 C   0  0  0  0  0  2  0  0  0  0  0  0
  197.6630  170.2160  135.8110 O   0  0  0  0  0  1  0  0  0  0  0  0
  197.2010  174.8030  137.3410 C   0  0  0  0  0  2  0  0  0  0  0  0
  198.5360  174.3520  137.8440 C   0  0  0  0  0  3  0  0  0  0  0  0
  199.1040  174.9620  138.7310 O   0  0  0  0  0  0  0  0  0  0  0  0
  1 35  1  1  0  0  0
  1 22  1  0  0  0  0
  2  4  1  0  0  0  0
  2  3  2  0  0  0  0
  3 11  1  0  0  0  0
  4  8  2  0  0  0  0
  5  7  2  0  0  0  0
  5 10  1  0  0  0  0
  6  9  1  0  0  0  0
  7  2  1  0  0  0  0
  8  6  1  0  0  0  0
 10  3  1  0  0  0  0
 10  1  1  1  0  0  0
 11  6  2  0  0  0  0
 13 12  2  0  0  0  0
 13  4  1  0  0  0  0
 15 12  1  1  0  0  0
 15 18  1  0  0  0  0
 16 15  1  0  0  0  0
 16 17  1  0  0  0  0
 17 18  1  0  0  0  0
 18 14  1  0  0  0  0
 19 18  1  0  0  0  0
 20 23  1  0  0  0  0
 21 22  2  0  0  0  0
 22 20  1  0  0  0  0
 24 23  1  6  0  0  0
 24 27  1  0  0  0  0
 26 24  1  0  0  0  0
 26 25  2  0  0  0  0
 28 27  1  1  0  0  0
 28 32  1  0  0  0  0
 28 29  1  0  0  0  0
 29 30  1  0  0  0  0
 30 31  1  0  0  0  0
 33 32  1  0  0  0  0
 34 33  1  0  0  0  0
 36 35  1  0  0  0  0
 37 36  1  0  0  0  0
 37 38  1  1  0  0  0
 39 40  1  0  0  0  0
 39 37  1  0  0  0  0
 41 40  1  0  0  0  0
 42 49  1  0  0  0  0
 42 46  1  0  0  0  0
 43 41  1  6  0  0  0
 43 47  1  0  0  0  0
 45 44  1  1  0  0  0
 45 43  1  0  0  0  0
 45 49  1  0  0  0  0
 46 52  1  0  0  0  0
 47 46  1  0  0  0  0
 47 48  2  0  0  0  0
 49 50  1  6  0  0  0
 51 50  1  0  0  0  0
 52 53  1  0  0  0  0
 53 54  2  0  0  0  0
M  END
>  <MODEL>
8

>  <REMARK>
 VINA RESULT:      -5.4      3.390      7.764
  Name = 
  23 active torsions:
  status: ('A' for Active; 'I' for Inactive)
    1  A    between atoms: C_2  and  O_5
    2  A    between atoms: C_2  and  O_19
    3  A    between atoms: C_2  and  N_50
    4  A    between atoms: N_4  and  C_27
    5  A    between atoms: N_4  and  C_37
    6  A    between atoms: O_5  and  C_48
    7  A    between atoms: C_6  and  C_46
    8  A    between atoms: C_7  and  N_51
    9  A    between atoms: C_9  and  C_41
   10  A    between atoms: N_10  and  C_49
   11  A    between atoms: C_14  and  N_53
   12  A    between atoms: C_15  and  C_21
   13  A    between atoms: C_17  and  C_32
   14  A    between atoms: C_17  and  N_54
   15  A    between atoms: O_19  and  C_39
   16  A    between atoms: C_21  and  N_25
   17  A    between atoms: C_24  and  N_50
   18  A    between atoms: C_27  and  C_33
   19  A    between atoms: C_27  and  C_42
   20  A    between atoms: C_28  and  C_48
   21  A    between atoms: C_32  and  C_37
   22  A    between atoms: C_48  and  C_49
   23  A    between atoms: N_51  and  N_54
                            x       y       z     vdW  Elec       q    Type
                         _______ _______ _______ _____ _____    ______ ____

>  <TORSDO>
F 23

$$$$
=
 OpenBabel11032421073D

 54 57  0  0  1  0  0  0  0  0999 V2000
  190.8700  177.4950  139.3190 C   0  0  1  0  0  3  0  0  0  0  0  0
  187.4620  177.9500  139.0770 C   0  0  0  0  0  0  0  0  0  0  0  0
  188.5210  177.2900  138.5140 C   0  0  0  0  0  0  0  0  0  0  0  0
  186.4430  178.4640  138.2730 C   0  0  0  0  0  0  0  0  0  0  0  0
  188.8330  177.1940  140.8760 C   0  0  0  0  0  3  0  0  0  0  0  0
  187.5750  177.6310  136.3410 C   0  0  0  0  0  0  0  0  0  0  0  0
  187.5730  178.0210  140.5550 C   0  0  0  0  0  3  0  0  0  0  0  0
  186.5250  178.2850  136.9180 N   0  0  0  0  0  0  0  0  0  0  0  0
  187.6240  177.4310  134.6030 Cl  0  0  0  0  0  0  0  0  0  0  0  0
  189.4940  176.8270  139.5320 C   0  0  2  0  0  3  0  0  0  0  0  0
  188.6060  177.1120  137.1370 C   0  0  0  0  0  3  0  0  0  0  0  0
  184.2670  178.5670  139.2430 C   0  0  0  0  0  3  0  0  0  0  0  0
  185.3420  179.1720  138.8560 N   0  0  0  0  0  0  0  0  0  0  0  0
  181.6690  177.9920  138.1450 C   0  0  0  0  0  1  0  0  0  0  0  0
  183.1340  179.3490  139.8330 C   0  0  2  0  0  3  0  0  0  0  0  0
  182.7790  178.7870  141.1310 N   0  0  0  0  0  2  0  0  0  0  0  0
  181.4500  178.4730  140.6080 C   0  0  0  0  0  2  0  0  0  0  0  0
  181.7600  179.0410  139.2470 C   0  0  0  0  0  0  0  0  0  0  0  0
  180.9580  180.2960  138.9590 C   0  0  0  0  0  1  0  0  0  0  0  0
  191.0950  177.9140  141.8210 N   0  0  0  0  0  2  0  0  0  0  0  0
  192.9560  177.4720  140.4830 O   0  0  0  0  0  0  0  0  0  0  0  0
  191.7080  177.6100  140.5650 C   0  0  0  0  0  0  0  0  0  0  0  0
  191.8660  178.0690  143.0460 C   0  0  0  0  0  2  0  0  0  0  0  0
  191.1540  177.3790  144.1980 C   0  0  2  0  0  3  0  0  0  0  0  0
  190.7170  175.2860  143.2080 O   0  0  0  0  0  0  0  0  0  0  0  0
  191.2970  175.8950  144.0920 C   0  0  0  0  0  3  0  0  0  0  0  0
  189.7990  177.7210  144.1820 O   0  0  0  0  0  0  0  0  0  0  0  0
  189.2930  177.3150  145.4240 C   0  0  2  0  0  3  0  0  0  0  0  0
  187.8290  177.3910  145.4400 N   0  0  0  0  0  2  0  0  0  0  0  0
  187.2910  176.9550  144.1560 C   0  0  0  0  0  2  0  0  0  0  0  0
  186.1560  177.7020  143.8470 O   0  0  0  0  0  1  0  0  0  0  0  0
  189.8410  178.1120  146.4370 O   0  0  0  0  0  0  0  0  0  0  0  0
  189.0650  177.8460  147.5690 C   0  0  0  0  0  2  0  0  0  0  0  0
  189.0480  176.4150  147.8200 N   0  0  0  0  0  1  0  0  0  0  0  0
  191.6200  176.8600  138.2340 N   0  0  0  0  0  2  0  0  0  0  0  0
  191.5080  175.4020  138.3180 C   0  0  0  0  0  2  0  0  0  0  0  0
  192.3840  174.6920  137.2920 C   0  0  1  0  0  3  0  0  0  0  0  0
  191.6220  173.6580  136.6180 N   0  0  0  0  0  1  0  0  0  0  0  0
  192.9060  175.6840  136.2640 C   0  0  0  0  0  2  0  0  0  0  0  0
  194.3490  175.8230  136.3830 N   0  0  0  0  0  2  0  0  0  0  0  0
  194.9080  175.2270  135.2420 N   0  0  0  0  0  2  0  0  0  0  0  0
  196.6750  173.2010  138.3600 C   0  0  0  0  0  2  0  0  0  0  0  0
  195.9840  174.3560  135.6930 C   0  0  1  0  0  3  0  0  0  0  0  0
  197.6640  175.9930  136.1110 O   0  0  0  0  0  1  0  0  0  0  0  0
  196.8160  175.0900  136.7510 C   0  0  2  0  0  3  0  0  0  0  0  0
  195.7940  172.4840  137.4410 N   0  0  0  0  0  0  0  0  0  0  0  0
  195.4080  173.0500  136.1730 C   0  0  0  0  0  0  0  0  0  0  0  0
  194.6170  172.4210  135.4160 O   0  0  0  0  0  0  0  0  0  0  0  0
  197.6320  174.1160  137.6070 C   0  0  1  0  0  3  0  0  0  0  0  0
  198.4730  174.8710  138.6300 C   0  0  0  0  0  2  0  0  0  0  0  0
  197.6660  175.2800  139.6880 O   0  0  0  0  0  1  0  0  0  0  0  0
  195.1230  171.2810  137.9230 C   0  0  0  0  0  2  0  0  0  0  0  0
  195.9460  170.0650  137.6340 C   0  0  0  0  0  3  0  0  0  0  0  0
  196.9890  170.1530  137.0130 O   0  0  0  0  0  0  0  0  0  0  0  0
  1 35  1  6  0  0  0
  1 22  1  0  0  0  0
  2  7  1  0  0  0  0
  3  2  2  0  0  0  0
  3 10  1  0  0  0  0
  4 13  1  0  0  0  0
  4  2  1  0  0  0  0
  6  8  1  0  0  0  0
  6 11  2  0  0  0  0
  7  5  2  0  0  0  0
  8  4  2  0  0  0  0
  9  6  1  0  0  0  0
 10  1  1  6  0  0  0
 10  5  1  0  0  0  0
 11  3  1  0  0  0  0
 13 12  2  0  0  0  0
 14 18  1  0  0  0  0
 15 12  1  6  0  0  0
 15 16  1  0  0  0  0
 17 16  1  0  0  0  0
 18 15  1  0  0  0  0
 18 17  1  0  0  0  0
 19 18  1  0  0  0  0
 20 23  1  0  0  0  0
 21 22  2  0  0  0  0
 22 20  1  0  0  0  0
 24 23  1  6  0  0  0
 25 26  2  0  0  0  0
 26 24  1  0  0  0  0
 27 24  1  0  0  0  0
 28 27  1  6  0  0  0
 28 29  1  0  0  0  0
 28 32  1  0  0  0  0
 30 29  1  0  0  0  0
 31 30  1  0  0  0  0
 32 33  1  0  0  0  0
 33 34  1  0  0  0  0
 35 36  1  0  0  0  0
 37 38  1  6  0  0  0
 37 36  1  0  0  0  0
 39 40  1  0  0  0  0
 39 37  1  0  0  0  0
 41 40  1  0  0  0  0
 43 41  1  1  0  0  0
 43 47  1  0  0  0  0
 43 45  1  0  0  0  0
 45 44  1  6  0  0  0
 45 49  1  0  0  0  0
 46 52  1  0  0  0  0
 46 42  1  0  0  0  0
 47 46  1  0  0  0  0
 48 47  2  0  0  0  0
 49 42  1  0  0  0  0
 49 50  1  1  0  0  0
 50 51  1  0  0  0  0
 53 52  1  0  0  0  0
 54 53  2  0  0  0  0
M  END
>  <MODEL>
9

>  <REMARK>
 VINA RESULT:      -5.3      3.726      9.017
  Name = 
  23 active torsions:
  status: ('A' for Active; 'I' for Inactive)
    1  A    between atoms: C_2  and  O_5
    2  A    between atoms: C_2  and  O_19
    3  A    between atoms: C_2  and  N_50
    4  A    between atoms: N_4  and  C_27
    5  A    between atoms: N_4  and  C_37
    6  A    between atoms: O_5  and  C_48
    7  A    between atoms: C_6  and  C_46
    8  A    between atoms: C_7  and  N_51
    9  A    between atoms: C_9  and  C_41
   10  A    between atoms: N_10  and  C_49
   11  A    between atoms: C_14  and  N_53
   12  A    between atoms: C_15  and  C_21
   13  A    between atoms: C_17  and  C_32
   14  A    between atoms: C_17  and  N_54
   15  A    between atoms: O_19  and  C_39
   16  A    between atoms: C_21  and  N_25
   17  A    between atoms: C_24  and  N_50
   18  A    between atoms: C_27  and  C_33
   19  A    between atoms: C_27  and  C_42
   20  A    between atoms: C_28  and  C_48
   21  A    between atoms: C_32  and  C_37
   22  A    between atoms: C_48  and  C_49
   23  A    between atoms: N_51  and  N_54
                            x       y       z     vdW  Elec       q    Type
                         _______ _______ _______ _____ _____    ______ ____

>  <TORSDO>
F 23

$$$$
