=
 OpenBabel11042412293D

 27 28  0  0  1  0  0  0  0  0999 V2000
  187.9880  176.9510  148.0430 O   0  0  0  0  0  1  0  0  0  0  0  0
  190.2360  177.2420  147.7550 O   0  0  0  0  0  0  0  0  0  0  0  0
  189.1020  177.0960  147.2260 C   0  0  0  0  0  0  0  0  0  0  0  0
  188.9580  177.0750  145.7930 N   0  0  0  0  0  0  0  0  0  0  0  0
  191.1100  178.5860  143.2410 C   0  0  0  0  0  2  0  0  0  0  0  0
  190.5040  178.5900  144.5990 C   0  0  0  0  0  2  0  0  0  0  0  0
  190.8060  177.5210  142.5100 C   0  0  2  0  0  3  0  0  0  0  0  0
  190.0990  177.1480  144.8810 C   0  0  2  0  0  3  0  0  0  0  0  0
  189.7400  176.3230  143.2940 S   0  0  0  0  0  0  0  0  0  0  0  0
  191.3310  177.3180  141.1240 C   0  0  0  0  0  2  0  0  0  0  0  0
  190.2370  176.8380  140.1770 C   0  0  0  0  0  2  0  0  0  0  0  0
  188.0930  178.6570  139.6390 O   0  0  0  0  0  1  0  0  0  0  0  0
  189.0250  179.4270  137.6930 O   0  0  0  0  0  0  0  0  0  0  0  0
  190.1390  177.7110  139.0150 N   0  0  0  0  0  2  0  0  0  0  0  0
  189.0430  178.6070  138.8130 C   0  0  0  0  0  0  0  0  0  0  0  0
  187.6410  176.9070  145.1970 C   0  0  0  0  0  2  0  0  0  0  0  0
  186.8400  178.1930  145.3210 C   0  0  0  0  0  2  0  0  0  0  0  0
  184.5680  178.7190  144.4110 C   0  0  0  0  0  3  0  0  0  0  0  0
  183.6870  178.8420  143.3360 C   0  0  0  0  0  3  0  0  0  0  0  0
  184.1350  178.5570  142.0380 C   0  0  0  0  0  0  0  0  0  0  0  0
  186.3000  178.0410  142.8800 C   0  0  0  0  0  3  0  0  0  0  0  0
  185.4250  178.1670  141.8470 N   0  0  0  0  0  0  0  0  0  0  0  0
  185.8840  178.3110  144.1860 C   0  0  0  0  0  0  0  0  0  0  0  0
  183.5410  179.3640  139.6780 C   0  0  0  0  0  0  0  0  0  0  0  0
  182.5170  179.3710  138.6000 C   0  0  0  0  0  1  0  0  0  0  0  0
  183.2680  178.6670  140.8990 N   0  0  0  0  0  2  0  0  0  0  0  0
  184.6290  179.9720  139.4990 O   0  0  0  0  0  0  0  0  0  0  0  0
  3  2  2  0  0  0  0
  3  1  1  0  0  0  0
  4  3  1  0  0  0  0
  5  6  1  0  0  0  0
  6  8  1  0  0  0  0
  7 10  1  1  0  0  0
  7  5  1  0  0  0  0
  7  9  1  0  0  0  0
  8  4  1  1  0  0  0
  9  8  1  0  0  0  0
 11 10  1  0  0  0  0
 13 15  2  0  0  0  0
 14 11  1  0  0  0  0
 15 14  1  0  0  0  0
 15 12  1  0  0  0  0
 16 17  1  0  0  0  0
 16  4  1  0  0  0  0
 19 18  2  0  0  0  0
 20 19  1  0  0  0  0
 21 23  2  0  0  0  0
 22 20  2  0  0  0  0
 22 21  1  0  0  0  0
 23 18  1  0  0  0  0
 23 17  1  0  0  0  0
 24 26  1  0  0  0  0
 25 24  1  0  0  0  0
 26 20  1  0  0  0  0
 27 24  2  0  0  0  0
M  END
>  <MODEL>
1

>  <REMARK>
 VINA RESULT:      -8.1      0.000      0.000
  Name = 
  8 active torsions:
  status: ('A' for Active; 'I' for Inactive)
    1  A    between atoms: C_6  and  N_18
    2  A    between atoms: C_7  and  N_14
    3  A    between atoms: C_7  and  C_27
    4  A    between atoms: C_8  and  C_12
    5  A    between atoms: C_8  and  C_26
    6  A    between atoms: C_12  and  N_24
    7  A    between atoms: C_16  and  C_27
    8  A    between atoms: C_21  and  N_24
                            x       y       z     vdW  Elec       q    Type
                         _______ _______ _______ _____ _____    ______ ____

>  <TORSDO>
F 8

$$$$
=
 OpenBabel11042412293D

 27 28  0  0  1  0  0  0  0  0999 V2000
  188.1860  176.9030  148.0010 O   0  0  0  0  0  1  0  0  0  0  0  0
  190.4450  177.0190  147.6750 O   0  0  0  0  0  0  0  0  0  0  0  0
  189.2920  176.9970  147.1660 C   0  0  0  0  0  0  0  0  0  0  0  0
  189.1190  177.0650  145.7380 N   0  0  0  0  0  0  0  0  0  0  0  0
  191.3450  178.5250  143.2190 C   0  0  0  0  0  2  0  0  0  0  0  0
  190.7680  178.5060  144.5900 C   0  0  0  0  0  2  0  0  0  0  0  0
  190.9360  177.5320  142.4410 C   0  0  2  0  0  3  0  0  0  0  0  0
  190.2450  177.0910  144.8050 C   0  0  2  0  0  3  0  0  0  0  0  0
  189.7860  176.3880  143.1840 S   0  0  0  0  0  0  0  0  0  0  0  0
  191.4150  177.3610  141.0340 C   0  0  0  0  0  2  0  0  0  0  0  0
  190.3290  176.7700  140.1420 C   0  0  0  0  0  2  0  0  0  0  0  0
  188.3420  178.8180  139.9120 O   0  0  0  0  0  1  0  0  0  0  0  0
  188.9620  179.4000  137.7850 O   0  0  0  0  0  0  0  0  0  0  0  0
  190.1070  177.6070  138.9710 N   0  0  0  0  0  2  0  0  0  0  0  0
  189.1030  178.6230  138.9270 C   0  0  0  0  0  0  0  0  0  0  0  0
  187.7820  177.0400  145.1650 C   0  0  0  0  0  2  0  0  0  0  0  0
  186.9410  178.1650  145.7470 C   0  0  0  0  0  2  0  0  0  0  0  0
  184.5910  178.9830  145.4680 C   0  0  0  0  0  3  0  0  0  0  0  0
  183.4590  179.1840  144.6770 C   0  0  0  0  0  3  0  0  0  0  0  0
  183.4670  178.7680  143.3380 C   0  0  0  0  0  0  0  0  0  0  0  0
  185.6970  177.9720  143.5820 C   0  0  0  0  0  3  0  0  0  0  0  0
  184.5840  178.1770  142.8290 N   0  0  0  0  0  0  0  0  0  0  0  0
  185.7190  178.3690  144.9210 C   0  0  0  0  0  0  0  0  0  0  0  0
  180.9570  178.7080  142.8170 C   0  0  0  0  0  0  0  0  0  0  0  0
  179.9060  178.9560  141.7970 C   0  0  0  0  0  1  0  0  0  0  0  0
  182.3290  178.9510  142.4840 N   0  0  0  0  0  2  0  0  0  0  0  0
  180.6250  178.2870  143.9570 O   0  0  0  0  0  0  0  0  0  0  0  0
  3  2  2  0  0  0  0
  3  1  1  0  0  0  0
  4  3  1  0  0  0  0
  5  6  1  0  0  0  0
  6  8  1  0  0  0  0
  7 10  1  1  0  0  0
  7  9  1  0  0  0  0
  7  5  1  0  0  0  0
  8  4  1  1  0  0  0
  9  8  1  0  0  0  0
 11 10  1  0  0  0  0
 13 15  2  0  0  0  0
 14 11  1  0  0  0  0
 15 14  1  0  0  0  0
 15 12  1  0  0  0  0
 16  4  1  0  0  0  0
 16 17  1  0  0  0  0
 19 18  2  0  0  0  0
 20 19  1  0  0  0  0
 21 23  2  0  0  0  0
 22 20  2  0  0  0  0
 22 21  1  0  0  0  0
 23 18  1  0  0  0  0
 23 17  1  0  0  0  0
 24 27  2  0  0  0  0
 25 24  1  0  0  0  0
 26 24  1  0  0  0  0
 26 20  1  0  0  0  0
M  END
>  <MODEL>
2

>  <REMARK>
 VINA RESULT:      -7.8      1.645      1.782
  Name = 
  8 active torsions:
  status: ('A' for Active; 'I' for Inactive)
    1  A    between atoms: C_6  and  N_18
    2  A    between atoms: C_7  and  N_14
    3  A    between atoms: C_7  and  C_27
    4  A    between atoms: C_8  and  C_12
    5  A    between atoms: C_8  and  C_26
    6  A    between atoms: C_12  and  N_24
    7  A    between atoms: C_16  and  C_27
    8  A    between atoms: C_21  and  N_24
                            x       y       z     vdW  Elec       q    Type
                         _______ _______ _______ _____ _____    ______ ____

>  <TORSDO>
F 8

$$$$
=
 OpenBabel11042412293D

 27 28  0  0  1  0  0  0  0  0999 V2000
  192.4790  175.7950  146.1880 O   0  0  0  0  0  0  0  0  0  0  0  0
  191.5490  176.8670  147.9790 O   0  0  0  0  0  1  0  0  0  0  0  0
  191.4780  176.5750  146.7560 C   0  0  0  0  0  0  0  0  0  0  0  0
  190.3790  177.0420  145.9510 N   0  0  0  0  0  0  0  0  0  0  0  0
  187.5770  178.0010  148.1100 C   0  0  0  0  0  2  0  0  0  0  0  0
  188.9980  177.6040  147.9230 C   0  0  0  0  0  2  0  0  0  0  0  0
  186.8950  178.1350  146.9800 C   0  0  2  0  0  3  0  0  0  0  0  0
  189.3360  177.9250  146.4730 C   0  0  2  0  0  3  0  0  0  0  0  0
  187.8080  177.8130  145.4810 S   0  0  0  0  0  0  0  0  0  0  0  0
  185.4570  178.5480  146.9500 C   0  0  0  0  0  2  0  0  0  0  0  0
  185.0430  179.0330  145.5660 C   0  0  0  0  0  2  0  0  0  0  0  0
  183.6280  178.6820  143.1020 O   0  0  0  0  0  0  0  0  0  0  0  0
  181.5640  178.7710  144.0920 O   0  0  0  0  0  1  0  0  0  0  0  0
  183.5950  179.0030  145.4180 N   0  0  0  0  0  2  0  0  0  0  0  0
  182.9510  178.8120  144.1560 C   0  0  0  0  0  0  0  0  0  0  0  0
  190.3110  176.6950  144.5400 C   0  0  0  0  0  2  0  0  0  0  0  0
  190.9780  177.7740  143.7020 C   0  0  0  0  0  2  0  0  0  0  0  0
  189.2330  177.7780  141.9060 C   0  0  0  0  0  3  0  0  0  0  0  0
  188.8700  177.6650  140.5640 C   0  0  0  0  0  3  0  0  0  0  0  0
  189.8550  177.4150  139.5980 C   0  0  0  0  0  0  0  0  0  0  0  0
  191.5300  177.3960  141.2890 C   0  0  0  0  0  3  0  0  0  0  0  0
  191.1540  177.2890  139.9870 N   0  0  0  0  0  0  0  0  0  0  0  0
  190.5720  177.6380  142.2760 C   0  0  0  0  0  0  0  0  0  0  0  0
  189.1250  178.3410  137.3210 C   0  0  0  0  0  0  0  0  0  0  0  0
  188.8300  178.0220  135.9000 C   0  0  0  0  0  1  0  0  0  0  0  0
  189.5320  177.2900  138.2060 N   0  0  0  0  0  2  0  0  0  0  0  0
  189.0100  179.5290  137.7240 O   0  0  0  0  0  0  0  0  0  0  0  0
  1  3  2  0  0  0  0
  3  2  1  0  0  0  0
  4  3  1  0  0  0  0
  6  5  1  0  0  0  0
  7 10  1  6  0  0  0
  7  5  1  0  0  0  0
  8  4  1  6  0  0  0
  8  6  1  0  0  0  0
  9  8  1  0  0  0  0
  9  7  1  0  0  0  0
 11 10  1  0  0  0  0
 12 15  2  0  0  0  0
 13 15  1  0  0  0  0
 14 11  1  0  0  0  0
 15 14  1  0  0  0  0
 16  4  1  0  0  0  0
 17 16  1  0  0  0  0
 18 23  1  0  0  0  0
 19 18  2  0  0  0  0
 20 22  2  0  0  0  0
 20 19  1  0  0  0  0
 21 23  2  0  0  0  0
 22 21  1  0  0  0  0
 23 17  1  0  0  0  0
 24 27  2  0  0  0  0
 24 26  1  0  0  0  0
 25 24  1  0  0  0  0
 26 20  1  0  0  0  0
M  END
>  <MODEL>
3

>  <REMARK>
 VINA RESULT:      -7.6      2.551      5.870
  Name = 
  8 active torsions:
  status: ('A' for Active; 'I' for Inactive)
    1  A    between atoms: C_6  and  N_18
    2  A    between atoms: C_7  and  N_14
    3  A    between atoms: C_7  and  C_27
    4  A    between atoms: C_8  and  C_12
    5  A    between atoms: C_8  and  C_26
    6  A    between atoms: C_12  and  N_24
    7  A    between atoms: C_16  and  C_27
    8  A    between atoms: C_21  and  N_24
                            x       y       z     vdW  Elec       q    Type
                         _______ _______ _______ _____ _____    ______ ____

>  <TORSDO>
F 8

$$$$
=
 OpenBabel11042412293D

 27 28  0  0  1  0  0  0  0  0999 V2000
  187.3120  178.1200  148.2240 O   0  0  0  0  0  1  0  0  0  0  0  0
  185.6810  179.6390  147.7180 O   0  0  0  0  0  0  0  0  0  0  0  0
  186.4390  178.7140  147.3210 C   0  0  0  0  0  0  0  0  0  0  0  0
  186.4070  178.2770  145.9500 N   0  0  0  0  0  0  0  0  0  0  0  0
  183.3890  178.7510  143.9250 C   0  0  0  0  0  2  0  0  0  0  0  0
  184.0830  178.7320  145.2410 C   0  0  0  0  0  2  0  0  0  0  0  0
  184.1820  178.5240  142.8870 C   0  0  2  0  0  3  0  0  0  0  0  0
  185.5650  178.9110  144.9360 C   0  0  2  0  0  3  0  0  0  0  0  0
  185.9010  178.2410  143.2720 S   0  0  0  0  0  0  0  0  0  0  0  0
  183.6820  178.5210  141.4760 C   0  0  0  0  0  2  0  0  0  0  0  0
  184.7480  179.0140  140.5050 C   0  0  0  0  0  2  0  0  0  0  0  0
  186.7970  178.6280  138.5440 O   0  0  0  0  0  1  0  0  0  0  0  0
  185.3800  177.6650  137.0230 O   0  0  0  0  0  0  0  0  0  0  0  0
  184.5580  178.4280  139.1850 N   0  0  0  0  0  2  0  0  0  0  0  0
  185.6290  178.2530  138.2560 C   0  0  0  0  0  0  0  0  0  0  0  0
  187.2880  177.2070  145.5060 C   0  0  0  0  0  2  0  0  0  0  0  0
  188.7410  177.6180  145.6790 C   0  0  0  0  0  2  0  0  0  0  0  0
  190.4920  178.3420  144.0420 C   0  0  0  0  0  3  0  0  0  0  0  0
  191.1840  178.1640  142.8440 C   0  0  0  0  0  3  0  0  0  0  0  0
  190.8530  177.0890  142.0060 C   0  0  0  0  0  0  0  0  0  0  0  0
  189.1750  176.3880  143.5420 C   0  0  0  0  0  3  0  0  0  0  0  0
  189.8620  176.2330  142.3780 N   0  0  0  0  0  0  0  0  0  0  0  0
  189.4760  177.4520  144.3950 C   0  0  0  0  0  0  0  0  0  0  0  0
  190.9980  177.0370  139.4470 C   0  0  0  0  0  0  0  0  0  0  0  0
  191.8570  176.7520  138.2680 C   0  0  0  0  0  1  0  0  0  0  0  0
  191.5340  176.8630  140.7640 N   0  0  0  0  0  2  0  0  0  0  0  0
  189.8140  177.4250  139.2670 O   0  0  0  0  0  0  0  0  0  0  0  0
  3  2  2  0  0  0  0
  3  1  1  0  0  0  0
  4  3  1  0  0  0  0
  5  6  1  0  0  0  0
  7 10  1  6  0  0  0
  7  9  1  0  0  0  0
  7  5  1  0  0  0  0
  8  6  1  0  0  0  0
  8  4  1  1  0  0  0
  9  8  1  0  0  0  0
 11 10  1  0  0  0  0
 13 15  2  0  0  0  0
 14 11  1  0  0  0  0
 15 12  1  0  0  0  0
 15 14  1  0  0  0  0
 16 17  1  0  0  0  0
 16  4  1  0  0  0  0
 18 23  1  0  0  0  0
 19 18  2  0  0  0  0
 20 22  2  0  0  0  0
 20 19  1  0  0  0  0
 21 23  2  0  0  0  0
 22 21  1  0  0  0  0
 23 17  1  0  0  0  0
 24 26  1  0  0  0  0
 25 24  1  0  0  0  0
 26 20  1  0  0  0  0
 27 24  2  0  0  0  0
M  END
>  <MODEL>
4

>  <REMARK>
 VINA RESULT:      -7.1      2.078      5.600
  Name = 
  8 active torsions:
  status: ('A' for Active; 'I' for Inactive)
    1  A    between atoms: C_6  and  N_18
    2  A    between atoms: C_7  and  N_14
    3  A    between atoms: C_7  and  C_27
    4  A    between atoms: C_8  and  C_12
    5  A    between atoms: C_8  and  C_26
    6  A    between atoms: C_12  and  N_24
    7  A    between atoms: C_16  and  C_27
    8  A    between atoms: C_21  and  N_24
                            x       y       z     vdW  Elec       q    Type
                         _______ _______ _______ _____ _____    ______ ____

>  <TORSDO>
F 8

$$$$
=
 OpenBabel11042412293D

 27 28  0  0  1  0  0  0  0  0999 V2000
  187.8150  178.5710  139.2230 O   0  0  0  0  0  0  0  0  0  0  0  0
  189.8610  177.5560  139.3080 O   0  0  0  0  0  1  0  0  0  0  0  0
  188.8900  178.0560  139.9370 C   0  0  0  0  0  0  0  0  0  0  0  0
  188.8920  178.0990  141.3770 N   0  0  0  0  0  0  0  0  0  0  0  0
  190.6340  175.9660  143.7950 C   0  0  0  0  0  2  0  0  0  0  0  0
  189.9250  176.1550  142.5010 C   0  0  0  0  0  2  0  0  0  0  0  0
  190.8030  177.0820  144.4920 C   0  0  2  0  0  3  0  0  0  0  0  0
  190.0240  177.6410  142.1810 C   0  0  2  0  0  3  0  0  0  0  0  0
  190.1490  178.5670  143.7490 S   0  0  0  0  0  0  0  0  0  0  0  0
  191.5090  177.1100  145.8110 C   0  0  0  0  0  2  0  0  0  0  0  0
  190.6620  176.4820  146.9120 C   0  0  0  0  0  2  0  0  0  0  0  0
  189.3850  178.3160  148.7000 O   0  0  0  0  0  1  0  0  0  0  0  0
  187.3860  178.2590  147.5830 O   0  0  0  0  0  0  0  0  0  0  0  0
  189.2790  176.9290  146.8210 N   0  0  0  0  0  2  0  0  0  0  0  0
  188.7060  177.8590  147.7430 C   0  0  0  0  0  0  0  0  0  0  0  0
  187.7630  178.6800  142.0890 C   0  0  0  0  0  2  0  0  0  0  0  0
  186.9140  177.5820  142.7100 C   0  0  0  0  0  2  0  0  0  0  0  0
  185.0950  178.4250  144.2090 C   0  0  0  0  0  3  0  0  0  0  0  0
  183.7960  178.9000  144.3960 C   0  0  0  0  0  3  0  0  0  0  0  0
  182.9370  179.0210  143.2950 C   0  0  0  0  0  0  0  0  0  0  0  0
  184.6470  178.2100  141.8510 C   0  0  0  0  0  3  0  0  0  0  0  0
  183.3860  178.6750  142.0570 N   0  0  0  0  0  0  0  0  0  0  0  0
  185.5260  178.0720  142.9290 C   0  0  0  0  0  0  0  0  0  0  0  0
  180.4390  178.7360  143.7960 C   0  0  0  0  0  0  0  0  0  0  0  0
  179.1180  179.4100  143.8930 C   0  0  0  0  0  1  0  0  0  0  0  0
  181.5930  179.5040  143.4350 N   0  0  0  0  0  2  0  0  0  0  0  0
  180.5200  177.5010  144.0300 O   0  0  0  0  0  0  0  0  0  0  0  0
  1  3  2  0  0  0  0
  2  3  1  0  0  0  0
  3  4  1  0  0  0  0
  4 16  1  0  0  0  0
  5  7  1  0  0  0  0
  6  5  1  0  0  0  0
  7 10  1  6  0  0  0
  8  4  1  1  0  0  0
  8  6  1  0  0  0  0
  8  9  1  0  0  0  0
  9  7  1  0  0  0  0
 10 11  1  0  0  0  0
 13 15  2  0  0  0  0
 14 11  1  0  0  0  0
 14 15  1  0  0  0  0
 15 12  1  0  0  0  0
 16 17  1  0  0  0  0
 17 23  1  0  0  0  0
 18 19  2  0  0  0  0
 20 26  1  0  0  0  0
 20 19  1  0  0  0  0
 21 22  1  0  0  0  0
 21 23  2  0  0  0  0
 22 20  2  0  0  0  0
 23 18  1  0  0  0  0
 24 25  1  0  0  0  0
 24 27  2  0  0  0  0
 26 24  1  0  0  0  0
M  END
>  <MODEL>
5

>  <REMARK>
 VINA RESULT:      -7.0      2.215      5.487
  Name = 
  8 active torsions:
  status: ('A' for Active; 'I' for Inactive)
    1  A    between atoms: C_6  and  N_18
    2  A    between atoms: C_7  and  N_14
    3  A    between atoms: C_7  and  C_27
    4  A    between atoms: C_8  and  C_12
    5  A    between atoms: C_8  and  C_26
    6  A    between atoms: C_12  and  N_24
    7  A    between atoms: C_16  and  C_27
    8  A    between atoms: C_21  and  N_24
                            x       y       z     vdW  Elec       q    Type
                         _______ _______ _______ _____ _____    ______ ____

>  <TORSDO>
F 8

$$$$
=
 OpenBabel11042412293D

 27 28  0  0  1  0  0  0  0  0999 V2000
  190.1670  177.5020  147.7020 O   0  0  0  0  0  0  0  0  0  0  0  0
  188.0630  176.7640  148.2050 O   0  0  0  0  0  1  0  0  0  0  0  0
  188.8420  177.2700  147.3530 C   0  0  0  0  0  0  0  0  0  0  0  0
  188.3700  177.6080  146.0350 N   0  0  0  0  0  0  0  0  0  0  0  0
  185.4300  178.0960  143.9020 C   0  0  0  0  0  2  0  0  0  0  0  0
  186.8040  177.5700  144.1230 C   0  0  0  0  0  2  0  0  0  0  0  0
  184.8890  178.6720  144.9670 C   0  0  2  0  0  3  0  0  0  0  0  0
  186.9720  177.4570  145.6330 C   0  0  2  0  0  3  0  0  0  0  0  0
  185.9070  178.7050  146.4320 S   0  0  0  0  0  0  0  0  0  0  0  0
  183.5070  179.2470  144.9580 C   0  0  0  0  0  2  0  0  0  0  0  0
  182.8090  179.0020  143.6260 C   0  0  0  0  0  2  0  0  0  0  0  0
  180.8940  178.5420  141.5480 O   0  0  0  0  0  0  0  0  0  0  0  0
  179.1490  178.2510  143.0040 O   0  0  0  0  0  1  0  0  0  0  0  0
  181.3890  178.7460  143.8240 N   0  0  0  0  0  2  0  0  0  0  0  0
  180.4870  178.5120  142.7400 C   0  0  0  0  0  0  0  0  0  0  0  0
  189.2810  178.1900  145.0620 C   0  0  0  0  0  2  0  0  0  0  0  0
  190.2520  177.1350  144.5560 C   0  0  0  0  0  2  0  0  0  0  0  0
  189.1280  177.2040  142.3200 C   0  0  0  0  0  3  0  0  0  0  0  0
  189.1930  177.2470  140.9270 C   0  0  0  0  0  3  0  0  0  0  0  0
  190.4430  177.2500  140.2920 C   0  0  0  0  0  0  0  0  0  0  0  0
  191.5350  177.1730  142.4050 C   0  0  0  0  0  3  0  0  0  0  0  0
  191.5760  177.2150  141.0470 N   0  0  0  0  0  0  0  0  0  0  0  0
  190.3060  177.1620  143.0680 C   0  0  0  0  0  0  0  0  0  0  0  0
  190.8280  176.1880  137.9900 C   0  0  0  0  0  0  0  0  0  0  0  0
  190.9190  176.4230  136.5260 C   0  0  0  0  0  1  0  0  0  0  0  0
  190.5640  177.2930  138.8630 N   0  0  0  0  0  2  0  0  0  0  0  0
  190.9860  175.0220  138.4380 O   0  0  0  0  0  0  0  0  0  0  0  0
  3  1  2  0  0  0  0
  3  2  1  0  0  0  0
  4  3  1  0  0  0  0
  5  6  1  0  0  0  0
  5  7  1  0  0  0  0
  6  8  1  0  0  0  0
  7 10  1  1  0  0  0
  7  9  1  0  0  0  0
  8  4  1  6  0  0  0
  8  9  1  0  0  0  0
 11 14  1  0  0  0  0
 11 10  1  0  0  0  0
 12 15  2  0  0  0  0
 15 13  1  0  0  0  0
 15 14  1  0  0  0  0
 16  4  1  0  0  0  0
 17 16  1  0  0  0  0
 18 23  1  0  0  0  0
 19 18  2  0  0  0  0
 20 19  1  0  0  0  0
 20 22  2  0  0  0  0
 21 23  2  0  0  0  0
 22 21  1  0  0  0  0
 23 17  1  0  0  0  0
 24 27  2  0  0  0  0
 24 26  1  0  0  0  0
 25 24  1  0  0  0  0
 26 20  1  0  0  0  0
M  END
>  <MODEL>
6

>  <REMARK>
 VINA RESULT:      -7.0      2.667      6.551
  Name = 
  8 active torsions:
  status: ('A' for Active; 'I' for Inactive)
    1  A    between atoms: C_6  and  N_18
    2  A    between atoms: C_7  and  N_14
    3  A    between atoms: C_7  and  C_27
    4  A    between atoms: C_8  and  C_12
    5  A    between atoms: C_8  and  C_26
    6  A    between atoms: C_12  and  N_24
    7  A    between atoms: C_16  and  C_27
    8  A    between atoms: C_21  and  N_24
                            x       y       z     vdW  Elec       q    Type
                         _______ _______ _______ _____ _____    ______ ____

>  <TORSDO>
F 8

$$$$
=
 OpenBabel11042412293D

 27 28  0  0  1  0  0  0  0  0999 V2000
  189.5750  177.2220  145.9220 O   0  0  0  0  0  1  0  0  0  0  0  0
  191.0170  178.2820  144.5000 O   0  0  0  0  0  0  0  0  0  0  0  0
  189.8800  177.7690  144.6810 C   0  0  0  0  0  0  0  0  0  0  0  0
  188.9070  177.7440  143.6190 N   0  0  0  0  0  0  0  0  0  0  0  0
  188.3210  178.2090  140.0310 C   0  0  0  0  0  2  0  0  0  0  0  0
  187.9220  178.4060  141.4510 C   0  0  0  0  0  2  0  0  0  0  0  0
  189.4820  177.5870  139.8720 C   0  0  2  0  0  3  0  0  0  0  0  0
  189.1940  178.2360  142.2720 C   0  0  2  0  0  3  0  0  0  0  0  0
  190.3190  177.1130  141.3750 S   0  0  0  0  0  0  0  0  0  0  0  0
  190.0700  177.3100  138.5250 C   0  0  0  0  0  2  0  0  0  0  0  0
  190.8910  176.0260  138.5260 C   0  0  0  0  0  2  0  0  0  0  0  0
  193.4850  177.0870  139.1030 O   0  0  0  0  0  1  0  0  0  0  0  0
  194.2930  176.6840  136.9980 O   0  0  0  0  0  0  0  0  0  0  0  0
  191.9970  176.1170  137.5840 N   0  0  0  0  0  2  0  0  0  0  0  0
  193.2750  176.6480  137.9410 C   0  0  0  0  0  0  0  0  0  0  0  0
  187.5990  177.1490  143.8440 C   0  0  0  0  0  2  0  0  0  0  0  0
  186.8960  177.8490  144.9970 C   0  0  0  0  0  2  0  0  0  0  0  0
  185.1600  178.2480  143.2380 C   0  0  0  0  0  3  0  0  0  0  0  0
  183.8690  178.6230  142.8670 C   0  0  0  0  0  3  0  0  0  0  0  0
  182.9500  179.0110  143.8530 C   0  0  0  0  0  0  0  0  0  0  0  0
  184.5870  178.6500  145.5430 C   0  0  0  0  0  3  0  0  0  0  0  0
  183.3330  179.0120  145.1590 N   0  0  0  0  0  0  0  0  0  0  0  0
  185.5270  178.2640  144.5840 C   0  0  0  0  0  0  0  0  0  0  0  0
  180.4030  178.7130  143.8610 C   0  0  0  0  0  0  0  0  0  0  0  0
  179.0970  179.2760  143.4320 C   0  0  0  0  0  1  0  0  0  0  0  0
  181.6110  179.4060  143.5230 N   0  0  0  0  0  2  0  0  0  0  0  0
  180.4270  177.6360  144.5130 O   0  0  0  0  0  0  0  0  0  0  0  0
  2  3  2  0  0  0  0
  3  1  1  0  0  0  0
  4 16  1  0  0  0  0
  4  3  1  0  0  0  0
  5  6  1  0  0  0  0
  6  8  1  0  0  0  0
  7 10  1  1  0  0  0
  7  5  1  0  0  0  0
  7  9  1  0  0  0  0
  8  4  1  1  0  0  0
  9  8  1  0  0  0  0
 10 11  1  0  0  0  0
 13 15  2  0  0  0  0
 14 15  1  0  0  0  0
 14 11  1  0  0  0  0
 15 12  1  0  0  0  0
 16 17  1  0  0  0  0
 18 23  1  0  0  0  0
 19 18  2  0  0  0  0
 19 20  1  0  0  0  0
 20 22  2  0  0  0  0
 22 21  1  0  0  0  0
 23 17  1  0  0  0  0
 23 21  2  0  0  0  0
 24 27  2  0  0  0  0
 25 24  1  0  0  0  0
 26 20  1  0  0  0  0
 26 24  1  0  0  0  0
M  END
>  <MODEL>
7

>  <REMARK>
 VINA RESULT:      -7.0      2.999      3.635
  Name = 
  8 active torsions:
  status: ('A' for Active; 'I' for Inactive)
    1  A    between atoms: C_6  and  N_18
    2  A    between atoms: C_7  and  N_14
    3  A    between atoms: C_7  and  C_27
    4  A    between atoms: C_8  and  C_12
    5  A    between atoms: C_8  and  C_26
    6  A    between atoms: C_12  and  N_24
    7  A    between atoms: C_16  and  C_27
    8  A    between atoms: C_21  and  N_24
                            x       y       z     vdW  Elec       q    Type
                         _______ _______ _______ _____ _____    ______ ____

>  <TORSDO>
F 8

$$$$
=
 OpenBabel11042412293D

 27 28  0  0  1  0  0  0  0  0999 V2000
  186.6150  178.5550  141.1080 O   0  0  0  0  0  1  0  0  0  0  0  0
  184.9320  179.7530  140.1310 O   0  0  0  0  0  0  0  0  0  0  0  0
  185.3180  179.0530  141.1050 C   0  0  0  0  0  0  0  0  0  0  0  0
  184.4280  178.7660  142.2000 N   0  0  0  0  0  0  0  0  0  0  0  0
  180.9490  178.7900  143.3510 C   0  0  0  0  0  2  0  0  0  0  0  0
  182.4010  179.0070  143.5940 C   0  0  0  0  0  2  0  0  0  0  0  0
  180.6500  178.4370  142.1080 C   0  0  2  0  0  3  0  0  0  0  0  0
  183.0310  179.1980  142.2200 C   0  0  2  0  0  3  0  0  0  0  0  0
  182.0330  178.2900  140.9910 S   0  0  0  0  0  0  0  0  0  0  0  0
  179.2450  178.1920  141.6550 C   0  0  0  0  0  2  0  0  0  0  0  0
  179.1730  177.0450  140.6540 C   0  0  0  0  0  2  0  0  0  0  0  0
  180.2670  174.5680  139.7280 O   0  0  0  0  0  0  0  0  0  0  0  0
  179.5290  173.3810  141.5430 O   0  0  0  0  0  1  0  0  0  0  0  0
  179.0680  175.7650  141.3390 N   0  0  0  0  0  2  0  0  0  0  0  0
  179.6490  174.5640  140.8250 C   0  0  0  0  0  0  0  0  0  0  0  0
  184.8890  177.9560  143.3190 C   0  0  0  0  0  2  0  0  0  0  0  0
  185.4170  178.8490  144.4300 C   0  0  0  0  0  2  0  0  0  0  0  0
  187.4720  177.4210  144.3640 C   0  0  0  0  0  3  0  0  0  0  0  0
  188.5640  176.8320  145.0020 C   0  0  0  0  0  3  0  0  0  0  0  0
  188.7530  177.0300  146.3770 C   0  0  0  0  0  0  0  0  0  0  0  0
  186.7970  178.3830  146.4670 C   0  0  0  0  0  3  0  0  0  0  0  0
  187.8670  177.7990  147.0690 N   0  0  0  0  0  0  0  0  0  0  0  0
  186.5760  178.1990  145.1000 C   0  0  0  0  0  0  0  0  0  0  0  0
  191.2510  176.7030  146.8540 C   0  0  0  0  0  0  0  0  0  0  0  0
  192.2640  176.0000  147.6840 C   0  0  0  0  0  1  0  0  0  0  0  0
  189.8600  176.4460  147.0790 N   0  0  0  0  0  2  0  0  0  0  0  0
  191.6330  177.5100  145.9660 O   0  0  0  0  0  0  0  0  0  0  0  0
  2  3  2  0  0  0  0
  3  1  1  0  0  0  0
  3  4  1  0  0  0  0
  4 16  1  0  0  0  0
  5  6  1  0  0  0  0
  7 10  1  6  0  0  0
  7  5  1  0  0  0  0
  8  4  1  1  0  0  0
  8  6  1  0  0  0  0
  9  7  1  0  0  0  0
  9  8  1  0  0  0  0
 11 14  1  0  0  0  0
 11 10  1  0  0  0  0
 12 15  2  0  0  0  0
 15 14  1  0  0  0  0
 15 13  1  0  0  0  0
 16 17  1  0  0  0  0
 17 23  1  0  0  0  0
 18 19  2  0  0  0  0
 18 23  1  0  0  0  0
 19 20  1  0  0  0  0
 20 22  2  0  0  0  0
 20 26  1  0  0  0  0
 21 22  1  0  0  0  0
 23 21  2  0  0  0  0
 24 26  1  0  0  0  0
 24 25  1  0  0  0  0
 27 24  2  0  0  0  0
M  END
>  <MODEL>
8

>  <REMARK>
 VINA RESULT:      -7.0      3.653      8.624
  Name = 
  8 active torsions:
  status: ('A' for Active; 'I' for Inactive)
    1  A    between atoms: C_6  and  N_18
    2  A    between atoms: C_7  and  N_14
    3  A    between atoms: C_7  and  C_27
    4  A    between atoms: C_8  and  C_12
    5  A    between atoms: C_8  and  C_26
    6  A    between atoms: C_12  and  N_24
    7  A    between atoms: C_16  and  C_27
    8  A    between atoms: C_21  and  N_24
                            x       y       z     vdW  Elec       q    Type
                         _______ _______ _______ _____ _____    ______ ____

>  <TORSDO>
F 8

$$$$
=
 OpenBabel11042412293D

 27 28  0  0  1  0  0  0  0  0999 V2000
  188.5400  178.7970  139.7510 O   0  0  0  0  0  1  0  0  0  0  0  0
  189.2760  178.7940  137.5870 O   0  0  0  0  0  0  0  0  0  0  0  0
  189.3130  178.2610  138.7280 C   0  0  0  0  0  0  0  0  0  0  0  0
  190.1450  177.1120  138.9750 N   0  0  0  0  0  0  0  0  0  0  0  0
  191.9110  174.4480  137.1810 C   0  0  0  0  0  2  0  0  0  0  0  0
  190.6520  175.1170  137.6070 C   0  0  0  0  0  2  0  0  0  0  0  0
  193.0170  175.0700  137.5690 C   0  0  2  0  0  3  0  0  0  0  0  0
  191.0360  176.5480  137.9620 C   0  0  2  0  0  3  0  0  0  0  0  0
  192.7750  176.5630  138.5160 S   0  0  0  0  0  0  0  0  0  0  0  0
  194.3850  174.5710  137.2260 C   0  0  0  0  0  2  0  0  0  0  0  0
  195.0850  173.9770  138.4430 C   0  0  0  0  0  2  0  0  0  0  0  0
  197.8830  173.7630  137.8800 O   0  0  0  0  0  0  0  0  0  0  0  0
  198.4310  175.6280  139.0930 O   0  0  0  0  0  1  0  0  0  0  0  0
  196.1190  174.8770  138.9360 N   0  0  0  0  0  2  0  0  0  0  0  0
  197.5010  174.7190  138.6060 C   0  0  0  0  0  0  0  0  0  0  0  0
  190.1770  176.5060  140.2980 C   0  0  0  0  0  2  0  0  0  0  0  0
  191.0230  177.3480  141.2400 C   0  0  0  0  0  2  0  0  0  0  0  0
  189.2460  176.6790  142.8720 C   0  0  0  0  0  3  0  0  0  0  0  0
  188.6240  176.8110  144.1140 C   0  0  0  0  0  3  0  0  0  0  0  0
  189.1030  177.7570  145.0320 C   0  0  0  0  0  0  0  0  0  0  0  0
  190.7940  178.4180  143.4920 C   0  0  0  0  0  3  0  0  0  0  0  0
  190.1730  178.5300  144.6970 N   0  0  0  0  0  0  0  0  0  0  0  0
  190.3370  177.4900  142.5540 C   0  0  0  0  0  0  0  0  0  0  0  0
  189.0840  177.6290  147.5930 C   0  0  0  0  0  0  0  0  0  0  0  0
  188.3020  177.8770  148.8320 C   0  0  0  0  0  1  0  0  0  0  0  0
  188.4980  177.9310  146.3210 N   0  0  0  0  0  2  0  0  0  0  0  0
  190.2480  177.1550  147.6820 O   0  0  0  0  0  0  0  0  0  0  0  0
  2  3  2  0  0  0  0
  3  4  1  0  0  0  0
  3  1  1  0  0  0  0
  4 16  1  0  0  0  0
  5  7  1  0  0  0  0
  5  6  1  0  0  0  0
  6  8  1  0  0  0  0
  7 10  1  6  0  0  0
  7  9  1  0  0  0  0
  8  9  1  0  0  0  0
  8  4  1  1  0  0  0
 10 11  1  0  0  0  0
 11 14  1  0  0  0  0
 12 15  2  0  0  0  0
 15 14  1  0  0  0  0
 15 13  1  0  0  0  0
 16 17  1  0  0  0  0
 17 23  1  0  0  0  0
 18 19  2  0  0  0  0
 19 20  1  0  0  0  0
 20 26  1  0  0  0  0
 21 22  1  0  0  0  0
 22 20  2  0  0  0  0
 23 18  1  0  0  0  0
 23 21  2  0  0  0  0
 24 27  2  0  0  0  0
 24 25  1  0  0  0  0
 26 24  1  0  0  0  0
M  END
>  <MODEL>
9

>  <REMARK>
 VINA RESULT:      -6.9      4.197      7.674
  Name = 
  8 active torsions:
  status: ('A' for Active; 'I' for Inactive)
    1  A    between atoms: C_6  and  N_18
    2  A    between atoms: C_7  and  N_14
    3  A    between atoms: C_7  and  C_27
    4  A    between atoms: C_8  and  C_12
    5  A    between atoms: C_8  and  C_26
    6  A    between atoms: C_12  and  N_24
    7  A    between atoms: C_16  and  C_27
    8  A    between atoms: C_21  and  N_24
                            x       y       z     vdW  Elec       q    Type
                         _______ _______ _______ _____ _____    ______ ____

>  <TORSDO>
F 8

$$$$
