=
 OpenBabel11042411023D

 29 32  0  0  1  0  0  0  0  0999 V2000
  190.2020  175.5500  142.4710 O   0  0  0  0  0  1  0  0  0  0  0  0
  189.2560  177.1020  144.0430 C   0  0  0  0  0  2  0  0  0  0  0  0
  190.0380  177.8060  141.8230 N   0  0  0  0  0  2  0  0  0  0  0  0
  188.7000  177.6000  141.2620 C   0  0  0  0  0  2  0  0  0  0  0  0
  190.2900  176.8750  142.9320 C   0  0  2  0  0  0  0  0  0  0  0  0
  187.8370  176.9520  143.5030 C   0  0  0  0  0  2  0  0  0  0  0  0
  187.6310  177.8860  142.3130 C   0  0  2  0  0  3  0  0  0  0  0  0
  191.7300  176.9990  144.8880 N   0  0  0  0  0  0  0  0  0  0  0  0
  191.6880  177.1850  143.5040 C   0  0  2  0  0  3  0  0  0  0  0  0
  191.7450  178.3780  144.2160 C   0  0  0  0  0  0  0  0  0  0  0  0
  191.7690  179.6350  144.2750 O   0  0  0  0  0  0  0  0  0  0  0  0
  191.7080  176.1570  146.0720 C   0  0  0  0  0  2  0  0  0  0  0  0
  191.2240  176.9480  147.2730 C   0  0  0  0  0  2  0  0  0  0  0  0
  189.0320  177.9670  147.4610 N   0  0  0  0  0  1  0  0  0  0  0  0
  189.7460  176.7030  147.5070 C   0  0  0  0  0  2  0  0  0  0  0  0
  186.3180  177.6610  141.7300 N   0  0  0  0  0  2  0  0  0  0  0  0
  185.0050  179.2560  140.4440 C   0  0  0  0  0  1  0  0  0  0  0  0
  185.5740  178.9100  141.8080 C   0  0  1  0  0  3  0  0  0  0  0  0
  183.5270  178.8650  146.0850 O   0  0  0  0  0  0  0  0  0  0  0  0
  184.6550  178.7650  144.1480 N   0  0  0  0  0  0  0  0  0  0  0  0
  184.9130  178.9240  146.4600 C   0  0  0  0  0  3  0  0  0  0  0  0
  185.7130  178.8880  145.1230 C   0  0  0  0  0  3  0  0  0  0  0  0
  182.4770  178.7770  143.7840 C   0  0  0  0  0  0  0  0  0  0  0  0
  183.4850  178.7800  144.7160 C   0  0  0  0  0  0  0  0  0  0  0  0
  183.1090  178.7930  142.5340 C   0  0  0  0  0  3  0  0  0  0  0  0
  184.4800  178.7790  142.8170 C   0  0  0  0  0  0  0  0  0  0  0  0
  181.0090  178.8360  144.0430 C   0  0  0  0  0  2  0  0  0  0  0  0
  179.5780  177.7690  142.5920 N   0  0  0  0  0  1  0  0  0  0  0  0
  180.2760  178.9670  142.7930 N   0  0  0  0  0  2  0  0  0  0  0  0
  3  5  1  0  0  0  0
  4  3  1  0  0  0  0
  4  7  1  0  0  0  0
  5  1  1  6  0  0  0
  5  9  1  0  0  0  0
  5  2  1  0  0  0  0
  6  2  1  0  0  0  0
  7 16  1  6  0  0  0
  7  6  1  0  0  0  0
  8 12  1  0  0  0  0
  9 10  1  1  0  0  0
  9  8  1  0  0  0  0
 10 11  2  0  0  0  0
 10  8  1  0  0  0  0
 12 13  1  0  0  0  0
 13 15  1  0  0  0  0
 14 15  1  0  0  0  0
 16 18  1  0  0  0  0
 18 17  1  6  0  0  0
 18 26  1  0  0  0  0
 19 21  1  0  0  0  0
 20 24  1  0  0  0  0
 20 22  1  0  0  0  0
 22 21  2  0  0  0  0
 23 27  1  0  0  0  0
 23 24  2  0  0  0  0
 24 19  1  0  0  0  0
 25 26  2  0  0  0  0
 25 23  1  0  0  0  0
 26 20  1  0  0  0  0
 28 29  1  0  0  0  0
 29 27  1  0  0  0  0
M  END
>  <MODEL>
1

>  <REMARK>
 VINA RESULT:      -7.3      0.000      0.000
  Name = 
  9 active torsions:
  status: ('A' for Active; 'I' for Inactive)
    1  A    between atoms: C_1  and  N_6
    2  A    between atoms: C_1  and  C_23
    3  A    between atoms: C_2  and  C_16
    4  A    between atoms: C_2  and  N_27
    5  A    between atoms: CA_8  and  C_15
    6  A    between atoms: C_10  and  C_23
    7  A    between atoms: N_17  and  C_28
    8  A    between atoms: N_17  and  C_29
    9  A    between atoms: C_24  and  C_28
                            x       y       z     vdW  Elec       q    Type
                         _______ _______ _______ _____ _____    ______ ____

>  <TORSDO>
F 9

$$$$
=
 OpenBabel11042411023D

 29 32  0  0  1  0  0  0  0  0999 V2000
  188.6080  176.3350  138.7600 O   0  0  0  0  0  1  0  0  0  0  0  0
  190.5780  177.3720  139.6630 C   0  0  0  0  0  2  0  0  0  0  0  0
  188.3290  178.2770  140.0570 N   0  0  0  0  0  2  0  0  0  0  0  0
  188.2070  177.4960  141.2910 C   0  0  0  0  0  2  0  0  0  0  0  0
  189.1740  177.5810  139.0780 C   0  0  2  0  0  0  0  0  0  0  0  0
  190.5090  176.6080  140.9820 C   0  0  0  0  0  2  0  0  0  0  0  0
  189.5720  177.3240  141.9510 C   0  0  2  0  0  3  0  0  0  0  0  0
  188.1400  178.4460  137.0550 N   0  0  0  0  0  0  0  0  0  0  0  0
  189.2990  178.4820  137.8330 C   0  0  2  0  0  3  0  0  0  0  0  0
  189.4560  177.7740  136.6470 C   0  0  0  0  0  0  0  0  0  0  0  0
  190.1430  177.0840  135.8490 O   0  0  0  0  0  0  0  0  0  0  0  0
  186.7370  178.7500  136.8250 C   0  0  0  0  0  2  0  0  0  0  0  0
  185.8700  177.5710  137.2250 C   0  0  0  0  0  2  0  0  0  0  0  0
  185.1540  179.1220  138.9450 N   0  0  0  0  0  1  0  0  0  0  0  0
  184.7130  178.0360  138.0890 C   0  0  0  0  0  2  0  0  0  0  0  0
  189.4190  176.5370  143.1630 N   0  0  0  0  0  2  0  0  0  0  0  0
  190.3470  178.6990  143.7830 C   0  0  0  0  0  1  0  0  0  0  0  0
  189.8380  177.3600  144.2870 C   0  0  1  0  0  3  0  0  0  0  0  0
  187.6090  178.1640  148.3940 O   0  0  0  0  0  0  0  0  0  0  0  0
  188.7910  177.6440  146.5600 N   0  0  0  0  0  0  0  0  0  0  0  0
  188.9580  177.9920  148.8590 C   0  0  0  0  0  3  0  0  0  0  0  0
  189.8010  177.6600  147.5910 C   0  0  0  0  0  3  0  0  0  0  0  0
  186.6810  178.0410  146.0430 C   0  0  0  0  0  0  0  0  0  0  0  0
  187.6210  177.9450  147.0400 C   0  0  0  0  0  0  0  0  0  0  0  0
  187.3660  177.8020  144.8450 C   0  0  0  0  0  3  0  0  0  0  0  0
  188.6910  177.5510  145.2240 C   0  0  0  0  0  0  0  0  0  0  0  0
  185.2430  178.4110  146.1910 C   0  0  0  0  0  2  0  0  0  0  0  0
  183.3500  179.1490  145.1140 N   0  0  0  0  0  1  0  0  0  0  0  0
  184.7290  178.9640  144.9480 N   0  0  0  0  0  2  0  0  0  0  0  0
  2  6  1  0  0  0  0
  3  4  1  0  0  0  0
  4  7  1  0  0  0  0
  5  1  1  6  0  0  0
  5  2  1  0  0  0  0
  5  3  1  0  0  0  0
  6  7  1  0  0  0  0
  7 16  1  1  0  0  0
  8  9  1  0  0  0  0
  9 10  1  6  0  0  0
  9  5  1  0  0  0  0
 10  8  1  0  0  0  0
 11 10  2  0  0  0  0
 12  8  1  0  0  0  0
 12 13  1  0  0  0  0
 13 15  1  0  0  0  0
 15 14  1  0  0  0  0
 16 18  1  0  0  0  0
 18 17  1  6  0  0  0
 18 26  1  0  0  0  0
 19 21  1  0  0  0  0
 20 24  1  0  0  0  0
 20 22  1  0  0  0  0
 22 21  2  0  0  0  0
 23 27  1  0  0  0  0
 23 24  2  0  0  0  0
 24 19  1  0  0  0  0
 25 26  2  0  0  0  0
 25 23  1  0  0  0  0
 26 20  1  0  0  0  0
 29 28  1  0  0  0  0
 29 27  1  0  0  0  0
M  END
>  <MODEL>
2

>  <REMARK>
 VINA RESULT:      -7.3      2.932      6.239
  Name = 
  9 active torsions:
  status: ('A' for Active; 'I' for Inactive)
    1  A    between atoms: C_1  and  N_6
    2  A    between atoms: C_1  and  C_23
    3  A    between atoms: C_2  and  C_16
    4  A    between atoms: C_2  and  N_27
    5  A    between atoms: CA_8  and  C_15
    6  A    between atoms: C_10  and  C_23
    7  A    between atoms: N_17  and  C_28
    8  A    between atoms: N_17  and  C_29
    9  A    between atoms: C_24  and  C_28
                            x       y       z     vdW  Elec       q    Type
                         _______ _______ _______ _____ _____    ______ ____

>  <TORSDO>
F 9

$$$$
=
 OpenBabel11042411023D

 29 32  0  0  1  0  0  0  0  0999 V2000
  190.2350  178.6270  144.2110 O   0  0  0  0  0  1  0  0  0  0  0  0
  191.4620  176.7280  143.3960 C   0  0  0  0  0  2  0  0  0  0  0  0
  189.0330  176.9410  143.0940 N   0  0  0  0  0  2  0  0  0  0  0  0
  189.2300  177.5910  141.7960 C   0  0  0  0  0  2  0  0  0  0  0  0
  190.1480  177.2390  144.0040 C   0  0  2  0  0  0  0  0  0  0  0  0
  191.6930  177.3330  142.0150 C   0  0  0  0  0  2  0  0  0  0  0  0
  190.4900  177.0600  141.1180 C   0  0  2  0  0  3  0  0  0  0  0  0
  189.1840  177.2610  146.2360 N   0  0  0  0  0  0  0  0  0  0  0  0
  189.9000  176.4820  145.3230 C   0  0  2  0  0  3  0  0  0  0  0  0
  190.6760  176.9390  146.3820 C   0  0  0  0  0  0  0  0  0  0  0  0
  191.7730  177.0380  146.9910 O   0  0  0  0  0  0  0  0  0  0  0  0
  187.9730  177.9280  146.6820 C   0  0  0  0  0  2  0  0  0  0  0  0
  186.7890  177.4940  145.8380 C   0  0  0  0  0  2  0  0  0  0  0  0
  185.1710  178.9680  146.8800 N   0  0  0  0  0  1  0  0  0  0  0  0
  185.8360  178.6550  145.6280 C   0  0  0  0  0  2  0  0  0  0  0  0
  190.6620  177.7320  139.8400 N   0  0  0  0  0  2  0  0  0  0  0  0
  189.5440  177.7420  137.6790 C   0  0  0  0  0  1  0  0  0  0  0  0
  190.0900  176.8830  138.8060 C   0  0  1  0  0  3  0  0  0  0  0  0
  191.9160  173.2790  136.3250 O   0  0  0  0  0  0  0  0  0  0  0  0
  190.8900  174.8500  137.5550 N   0  0  0  0  0  0  0  0  0  0  0  0
  190.5120  173.0540  136.1180 C   0  0  0  0  0  3  0  0  0  0  0  0
  189.7820  174.1570  136.9410 C   0  0  0  0  0  3  0  0  0  0  0  0
  193.0830  175.0800  137.6660 C   0  0  0  0  0  0  0  0  0  0  0  0
  192.0290  174.3520  137.1730 C   0  0  0  0  0  0  0  0  0  0  0  0
  192.5160  176.1360  138.3900 C   0  0  0  0  0  3  0  0  0  0  0  0
  191.1320  175.9430  138.2950 C   0  0  0  0  0  0  0  0  0  0  0  0
  194.5360  174.8500  137.4120 C   0  0  0  0  0  2  0  0  0  0  0  0
  195.5980  173.6290  139.0450 N   0  0  0  0  0  1  0  0  0  0  0  0
  195.2900  174.9380  138.6520 N   0  0  0  0  0  2  0  0  0  0  0  0
  2  5  1  0  0  0  0
  3  5  1  0  0  0  0
  4  3  1  0  0  0  0
  5  1  1  1  0  0  0
  5  9  1  0  0  0  0
  6  2  1  0  0  0  0
  7 16  1  6  0  0  0
  7  4  1  0  0  0  0
  7  6  1  0  0  0  0
  8 10  1  0  0  0  0
  8 12  1  0  0  0  0
  9  8  1  0  0  0  0
  9 10  1  1  0  0  0
 10 11  2  0  0  0  0
 13 12  1  0  0  0  0
 15 13  1  0  0  0  0
 15 14  1  0  0  0  0
 18 17  1  6  0  0  0
 18 16  1  0  0  0  0
 19 24  1  0  0  0  0
 20 26  1  0  0  0  0
 21 19  1  0  0  0  0
 21 22  2  0  0  0  0
 22 20  1  0  0  0  0
 23 25  1  0  0  0  0
 24 20  1  0  0  0  0
 24 23  2  0  0  0  0
 26 25  2  0  0  0  0
 26 18  1  0  0  0  0
 27 23  1  0  0  0  0
 27 29  1  0  0  0  0
 29 28  1  0  0  0  0
M  END
>  <MODEL>
3

>  <REMARK>
 VINA RESULT:      -7.2      4.172      8.535
  Name = 
  9 active torsions:
  status: ('A' for Active; 'I' for Inactive)
    1  A    between atoms: C_1  and  N_6
    2  A    between atoms: C_1  and  C_23
    3  A    between atoms: C_2  and  C_16
    4  A    between atoms: C_2  and  N_27
    5  A    between atoms: CA_8  and  C_15
    6  A    between atoms: C_10  and  C_23
    7  A    between atoms: N_17  and  C_28
    8  A    between atoms: N_17  and  C_29
    9  A    between atoms: C_24  and  C_28
                            x       y       z     vdW  Elec       q    Type
                         _______ _______ _______ _____ _____    ______ ____

>  <TORSDO>
F 9

$$$$
=
 OpenBabel11042411023D

 29 32  0  0  1  0  0  0  0  0999 V2000
  190.3910  177.7800  137.9660 O   0  0  0  0  0  1  0  0  0  0  0  0
  188.2270  177.1810  138.8210 C   0  0  0  0  0  2  0  0  0  0  0  0
  190.2760  176.0260  139.5290 N   0  0  0  0  0  2  0  0  0  0  0  0
  190.4350  176.9510  140.6540 C   0  0  0  0  0  2  0  0  0  0  0  0
  189.6170  176.6880  138.3950 C   0  0  2  0  0  0  0  0  0  0  0  0
  188.3260  178.1090  140.0280 C   0  0  0  0  0  2  0  0  0  0  0  0
  189.0720  177.4120  141.1620 C   0  0  2  0  0  3  0  0  0  0  0  0
  190.5360  175.6210  136.4130 N   0  0  0  0  0  0  0  0  0  0  0  0
  189.4370  175.6450  137.2750 C   0  0  2  0  0  3  0  0  0  0  0  0
  189.1710  176.2050  136.0300 C   0  0  0  0  0  0  0  0  0  0  0  0
  188.4050  176.7770  135.2120 O   0  0  0  0  0  0  0  0  0  0  0  0
  191.9290  175.3310  136.1160 C   0  0  0  0  0  2  0  0  0  0  0  0
  192.5720  174.5870  137.2720 C   0  0  0  0  0  2  0  0  0  0  0  0
  193.8910  176.6110  137.0720 N   0  0  0  0  0  1  0  0  0  0  0  0
  193.7320  175.3850  137.8340 C   0  0  0  0  0  2  0  0  0  0  0  0
  189.2640  178.3360  142.2680 N   0  0  0  0  0  2  0  0  0  0  0  0
  191.4410  178.7350  143.2800 C   0  0  0  0  0  1  0  0  0  0  0  0
  190.2740  177.7720  143.1520 C   0  0  1  0  0  3  0  0  0  0  0  0
  190.1320  176.6770  147.7630 O   0  0  0  0  0  0  0  0  0  0  0  0
  190.3400  177.0300  145.5580 N   0  0  0  0  0  0  0  0  0  0  0  0
  191.5120  176.3990  147.4710 C   0  0  0  0  0  3  0  0  0  0  0  0
  191.6830  176.6700  145.9460 C   0  0  0  0  0  3  0  0  0  0  0  0
  188.2890  177.4920  146.2340 C   0  0  0  0  0  0  0  0  0  0  0  0
  189.5390  177.0410  146.5820 C   0  0  0  0  0  0  0  0  0  0  0  0
  188.3610  177.8100  144.8710 C   0  0  0  0  0  3  0  0  0  0  0  0
  189.6710  177.4950  144.4900 C   0  0  0  0  0  0  0  0  0  0  0  0
  187.1180  177.6900  147.1360 C   0  0  0  0  0  2  0  0  0  0  0  0
  185.4660  179.2500  146.7790 N   0  0  0  0  0  1  0  0  0  0  0  0
  185.9230  177.9930  146.3620 N   0  0  0  0  0  2  0  0  0  0  0  0
  2  6  1  0  0  0  0
  3  4  1  0  0  0  0
  4  7  1  0  0  0  0
  5  1  1  6  0  0  0
  5  2  1  0  0  0  0
  5  3  1  0  0  0  0
  6  7  1  0  0  0  0
  7 16  1  1  0  0  0
  8  9  1  0  0  0  0
  9 10  1  6  0  0  0
  9  5  1  0  0  0  0
 10  8  1  0  0  0  0
 11 10  2  0  0  0  0
 12  8  1  0  0  0  0
 12 13  1  0  0  0  0
 13 15  1  0  0  0  0
 14 15  1  0  0  0  0
 16 18  1  0  0  0  0
 18 17  1  1  0  0  0
 18 26  1  0  0  0  0
 20 22  1  0  0  0  0
 20 24  1  0  0  0  0
 21 19  1  0  0  0  0
 22 21  2  0  0  0  0
 23 24  2  0  0  0  0
 23 27  1  0  0  0  0
 24 19  1  0  0  0  0
 25 23  1  0  0  0  0
 26 25  2  0  0  0  0
 26 20  1  0  0  0  0
 29 28  1  0  0  0  0
 29 27  1  0  0  0  0
M  END
>  <MODEL>
4

>  <REMARK>
 VINA RESULT:      -7.2      3.859      6.999
  Name = 
  9 active torsions:
  status: ('A' for Active; 'I' for Inactive)
    1  A    between atoms: C_1  and  N_6
    2  A    between atoms: C_1  and  C_23
    3  A    between atoms: C_2  and  C_16
    4  A    between atoms: C_2  and  N_27
    5  A    between atoms: CA_8  and  C_15
    6  A    between atoms: C_10  and  C_23
    7  A    between atoms: N_17  and  C_28
    8  A    between atoms: N_17  and  C_29
    9  A    between atoms: C_24  and  C_28
                            x       y       z     vdW  Elec       q    Type
                         _______ _______ _______ _____ _____    ______ ____

>  <TORSDO>
F 9

$$$$
=
 OpenBabel11042411023D

 29 32  0  0  1  0  0  0  0  0999 V2000
  189.0390  179.3740  138.1770 O   0  0  0  0  0  1  0  0  0  0  0  0
  187.2930  178.1720  139.3070 C   0  0  0  0  0  2  0  0  0  0  0  0
  189.3980  177.0960  138.6380 N   0  0  0  0  0  2  0  0  0  0  0  0
  189.9930  177.4020  139.9420 C   0  0  0  0  0  2  0  0  0  0  0  0
  188.4130  178.1190  138.2590 C   0  0  2  0  0  0  0  0  0  0  0  0
  187.8620  178.4350  140.6980 C   0  0  0  0  0  2  0  0  0  0  0  0
  188.9250  177.3930  141.0320 C   0  0  2  0  0  3  0  0  0  0  0  0
  187.6890  176.3150  136.7980 N   0  0  0  0  0  0  0  0  0  0  0  0
  187.7930  177.7040  136.9100 C   0  0  2  0  0  3  0  0  0  0  0  0
  188.7110  177.1540  136.0210 C   0  0  0  0  0  0  0  0  0  0  0  0
  189.6690  177.2560  135.2110 O   0  0  0  0  0  0  0  0  0  0  0  0
  187.1090  175.0360  137.1730 C   0  0  0  0  0  2  0  0  0  0  0  0
  185.7220  174.8900  136.5740 C   0  0  0  0  0  2  0  0  0  0  0  0
  183.7530  174.4570  137.9200 N   0  0  0  0  0  1  0  0  0  0  0  0
  184.9290  173.8420  137.3300 C   0  0  0  0  0  2  0  0  0  0  0  0
  189.5450  177.7110  142.3080 N   0  0  0  0  0  2  0  0  0  0  0  0
  190.8770  175.9750  143.3730 C   0  0  0  0  0  1  0  0  0  0  0  0
  189.4790  176.5230  143.1460 C   0  0  1  0  0  3  0  0  0  0  0  0
  189.1730  177.6130  147.7500 O   0  0  0  0  0  0  0  0  0  0  0  0
  189.4600  176.9430  145.6290 N   0  0  0  0  0  0  0  0  0  0  0  0
  190.5650  177.2670  147.6560 C   0  0  0  0  0  3  0  0  0  0  0  0
  190.7910  176.8280  146.1780 C   0  0  0  0  0  3  0  0  0  0  0  0
  187.3820  177.6100  145.9630 C   0  0  0  0  0  0  0  0  0  0  0  0
  188.6210  177.3940  146.5140 C   0  0  0  0  0  0  0  0  0  0  0  0
  187.5020  177.2830  144.6060 C   0  0  0  0  0  3  0  0  0  0  0  0
  188.8290  176.8630  144.4470 C   0  0  0  0  0  0  0  0  0  0  0  0
  186.1760  178.1640  146.6450 C   0  0  0  0  0  2  0  0  0  0  0  0
  184.1390  178.9540  145.9270 N   0  0  0  0  0  1  0  0  0  0  0  0
  185.5200  179.1500  145.7990 N   0  0  0  0  0  2  0  0  0  0  0  0
  2  6  1  0  0  0  0
  3  4  1  0  0  0  0
  4  7  1  0  0  0  0
  5  1  1  6  0  0  0
  5  3  1  0  0  0  0
  5  2  1  0  0  0  0
  6  7  1  0  0  0  0
  7 16  1  1  0  0  0
  8  9  1  0  0  0  0
  8 12  1  0  0  0  0
  9 10  1  6  0  0  0
  9  5  1  0  0  0  0
 10  8  1  0  0  0  0
 11 10  2  0  0  0  0
 13 12  1  0  0  0  0
 13 15  1  0  0  0  0
 15 14  1  0  0  0  0
 16 18  1  0  0  0  0
 18 17  1  1  0  0  0
 18 26  1  0  0  0  0
 20 22  1  0  0  0  0
 20 24  1  0  0  0  0
 21 19  1  0  0  0  0
 22 21  2  0  0  0  0
 23 24  2  0  0  0  0
 23 27  1  0  0  0  0
 24 19  1  0  0  0  0
 25 23  1  0  0  0  0
 26 25  2  0  0  0  0
 26 20  1  0  0  0  0
 29 28  1  0  0  0  0
 29 27  1  0  0  0  0
M  END
>  <MODEL>
5

>  <REMARK>
 VINA RESULT:      -7.1      3.618      6.901
  Name = 
  9 active torsions:
  status: ('A' for Active; 'I' for Inactive)
    1  A    between atoms: C_1  and  N_6
    2  A    between atoms: C_1  and  C_23
    3  A    between atoms: C_2  and  C_16
    4  A    between atoms: C_2  and  N_27
    5  A    between atoms: CA_8  and  C_15
    6  A    between atoms: C_10  and  C_23
    7  A    between atoms: N_17  and  C_28
    8  A    between atoms: N_17  and  C_29
    9  A    between atoms: C_24  and  C_28
                            x       y       z     vdW  Elec       q    Type
                         _______ _______ _______ _____ _____    ______ ____

>  <TORSDO>
F 9

$$$$
=
 OpenBabel11042411023D

 29 32  0  0  1  0  0  0  0  0999 V2000
  189.1040  179.3640  138.4060 O   0  0  0  0  0  1  0  0  0  0  0  0
  187.5850  177.9740  139.6450 C   0  0  0  0  0  2  0  0  0  0  0  0
  189.7050  177.1150  138.7480 N   0  0  0  0  0  2  0  0  0  0  0  0
  190.3910  177.4360  140.0030 C   0  0  0  0  0  2  0  0  0  0  0  0
  188.6020  178.0540  138.4980 C   0  0  2  0  0  0  0  0  0  0  0  0
  188.2560  178.2480  140.9870 C   0  0  0  0  0  2  0  0  0  0  0  0
  189.4350  177.2990  141.1840 C   0  0  2  0  0  3  0  0  0  0  0  0
  186.5080  177.6900  137.3190 N   0  0  0  0  0  0  0  0  0  0  0  0
  187.8980  177.6230  137.1960 C   0  0  2  0  0  3  0  0  0  0  0  0
  187.2930  176.3740  137.2790 C   0  0  0  0  0  0  0  0  0  0  0  0
  187.3440  175.1170  137.3170 O   0  0  0  0  0  0  0  0  0  0  0  0
  185.2650  178.4310  137.4510 C   0  0  0  0  0  2  0  0  0  0  0  0
  184.3080  177.6960  138.3720 C   0  0  0  0  0  2  0  0  0  0  0  0
  184.4650  179.9010  139.3650 N   0  0  0  0  0  1  0  0  0  0  0  0
  183.9730  178.5520  139.5780 C   0  0  0  0  0  2  0  0  0  0  0  0
  190.1410  177.6350  142.4090 N   0  0  0  0  0  2  0  0  0  0  0  0
  191.5440  176.0150  143.5610 C   0  0  0  0  0  1  0  0  0  0  0  0
  190.1230  176.4640  143.2730 C   0  0  1  0  0  3  0  0  0  0  0  0
  189.5800  177.5780  147.8500 O   0  0  0  0  0  0  0  0  0  0  0  0
  189.9830  176.9020  145.7490 N   0  0  0  0  0  0  0  0  0  0  0  0
  190.9880  177.2880  147.8160 C   0  0  0  0  0  3  0  0  0  0  0  0
  191.2920  176.8460  146.3540 C   0  0  0  0  0  3  0  0  0  0  0  0
  187.8670  177.4880  145.9890 C   0  0  0  0  0  0  0  0  0  0  0  0
  189.0900  177.3260  146.5930 C   0  0  0  0  0  0  0  0  0  0  0  0
  188.0580  177.1550  144.6420 C   0  0  0  0  0  3  0  0  0  0  0  0
  189.4050  176.7870  144.5420 C   0  0  0  0  0  0  0  0  0  0  0  0
  186.6130  177.9980  146.6150 C   0  0  0  0  0  2  0  0  0  0  0  0
  184.5710  178.9370  146.1240 N   0  0  0  0  0  1  0  0  0  0  0  0
  185.9030  178.8730  145.6940 N   0  0  0  0  0  2  0  0  0  0  0  0
  2  6  1  0  0  0  0
  3  4  1  0  0  0  0
  4  7  1  0  0  0  0
  5  1  1  6  0  0  0
  5  3  1  0  0  0  0
  5  2  1  0  0  0  0
  6  7  1  0  0  0  0
  7 16  1  1  0  0  0
  8 12  1  0  0  0  0
  9 10  1  1  0  0  0
  9  8  1  0  0  0  0
  9  5  1  0  0  0  0
 10 11  2  0  0  0  0
 10  8  1  0  0  0  0
 12 13  1  0  0  0  0
 13 15  1  0  0  0  0
 14 15  1  0  0  0  0
 16 18  1  0  0  0  0
 18 17  1  1  0  0  0
 18 26  1  0  0  0  0
 20 22  1  0  0  0  0
 20 24  1  0  0  0  0
 21 19  1  0  0  0  0
 22 21  2  0  0  0  0
 23 24  2  0  0  0  0
 23 27  1  0  0  0  0
 24 19  1  0  0  0  0
 25 23  1  0  0  0  0
 26 25  2  0  0  0  0
 26 20  1  0  0  0  0
 29 28  1  0  0  0  0
 29 27  1  0  0  0  0
M  END
>  <MODEL>
6

>  <REMARK>
 VINA RESULT:      -7.1      3.253      6.845
  Name = 
  9 active torsions:
  status: ('A' for Active; 'I' for Inactive)
    1  A    between atoms: C_1  and  N_6
    2  A    between atoms: C_1  and  C_23
    3  A    between atoms: C_2  and  C_16
    4  A    between atoms: C_2  and  N_27
    5  A    between atoms: CA_8  and  C_15
    6  A    between atoms: C_10  and  C_23
    7  A    between atoms: N_17  and  C_28
    8  A    between atoms: N_17  and  C_29
    9  A    between atoms: C_24  and  C_28
                            x       y       z     vdW  Elec       q    Type
                         _______ _______ _______ _____ _____    ______ ____

>  <TORSDO>
F 9

$$$$
=
 OpenBabel11042411023D

 29 32  0  0  1  0  0  0  0  0999 V2000
  189.0310  179.4380  137.5100 O   0  0  0  0  0  1  0  0  0  0  0  0
  187.3080  178.0060  138.3780 C   0  0  0  0  0  2  0  0  0  0  0  0
  189.6140  177.2250  138.0540 N   0  0  0  0  0  2  0  0  0  0  0  0
  189.9580  177.6000  139.4290 C   0  0  0  0  0  2  0  0  0  0  0  0
  188.5720  178.1090  137.5140 C   0  0  2  0  0  0  0  0  0  0  0  0
  187.6170  178.3350  139.8360 C   0  0  0  0  0  2  0  0  0  0  0  0
  188.7460  177.4430  140.3430 C   0  0  2  0  0  3  0  0  0  0  0  0
  188.0890  176.2330  136.0450 N   0  0  0  0  0  0  0  0  0  0  0  0
  188.2270  177.6230  136.0930 C   0  0  2  0  0  3  0  0  0  0  0  0
  189.2840  176.9880  135.4500 C   0  0  0  0  0  0  0  0  0  0  0  0
  190.3910  177.0080  134.8520 O   0  0  0  0  0  0  0  0  0  0  0  0
  187.3900  175.0000  136.3660 C   0  0  0  0  0  2  0  0  0  0  0  0
  185.9870  175.0230  135.7880 C   0  0  0  0  0  2  0  0  0  0  0  0
  185.6640  173.4420  137.5980 N   0  0  0  0  0  1  0  0  0  0  0  0
  184.9990  174.4400  136.7800 C   0  0  0  0  0  2  0  0  0  0  0  0
  189.1160  177.8330  141.6940 N   0  0  0  0  0  2  0  0  0  0  0  0
  189.9620  176.0120  143.0670 C   0  0  0  0  0  1  0  0  0  0  0  0
  188.7270  176.7570  142.5930 C   0  0  1  0  0  3  0  0  0  0  0  0
  185.0380  178.5120  145.0000 O   0  0  0  0  0  0  0  0  0  0  0  0
  186.7280  177.8160  143.6990 N   0  0  0  0  0  0  0  0  0  0  0  0
  184.5030  178.5100  143.6660 C   0  0  0  0  0  3  0  0  0  0  0  0
  185.6550  177.9990  142.7500 C   0  0  0  0  0  3  0  0  0  0  0  0
  187.3230  177.8050  145.8250 C   0  0  0  0  0  0  0  0  0  0  0  0
  186.3390  178.0860  144.9100 C   0  0  0  0  0  0  0  0  0  0  0  0
  188.3960  177.2880  145.0890 C   0  0  0  0  0  3  0  0  0  0  0  0
  187.9740  177.3200  143.7540 C   0  0  0  0  0  0  0  0  0  0  0  0
  187.2400  177.9380  147.3090 C   0  0  0  0  0  2  0  0  0  0  0  0
  189.1770  178.2430  148.5100 N   0  0  0  0  0  1  0  0  0  0  0  0
  188.3570  177.2570  147.9450 N   0  0  0  0  0  2  0  0  0  0  0  0
  2  6  1  0  0  0  0
  3  4  1  0  0  0  0
  4  7  1  0  0  0  0
  5  1  1  6  0  0  0
  5  3  1  0  0  0  0
  5  2  1  0  0  0  0
  6  7  1  0  0  0  0
  7 16  1  1  0  0  0
  8  9  1  0  0  0  0
  8 12  1  0  0  0  0
  9 10  1  6  0  0  0
  9  5  1  0  0  0  0
 10  8  1  0  0  0  0
 11 10  2  0  0  0  0
 13 12  1  0  0  0  0
 13 15  1  0  0  0  0
 15 14  1  0  0  0  0
 16 18  1  0  0  0  0
 18 17  1  1  0  0  0
 18 26  1  0  0  0  0
 20 26  1  0  0  0  0
 20 24  1  0  0  0  0
 21 19  1  0  0  0  0
 22 21  2  0  0  0  0
 22 20  1  0  0  0  0
 23 27  1  0  0  0  0
 24 19  1  0  0  0  0
 24 23  2  0  0  0  0
 25 23  1  0  0  0  0
 26 25  2  0  0  0  0
 27 29  1  0  0  0  0
 29 28  1  0  0  0  0
M  END
>  <MODEL>
7

>  <REMARK>
 VINA RESULT:      -7.0      3.827      7.175
  Name = 
  9 active torsions:
  status: ('A' for Active; 'I' for Inactive)
    1  A    between atoms: C_1  and  N_6
    2  A    between atoms: C_1  and  C_23
    3  A    between atoms: C_2  and  C_16
    4  A    between atoms: C_2  and  N_27
    5  A    between atoms: CA_8  and  C_15
    6  A    between atoms: C_10  and  C_23
    7  A    between atoms: N_17  and  C_28
    8  A    between atoms: N_17  and  C_29
    9  A    between atoms: C_24  and  C_28
                            x       y       z     vdW  Elec       q    Type
                         _______ _______ _______ _____ _____    ______ ____

>  <TORSDO>
F 9

$$$$
=
 OpenBabel11042411023D

 29 32  0  0  1  0  0  0  0  0999 V2000
  188.6190  176.0830  138.2180 O   0  0  0  0  0  1  0  0  0  0  0  0
  190.6540  176.8630  139.2290 C   0  0  0  0  0  2  0  0  0  0  0  0
  188.8190  178.3880  138.6430 N   0  0  0  0  0  2  0  0  0  0  0  0
  188.2410  178.2420  139.9820 C   0  0  0  0  0  2  0  0  0  0  0  0
  189.5200  177.1610  138.2390 C   0  0  2  0  0  0  0  0  0  0  0  0
  190.1170  176.7540  140.6530 C   0  0  0  0  0  2  0  0  0  0  0  0
  189.3410  178.0170  141.0160 C   0  0  2  0  0  3  0  0  0  0  0  0
  189.3650  176.8520  135.8320 N   0  0  0  0  0  0  0  0  0  0  0  0
  190.1440  177.4070  136.8500 C   0  0  2  0  0  3  0  0  0  0  0  0
  190.7090  176.2690  136.2850 C   0  0  0  0  0  0  0  0  0  0  0  0
  191.6180  175.4010  136.2120 O   0  0  0  0  0  0  0  0  0  0  0  0
  188.1680  176.8090  135.0090 C   0  0  0  0  0  2  0  0  0  0  0  0
  187.1980  177.8970  135.4320 C   0  0  0  0  0  2  0  0  0  0  0  0
  185.6820  177.5330  137.2880 N   0  0  0  0  0  1  0  0  0  0  0  0
  185.8800  177.2880  135.8710 C   0  0  0  0  0  2  0  0  0  0  0  0
  188.7350  177.8650  142.3290 N   0  0  0  0  0  2  0  0  0  0  0  0
  190.7130  178.9390  143.2540 C   0  0  0  0  0  1  0  0  0  0  0  0
  189.8080  177.7210  143.3020 C   0  0  1  0  0  3  0  0  0  0  0  0
  189.7420  177.0290  147.9930 O   0  0  0  0  0  0  0  0  0  0  0  0
  189.9160  177.1920  145.7620 N   0  0  0  0  0  0  0  0  0  0  0  0
  191.1230  176.7500  147.7070 C   0  0  0  0  0  3  0  0  0  0  0  0
  191.2700  176.8900  146.1620 C   0  0  0  0  0  3  0  0  0  0  0  0
  187.8660  177.6780  146.4240 C   0  0  0  0  0  0  0  0  0  0  0  0
  189.1270  177.2800  146.7920 C   0  0  0  0  0  0  0  0  0  0  0  0
  187.9150  177.8760  145.0380 C   0  0  0  0  0  3  0  0  0  0  0  0
  189.2260  177.5520  144.6680 C   0  0  0  0  0  0  0  0  0  0  0  0
  186.7020  177.9340  147.3220 C   0  0  0  0  0  2  0  0  0  0  0  0
  184.6350  178.6280  146.5900 N   0  0  0  0  0  1  0  0  0  0  0  0
  185.9360  179.0770  146.8500 N   0  0  0  0  0  2  0  0  0  0  0  0
  2  6  1  0  0  0  0
  3  4  1  0  0  0  0
  4  7  1  0  0  0  0
  5  1  1  6  0  0  0
  5  3  1  0  0  0  0
  5  2  1  0  0  0  0
  6  7  1  0  0  0  0
  7 16  1  1  0  0  0
  8 10  1  0  0  0  0
  8  9  1  0  0  0  0
  9 10  1  1  0  0  0
  9  5  1  0  0  0  0
 11 10  2  0  0  0  0
 12 13  1  0  0  0  0
 12  8  1  0  0  0  0
 13 15  1  0  0  0  0
 15 14  1  0  0  0  0
 16 18  1  0  0  0  0
 18 17  1  1  0  0  0
 18 26  1  0  0  0  0
 20 22  1  0  0  0  0
 20 24  1  0  0  0  0
 21 19  1  0  0  0  0
 22 21  2  0  0  0  0
 23 24  2  0  0  0  0
 23 27  1  0  0  0  0
 24 19  1  0  0  0  0
 25 23  1  0  0  0  0
 26 25  2  0  0  0  0
 26 20  1  0  0  0  0
 28 29  1  0  0  0  0
 29 27  1  0  0  0  0
M  END
>  <MODEL>
8

>  <REMARK>
 VINA RESULT:      -6.9      3.630      7.048
  Name = 
  9 active torsions:
  status: ('A' for Active; 'I' for Inactive)
    1  A    between atoms: C_1  and  N_6
    2  A    between atoms: C_1  and  C_23
    3  A    between atoms: C_2  and  C_16
    4  A    between atoms: C_2  and  N_27
    5  A    between atoms: CA_8  and  C_15
    6  A    between atoms: C_10  and  C_23
    7  A    between atoms: N_17  and  C_28
    8  A    between atoms: N_17  and  C_29
    9  A    between atoms: C_24  and  C_28
                            x       y       z     vdW  Elec       q    Type
                         _______ _______ _______ _____ _____    ______ ____

>  <TORSDO>
F 9

$$$$
=
 OpenBabel11042411023D

 29 32  0  0  1  0  0  0  0  0999 V2000
  189.0310  178.6270  145.2690 O   0  0  0  0  0  1  0  0  0  0  0  0
  190.0560  176.4830  145.6290 C   0  0  0  0  0  2  0  0  0  0  0  0
  187.8540  176.7150  144.5640 N   0  0  0  0  0  2  0  0  0  0  0  0
  188.4750  176.7600  143.2380 C   0  0  0  0  0  2  0  0  0  0  0  0
  188.7480  177.2860  145.5810 C   0  0  2  0  0  0  0  0  0  0  0  0
  190.7220  176.4500  144.2570 C   0  0  0  0  0  2  0  0  0  0  0  0
  189.7450  175.9130  143.2150 C   0  0  2  0  0  3  0  0  0  0  0  0
  187.2280  178.2540  147.2140 N   0  0  0  0  0  0  0  0  0  0  0  0
  188.0520  177.1570  146.9510 C   0  0  2  0  0  3  0  0  0  0  0  0
  188.5680  178.0110  147.9200 C   0  0  0  0  0  0  0  0  0  0  0  0
  189.4620  178.3480  148.7390 O   0  0  0  0  0  0  0  0  0  0  0  0
  186.0430  179.0570  146.9690 C   0  0  0  0  0  2  0  0  0  0  0  0
  185.0130  178.2560  146.1930 C   0  0  0  0  0  2  0  0  0  0  0  0
  183.5730  179.3530  144.5810 N   0  0  0  0  0  1  0  0  0  0  0  0
  184.8940  178.7810  144.7760 C   0  0  0  0  0  2  0  0  0  0  0  0
  190.3420  175.9870  141.8920 N   0  0  0  0  0  2  0  0  0  0  0  0
  191.8460  177.8790  141.6050 C   0  0  0  0  0  1  0  0  0  0  0  0
  190.4120  177.3900  141.5100 C   0  0  1  0  0  3  0  0  0  0  0  0
  190.1670  176.8130  136.8100 O   0  0  0  0  0  0  0  0  0  0  0  0
  190.4970  177.1180  139.0080 N   0  0  0  0  0  0  0  0  0  0  0  0
  191.4390  176.2030  137.0820 C   0  0  0  0  0  3  0  0  0  0  0  0
  191.6720  176.3770  138.6120 C   0  0  0  0  0  3  0  0  0  0  0  0
  188.5310  177.9150  138.3950 C   0  0  0  0  0  0  0  0  0  0  0  0
  189.6990  177.3110  137.9990 C   0  0  0  0  0  0  0  0  0  0  0  0
  188.6300  178.0710  139.7840 C   0  0  0  0  0  3  0  0  0  0  0  0
  189.8890  177.5580  140.1210 C   0  0  0  0  0  0  0  0  0  0  0  0
  187.3570  178.2570  137.5400 C   0  0  0  0  0  2  0  0  0  0  0  0
  185.1440  177.8110  137.9790 N   0  0  0  0  0  1  0  0  0  0  0  0
  186.2160  178.6270  138.3630 N   0  0  0  0  0  2  0  0  0  0  0  0
  3  5  1  0  0  0  0
  4  3  1  0  0  0  0
  5  1  1  6  0  0  0
  5  2  1  0  0  0  0
  5  9  1  0  0  0  0
  6  2  1  0  0  0  0
  7 16  1  6  0  0  0
  7  4  1  0  0  0  0
  7  6  1  0  0  0  0
  8 10  1  0  0  0  0
  9  8  1  0  0  0  0
  9 10  1  1  0  0  0
 10 11  2  0  0  0  0
 12  8  1  0  0  0  0
 13 12  1  0  0  0  0
 14 15  1  0  0  0  0
 15 13  1  0  0  0  0
 18 17  1  6  0  0  0
 18 16  1  0  0  0  0
 19 21  1  0  0  0  0
 19 24  1  0  0  0  0
 20 26  1  0  0  0  0
 21 22  2  0  0  0  0
 22 20  1  0  0  0  0
 23 25  1  0  0  0  0
 24 23  2  0  0  0  0
 24 20  1  0  0  0  0
 25 26  2  0  0  0  0
 26 18  1  0  0  0  0
 27 29  1  0  0  0  0
 27 23  1  0  0  0  0
 28 29  1  0  0  0  0
M  END
>  <MODEL>
9

>  <REMARK>
 VINA RESULT:      -6.8      2.854      6.600
  Name = 
  9 active torsions:
  status: ('A' for Active; 'I' for Inactive)
    1  A    between atoms: C_1  and  N_6
    2  A    between atoms: C_1  and  C_23
    3  A    between atoms: C_2  and  C_16
    4  A    between atoms: C_2  and  N_27
    5  A    between atoms: CA_8  and  C_15
    6  A    between atoms: C_10  and  C_23
    7  A    between atoms: N_17  and  C_28
    8  A    between atoms: N_17  and  C_29
    9  A    between atoms: C_24  and  C_28
                            x       y       z     vdW  Elec       q    Type
                         _______ _______ _______ _____ _____    ______ ____

>  <TORSDO>
F 9

$$$$
