=
 OpenBabel11032419493D

 27 29  0  0  1  0  0  0  0  0999 V2000
  187.6270  177.6830  146.1210 C   0  0  0  0  0  0  0  0  0  0  0  0
  186.8920  178.4360  147.0250 C   0  0  0  0  0  0  0  0  0  0  0  0
  187.3880  178.7240  148.2550 N   0  0  0  0  0  0  0  0  0  0  0  0
  186.7070  177.4390  144.7350 S   0  0  0  0  0  0  0  0  0  0  0  0
  188.6190  178.2630  148.6240 C   0  0  0  0  0  3  0  0  0  0  0  0
  189.3900  177.4940  147.7330 C   0  0  0  0  0  3  0  0  0  0  0  0
  185.3840  178.3280  145.2910 C   0  0  0  0  0  0  0  0  0  0  0  0
  185.6250  178.8180  146.5760 C   0  0  0  0  0  3  0  0  0  0  0  0
  188.9020  177.2090  146.4510 C   0  0  0  0  0  0  0  0  0  0  0  0
  184.1890  178.5230  144.5260 N   0  0  0  0  0  2  0  0  0  0  0  0
  181.4720  178.5340  144.2920 O   0  0  0  0  0  0  0  0  0  0  0  0
  185.1880  179.1100  142.4930 O   0  0  0  0  0  0  0  0  0  0  0  0
  181.5820  178.8760  143.0850 C   0  0  0  0  0  0  0  0  0  0  0  0
  182.8710  179.0680  142.4860 N   0  0  0  0  0  2  0  0  0  0  0  0
  184.1300  178.9080  143.1460 C   0  0  0  0  0  0  0  0  0  0  0  0
  180.3470  179.0690  142.2680 C   0  0  1  0  0  3  0  0  0  0  0  0
  179.4830  177.9910  142.4560 O   0  0  0  0  0  1  0  0  0  0  0  0
  179.6410  180.3590  142.6530 C   0  0  0  0  0  2  0  0  0  0  0  0
  179.6080  181.2300  141.5630 O   0  0  0  0  0  1  0  0  0  0  0  0
  189.6790  176.4030  145.5600 N   0  0  0  0  0  2  0  0  0  0  0  0
  191.5660  178.4440  143.1910 N   0  0  0  0  0  0  0  0  0  0  0  0
  190.3530  176.9010  144.4010 C   0  0  1  0  0  3  0  0  0  0  0  0
  190.1900  176.1580  142.7690 S   0  0  0  0  0  0  0  0  0  0  0  0
  191.8140  177.4700  141.0430 C   0  0  0  0  0  0  0  0  0  0  0  0
  192.4110  177.4220  139.9610 O   0  0  0  0  0  0  0  0  0  0  0  0
  191.0290  178.0400  144.4400 C   0  0  0  0  0  3  0  0  0  0  0  0
  191.1850  177.5200  142.1840 C   0  0  0  0  0  0  0  0  0  0  0  0
  1  9  2  0  0  0  0
  1  2  1  0  0  0  0
  2  3  2  0  0  0  0
  3  5  1  0  0  0  0
  4  7  1  0  0  0  0
  4  1  1  0  0  0  0
  6  5  2  0  0  0  0
  7  8  2  0  0  0  0
  8  2  1  0  0  0  0
  9  6  1  0  0  0  0
 10  7  1  0  0  0  0
 12 15  2  0  0  0  0
 13 11  2  0  0  0  0
 14 13  1  0  0  0  0
 14 15  1  0  0  0  0
 15 10  1  0  0  0  0
 16 17  1  1  0  0  0
 16 18  1  0  0  0  0
 16 13  1  0  0  0  0
 19 18  1  0  0  0  0
 20  9  1  0  0  0  0
 21 26  2  0  0  0  0
 22 26  1  0  0  0  0
 22 20  1  6  0  0  0
 23 22  1  0  0  0  0
 24 27  2  0  0  0  0
 25 24  2  0  0  0  0
 27 23  1  0  0  0  0
 27 21  1  0  0  0  0
M  END
>  <MODEL>
1

>  <REMARK>
 VINA RESULT:      -8.0      0.000      0.000
  Name = 
  5 active torsions:
  status: ('A' for Active; 'I' for Inactive)
    1  A    between atoms: C_5  and  C_11
    2  A    between atoms: C_5  and  C_18
    3  A    between atoms: N_7  and  C_13
    4  A    between atoms: C_9  and  N_24
    5  A    between atoms: C_23  and  N_24
                            x       y       z     vdW  Elec       q    Type
                         _______ _______ _______ _____ _____    ______ ____

>  <TORSDO>
F 5

$$$$
=
 OpenBabel11032419493D

 27 29  0  0  1  0  0  0  0  0999 V2000
  186.7210  177.9890  145.1340 C   0  0  0  0  0  0  0  0  0  0  0  0
  185.6790  178.7360  145.6620 C   0  0  0  0  0  0  0  0  0  0  0  0
  185.6760  179.0960  146.9720 N   0  0  0  0  0  0  0  0  0  0  0  0
  186.3870  177.6440  143.5220 S   0  0  0  0  0  0  0  0  0  0  0  0
  186.6990  178.7150  147.7900 C   0  0  0  0  0  3  0  0  0  0  0  0
  187.7700  177.9530  147.2880 C   0  0  0  0  0  3  0  0  0  0  0  0
  184.9210  178.4840  143.5050 C   0  0  0  0  0  0  0  0  0  0  0  0
  184.6540  179.0330  144.7600 C   0  0  0  0  0  3  0  0  0  0  0  0
  187.8000  177.5950  145.9330 C   0  0  0  0  0  0  0  0  0  0  0  0
  184.0860  178.5860  142.3460 N   0  0  0  0  0  2  0  0  0  0  0  0
  181.6920  178.2550  141.0830 O   0  0  0  0  0  0  0  0  0  0  0  0
  185.6690  179.4880  140.8770 O   0  0  0  0  0  0  0  0  0  0  0  0
  182.1920  178.7180  140.0240 C   0  0  0  0  0  0  0  0  0  0  0  0
  183.5630  179.1360  139.9750 N   0  0  0  0  0  2  0  0  0  0  0  0
  184.4900  179.0860  141.0640 C   0  0  0  0  0  0  0  0  0  0  0  0
  181.3400  178.8190  138.8020 C   0  0  1  0  0  3  0  0  0  0  0  0
  180.0200  178.5000  139.1190 O   0  0  0  0  0  1  0  0  0  0  0  0
  181.3980  180.2200  138.2160 C   0  0  0  0  0  2  0  0  0  0  0  0
  180.8630  181.1390  139.1190 O   0  0  0  0  0  1  0  0  0  0  0  0
  188.8790  176.7980  145.4350 N   0  0  0  0  0  2  0  0  0  0  0  0
  191.1980  178.6590  143.3140 N   0  0  0  0  0  0  0  0  0  0  0  0
  189.7690  177.2050  144.3930 C   0  0  1  0  0  3  0  0  0  0  0  0
  189.9330  176.3210  142.8330 S   0  0  0  0  0  0  0  0  0  0  0  0
  191.8670  177.5060  141.3530 C   0  0  0  0  0  0  0  0  0  0  0  0
  192.6680  177.3760  140.4200 O   0  0  0  0  0  0  0  0  0  0  0  0
  190.4230  178.3560  144.4640 C   0  0  0  0  0  3  0  0  0  0  0  0
  191.0250  177.6450  142.3380 C   0  0  0  0  0  0  0  0  0  0  0  0
  1  2  2  0  0  0  0
  1  9  1  0  0  0  0
  2  3  1  0  0  0  0
  3  5  2  0  0  0  0
  4  1  1  0  0  0  0
  6  5  1  0  0  0  0
  7  4  1  0  0  0  0
  7  8  2  0  0  0  0
  8  2  1  0  0  0  0
  9  6  2  0  0  0  0
 10  7  1  0  0  0  0
 12 15  2  0  0  0  0
 13 11  2  0  0  0  0
 14 13  1  0  0  0  0
 14 15  1  0  0  0  0
 15 10  1  0  0  0  0
 16 17  1  1  0  0  0
 16 13  1  0  0  0  0
 18 16  1  0  0  0  0
 18 19  1  0  0  0  0
 20  9  1  0  0  0  0
 21 26  2  0  0  0  0
 22 26  1  0  0  0  0
 22 20  1  6  0  0  0
 23 22  1  0  0  0  0
 24 27  2  0  0  0  0
 25 24  2  0  0  0  0
 27 23  1  0  0  0  0
 27 21  1  0  0  0  0
M  END
>  <MODEL>
2

>  <REMARK>
 VINA RESULT:      -7.8      1.902      2.155
  Name = 
  5 active torsions:
  status: ('A' for Active; 'I' for Inactive)
    1  A    between atoms: C_5  and  C_11
    2  A    between atoms: C_5  and  C_18
    3  A    between atoms: N_7  and  C_13
    4  A    between atoms: C_9  and  N_24
    5  A    between atoms: C_23  and  N_24
                            x       y       z     vdW  Elec       q    Type
                         _______ _______ _______ _____ _____    ______ ____

>  <TORSDO>
F 5

$$$$
=
 OpenBabel11032419493D

 27 29  0  0  1  0  0  0  0  0999 V2000
  187.5080  177.7330  142.3470 C   0  0  0  0  0  0  0  0  0  0  0  0
  187.2510  178.5480  141.2540 C   0  0  0  0  0  0  0  0  0  0  0  0
  186.1690  179.3680  141.2390 N   0  0  0  0  0  0  0  0  0  0  0  0
  188.8620  176.7900  142.0210 S   0  0  0  0  0  0  0  0  0  0  0  0
  185.3100  179.3910  142.3000 C   0  0  0  0  0  3  0  0  0  0  0  0
  185.5390  178.5740  143.4220 C   0  0  0  0  0  3  0  0  0  0  0  0
  189.1280  177.4580  140.4930 C   0  0  0  0  0  0  0  0  0  0  0  0
  188.1560  178.4150  140.1990 C   0  0  0  0  0  3  0  0  0  0  0  0
  186.6650  177.7410  143.4640 C   0  0  0  0  0  0  0  0  0  0  0  0
  190.2070  177.0630  139.6380 N   0  0  0  0  0  2  0  0  0  0  0  0
  191.1530  175.9950  137.3140 O   0  0  0  0  0  0  0  0  0  0  0  0
  191.9800  177.6830  141.0350 O   0  0  0  0  0  0  0  0  0  0  0  0
  192.3320  176.1700  137.7190 C   0  0  0  0  0  0  0  0  0  0  0  0
  192.5940  176.7530  139.0030 N   0  0  0  0  0  2  0  0  0  0  0  0
  191.6030  177.1880  139.9400 C   0  0  0  0  0  0  0  0  0  0  0  0
  193.4700  175.7510  136.8470 C   0  0  1  0  0  3  0  0  0  0  0  0
  194.3050  176.8410  136.6050 O   0  0  0  0  0  1  0  0  0  0  0  0
  194.2670  174.6330  137.4970 C   0  0  0  0  0  2  0  0  0  0  0  0
  195.4370  175.1430  138.0600 O   0  0  0  0  0  1  0  0  0  0  0  0
  186.8770  176.8930  144.5970 N   0  0  0  0  0  2  0  0  0  0  0  0
  188.7070  177.8800  147.5990 N   0  0  0  0  0  2  0  0  0  0  0  0
  187.8850  177.1080  145.5880 C   0  0  0  0  0  0  0  0  0  0  0  0
  189.6410  176.8560  145.2810 S   0  0  0  0  0  0  0  0  0  0  0  0
  191.0040  177.2930  147.5790 C   0  0  0  0  0  0  0  0  0  0  0  0
  192.0550  177.0940  148.2020 O   0  0  0  0  0  0  0  0  0  0  0  0
  187.5870  177.6520  146.7590 C   0  0  0  0  0  3  0  0  0  0  0  0
  189.8970  177.5030  146.9250 C   0  0  0  0  0  0  0  0  0  0  0  0
  1  9  1  0  0  0  0
  2  1  2  0  0  0  0
  3  2  1  0  0  0  0
  3  5  2  0  0  0  0
  4  1  1  0  0  0  0
  5  6  1  0  0  0  0
  6  9  2  0  0  0  0
  7  4  1  0  0  0  0
  8  7  2  0  0  0  0
  8  2  1  0  0  0  0
  9 20  1  0  0  0  0
 10 15  1  0  0  0  0
 10  7  1  0  0  0  0
 11 13  2  0  0  0  0
 13 14  1  0  0  0  0
 14 15  1  0  0  0  0
 15 12  2  0  0  0  0
 16 17  1  1  0  0  0
 16 18  1  0  0  0  0
 16 13  1  0  0  0  0
 18 19  1  0  0  0  0
 20 22  1  0  0  0  0
 22 26  2  0  0  0  0
 23 22  1  0  0  0  0
 23 27  1  0  0  0  0
 24 25  2  0  0  0  0
 26 21  1  0  0  0  0
 27 24  2  0  0  0  0
 27 21  1  0  0  0  0
M  END
>  <MODEL>
3

>  <REMARK>
 VINA RESULT:      -7.4      4.990      8.897
  Name = 
  5 active torsions:
  status: ('A' for Active; 'I' for Inactive)
    1  A    between atoms: C_5  and  C_11
    2  A    between atoms: C_5  and  C_18
    3  A    between atoms: N_7  and  C_13
    4  A    between atoms: C_9  and  N_24
    5  A    between atoms: C_23  and  N_24
                            x       y       z     vdW  Elec       q    Type
                         _______ _______ _______ _____ _____    ______ ____

>  <TORSDO>
F 5

$$$$
=
 OpenBabel11032419493D

 27 29  0  0  1  0  0  0  0  0999 V2000
  188.8480  177.8350  138.8900 C   0  0  0  0  0  0  0  0  0  0  0  0
  190.0510  177.1460  138.8540 C   0  0  0  0  0  0  0  0  0  0  0  0
  190.5940  176.7570  137.6730 N   0  0  0  0  0  0  0  0  0  0  0  0
  188.4130  178.0960  140.4930 S   0  0  0  0  0  0  0  0  0  0  0  0
  189.9530  177.0310  136.4990 C   0  0  0  0  0  3  0  0  0  0  0  0
  188.7290  177.7250  136.4990 C   0  0  0  0  0  3  0  0  0  0  0  0
  189.7880  177.3510  141.1300 C   0  0  0  0  0  0  0  0  0  0  0  0
  190.6040  176.8670  140.1070 C   0  0  0  0  0  3  0  0  0  0  0  0
  188.1680  178.1550  137.7090 C   0  0  0  0  0  0  0  0  0  0  0  0
  190.0430  177.2380  142.5350 N   0  0  0  0  0  2  0  0  0  0  0  0
  191.6410  177.5990  144.7160 O   0  0  0  0  0  0  0  0  0  0  0  0
  188.0280  176.2220  143.1560 O   0  0  0  0  0  0  0  0  0  0  0  0
  190.7550  177.0790  145.4450 C   0  0  0  0  0  0  0  0  0  0  0  0
  189.5190  176.6120  144.8870 N   0  0  0  0  0  2  0  0  0  0  0  0
  189.1510  176.6740  143.5060 C   0  0  0  0  0  0  0  0  0  0  0  0
  191.0090  176.9410  146.9100 C   0  0  1  0  0  3  0  0  0  0  0  0
  189.8210  176.6270  147.5670 O   0  0  0  0  0  1  0  0  0  0  0  0
  192.0420  175.8590  147.1800 C   0  0  0  0  0  2  0  0  0  0  0  0
  192.8150  176.2020  148.2890 O   0  0  0  0  0  1  0  0  0  0  0  0
  186.9100  178.8360  137.7040 N   0  0  0  0  0  2  0  0  0  0  0  0
  183.8880  176.7880  137.5880 N   0  0  0  0  0  0  0  0  0  0  0  0
  185.6540  178.2140  137.9910 C   0  0  1  0  0  3  0  0  0  0  0  0
  184.5270  178.8070  139.2640 S   0  0  0  0  0  0  0  0  0  0  0  0
  182.4060  177.1280  139.4070 C   0  0  0  0  0  0  0  0  0  0  0  0
  181.4640  176.7240  140.0980 O   0  0  0  0  0  0  0  0  0  0  0  0
  185.1830  177.2410  137.2250 C   0  0  0  0  0  3  0  0  0  0  0  0
  183.4000  177.5520  138.6770 C   0  0  0  0  0  0  0  0  0  0  0  0
  1  4  1  0  0  0  0
  2  1  1  0  0  0  0
  2  8  1  0  0  0  0
  3  2  2  0  0  0  0
  4  7  1  0  0  0  0
  5  6  2  0  0  0  0
  5  3  1  0  0  0  0
  6  9  1  0  0  0  0
  7 10  1  0  0  0  0
  8  7  2  0  0  0  0
  9  1  2  0  0  0  0
 10 15  1  0  0  0  0
 11 13  2  0  0  0  0
 12 15  2  0  0  0  0
 13 16  1  0  0  0  0
 14 13  1  0  0  0  0
 15 14  1  0  0  0  0
 16 18  1  0  0  0  0
 16 17  1  1  0  0  0
 18 19  1  0  0  0  0
 20  9  1  0  0  0  0
 21 27  1  0  0  0  0
 22 20  1  6  0  0  0
 22 23  1  0  0  0  0
 24 25  2  0  0  0  0
 26 21  2  0  0  0  0
 26 22  1  0  0  0  0
 27 23  1  0  0  0  0
 27 24  2  0  0  0  0
M  END
>  <MODEL>
4

>  <REMARK>
 VINA RESULT:      -7.3      4.568      9.532
  Name = 
  5 active torsions:
  status: ('A' for Active; 'I' for Inactive)
    1  A    between atoms: C_5  and  C_11
    2  A    between atoms: C_5  and  C_18
    3  A    between atoms: N_7  and  C_13
    4  A    between atoms: C_9  and  N_24
    5  A    between atoms: C_23  and  N_24
                            x       y       z     vdW  Elec       q    Type
                         _______ _______ _______ _____ _____    ______ ____

>  <TORSDO>
F 5

$$$$
=
 OpenBabel11032419493D

 27 29  0  0  1  0  0  0  0  0999 V2000
  188.9280  177.8610  139.2100 C   0  0  0  0  0  0  0  0  0  0  0  0
  190.1410  177.1950  139.3020 C   0  0  0  0  0  0  0  0  0  0  0  0
  190.8110  176.8140  138.1840 N   0  0  0  0  0  0  0  0  0  0  0  0
  188.3240  178.1160  140.7580 S   0  0  0  0  0  0  0  0  0  0  0  0
  190.2900  177.0750  136.9490 C   0  0  0  0  0  3  0  0  0  0  0  0
  189.0600  177.7450  136.8200 C   0  0  0  0  0  3  0  0  0  0  0  0
  189.6390  177.3980  141.5370 C   0  0  0  0  0  0  0  0  0  0  0  0
  190.5660  176.9290  140.6050 C   0  0  0  0  0  3  0  0  0  0  0  0
  188.3690  178.1660  137.9640 C   0  0  0  0  0  0  0  0  0  0  0  0
  189.7490  177.2920  142.9610 N   0  0  0  0  0  2  0  0  0  0  0  0
  191.1480  177.5870  145.2840 O   0  0  0  0  0  0  0  0  0  0  0  0
  187.6220  176.4170  143.3930 O   0  0  0  0  0  0  0  0  0  0  0  0
  190.1640  177.1360  145.9280 C   0  0  0  0  0  0  0  0  0  0  0  0
  188.9600  176.7390  145.2570 N   0  0  0  0  0  2  0  0  0  0  0  0
  188.7320  176.8020  143.8460 C   0  0  0  0  0  0  0  0  0  0  0  0
  190.2650  177.0050  147.4120 C   0  0  1  0  0  3  0  0  0  0  0  0
  191.5880  177.1870  147.8130 O   0  0  0  0  0  1  0  0  0  0  0  0
  189.3790  178.0250  148.1070 C   0  0  0  0  0  2  0  0  0  0  0  0
  188.2100  177.4130  148.5610 O   0  0  0  0  0  1  0  0  0  0  0  0
  187.1050  178.8240  137.8260 N   0  0  0  0  0  2  0  0  0  0  0  0
  184.0890  176.7830  137.5440 N   0  0  0  0  0  0  0  0  0  0  0  0
  185.8400  178.1950  138.0500 C   0  0  1  0  0  3  0  0  0  0  0  0
  184.6680  178.7540  139.2980 S   0  0  0  0  0  0  0  0  0  0  0  0
  182.5430  177.0750  139.3180 C   0  0  0  0  0  0  0  0  0  0  0  0
  181.5760  176.6530  139.9640 O   0  0  0  0  0  0  0  0  0  0  0  0
  185.3960  177.2450  137.2410 C   0  0  0  0  0  3  0  0  0  0  0  0
  183.5620  177.5180  138.6370 C   0  0  0  0  0  0  0  0  0  0  0  0
  1  2  1  0  0  0  0
  1  4  1  0  0  0  0
  2  8  1  0  0  0  0
  3  2  2  0  0  0  0
  4  7  1  0  0  0  0
  5  3  1  0  0  0  0
  6  5  2  0  0  0  0
  6  9  1  0  0  0  0
  7 10  1  0  0  0  0
  8  7  2  0  0  0  0
  9  1  2  0  0  0  0
 10 15  1  0  0  0  0
 11 13  2  0  0  0  0
 12 15  2  0  0  0  0
 13 16  1  0  0  0  0
 14 13  1  0  0  0  0
 15 14  1  0  0  0  0
 16 17  1  1  0  0  0
 16 18  1  0  0  0  0
 18 19  1  0  0  0  0
 20  9  1  0  0  0  0
 21 27  1  0  0  0  0
 22 20  1  6  0  0  0
 22 23  1  0  0  0  0
 24 25  2  0  0  0  0
 26 21  2  0  0  0  0
 26 22  1  0  0  0  0
 27 23  1  0  0  0  0
 27 24  2  0  0  0  0
M  END
>  <MODEL>
5

>  <REMARK>
 VINA RESULT:      -7.3      4.402      9.029
  Name = 
  5 active torsions:
  status: ('A' for Active; 'I' for Inactive)
    1  A    between atoms: C_5  and  C_11
    2  A    between atoms: C_5  and  C_18
    3  A    between atoms: N_7  and  C_13
    4  A    between atoms: C_9  and  N_24
    5  A    between atoms: C_23  and  N_24
                            x       y       z     vdW  Elec       q    Type
                         _______ _______ _______ _____ _____    ______ ____

>  <TORSDO>
F 5

$$$$
=
 OpenBabel11032419493D

 27 29  0  0  1  0  0  0  0  0999 V2000
  188.1240  177.5770  142.1290 C   0  0  0  0  0  0  0  0  0  0  0  0
  189.0440  176.7650  142.7760 C   0  0  0  0  0  0  0  0  0  0  0  0
  188.8870  176.4440  144.0860 N   0  0  0  0  0  0  0  0  0  0  0  0
  188.6450  177.8500  140.5540 S   0  0  0  0  0  0  0  0  0  0  0  0
  187.8210  176.9270  144.7880 C   0  0  0  0  0  3  0  0  0  0  0  0
  186.8710  177.7560  144.1640 C   0  0  0  0  0  3  0  0  0  0  0  0
  190.0320  176.8970  140.7030 C   0  0  0  0  0  0  0  0  0  0  0  0
  190.1260  176.3630  141.9890 C   0  0  0  0  0  3  0  0  0  0  0  0
  187.0060  178.0770  142.8070 C   0  0  0  0  0  0  0  0  0  0  0  0
  190.9670  176.6960  139.6370 N   0  0  0  0  0  2  0  0  0  0  0  0
  193.4810  176.8710  138.5930 O   0  0  0  0  0  0  0  0  0  0  0  0
  189.4970  175.7590  138.0770 O   0  0  0  0  0  0  0  0  0  0  0  0
  193.0650  176.3600  137.5200 C   0  0  0  0  0  0  0  0  0  0  0  0
  191.6900  175.9850  137.3630 N   0  0  0  0  0  2  0  0  0  0  0  0
  190.6670  176.1330  138.3530 C   0  0  0  0  0  0  0  0  0  0  0  0
  194.0240  176.1570  136.3930 C   0  0  1  0  0  3  0  0  0  0  0  0
  194.6800  177.3540  136.1090 O   0  0  0  0  0  1  0  0  0  0  0  0
  195.0450  175.0860  136.7380 C   0  0  0  0  0  2  0  0  0  0  0  0
  196.3310  175.5380  136.4450 O   0  0  0  0  0  1  0  0  0  0  0  0
  186.0510  178.9430  142.1850 N   0  0  0  0  0  2  0  0  0  0  0  0
  182.4560  178.5360  141.6870 N   0  0  0  0  0  0  0  0  0  0  0  0
  184.6370  178.8490  142.3690 C   0  0  1  0  0  3  0  0  0  0  0  0
  183.8000  179.3730  143.8750 S   0  0  0  0  0  0  0  0  0  0  0  0
  181.1610  178.8070  143.6550 C   0  0  0  0  0  0  0  0  0  0  0  0
  180.0980  178.6220  144.2600 O   0  0  0  0  0  0  0  0  0  0  0  0
  183.8390  178.4990  141.3710 C   0  0  0  0  0  3  0  0  0  0  0  0
  182.2800  179.0000  143.0160 C   0  0  0  0  0  0  0  0  0  0  0  0
  1  2  2  0  0  0  0
  1  9  1  0  0  0  0
  2  3  1  0  0  0  0
  3  5  2  0  0  0  0
  4  7  1  0  0  0  0
  4  1  1  0  0  0  0
  6  5  1  0  0  0  0
  7  8  2  0  0  0  0
  8  2  1  0  0  0  0
  9  6  2  0  0  0  0
 10  7  1  0  0  0  0
 12 15  2  0  0  0  0
 13 11  2  0  0  0  0
 14 13  1  0  0  0  0
 14 15  1  0  0  0  0
 15 10  1  0  0  0  0
 16 17  1  1  0  0  0
 16 18  1  0  0  0  0
 16 13  1  0  0  0  0
 19 18  1  0  0  0  0
 20  9  1  0  0  0  0
 21 27  1  0  0  0  0
 22 20  1  6  0  0  0
 22 23  1  0  0  0  0
 24 25  2  0  0  0  0
 26 21  2  0  0  0  0
 26 22  1  0  0  0  0
 27 24  2  0  0  0  0
 27 23  1  0  0  0  0
M  END
>  <MODEL>
6

>  <REMARK>
 VINA RESULT:      -7.2      3.289      9.960
  Name = 
  5 active torsions:
  status: ('A' for Active; 'I' for Inactive)
    1  A    between atoms: C_5  and  C_11
    2  A    between atoms: C_5  and  C_18
    3  A    between atoms: N_7  and  C_13
    4  A    between atoms: C_9  and  N_24
    5  A    between atoms: C_23  and  N_24
                            x       y       z     vdW  Elec       q    Type
                         _______ _______ _______ _____ _____    ______ ____

>  <TORSDO>
F 5

$$$$
=
 OpenBabel11032419493D

 27 29  0  0  1  0  0  0  0  0999 V2000
  182.8470  178.7690  142.0050 C   0  0  0  0  0  0  0  0  0  0  0  0
  182.3520  178.8340  143.2990 C   0  0  0  0  0  0  0  0  0  0  0  0
  181.0400  179.0970  143.5290 N   0  0  0  0  0  0  0  0  0  0  0  0
  184.5080  178.5120  142.0650 S   0  0  0  0  0  0  0  0  0  0  0  0
  180.1900  179.3110  142.4830 C   0  0  0  0  0  3  0  0  0  0  0  0
  180.6590  179.2570  141.1580 C   0  0  0  0  0  3  0  0  0  0  0  0
  184.5750  178.4530  143.7520 C   0  0  0  0  0  0  0  0  0  0  0  0
  183.3080  178.6520  144.3020 C   0  0  0  0  0  3  0  0  0  0  0  0
  182.0060  178.9630  140.9040 C   0  0  0  0  0  0  0  0  0  0  0  0
  185.7870  178.2390  144.4840 N   0  0  0  0  0  2  0  0  0  0  0  0
  188.4030  177.4780  144.6160 O   0  0  0  0  0  0  0  0  0  0  0  0
  185.0160  178.8880  146.5960 O   0  0  0  0  0  0  0  0  0  0  0  0
  188.4070  177.7240  145.8520 C   0  0  0  0  0  0  0  0  0  0  0  0
  187.2300  178.2080  146.5130 N   0  0  0  0  0  2  0  0  0  0  0  0
  185.9680  178.4630  145.8890 C   0  0  0  0  0  0  0  0  0  0  0  0
  189.6580  177.4930  146.6340 C   0  0  1  0  0  3  0  0  0  0  0  0
  189.4710  176.4350  147.5220 O   0  0  0  0  0  1  0  0  0  0  0  0
  190.8240  177.1840  145.7110 C   0  0  0  0  0  2  0  0  0  0  0  0
  191.9400  176.8080  146.4590 O   0  0  0  0  0  1  0  0  0  0  0  0
  182.4820  178.9360  139.5550 N   0  0  0  0  0  2  0  0  0  0  0  0
  184.3700  176.6810  137.3890 N   0  0  0  0  0  0  0  0  0  0  0  0
  183.0480  177.7850  138.9220 C   0  0  1  0  0  3  0  0  0  0  0  0
  182.4370  176.1120  139.1880 S   0  0  0  0  0  0  0  0  0  0  0  0
  184.0090  174.3780  137.8250 C   0  0  0  0  0  0  0  0  0  0  0  0
  184.3850  173.2050  137.7150 O   0  0  0  0  0  0  0  0  0  0  0  0
  183.9720  177.9080  137.9800 C   0  0  0  0  0  3  0  0  0  0  0  0
  183.6140  175.6150  137.9410 C   0  0  0  0  0  0  0  0  0  0  0  0
  1  4  1  0  0  0  0
  1  2  1  0  0  0  0
  2  3  2  0  0  0  0
  2  8  1  0  0  0  0
  4  7  1  0  0  0  0
  5  3  1  0  0  0  0
  6  5  2  0  0  0  0
  7  8  2  0  0  0  0
  7 10  1  0  0  0  0
  9  6  1  0  0  0  0
  9  1  2  0  0  0  0
 10 15  1  0  0  0  0
 11 13  2  0  0  0  0
 13 14  1  0  0  0  0
 13 16  1  0  0  0  0
 15 14  1  0  0  0  0
 15 12  2  0  0  0  0
 16 17  1  1  0  0  0
 18 19  1  0  0  0  0
 18 16  1  0  0  0  0
 20  9  1  0  0  0  0
 21 27  1  0  0  0  0
 21 26  2  0  0  0  0
 22 23  1  0  0  0  0
 22 20  1  6  0  0  0
 24 27  2  0  0  0  0
 25 24  2  0  0  0  0
 26 22  1  0  0  0  0
 27 23  1  0  0  0  0
M  END
>  <MODEL>
7

>  <REMARK>
 VINA RESULT:      -7.1      4.104      8.400
  Name = 
  5 active torsions:
  status: ('A' for Active; 'I' for Inactive)
    1  A    between atoms: C_5  and  C_11
    2  A    between atoms: C_5  and  C_18
    3  A    between atoms: N_7  and  C_13
    4  A    between atoms: C_9  and  N_24
    5  A    between atoms: C_23  and  N_24
                            x       y       z     vdW  Elec       q    Type
                         _______ _______ _______ _____ _____    ______ ____

>  <TORSDO>
F 5

$$$$
=
 OpenBabel11032419493D

 27 29  0  0  1  0  0  0  0  0999 V2000
  185.6570  178.3000  144.2870 C   0  0  0  0  0  0  0  0  0  0  0  0
  184.4230  178.7450  144.7370 C   0  0  0  0  0  0  0  0  0  0  0  0
  184.2000  178.9530  146.0600 N   0  0  0  0  0  0  0  0  0  0  0  0
  185.5810  178.0650  142.6230 S   0  0  0  0  0  0  0  0  0  0  0  0
  185.1910  178.7160  146.9690 C   0  0  0  0  0  3  0  0  0  0  0  0
  186.4530  178.2610  146.5470 C   0  0  0  0  0  3  0  0  0  0  0  0
  183.9750  178.5670  142.4880 C   0  0  0  0  0  0  0  0  0  0  0  0
  183.4590  178.9090  143.7390 C   0  0  0  0  0  3  0  0  0  0  0  0
  186.7060  178.0640  145.1820 C   0  0  0  0  0  0  0  0  0  0  0  0
  183.2650  178.6100  141.2450 N   0  0  0  0  0  2  0  0  0  0  0  0
  181.0840  178.0380  139.7110 O   0  0  0  0  0  0  0  0  0  0  0  0
  184.8740  179.7530  139.9860 O   0  0  0  0  0  0  0  0  0  0  0  0
  181.6350  178.5980  138.7270 C   0  0  0  0  0  0  0  0  0  0  0  0
  182.9400  179.1820  138.8430 N   0  0  0  0  0  2  0  0  0  0  0  0
  183.7410  179.2030  140.0290 C   0  0  0  0  0  0  0  0  0  0  0  0
  180.9160  178.6410  137.4180 C   0  0  1  0  0  3  0  0  0  0  0  0
  181.7160  179.2620  136.4600 O   0  0  0  0  0  1  0  0  0  0  0  0
  180.5590  177.2390  136.9520 C   0  0  0  0  0  2  0  0  0  0  0  0
  181.7160  176.4780  136.7940 O   0  0  0  0  0  1  0  0  0  0  0  0
  187.9840  177.5750  144.7620 N   0  0  0  0  0  2  0  0  0  0  0  0
  189.9970  176.8390  147.7180 N   0  0  0  0  0  2  0  0  0  0  0  0
  189.0280  177.1770  145.6540 C   0  0  0  0  0  0  0  0  0  0  0  0
  190.7140  176.8460  145.1140 S   0  0  0  0  0  0  0  0  0  0  0  0
  192.1660  176.0070  147.2410 C   0  0  0  0  0  0  0  0  0  0  0  0
  193.1780  175.4030  147.6170 O   0  0  0  0  0  0  0  0  0  0  0  0
  188.8420  177.1720  146.9660 C   0  0  0  0  0  3  0  0  0  0  0  0
  191.0980  176.6410  146.8460 C   0  0  0  0  0  0  0  0  0  0  0  0
  1  2  2  0  0  0  0
  1  9  1  0  0  0  0
  2  3  1  0  0  0  0
  3  5  2  0  0  0  0
  4  1  1  0  0  0  0
  6  5  1  0  0  0  0
  7  4  1  0  0  0  0
  7  8  2  0  0  0  0
  8  2  1  0  0  0  0
  9  6  2  0  0  0  0
 10  7  1  0  0  0  0
 12 15  2  0  0  0  0
 13 14  1  0  0  0  0
 13 11  2  0  0  0  0
 14 15  1  0  0  0  0
 15 10  1  0  0  0  0
 16 17  1  6  0  0  0
 16 13  1  0  0  0  0
 18 16  1  0  0  0  0
 19 18  1  0  0  0  0
 20  9  1  0  0  0  0
 20 22  1  0  0  0  0
 22 26  2  0  0  0  0
 23 22  1  0  0  0  0
 23 27  1  0  0  0  0
 24 25  2  0  0  0  0
 26 21  1  0  0  0  0
 27 24  2  0  0  0  0
 27 21  1  0  0  0  0
M  END
>  <MODEL>
8

>  <REMARK>
 VINA RESULT:      -7.0      3.310      4.369
  Name = 
  5 active torsions:
  status: ('A' for Active; 'I' for Inactive)
    1  A    between atoms: C_5  and  C_11
    2  A    between atoms: C_5  and  C_18
    3  A    between atoms: N_7  and  C_13
    4  A    between atoms: C_9  and  N_24
    5  A    between atoms: C_23  and  N_24
                            x       y       z     vdW  Elec       q    Type
                         _______ _______ _______ _____ _____    ______ ____

>  <TORSDO>
F 5

$$$$
=
 OpenBabel11032419493D

 27 29  0  0  1  0  0  0  0  0999 V2000
  184.5080  178.7350  140.7900 C   0  0  0  0  0  0  0  0  0  0  0  0
  183.5040  178.6190  141.7400 C   0  0  0  0  0  0  0  0  0  0  0  0
  182.1970  178.7100  141.3850 N   0  0  0  0  0  0  0  0  0  0  0  0
  186.0010  178.6580  141.5590 S   0  0  0  0  0  0  0  0  0  0  0  0
  181.8540  178.9300  140.0820 C   0  0  0  0  0  3  0  0  0  0  0  0
  182.8470  179.0580  139.0930 C   0  0  0  0  0  3  0  0  0  0  0  0
  185.3490  178.4430  143.1020 C   0  0  0  0  0  0  0  0  0  0  0  0
  183.9540  178.4470  143.0510 C   0  0  0  0  0  3  0  0  0  0  0  0
  184.1990  178.9400  139.4410 C   0  0  0  0  0  0  0  0  0  0  0  0
  186.1490  178.2950  144.2810 N   0  0  0  0  0  2  0  0  0  0  0  0
  188.4820  177.6210  145.5230 O   0  0  0  0  0  0  0  0  0  0  0  0
  184.5610  179.0000  145.8490 O   0  0  0  0  0  0  0  0  0  0  0  0
  187.9680  177.9130  146.6350 C   0  0  0  0  0  0  0  0  0  0  0  0
  186.6170  178.3860  146.7250 N   0  0  0  0  0  2  0  0  0  0  0  0
  185.7260  178.5780  145.6210 C   0  0  0  0  0  0  0  0  0  0  0  0
  188.7820  177.7510  147.8770 C   0  0  1  0  0  3  0  0  0  0  0  0
  187.9450  177.4930  148.9610 O   0  0  0  0  0  1  0  0  0  0  0  0
  189.7810  176.6160  147.7240 C   0  0  0  0  0  2  0  0  0  0  0  0
  191.0790  177.1250  147.6720 O   0  0  0  0  0  1  0  0  0  0  0  0
  185.2050  179.0970  138.4350 N   0  0  0  0  0  2  0  0  0  0  0  0
  186.2210  175.9690  136.8470 N   0  0  0  0  0  0  0  0  0  0  0  0
  185.9550  178.0190  137.8680 C   0  0  1  0  0  3  0  0  0  0  0  0
  187.7360  177.8440  138.0670 S   0  0  0  0  0  0  0  0  0  0  0  0
  188.5670  175.6920  136.6490 C   0  0  0  0  0  0  0  0  0  0  0  0
  189.5280  175.1270  136.1110 O   0  0  0  0  0  0  0  0  0  0  0  0
  185.3470  176.9990  137.2800 C   0  0  0  0  0  3  0  0  0  0  0  0
  187.5540  176.2860  137.2130 C   0  0  0  0  0  0  0  0  0  0  0  0
  1  4  1  0  0  0  0
  1  2  1  0  0  0  0
  2  8  1  0  0  0  0
  3  2  2  0  0  0  0
  4  7  1  0  0  0  0
  5  3  1  0  0  0  0
  6  9  1  0  0  0  0
  6  5  2  0  0  0  0
  7 10  1  0  0  0  0
  8  7  2  0  0  0  0
  9  1  2  0  0  0  0
 10 15  1  0  0  0  0
 11 13  2  0  0  0  0
 13 14  1  0  0  0  0
 13 16  1  0  0  0  0
 15 12  2  0  0  0  0
 15 14  1  0  0  0  0
 16 17  1  1  0  0  0
 18 16  1  0  0  0  0
 19 18  1  0  0  0  0
 20  9  1  0  0  0  0
 21 27  1  0  0  0  0
 21 26  2  0  0  0  0
 22 23  1  0  0  0  0
 22 20  1  1  0  0  0
 24 27  2  0  0  0  0
 25 24  2  0  0  0  0
 26 22  1  0  0  0  0
 27 23  1  0  0  0  0
M  END
>  <MODEL>
9

>  <REMARK>
 VINA RESULT:      -7.0      4.260      7.795
  Name = 
  5 active torsions:
  status: ('A' for Active; 'I' for Inactive)
    1  A    between atoms: C_5  and  C_11
    2  A    between atoms: C_5  and  C_18
    3  A    between atoms: N_7  and  C_13
    4  A    between atoms: C_9  and  N_24
    5  A    between atoms: C_23  and  N_24
                            x       y       z     vdW  Elec       q    Type
                         _______ _______ _______ _____ _____    ______ ____

>  <TORSDO>
F 5

$$$$
