=
 OpenBabel11042413083D

 32 36  0  0  1  0  0  0  0  0999 V2000
  190.2510  178.2490  144.2930 C   0  0  0  0  0  2  0  0  0  0  0  0
  190.1340  177.4540  141.8580 C   0  0  2  0  0  3  0  0  0  0  0  0
  188.7300  176.3440  143.6010 C   0  0  0  0  0  2  0  0  0  0  0  0
  190.5050  178.5920  142.8230 C   0  0  0  0  0  2  0  0  0  0  0  0
  188.9910  177.5190  144.4440 N   0  0  0  0  0  0  0  0  0  0  0  0
  189.8350  176.1340  142.5680 C   0  0  0  0  0  2  0  0  0  0  0  0
  186.7380  178.1350  145.3130 C   0  0  0  0  0  0  0  0  0  0  0  0
  186.1770  178.1150  143.9860 N   0  0  0  0  0  0  0  0  0  0  0  0
  188.2430  178.0770  149.1910 F   0  0  0  0  0  0  0  0  0  0  0  0
  185.9040  178.4370  146.4100 C   0  0  0  0  0  0  0  0  0  0  0  0
  188.5860  177.8020  146.8490 C   0  0  0  0  0  3  0  0  0  0  0  0
  184.0150  178.7290  144.8520 C   0  0  0  0  0  0  0  0  0  0  0  0
  184.4170  178.3440  142.3320 C   0  0  0  0  0  2  0  0  0  0  0  0
  182.7690  179.0090  144.6230 N   0  0  0  0  0  0  0  0  0  0  0  0
  186.4120  178.4200  147.7090 C   0  0  0  0  0  3  0  0  0  0  0  0
  182.2140  179.0030  143.2990 C   0  0  0  0  0  3  0  0  0  0  0  0
  184.9280  178.3860  143.7420 C   0  0  0  0  0  0  0  0  0  0  0  0
  188.0990  177.8230  145.5310 C   0  0  0  0  0  0  0  0  0  0  0  0
  184.5260  178.7470  146.1860 N   0  0  0  0  0  2  0  0  0  0  0  0
  187.7510  178.1000  147.9290 C   0  0  0  0  0  0  0  0  0  0  0  0
  182.9580  178.7010  142.2300 C   0  0  0  0  0  3  0  0  0  0  0  0
  192.1720  176.7300  138.9380 N   0  0  0  0  0  0  0  0  0  0  0  0
  193.1140  177.2470  139.7490 C   0  0  0  0  0  3  0  0  0  0  0  0
  190.9910  176.7260  139.5750 C   0  0  0  0  0  3  0  0  0  0  0  0
  192.5340  177.6080  140.9520 C   0  0  0  0  0  3  0  0  0  0  0  0
  191.1940  177.2730  140.8230 C   0  0  0  0  0  0  0  0  0  0  0  0
  192.4100  176.2020  137.6070 C   0  0  0  0  0  2  0  0  0  0  0  0
  193.8220  175.9050  137.4430 N   0  0  0  0  0  2  0  0  0  0  0  0
  193.9600  174.4640  137.5530 C   0  0  0  0  0  2  0  0  0  0  0  0
  196.0940  174.9640  138.4810 O   0  0  0  0  0  0  0  0  0  0  0  0
  195.1520  174.1370  138.3810 C   0  0  0  0  0  0  0  0  0  0  0  0
  195.2070  172.9380  139.0770 O   0  0  0  0  0  1  0  0  0  0  0  0
  1  5  1  0  0  0  0
  2 26  1  6  0  0  0
  2  6  1  0  0  0  0
  2  4  1  0  0  0  0
  3  5  1  0  0  0  0
  4  1  1  0  0  0  0
  5 18  1  0  0  0  0
  6  3  1  0  0  0  0
  7 18  2  0  0  0  0
  7 10  1  0  0  0  0
  8  7  1  0  0  0  0
 10 15  2  0  0  0  0
 11 20  2  0  0  0  0
 12 19  1  0  0  0  0
 13 17  1  0  0  0  0
 14 12  2  0  0  0  0
 15 20  1  0  0  0  0
 16 14  1  0  0  0  0
 17  8  2  0  0  0  0
 17 12  1  0  0  0  0
 18 11  1  0  0  0  0
 19 10  1  0  0  0  0
 20  9  1  0  0  0  0
 21 13  1  0  0  0  0
 21 16  2  0  0  0  0
 22 24  1  0  0  0  0
 22 23  1  0  0  0  0
 23 25  2  0  0  0  0
 24 26  2  0  0  0  0
 26 25  1  0  0  0  0
 27 22  1  0  0  0  0
 28 29  1  0  0  0  0
 28 27  1  0  0  0  0
 29 31  1  0  0  0  0
 31 30  2  0  0  0  0
 31 32  1  0  0  0  0
M  END
>  <MODEL>
1

>  <REMARK>
 VINA RESULT:      -9.7      0.000      0.000
  Name = 
  6 active torsions:
  status: ('A' for Active; 'I' for Inactive)
    1  A    between atoms: N_8  and  C_9
    2  A    between atoms: N_8  and  C_14
    3  A    between atoms: C_9  and  C_28
    4  A    between atoms: N_10  and  C_14
    5  A    between atoms: C_17  and  C_31
    6  A    between atoms: C_20  and  N_24
                            x       y       z     vdW  Elec       q    Type
                         _______ _______ _______ _____ _____    ______ ____

>  <TORSDO>
F 6

$$$$
=
 OpenBabel11042413083D

 32 36  0  0  1  0  0  0  0  0999 V2000
  189.4830  178.6130  142.8600 C   0  0  0  0  0  2  0  0  0  0  0  0
  189.5120  176.8360  141.0120 C   0  0  2  0  0  3  0  0  0  0  0  0
  189.6430  176.1430  143.4090 C   0  0  0  0  0  2  0  0  0  0  0  0
  189.1470  178.2760  141.4040 C   0  0  0  0  0  2  0  0  0  0  0  0
  189.1540  177.4890  143.7390 N   0  0  0  0  0  0  0  0  0  0  0  0
  190.3610  176.1190  142.0620 C   0  0  0  0  0  2  0  0  0  0  0  0
  187.1560  178.0550  145.1180 C   0  0  0  0  0  0  0  0  0  0  0  0
  186.3200  178.1310  143.9470 N   0  0  0  0  0  0  0  0  0  0  0  0
  189.4650  177.7190  148.5620 F   0  0  0  0  0  0  0  0  0  0  0  0
  186.5860  178.2850  146.3880 C   0  0  0  0  0  0  0  0  0  0  0  0
  189.2860  177.6060  146.1890 C   0  0  0  0  0  3  0  0  0  0  0  0
  184.4110  178.6950  145.3020 C   0  0  0  0  0  0  0  0  0  0  0  0
  184.2480  178.4850  142.7350 C   0  0  0  0  0  2  0  0  0  0  0  0
  183.1510  178.9970  145.3690 N   0  0  0  0  0  0  0  0  0  0  0  0
  187.3640  178.1740  147.5410 C   0  0  0  0  0  3  0  0  0  0  0  0
  182.3220  179.0870  144.2010 C   0  0  0  0  0  3  0  0  0  0  0  0
  185.0540  178.4250  143.9990 C   0  0  0  0  0  0  0  0  0  0  0  0
  188.5250  177.7220  145.0130 C   0  0  0  0  0  0  0  0  0  0  0  0
  185.1990  178.6170  146.4910 N   0  0  0  0  0  2  0  0  0  0  0  0
  188.7120  177.8320  147.4420 C   0  0  0  0  0  0  0  0  0  0  0  0
  182.8090  178.8560  142.9780 C   0  0  0  0  0  3  0  0  0  0  0  0
  191.7490  176.6830  138.1520 N   0  0  0  0  0  0  0  0  0  0  0  0
  190.5760  176.8480  137.5130 C   0  0  0  0  0  3  0  0  0  0  0  0
  191.5350  176.6630  139.4770 C   0  0  0  0  0  3  0  0  0  0  0  0
  189.5550  176.9250  138.4440 C   0  0  0  0  0  3  0  0  0  0  0  0
  190.1800  176.8050  139.6770 C   0  0  0  0  0  0  0  0  0  0  0  0
  193.0490  176.6020  137.5110 C   0  0  0  0  0  2  0  0  0  0  0  0
  194.0280  176.0850  138.4510 N   0  0  0  0  0  2  0  0  0  0  0  0
  194.4970  174.8220  137.9130 C   0  0  0  0  0  2  0  0  0  0  0  0
  196.1070  174.8790  139.6650 O   0  0  0  0  0  1  0  0  0  0  0  0
  195.4150  174.1730  138.8870 C   0  0  0  0  0  0  0  0  0  0  0  0
  195.4800  172.7890  138.9660 O   0  0  0  0  0  0  0  0  0  0  0  0
  1  5  1  0  0  0  0
  2 26  1  6  0  0  0
  2  4  1  0  0  0  0
  2  6  1  0  0  0  0
  3  5  1  0  0  0  0
  4  1  1  0  0  0  0
  5 18  1  0  0  0  0
  6  3  1  0  0  0  0
  7 10  1  0  0  0  0
  8 17  2  0  0  0  0
  8  7  1  0  0  0  0
 10 19  1  0  0  0  0
 10 15  2  0  0  0  0
 11 20  2  0  0  0  0
 12 14  2  0  0  0  0
 12 19  1  0  0  0  0
 13 21  1  0  0  0  0
 13 17  1  0  0  0  0
 16 14  1  0  0  0  0
 17 12  1  0  0  0  0
 18  7  2  0  0  0  0
 18 11  1  0  0  0  0
 20 15  1  0  0  0  0
 20  9  1  0  0  0  0
 21 16  2  0  0  0  0
 22 24  1  0  0  0  0
 23 22  1  0  0  0  0
 23 25  2  0  0  0  0
 24 26  2  0  0  0  0
 25 26  1  0  0  0  0
 27 22  1  0  0  0  0
 27 28  1  0  0  0  0
 29 28  1  0  0  0  0
 29 31  1  0  0  0  0
 31 32  2  0  0  0  0
 31 30  1  0  0  0  0
M  END
>  <MODEL>
2

>  <REMARK>
 VINA RESULT:      -9.6      0.962      1.310
  Name = 
  6 active torsions:
  status: ('A' for Active; 'I' for Inactive)
    1  A    between atoms: N_8  and  C_9
    2  A    between atoms: N_8  and  C_14
    3  A    between atoms: C_9  and  C_28
    4  A    between atoms: N_10  and  C_14
    5  A    between atoms: C_17  and  C_31
    6  A    between atoms: C_20  and  N_24
                            x       y       z     vdW  Elec       q    Type
                         _______ _______ _______ _____ _____    ______ ____

>  <TORSDO>
F 6

$$$$
=
 OpenBabel11042413083D

 32 36  0  0  1  0  0  0  0  0999 V2000
  189.2670  177.9980  142.5550 C   0  0  0  0  0  2  0  0  0  0  0  0
  190.4940  176.5950  140.7950 C   0  0  2  0  0  3  0  0  0  0  0  0
  191.5720  177.0430  143.0040 C   0  0  0  0  0  2  0  0  0  0  0  0
  189.1460  177.1360  141.2950 C   0  0  0  0  0  2  0  0  0  0  0  0
  190.2360  177.4170  143.4870 N   0  0  0  0  0  0  0  0  0  0  0  0
  191.6980  177.2280  141.4940 C   0  0  0  0  0  2  0  0  0  0  0  0
  188.6750  177.6780  145.4130 C   0  0  0  0  0  0  0  0  0  0  0  0
  187.5730  177.9680  144.5320 N   0  0  0  0  0  0  0  0  0  0  0  0
  191.7680  176.7090  148.0220 F   0  0  0  0  0  0  0  0  0  0  0  0
  188.4550  177.6480  146.8070 C   0  0  0  0  0  0  0  0  0  0  0  0
  190.9890  177.0570  145.7970 C   0  0  0  0  0  3  0  0  0  0  0  0
  186.0920  178.2320  146.4120 C   0  0  0  0  0  0  0  0  0  0  0  0
  185.2760  178.5230  143.9810 C   0  0  0  0  0  2  0  0  0  0  0  0
  184.9020  178.4980  146.8560 N   0  0  0  0  0  0  0  0  0  0  0  0
  189.4940  177.3260  147.6790 C   0  0  0  0  0  3  0  0  0  0  0  0
  183.8070  178.8020  145.9780 C   0  0  0  0  0  3  0  0  0  0  0  0
  186.3740  178.2290  144.9620 C   0  0  0  0  0  0  0  0  0  0  0  0
  189.9600  177.3890  144.9000 C   0  0  0  0  0  0  0  0  0  0  0  0
  187.1520  177.9340  147.3220 N   0  0  0  0  0  2  0  0  0  0  0  0
  190.7600  177.0280  147.1750 C   0  0  0  0  0  0  0  0  0  0  0  0
  183.9600  178.8190  144.6500 C   0  0  0  0  0  3  0  0  0  0  0  0
  190.0860  177.2190  137.2380 N   0  0  0  0  0  0  0  0  0  0  0  0
  191.3220  176.6840  137.2340 C   0  0  0  0  0  3  0  0  0  0  0  0
  189.6210  177.2530  138.4970 C   0  0  0  0  0  3  0  0  0  0  0  0
  191.6880  176.3700  138.5300 C   0  0  0  0  0  3  0  0  0  0  0  0
  190.6040  176.7380  139.3130 C   0  0  0  0  0  0  0  0  0  0  0  0
  189.3480  177.6330  136.0590 C   0  0  0  0  0  2  0  0  0  0  0  0
  188.3640  178.6370  136.4250 N   0  0  0  0  0  2  0  0  0  0  0  0
  187.0760  178.1410  135.9750 C   0  0  0  0  0  2  0  0  0  0  0  0
  185.6140  176.7100  137.1910 O   0  0  0  0  0  0  0  0  0  0  0  0
  186.2310  177.8050  137.1520 C   0  0  0  0  0  0  0  0  0  0  0  0
  186.1550  178.6820  138.2250 O   0  0  0  0  0  1  0  0  0  0  0  0
  1  5  1  0  0  0  0
  2 26  1  6  0  0  0
  2  4  1  0  0  0  0
  2  6  1  0  0  0  0
  3  5  1  0  0  0  0
  4  1  1  0  0  0  0
  5 18  1  0  0  0  0
  6  3  1  0  0  0  0
  7 10  1  0  0  0  0
  8 17  2  0  0  0  0
  8  7  1  0  0  0  0
 10 19  1  0  0  0  0
 10 15  2  0  0  0  0
 11 20  2  0  0  0  0
 12 14  2  0  0  0  0
 12 19  1  0  0  0  0
 13 21  1  0  0  0  0
 13 17  1  0  0  0  0
 16 14  1  0  0  0  0
 17 12  1  0  0  0  0
 18  7  2  0  0  0  0
 18 11  1  0  0  0  0
 20 15  1  0  0  0  0
 20  9  1  0  0  0  0
 21 16  2  0  0  0  0
 22 24  1  0  0  0  0
 23 22  1  0  0  0  0
 23 25  2  0  0  0  0
 24 26  2  0  0  0  0
 25 26  1  0  0  0  0
 27 28  1  0  0  0  0
 27 22  1  0  0  0  0
 29 28  1  0  0  0  0
 29 31  1  0  0  0  0
 31 30  2  0  0  0  0
 31 32  1  0  0  0  0
M  END
>  <MODEL>
3

>  <REMARK>
 VINA RESULT:      -9.0      3.480      4.377
  Name = 
  6 active torsions:
  status: ('A' for Active; 'I' for Inactive)
    1  A    between atoms: N_8  and  C_9
    2  A    between atoms: N_8  and  C_14
    3  A    between atoms: C_9  and  C_28
    4  A    between atoms: N_10  and  C_14
    5  A    between atoms: C_17  and  C_31
    6  A    between atoms: C_20  and  N_24
                            x       y       z     vdW  Elec       q    Type
                         _______ _______ _______ _____ _____    ______ ____

>  <TORSDO>
F 6

$$$$
=
 OpenBabel11042413083D

 32 36  0  0  1  0  0  0  0  0999 V2000
  189.4260  178.5340  142.2900 C   0  0  0  0  0  2  0  0  0  0  0  0
  189.3230  176.9130  140.3060 C   0  0  2  0  0  3  0  0  0  0  0  0
  190.3990  176.1980  142.4450 C   0  0  0  0  0  2  0  0  0  0  0  0
  188.7390  178.1700  140.9710 C   0  0  0  0  0  2  0  0  0  0  0  0
  189.7070  177.3300  143.0760 N   0  0  0  0  0  0  0  0  0  0  0  0
  190.6230  176.4340  140.9530 C   0  0  0  0  0  2  0  0  0  0  0  0
  188.2280  177.6390  145.0580 C   0  0  0  0  0  0  0  0  0  0  0  0
  187.0970  177.9400  144.2180 N   0  0  0  0  0  0  0  0  0  0  0  0
  191.4040  176.6430  147.5540 F   0  0  0  0  0  0  0  0  0  0  0  0
  188.0620  177.6280  146.4590 C   0  0  0  0  0  0  0  0  0  0  0  0
  190.5440  176.9810  145.3580 C   0  0  0  0  0  3  0  0  0  0  0  0
  185.6960  178.2500  146.1510 C   0  0  0  0  0  0  0  0  0  0  0  0
  184.7910  178.5300  143.7510 C   0  0  0  0  0  2  0  0  0  0  0  0
  184.5290  178.5420  146.6390 N   0  0  0  0  0  0  0  0  0  0  0  0
  189.1300  177.2960  147.2940 C   0  0  0  0  0  3  0  0  0  0  0  0
  183.4070  178.8560  145.8010 C   0  0  0  0  0  3  0  0  0  0  0  0
  185.9200  178.2270  144.6910 C   0  0  0  0  0  0  0  0  0  0  0  0
  189.4860  177.3220  144.4980 C   0  0  0  0  0  0  0  0  0  0  0  0
  186.7860  177.9430  147.0220 N   0  0  0  0  0  2  0  0  0  0  0  0
  190.3690  176.9700  146.7440 C   0  0  0  0  0  0  0  0  0  0  0  0
  183.5080  178.8570  144.4680 C   0  0  0  0  0  3  0  0  0  0  0  0
  190.1670  176.8250  136.7730 N   0  0  0  0  0  0  0  0  0  0  0  0
  189.4330  177.9520  136.8020 C   0  0  0  0  0  3  0  0  0  0  0  0
  190.2350  176.3060  138.0090 C   0  0  0  0  0  3  0  0  0  0  0  0
  188.9920  178.1770  138.0940 C   0  0  0  0  0  3  0  0  0  0  0  0
  189.5060  177.1270  138.8400 C   0  0  0  0  0  0  0  0  0  0  0  0
  190.8340  176.2880  135.6000 C   0  0  0  0  0  2  0  0  0  0  0  0
  191.9090  175.4010  136.0100 N   0  0  0  0  0  2  0  0  0  0  0  0
  193.0930  175.8170  135.2810 C   0  0  0  0  0  2  0  0  0  0  0  0
  193.9760  176.1910  137.4600 O   0  0  0  0  0  1  0  0  0  0  0  0
  194.0800  176.4070  136.2250 C   0  0  0  0  0  0  0  0  0  0  0  0
  195.1390  177.1620  135.7400 O   0  0  0  0  0  0  0  0  0  0  0  0
  1  5  1  0  0  0  0
  2 26  1  6  0  0  0
  2  6  1  0  0  0  0
  2  4  1  0  0  0  0
  3  5  1  0  0  0  0
  4  1  1  0  0  0  0
  5 18  1  0  0  0  0
  6  3  1  0  0  0  0
  7 10  1  0  0  0  0
  8 17  2  0  0  0  0
  8  7  1  0  0  0  0
 10 19  1  0  0  0  0
 10 15  2  0  0  0  0
 11 20  2  0  0  0  0
 12 14  2  0  0  0  0
 12 19  1  0  0  0  0
 13 21  1  0  0  0  0
 13 17  1  0  0  0  0
 16 14  1  0  0  0  0
 17 12  1  0  0  0  0
 18  7  2  0  0  0  0
 18 11  1  0  0  0  0
 20 15  1  0  0  0  0
 20  9  1  0  0  0  0
 21 16  2  0  0  0  0
 22 23  1  0  0  0  0
 22 24  1  0  0  0  0
 23 25  2  0  0  0  0
 24 26  2  0  0  0  0
 25 26  1  0  0  0  0
 27 28  1  0  0  0  0
 27 22  1  0  0  0  0
 29 28  1  0  0  0  0
 29 31  1  0  0  0  0
 31 30  1  0  0  0  0
 32 31  2  0  0  0  0
M  END
>  <MODEL>
4

>  <REMARK>
 VINA RESULT:      -8.8      1.983      2.750
  Name = 
  6 active torsions:
  status: ('A' for Active; 'I' for Inactive)
    1  A    between atoms: N_8  and  C_9
    2  A    between atoms: N_8  and  C_14
    3  A    between atoms: C_9  and  C_28
    4  A    between atoms: N_10  and  C_14
    5  A    between atoms: C_17  and  C_31
    6  A    between atoms: C_20  and  N_24
                            x       y       z     vdW  Elec       q    Type
                         _______ _______ _______ _____ _____    ______ ____

>  <TORSDO>
F 6

$$$$
=
 OpenBabel11042413083D

 32 36  0  0  1  0  0  0  0  0999 V2000
  186.4790  176.9800  143.9300 C   0  0  0  0  0  2  0  0  0  0  0  0
  184.7670  178.8880  143.9840 C   0  0  2  0  0  3  0  0  0  0  0  0
  186.3730  178.5990  145.8770 C   0  0  0  0  0  2  0  0  0  0  0  0
  185.5390  177.8770  143.1200 C   0  0  0  0  0  2  0  0  0  0  0  0
  187.1600  177.7510  144.9720 N   0  0  0  0  0  0  0  0  0  0  0  0
  184.8970  178.6250  145.4840 C   0  0  0  0  0  2  0  0  0  0  0  0
  189.5070  177.4270  144.1960 C   0  0  0  0  0  0  0  0  0  0  0  0
  189.1130  177.5710  142.8180 N   0  0  0  0  0  0  0  0  0  0  0  0
  190.7520  177.1410  148.1550 F   0  0  0  0  0  0  0  0  0  0  0  0
  190.8660  177.2070  144.5060 C   0  0  0  0  0  0  0  0  0  0  0  0
  189.0010  177.4450  146.5690 C   0  0  0  0  0  3  0  0  0  0  0  0
  191.3860  177.2360  142.0960 C   0  0  0  0  0  0  0  0  0  0  0  0
  189.4680  177.6460  140.4190 C   0  0  0  0  0  2  0  0  0  0  0  0
  192.2350  177.1420  141.1200 N   0  0  0  0  0  0  0  0  0  0  0  0
  191.2800  177.1090  145.8340 C   0  0  0  0  0  3  0  0  0  0  0  0
  191.8400  177.2700  139.7460 C   0  0  0  0  0  3  0  0  0  0  0  0
  189.9540  177.4860  141.8300 C   0  0  0  0  0  0  0  0  0  0  0  0
  188.5590  177.5370  145.2390 C   0  0  0  0  0  0  0  0  0  0  0  0
  191.8230  177.1020  143.4500 N   0  0  0  0  0  2  0  0  0  0  0  0
  190.3490  177.2310  146.8650 C   0  0  0  0  0  0  0  0  0  0  0  0
  190.5690  177.5020  139.4030 C   0  0  0  0  0  3  0  0  0  0  0  0
  181.5440  179.0420  142.3130 N   0  0  0  0  0  0  0  0  0  0  0  0
  181.1340  179.0270  143.5940 C   0  0  0  0  0  3  0  0  0  0  0  0
  182.8850  179.0030  142.2750 C   0  0  0  0  0  3  0  0  0  0  0  0
  182.2370  178.9610  144.4270 C   0  0  0  0  0  3  0  0  0  0  0  0
  183.3320  178.9440  143.5760 C   0  0  0  0  0  0  0  0  0  0  0  0
  180.6750  179.1490  141.1550 C   0  0  0  0  0  2  0  0  0  0  0  0
  181.2580  178.4290  140.0370 N   0  0  0  0  0  2  0  0  0  0  0  0
  181.6470  179.4260  139.0560 C   0  0  0  0  0  2  0  0  0  0  0  0
  183.4080  178.2530  137.9660 O   0  0  0  0  0  0  0  0  0  0  0  0
  183.0740  179.2300  138.6840 C   0  0  0  0  0  0  0  0  0  0  0  0
  184.0310  180.1480  139.0930 O   0  0  0  0  0  1  0  0  0  0  0  0
  1  5  1  0  0  0  0
  2 26  1  6  0  0  0
  2  6  1  0  0  0  0
  4  1  1  0  0  0  0
  4  2  1  0  0  0  0
  5 18  1  0  0  0  0
  5  3  1  0  0  0  0
  6  3  1  0  0  0  0
  7 10  2  0  0  0  0
  7 18  1  0  0  0  0
  8  7  1  0  0  0  0
 10 15  1  0  0  0  0
 11 20  1  0  0  0  0
 12 19  1  0  0  0  0
 13 17  1  0  0  0  0
 14 12  2  0  0  0  0
 15 20  2  0  0  0  0
 16 14  1  0  0  0  0
 17 12  1  0  0  0  0
 17  8  2  0  0  0  0
 18 11  2  0  0  0  0
 19 10  1  0  0  0  0
 20  9  1  0  0  0  0
 21 16  2  0  0  0  0
 21 13  1  0  0  0  0
 22 23  1  0  0  0  0
 23 25  2  0  0  0  0
 24 22  1  0  0  0  0
 24 26  2  0  0  0  0
 26 25  1  0  0  0  0
 27 22  1  0  0  0  0
 28 27  1  0  0  0  0
 29 28  1  0  0  0  0
 30 31  2  0  0  0  0
 31 29  1  0  0  0  0
 31 32  1  0  0  0  0
M  END
>  <MODEL>
5

>  <REMARK>
 VINA RESULT:      -8.7      3.820      8.460
  Name = 
  6 active torsions:
  status: ('A' for Active; 'I' for Inactive)
    1  A    between atoms: N_8  and  C_9
    2  A    between atoms: N_8  and  C_14
    3  A    between atoms: C_9  and  C_28
    4  A    between atoms: N_10  and  C_14
    5  A    between atoms: C_17  and  C_31
    6  A    between atoms: C_20  and  N_24
                            x       y       z     vdW  Elec       q    Type
                         _______ _______ _______ _____ _____    ______ ____

>  <TORSDO>
F 6

$$$$
=
 OpenBabel11042413083D

 32 36  0  0  1  0  0  0  0  0999 V2000
  189.7990  176.0190  142.8580 C   0  0  0  0  0  2  0  0  0  0  0  0
  190.7000  177.3540  140.8640 C   0  0  2  0  0  3  0  0  0  0  0  0
  188.6900  178.1700  142.1040 C   0  0  0  0  0  2  0  0  0  0  0  0
  190.9960  176.3070  141.9490 C   0  0  0  0  0  2  0  0  0  0  0  0
  189.0870  177.2570  143.1840 N   0  0  0  0  0  0  0  0  0  0  0  0
  189.2160  177.7020  140.7480 C   0  0  0  0  0  2  0  0  0  0  0  0
  187.2760  177.8850  144.7770 C   0  0  0  0  0  0  0  0  0  0  0  0
  186.3250  178.0230  143.7030 N   0  0  0  0  0  0  0  0  0  0  0  0
  189.9180  177.3710  147.9490 F   0  0  0  0  0  0  0  0  0  0  0  0
  186.8550  178.1130  146.1040 C   0  0  0  0  0  0  0  0  0  0  0  0
  189.4840  177.3160  145.6070 C   0  0  0  0  0  3  0  0  0  0  0  0
  184.5990  178.6450  145.2630 C   0  0  0  0  0  0  0  0  0  0  0  0
  184.1560  178.4960  142.7250 C   0  0  0  0  0  2  0  0  0  0  0  0
  183.3690  179.0020  145.4700 N   0  0  0  0  0  0  0  0  0  0  0  0
  187.7440  177.9430  147.1660 C   0  0  0  0  0  3  0  0  0  0  0  0
  182.4260  179.1550  144.3980 C   0  0  0  0  0  3  0  0  0  0  0  0
  185.0880  178.3730  143.8950 C   0  0  0  0  0  0  0  0  0  0  0  0
  188.6090  177.4910  144.5220 C   0  0  0  0  0  0  0  0  0  0  0  0
  185.5050  178.5060  146.3600 N   0  0  0  0  0  2  0  0  0  0  0  0
  189.0570  177.5420  146.9180 C   0  0  0  0  0  0  0  0  0  0  0  0
  182.7700  178.9270  143.1260 C   0  0  0  0  0  3  0  0  0  0  0  0
  192.6540  176.1940  138.0280 N   0  0  0  0  0  0  0  0  0  0  0  0
  191.4780  176.4210  137.4140 C   0  0  0  0  0  3  0  0  0  0  0  0
  192.5430  176.5000  139.3300 C   0  0  0  0  0  3  0  0  0  0  0  0
  190.5580  176.8770  138.3430 C   0  0  0  0  0  3  0  0  0  0  0  0
  191.2480  176.9180  139.5450 C   0  0  0  0  0  0  0  0  0  0  0  0
  193.8700  175.7490  137.3710 C   0  0  0  0  0  2  0  0  0  0  0  0
  194.3240  176.7670  136.4400 N   0  0  0  0  0  2  0  0  0  0  0  0
  194.8850  176.0670  135.2980 C   0  0  0  0  0  2  0  0  0  0  0  0
  197.1080  176.3770  136.0930 O   0  0  0  0  0  1  0  0  0  0  0  0
  196.2500  175.5800  135.6320 C   0  0  0  0  0  0  0  0  0  0  0  0
  196.5670  174.2380  135.4750 O   0  0  0  0  0  0  0  0  0  0  0  0
  1  5  1  0  0  0  0
  2 26  1  6  0  0  0
  2  4  1  0  0  0  0
  3  5  1  0  0  0  0
  4  1  1  0  0  0  0
  5 18  1  0  0  0  0
  6  2  1  0  0  0  0
  6  3  1  0  0  0  0
  7 10  1  0  0  0  0
  8 17  2  0  0  0  0
  8  7  1  0  0  0  0
 10 19  1  0  0  0  0
 10 15  2  0  0  0  0
 11 20  2  0  0  0  0
 12 14  2  0  0  0  0
 12 19  1  0  0  0  0
 13 21  1  0  0  0  0
 13 17  1  0  0  0  0
 16 14  1  0  0  0  0
 17 12  1  0  0  0  0
 18  7  2  0  0  0  0
 18 11  1  0  0  0  0
 20 15  1  0  0  0  0
 20  9  1  0  0  0  0
 21 16  2  0  0  0  0
 22 24  1  0  0  0  0
 23 22  1  0  0  0  0
 23 25  2  0  0  0  0
 24 26  2  0  0  0  0
 25 26  1  0  0  0  0
 27 22  1  0  0  0  0
 28 27  1  0  0  0  0
 29 31  1  0  0  0  0
 29 28  1  0  0  0  0
 31 30  1  0  0  0  0
 32 31  2  0  0  0  0
M  END
>  <MODEL>
6

>  <REMARK>
 VINA RESULT:      -8.6      1.478      1.968
  Name = 
  6 active torsions:
  status: ('A' for Active; 'I' for Inactive)
    1  A    between atoms: N_8  and  C_9
    2  A    between atoms: N_8  and  C_14
    3  A    between atoms: C_9  and  C_28
    4  A    between atoms: N_10  and  C_14
    5  A    between atoms: C_17  and  C_31
    6  A    between atoms: C_20  and  N_24
                            x       y       z     vdW  Elec       q    Type
                         _______ _______ _______ _____ _____    ______ ____

>  <TORSDO>
F 6

$$$$
=
 OpenBabel11042413083D

 32 36  0  0  1  0  0  0  0  0999 V2000
  188.1240  177.0190  142.0450 C   0  0  0  0  0  2  0  0  0  0  0  0
  188.3680  178.4530  139.9340 C   0  0  2  0  0  3  0  0  0  0  0  0
  186.3030  178.6310  141.3300 C   0  0  0  0  0  2  0  0  0  0  0  0
  189.0820  177.6310  141.0200 C   0  0  0  0  0  2  0  0  0  0  0  0
  187.0660  177.9680  142.3970 N   0  0  0  0  0  0  0  0  0  0  0  0
  186.8490  178.2820  139.9470 C   0  0  0  0  0  2  0  0  0  0  0  0
  187.5080  177.8290  144.8460 C   0  0  0  0  0  0  0  0  0  0  0  0
  188.8720  177.4270  144.6180 N   0  0  0  0  0  0  0  0  0  0  0  0
  183.6250  179.1210  145.5960 F   0  0  0  0  0  0  0  0  0  0  0  0
  187.0440  177.9740  146.1710 C   0  0  0  0  0  0  0  0  0  0  0  0
  185.3370  178.5540  144.0400 C   0  0  0  0  0  3  0  0  0  0  0  0
  189.2640  177.2820  146.9890 C   0  0  0  0  0  0  0  0  0  0  0  0
  191.1110  176.7530  145.2660 C   0  0  0  0  0  2  0  0  0  0  0  0
  190.0810  177.0190  147.9630 N   0  0  0  0  0  0  0  0  0  0  0  0
  185.7400  178.4050  146.4190 C   0  0  0  0  0  3  0  0  0  0  0  0
  191.4360  176.6040  147.7350 C   0  0  0  0  0  3  0  0  0  0  0  0
  189.7040  177.1670  145.5830 C   0  0  0  0  0  0  0  0  0  0  0  0
  186.6420  178.1120  143.7650 C   0  0  0  0  0  0  0  0  0  0  0  0
  187.9230  177.6920  147.2620 N   0  0  0  0  0  2  0  0  0  0  0  0
  184.8890  178.6970  145.3550 C   0  0  0  0  0  0  0  0  0  0  0  0
  191.9290  176.4740  146.4990 C   0  0  0  0  0  3  0  0  0  0  0  0
  190.0510  177.1430  136.9920 N   0  0  0  0  0  0  0  0  0  0  0  0
  189.4340  178.2060  136.4450 C   0  0  0  0  0  3  0  0  0  0  0  0
  189.7650  177.0880  138.3020 C   0  0  0  0  0  3  0  0  0  0  0  0
  188.7070  178.8650  137.4210 C   0  0  0  0  0  3  0  0  0  0  0  0
  188.9270  178.1440  138.5850 C   0  0  0  0  0  0  0  0  0  0  0  0
  190.9380  176.2340  136.2880 C   0  0  0  0  0  2  0  0  0  0  0  0
  191.3570  175.1680  137.1820 N   0  0  0  0  0  2  0  0  0  0  0  0
  192.7690  174.9430  136.9290 C   0  0  0  0  0  2  0  0  0  0  0  0
  193.4920  176.5220  138.5560 O   0  0  0  0  0  1  0  0  0  0  0  0
  193.5500  176.1330  137.3620 C   0  0  0  0  0  0  0  0  0  0  0  0
  194.3740  176.7890  136.4580 O   0  0  0  0  0  0  0  0  0  0  0  0
  1  5  1  0  0  0  0
  2 26  1  6  0  0  0
  2  6  1  0  0  0  0
  2  4  1  0  0  0  0
  3  5  1  0  0  0  0
  4  1  1  0  0  0  0
  5 18  1  0  0  0  0
  6  3  1  0  0  0  0
  7 10  1  0  0  0  0
  8  7  1  0  0  0  0
  8 17  2  0  0  0  0
 10 15  2  0  0  0  0
 10 19  1  0  0  0  0
 11 20  2  0  0  0  0
 12 19  1  0  0  0  0
 12 14  2  0  0  0  0
 13 17  1  0  0  0  0
 13 21  1  0  0  0  0
 16 14  1  0  0  0  0
 17 12  1  0  0  0  0
 18 11  1  0  0  0  0
 18  7  2  0  0  0  0
 20  9  1  0  0  0  0
 20 15  1  0  0  0  0
 21 16  2  0  0  0  0
 22 24  1  0  0  0  0
 23 22  1  0  0  0  0
 23 25  2  0  0  0  0
 24 26  2  0  0  0  0
 25 26  1  0  0  0  0
 27 22  1  0  0  0  0
 27 28  1  0  0  0  0
 29 28  1  0  0  0  0
 29 31  1  0  0  0  0
 31 30  1  0  0  0  0
 32 31  2  0  0  0  0
M  END
>  <MODEL>
7

>  <REMARK>
 VINA RESULT:      -8.6      2.536      4.678
  Name = 
  6 active torsions:
  status: ('A' for Active; 'I' for Inactive)
    1  A    between atoms: N_8  and  C_9
    2  A    between atoms: N_8  and  C_14
    3  A    between atoms: C_9  and  C_28
    4  A    between atoms: N_10  and  C_14
    5  A    between atoms: C_17  and  C_31
    6  A    between atoms: C_20  and  N_24
                            x       y       z     vdW  Elec       q    Type
                         _______ _______ _______ _____ _____    ______ ____

>  <TORSDO>
F 6

$$$$
=
 OpenBabel11042413083D

 32 36  0  0  1  0  0  0  0  0999 V2000
  188.8410  176.2500  143.0490 C   0  0  0  0  0  2  0  0  0  0  0  0
  190.2920  177.5560  141.3870 C   0  0  2  0  0  3  0  0  0  0  0  0
  188.1350  178.5280  142.1900 C   0  0  0  0  0  2  0  0  0  0  0  0
  190.2360  176.4460  142.4500 C   0  0  0  0  0  2  0  0  0  0  0  0
  188.1900  177.5420  143.2780 N   0  0  0  0  0  0  0  0  0  0  0  0
  188.9120  178.0570  140.9630 C   0  0  0  0  0  2  0  0  0  0  0  0
  186.0670  178.1060  144.4570 C   0  0  0  0  0  0  0  0  0  0  0  0
  185.3470  178.1750  143.2120 N   0  0  0  0  0  0  0  0  0  0  0  0
  188.0390  177.7880  148.1070 F   0  0  0  0  0  0  0  0  0  0  0  0
  185.3780  178.3380  145.6670 C   0  0  0  0  0  0  0  0  0  0  0  0
  188.0870  177.6670  145.7290 C   0  0  0  0  0  3  0  0  0  0  0  0
  183.3160  178.7370  144.3760 C   0  0  0  0  0  0  0  0  0  0  0  0
  183.4000  178.5190  141.8060 C   0  0  0  0  0  2  0  0  0  0  0  0
  182.0540  179.0350  144.3220 N   0  0  0  0  0  0  0  0  0  0  0  0
  186.0430  178.2330  146.8890 C   0  0  0  0  0  3  0  0  0  0  0  0
  181.3400  179.1190  143.0790 C   0  0  0  0  0  3  0  0  0  0  0  0
  184.0810  178.4650  143.1420 C   0  0  0  0  0  0  0  0  0  0  0  0
  187.4420  177.7760  144.4850 C   0  0  0  0  0  0  0  0  0  0  0  0
  183.9870  178.6650  145.6350 N   0  0  0  0  0  2  0  0  0  0  0  0
  187.3950  177.8950  146.9200 C   0  0  0  0  0  0  0  0  0  0  0  0
  181.9430  178.8850  141.9100 C   0  0  0  0  0  3  0  0  0  0  0  0
  191.5920  176.1810  138.2850 N   0  0  0  0  0  0  0  0  0  0  0  0
  192.7140  176.7420  138.7710 C   0  0  0  0  0  3  0  0  0  0  0  0
  190.5830  176.3850  139.1470 C   0  0  0  0  0  3  0  0  0  0  0  0
  192.4350  177.3470  139.9840 C   0  0  0  0  0  3  0  0  0  0  0  0
  191.0850  177.1130  140.2020 C   0  0  0  0  0  0  0  0  0  0  0  0
  191.5020  175.4190  137.0520 C   0  0  0  0  0  2  0  0  0  0  0  0
  190.5190  176.0270  136.1720 N   0  0  0  0  0  2  0  0  0  0  0  0
  189.7380  174.9420  135.6060 C   0  0  0  0  0  2  0  0  0  0  0  0
  188.9580  173.2180  137.0500 O   0  0  0  0  0  0  0  0  0  0  0  0
  188.8160  174.3990  136.6390 C   0  0  0  0  0  0  0  0  0  0  0  0
  187.8260  175.2060  137.1800 O   0  0  0  0  0  1  0  0  0  0  0  0
  1  5  1  0  0  0  0
  2 26  1  6  0  0  0
  2  4  1  0  0  0  0
  3  5  1  0  0  0  0
  4  1  1  0  0  0  0
  5 18  1  0  0  0  0
  6  2  1  0  0  0  0
  6  3  1  0  0  0  0
  7 18  2  0  0  0  0
  7 10  1  0  0  0  0
  8  7  1  0  0  0  0
 10 15  2  0  0  0  0
 11 20  2  0  0  0  0
 12 19  1  0  0  0  0
 13 21  1  0  0  0  0
 13 17  1  0  0  0  0
 14 12  2  0  0  0  0
 15 20  1  0  0  0  0
 16 14  1  0  0  0  0
 17  8  2  0  0  0  0
 17 12  1  0  0  0  0
 18 11  1  0  0  0  0
 19 10  1  0  0  0  0
 20  9  1  0  0  0  0
 21 16  2  0  0  0  0
 22 23  1  0  0  0  0
 22 24  1  0  0  0  0
 23 25  2  0  0  0  0
 24 26  2  0  0  0  0
 25 26  1  0  0  0  0
 27 22  1  0  0  0  0
 28 27  1  0  0  0  0
 29 28  1  0  0  0  0
 29 31  1  0  0  0  0
 31 30  2  0  0  0  0
 31 32  1  0  0  0  0
M  END
>  <MODEL>
8

>  <REMARK>
 VINA RESULT:      -8.5      2.346      2.783
  Name = 
  6 active torsions:
  status: ('A' for Active; 'I' for Inactive)
    1  A    between atoms: N_8  and  C_9
    2  A    between atoms: N_8  and  C_14
    3  A    between atoms: C_9  and  C_28
    4  A    between atoms: N_10  and  C_14
    5  A    between atoms: C_17  and  C_31
    6  A    between atoms: C_20  and  N_24
                            x       y       z     vdW  Elec       q    Type
                         _______ _______ _______ _____ _____    ______ ____

>  <TORSDO>
F 6

$$$$
=
 OpenBabel11042413083D

 32 36  0  0  1  0  0  0  0  0999 V2000
  185.7010  177.3610  143.6480 C   0  0  0  0  0  2  0  0  0  0  0  0
  183.8090  179.0810  143.4570 C   0  0  2  0  0  3  0  0  0  0  0  0
  184.9140  178.6820  145.6630 C   0  0  0  0  0  2  0  0  0  0  0  0
  184.8910  178.2730  142.7230 C   0  0  0  0  0  2  0  0  0  0  0  0
  186.0000  178.0410  144.9110 N   0  0  0  0  0  0  0  0  0  0  0  0
  183.5910  178.6280  144.9010 C   0  0  0  0  0  2  0  0  0  0  0  0
  188.4720  177.7720  144.7300 C   0  0  0  0  0  0  0  0  0  0  0  0
  188.4080  177.7810  143.2910 N   0  0  0  0  0  0  0  0  0  0  0  0
  188.7630  177.8760  148.8790 F   0  0  0  0  0  0  0  0  0  0  0  0
  189.7260  177.6470  145.3640 C   0  0  0  0  0  0  0  0  0  0  0  0
  187.4240  177.9610  146.9110 C   0  0  0  0  0  3  0  0  0  0  0  0
  190.7950  177.5020  143.1470 C   0  0  0  0  0  0  0  0  0  0  0  0
  189.3120  177.6770  141.0420 C   0  0  0  0  0  2  0  0  0  0  0  0
  191.8520  177.3710  142.4060 N   0  0  0  0  0  0  0  0  0  0  0  0
  189.8200  177.6790  146.7560 C   0  0  0  0  0  3  0  0  0  0  0  0
  191.7860  177.3650  140.9720 C   0  0  0  0  0  3  0  0  0  0  0  0
  189.4590  177.6570  142.5360 C   0  0  0  0  0  0  0  0  0  0  0  0
  187.3030  177.9200  145.5110 C   0  0  0  0  0  0  0  0  0  0  0  0
  190.9070  177.5030  144.5710 N   0  0  0  0  0  2  0  0  0  0  0  0
  188.6700  177.8390  147.5280 C   0  0  0  0  0  0  0  0  0  0  0  0
  190.6250  177.5040  140.3250 C   0  0  0  0  0  3  0  0  0  0  0  0
  181.1140  178.8910  141.0280 N   0  0  0  0  0  0  0  0  0  0  0  0
  180.4020  179.1820  142.1320 C   0  0  0  0  0  3  0  0  0  0  0  0
  182.4170  178.8230  141.3430 C   0  0  0  0  0  3  0  0  0  0  0  0
  181.2610  179.2950  143.2120 C   0  0  0  0  0  3  0  0  0  0  0  0
  182.5260  179.0630  142.6940 C   0  0  0  0  0  0  0  0  0  0  0  0
  180.5640  178.7380  139.6930 C   0  0  0  0  0  2  0  0  0  0  0  0
  179.5320  177.7160  139.7020 N   0  0  0  0  0  2  0  0  0  0  0  0
  180.2010  176.4470  139.4820 C   0  0  0  0  0  2  0  0  0  0  0  0
  179.6240  174.2250  140.1130 O   0  0  0  0  0  0  0  0  0  0  0  0
  179.6840  175.4370  140.4440 C   0  0  0  0  0  0  0  0  0  0  0  0
  179.3060  175.8250  141.7220 O   0  0  0  0  0  1  0  0  0  0  0  0
  1  5  1  0  0  0  0
  2 26  1  6  0  0  0
  2  6  1  0  0  0  0
  4  2  1  0  0  0  0
  4  1  1  0  0  0  0
  5 18  1  0  0  0  0
  5  3  1  0  0  0  0
  6  3  1  0  0  0  0
  7 10  2  0  0  0  0
  7 18  1  0  0  0  0
  8  7  1  0  0  0  0
 10 15  1  0  0  0  0
 11 20  1  0  0  0  0
 12 19  1  0  0  0  0
 13 17  1  0  0  0  0
 14 12  2  0  0  0  0
 15 20  2  0  0  0  0
 16 14  1  0  0  0  0
 17 12  1  0  0  0  0
 17  8  2  0  0  0  0
 18 11  2  0  0  0  0
 19 10  1  0  0  0  0
 20  9  1  0  0  0  0
 21 16  2  0  0  0  0
 21 13  1  0  0  0  0
 22 24  1  0  0  0  0
 22 23  1  0  0  0  0
 23 25  2  0  0  0  0
 24 26  2  0  0  0  0
 26 25  1  0  0  0  0
 27 28  1  0  0  0  0
 27 22  1  0  0  0  0
 29 28  1  0  0  0  0
 29 31  1  0  0  0  0
 30 31  2  0  0  0  0
 31 32  1  0  0  0  0
M  END
>  <MODEL>
9

>  <REMARK>
 VINA RESULT:      -8.3      4.582      8.964
  Name = 
  6 active torsions:
  status: ('A' for Active; 'I' for Inactive)
    1  A    between atoms: N_8  and  C_9
    2  A    between atoms: N_8  and  C_14
    3  A    between atoms: C_9  and  C_28
    4  A    between atoms: N_10  and  C_14
    5  A    between atoms: C_17  and  C_31
    6  A    between atoms: C_20  and  N_24
                            x       y       z     vdW  Elec       q    Type
                         _______ _______ _______ _____ _____    ______ ____

>  <TORSDO>
F 6

$$$$
