=
 OpenBabel11042409493D

 33 35  0  0  1  0  0  0  0  0999 V2000
  188.1250  178.3940  141.4400 N   0  0  0  0  0  0  0  0  0  0  0  0
  186.0090  179.0020  140.5410 C   0  0  0  0  0  3  0  0  0  0  0  0
  191.6370  177.5150  143.6670 C   0  0  1  0  0  3  0  0  0  0  0  0
  186.8490  178.4630  139.4710 N   0  0  0  0  0  0  0  0  0  0  0  0
  191.7110  177.2120  142.1660 C   0  0  0  0  0  2  0  0  0  0  0  0
  186.8150  178.8670  141.8550 C   0  0  1  0  0  3  0  0  0  0  0  0
  190.4080  177.4820  141.4780 C   0  0  0  0  0  0  0  0  0  0  0  0
  190.3150  177.2950  140.1900 N   0  0  0  0  0  0  0  0  0  0  0  0
  191.0050  178.8900  143.9390 C   0  0  0  0  0  2  0  0  0  0  0  0
  189.6880  179.1530  143.1820 C   0  0  0  0  0  2  0  0  0  0  0  0
  189.2360  177.9870  142.3000 C   0  0  1  0  0  3  0  0  0  0  0  0
  188.0840  178.1260  140.0630 C   0  0  0  0  0  0  0  0  0  0  0  0
  189.1240  177.5770  139.4370 C   0  0  0  0  0  0  0  0  0  0  0  0
  189.0920  177.2830  137.9710 C   0  0  0  0  0  2  0  0  0  0  0  0
  188.8050  175.8110  137.7050 C   0  0  0  0  0  2  0  0  0  0  0  0
  187.5220  175.6410  136.9090 C   0  0  0  0  0  2  0  0  0  0  0  0
  184.7210  175.1690  137.2080 O   0  0  0  0  0  0  0  0  0  0  0  0
  184.9420  172.8370  137.6080 C   0  0  0  0  0  1  0  0  0  0  0  0
  185.4990  174.1860  137.3310 C   0  0  0  0  0  0  0  0  0  0  0  0
  186.9130  174.3580  137.2250 N   0  0  0  0  0  2  0  0  0  0  0  0
  186.1510  177.8330  142.7520 C   0  0  0  0  0  2  0  0  0  0  0  0
  184.7060  177.9420  142.6560 N   0  0  0  0  0  2  0  0  0  0  0  0
  184.2720  178.7230  143.8000 C   0  0  0  0  0  2  0  0  0  0  0  0
  182.7800  178.9590  143.7130 C   0  0  0  0  0  1  0  0  0  0  0  0
  190.9190  176.5160  144.3320 O   0  0  0  0  0  0  0  0  0  0  0  0
  191.8370  175.9380  145.2140 C   0  0  0  0  0  2  0  0  0  0  0  0
  191.5930  176.4460  146.6250 C   0  0  0  0  0  2  0  0  0  0  0  0
  190.2350  176.8940  146.7510 N   0  0  0  0  0  0  0  0  0  0  0  0
  189.8600  177.5160  147.8080 C   0  0  0  0  0  3  0  0  0  0  0  0
  188.4500  177.9870  147.9570 C   0  0  0  0  0  2  0  0  0  0  0  0
  187.5610  177.4100  146.8670 C   0  0  0  0  0  2  0  0  0  0  0  0
  186.8870  178.4380  146.2040 O   0  0  0  0  0  0  0  0  0  0  0  0
  185.7950  178.7250  147.0220 C   0  0  0  0  0  1  0  0  0  0  0  0
  1  6  1  0  0  0  0
  1 11  1  0  0  0  0
  2  6  1  0  0  0  0
  3  9  1  0  0  0  0
  3 25  1  1  0  0  0
  4 12  1  0  0  0  0
  4  2  2  0  0  0  0
  5  3  1  0  0  0  0
  6 21  1  1  0  0  0
  7  5  1  0  0  0  0
  7 11  1  0  0  0  0
  8  7  2  0  0  0  0
 10  9  1  0  0  0  0
 11 10  1  6  0  0  0
 12  1  1  0  0  0  0
 13 12  2  0  0  0  0
 13  8  1  0  0  0  0
 14 13  1  0  0  0  0
 15 14  1  0  0  0  0
 16 20  1  0  0  0  0
 16 15  1  0  0  0  0
 17 19  2  0  0  0  0
 19 18  1  0  0  0  0
 20 19  1  0  0  0  0
 22 21  1  0  0  0  0
 22 23  1  0  0  0  0
 24 23  1  0  0  0  0
 25 26  1  0  0  0  0
 26 27  1  0  0  0  0
 27 28  1  0  0  0  0
 28 29  2  0  0  0  0
 29 30  1  0  0  0  0
 31 30  1  0  0  0  0
 32 31  1  0  0  0  0
 32 33  1  0  0  0  0
M  END
>  <MODEL>
1

>  <REMARK>
 VINA RESULT:      -6.4      0.000      0.000
  Name = 
  14 active torsions:
  status: ('A' for Active; 'I' for Inactive)
    1  A    between atoms: C_1  and  N_23
    2  A    between atoms: C_4  and  O_27
    3  A    between atoms: C_8  and  C_13
    4  A    between atoms: C_8  and  C_31
    5  A    between atoms: C_10  and  C_14
    6  A    between atoms: C_10  and  C_33
    7  A    between atoms: C_12  and  C_15
    8  A    between atoms: C_12  and  N_23
    9  A    between atoms: C_13  and  O_20
   10  A    between atoms: C_14  and  C_17
   11  A    between atoms: N_16  and  C_17
   12  A    between atoms: C_21  and  C_26
   13  A    between atoms: C_21  and  N_30
   14  A    between atoms: C_26  and  O_27
                            x       y       z     vdW  Elec       q    Type
                         _______ _______ _______ _____ _____    ______ ____

>  <TORSDO>
F 14

$$$$
=
 OpenBabel11042409493D

 33 35  0  0  1  0  0  0  0  0999 V2000
  188.8410  177.9100  146.1860 N   0  0  0  0  0  0  0  0  0  0  0  0
  188.4260  177.7740  148.5230 C   0  0  0  0  0  3  0  0  0  0  0  0
  190.2670  178.1500  142.1880 C   0  0  1  0  0  3  0  0  0  0  0  0
  187.1500  177.7600  147.8070 N   0  0  0  0  0  0  0  0  0  0  0  0
  188.7420  178.1160  142.3470 C   0  0  0  0  0  2  0  0  0  0  0  0
  189.5420  177.7750  147.4520 C   0  0  1  0  0  3  0  0  0  0  0  0
  188.3340  177.9560  143.7800 C   0  0  0  0  0  0  0  0  0  0  0  0
  187.0660  177.9340  144.0850 N   0  0  0  0  0  0  0  0  0  0  0  0
  190.9210  179.1190  143.1860 C   0  0  0  0  0  2  0  0  0  0  0  0
  190.4480  178.9570  144.6450 C   0  0  0  0  0  2  0  0  0  0  0  0
  189.4140  177.8460  144.8420 C   0  0  1  0  0  3  0  0  0  0  0  0
  187.4610  177.8470  146.4340 C   0  0  0  0  0  0  0  0  0  0  0  0
  186.5810  177.8380  145.4340 C   0  0  0  0  0  0  0  0  0  0  0  0
  185.1080  177.7670  145.6850 C   0  0  0  0  0  2  0  0  0  0  0  0
  184.4490  179.1290  145.5150 C   0  0  0  0  0  2  0  0  0  0  0  0
  183.3190  179.0660  144.5000 C   0  0  0  0  0  2  0  0  0  0  0  0
  181.8220  178.8990  142.0740 O   0  0  0  0  0  0  0  0  0  0  0  0
  183.6240  178.0600  140.7710 C   0  0  0  0  0  1  0  0  0  0  0  0
  183.0280  178.5380  142.0470 C   0  0  0  0  0  0  0  0  0  0  0  0
  183.8260  178.5660  143.2320 N   0  0  0  0  0  2  0  0  0  0  0  0
  190.2860  176.4480  147.4930 C   0  0  0  0  0  2  0  0  0  0  0  0
  191.7120  176.6790  147.6380 N   0  0  0  0  0  2  0  0  0  0  0  0
  192.3800  175.5900  146.9500 C   0  0  0  0  0  2  0  0  0  0  0  0
  191.9850  175.6000  145.4890 C   0  0  0  0  0  1  0  0  0  0  0  0
  190.8010  176.8670  142.3430 O   0  0  0  0  0  0  0  0  0  0  0  0
  190.6880  176.2740  141.0820 C   0  0  0  0  0  2  0  0  0  0  0  0
  191.5140  177.0460  140.0670 C   0  0  0  0  0  2  0  0  0  0  0  0
  190.7010  177.3760  138.9300 N   0  0  0  0  0  0  0  0  0  0  0  0
  189.5610  176.8130  138.7730 C   0  0  0  0  0  3  0  0  0  0  0  0
  188.7030  177.1420  137.5940 C   0  0  0  0  0  2  0  0  0  0  0  0
  188.9890  178.5460  137.0830 C   0  0  0  0  0  2  0  0  0  0  0  0
  187.8030  179.2810  137.0130 O   0  0  0  0  0  0  0  0  0  0  0  0
  186.8020  178.3180  136.8900 C   0  0  0  0  0  1  0  0  0  0  0  0
  1 12  1  0  0  0  0
  1  6  1  0  0  0  0
  3 25  1  1  0  0  0
  3  5  1  0  0  0  0
  3  9  1  0  0  0  0
  4  2  2  0  0  0  0
  5  7  1  0  0  0  0
  6 21  1  6  0  0  0
  6  2  1  0  0  0  0
  7  8  2  0  0  0  0
  7 11  1  0  0  0  0
  8 13  1  0  0  0  0
  9 10  1  0  0  0  0
 11 10  1  6  0  0  0
 11  1  1  0  0  0  0
 12  4  1  0  0  0  0
 13 14  1  0  0  0  0
 13 12  2  0  0  0  0
 15 14  1  0  0  0  0
 16 15  1  0  0  0  0
 18 19  1  0  0  0  0
 19 17  2  0  0  0  0
 19 20  1  0  0  0  0
 20 16  1  0  0  0  0
 21 22  1  0  0  0  0
 23 22  1  0  0  0  0
 24 23  1  0  0  0  0
 26 25  1  0  0  0  0
 27 26  1  0  0  0  0
 28 27  1  0  0  0  0
 29 28  2  0  0  0  0
 30 29  1  0  0  0  0
 31 30  1  0  0  0  0
 32 31  1  0  0  0  0
 33 32  1  0  0  0  0
M  END
>  <MODEL>
2

>  <REMARK>
 VINA RESULT:      -6.3      2.583      7.189
  Name = 
  14 active torsions:
  status: ('A' for Active; 'I' for Inactive)
    1  A    between atoms: C_1  and  N_23
    2  A    between atoms: C_4  and  O_27
    3  A    between atoms: C_8  and  C_13
    4  A    between atoms: C_8  and  C_31
    5  A    between atoms: C_10  and  C_14
    6  A    between atoms: C_10  and  C_33
    7  A    between atoms: C_12  and  C_15
    8  A    between atoms: C_12  and  N_23
    9  A    between atoms: C_13  and  O_20
   10  A    between atoms: C_14  and  C_17
   11  A    between atoms: N_16  and  C_17
   12  A    between atoms: C_21  and  C_26
   13  A    between atoms: C_21  and  N_30
   14  A    between atoms: C_26  and  O_27
                            x       y       z     vdW  Elec       q    Type
                         _______ _______ _______ _____ _____    ______ ____

>  <TORSDO>
F 14

$$$$
=
 OpenBabel11042409493D

 33 35  0  0  1  0  0  0  0  0999 V2000
  188.6930  177.9390  146.1740 N   0  0  0  0  0  0  0  0  0  0  0  0
  188.5370  177.9770  148.5470 C   0  0  0  0  0  3  0  0  0  0  0  0
  189.6710  177.8540  142.0380 C   0  0  1  0  0  3  0  0  0  0  0  0
  187.1900  177.9650  147.9770 N   0  0  0  0  0  0  0  0  0  0  0  0
  188.1730  177.8900  142.3640 C   0  0  0  0  0  2  0  0  0  0  0  0
  189.5270  177.8620  147.3620 C   0  0  1  0  0  3  0  0  0  0  0  0
  187.9230  177.8430  143.8410 C   0  0  0  0  0  0  0  0  0  0  0  0
  186.6960  177.8910  144.2830 N   0  0  0  0  0  0  0  0  0  0  0  0
  190.4630  178.8620  142.8870 C   0  0  0  0  0  2  0  0  0  0  0  0
  190.1500  178.8160  144.3960 C   0  0  0  0  0  2  0  0  0  0  0  0
  189.1100  177.7630  144.7840 C   0  0  1  0  0  3  0  0  0  0  0  0
  187.3480  177.9460  146.5750 C   0  0  0  0  0  0  0  0  0  0  0  0
  186.3620  177.9050  145.6810 C   0  0  0  0  0  0  0  0  0  0  0  0
  184.9250  177.9080  146.0950 C   0  0  0  0  0  2  0  0  0  0  0  0
  184.2060  179.1550  145.5980 C   0  0  0  0  0  2  0  0  0  0  0  0
  183.1300  178.7980  144.5870 C   0  0  0  0  0  2  0  0  0  0  0  0
  181.7240  178.8230  142.1010 O   0  0  0  0  0  0  0  0  0  0  0  0
  183.6590  178.4910  140.7610 C   0  0  0  0  0  1  0  0  0  0  0  0
  182.9720  178.6540  142.0690 C   0  0  0  0  0  0  0  0  0  0  0  0
  183.7320  178.5990  143.2780 N   0  0  0  0  0  2  0  0  0  0  0  0
  190.2280  176.5140  147.4170 C   0  0  0  0  0  2  0  0  0  0  0  0
  191.6530  176.7000  147.6300 N   0  0  0  0  0  2  0  0  0  0  0  0
  192.3240  175.6530  146.8820 C   0  0  0  0  0  2  0  0  0  0  0  0
  191.9440  175.7560  145.4200 C   0  0  0  0  0  1  0  0  0  0  0  0
  190.1790  176.5640  142.2240 O   0  0  0  0  0  0  0  0  0  0  0  0
  191.1250  176.3980  141.2090 C   0  0  0  0  0  2  0  0  0  0  0  0
  190.5130  176.7500  139.8640 C   0  0  0  0  0  2  0  0  0  0  0  0
  190.8800  175.7600  138.8900 N   0  0  0  0  0  0  0  0  0  0  0  0
  190.1430  175.5710  137.8580 C   0  0  0  0  0  3  0  0  0  0  0  0
  190.5090  174.5440  136.8360 C   0  0  0  0  0  2  0  0  0  0  0  0
  191.9490  174.0860  137.0100 C   0  0  0  0  0  2  0  0  0  0  0  0
  192.7630  174.6890  136.0500 O   0  0  0  0  0  0  0  0  0  0  0  0
  193.8220  175.2280  136.7780 C   0  0  0  0  0  1  0  0  0  0  0  0
  1 12  1  0  0  0  0
  1  6  1  0  0  0  0
  3 25  1  1  0  0  0
  3  5  1  0  0  0  0
  3  9  1  0  0  0  0
  4  2  2  0  0  0  0
  5  7  1  0  0  0  0
  6 21  1  1  0  0  0
  6  2  1  0  0  0  0
  7  8  2  0  0  0  0
  7 11  1  0  0  0  0
  8 13  1  0  0  0  0
  9 10  1  0  0  0  0
 11 10  1  6  0  0  0
 11  1  1  0  0  0  0
 12  4  1  0  0  0  0
 13 14  1  0  0  0  0
 13 12  2  0  0  0  0
 15 14  1  0  0  0  0
 16 15  1  0  0  0  0
 18 19  1  0  0  0  0
 19 17  2  0  0  0  0
 19 20  1  0  0  0  0
 20 16  1  0  0  0  0
 21 22  1  0  0  0  0
 23 22  1  0  0  0  0
 24 23  1  0  0  0  0
 26 25  1  0  0  0  0
 27 26  1  0  0  0  0
 28 27  1  0  0  0  0
 29 28  2  0  0  0  0
 30 31  1  0  0  0  0
 30 29  1  0  0  0  0
 32 33  1  0  0  0  0
 32 31  1  0  0  0  0
M  END
>  <MODEL>
3

>  <REMARK>
 VINA RESULT:      -6.1      2.776      7.722
  Name = 
  14 active torsions:
  status: ('A' for Active; 'I' for Inactive)
    1  A    between atoms: C_1  and  N_23
    2  A    between atoms: C_4  and  O_27
    3  A    between atoms: C_8  and  C_13
    4  A    between atoms: C_8  and  C_31
    5  A    between atoms: C_10  and  C_14
    6  A    between atoms: C_10  and  C_33
    7  A    between atoms: C_12  and  C_15
    8  A    between atoms: C_12  and  N_23
    9  A    between atoms: C_13  and  O_20
   10  A    between atoms: C_14  and  C_17
   11  A    between atoms: N_16  and  C_17
   12  A    between atoms: C_21  and  C_26
   13  A    between atoms: C_21  and  N_30
   14  A    between atoms: C_26  and  O_27
                            x       y       z     vdW  Elec       q    Type
                         _______ _______ _______ _____ _____    ______ ____

>  <TORSDO>
F 14

$$$$
=
 OpenBabel11042409493D

 33 35  0  0  1  0  0  0  0  0999 V2000
  189.0950  177.8470  141.6940 N   0  0  0  0  0  0  0  0  0  0  0  0
  191.4130  177.3230  141.5970 C   0  0  0  0  0  3  0  0  0  0  0  0
  185.0150  178.6640  142.5630 C   0  0  1  0  0  3  0  0  0  0  0  0
  190.9440  177.6790  140.2580 N   0  0  0  0  0  0  0  0  0  0  0  0
  185.4200  178.8040  141.0910 C   0  0  0  0  0  2  0  0  0  0  0  0
  190.2190  177.5280  142.5600 C   0  0  1  0  0  3  0  0  0  0  0  0
  186.8860  178.5710  140.8920 C   0  0  0  0  0  0  0  0  0  0  0  0
  187.3850  178.6300  139.6870 N   0  0  0  0  0  0  0  0  0  0  0  0
  185.5830  177.3800  143.1900 C   0  0  0  0  0  2  0  0  0  0  0  0
  187.0860  177.1490  142.9300 C   0  0  0  0  0  2  0  0  0  0  0  0
  187.7490  178.2490  142.0990 C   0  0  1  0  0  3  0  0  0  0  0  0
  189.5700  177.9740  140.3790 C   0  0  0  0  0  0  0  0  0  0  0  0
  188.7680  178.3690  139.3930 C   0  0  0  0  0  0  0  0  0  0  0  0
  189.2610  178.5120  137.9880 C   0  0  0  0  0  2  0  0  0  0  0  0
  188.4050  177.7130  137.0140 C   0  0  0  0  0  2  0  0  0  0  0  0
  188.8030  176.2470  137.0140 C   0  0  0  0  0  2  0  0  0  0  0  0
  190.9280  174.9050  138.3720 O   0  0  0  0  0  0  0  0  0  0  0  0
  192.5290  175.2470  136.6490 C   0  0  0  0  0  1  0  0  0  0  0  0
  191.1720  175.3940  137.2380 C   0  0  0  0  0  0  0  0  0  0  0  0
  190.1630  176.1060  136.5180 N   0  0  0  0  0  2  0  0  0  0  0  0
  190.5090  178.6990  143.4860 C   0  0  0  0  0  2  0  0  0  0  0  0
  189.9770  178.4320  144.8110 N   0  0  0  0  0  2  0  0  0  0  0  0
  190.2350  177.0310  145.0860 C   0  0  0  0  0  2  0  0  0  0  0  0
  191.5640  176.8930  145.7980 C   0  0  0  0  0  1  0  0  0  0  0  0
  185.4340  179.7810  143.2920 O   0  0  0  0  0  0  0  0  0  0  0  0
  184.3170  180.1640  144.0400 C   0  0  0  0  0  2  0  0  0  0  0  0
  183.7620  178.9700  144.7970 C   0  0  0  0  0  2  0  0  0  0  0  0
  184.3520  178.9090  146.1060 N   0  0  0  0  0  0  0  0  0  0  0  0
  185.6270  178.9310  146.2360 C   0  0  0  0  0  3  0  0  0  0  0  0
  186.2570  178.8660  147.5890 C   0  0  0  0  0  2  0  0  0  0  0  0
  187.3850  177.8470  147.6210 C   0  0  0  0  0  2  0  0  0  0  0  0
  188.0430  177.8990  148.8520 O   0  0  0  0  0  0  0  0  0  0  0  0
  189.3430  178.2930  148.5370 C   0  0  0  0  0  1  0  0  0  0  0  0
  1 11  1  0  0  0  0
  1  6  1  0  0  0  0
  2  6  1  0  0  0  0
  3  9  1  0  0  0  0
  3 25  1  1  0  0  0
  4 12  1  0  0  0  0
  4  2  2  0  0  0  0
  5  3  1  0  0  0  0
  6 21  1  1  0  0  0
  7  5  1  0  0  0  0
  7 11  1  0  0  0  0
  8  7  2  0  0  0  0
 10  9  1  0  0  0  0
 11 10  1  6  0  0  0
 12  1  1  0  0  0  0
 13  8  1  0  0  0  0
 13 12  2  0  0  0  0
 14 13  1  0  0  0  0
 15 14  1  0  0  0  0
 16 15  1  0  0  0  0
 18 19  1  0  0  0  0
 19 17  2  0  0  0  0
 20 16  1  0  0  0  0
 20 19  1  0  0  0  0
 21 22  1  0  0  0  0
 22 23  1  0  0  0  0
 23 24  1  0  0  0  0
 25 26  1  0  0  0  0
 26 27  1  0  0  0  0
 27 28  1  0  0  0  0
 28 29  2  0  0  0  0
 29 30  1  0  0  0  0
 30 31  1  0  0  0  0
 31 32  1  0  0  0  0
 33 32  1  0  0  0  0
M  END
>  <MODEL>
4

>  <REMARK>
 VINA RESULT:      -6.1      2.347      5.069
  Name = 
  14 active torsions:
  status: ('A' for Active; 'I' for Inactive)
    1  A    between atoms: C_1  and  N_23
    2  A    between atoms: C_4  and  O_27
    3  A    between atoms: C_8  and  C_13
    4  A    between atoms: C_8  and  C_31
    5  A    between atoms: C_10  and  C_14
    6  A    between atoms: C_10  and  C_33
    7  A    between atoms: C_12  and  C_15
    8  A    between atoms: C_12  and  N_23
    9  A    between atoms: C_13  and  O_20
   10  A    between atoms: C_14  and  C_17
   11  A    between atoms: N_16  and  C_17
   12  A    between atoms: C_21  and  C_26
   13  A    between atoms: C_21  and  N_30
   14  A    between atoms: C_26  and  O_27
                            x       y       z     vdW  Elec       q    Type
                         _______ _______ _______ _____ _____    ______ ____

>  <TORSDO>
F 14

$$$$
=
 OpenBabel11042409493D

 33 35  0  0  1  0  0  0  0  0999 V2000
  188.8580  176.8250  137.6740 N   0  0  0  0  0  0  0  0  0  0  0  0
  188.2050  176.4820  135.4130 C   0  0  0  0  0  3  0  0  0  0  0  0
  189.3630  177.6710  141.8090 C   0  0  1  0  0  3  0  0  0  0  0  0
  189.5900  176.0420  135.5860 N   0  0  0  0  0  0  0  0  0  0  0  0
  190.5930  177.0980  141.0950 C   0  0  0  0  0  2  0  0  0  0  0  0
  187.6920  176.9070  136.8100 C   0  0  1  0  0  3  0  0  0  0  0  0
  190.3010  176.7620  139.6650 C   0  0  0  0  0  0  0  0  0  0  0  0
  191.2550  176.2870  138.9120 N   0  0  0  0  0  0  0  0  0  0  0  0
  188.6890  178.7780  140.9830 C   0  0  0  0  0  2  0  0  0  0  0  0
  188.4420  178.4160  139.5040 C   0  0  0  0  0  2  0  0  0  0  0  0
  188.9030  177.0070  139.1250 C   0  0  1  0  0  3  0  0  0  0  0  0
  189.9180  176.2730  136.9380 C   0  0  0  0  0  0  0  0  0  0  0  0
  191.0830  175.9860  137.5170 C   0  0  0  0  0  0  0  0  0  0  0  0
  192.2190  175.3940  136.7460 C   0  0  0  0  0  2  0  0  0  0  0  0
  193.0320  174.4330  137.6020 C   0  0  0  0  0  2  0  0  0  0  0  0
  194.5220  174.6440  137.3950 C   0  0  0  0  0  2  0  0  0  0  0  0
  196.9710  173.6250  138.4560 O   0  0  0  0  0  0  0  0  0  0  0  0
  196.9790  175.0430  140.3630 C   0  0  0  0  0  1  0  0  0  0  0  0
  196.3820  174.5330  139.1010 C   0  0  0  0  0  0  0  0  0  0  0  0
  195.1380  175.0650  138.6440 N   0  0  0  0  0  2  0  0  0  0  0  0
  186.6290  175.9260  137.2800 C   0  0  0  0  0  2  0  0  0  0  0  0
  185.3180  176.5510  137.2360 N   0  0  0  0  0  2  0  0  0  0  0  0
  185.5180  177.9530  137.5510 C   0  0  0  0  0  2  0  0  0  0  0  0
  184.7310  178.3080  138.7950 C   0  0  0  0  0  1  0  0  0  0  0  0
  188.4460  176.6530  142.0900 O   0  0  0  0  0  0  0  0  0  0  0  0
  188.8320  176.1520  143.3370 C   0  0  0  0  0  2  0  0  0  0  0  0
  188.9800  177.2900  144.3320 C   0  0  0  0  0  2  0  0  0  0  0  0
  187.6840  177.7000  144.7970 N   0  0  0  0  0  0  0  0  0  0  0  0
  187.4590  177.8110  146.0540 C   0  0  0  0  0  3  0  0  0  0  0  0
  186.1160  178.2340  146.5540 C   0  0  0  0  0  2  0  0  0  0  0  0
  185.2800  178.8400  145.4370 C   0  0  0  0  0  2  0  0  0  0  0  0
  183.9470  178.9410  145.8380 O   0  0  0  0  0  0  0  0  0  0  0  0
  183.2260  178.9920  144.6460 C   0  0  0  0  0  1  0  0  0  0  0  0
  1 11  1  0  0  0  0
  2  4  2  0  0  0  0
  2  6  1  0  0  0  0
  3 25  1  6  0  0  0
  4 12  1  0  0  0  0
  5  3  1  0  0  0  0
  6 21  1  1  0  0  0
  6  1  1  0  0  0  0
  7  5  1  0  0  0  0
  8  7  2  0  0  0  0
  9  3  1  0  0  0  0
 10  9  1  0  0  0  0
 11 10  1  6  0  0  0
 11  7  1  0  0  0  0
 12 13  2  0  0  0  0
 12  1  1  0  0  0  0
 13  8  1  0  0  0  0
 14 13  1  0  0  0  0
 14 15  1  0  0  0  0
 16 15  1  0  0  0  0
 16 20  1  0  0  0  0
 17 19  2  0  0  0  0
 19 18  1  0  0  0  0
 20 19  1  0  0  0  0
 22 21  1  0  0  0  0
 22 23  1  0  0  0  0
 23 24  1  0  0  0  0
 25 26  1  0  0  0  0
 26 27  1  0  0  0  0
 27 28  1  0  0  0  0
 28 29  2  0  0  0  0
 29 30  1  0  0  0  0
 31 32  1  0  0  0  0
 31 30  1  0  0  0  0
 33 32  1  0  0  0  0
M  END
>  <MODEL>
5

>  <REMARK>
 VINA RESULT:      -5.9      3.315      5.551
  Name = 
  14 active torsions:
  status: ('A' for Active; 'I' for Inactive)
    1  A    between atoms: C_1  and  N_23
    2  A    between atoms: C_4  and  O_27
    3  A    between atoms: C_8  and  C_13
    4  A    between atoms: C_8  and  C_31
    5  A    between atoms: C_10  and  C_14
    6  A    between atoms: C_10  and  C_33
    7  A    between atoms: C_12  and  C_15
    8  A    between atoms: C_12  and  N_23
    9  A    between atoms: C_13  and  O_20
   10  A    between atoms: C_14  and  C_17
   11  A    between atoms: N_16  and  C_17
   12  A    between atoms: C_21  and  C_26
   13  A    between atoms: C_21  and  N_30
   14  A    between atoms: C_26  and  O_27
                            x       y       z     vdW  Elec       q    Type
                         _______ _______ _______ _____ _____    ______ ____

>  <TORSDO>
F 14

$$$$
=
 OpenBabel11042409493D

 33 35  0  0  1  0  0  0  0  0999 V2000
  189.4080  177.8100  141.7010 N   0  0  0  0  0  0  0  0  0  0  0  0
  191.7420  177.3810  141.5450 C   0  0  0  0  0  3  0  0  0  0  0  0
  185.3240  178.4770  142.6740 C   0  0  1  0  0  3  0  0  0  0  0  0
  191.2190  177.6830  140.2130 N   0  0  0  0  0  0  0  0  0  0  0  0
  185.6790  178.5960  141.1870 C   0  0  0  0  0  2  0  0  0  0  0  0
  190.5690  177.5610  142.5390 C   0  0  1  0  0  3  0  0  0  0  0  0
  187.1480  178.4190  140.9490 C   0  0  0  0  0  0  0  0  0  0  0  0
  187.6080  178.4680  139.7290 N   0  0  0  0  0  0  0  0  0  0  0  0
  185.9650  177.2350  143.3140 C   0  0  0  0  0  2  0  0  0  0  0  0
  187.4680  177.0600  143.0140 C   0  0  0  0  0  2  0  0  0  0  0  0
  188.0590  178.1660  142.1370 C   0  0  1  0  0  3  0  0  0  0  0  0
  189.8380  177.9230  140.3690 C   0  0  0  0  0  0  0  0  0  0  0  0
  188.9910  178.2580  139.3980 C   0  0  0  0  0  0  0  0  0  0  0  0
  189.4360  178.3850  137.9760 C   0  0  0  0  0  2  0  0  0  0  0  0
  188.9810  177.1950  137.1430 C   0  0  0  0  0  2  0  0  0  0  0  0
  188.1530  177.6480  135.9520 C   0  0  0  0  0  2  0  0  0  0  0  0
  186.2160  175.8620  137.0540 O   0  0  0  0  0  0  0  0  0  0  0  0
  184.5780  177.5420  137.4410 C   0  0  0  0  0  1  0  0  0  0  0  0
  185.9090  177.0810  136.9650 C   0  0  0  0  0  0  0  0  0  0  0  0
  186.8190  178.0230  136.3940 N   0  0  0  0  0  2  0  0  0  0  0  0
  190.8370  178.7670  143.4270 C   0  0  0  0  0  2  0  0  0  0  0  0
  190.9620  178.3490  144.8130 N   0  0  0  0  0  2  0  0  0  0  0  0
  191.0200  176.8990  144.8040 C   0  0  0  0  0  2  0  0  0  0  0  0
  191.6840  176.4140  146.0760 C   0  0  0  0  0  1  0  0  0  0  0  0
  185.7160  179.6290  143.3620 O   0  0  0  0  0  0  0  0  0  0  0  0
  184.5420  180.1250  143.9360 C   0  0  0  0  0  2  0  0  0  0  0  0
  184.2120  179.3480  145.1990 C   0  0  0  0  0  2  0  0  0  0  0  0
  185.3380  179.3710  146.0910 N   0  0  0  0  0  0  0  0  0  0  0  0
  185.8360  178.2720  146.5230 C   0  0  0  0  0  3  0  0  0  0  0  0
  187.0060  178.2770  147.4530 C   0  0  0  0  0  2  0  0  0  0  0  0
  188.0240  177.2180  147.0600 C   0  0  0  0  0  2  0  0  0  0  0  0
  188.9240  177.0080  148.1070 O   0  0  0  0  0  0  0  0  0  0  0  0
  189.2490  178.2880  148.5520 C   0  0  0  0  0  1  0  0  0  0  0  0
  1 11  1  0  0  0  0
  1  6  1  0  0  0  0
  2  6  1  0  0  0  0
  3  9  1  0  0  0  0
  3 25  1  1  0  0  0
  4 12  1  0  0  0  0
  4  2  2  0  0  0  0
  5  3  1  0  0  0  0
  6 21  1  1  0  0  0
  7  5  1  0  0  0  0
  7 11  1  0  0  0  0
  8  7  2  0  0  0  0
 10  9  1  0  0  0  0
 11 10  1  6  0  0  0
 12  1  1  0  0  0  0
 13  8  1  0  0  0  0
 13 12  2  0  0  0  0
 14 13  1  0  0  0  0
 15 14  1  0  0  0  0
 16 20  1  0  0  0  0
 16 15  1  0  0  0  0
 19 17  2  0  0  0  0
 19 18  1  0  0  0  0
 20 19  1  0  0  0  0
 21 22  1  0  0  0  0
 23 22  1  0  0  0  0
 23 24  1  0  0  0  0
 25 26  1  0  0  0  0
 26 27  1  0  0  0  0
 27 28  1  0  0  0  0
 28 29  2  0  0  0  0
 29 30  1  0  0  0  0
 31 30  1  0  0  0  0
 31 32  1  0  0  0  0
 32 33  1  0  0  0  0
M  END
>  <MODEL>
6

>  <REMARK>
 VINA RESULT:      -5.9      1.965      4.723
  Name = 
  14 active torsions:
  status: ('A' for Active; 'I' for Inactive)
    1  A    between atoms: C_1  and  N_23
    2  A    between atoms: C_4  and  O_27
    3  A    between atoms: C_8  and  C_13
    4  A    between atoms: C_8  and  C_31
    5  A    between atoms: C_10  and  C_14
    6  A    between atoms: C_10  and  C_33
    7  A    between atoms: C_12  and  C_15
    8  A    between atoms: C_12  and  N_23
    9  A    between atoms: C_13  and  O_20
   10  A    between atoms: C_14  and  C_17
   11  A    between atoms: N_16  and  C_17
   12  A    between atoms: C_21  and  C_26
   13  A    between atoms: C_21  and  N_30
   14  A    between atoms: C_26  and  O_27
                            x       y       z     vdW  Elec       q    Type
                         _______ _______ _______ _____ _____    ______ ____

>  <TORSDO>
F 14

$$$$
=
 OpenBabel11042409493D

 33 35  0  0  1  0  0  0  0  0999 V2000
  189.2100  177.3650  141.3270 N   0  0  0  0  0  0  0  0  0  0  0  0
  191.2190  176.9510  140.1240 C   0  0  0  0  0  3  0  0  0  0  0  0
  185.9790  177.8760  144.0420 C   0  0  1  0  0  3  0  0  0  0  0  0
  190.2160  177.5000  139.2110 N   0  0  0  0  0  0  0  0  0  0  0  0
  185.6900  178.2660  142.5880 C   0  0  0  0  0  2  0  0  0  0  0  0
  190.5880  176.9530  141.5370 C   0  0  1  0  0  3  0  0  0  0  0  0
  186.9040  178.1240  141.7210 C   0  0  0  0  0  0  0  0  0  0  0  0
  186.8160  178.3950  140.4480 N   0  0  0  0  0  0  0  0  0  0  0  0
  186.7170  176.5300  144.1340 C   0  0  0  0  0  2  0  0  0  0  0  0
  187.9360  176.4010  143.1980 C   0  0  0  0  0  2  0  0  0  0  0  0
  188.2010  177.6450  142.3480 C   0  0  1  0  0  3  0  0  0  0  0  0
  189.0530  177.7190  139.9780 C   0  0  0  0  0  0  0  0  0  0  0  0
  187.9100  178.2380  139.5300 C   0  0  0  0  0  0  0  0  0  0  0  0
  187.7310  178.6230  138.0960 C   0  0  0  0  0  2  0  0  0  0  0  0
  187.6020  177.3970  137.2030 C   0  0  0  0  0  2  0  0  0  0  0  0
  186.1690  177.2160  136.7310 C   0  0  0  0  0  2  0  0  0  0  0  0
  183.8030  176.4600  138.1420 O   0  0  0  0  0  0  0  0  0  0  0  0
  183.3160  178.6520  138.9240 C   0  0  0  0  0  1  0  0  0  0  0  0
  184.1400  177.6740  138.1650 C   0  0  0  0  0  0  0  0  0  0  0  0
  185.2940  178.1250  137.4540 N   0  0  0  0  0  2  0  0  0  0  0  0
  191.3050  177.9700  142.4110 C   0  0  0  0  0  2  0  0  0  0  0  0
  191.6890  177.3610  143.6730 N   0  0  0  0  0  2  0  0  0  0  0  0
  191.6770  178.4210  144.6640 C   0  0  0  0  0  2  0  0  0  0  0  0
  190.9650  179.6310  144.0990 C   0  0  0  0  0  1  0  0  0  0  0  0
  186.7220  178.8760  144.6770 O   0  0  0  0  0  0  0  0  0  0  0  0
  185.8890  179.3540  145.6940 C   0  0  0  0  0  2  0  0  0  0  0  0
  186.0570  178.5100  146.9450 C   0  0  0  0  0  2  0  0  0  0  0  0
  187.4180  178.5830  147.4010 N   0  0  0  0  0  0  0  0  0  0  0  0
  188.1070  177.5110  147.5350 C   0  0  0  0  0  3  0  0  0  0  0  0
  189.5230  177.5700  148.0100 C   0  0  0  0  0  2  0  0  0  0  0  0
  190.3690  176.4930  147.3480 C   0  0  0  0  0  2  0  0  0  0  0  0
  191.7100  176.6520  147.7020 O   0  0  0  0  0  0  0  0  0  0  0  0
  192.3720  175.6190  147.0410 C   0  0  0  0  0  1  0  0  0  0  0  0
  1  6  1  0  0  0  0
  1 11  1  0  0  0  0
  2  6  1  0  0  0  0
  3  9  1  0  0  0  0
  3 25  1  6  0  0  0
  4 12  1  0  0  0  0
  4  2  2  0  0  0  0
  5  3  1  0  0  0  0
  6 21  1  1  0  0  0
  7 11  1  0  0  0  0
  7  5  1  0  0  0  0
  8  7  2  0  0  0  0
 10  9  1  0  0  0  0
 11 10  1  6  0  0  0
 12  1  1  0  0  0  0
 13 12  2  0  0  0  0
 13  8  1  0  0  0  0
 14 13  1  0  0  0  0
 15 14  1  0  0  0  0
 16 15  1  0  0  0  0
 16 20  1  0  0  0  0
 17 19  2  0  0  0  0
 19 18  1  0  0  0  0
 20 19  1  0  0  0  0
 21 22  1  0  0  0  0
 22 23  1  0  0  0  0
 24 23  1  0  0  0  0
 25 26  1  0  0  0  0
 26 27  1  0  0  0  0
 27 28  1  0  0  0  0
 28 29  2  0  0  0  0
 29 30  1  0  0  0  0
 31 32  1  0  0  0  0
 31 30  1  0  0  0  0
 33 32  1  0  0  0  0
M  END
>  <MODEL>
7

>  <REMARK>
 VINA RESULT:      -5.8      2.016      4.594
  Name = 
  14 active torsions:
  status: ('A' for Active; 'I' for Inactive)
    1  A    between atoms: C_1  and  N_23
    2  A    between atoms: C_4  and  O_27
    3  A    between atoms: C_8  and  C_13
    4  A    between atoms: C_8  and  C_31
    5  A    between atoms: C_10  and  C_14
    6  A    between atoms: C_10  and  C_33
    7  A    between atoms: C_12  and  C_15
    8  A    between atoms: C_12  and  N_23
    9  A    between atoms: C_13  and  O_20
   10  A    between atoms: C_14  and  C_17
   11  A    between atoms: N_16  and  C_17
   12  A    between atoms: C_21  and  C_26
   13  A    between atoms: C_21  and  N_30
   14  A    between atoms: C_26  and  O_27
                            x       y       z     vdW  Elec       q    Type
                         _______ _______ _______ _____ _____    ______ ____

>  <TORSDO>
F 14

$$$$
=
 OpenBabel11042409493D

 33 35  0  0  1  0  0  0  0  0999 V2000
  189.2300  177.0370  137.7700 N   0  0  0  0  0  0  0  0  0  0  0  0
  188.7430  176.7880  135.4560 C   0  0  0  0  0  3  0  0  0  0  0  0
  189.4140  177.6370  141.9750 C   0  0  1  0  0  3  0  0  0  0  0  0
  190.1560  176.4870  135.6850 N   0  0  0  0  0  0  0  0  0  0  0  0
  190.7360  177.2510  141.3020 C   0  0  0  0  0  2  0  0  0  0  0  0
  188.1110  177.0560  136.8430 C   0  0  1  0  0  3  0  0  0  0  0  0
  190.5610  176.9880  139.8380 C   0  0  0  0  0  0  0  0  0  0  0  0
  191.6010  176.6720  139.1160 N   0  0  0  0  0  0  0  0  0  0  0  0
  188.6670  178.7220  141.1810 C   0  0  0  0  0  2  0  0  0  0  0  0
  188.5420  178.4410  139.6700 C   0  0  0  0  0  2  0  0  0  0  0  0
  189.1760  177.1200  139.2290 C   0  0  1  0  0  3  0  0  0  0  0  0
  190.3830  176.6560  137.0670 C   0  0  0  0  0  0  0  0  0  0  0  0
  191.5390  176.4540  137.6970 C   0  0  0  0  0  0  0  0  0  0  0  0
  192.7740  176.0420  136.9600 C   0  0  0  0  0  2  0  0  0  0  0  0
  192.7840  174.5450  136.6830 C   0  0  0  0  0  2  0  0  0  0  0  0
  194.0670  173.9060  137.1870 C   0  0  0  0  0  2  0  0  0  0  0  0
  196.2600  173.1440  138.8510 O   0  0  0  0  0  0  0  0  0  0  0  0
  196.3060  175.1760  140.0830 C   0  0  0  0  0  1  0  0  0  0  0  0
  195.7490  174.2810  139.0340 C   0  0  0  0  0  0  0  0  0  0  0  0
  194.6300  174.7120  138.2590 N   0  0  0  0  0  2  0  0  0  0  0  0
  187.1380  175.9360  137.1820 C   0  0  0  0  0  2  0  0  0  0  0  0
  185.7870  176.3200  136.8150 N   0  0  0  0  0  2  0  0  0  0  0  0
  185.4800  177.5240  137.5640 C   0  0  0  0  0  2  0  0  0  0  0  0
  184.0020  177.5530  137.8890 C   0  0  0  0  0  1  0  0  0  0  0  0
  188.6000  176.5110  142.1320 O   0  0  0  0  0  0  0  0  0  0  0  0
  188.4370  176.3730  143.5130 C   0  0  0  0  0  2  0  0  0  0  0  0
  187.1640  177.0720  143.9600 C   0  0  0  0  0  2  0  0  0  0  0  0
  187.4150  177.8170  145.1620 N   0  0  0  0  0  0  0  0  0  0  0  0
  186.7550  177.5540  146.2290 C   0  0  0  0  0  3  0  0  0  0  0  0
  187.0030  178.3210  147.4870 C   0  0  0  0  0  2  0  0  0  0  0  0
  187.9780  177.5870  148.3940 C   0  0  0  0  0  2  0  0  0  0  0  0
  189.2030  178.2560  148.4230 O   0  0  0  0  0  0  0  0  0  0  0  0
  190.0690  177.4330  147.7060 C   0  0  0  0  0  1  0  0  0  0  0  0
  1 11  1  0  0  0  0
  2  4  2  0  0  0  0
  2  6  1  0  0  0  0
  3 25  1  6  0  0  0
  4 12  1  0  0  0  0
  5  3  1  0  0  0  0
  6 21  1  1  0  0  0
  6  1  1  0  0  0  0
  7  5  1  0  0  0  0
  8  7  2  0  0  0  0
  9  3  1  0  0  0  0
 10  9  1  0  0  0  0
 11 10  1  6  0  0  0
 11  7  1  0  0  0  0
 12 13  2  0  0  0  0
 12  1  1  0  0  0  0
 13  8  1  0  0  0  0
 14 13  1  0  0  0  0
 15 14  1  0  0  0  0
 15 16  1  0  0  0  0
 16 20  1  0  0  0  0
 17 19  2  0  0  0  0
 19 18  1  0  0  0  0
 20 19  1  0  0  0  0
 22 21  1  0  0  0  0
 22 23  1  0  0  0  0
 23 24  1  0  0  0  0
 25 26  1  0  0  0  0
 26 27  1  0  0  0  0
 27 28  1  0  0  0  0
 28 29  2  0  0  0  0
 29 30  1  0  0  0  0
 30 31  1  0  0  0  0
 31 32  1  0  0  0  0
 33 32  1  0  0  0  0
M  END
>  <MODEL>
8

>  <REMARK>
 VINA RESULT:      -5.8      3.254      5.470
  Name = 
  14 active torsions:
  status: ('A' for Active; 'I' for Inactive)
    1  A    between atoms: C_1  and  N_23
    2  A    between atoms: C_4  and  O_27
    3  A    between atoms: C_8  and  C_13
    4  A    between atoms: C_8  and  C_31
    5  A    between atoms: C_10  and  C_14
    6  A    between atoms: C_10  and  C_33
    7  A    between atoms: C_12  and  C_15
    8  A    between atoms: C_12  and  N_23
    9  A    between atoms: C_13  and  O_20
   10  A    between atoms: C_14  and  C_17
   11  A    between atoms: N_16  and  C_17
   12  A    between atoms: C_21  and  C_26
   13  A    between atoms: C_21  and  N_30
   14  A    between atoms: C_26  and  O_27
                            x       y       z     vdW  Elec       q    Type
                         _______ _______ _______ _____ _____    ______ ____

>  <TORSDO>
F 14

$$$$
=
 OpenBabel11042409493D

 33 35  0  0  1  0  0  0  0  0999 V2000
  189.6130  177.6350  142.2900 N   0  0  0  0  0  0  0  0  0  0  0  0
  191.9250  177.3740  141.8020 C   0  0  0  0  0  3  0  0  0  0  0  0
  185.6660  177.9700  143.8330 C   0  0  1  0  0  3  0  0  0  0  0  0
  191.2100  177.7130  140.5720 N   0  0  0  0  0  0  0  0  0  0  0  0
  185.8080  178.1940  142.3230 C   0  0  0  0  0  2  0  0  0  0  0  0
  190.8890  177.4190  142.9510 C   0  0  1  0  0  3  0  0  0  0  0  0
  187.2390  178.1310  141.8820 C   0  0  0  0  0  0  0  0  0  0  0  0
  187.5260  178.2780  140.6180 N   0  0  0  0  0  0  0  0  0  0  0  0
  186.4600  176.7410  144.3030 C   0  0  0  0  0  2  0  0  0  0  0  0
  187.9160  176.6840  143.7970 C   0  0  0  0  0  2  0  0  0  0  0  0
  188.3160  177.8740  142.9220 C   0  0  1  0  0  3  0  0  0  0  0  0
  189.8510  177.8500  140.9240 C   0  0  0  0  0  0  0  0  0  0  0  0
  188.8610  178.1800  140.0960 C   0  0  0  0  0  0  0  0  0  0  0  0
  189.1020  178.4150  138.6380 C   0  0  0  0  0  2  0  0  0  0  0  0
  188.5130  177.2960  137.7900 C   0  0  0  0  0  2  0  0  0  0  0  0
  187.4160  177.8210  136.8800 C   0  0  0  0  0  2  0  0  0  0  0  0
  185.3330  179.0510  138.3990 O   0  0  0  0  0  0  0  0  0  0  0  0
  183.8430  177.2050  138.2460 C   0  0  0  0  0  1  0  0  0  0  0  0
  185.1360  177.8840  137.9670 C   0  0  0  0  0  0  0  0  0  0  0  0
  186.1480  177.1990  137.2280 N   0  0  0  0  0  2  0  0  0  0  0  0
  191.2020  178.5890  143.8710 C   0  0  0  0  0  2  0  0  0  0  0  0
  191.8370  178.1130  145.0880 N   0  0  0  0  0  2  0  0  0  0  0  0
  191.1970  176.8550  145.4230 C   0  0  0  0  0  2  0  0  0  0  0  0
  190.3210  177.0440  146.6430 C   0  0  0  0  0  1  0  0  0  0  0  0
  186.0780  179.1070  144.5350 O   0  0  0  0  0  0  0  0  0  0  0  0
  184.9260  179.8890  144.6630 C   0  0  0  0  0  2  0  0  0  0  0  0
  183.7200  179.0030  144.9230 C   0  0  0  0  0  2  0  0  0  0  0  0
  182.6640  179.3420  144.0100 N   0  0  0  0  0  0  0  0  0  0  0  0
  181.5990  178.6290  143.9690 C   0  0  0  0  0  3  0  0  0  0  0  0
  180.4920  178.9660  143.0240 C   0  0  0  0  0  2  0  0  0  0  0  0
  181.0250  179.2280  141.6240 C   0  0  0  0  0  2  0  0  0  0  0  0
  180.1380  180.0430  140.9180 O   0  0  0  0  0  0  0  0  0  0  0  0
  179.3110  180.5900  141.8980 C   0  0  0  0  0  1  0  0  0  0  0  0
  1 11  1  0  0  0  0
  1  6  1  0  0  0  0
  2  6  1  0  0  0  0
  3  9  1  0  0  0  0
  3 25  1  1  0  0  0
  4 12  1  0  0  0  0
  4  2  2  0  0  0  0
  5  3  1  0  0  0  0
  6 21  1  1  0  0  0
  7  5  1  0  0  0  0
  7 11  1  0  0  0  0
  8  7  2  0  0  0  0
 10  9  1  0  0  0  0
 11 10  1  6  0  0  0
 12  1  1  0  0  0  0
 13  8  1  0  0  0  0
 13 12  2  0  0  0  0
 14 13  1  0  0  0  0
 15 14  1  0  0  0  0
 16 20  1  0  0  0  0
 16 15  1  0  0  0  0
 19 18  1  0  0  0  0
 19 17  2  0  0  0  0
 20 19  1  0  0  0  0
 21 22  1  0  0  0  0
 22 23  1  0  0  0  0
 23 24  1  0  0  0  0
 25 26  1  0  0  0  0
 26 27  1  0  0  0  0
 28 27  1  0  0  0  0
 29 28  2  0  0  0  0
 30 29  1  0  0  0  0
 31 30  1  0  0  0  0
 32 31  1  0  0  0  0
 32 33  1  0  0  0  0
M  END
>  <MODEL>
9

>  <REMARK>
 VINA RESULT:      -5.7      2.400      5.833
  Name = 
  14 active torsions:
  status: ('A' for Active; 'I' for Inactive)
    1  A    between atoms: C_1  and  N_23
    2  A    between atoms: C_4  and  O_27
    3  A    between atoms: C_8  and  C_13
    4  A    between atoms: C_8  and  C_31
    5  A    between atoms: C_10  and  C_14
    6  A    between atoms: C_10  and  C_33
    7  A    between atoms: C_12  and  C_15
    8  A    between atoms: C_12  and  N_23
    9  A    between atoms: C_13  and  O_20
   10  A    between atoms: C_14  and  C_17
   11  A    between atoms: N_16  and  C_17
   12  A    between atoms: C_21  and  C_26
   13  A    between atoms: C_21  and  N_30
   14  A    between atoms: C_26  and  O_27
                            x       y       z     vdW  Elec       q    Type
                         _______ _______ _______ _____ _____    ______ ____

>  <TORSDO>
F 14

$$$$
