=
 OpenBabel11042410443D

 38 43  0  0  1  0  0  0  0  0999 V2000
  188.1310  177.9400  143.8210 C   0  0  0  0  0  0  0  0  0  0  0  0
  187.4770  178.3680  141.0530 C   0  0  0  0  0  3  0  0  0  0  0  0
  188.8890  177.0520  147.8990 N   0  0  0  0  0  0  0  0  0  0  0  0
  189.0140  177.6970  142.8420 C   0  0  0  0  0  3  0  0  0  0  0  0
  184.3190  178.4350  144.0130 C   0  0  0  0  0  3  0  0  0  0  0  0
  189.9360  177.0420  147.0260 C   0  0  0  0  0  0  0  0  0  0  0  0
  189.7190  177.3270  145.6750 C   0  0  0  0  0  3  0  0  0  0  0  0
  185.7100  178.2720  144.4640 C   0  0  0  0  0  0  0  0  0  0  0  0
  188.7050  177.9850  141.4170 C   0  0  0  0  0  0  0  0  0  0  0  0
  184.0420  178.6180  142.7110 C   0  0  0  0  0  0  0  0  0  0  0  0
  186.4220  178.5230  142.0660 C   0  0  0  0  0  0  0  0  0  0  0  0
  186.8260  178.6420  143.5130 C   0  0  2  0  0  3  0  0  0  0  0  0
  188.4220  177.6290  145.2360 C   0  0  0  0  0  0  0  0  0  0  0  0
  187.3610  177.6350  146.1630 C   0  0  0  0  0  0  0  0  0  0  0  0
  187.6210  177.3310  147.5000 C   0  0  0  0  0  3  0  0  0  0  0  0
  185.9730  177.8790  145.7140 C   0  0  0  0  0  3  0  0  0  0  0  0
  185.1370  178.5860  141.7040 C   0  0  0  0  0  3  0  0  0  0  0  0
  182.2360  178.4470  140.9180 C   0  0  0  0  0  2  0  0  0  0  0  0
  181.5530  178.9900  143.1840 C   0  0  0  0  0  2  0  0  0  0  0  0
  180.7700  178.5440  141.0400 C   0  0  0  0  0  0  0  0  0  0  0  0
  179.9640  178.4130  140.0820 O   0  0  0  0  0  0  0  0  0  0  0  0
  180.3680  178.8150  142.3700 N   0  0  0  0  0  0  0  0  0  0  0  0
  182.6790  178.7470  142.2770 N   0  0  0  0  0  0  0  0  0  0  0  0
  178.9890  179.2520  144.3230 C   0  0  0  0  0  1  0  0  0  0  0  0
  179.0130  179.1000  142.8120 C   0  0  0  0  0  2  0  0  0  0  0  0
  191.3070  176.7000  147.4990 C   0  0  0  0  0  2  0  0  0  0  0  0
  192.0180  175.8520  146.4590 C   0  0  0  0  0  1  0  0  0  0  0  0
  189.6750  177.8220  140.4250 O   0  0  0  0  0  0  0  0  0  0  0  0
  190.5300  176.6860  140.3830 C   0  0  0  0  0  2  0  0  0  0  0  0
  190.9310  176.3600  138.9550 C   0  0  0  0  0  2  0  0  0  0  0  0
  187.7180  175.3920  137.0730 C   0  0  0  0  0  3  0  0  0  0  0  0
  188.8250  176.2390  137.5700 C   0  0  0  0  0  0  0  0  0  0  0  0
  185.8910  177.0960  137.2810 C   0  0  0  0  0  3  0  0  0  0  0  0
  188.8770  177.5240  137.3600 N   0  0  0  0  0  0  0  0  0  0  0  0
  186.4370  175.7650  136.9470 C   0  0  0  0  0  3  0  0  0  0  0  0
  187.9320  178.2880  136.5580 C   0  0  0  0  0  2  0  0  0  0  0  0
  189.8820  175.5980  138.2880 N   0  0  0  0  0  2  0  0  0  0  0  0
  186.5660  178.2370  137.1530 C   0  0  0  0  0  3  0  0  0  0  0  0
  1 13  1  0  0  0  0
  2  9  2  0  0  0  0
  2 11  1  0  0  0  0
  4  1  2  0  0  0  0
  5  8  1  0  0  0  0
  6 26  1  0  0  0  0
  6  3  2  0  0  0  0
  7  6  1  0  0  0  0
  8 16  2  0  0  0  0
  9  4  1  0  0  0  0
 10  5  2  0  0  0  0
 12 11  1  6  0  0  0
 12  1  1  0  0  0  0
 12  8  1  0  0  0  0
 13  7  2  0  0  0  0
 13 14  1  0  0  0  0
 14 15  2  0  0  0  0
 15  3  1  0  0  0  0
 16 14  1  0  0  0  0
 17 11  2  0  0  0  0
 17 10  1  0  0  0  0
 18 20  1  0  0  0  0
 18 23  1  0  0  0  0
 20 22  1  0  0  0  0
 21 20  2  0  0  0  0
 22 25  1  0  0  0  0
 22 19  1  0  0  0  0
 23 10  1  0  0  0  0
 23 19  1  0  0  0  0
 25 24  1  0  0  0  0
 27 26  1  0  0  0  0
 28  9  1  0  0  0  0
 29 28  1  0  0  0  0
 30 29  1  0  0  0  0
 31 32  1  0  0  0  0
 32 37  1  0  0  0  0
 34 32  2  0  0  0  0
 35 31  2  0  0  0  0
 35 33  1  0  0  0  0
 36 38  1  0  0  0  0
 36 34  1  0  0  0  0
 37 30  1  0  0  0  0
 38 33  2  0  0  0  0
M  END
>  <MODEL>
1

>  <REMARK>
 VINA RESULT:     -10.3      0.000      0.000
  Name = 
  7 active torsions:
  status: ('A' for Active; 'I' for Inactive)
    1  A    between atoms: C_6  and  C_11
    2  A    between atoms: C_9  and  N_21
    3  A    between atoms: C_9  and  C_24
    4  A    between atoms: O_14  and  C_24
    5  A    between atoms: O_14  and  C_25
    6  A    between atoms: N_19  and  C_38
    7  A    between atoms: C_26  and  N_29
                            x       y       z     vdW  Elec       q    Type
                         _______ _______ _______ _____ _____    ______ ____

>  <TORSDO>
F 7

$$$$
=
 OpenBabel11042410443D

 38 43  0  0  1  0  0  0  0  0999 V2000
  188.0350  177.8840  144.0290 C   0  0  0  0  0  0  0  0  0  0  0  0
  187.2670  178.2270  141.2780 C   0  0  0  0  0  3  0  0  0  0  0  0
  188.9550  177.1260  148.1000 N   0  0  0  0  0  0  0  0  0  0  0  0
  188.8690  177.5870  143.0220 C   0  0  0  0  0  3  0  0  0  0  0  0
  184.2460  178.4680  144.3690 C   0  0  0  0  0  3  0  0  0  0  0  0
  189.9620  177.0620  147.1830 C   0  0  0  0  0  0  0  0  0  0  0  0
  189.6910  177.3030  145.8330 C   0  0  0  0  0  3  0  0  0  0  0  0
  185.6530  178.2910  144.7640 C   0  0  0  0  0  0  0  0  0  0  0  0
  188.5020  177.8300  141.6030 C   0  0  0  0  0  0  0  0  0  0  0  0
  183.9150  178.6110  143.0750 C   0  0  0  0  0  0  0  0  0  0  0  0
  186.2620  178.4410  142.3300 C   0  0  0  0  0  0  0  0  0  0  0  0
  186.7320  178.6030  143.7530 C   0  0  2  0  0  3  0  0  0  0  0  0
  188.3820  177.6180  145.4410 C   0  0  0  0  0  0  0  0  0  0  0  0
  187.3640  177.6790  146.4120 C   0  0  0  0  0  0  0  0  0  0  0  0
  187.6770  177.4190  147.7460 C   0  0  0  0  0  3  0  0  0  0  0  0
  185.9630  177.9380  146.0150 C   0  0  0  0  0  3  0  0  0  0  0  0
  184.9640  178.5180  142.0220 C   0  0  0  0  0  3  0  0  0  0  0  0
  181.4640  179.0220  143.6480 C   0  0  0  0  0  2  0  0  0  0  0  0
  182.0800  178.8540  141.3060 C   0  0  0  0  0  2  0  0  0  0  0  0
  180.3130  179.2690  142.7600 C   0  0  0  0  0  0  0  0  0  0  0  0
  179.1400  179.4930  143.1590 O   0  0  0  0  0  0  0  0  0  0  0  0
  180.6810  179.2180  141.3950 N   0  0  0  0  0  0  0  0  0  0  0  0
  182.5370  178.7540  142.6960 N   0  0  0  0  0  0  0  0  0  0  0  0
  180.5030  178.8790  138.9940 C   0  0  0  0  0  1  0  0  0  0  0  0
  179.7730  179.2860  140.2620 C   0  0  0  0  0  2  0  0  0  0  0  0
  191.3460  176.7070  147.6080 C   0  0  0  0  0  2  0  0  0  0  0  0
  192.0400  175.9210  146.5110 C   0  0  0  0  0  1  0  0  0  0  0  0
  189.4240  177.6100  140.5760 O   0  0  0  0  0  0  0  0  0  0  0  0
  189.0270  177.1510  139.2890 C   0  0  0  0  0  2  0  0  0  0  0  0
  188.9820  178.2950  138.2930 C   0  0  0  0  0  2  0  0  0  0  0  0
  185.9640  177.4730  136.0530 C   0  0  0  0  0  3  0  0  0  0  0  0
  186.7230  178.0070  137.2040 C   0  0  0  0  0  0  0  0  0  0  0  0
  183.9660  176.6620  137.3320 C   0  0  0  0  0  3  0  0  0  0  0  0
  186.1440  178.5430  138.2420 N   0  0  0  0  0  0  0  0  0  0  0  0
  184.7600  176.8850  136.1070 C   0  0  0  0  0  3  0  0  0  0  0  0
  184.7130  178.7680  138.3880 C   0  0  0  0  0  2  0  0  0  0  0  0
  188.1500  177.9450  137.1470 N   0  0  0  0  0  2  0  0  0  0  0  0
  183.9670  177.4780  138.3850 C   0  0  0  0  0  3  0  0  0  0  0  0
  1 13  1  0  0  0  0
  2  9  2  0  0  0  0
  2 11  1  0  0  0  0
  4  1  2  0  0  0  0
  5  8  1  0  0  0  0
  6 26  1  0  0  0  0
  6  3  2  0  0  0  0
  7  6  1  0  0  0  0
  8 16  2  0  0  0  0
  9  4  1  0  0  0  0
 10  5  2  0  0  0  0
 12 11  1  6  0  0  0
 12  1  1  0  0  0  0
 12  8  1  0  0  0  0
 13  7  2  0  0  0  0
 13 14  1  0  0  0  0
 14 15  2  0  0  0  0
 15  3  1  0  0  0  0
 16 14  1  0  0  0  0
 17 11  2  0  0  0  0
 17 10  1  0  0  0  0
 19 22  1  0  0  0  0
 19 23  1  0  0  0  0
 20 21  2  0  0  0  0
 20 18  1  0  0  0  0
 22 20  1  0  0  0  0
 23 10  1  0  0  0  0
 23 18  1  0  0  0  0
 24 25  1  0  0  0  0
 25 22  1  0  0  0  0
 27 26  1  0  0  0  0
 28  9  1  0  0  0  0
 29 28  1  0  0  0  0
 30 29  1  0  0  0  0
 31 35  2  0  0  0  0
 31 32  1  0  0  0  0
 32 34  2  0  0  0  0
 33 38  2  0  0  0  0
 34 36  1  0  0  0  0
 35 33  1  0  0  0  0
 37 32  1  0  0  0  0
 37 30  1  0  0  0  0
 38 36  1  0  0  0  0
M  END
>  <MODEL>
2

>  <REMARK>
 VINA RESULT:     -10.1      1.261      1.963
  Name = 
  7 active torsions:
  status: ('A' for Active; 'I' for Inactive)
    1  A    between atoms: C_6  and  C_11
    2  A    between atoms: C_9  and  N_21
    3  A    between atoms: C_9  and  C_24
    4  A    between atoms: O_14  and  C_24
    5  A    between atoms: O_14  and  C_25
    6  A    between atoms: N_19  and  C_38
    7  A    between atoms: C_26  and  N_29
                            x       y       z     vdW  Elec       q    Type
                         _______ _______ _______ _____ _____    ______ ____

>  <TORSDO>
F 7

$$$$
=
 OpenBabel11042410443D

 38 43  0  0  1  0  0  0  0  0999 V2000
  187.8830  177.8820  144.0430 C   0  0  0  0  0  0  0  0  0  0  0  0
  187.0330  178.1510  141.3080 C   0  0  0  0  0  3  0  0  0  0  0  0
  188.9210  177.2380  148.1060 N   0  0  0  0  0  0  0  0  0  0  0  0
  188.6780  177.5360  143.0200 C   0  0  0  0  0  3  0  0  0  0  0  0
  184.1190  178.5530  144.4840 C   0  0  0  0  0  3  0  0  0  0  0  0
  189.8950  177.1240  147.1590 C   0  0  0  0  0  0  0  0  0  0  0  0
  189.5850  177.3270  145.8110 C   0  0  0  0  0  3  0  0  0  0  0  0
  185.5340  178.3600  144.8400 C   0  0  0  0  0  0  0  0  0  0  0  0
  188.2700  177.7400  141.6060 C   0  0  0  0  0  0  0  0  0  0  0  0
  183.7490  178.6600  143.1970 C   0  0  0  0  0  0  0  0  0  0  0  0
  186.0670  178.4190  142.3830 C   0  0  0  0  0  0  0  0  0  0  0  0
  186.5860  178.6170  143.7850 C   0  0  2  0  0  3  0  0  0  0  0  0
  188.2710  177.6550  145.4510 C   0  0  0  0  0  0  0  0  0  0  0  0
  187.2860  177.7680  146.4510 C   0  0  0  0  0  0  0  0  0  0  0  0
  187.6370  177.5440  147.7830 C   0  0  0  0  0  3  0  0  0  0  0  0
  185.8780  178.0410  146.0920 C   0  0  0  0  0  3  0  0  0  0  0  0
  184.7610  178.5130  142.1150 C   0  0  0  0  0  3  0  0  0  0  0  0
  181.3000  178.9440  143.8510 C   0  0  0  0  0  2  0  0  0  0  0  0
  181.8810  179.0780  141.4970 C   0  0  0  0  0  2  0  0  0  0  0  0
  180.1300  179.2730  143.0160 C   0  0  0  0  0  0  0  0  0  0  0  0
  178.9590  179.4210  143.4550 O   0  0  0  0  0  0  0  0  0  0  0  0
  180.4760  179.3980  141.6490 N   0  0  0  0  0  0  0  0  0  0  0  0
  182.3630  178.8180  142.8580 N   0  0  0  0  0  0  0  0  0  0  0  0
  179.3030  181.0680  140.3270 C   0  0  0  0  0  1  0  0  0  0  0  0
  179.5480  179.5840  140.5460 C   0  0  0  0  0  2  0  0  0  0  0  0
  191.2850  176.7550  147.5520 C   0  0  0  0  0  2  0  0  0  0  0  0
  191.9640  176.0090  146.4170 C   0  0  0  0  0  1  0  0  0  0  0  0
  189.1530  177.4690  140.5580 O   0  0  0  0  0  0  0  0  0  0  0  0
  190.3880  176.7940  140.7640 C   0  0  0  0  0  2  0  0  0  0  0  0
  191.3080  176.9650  139.5700 C   0  0  0  0  0  2  0  0  0  0  0  0
  189.6410  176.3990  136.1490 C   0  0  0  0  0  3  0  0  0  0  0  0
  190.2880  176.0760  137.4390 C   0  0  0  0  0  0  0  0  0  0  0  0
  190.7680  174.6330  134.7720 C   0  0  0  0  0  3  0  0  0  0  0  0
  190.6160  174.8610  137.7780 N   0  0  0  0  0  0  0  0  0  0  0  0
  189.8490  175.7700  134.9840 C   0  0  0  0  0  3  0  0  0  0  0  0
  190.3300  173.6620  137.0020 C   0  0  0  0  0  2  0  0  0  0  0  0
  190.5340  177.1510  138.3480 N   0  0  0  0  0  2  0  0  0  0  0  0
  191.0280  173.7000  135.6860 C   0  0  0  0  0  3  0  0  0  0  0  0
  1 13  1  0  0  0  0
  2  9  2  0  0  0  0
  2 11  1  0  0  0  0
  4  1  2  0  0  0  0
  5  8  1  0  0  0  0
  6 26  1  0  0  0  0
  6  3  2  0  0  0  0
  7  6  1  0  0  0  0
  8 16  2  0  0  0  0
  9  4  1  0  0  0  0
 10  5  2  0  0  0  0
 12 11  1  6  0  0  0
 12  1  1  0  0  0  0
 12  8  1  0  0  0  0
 13  7  2  0  0  0  0
 13 14  1  0  0  0  0
 14 15  2  0  0  0  0
 15  3  1  0  0  0  0
 16 14  1  0  0  0  0
 17 11  2  0  0  0  0
 17 10  1  0  0  0  0
 19 22  1  0  0  0  0
 19 23  1  0  0  0  0
 20 21  2  0  0  0  0
 20 18  1  0  0  0  0
 22 20  1  0  0  0  0
 23 10  1  0  0  0  0
 23 18  1  0  0  0  0
 24 25  1  0  0  0  0
 25 22  1  0  0  0  0
 27 26  1  0  0  0  0
 28 29  1  0  0  0  0
 28  9  1  0  0  0  0
 30 29  1  0  0  0  0
 31 32  1  0  0  0  0
 32 34  2  0  0  0  0
 32 37  1  0  0  0  0
 33 35  1  0  0  0  0
 33 38  2  0  0  0  0
 35 31  2  0  0  0  0
 36 34  1  0  0  0  0
 37 30  1  0  0  0  0
 38 36  1  0  0  0  0
M  END
>  <MODEL>
3

>  <REMARK>
 VINA RESULT:      -9.7      1.531      2.318
  Name = 
  7 active torsions:
  status: ('A' for Active; 'I' for Inactive)
    1  A    between atoms: C_6  and  C_11
    2  A    between atoms: C_9  and  N_21
    3  A    between atoms: C_9  and  C_24
    4  A    between atoms: O_14  and  C_24
    5  A    between atoms: O_14  and  C_25
    6  A    between atoms: N_19  and  C_38
    7  A    between atoms: C_26  and  N_29
                            x       y       z     vdW  Elec       q    Type
                         _______ _______ _______ _____ _____    ______ ____

>  <TORSDO>
F 7

$$$$
=
 OpenBabel11042410443D

 38 43  0  0  1  0  0  0  0  0999 V2000
  188.1060  178.0130  143.7380 C   0  0  0  0  0  0  0  0  0  0  0  0
  187.4130  178.4890  140.9870 C   0  0  0  0  0  3  0  0  0  0  0  0
  188.9270  177.0520  147.7870 N   0  0  0  0  0  0  0  0  0  0  0  0
  188.9820  177.8070  142.7440 C   0  0  0  0  0  3  0  0  0  0  0  0
  184.2880  178.4340  143.9830 C   0  0  0  0  0  3  0  0  0  0  0  0
  189.9630  177.0790  146.9020 C   0  0  0  0  0  0  0  0  0  0  0  0
  189.7260  177.3900  145.5600 C   0  0  0  0  0  3  0  0  0  0  0  0
  185.6880  178.2870  144.4150 C   0  0  0  0  0  0  0  0  0  0  0  0
  188.6510  178.1200  141.3300 C   0  0  0  0  0  0  0  0  0  0  0  0
  183.9930  178.6410  142.6890 C   0  0  0  0  0  0  0  0  0  0  0  0
  186.3670  178.6030  142.0150 C   0  0  0  0  0  0  0  0  0  0  0  0
  186.7860  178.6980  143.4600 C   0  0  2  0  0  3  0  0  0  0  0  0
  188.4190  177.6780  145.1430 C   0  0  0  0  0  0  0  0  0  0  0  0
  187.3690  177.6440  146.0810 C   0  0  0  0  0  0  0  0  0  0  0  0
  187.6500  177.3170  147.4080 C   0  0  0  0  0  3  0  0  0  0  0  0
  185.9720  177.8730  145.6530 C   0  0  0  0  0  3  0  0  0  0  0  0
  185.0770  178.6500  141.6680 C   0  0  0  0  0  3  0  0  0  0  0  0
  182.1670  178.4590  140.9170 C   0  0  0  0  0  2  0  0  0  0  0  0
  181.5060  178.9740  143.1950 C   0  0  0  0  0  2  0  0  0  0  0  0
  180.7010  178.5350  141.0580 C   0  0  0  0  0  0  0  0  0  0  0  0
  179.8860  178.3990  140.1080 O   0  0  0  0  0  0  0  0  0  0  0  0
  180.3130  178.7880  142.3940 N   0  0  0  0  0  0  0  0  0  0  0  0
  182.6230  178.7540  142.2720 N   0  0  0  0  0  0  0  0  0  0  0  0
  178.9770  179.3670  144.3420 C   0  0  0  0  0  1  0  0  0  0  0  0
  178.9600  179.0510  142.8560 C   0  0  0  0  0  2  0  0  0  0  0  0
  191.3460  176.7530  147.3530 C   0  0  0  0  0  2  0  0  0  0  0  0
  192.0480  175.9100  146.3030 C   0  0  0  0  0  1  0  0  0  0  0  0
  189.6120  177.9960  140.3230 O   0  0  0  0  0  0  0  0  0  0  0  0
  190.2380  176.7540  140.0240 C   0  0  0  0  0  2  0  0  0  0  0  0
  190.0270  176.3750  138.5700 C   0  0  0  0  0  2  0  0  0  0  0  0
  192.5070  173.8100  137.1270 C   0  0  0  0  0  3  0  0  0  0  0  0
  191.9630  175.1210  137.5440 C   0  0  0  0  0  0  0  0  0  0  0  0
  193.6170  174.5780  135.0140 C   0  0  0  0  0  3  0  0  0  0  0  0
  192.5770  176.2470  137.3050 N   0  0  0  0  0  0  0  0  0  0  0  0
  193.2280  173.5720  136.0230 C   0  0  0  0  0  3  0  0  0  0  0  0
  193.8890  176.3770  136.6870 C   0  0  0  0  0  2  0  0  0  0  0  0
  190.7240  175.1330  138.2570 N   0  0  0  0  0  2  0  0  0  0  0  0
  193.8750  175.8550  135.2910 C   0  0  0  0  0  3  0  0  0  0  0  0
  1 13  1  0  0  0  0
  2  9  2  0  0  0  0
  2 11  1  0  0  0  0
  4  1  2  0  0  0  0
  5  8  1  0  0  0  0
  6 26  1  0  0  0  0
  6  3  2  0  0  0  0
  7  6  1  0  0  0  0
  8 16  2  0  0  0  0
  9  4  1  0  0  0  0
 10  5  2  0  0  0  0
 12 11  1  6  0  0  0
 12  1  1  0  0  0  0
 12  8  1  0  0  0  0
 13  7  2  0  0  0  0
 13 14  1  0  0  0  0
 14 15  2  0  0  0  0
 15  3  1  0  0  0  0
 16 14  1  0  0  0  0
 17 11  2  0  0  0  0
 17 10  1  0  0  0  0
 18 20  1  0  0  0  0
 18 23  1  0  0  0  0
 20 22  1  0  0  0  0
 21 20  2  0  0  0  0
 22 25  1  0  0  0  0
 22 19  1  0  0  0  0
 23 10  1  0  0  0  0
 23 19  1  0  0  0  0
 25 24  1  0  0  0  0
 27 26  1  0  0  0  0
 28  9  1  0  0  0  0
 29 28  1  0  0  0  0
 30 29  1  0  0  0  0
 31 32  1  0  0  0  0
 32 37  1  0  0  0  0
 33 38  2  0  0  0  0
 33 35  1  0  0  0  0
 34 32  2  0  0  0  0
 35 31  2  0  0  0  0
 36 34  1  0  0  0  0
 37 30  1  0  0  0  0
 38 36  1  0  0  0  0
M  END
>  <MODEL>
4

>  <REMARK>
 VINA RESULT:      -9.7      1.716      2.710
  Name = 
  7 active torsions:
  status: ('A' for Active; 'I' for Inactive)
    1  A    between atoms: C_6  and  C_11
    2  A    between atoms: C_9  and  N_21
    3  A    between atoms: C_9  and  C_24
    4  A    between atoms: O_14  and  C_24
    5  A    between atoms: O_14  and  C_25
    6  A    between atoms: N_19  and  C_38
    7  A    between atoms: C_26  and  N_29
                            x       y       z     vdW  Elec       q    Type
                         _______ _______ _______ _____ _____    ______ ____

>  <TORSDO>
F 7

$$$$
=
 OpenBabel11042410443D

 38 43  0  0  1  0  0  0  0  0999 V2000
  183.7580  178.6840  141.4940 C   0  0  0  0  0  0  0  0  0  0  0  0
  186.5310  178.2580  140.8580 C   0  0  0  0  0  3  0  0  0  0  0  0
  179.7630  179.5710  142.6110 N   0  0  0  0  0  0  0  0  0  0  0  0
  184.2440  178.9150  140.2650 C   0  0  0  0  0  3  0  0  0  0  0  0
  185.2760  178.2320  145.0010 C   0  0  0  0  0  3  0  0  0  0  0  0
  180.0820  179.5680  141.2860 C   0  0  0  0  0  0  0  0  0  0  0  0
  181.3900  179.2830  140.8850 C   0  0  0  0  0  3  0  0  0  0  0  0
  184.2550  178.3810  143.9520 C   0  0  0  0  0  0  0  0  0  0  0  0
  185.6590  178.6280  139.9150 C   0  0  0  0  0  0  0  0  0  0  0  0
  186.5660  178.0500  144.6750 C   0  0  0  0  0  0  0  0  0  0  0  0
  186.0910  178.1170  142.2540 C   0  0  0  0  0  0  0  0  0  0  0  0
  184.6140  177.9960  142.5340 C   0  0  2  0  0  3  0  0  0  0  0  0
  182.3590  178.9940  141.8560 C   0  0  0  0  0  0  0  0  0  0  0  0
  181.9980  179.0030  143.2170 C   0  0  0  0  0  0  0  0  0  0  0  0
  180.6840  179.3060  143.5740 C   0  0  0  0  0  3  0  0  0  0  0  0
  183.0160  178.7730  144.2660 C   0  0  0  0  0  3  0  0  0  0  0  0
  186.9840  178.0680  143.2460 C   0  0  0  0  0  3  0  0  0  0  0  0
  187.3060  178.2530  147.1080 C   0  0  0  0  0  2  0  0  0  0  0  0
  188.8660  177.2970  145.5110 C   0  0  0  0  0  2  0  0  0  0  0  0
  188.5450  177.7930  147.7610 C   0  0  0  0  0  0  0  0  0  0  0  0
  188.7940  177.9210  148.9880 O   0  0  0  0  0  0  0  0  0  0  0  0
  189.4360  177.1930  146.8390 N   0  0  0  0  0  0  0  0  0  0  0  0
  187.5600  177.9350  145.7050 N   0  0  0  0  0  0  0  0  0  0  0  0
  191.6090  176.7520  145.8420 C   0  0  0  0  0  1  0  0  0  0  0  0
  190.7920  176.7540  147.1230 C   0  0  0  0  0  2  0  0  0  0  0  0
  179.0490  179.8960  140.2620 C   0  0  0  0  0  2  0  0  0  0  0  0
  179.0670  181.3850  139.9660 C   0  0  0  0  0  1  0  0  0  0  0  0
  186.1180  178.7780  138.6040 O   0  0  0  0  0  0  0  0  0  0  0  0
  187.0550  177.8800  138.0230 C   0  0  0  0  0  2  0  0  0  0  0  0
  188.3390  178.5990  137.6490 C   0  0  0  0  0  2  0  0  0  0  0  0
  191.4540  176.3510  137.8560 C   0  0  0  0  0  3  0  0  0  0  0  0
  190.3250  177.1900  138.3130 C   0  0  0  0  0  0  0  0  0  0  0  0
  193.1410  177.1390  139.5360 C   0  0  0  0  0  3  0  0  0  0  0  0
  190.1450  177.5090  139.5640 N   0  0  0  0  0  0  0  0  0  0  0  0
  192.6840  176.3280  138.3890 C   0  0  0  0  0  3  0  0  0  0  0  0
  190.9520  177.0360  140.6800 C   0  0  0  0  0  2  0  0  0  0  0  0
  189.3900  177.6400  137.3300 N   0  0  0  0  0  2  0  0  0  0  0  0
  192.3620  177.5030  140.5530 C   0  0  0  0  0  3  0  0  0  0  0  0
  1 13  1  0  0  0  0
  2 11  1  0  0  0  0
  3 15  1  0  0  0  0
  4  1  2  0  0  0  0
  6  3  2  0  0  0  0
  7  6  1  0  0  0  0
  7 13  2  0  0  0  0
  8 16  2  0  0  0  0
  8  5  1  0  0  0  0
  9  4  1  0  0  0  0
  9  2  2  0  0  0  0
 10  5  2  0  0  0  0
 10 23  1  0  0  0  0
 11 12  1  0  0  0  0
 11 17  2  0  0  0  0
 12  1  1  6  0  0  0
 12  8  1  0  0  0  0
 13 14  1  0  0  0  0
 14 15  2  0  0  0  0
 14 16  1  0  0  0  0
 17 10  1  0  0  0  0
 18 20  1  0  0  0  0
 19 23  1  0  0  0  0
 19 22  1  0  0  0  0
 20 21  2  0  0  0  0
 22 25  1  0  0  0  0
 22 20  1  0  0  0  0
 23 18  1  0  0  0  0
 24 25  1  0  0  0  0
 26  6  1  0  0  0  0
 27 26  1  0  0  0  0
 28  9  1  0  0  0  0
 29 28  1  0  0  0  0
 30 29  1  0  0  0  0
 31 32  1  0  0  0  0
 31 35  2  0  0  0  0
 32 34  2  0  0  0  0
 33 38  2  0  0  0  0
 34 36  1  0  0  0  0
 35 33  1  0  0  0  0
 37 30  1  0  0  0  0
 37 32  1  0  0  0  0
 38 36  1  0  0  0  0
M  END
>  <MODEL>
5

>  <REMARK>
 VINA RESULT:      -9.4      2.091      7.578
  Name = 
  7 active torsions:
  status: ('A' for Active; 'I' for Inactive)
    1  A    between atoms: C_6  and  C_11
    2  A    between atoms: C_9  and  N_21
    3  A    between atoms: C_9  and  C_24
    4  A    between atoms: O_14  and  C_24
    5  A    between atoms: O_14  and  C_25
    6  A    between atoms: N_19  and  C_38
    7  A    between atoms: C_26  and  N_29
                            x       y       z     vdW  Elec       q    Type
                         _______ _______ _______ _____ _____    ______ ____

>  <TORSDO>
F 7

$$$$
=
 OpenBabel11042410443D

 38 43  0  0  1  0  0  0  0  0999 V2000
  183.7790  178.6840  141.3300 C   0  0  0  0  0  0  0  0  0  0  0  0
  186.5830  178.2580  140.8500 C   0  0  0  0  0  3  0  0  0  0  0  0
  179.7280  179.5710  142.2230 N   0  0  0  0  0  0  0  0  0  0  0  0
  184.3330  178.9150  140.1310 C   0  0  0  0  0  3  0  0  0  0  0  0
  185.0990  178.2310  144.9170 C   0  0  0  0  0  3  0  0  0  0  0  0
  180.1210  179.5680  140.9170 C   0  0  0  0  0  0  0  0  0  0  0  0
  181.4500  179.2820  140.5900 C   0  0  0  0  0  3  0  0  0  0  0  0
  184.1380  178.3800  143.8120 C   0  0  0  0  0  0  0  0  0  0  0  0
  185.7650  178.6280  139.8600 C   0  0  0  0  0  0  0  0  0  0  0  0
  186.4050  178.0490  144.6630 C   0  0  0  0  0  0  0  0  0  0  0  0
  186.0660  178.1160  142.2200 C   0  0  0  0  0  0  0  0  0  0  0  0
  184.5760  177.9950  142.4170 C   0  0  2  0  0  3  0  0  0  0  0  0
  182.3630  178.9940  141.6140 C   0  0  0  0  0  0  0  0  0  0  0  0
  181.9260  179.0020  142.9530 C   0  0  0  0  0  0  0  0  0  0  0  0
  180.5940  179.3050  143.2350 C   0  0  0  0  0  3  0  0  0  0  0  0
  182.8840  178.7720  144.0560 C   0  0  0  0  0  3  0  0  0  0  0  0
  186.9030  178.0670  143.2600 C   0  0  0  0  0  3  0  0  0  0  0  0
  187.0090  178.2530  147.1330 C   0  0  0  0  0  2  0  0  0  0  0  0
  188.6540  177.2950  145.6270 C   0  0  0  0  0  2  0  0  0  0  0  0
  188.2090  177.7930  147.8550 C   0  0  0  0  0  0  0  0  0  0  0  0
  188.3890  177.9210  149.0950 O   0  0  0  0  0  0  0  0  0  0  0  0
  189.1490  177.1910  146.9850 N   0  0  0  0  0  0  0  0  0  0  0  0
  187.3400  177.9340  145.7480 N   0  0  0  0  0  0  0  0  0  0  0  0
  191.3730  176.7430  146.1100 C   0  0  0  0  0  1  0  0  0  0  0  0
  190.4870  176.7510  147.3440 C   0  0  0  0  0  2  0  0  0  0  0  0
  179.1470  179.8950  139.8380 C   0  0  0  0  0  2  0  0  0  0  0  0
  179.8790  180.4540  138.6310 C   0  0  0  0  0  1  0  0  0  0  0  0
  186.2970  178.7790  138.5770 O   0  0  0  0  0  0  0  0  0  0  0  0
  187.3250  177.9310  138.0790 C   0  0  0  0  0  2  0  0  0  0  0  0
  186.8580  177.1740  136.8490 C   0  0  0  0  0  2  0  0  0  0  0  0
  183.7190  175.1060  137.6700 C   0  0  0  0  0  3  0  0  0  0  0  0
  184.5450  176.1960  137.1070 C   0  0  0  0  0  0  0  0  0  0  0  0
  181.7510  176.5060  138.3400 C   0  0  0  0  0  3  0  0  0  0  0  0
  184.0310  177.2270  136.4980 N   0  0  0  0  0  0  0  0  0  0  0  0
  182.4990  175.2400  138.2090 C   0  0  0  0  0  3  0  0  0  0  0  0
  182.6160  177.4190  136.2120 C   0  0  0  0  0  2  0  0  0  0  0  0
  185.9660  176.0840  137.2250 N   0  0  0  0  0  2  0  0  0  0  0  0
  181.8260  177.5140  137.4730 C   0  0  0  0  0  3  0  0  0  0  0  0
  1 13  1  0  0  0  0
  2 11  1  0  0  0  0
  3 15  1  0  0  0  0
  4  1  2  0  0  0  0
  6  3  2  0  0  0  0
  7  6  1  0  0  0  0
  7 13  2  0  0  0  0
  8 16  2  0  0  0  0
  8  5  1  0  0  0  0
  9  4  1  0  0  0  0
  9  2  2  0  0  0  0
 10  5  2  0  0  0  0
 10 23  1  0  0  0  0
 11 12  1  0  0  0  0
 11 17  2  0  0  0  0
 12  1  1  6  0  0  0
 12  8  1  0  0  0  0
 13 14  1  0  0  0  0
 14 15  2  0  0  0  0
 14 16  1  0  0  0  0
 17 10  1  0  0  0  0
 18 20  1  0  0  0  0
 19 23  1  0  0  0  0
 19 22  1  0  0  0  0
 20 21  2  0  0  0  0
 22 25  1  0  0  0  0
 22 20  1  0  0  0  0
 23 18  1  0  0  0  0
 24 25  1  0  0  0  0
 26  6  1  0  0  0  0
 27 26  1  0  0  0  0
 28  9  1  0  0  0  0
 29 28  1  0  0  0  0
 30 37  1  0  0  0  0
 30 29  1  0  0  0  0
 31 35  2  0  0  0  0
 32 37  1  0  0  0  0
 32 31  1  0  0  0  0
 34 32  2  0  0  0  0
 35 33  1  0  0  0  0
 36 34  1  0  0  0  0
 36 38  1  0  0  0  0
 38 33  2  0  0  0  0
M  END
>  <MODEL>
6

>  <REMARK>
 VINA RESULT:      -9.3      2.523      7.489
  Name = 
  7 active torsions:
  status: ('A' for Active; 'I' for Inactive)
    1  A    between atoms: C_6  and  C_11
    2  A    between atoms: C_9  and  N_21
    3  A    between atoms: C_9  and  C_24
    4  A    between atoms: O_14  and  C_24
    5  A    between atoms: O_14  and  C_25
    6  A    between atoms: N_19  and  C_38
    7  A    between atoms: C_26  and  N_29
                            x       y       z     vdW  Elec       q    Type
                         _______ _______ _______ _____ _____    ______ ____

>  <TORSDO>
F 7

$$$$
=
 OpenBabel11042410443D

 38 43  0  0  1  0  0  0  0  0999 V2000
  188.5480  177.6720  143.2030 C   0  0  0  0  0  0  0  0  0  0  0  0
  187.4610  178.2780  140.6090 C   0  0  0  0  0  3  0  0  0  0  0  0
  190.4010  176.9800  146.9560 N   0  0  0  0  0  0  0  0  0  0  0  0
  187.4420  178.4160  143.0580 C   0  0  0  0  0  3  0  0  0  0  0  0
  191.4240  176.5580  140.9000 C   0  0  0  0  0  3  0  0  0  0  0  0
  189.1390  177.4970  146.9380 C   0  0  0  0  0  0  0  0  0  0  0  0
  188.5020  177.7400  145.7180 C   0  0  0  0  0  3  0  0  0  0  0  0
  190.6380  176.7430  142.1310 C   0  0  0  0  0  0  0  0  0  0  0  0
  186.8370  178.6710  141.7240 C   0  0  0  0  0  0  0  0  0  0  0  0
  190.8950  176.8640  139.7030 C   0  0  0  0  0  0  0  0  0  0  0  0
  188.7500  177.5740  140.6940 C   0  0  0  0  0  0  0  0  0  0  0  0
  189.1460  176.9560  142.0110 C   0  0  2  0  0  3  0  0  0  0  0  0
  189.1700  177.4390  144.5230 C   0  0  0  0  0  0  0  0  0  0  0  0
  190.4720  176.9030  144.5730 C   0  0  0  0  0  0  0  0  0  0  0  0
  191.0750  176.6900  145.8130 C   0  0  0  0  0  3  0  0  0  0  0  0
  191.2260  176.6450  143.3270 C   0  0  0  0  0  3  0  0  0  0  0  0
  189.5340  177.4620  139.6190 C   0  0  0  0  0  3  0  0  0  0  0  0
  193.1380  176.6570  138.5050 C   0  0  0  0  0  2  0  0  0  0  0  0
  191.1120  176.3780  137.1990 C   0  0  0  0  0  2  0  0  0  0  0  0
  193.4340  176.2990  137.1060 C   0  0  0  0  0  0  0  0  0  0  0  0
  194.5930  176.1960  136.6260 O   0  0  0  0  0  0  0  0  0  0  0  0
  192.2530  176.0890  136.3550 N   0  0  0  0  0  0  0  0  0  0  0  0
  191.6790  176.7080  138.5100 N   0  0  0  0  0  0  0  0  0  0  0  0
  190.9210  175.0720  134.5940 C   0  0  0  0  0  1  0  0  0  0  0  0
  192.1820  175.8530  134.9220 C   0  0  0  0  0  2  0  0  0  0  0  0
  188.4460  177.8320  148.2150 C   0  0  0  0  0  2  0  0  0  0  0  0
  187.1470  178.5620  147.9230 C   0  0  0  0  0  1  0  0  0  0  0  0
  185.6290  179.3610  141.6050 O   0  0  0  0  0  0  0  0  0  0  0  0
  184.3930  178.6910  141.3910 C   0  0  0  0  0  2  0  0  0  0  0  0
  183.7850  179.0810  140.0560 C   0  0  0  0  0  2  0  0  0  0  0  0
  186.2970  178.4010  137.2220 C   0  0  0  0  0  3  0  0  0  0  0  0
  185.1170  178.2160  138.0940 C   0  0  0  0  0  0  0  0  0  0  0  0
  186.9180  175.9830  137.0010 C   0  0  0  0  0  3  0  0  0  0  0  0
  184.3360  177.1760  138.0110 N   0  0  0  0  0  0  0  0  0  0  0  0
  187.0840  177.4280  136.7440 C   0  0  0  0  0  3  0  0  0  0  0  0
  184.4500  176.1120  137.0230 C   0  0  0  0  0  2  0  0  0  0  0  0
  184.8240  179.2420  139.0460 N   0  0  0  0  0  2  0  0  0  0  0  0
  185.7410  175.3830  137.1720 C   0  0  0  0  0  3  0  0  0  0  0  0
  1 13  1  0  0  0  0
  2 11  1  0  0  0  0
  2  9  2  0  0  0  0
  4  1  2  0  0  0  0
  5  8  1  0  0  0  0
  6  3  1  0  0  0  0
  6 26  1  0  0  0  0
  7  6  2  0  0  0  0
  8 16  2  0  0  0  0
  9  4  1  0  0  0  0
 10  5  2  0  0  0  0
 12 11  1  6  0  0  0
 12  8  1  0  0  0  0
 12  1  1  0  0  0  0
 13 14  2  0  0  0  0
 13  7  1  0  0  0  0
 14 15  1  0  0  0  0
 15  3  2  0  0  0  0
 16 14  1  0  0  0  0
 17 10  1  0  0  0  0
 17 11  2  0  0  0  0
 18 23  1  0  0  0  0
 19 23  1  0  0  0  0
 20 18  1  0  0  0  0
 21 20  2  0  0  0  0
 22 20  1  0  0  0  0
 22 19  1  0  0  0  0
 23 10  1  0  0  0  0
 24 25  1  0  0  0  0
 25 22  1  0  0  0  0
 27 26  1  0  0  0  0
 28  9  1  0  0  0  0
 29 28  1  0  0  0  0
 30 29  1  0  0  0  0
 31 32  1  0  0  0  0
 32 37  1  0  0  0  0
 33 38  2  0  0  0  0
 34 32  2  0  0  0  0
 35 33  1  0  0  0  0
 35 31  2  0  0  0  0
 36 38  1  0  0  0  0
 36 34  1  0  0  0  0
 37 30  1  0  0  0  0
M  END
>  <MODEL>
7

>  <REMARK>
 VINA RESULT:      -9.3      2.603      7.293
  Name = 
  7 active torsions:
  status: ('A' for Active; 'I' for Inactive)
    1  A    between atoms: C_6  and  C_11
    2  A    between atoms: C_9  and  N_21
    3  A    between atoms: C_9  and  C_24
    4  A    between atoms: O_14  and  C_24
    5  A    between atoms: O_14  and  C_25
    6  A    between atoms: N_19  and  C_38
    7  A    between atoms: C_26  and  N_29
                            x       y       z     vdW  Elec       q    Type
                         _______ _______ _______ _____ _____    ______ ____

>  <TORSDO>
F 7

$$$$
=
 OpenBabel11042410443D

 38 43  0  0  1  0  0  0  0  0999 V2000
  184.5220  178.6450  142.7440 C   0  0  0  0  0  0  0  0  0  0  0  0
  187.0330  178.0740  144.0260 C   0  0  0  0  0  3  0  0  0  0  0  0
  180.8490  179.2020  140.6950 N   0  0  0  0  0  0  0  0  0  0  0  0
  184.5950  178.3430  144.0480 C   0  0  0  0  0  3  0  0  0  0  0  0
  186.8510  178.2540  139.7050 C   0  0  0  0  0  3  0  0  0  0  0  0
  180.8380  179.1840  142.0590 C   0  0  0  0  0  0  0  0  0  0  0  0
  182.0310  179.0000  142.7630 C   0  0  0  0  0  3  0  0  0  0  0  0
  185.6390  178.5660  140.4790 C   0  0  0  0  0  0  0  0  0  0  0  0
  185.8960  178.1180  144.7290 C   0  0  0  0  0  0  0  0  0  0  0  0
  188.0060  177.9760  140.3310 C   0  0  0  0  0  0  0  0  0  0  0  0
  187.0050  178.2640  142.5680 C   0  0  0  0  0  0  0  0  0  0  0  0
  185.7850  178.8950  141.9480 C   0  0  2  0  0  3  0  0  0  0  0  0
  183.2300  178.8430  142.0540 C   0  0  0  0  0  0  0  0  0  0  0  0
  183.2100  178.8680  140.6470 C   0  0  0  0  0  0  0  0  0  0  0  0
  181.9950  179.0410  139.9840 C   0  0  0  0  0  3  0  0  0  0  0  0
  184.4500  178.6320  139.8740 C   0  0  0  0  0  3  0  0  0  0  0  0
  188.0520  177.9100  141.8180 C   0  0  0  0  0  3  0  0  0  0  0  0
  190.5070  177.5020  140.1540 C   0  0  0  0  0  2  0  0  0  0  0  0
  189.1410  177.2090  138.1680 C   0  0  0  0  0  2  0  0  0  0  0  0
  191.2920  176.9760  139.0220 C   0  0  0  0  0  0  0  0  0  0  0  0
  192.5300  176.7510  139.0570 O   0  0  0  0  0  0  0  0  0  0  0  0
  190.4880  176.7610  137.8780 N   0  0  0  0  0  0  0  0  0  0  0  0
  189.1770  177.6440  139.5680 N   0  0  0  0  0  0  0  0  0  0  0  0
  189.9020  176.6890  135.5200 C   0  0  0  0  0  1  0  0  0  0  0  0
  190.9640  176.3760  136.5590 C   0  0  0  0  0  2  0  0  0  0  0  0
  179.5540  179.3330  142.8020 C   0  0  0  0  0  2  0  0  0  0  0  0
  179.6510  178.6360  144.1480 C   0  0  0  0  0  1  0  0  0  0  0  0
  185.9570  177.9060  146.1090 O   0  0  0  0  0  0  0  0  0  0  0  0
  186.9850  177.1280  146.7100 C   0  0  0  0  0  2  0  0  0  0  0  0
  187.8820  177.9910  147.5790 C   0  0  0  0  0  2  0  0  0  0  0  0
  191.3800  176.5780  146.8230 C   0  0  0  0  0  3  0  0  0  0  0  0
  190.1400  177.3630  146.6410 C   0  0  0  0  0  0  0  0  0  0  0  0
  191.6810  175.8920  144.4310 C   0  0  0  0  0  3  0  0  0  0  0  0
  189.8900  178.0440  145.5580 N   0  0  0  0  0  0  0  0  0  0  0  0
  192.0540  175.9350  145.8590 C   0  0  0  0  0  3  0  0  0  0  0  0
  190.7990  178.2000  144.4310 C   0  0  0  0  0  2  0  0  0  0  0  0
  189.2000  177.3830  147.7180 N   0  0  0  0  0  2  0  0  0  0  0  0
  191.0770  176.8870  143.7840 C   0  0  0  0  0  3  0  0  0  0  0  0
  1  4  2  0  0  0  0
  2  9  2  0  0  0  0
  3  6  1  0  0  0  0
  4  9  1  0  0  0  0
  5 10  2  0  0  0  0
  5  8  1  0  0  0  0
  6  7  2  0  0  0  0
  6 26  1  0  0  0  0
  9 28  1  0  0  0  0
 10 17  1  0  0  0  0
 11  2  1  0  0  0  0
 12  8  1  6  0  0  0
 12 11  1  0  0  0  0
 12  1  1  0  0  0  0
 13  1  1  0  0  0  0
 13  7  1  0  0  0  0
 14 13  2  0  0  0  0
 15 14  1  0  0  0  0
 15  3  2  0  0  0  0
 16  8  2  0  0  0  0
 16 14  1  0  0  0  0
 17 11  2  0  0  0  0
 19 23  1  0  0  0  0
 20 21  2  0  0  0  0
 20 18  1  0  0  0  0
 22 19  1  0  0  0  0
 22 20  1  0  0  0  0
 23 18  1  0  0  0  0
 23 10  1  0  0  0  0
 24 25  1  0  0  0  0
 25 22  1  0  0  0  0
 26 27  1  0  0  0  0
 28 29  1  0  0  0  0
 29 30  1  0  0  0  0
 30 37  1  0  0  0  0
 32 31  1  0  0  0  0
 32 37  1  0  0  0  0
 33 35  1  0  0  0  0
 34 32  2  0  0  0  0
 35 31  2  0  0  0  0
 36 34  1  0  0  0  0
 38 33  2  0  0  0  0
 38 36  1  0  0  0  0
M  END
>  <MODEL>
8

>  <REMARK>
 VINA RESULT:      -9.2      2.038      8.694
  Name = 
  7 active torsions:
  status: ('A' for Active; 'I' for Inactive)
    1  A    between atoms: C_6  and  C_11
    2  A    between atoms: C_9  and  N_21
    3  A    between atoms: C_9  and  C_24
    4  A    between atoms: O_14  and  C_24
    5  A    between atoms: O_14  and  C_25
    6  A    between atoms: N_19  and  C_38
    7  A    between atoms: C_26  and  N_29
                            x       y       z     vdW  Elec       q    Type
                         _______ _______ _______ _____ _____    ______ ____

>  <TORSDO>
F 7

$$$$
=
 OpenBabel11042410443D

 38 43  0  0  1  0  0  0  0  0999 V2000
  188.6000  177.6330  143.5610 C   0  0  0  0  0  0  0  0  0  0  0  0
  187.4020  178.2340  141.0160 C   0  0  0  0  0  3  0  0  0  0  0  0
  190.6140  176.9470  147.2310 N   0  0  0  0  0  0  0  0  0  0  0  0
  187.4950  178.3870  143.4610 C   0  0  0  0  0  3  0  0  0  0  0  0
  191.3580  176.4790  141.1380 C   0  0  0  0  0  3  0  0  0  0  0  0
  189.3570  177.4760  147.2670 C   0  0  0  0  0  0  0  0  0  0  0  0
  188.6680  177.7160  146.0760 C   0  0  0  0  0  3  0  0  0  0  0  0
  190.6310  176.6790  142.4020 C   0  0  0  0  0  0  0  0  0  0  0  0
  186.8330  178.6390  142.1550 C   0  0  0  0  0  0  0  0  0  0  0  0
  190.7790  176.7830  139.9650 C   0  0  0  0  0  0  0  0  0  0  0  0
  188.6870  177.5180  141.0470 C   0  0  0  0  0  0  0  0  0  0  0  0
  189.1370  176.9050  142.3490 C   0  0  2  0  0  3  0  0  0  0  0  0
  189.2790  177.4020  144.8530 C   0  0  0  0  0  0  0  0  0  0  0  0
  190.5760  176.8550  144.8480 C   0  0  0  0  0  0  0  0  0  0  0  0
  191.2330  176.6430  146.0610 C   0  0  0  0  0  3  0  0  0  0  0  0
  191.2710  176.5820  143.5720 C   0  0  0  0  0  3  0  0  0  0  0  0
  189.4210  177.3920  139.9380 C   0  0  0  0  0  3  0  0  0  0  0  0
  192.9540  176.7770  138.6310 C   0  0  0  0  0  2  0  0  0  0  0  0
  190.9220  176.0590  137.5130 C   0  0  0  0  0  2  0  0  0  0  0  0
  193.2190  176.3120  137.2570 C   0  0  0  0  0  0  0  0  0  0  0  0
  194.3500  176.3290  136.7040 O   0  0  0  0  0  0  0  0  0  0  0  0
  192.0430  175.8500  136.6200 N   0  0  0  0  0  0  0  0  0  0  0  0
  191.5070  176.6120  138.7380 N   0  0  0  0  0  0  0  0  0  0  0  0
  190.7270  176.1340  134.5960 C   0  0  0  0  0  1  0  0  0  0  0  0
  191.9260  175.4480  135.2280 C   0  0  0  0  0  2  0  0  0  0  0  0
  188.7250  177.8240  148.5720 C   0  0  0  0  0  2  0  0  0  0  0  0
  187.3440  178.4110  148.3380 C   0  0  0  0  0  1  0  0  0  0  0  0
  185.6260  179.3390  142.0860 O   0  0  0  0  0  0  0  0  0  0  0  0
  184.8450  179.6170  143.2410 C   0  0  0  0  0  2  0  0  0  0  0  0
  183.9160  178.4590  143.5610 C   0  0  0  0  0  2  0  0  0  0  0  0
  180.2780  179.6890  143.3190 C   0  0  0  0  0  3  0  0  0  0  0  0
  181.5390  179.0240  142.9250 C   0  0  0  0  0  0  0  0  0  0  0  0
  179.6910  180.6260  141.0700 C   0  0  0  0  0  3  0  0  0  0  0  0
  181.7190  178.4950  141.7470 N   0  0  0  0  0  0  0  0  0  0  0  0
  179.4710  180.3880  142.5110 C   0  0  0  0  0  3  0  0  0  0  0  0
  180.7110  178.4050  140.7000 C   0  0  0  0  0  2  0  0  0  0  0  0
  182.5840  178.9470  143.8980 N   0  0  0  0  0  2  0  0  0  0  0  0
  180.2870  179.7610  140.2500 C   0  0  0  0  0  3  0  0  0  0  0  0
  1 13  1  0  0  0  0
  2 11  1  0  0  0  0
  2  9  2  0  0  0  0
  3  6  1  0  0  0  0
  4  1  2  0  0  0  0
  5  8  1  0  0  0  0
  6 26  1  0  0  0  0
  7  6  2  0  0  0  0
  8 16  2  0  0  0  0
  9  4  1  0  0  0  0
 10  5  2  0  0  0  0
 12 11  1  6  0  0  0
 12  8  1  0  0  0  0
 12  1  1  0  0  0  0
 13  7  1  0  0  0  0
 14 13  2  0  0  0  0
 14 15  1  0  0  0  0
 15  3  2  0  0  0  0
 16 14  1  0  0  0  0
 17 10  1  0  0  0  0
 17 11  2  0  0  0  0
 18 23  1  0  0  0  0
 19 23  1  0  0  0  0
 20 18  1  0  0  0  0
 21 20  2  0  0  0  0
 22 20  1  0  0  0  0
 22 19  1  0  0  0  0
 23 10  1  0  0  0  0
 24 25  1  0  0  0  0
 25 22  1  0  0  0  0
 27 26  1  0  0  0  0
 28  9  1  0  0  0  0
 28 29  1  0  0  0  0
 29 30  1  0  0  0  0
 30 37  1  0  0  0  0
 32 31  1  0  0  0  0
 32 37  1  0  0  0  0
 33 35  1  0  0  0  0
 34 32  2  0  0  0  0
 35 31  2  0  0  0  0
 36 34  1  0  0  0  0
 38 36  1  0  0  0  0
 38 33  2  0  0  0  0
M  END
>  <MODEL>
9

>  <REMARK>
 VINA RESULT:      -9.0      2.285      8.127
  Name = 
  7 active torsions:
  status: ('A' for Active; 'I' for Inactive)
    1  A    between atoms: C_6  and  C_11
    2  A    between atoms: C_9  and  N_21
    3  A    between atoms: C_9  and  C_24
    4  A    between atoms: O_14  and  C_24
    5  A    between atoms: O_14  and  C_25
    6  A    between atoms: N_19  and  C_38
    7  A    between atoms: C_26  and  N_29
                            x       y       z     vdW  Elec       q    Type
                         _______ _______ _______ _____ _____    ______ ____

>  <TORSDO>
F 7

$$$$
