=
 OpenBabel11042412293D

 27 28  0  0  0  0  0  0  0  0999 V2000
  187.9090  177.3470  145.8390 C   0  0  0  0  0  0  0  0  0  0  0  0
  189.5240  177.1770  147.6010 C   0  0  0  0  0  3  0  0  0  0  0  0
  186.9300  177.4400  143.8980 C   0  0  0  0  0  3  0  0  0  0  0  0
  188.1830  177.3350  147.2070 C   0  0  0  0  0  3  0  0  0  0  0  0
  188.2920  177.2610  143.6690 C   0  0  0  0  0  0  0  0  0  0  0  0
  190.5510  177.0370  146.6410 C   0  0  0  0  0  0  0  0  0  0  0  0
  190.2370  177.0530  145.2640 C   0  0  0  0  0  3  0  0  0  0  0  0
  186.7160  177.4900  145.2350 N   0  0  0  0  0  0  0  0  0  0  0  0
  188.9000  177.2100  144.9060 C   0  0  0  0  0  0  0  0  0  0  0  0
  192.4490  175.6000  147.5070 C   0  0  0  0  0  1  0  0  0  0  0  0
  191.9000  176.8790  147.0880 N   0  0  0  0  0  2  0  0  0  0  0  0
  185.4180  177.6300  145.8800 C   0  0  0  0  0  2  0  0  0  0  0  0
  185.3380  180.0120  145.8550 O   0  0  0  0  0  0  0  0  0  0  0  0
  184.7950  178.9320  145.5070 C   0  0  0  0  0  0  0  0  0  0  0  0
  182.5920  178.9720  144.0500 C   0  0  0  0  0  3  0  0  0  0  0  0
  183.5970  178.9550  144.7140 C   0  0  0  0  0  0  0  0  0  0  0  0
  188.9590  177.1980  142.3350 C   0  0  0  0  0  2  0  0  0  0  0  0
  188.3170  178.1700  141.3530 C   0  0  0  0  0  2  0  0  0  0  0  0
  189.7200  176.8920  139.6880 N   0  0  0  0  0  2  0  0  0  0  0  0
  188.6710  178.9000  139.1150 O   0  0  0  0  0  0  0  0  0  0  0  0
  188.9090  178.0280  139.9930 C   0  0  0  0  0  0  0  0  0  0  0  0
  190.2880  176.6960  138.3960 C   0  0  0  0  0  3  0  0  0  0  0  0
  191.5770  176.5580  138.2650 C   0  0  0  0  0  0  0  0  0  0  0  0
  192.8690  176.4190  138.1330 C   0  0  0  0  0  3  0  0  0  0  0  0
  193.5290  176.1400  136.8150 C   0  0  0  0  0  2  0  0  0  0  0  0
  194.7680  174.6780  137.9120 C   0  0  0  0  0  1  0  0  0  0  0  0
  194.8490  175.7090  136.9760 O   0  0  0  0  0  0  0  0  0  0  0  0
  1  4  1  0  0  0  0
  3  8  1  0  0  0  0
  4  2  2  0  0  0  0
  5  3  2  0  0  0  0
  5  9  1  0  0  0  0
  6 11  1  0  0  0  0
  6  2  1  0  0  0  0
  7  6  2  0  0  0  0
  8  1  1  0  0  0  0
  8 12  1  0  0  0  0
  9  7  1  0  0  0  0
  9  1  2  0  0  0  0
 11 10  1  0  0  0  0
 14 13  2  0  0  0  0
 14 12  1  0  0  0  0
 15 16  3  0  0  0  0
 16 14  1  0  0  0  0
 17  5  1  0  0  0  0
 18 17  1  0  0  0  0
 19 21  1  0  0  0  0
 20 21  2  0  0  0  0
 21 18  1  0  0  0  0
 22 19  1  0  0  0  0
 23 22  2  0  0  0  0
 24 23  2  0  0  0  0
 25 27  1  0  0  0  0
 25 24  1  0  0  0  0
 27 26  1  0  0  0  0
M  END
>  <MODEL>
1

>  <REMARK>
 VINA RESULT:      -7.7      0.000      0.000
  Name = 
  10 active torsions:
  status: ('A' for Active; 'I' for Inactive)
    1  A    between atoms: N_1  and  C_5
    2  A    between atoms: C_6  and  C_7
    3  A    between atoms: C_6  and  C_14
    4  A    between atoms: C_7  and  N_25
    5  A    between atoms: C_10  and  C_24
    6  A    between atoms: C_17  and  C_20
    7  A    between atoms: N_18  and  C_19
    8  A    between atoms: C_20  and  C_23
    9  A    between atoms: C_21  and  C_23
   10  A    between atoms: C_24  and  O_27
                            x       y       z     vdW  Elec       q    Type
                         _______ _______ _______ _____ _____    ______ ____

>  <TORSDO>
F 10

$$$$
=
 OpenBabel11042412293D

 27 28  0  0  0  0  0  0  0  0999 V2000
  187.6340  177.8040  146.0510 C   0  0  0  0  0  0  0  0  0  0  0  0
  185.5480  178.6410  146.8770 C   0  0  0  0  0  3  0  0  0  0  0  0
  189.2340  177.0540  144.7810 C   0  0  0  0  0  3  0  0  0  0  0  0
  186.8700  178.2390  147.1340 C   0  0  0  0  0  3  0  0  0  0  0  0
  188.1330  177.2970  143.9640 C   0  0  0  0  0  0  0  0  0  0  0  0
  185.0180  178.6020  145.5680 C   0  0  0  0  0  0  0  0  0  0  0  0
  185.8200  178.1560  144.4950 C   0  0  0  0  0  3  0  0  0  0  0  0
  188.9090  177.3710  146.0570 N   0  0  0  0  0  0  0  0  0  0  0  0
  187.1270  177.7660  144.7810 C   0  0  0  0  0  0  0  0  0  0  0  0
  183.0850  179.1620  144.0300 C   0  0  0  0  0  1  0  0  0  0  0  0
  183.6670  179.0200  145.3540 N   0  0  0  0  0  2  0  0  0  0  0  0
  189.8010  177.2920  147.2050 C   0  0  0  0  0  2  0  0  0  0  0  0
  191.6540  177.5350  145.7250 O   0  0  0  0  0  0  0  0  0  0  0  0
  191.1900  176.9840  146.7560 C   0  0  0  0  0  0  0  0  0  0  0  0
  192.6990  175.3390  148.1670 C   0  0  0  0  0  3  0  0  0  0  0  0
  192.0120  176.0900  147.5230 C   0  0  0  0  0  0  0  0  0  0  0  0
  188.0540  177.0400  142.4950 C   0  0  0  0  0  2  0  0  0  0  0  0
  188.2590  178.3230  141.7010 C   0  0  0  0  0  2  0  0  0  0  0  0
  189.6060  176.8540  140.1510 N   0  0  0  0  0  2  0  0  0  0  0  0
  188.5990  178.8240  139.3990 O   0  0  0  0  0  0  0  0  0  0  0  0
  188.8280  178.0350  140.3540 C   0  0  0  0  0  0  0  0  0  0  0  0
  190.1500  176.5190  138.8770 C   0  0  0  0  0  3  0  0  0  0  0  0
  191.4350  176.5920  138.6780 C   0  0  0  0  0  0  0  0  0  0  0  0
  192.7250  176.6630  138.4780 C   0  0  0  0  0  3  0  0  0  0  0  0
  193.3740  176.2600  137.1880 C   0  0  0  0  0  2  0  0  0  0  0  0
  195.1100  175.4030  136.1270 C   0  0  0  0  0  1  0  0  0  0  0  0
  194.5680  175.5660  137.4020 O   0  0  0  0  0  0  0  0  0  0  0  0
  1  8  1  0  0  0  0
  1  4  1  0  0  0  0
  2  4  2  0  0  0  0
  3  8  1  0  0  0  0
  5  9  1  0  0  0  0
  5  3  2  0  0  0  0
  6  2  1  0  0  0  0
  7  9  1  0  0  0  0
  7  6  2  0  0  0  0
  8 12  1  0  0  0  0
  9  1  2  0  0  0  0
 10 11  1  0  0  0  0
 11  6  1  0  0  0  0
 13 14  2  0  0  0  0
 14 12  1  0  0  0  0
 14 16  1  0  0  0  0
 16 15  3  0  0  0  0
 17  5  1  0  0  0  0
 18 17  1  0  0  0  0
 19 21  1  0  0  0  0
 20 21  2  0  0  0  0
 21 18  1  0  0  0  0
 22 19  1  0  0  0  0
 23 22  2  0  0  0  0
 24 23  2  0  0  0  0
 25 27  1  0  0  0  0
 25 24  1  0  0  0  0
 26 27  1  0  0  0  0
M  END
>  <MODEL>
2

>  <REMARK>
 VINA RESULT:      -7.6      1.717      4.788
  Name = 
  10 active torsions:
  status: ('A' for Active; 'I' for Inactive)
    1  A    between atoms: N_1  and  C_5
    2  A    between atoms: C_6  and  C_7
    3  A    between atoms: C_6  and  C_14
    4  A    between atoms: C_7  and  N_25
    5  A    between atoms: C_10  and  C_24
    6  A    between atoms: C_17  and  C_20
    7  A    between atoms: N_18  and  C_19
    8  A    between atoms: C_20  and  C_23
    9  A    between atoms: C_21  and  C_23
   10  A    between atoms: C_24  and  O_27
                            x       y       z     vdW  Elec       q    Type
                         _______ _______ _______ _____ _____    ______ ____

>  <TORSDO>
F 10

$$$$
=
 OpenBabel11042412293D

 27 28  0  0  0  0  0  0  0  0999 V2000
  188.0030  177.3030  145.9300 C   0  0  0  0  0  0  0  0  0  0  0  0
  189.7640  177.1670  147.5480 C   0  0  0  0  0  3  0  0  0  0  0  0
  186.8560  177.3310  144.0810 C   0  0  0  0  0  3  0  0  0  0  0  0
  188.3980  177.3510  147.2670 C   0  0  0  0  0  3  0  0  0  0  0  0
  188.1870  177.0960  143.7420 C   0  0  0  0  0  0  0  0  0  0  0  0
  190.6960  176.9440  146.5100 C   0  0  0  0  0  0  0  0  0  0  0  0
  190.2600  176.9020  145.1680 C   0  0  0  0  0  3  0  0  0  0  0  0
  186.7640  177.4560  145.4260 N   0  0  0  0  0  0  0  0  0  0  0  0
  188.9010  177.0860  144.9210 C   0  0  0  0  0  0  0  0  0  0  0  0
  192.5480  175.6790  147.6880 C   0  0  0  0  0  1  0  0  0  0  0  0
  192.0750  176.7640  146.8440 N   0  0  0  0  0  2  0  0  0  0  0  0
  185.5350  177.6710  146.1760 C   0  0  0  0  0  2  0  0  0  0  0  0
  185.4210  180.0490  146.0550 O   0  0  0  0  0  0  0  0  0  0  0  0
  184.8920  178.9480  145.7530 C   0  0  0  0  0  0  0  0  0  0  0  0
  182.6840  178.9010  144.3040 C   0  0  0  0  0  3  0  0  0  0  0  0
  183.6900  178.9230  144.9660 C   0  0  0  0  0  0  0  0  0  0  0  0
  188.7280  176.9430  142.3590 C   0  0  0  0  0  2  0  0  0  0  0  0
  188.7460  178.2780  141.6260 C   0  0  0  0  0  2  0  0  0  0  0  0
  186.3950  178.8260  140.8870 N   0  0  0  0  0  2  0  0  0  0  0  0
  187.9670  177.9420  139.4020 O   0  0  0  0  0  0  0  0  0  0  0  0
  187.6940  178.3240  140.5710 C   0  0  0  0  0  0  0  0  0  0  0  0
  185.3620  178.9160  139.9100 C   0  0  0  0  0  3  0  0  0  0  0  0
  184.1130  178.8440  140.2720 C   0  0  0  0  0  0  0  0  0  0  0  0
  182.8600  178.7720  140.6360 C   0  0  0  0  0  3  0  0  0  0  0  0
  181.7210  178.9290  139.6730 C   0  0  0  0  0  2  0  0  0  0  0  0
  180.4770  179.5130  141.4010 C   0  0  0  0  0  1  0  0  0  0  0  0
  180.8070  179.8950  140.1010 O   0  0  0  0  0  0  0  0  0  0  0  0
  1  4  1  0  0  0  0
  3  8  1  0  0  0  0
  4  2  2  0  0  0  0
  5  3  2  0  0  0  0
  5  9  1  0  0  0  0
  6 11  1  0  0  0  0
  6  2  1  0  0  0  0
  7  6  2  0  0  0  0
  8  1  1  0  0  0  0
  8 12  1  0  0  0  0
  9  7  1  0  0  0  0
  9  1  2  0  0  0  0
 11 10  1  0  0  0  0
 14 13  2  0  0  0  0
 14 12  1  0  0  0  0
 15 16  3  0  0  0  0
 16 14  1  0  0  0  0
 17  5  1  0  0  0  0
 18 17  1  0  0  0  0
 20 21  2  0  0  0  0
 21 19  1  0  0  0  0
 21 18  1  0  0  0  0
 22 23  2  0  0  0  0
 22 19  1  0  0  0  0
 23 24  2  0  0  0  0
 25 27  1  0  0  0  0
 25 24  1  0  0  0  0
 27 26  1  0  0  0  0
M  END
>  <MODEL>
3

>  <REMARK>
 VINA RESULT:      -7.6      3.104      5.607
  Name = 
  10 active torsions:
  status: ('A' for Active; 'I' for Inactive)
    1  A    between atoms: N_1  and  C_5
    2  A    between atoms: C_6  and  C_7
    3  A    between atoms: C_6  and  C_14
    4  A    between atoms: C_7  and  N_25
    5  A    between atoms: C_10  and  C_24
    6  A    between atoms: C_17  and  C_20
    7  A    between atoms: N_18  and  C_19
    8  A    between atoms: C_20  and  C_23
    9  A    between atoms: C_21  and  C_23
   10  A    between atoms: C_24  and  O_27
                            x       y       z     vdW  Elec       q    Type
                         _______ _______ _______ _____ _____    ______ ____

>  <TORSDO>
F 10

$$$$
=
 OpenBabel11042412293D

 27 28  0  0  0  0  0  0  0  0999 V2000
  189.5600  176.8630  144.0800 C   0  0  0  0  0  0  0  0  0  0  0  0
  191.6370  176.6430  145.2520 C   0  0  0  0  0  3  0  0  0  0  0  0
  187.4630  177.1430  143.5690 C   0  0  0  0  0  3  0  0  0  0  0  0
  190.9360  176.6400  144.0330 C   0  0  0  0  0  3  0  0  0  0  0  0
  187.5740  177.2610  144.9520 C   0  0  0  0  0  0  0  0  0  0  0  0
  190.9650  176.8610  146.4750 C   0  0  0  0  0  0  0  0  0  0  0  0
  189.5710  177.0830  146.4850 C   0  0  0  0  0  3  0  0  0  0  0  0
  188.6910  176.8980  143.0520 N   0  0  0  0  0  0  0  0  0  0  0  0
  188.9050  177.0770  145.2620 C   0  0  0  0  0  0  0  0  0  0  0  0
  192.6090  175.7650  148.0610 C   0  0  0  0  0  1  0  0  0  0  0  0
  191.7190  176.8540  147.6910 N   0  0  0  0  0  2  0  0  0  0  0  0
  189.0010  176.7480  141.6380 C   0  0  0  0  0  2  0  0  0  0  0  0
  188.4440  179.0620  141.5130 O   0  0  0  0  0  0  0  0  0  0  0  0
  188.6170  177.9820  140.8930 C   0  0  0  0  0  0  0  0  0  0  0  0
  188.3700  177.9160  138.2640 C   0  0  0  0  0  3  0  0  0  0  0  0
  188.4840  177.9470  139.4630 C   0  0  0  0  0  0  0  0  0  0  0  0
  186.4500  177.4880  145.9080 C   0  0  0  0  0  2  0  0  0  0  0  0
  185.9370  178.9190  145.8230 C   0  0  0  0  0  2  0  0  0  0  0  0
  184.5130  178.9070  143.7380 N   0  0  0  0  0  2  0  0  0  0  0  0
  183.5600  179.0480  145.8660 O   0  0  0  0  0  0  0  0  0  0  0  0
  184.6020  178.9710  145.1620 C   0  0  0  0  0  0  0  0  0  0  0  0
  183.2610  178.9260  143.0580 C   0  0  0  0  0  3  0  0  0  0  0  0
  183.1640  178.4340  141.8560 C   0  0  0  0  0  0  0  0  0  0  0  0
  183.0660  177.9390  140.6510 C   0  0  0  0  0  3  0  0  0  0  0  0
  181.7680  177.8620  139.9030 C   0  0  0  0  0  2  0  0  0  0  0  0
  179.7550  177.4060  140.6860 C   0  0  0  0  0  1  0  0  0  0  0  0
  180.7140  178.4170  140.6330 O   0  0  0  0  0  0  0  0  0  0  0  0
  1  9  1  0  0  0  0
  2  6  2  0  0  0  0
  3  5  2  0  0  0  0
  4  1  2  0  0  0  0
  4  2  1  0  0  0  0
  5  9  1  0  0  0  0
  5 17  1  0  0  0  0
  6  7  1  0  0  0  0
  6 11  1  0  0  0  0
  8  3  1  0  0  0  0
  8  1  1  0  0  0  0
  9  7  2  0  0  0  0
 11 10  1  0  0  0  0
 12  8  1  0  0  0  0
 14 13  2  0  0  0  0
 14 12  1  0  0  0  0
 15 16  3  0  0  0  0
 16 14  1  0  0  0  0
 18 17  1  0  0  0  0
 19 21  1  0  0  0  0
 21 18  1  0  0  0  0
 21 20  2  0  0  0  0
 22 19  1  0  0  0  0
 23 22  2  0  0  0  0
 24 23  2  0  0  0  0
 25 27  1  0  0  0  0
 25 24  1  0  0  0  0
 27 26  1  0  0  0  0
M  END
>  <MODEL>
4

>  <REMARK>
 VINA RESULT:      -7.4      2.990      7.092
  Name = 
  10 active torsions:
  status: ('A' for Active; 'I' for Inactive)
    1  A    between atoms: N_1  and  C_5
    2  A    between atoms: C_6  and  C_7
    3  A    between atoms: C_6  and  C_14
    4  A    between atoms: C_7  and  N_25
    5  A    between atoms: C_10  and  C_24
    6  A    between atoms: C_17  and  C_20
    7  A    between atoms: N_18  and  C_19
    8  A    between atoms: C_20  and  C_23
    9  A    between atoms: C_21  and  C_23
   10  A    between atoms: C_24  and  O_27
                            x       y       z     vdW  Elec       q    Type
                         _______ _______ _______ _____ _____    ______ ____

>  <TORSDO>
F 10

$$$$
=
 OpenBabel11042412293D

 27 28  0  0  0  0  0  0  0  0999 V2000
  189.7570  177.1560  141.9480 C   0  0  0  0  0  0  0  0  0  0  0  0
  190.3840  177.7220  139.7060 C   0  0  0  0  0  3  0  0  0  0  0  0
  188.6690  176.8830  143.8120 C   0  0  0  0  0  3  0  0  0  0  0  0
  190.7340  177.1710  140.9520 C   0  0  0  0  0  3  0  0  0  0  0  0
  187.7990  177.4860  142.9070 C   0  0  0  0  0  0  0  0  0  0  0  0
  189.0900  178.2430  139.4800 C   0  0  0  0  0  0  0  0  0  0  0  0
  188.1270  178.2120  140.5120 C   0  0  0  0  0  3  0  0  0  0  0  0
  189.8640  176.6900  143.2060 N   0  0  0  0  0  0  0  0  0  0  0  0
  188.5020  177.6570  141.7330 C   0  0  0  0  0  0  0  0  0  0  0  0
  187.8820  178.1470  137.2560 C   0  0  0  0  0  1  0  0  0  0  0  0
  188.7800  178.7950  138.1980 N   0  0  0  0  0  2  0  0  0  0  0  0
  191.0260  176.0520  143.8070 C   0  0  0  0  0  2  0  0  0  0  0  0
  191.8570  178.0950  144.7130 O   0  0  0  0  0  0  0  0  0  0  0  0
  191.5550  176.8910  144.9210 C   0  0  0  0  0  0  0  0  0  0  0  0
  191.7890  175.8760  147.3480 C   0  0  0  0  0  3  0  0  0  0  0  0
  191.6810  176.3390  146.2410 C   0  0  0  0  0  0  0  0  0  0  0  0
  186.3950  177.9110  143.1850 C   0  0  0  0  0  2  0  0  0  0  0  0
  186.1950  178.2110  144.6650 C   0  0  0  0  0  2  0  0  0  0  0  0
  183.8290  178.6250  143.8890 N   0  0  0  0  0  2  0  0  0  0  0  0
  184.4710  178.9980  146.1050 O   0  0  0  0  0  0  0  0  0  0  0  0
  184.7950  178.6430  144.9400 C   0  0  0  0  0  0  0  0  0  0  0  0
  182.4720  179.0030  144.1060 C   0  0  0  0  0  3  0  0  0  0  0  0
  181.6500  179.0900  143.0980 C   0  0  0  0  0  0  0  0  0  0  0  0
  180.8260  179.1760  142.0880 C   0  0  0  0  0  3  0  0  0  0  0  0
  179.3710  179.4990  142.2490 C   0  0  0  0  0  2  0  0  0  0  0  0
  178.9310  181.3880  141.1930 C   0  0  0  0  0  1  0  0  0  0  0  0
  179.1610  180.8640  142.4650 O   0  0  0  0  0  0  0  0  0  0  0  0
  1  8  1  0  0  0  0
  2  4  1  0  0  0  0
  4  1  2  0  0  0  0
  5 17  1  0  0  0  0
  5  3  2  0  0  0  0
  6  2  2  0  0  0  0
  6  7  1  0  0  0  0
  7  9  2  0  0  0  0
  8 12  1  0  0  0  0
  8  3  1  0  0  0  0
  9  1  1  0  0  0  0
  9  5  1  0  0  0  0
 10 11  1  0  0  0  0
 11  6  1  0  0  0  0
 12 14  1  0  0  0  0
 13 14  2  0  0  0  0
 14 16  1  0  0  0  0
 16 15  3  0  0  0  0
 17 18  1  0  0  0  0
 18 21  1  0  0  0  0
 19 22  1  0  0  0  0
 19 21  1  0  0  0  0
 21 20  2  0  0  0  0
 23 22  2  0  0  0  0
 24 25  1  0  0  0  0
 24 23  2  0  0  0  0
 25 27  1  0  0  0  0
 26 27  1  0  0  0  0
M  END
>  <MODEL>
5

>  <REMARK>
 VINA RESULT:      -7.3      3.116      9.055
  Name = 
  10 active torsions:
  status: ('A' for Active; 'I' for Inactive)
    1  A    between atoms: N_1  and  C_5
    2  A    between atoms: C_6  and  C_7
    3  A    between atoms: C_6  and  C_14
    4  A    between atoms: C_7  and  N_25
    5  A    between atoms: C_10  and  C_24
    6  A    between atoms: C_17  and  C_20
    7  A    between atoms: N_18  and  C_19
    8  A    between atoms: C_20  and  C_23
    9  A    between atoms: C_21  and  C_23
   10  A    between atoms: C_24  and  O_27
                            x       y       z     vdW  Elec       q    Type
                         _______ _______ _______ _____ _____    ______ ____

>  <TORSDO>
F 10

$$$$
=
 OpenBabel11042412293D

 27 28  0  0  0  0  0  0  0  0999 V2000
  187.2530  177.8480  146.0650 C   0  0  0  0  0  0  0  0  0  0  0  0
  188.7060  177.8350  147.9700 C   0  0  0  0  0  3  0  0  0  0  0  0
  186.4170  177.6320  144.0680 C   0  0  0  0  0  3  0  0  0  0  0  0
  187.4450  178.1250  147.4190 C   0  0  0  0  0  3  0  0  0  0  0  0
  187.7290  177.1670  144.0230 C   0  0  0  0  0  0  0  0  0  0  0  0
  189.7370  177.2850  147.1750 C   0  0  0  0  0  0  0  0  0  0  0  0
  189.5070  177.0180  145.8080 C   0  0  0  0  0  3  0  0  0  0  0  0
  186.1440  178.0460  145.3290 N   0  0  0  0  0  0  0  0  0  0  0  0
  188.2470  177.3140  145.2920 C   0  0  0  0  0  0  0  0  0  0  0  0
  191.9330  176.0240  147.2460 C   0  0  0  0  0  1  0  0  0  0  0  0
  191.0030  177.0080  147.7780 N   0  0  0  0  0  2  0  0  0  0  0  0
  184.8660  178.5650  145.7930 C   0  0  0  0  0  2  0  0  0  0  0  0
  184.7750  180.2160  144.0760 O   0  0  0  0  0  0  0  0  0  0  0  0
  184.1770  179.2960  144.6900 C   0  0  0  0  0  0  0  0  0  0  0  0
  181.7280  178.6090  143.9770 C   0  0  0  0  0  3  0  0  0  0  0  0
  182.8460  178.9210  144.3010 C   0  0  0  0  0  0  0  0  0  0  0  0
  188.4420  176.6610  142.8120 C   0  0  0  0  0  2  0  0  0  0  0  0
  189.2170  177.7780  142.1260 C   0  0  0  0  0  2  0  0  0  0  0  0
  189.3020  178.0010  139.6120 N   0  0  0  0  0  2  0  0  0  0  0  0
  187.3960  178.5940  140.8270 O   0  0  0  0  0  0  0  0  0  0  0  0
  188.5790  178.1580  140.8330 C   0  0  0  0  0  0  0  0  0  0  0  0
  188.7290  178.3250  138.3490 C   0  0  0  0  0  3  0  0  0  0  0  0
  188.0940  177.4130  137.6680 C   0  0  0  0  0  0  0  0  0  0  0  0
  187.4560  176.4990  136.9860 C   0  0  0  0  0  3  0  0  0  0  0  0
  186.7680  176.7850  135.6850 C   0  0  0  0  0  2  0  0  0  0  0  0
  184.7200  176.3640  136.3930 C   0  0  0  0  0  1  0  0  0  0  0  0
  185.5190  177.3820  135.8760 O   0  0  0  0  0  0  0  0  0  0  0  0
  1  4  1  0  0  0  0
  3  8  1  0  0  0  0
  4  2  2  0  0  0  0
  5  3  2  0  0  0  0
  5  9  1  0  0  0  0
  6 11  1  0  0  0  0
  6  2  1  0  0  0  0
  7  6  2  0  0  0  0
  8 12  1  0  0  0  0
  8  1  1  0  0  0  0
  9  7  1  0  0  0  0
  9  1  2  0  0  0  0
 10 11  1  0  0  0  0
 13 14  2  0  0  0  0
 14 12  1  0  0  0  0
 15 16  3  0  0  0  0
 16 14  1  0  0  0  0
 17  5  1  0  0  0  0
 18 17  1  0  0  0  0
 19 21  1  0  0  0  0
 20 21  2  0  0  0  0
 21 18  1  0  0  0  0
 22 19  1  0  0  0  0
 23 22  2  0  0  0  0
 24 23  2  0  0  0  0
 25 27  1  0  0  0  0
 25 24  1  0  0  0  0
 27 26  1  0  0  0  0
M  END
>  <MODEL>
6

>  <REMARK>
 VINA RESULT:      -7.3      2.832      3.438
  Name = 
  10 active torsions:
  status: ('A' for Active; 'I' for Inactive)
    1  A    between atoms: N_1  and  C_5
    2  A    between atoms: C_6  and  C_7
    3  A    between atoms: C_6  and  C_14
    4  A    between atoms: C_7  and  N_25
    5  A    between atoms: C_10  and  C_24
    6  A    between atoms: C_17  and  C_20
    7  A    between atoms: N_18  and  C_19
    8  A    between atoms: C_20  and  C_23
    9  A    between atoms: C_21  and  C_23
   10  A    between atoms: C_24  and  O_27
                            x       y       z     vdW  Elec       q    Type
                         _______ _______ _______ _____ _____    ______ ____

>  <TORSDO>
F 10

$$$$
=
 OpenBabel11042412293D

 27 28  0  0  0  0  0  0  0  0999 V2000
  187.7010  177.7440  146.1660 C   0  0  0  0  0  0  0  0  0  0  0  0
  185.6140  178.5970  146.9750 C   0  0  0  0  0  3  0  0  0  0  0  0
  189.3130  177.0020  144.9070 C   0  0  0  0  0  3  0  0  0  0  0  0
  186.9220  178.1580  147.2470 C   0  0  0  0  0  3  0  0  0  0  0  0
  188.2350  177.2970  144.0740 C   0  0  0  0  0  0  0  0  0  0  0  0
  185.1130  178.6130  145.6540 C   0  0  0  0  0  0  0  0  0  0  0  0
  185.9300  178.1870  144.5840 C   0  0  0  0  0  3  0  0  0  0  0  0
  188.9650  177.2830  146.1850 N   0  0  0  0  0  0  0  0  0  0  0  0
  187.2210  177.7590  144.8850 C   0  0  0  0  0  0  0  0  0  0  0  0
  183.1470  179.0430  144.1150 C   0  0  0  0  0  1  0  0  0  0  0  0
  183.7760  179.0670  145.4250 N   0  0  0  0  0  2  0  0  0  0  0  0
  189.8300  177.1460  147.3480 C   0  0  0  0  0  2  0  0  0  0  0  0
  191.6910  177.5030  145.9030 O   0  0  0  0  0  0  0  0  0  0  0  0
  191.2380  176.9130  146.9180 C   0  0  0  0  0  0  0  0  0  0  0  0
  192.8060  175.3220  148.3280 C   0  0  0  0  0  3  0  0  0  0  0  0
  192.0920  176.0490  147.6850 C   0  0  0  0  0  0  0  0  0  0  0  0
  188.1840  177.0910  142.5960 C   0  0  0  0  0  2  0  0  0  0  0  0
  189.5530  176.7110  142.0470 C   0  0  0  0  0  2  0  0  0  0  0  0
  188.8470  178.1290  140.0820 N   0  0  0  0  0  2  0  0  0  0  0  0
  190.5470  176.5380  139.8910 O   0  0  0  0  0  0  0  0  0  0  0  0
  189.6830  177.1020  140.6140 C   0  0  0  0  0  0  0  0  0  0  0  0
  188.9490  178.5580  138.7270 C   0  0  0  0  0  3  0  0  0  0  0  0
  188.0640  178.1720  137.8520 C   0  0  0  0  0  0  0  0  0  0  0  0
  187.1760  177.7860  136.9750 C   0  0  0  0  0  3  0  0  0  0  0  0
  187.1800  178.2530  135.5500 C   0  0  0  0  0  2  0  0  0  0  0  0
  186.5010  176.1860  135.1770 C   0  0  0  0  0  1  0  0  0  0  0  0
  187.3160  177.1890  134.6540 O   0  0  0  0  0  0  0  0  0  0  0  0
  1  8  1  0  0  0  0
  1  4  1  0  0  0  0
  2  4  2  0  0  0  0
  3  8  1  0  0  0  0
  5  9  1  0  0  0  0
  5  3  2  0  0  0  0
  6  2  1  0  0  0  0
  7  9  1  0  0  0  0
  7  6  2  0  0  0  0
  8 12  1  0  0  0  0
  9  1  2  0  0  0  0
 10 11  1  0  0  0  0
 11  6  1  0  0  0  0
 13 14  2  0  0  0  0
 14 12  1  0  0  0  0
 14 16  1  0  0  0  0
 16 15  3  0  0  0  0
 17  5  1  0  0  0  0
 18 17  1  0  0  0  0
 19 21  1  0  0  0  0
 20 21  2  0  0  0  0
 21 18  1  0  0  0  0
 22 19  1  0  0  0  0
 23 22  2  0  0  0  0
 24 23  2  0  0  0  0
 25 24  1  0  0  0  0
 27 26  1  0  0  0  0
 27 25  1  0  0  0  0
M  END
>  <MODEL>
7

>  <REMARK>
 VINA RESULT:      -7.3      2.826      5.704
  Name = 
  10 active torsions:
  status: ('A' for Active; 'I' for Inactive)
    1  A    between atoms: N_1  and  C_5
    2  A    between atoms: C_6  and  C_7
    3  A    between atoms: C_6  and  C_14
    4  A    between atoms: C_7  and  N_25
    5  A    between atoms: C_10  and  C_24
    6  A    between atoms: C_17  and  C_20
    7  A    between atoms: N_18  and  C_19
    8  A    between atoms: C_20  and  C_23
    9  A    between atoms: C_21  and  C_23
   10  A    between atoms: C_24  and  O_27
                            x       y       z     vdW  Elec       q    Type
                         _______ _______ _______ _____ _____    ______ ____

>  <TORSDO>
F 10

$$$$
=
 OpenBabel11042412293D

 27 28  0  0  0  0  0  0  0  0999 V2000
  187.6560  177.6930  145.9820 C   0  0  0  0  0  0  0  0  0  0  0  0
  185.6150  178.7060  146.7200 C   0  0  0  0  0  3  0  0  0  0  0  0
  189.2500  176.8320  144.7770 C   0  0  0  0  0  3  0  0  0  0  0  0
  186.8720  178.1610  147.0360 C   0  0  0  0  0  3  0  0  0  0  0  0
  188.2330  177.2180  143.9070 C   0  0  0  0  0  0  0  0  0  0  0  0
  185.1680  178.7720  145.3810 C   0  0  0  0  0  0  0  0  0  0  0  0
  185.9880  178.2880  144.3390 C   0  0  0  0  0  3  0  0  0  0  0  0
  188.8770  177.1310  146.0440 N   0  0  0  0  0  0  0  0  0  0  0  0
  187.2280  177.7560  144.6840 C   0  0  0  0  0  0  0  0  0  0  0  0
  182.8620  178.6350  144.3420 C   0  0  0  0  0  1  0  0  0  0  0  0
  183.8820  179.3340  145.1070 N   0  0  0  0  0  2  0  0  0  0  0  0
  189.6830  176.9160  147.2370 C   0  0  0  0  0  2  0  0  0  0  0  0
  191.5420  177.5010  145.8650 O   0  0  0  0  0  0  0  0  0  0  0  0
  191.1310  176.8850  146.8820 C   0  0  0  0  0  0  0  0  0  0  0  0
  192.8430  175.5990  148.4280 C   0  0  0  0  0  3  0  0  0  0  0  0
  192.0630  176.1860  147.7220 C   0  0  0  0  0  0  0  0  0  0  0  0
  188.2220  177.0270  142.4260 C   0  0  0  0  0  2  0  0  0  0  0  0
  188.4420  178.3480  141.7010 C   0  0  0  0  0  2  0  0  0  0  0  0
  186.0250  178.9000  141.2250 N   0  0  0  0  0  2  0  0  0  0  0  0
  187.5780  178.6280  139.5000 O   0  0  0  0  0  0  0  0  0  0  0  0
  187.3380  178.6220  140.7370 C   0  0  0  0  0  0  0  0  0  0  0  0
  184.9410  179.1940  140.3480 C   0  0  0  0  0  3  0  0  0  0  0  0
  183.8120  178.5560  140.4710 C   0  0  0  0  0  0  0  0  0  0  0  0
  182.6790  177.9170  140.5950 C   0  0  0  0  0  3  0  0  0  0  0  0
  181.4750  178.2220  139.7550 C   0  0  0  0  0  2  0  0  0  0  0  0
  180.4190  180.1040  140.2230 C   0  0  0  0  0  1  0  0  0  0  0  0
  181.4140  179.5730  139.4030 O   0  0  0  0  0  0  0  0  0  0  0  0
  1  8  1  0  0  0  0
  1  4  1  0  0  0  0
  2  4  2  0  0  0  0
  3  8  1  0  0  0  0
  5  9  1  0  0  0  0
  5  3  2  0  0  0  0
  6  2  1  0  0  0  0
  7  9  1  0  0  0  0
  7  6  2  0  0  0  0
  8 12  1  0  0  0  0
  9  1  2  0  0  0  0
 10 11  1  0  0  0  0
 11  6  1  0  0  0  0
 13 14  2  0  0  0  0
 14 12  1  0  0  0  0
 14 16  1  0  0  0  0
 16 15  3  0  0  0  0
 17  5  1  0  0  0  0
 18 17  1  0  0  0  0
 20 21  2  0  0  0  0
 21 19  1  0  0  0  0
 21 18  1  0  0  0  0
 22 23  2  0  0  0  0
 22 19  1  0  0  0  0
 23 24  2  0  0  0  0
 25 24  1  0  0  0  0
 27 25  1  0  0  0  0
 27 26  1  0  0  0  0
M  END
>  <MODEL>
8

>  <REMARK>
 VINA RESULT:      -7.2      3.665      7.346
  Name = 
  10 active torsions:
  status: ('A' for Active; 'I' for Inactive)
    1  A    between atoms: N_1  and  C_5
    2  A    between atoms: C_6  and  C_7
    3  A    between atoms: C_6  and  C_14
    4  A    between atoms: C_7  and  N_25
    5  A    between atoms: C_10  and  C_24
    6  A    between atoms: C_17  and  C_20
    7  A    between atoms: N_18  and  C_19
    8  A    between atoms: C_20  and  C_23
    9  A    between atoms: C_21  and  C_23
   10  A    between atoms: C_24  and  O_27
                            x       y       z     vdW  Elec       q    Type
                         _______ _______ _______ _____ _____    ______ ____

>  <TORSDO>
F 10

$$$$
=
 OpenBabel11042412293D

 27 28  0  0  0  0  0  0  0  0999 V2000
  185.9710  178.2480  144.7180 C   0  0  0  0  0  0  0  0  0  0  0  0
  185.9900  178.7860  147.0520 C   0  0  0  0  0  3  0  0  0  0  0  0
  186.4770  177.5060  142.7360 C   0  0  0  0  0  3  0  0  0  0  0  0
  185.3410  178.8520  145.8070 C   0  0  0  0  0  3  0  0  0  0  0  0
  187.5060  177.1310  143.5970 C   0  0  0  0  0  0  0  0  0  0  0  0
  187.2340  178.1310  147.1890 C   0  0  0  0  0  0  0  0  0  0  0  0
  187.8430  177.5300  146.0660 C   0  0  0  0  0  3  0  0  0  0  0  0
  185.5460  178.1900  143.4430 N   0  0  0  0  0  0  0  0  0  0  0  0
  187.1750  177.6110  144.8460 C   0  0  0  0  0  0  0  0  0  0  0  0
  189.2910  178.2480  148.6640 C   0  0  0  0  0  1  0  0  0  0  0  0
  187.8580  178.0900  148.4760 N   0  0  0  0  0  2  0  0  0  0  0  0
  184.2990  178.7200  142.9100 C   0  0  0  0  0  2  0  0  0  0  0  0
  185.1550  179.5740  140.8560 O   0  0  0  0  0  0  0  0  0  0  0  0
  184.3590  178.7800  141.4220 C   0  0  0  0  0  0  0  0  0  0  0  0
  182.8490  177.1700  139.9720 C   0  0  0  0  0  3  0  0  0  0  0  0
  183.5390  177.9040  140.6330 C   0  0  0  0  0  0  0  0  0  0  0  0
  188.7500  176.3990  143.2140 C   0  0  0  0  0  2  0  0  0  0  0  0
  189.7820  177.3450  142.6160 C   0  0  0  0  0  2  0  0  0  0  0  0
  189.0450  178.3000  140.3980 N   0  0  0  0  0  2  0  0  0  0  0  0
  190.3790  176.3850  140.5210 O   0  0  0  0  0  0  0  0  0  0  0  0
  189.7550  177.2970  141.1260 C   0  0  0  0  0  0  0  0  0  0  0  0
  189.0100  178.3140  138.9740 C   0  0  0  0  0  3  0  0  0  0  0  0
  187.9280  177.9510  138.3450 C   0  0  0  0  0  0  0  0  0  0  0  0
  186.8430  177.5890  137.7140 C   0  0  0  0  0  3  0  0  0  0  0  0
  186.7100  177.6450  136.2210 C   0  0  0  0  0  2  0  0  0  0  0  0
  185.0950  177.1310  134.8050 C   0  0  0  0  0  1  0  0  0  0  0  0
  185.9790  176.5630  135.7220 O   0  0  0  0  0  0  0  0  0  0  0  0
  1  9  2  0  0  0  0
  1  4  1  0  0  0  0
  2  6  1  0  0  0  0
  3  8  1  0  0  0  0
  3  5  2  0  0  0  0
  4  2  2  0  0  0  0
  5  9  1  0  0  0  0
  6 11  1  0  0  0  0
  7  6  2  0  0  0  0
  8  1  1  0  0  0  0
  9  7  1  0  0  0  0
 11 10  1  0  0  0  0
 12  8  1  0  0  0  0
 13 14  2  0  0  0  0
 14 12  1  0  0  0  0
 15 16  3  0  0  0  0
 16 14  1  0  0  0  0
 17  5  1  0  0  0  0
 18 17  1  0  0  0  0
 19 21  1  0  0  0  0
 20 21  2  0  0  0  0
 21 18  1  0  0  0  0
 22 19  1  0  0  0  0
 23 22  2  0  0  0  0
 24 23  2  0  0  0  0
 25 24  1  0  0  0  0
 26 27  1  0  0  0  0
 27 25  1  0  0  0  0
M  END
>  <MODEL>
9

>  <REMARK>
 VINA RESULT:      -7.2      3.089      4.354
  Name = 
  10 active torsions:
  status: ('A' for Active; 'I' for Inactive)
    1  A    between atoms: N_1  and  C_5
    2  A    between atoms: C_6  and  C_7
    3  A    between atoms: C_6  and  C_14
    4  A    between atoms: C_7  and  N_25
    5  A    between atoms: C_10  and  C_24
    6  A    between atoms: C_17  and  C_20
    7  A    between atoms: N_18  and  C_19
    8  A    between atoms: C_20  and  C_23
    9  A    between atoms: C_21  and  C_23
   10  A    between atoms: C_24  and  O_27
                            x       y       z     vdW  Elec       q    Type
                         _______ _______ _______ _____ _____    ______ ____

>  <TORSDO>
F 10

$$$$
