=
 OpenBabel11042409593D

 38 40  0  0  1  0  0  0  0  0999 V2000
  190.0610  177.4260  140.8200 C   0  0  0  0  0  0  0  0  0  0  0  0
  190.9470  176.8050  140.0270 C   0  0  0  0  0  3  0  0  0  0  0  0
  190.1140  177.2620  142.2960 C   0  0  0  0  0  0  0  0  0  0  0  0
  189.0870  177.3090  144.5160 C   0  0  0  0  0  0  0  0  0  0  0  0
  191.4680  177.0450  142.9590 C   0  0  0  0  0  3  0  0  0  0  0  0
  191.4320  176.7890  144.4610 C   0  0  0  0  0  3  0  0  0  0  0  0
  189.0310  177.3980  143.0800 C   0  0  0  0  0  0  0  0  0  0  0  0
  187.7100  177.7280  142.6830 N   0  0  0  0  0  0  0  0  0  0  0  0
  190.3340  176.9400  145.2130 C   0  0  0  0  0  0  0  0  0  0  0  0
  187.8730  177.5510  144.9880 C   0  0  0  0  0  2  0  0  0  0  0  0
  187.0420  177.8090  143.7940 C   0  0  0  0  0  0  0  0  0  0  0  0
  185.0140  178.5300  145.0550 C   0  0  0  0  0  3  0  0  0  0  0  0
  182.9350  178.9960  143.9040 C   0  0  0  0  0  3  0  0  0  0  0  0
  183.6780  178.9370  145.0870 C   0  0  0  0  0  3  0  0  0  0  0  0
  183.5230  178.6330  142.6900 C   0  0  0  0  0  3  0  0  0  0  0  0
  185.6190  178.1880  143.8370 C   0  0  0  0  0  0  0  0  0  0  0  0
  184.8640  178.2340  142.6550 C   0  0  0  0  0  3  0  0  0  0  0  0
  189.5870  177.3500  147.5540 C   0  0  0  0  0  1  0  0  0  0  0  0
  190.4240  176.7170  146.5940 O   0  0  0  0  0  0  0  0  0  0  0  0
  189.0360  178.3480  140.2290 C   0  0  0  0  0  2  0  0  0  0  0  0
  188.0480  177.6160  139.5750 O   0  0  0  0  0  0  0  0  0  0  0  0
  187.1880  178.5530  139.1040 N   0  0  0  0  0  2  0  0  0  0  0  0
  187.4160  178.6550  137.7250 N   0  0  0  0  0  2  0  0  0  0  0  0
  187.1570  177.3360  137.1640 C   0  0  0  0  0  2  0  0  0  0  0  0
  185.7520  177.2620  136.6690 C   0  0  0  0  0  3  0  0  0  0  0  0
  185.5220  177.2830  135.4710 O   0  0  0  0  0  0  0  0  0  0  0  0
  190.9590  176.9190  138.5370 C   0  0  0  0  0  2  0  0  0  0  0  0
  190.4520  175.6280  137.9200 C   0  0  0  0  0  2  0  0  0  0  0  0
  191.5020  174.6290  137.9650 N   0  0  0  0  0  2  0  0  0  0  0  0
  192.6710  175.2190  137.3340 C   0  0  0  0  0  2  0  0  0  0  0  0
  193.8000  174.2020  137.3050 C   0  0  0  0  0  2  0  0  0  0  0  0
  195.9300  173.9820  138.6480 C   0  0  0  0  0  0  0  0  0  0  0  0
  194.9980  174.7720  137.9010 N   0  0  0  0  0  2  0  0  0  0  0  0
  195.6940  172.7660  138.8800 O   0  0  0  0  0  0  0  0  0  0  0  0
  197.7420  175.4650  138.2380 O   0  0  0  0  0  1  0  0  0  0  0  0
  197.1840  174.5970  139.1790 C   0  0  1  0  0  3  0  0  0  0  0  0
  197.9630  175.0330  141.4160 O   0  0  0  0  0  1  0  0  0  0  0  0
  196.9450  175.3180  140.5020 C   0  0  0  0  0  2  0  0  0  0  0  0
  1  3  1  0  0  0  0
  2  1  2  0  0  0  0
  3  5  2  0  0  0  0
  3  7  1  0  0  0  0
  4 10  1  0  0  0  0
  4  9  1  0  0  0  0
  5  6  1  0  0  0  0
  6  9  2  0  0  0  0
  7  4  2  0  0  0  0
  8  7  1  0  0  0  0
  8 11  2  0  0  0  0
  9 19  1  0  0  0  0
 11 16  1  0  0  0  0
 11 10  1  0  0  0  0
 12 14  1  0  0  0  0
 13 14  2  0  0  0  0
 15 13  1  0  0  0  0
 16 12  2  0  0  0  0
 17 15  2  0  0  0  0
 17 16  1  0  0  0  0
 19 18  1  0  0  0  0
 20  1  1  0  0  0  0
 21 20  1  0  0  0  0
 22 21  1  0  0  0  0
 23 22  1  0  0  0  0
 24 23  1  0  0  0  0
 25 24  1  0  0  0  0
 26 25  2  0  0  0  0
 27  2  1  0  0  0  0
 28 29  1  0  0  0  0
 28 27  1  0  0  0  0
 30 29  1  0  0  0  0
 31 30  1  0  0  0  0
 31 33  1  0  0  0  0
 32 34  2  0  0  0  0
 32 36  1  0  0  0  0
 33 32  1  0  0  0  0
 36 35  1  6  0  0  0
 36 38  1  0  0  0  0
 38 37  1  0  0  0  0
M  END
>  <MODEL>
1

>  <REMARK>
 VINA RESULT:      -8.1      0.000      0.000
  Name = 
  17 active torsions:
  status: ('A' for Active; 'I' for Inactive)
    1  A    between atoms: C_1  and  C_11
    2  A    between atoms: C_3  and  C_38
    3  A    between atoms: N_4  and  C_23
    4  A    between atoms: C_5  and  C_6
    5  A    between atoms: C_5  and  N_7
    6  A    between atoms: C_6  and  C_21
    7  A    between atoms: N_7  and  C_31
    8  A    between atoms: C_11  and  C_27
    9  A    between atoms: N_18  and  N_20
   10  A    between atoms: N_18  and  O_36
   11  A    between atoms: C_19  and  C_32
   12  A    between atoms: N_20  and  C_32
   13  A    between atoms: C_23  and  C_31
   14  A    between atoms: C_24  and  C_38
   15  A    between atoms: O_26  and  C_28
   16  A    between atoms: C_27  and  O_36
   17  A    between atoms: C_30  and  C_35
                            x       y       z     vdW  Elec       q    Type
                         _______ _______ _______ _____ _____    ______ ____

>  <TORSDO>
F 17

$$$$
=
 OpenBabel11042409593D

 38 40  0  0  1  0  0  0  0  0999 V2000
  189.9880  177.3520  140.8830 C   0  0  0  0  0  0  0  0  0  0  0  0
  190.9180  176.8030  140.0860 C   0  0  0  0  0  3  0  0  0  0  0  0
  190.0680  177.2030  142.3590 C   0  0  0  0  0  0  0  0  0  0  0  0
  189.0880  177.3050  144.5990 C   0  0  0  0  0  0  0  0  0  0  0  0
  191.4280  176.9530  142.9970 C   0  0  0  0  0  3  0  0  0  0  0  0
  191.4150  176.7150  144.5020 C   0  0  0  0  0  3  0  0  0  0  0  0
  189.0050  177.3800  143.1640 C   0  0  0  0  0  0  0  0  0  0  0  0
  187.6860  177.7450  142.7890 N   0  0  0  0  0  0  0  0  0  0  0  0
  190.3380  176.9070  145.2740 C   0  0  0  0  0  0  0  0  0  0  0  0
  187.8920  177.5900  145.0920 C   0  0  0  0  0  2  0  0  0  0  0  0
  187.0440  177.8590  143.9120 C   0  0  0  0  0  0  0  0  0  0  0  0
  184.8560  178.3360  142.8140 C   0  0  0  0  0  3  0  0  0  0  0  0
  182.9280  178.9990  144.1210 C   0  0  0  0  0  3  0  0  0  0  0  0
  183.5070  178.6900  142.8870 C   0  0  0  0  0  3  0  0  0  0  0  0
  183.7030  178.9710  145.2830 C   0  0  0  0  0  3  0  0  0  0  0  0
  185.6350  178.2810  143.9800 C   0  0  0  0  0  0  0  0  0  0  0  0
  185.0530  178.6080  145.2140 C   0  0  0  0  0  3  0  0  0  0  0  0
  191.6730  176.3880  147.3120 C   0  0  0  0  0  1  0  0  0  0  0  0
  190.4500  176.6970  146.6560 O   0  0  0  0  0  0  0  0  0  0  0  0
  188.8840  178.1790  140.2950 C   0  0  0  0  0  2  0  0  0  0  0  0
  188.1300  177.4160  139.4060 O   0  0  0  0  0  0  0  0  0  0  0  0
  187.3510  178.3200  138.7610 N   0  0  0  0  0  2  0  0  0  0  0  0
  186.4370  177.5880  137.9900 N   0  0  0  0  0  2  0  0  0  0  0  0
  185.2110  178.3730  137.9460 C   0  0  0  0  0  2  0  0  0  0  0  0
  184.9070  178.9160  139.3010 C   0  0  0  0  0  3  0  0  0  0  0  0
  184.3790  180.0090  139.4190 O   0  0  0  0  0  0  0  0  0  0  0  0
  190.9080  176.9080  138.5950 C   0  0  0  0  0  2  0  0  0  0  0  0
  190.7980  175.5220  137.9850 C   0  0  0  0  0  2  0  0  0  0  0  0
  192.1150  175.0670  137.5830 N   0  0  0  0  0  2  0  0  0  0  0  0
  192.7080  176.1390  136.7990 C   0  0  0  0  0  2  0  0  0  0  0  0
  193.7040  175.5520  135.8120 C   0  0  0  0  0  2  0  0  0  0  0  0
  196.1000  175.1730  136.5220 C   0  0  0  0  0  0  0  0  0  0  0  0
  194.7200  174.7920  136.5230 N   0  0  0  0  0  2  0  0  0  0  0  0
  196.4920  176.1490  135.8280 O   0  0  0  0  0  0  0  0  0  0  0  0
  197.9600  175.2690  137.9990 O   0  0  0  0  0  1  0  0  0  0  0  0
  197.0950  174.4030  137.3270 C   0  0  1  0  0  3  0  0  0  0  0  0
  196.2130  174.0700  139.5440 O   0  0  0  0  0  1  0  0  0  0  0  0
  196.4160  173.4510  138.3070 C   0  0  0  0  0  2  0  0  0  0  0  0
  1  3  1  0  0  0  0
  2  1  2  0  0  0  0
  3  5  2  0  0  0  0
  3  7  1  0  0  0  0
  4 10  1  0  0  0  0
  4  9  1  0  0  0  0
  5  6  1  0  0  0  0
  6  9  2  0  0  0  0
  7  4  2  0  0  0  0
  8  7  1  0  0  0  0
  8 11  2  0  0  0  0
  9 19  1  0  0  0  0
 11 16  1  0  0  0  0
 11 10  1  0  0  0  0
 12 14  2  0  0  0  0
 12 16  1  0  0  0  0
 13 15  2  0  0  0  0
 14 13  1  0  0  0  0
 16 17  2  0  0  0  0
 17 15  1  0  0  0  0
 19 18  1  0  0  0  0
 20  1  1  0  0  0  0
 21 20  1  0  0  0  0
 22 21  1  0  0  0  0
 23 22  1  0  0  0  0
 24 23  1  0  0  0  0
 24 25  1  0  0  0  0
 25 26  2  0  0  0  0
 27  2  1  0  0  0  0
 28 27  1  0  0  0  0
 29 28  1  0  0  0  0
 30 29  1  0  0  0  0
 31 33  1  0  0  0  0
 31 30  1  0  0  0  0
 32 33  1  0  0  0  0
 32 36  1  0  0  0  0
 34 32  2  0  0  0  0
 36 35  1  1  0  0  0
 36 38  1  0  0  0  0
 38 37  1  0  0  0  0
M  END
>  <MODEL>
2

>  <REMARK>
 VINA RESULT:      -8.1      1.344      1.827
  Name = 
  17 active torsions:
  status: ('A' for Active; 'I' for Inactive)
    1  A    between atoms: C_1  and  C_11
    2  A    between atoms: C_3  and  C_38
    3  A    between atoms: N_4  and  C_23
    4  A    between atoms: C_5  and  C_6
    5  A    between atoms: C_5  and  N_7
    6  A    between atoms: C_6  and  C_21
    7  A    between atoms: N_7  and  C_31
    8  A    between atoms: C_11  and  C_27
    9  A    between atoms: N_18  and  N_20
   10  A    between atoms: N_18  and  O_36
   11  A    between atoms: C_19  and  C_32
   12  A    between atoms: N_20  and  C_32
   13  A    between atoms: C_23  and  C_31
   14  A    between atoms: C_24  and  C_38
   15  A    between atoms: O_26  and  C_28
   16  A    between atoms: C_27  and  O_36
   17  A    between atoms: C_30  and  C_35
                            x       y       z     vdW  Elec       q    Type
                         _______ _______ _______ _____ _____    ______ ____

>  <TORSDO>
F 17

$$$$
=
 OpenBabel11042409593D

 38 40  0  0  1  0  0  0  0  0999 V2000
  190.1480  177.3670  140.9970 C   0  0  0  0  0  0  0  0  0  0  0  0
  189.0610  177.9050  140.4220 C   0  0  0  0  0  3  0  0  0  0  0  0
  190.2350  177.2230  142.4730 C   0  0  0  0  0  0  0  0  0  0  0  0
  189.2600  177.3050  144.7150 C   0  0  0  0  0  0  0  0  0  0  0  0
  191.6030  177.0090  143.1070 C   0  0  0  0  0  3  0  0  0  0  0  0
  191.6010  176.7730  144.6120 C   0  0  0  0  0  3  0  0  0  0  0  0
  189.1710  177.3750  143.2800 C   0  0  0  0  0  0  0  0  0  0  0  0
  187.8430  177.7050  142.9090 N   0  0  0  0  0  0  0  0  0  0  0  0
  190.5210  176.9400  145.3880 C   0  0  0  0  0  0  0  0  0  0  0  0
  188.0590  177.5590  145.2120 C   0  0  0  0  0  2  0  0  0  0  0  0
  187.2010  177.8050  144.0340 C   0  0  0  0  0  0  0  0  0  0  0  0
  185.1890  178.4850  145.3410 C   0  0  0  0  0  3  0  0  0  0  0  0
  183.1030  179.0130  144.2290 C   0  0  0  0  0  3  0  0  0  0  0  0
  183.8560  178.8990  145.4020 C   0  0  0  0  0  3  0  0  0  0  0  0
  183.6790  178.6970  142.9960 C   0  0  0  0  0  3  0  0  0  0  0  0
  185.7810  178.1910  144.1050 C   0  0  0  0  0  0  0  0  0  0  0  0
  185.0170  178.2910  142.9330 C   0  0  0  0  0  3  0  0  0  0  0  0
  191.7270  176.0420  147.3740 C   0  0  0  0  0  1  0  0  0  0  0  0
  190.6430  176.7350  146.7700 O   0  0  0  0  0  0  0  0  0  0  0  0
  191.2690  176.8450  140.1490 C   0  0  0  0  0  2  0  0  0  0  0  0
  192.3550  177.7170  140.1920 O   0  0  0  0  0  0  0  0  0  0  0  0
  193.3220  177.0880  139.4800 N   0  0  0  0  0  2  0  0  0  0  0  0
  192.7300  176.6610  138.2830 N   0  0  0  0  0  2  0  0  0  0  0  0
  193.5850  175.6100  137.7500 C   0  0  0  0  0  2  0  0  0  0  0  0
  192.7760  174.3870  137.4780 C   0  0  0  0  0  3  0  0  0  0  0  0
  191.5990  174.3460  137.7990 O   0  0  0  0  0  0  0  0  0  0  0  0
  188.8970  178.0830  138.9470 C   0  0  0  0  0  2  0  0  0  0  0  0
  188.4200  176.7830  138.3240 C   0  0  0  0  0  2  0  0  0  0  0  0
  187.6320  177.0760  137.1430 N   0  0  0  0  0  2  0  0  0  0  0  0
  186.6670  175.9980  137.0030 C   0  0  0  0  0  2  0  0  0  0  0  0
  185.2660  176.5800  136.9070 C   0  0  0  0  0  2  0  0  0  0  0  0
  183.8160  178.2420  138.1400 C   0  0  0  0  0  0  0  0  0  0  0  0
  185.0590  177.5530  137.9680 N   0  0  0  0  0  2  0  0  0  0  0  0
  182.8770  178.0810  137.3160 O   0  0  0  0  0  0  0  0  0  0  0  0
  184.0870  180.4560  138.9640 O   0  0  0  0  0  1  0  0  0  0  0  0
  183.6260  179.1780  139.2890 C   0  0  1  0  0  3  0  0  0  0  0  0
  181.7570  177.9870  140.2320 O   0  0  0  0  0  1  0  0  0  0  0  0
  182.1710  179.2300  139.7450 C   0  0  0  0  0  2  0  0  0  0  0  0
  1  3  1  0  0  0  0
  2  1  2  0  0  0  0
  3  5  2  0  0  0  0
  3  7  1  0  0  0  0
  4 10  1  0  0  0  0
  4  9  1  0  0  0  0
  5  6  1  0  0  0  0
  6  9  2  0  0  0  0
  7  4  2  0  0  0  0
  8  7  1  0  0  0  0
  8 11  2  0  0  0  0
  9 19  1  0  0  0  0
 11 16  1  0  0  0  0
 11 10  1  0  0  0  0
 12 14  1  0  0  0  0
 13 14  2  0  0  0  0
 15 13  1  0  0  0  0
 16 12  2  0  0  0  0
 17 15  2  0  0  0  0
 17 16  1  0  0  0  0
 19 18  1  0  0  0  0
 20 21  1  0  0  0  0
 20  1  1  0  0  0  0
 22 21  1  0  0  0  0
 23 22  1  0  0  0  0
 24 23  1  0  0  0  0
 25 24  1  0  0  0  0
 25 26  2  0  0  0  0
 27  2  1  0  0  0  0
 28 27  1  0  0  0  0
 29 28  1  0  0  0  0
 30 29  1  0  0  0  0
 31 30  1  0  0  0  0
 31 33  1  0  0  0  0
 32 36  1  0  0  0  0
 33 32  1  0  0  0  0
 34 32  2  0  0  0  0
 36 35  1  6  0  0  0
 36 38  1  0  0  0  0
 38 37  1  0  0  0  0
M  END
>  <MODEL>
3

>  <REMARK>
 VINA RESULT:      -7.9      2.387      6.890
  Name = 
  17 active torsions:
  status: ('A' for Active; 'I' for Inactive)
    1  A    between atoms: C_1  and  C_11
    2  A    between atoms: C_3  and  C_38
    3  A    between atoms: N_4  and  C_23
    4  A    between atoms: C_5  and  C_6
    5  A    between atoms: C_5  and  N_7
    6  A    between atoms: C_6  and  C_21
    7  A    between atoms: N_7  and  C_31
    8  A    between atoms: C_11  and  C_27
    9  A    between atoms: N_18  and  N_20
   10  A    between atoms: N_18  and  O_36
   11  A    between atoms: C_19  and  C_32
   12  A    between atoms: N_20  and  C_32
   13  A    between atoms: C_23  and  C_31
   14  A    between atoms: C_24  and  C_38
   15  A    between atoms: O_26  and  C_28
   16  A    between atoms: C_27  and  O_36
   17  A    between atoms: C_30  and  C_35
                            x       y       z     vdW  Elec       q    Type
                         _______ _______ _______ _____ _____    ______ ____

>  <TORSDO>
F 17

$$$$
=
 OpenBabel11042409593D

 38 40  0  0  1  0  0  0  0  0999 V2000
  189.9060  177.5530  140.3660 C   0  0  0  0  0  0  0  0  0  0  0  0
  188.8330  178.1960  139.8790 C   0  0  0  0  0  3  0  0  0  0  0  0
  190.0780  177.3600  141.8290 C   0  0  0  0  0  0  0  0  0  0  0  0
  189.2330  177.3670  144.1250 C   0  0  0  0  0  0  0  0  0  0  0  0
  191.4790  177.1250  142.3760 C   0  0  0  0  0  3  0  0  0  0  0  0
  191.5630  176.8400  143.8710 C   0  0  0  0  0  3  0  0  0  0  0  0
  189.0620  177.4840  142.7000 C   0  0  0  0  0  0  0  0  0  0  0  0
  187.7140  177.8260  142.4170 N   0  0  0  0  0  0  0  0  0  0  0  0
  190.5300  176.9800  144.7110 C   0  0  0  0  0  0  0  0  0  0  0  0
  188.0620  177.6040  144.6980 C   0  0  0  0  0  2  0  0  0  0  0  0
  187.1380  177.8880  143.5800 C   0  0  0  0  0  0  0  0  0  0  0  0
  184.8740  178.3280  142.6320 C   0  0  0  0  0  3  0  0  0  0  0  0
  183.0150  178.9120  144.0710 C   0  0  0  0  0  3  0  0  0  0  0  0
  183.5230  178.6430  142.7960 C   0  0  0  0  0  3  0  0  0  0  0  0
  183.8630  178.8820  145.1810 C   0  0  0  0  0  3  0  0  0  0  0  0
  185.7260  178.2700  143.7440 C   0  0  0  0  0  0  0  0  0  0  0  0
  185.2150  178.5580  145.0190 C   0  0  0  0  0  3  0  0  0  0  0  0
  191.9240  176.1750  146.6120 C   0  0  0  0  0  1  0  0  0  0  0  0
  190.7300  176.7300  146.0770 O   0  0  0  0  0  0  0  0  0  0  0  0
  190.9200  176.9630  139.4320 C   0  0  0  0  0  2  0  0  0  0  0  0
  190.7380  175.5850  139.3300 O   0  0  0  0  0  0  0  0  0  0  0  0
  191.1330  175.2840  138.0680 N   0  0  0  0  0  2  0  0  0  0  0  0
  190.4170  174.1420  137.6820 N   0  0  0  0  0  2  0  0  0  0  0  0
  190.0490  174.3360  136.2870 C   0  0  0  0  0  2  0  0  0  0  0  0
  188.6610  174.8710  136.1970 C   0  0  0  0  0  3  0  0  0  0  0  0
  187.7800  174.4140  136.9070 O   0  0  0  0  0  0  0  0  0  0  0  0
  188.5880  178.4290  138.4230 C   0  0  0  0  0  2  0  0  0  0  0  0
  187.2190  177.8940  138.0420 C   0  0  0  0  0  2  0  0  0  0  0  0
  186.2070  178.5420  138.8530 N   0  0  0  0  0  2  0  0  0  0  0  0
  184.9170  178.1540  138.3040 C   0  0  0  0  0  2  0  0  0  0  0  0
  183.8340  179.0580  138.8690 C   0  0  0  0  0  2  0  0  0  0  0  0
  181.4720  178.8340  139.7370 C   0  0  0  0  0  0  0  0  0  0  0  0
  182.7290  178.2570  139.3710 N   0  0  0  0  0  2  0  0  0  0  0  0
  181.3100  180.0830  139.7100 O   0  0  0  0  0  0  0  0  0  0  0  0
  180.7310  176.6200  140.1880 O   0  0  0  0  0  1  0  0  0  0  0  0
  180.3420  177.9610  140.1780 C   0  0  1  0  0  3  0  0  0  0  0  0
  179.3230  177.2700  142.2480 O   0  0  0  0  0  1  0  0  0  0  0  0
  179.8030  178.3770  141.5430 C   0  0  0  0  0  2  0  0  0  0  0  0
  1  3  1  0  0  0  0
  2  1  2  0  0  0  0
  3  5  2  0  0  0  0
  3  7  1  0  0  0  0
  4 10  1  0  0  0  0
  4  9  1  0  0  0  0
  5  6  1  0  0  0  0
  6  9  2  0  0  0  0
  7  4  2  0  0  0  0
  8  7  1  0  0  0  0
  8 11  2  0  0  0  0
  9 19  1  0  0  0  0
 11 16  1  0  0  0  0
 11 10  1  0  0  0  0
 12 14  2  0  0  0  0
 12 16  1  0  0  0  0
 13 15  2  0  0  0  0
 14 13  1  0  0  0  0
 16 17  2  0  0  0  0
 17 15  1  0  0  0  0
 19 18  1  0  0  0  0
 20  1  1  0  0  0  0
 21 20  1  0  0  0  0
 22 21  1  0  0  0  0
 23 22  1  0  0  0  0
 24 23  1  0  0  0  0
 25 24  1  0  0  0  0
 25 26  2  0  0  0  0
 27  2  1  0  0  0  0
 28 27  1  0  0  0  0
 28 29  1  0  0  0  0
 30 29  1  0  0  0  0
 30 31  1  0  0  0  0
 31 33  1  0  0  0  0
 32 36  1  0  0  0  0
 33 32  1  0  0  0  0
 34 32  2  0  0  0  0
 36 35  1  1  0  0  0
 36 38  1  0  0  0  0
 38 37  1  0  0  0  0
M  END
>  <MODEL>
4

>  <REMARK>
 VINA RESULT:      -7.9      3.024      7.835
  Name = 
  17 active torsions:
  status: ('A' for Active; 'I' for Inactive)
    1  A    between atoms: C_1  and  C_11
    2  A    between atoms: C_3  and  C_38
    3  A    between atoms: N_4  and  C_23
    4  A    between atoms: C_5  and  C_6
    5  A    between atoms: C_5  and  N_7
    6  A    between atoms: C_6  and  C_21
    7  A    between atoms: N_7  and  C_31
    8  A    between atoms: C_11  and  C_27
    9  A    between atoms: N_18  and  N_20
   10  A    between atoms: N_18  and  O_36
   11  A    between atoms: C_19  and  C_32
   12  A    between atoms: N_20  and  C_32
   13  A    between atoms: C_23  and  C_31
   14  A    between atoms: C_24  and  C_38
   15  A    between atoms: O_26  and  C_28
   16  A    between atoms: C_27  and  O_36
   17  A    between atoms: C_30  and  C_35
                            x       y       z     vdW  Elec       q    Type
                         _______ _______ _______ _____ _____    ______ ____

>  <TORSDO>
F 17

$$$$
=
 OpenBabel11042409593D

 38 40  0  0  1  0  0  0  0  0999 V2000
  189.8480  177.6180  140.3690 C   0  0  0  0  0  0  0  0  0  0  0  0
  188.7520  178.2480  139.9160 C   0  0  0  0  0  3  0  0  0  0  0  0
  190.0880  177.4630  141.8270 C   0  0  0  0  0  0  0  0  0  0  0  0
  189.3390  177.4790  144.1560 C   0  0  0  0  0  0  0  0  0  0  0  0
  191.5200  177.3020  142.3190 C   0  0  0  0  0  3  0  0  0  0  0  0
  191.6780  177.0510  143.8140 C   0  0  0  0  0  3  0  0  0  0  0  0
  189.1040  177.5600  142.7380 C   0  0  0  0  0  0  0  0  0  0  0  0
  187.7320  177.8360  142.5050 N   0  0  0  0  0  0  0  0  0  0  0  0
  190.6750  177.1620  144.6940 C   0  0  0  0  0  0  0  0  0  0  0  0
  188.1830  177.6760  144.7730 C   0  0  0  0  0  2  0  0  0  0  0  0
  187.2020  177.8960  143.6890 C   0  0  0  0  0  0  0  0  0  0  0  0
  185.3080  178.4940  145.1970 C   0  0  0  0  0  3  0  0  0  0  0  0
  183.0970  178.9230  144.3060 C   0  0  0  0  0  3  0  0  0  0  0  0
  183.9710  178.8490  145.3950 C   0  0  0  0  0  3  0  0  0  0  0  0
  183.5550  178.6260  143.0200 C   0  0  0  0  0  3  0  0  0  0  0  0
  185.7820  178.2190  143.9060 C   0  0  0  0  0  0  0  0  0  0  0  0
  184.8960  178.2790  142.8190 C   0  0  0  0  0  3  0  0  0  0  0  0
  191.9380  176.0540  146.5330 C   0  0  0  0  0  1  0  0  0  0  0  0
  190.9420  176.9490  146.0540 O   0  0  0  0  0  0  0  0  0  0  0  0
  190.8180  177.0050  139.4040 C   0  0  0  0  0  2  0  0  0  0  0  0
  190.6410  175.6240  139.3530 O   0  0  0  0  0  0  0  0  0  0  0  0
  190.6410  175.3310  138.0290 N   0  0  0  0  0  2  0  0  0  0  0  0
  191.8750  175.7620  137.5200 N   0  0  0  0  0  2  0  0  0  0  0  0
  192.7540  174.6020  137.5270 C   0  0  0  0  0  2  0  0  0  0  0  0
  194.0430  174.9370  136.8570 C   0  0  0  0  0  3  0  0  0  0  0  0
  194.4980  176.0670  136.9320 O   0  0  0  0  0  0  0  0  0  0  0  0
  188.4390  178.4430  138.4680 C   0  0  0  0  0  2  0  0  0  0  0  0
  187.1280  177.7560  138.1300 C   0  0  0  0  0  2  0  0  0  0  0  0
  186.0800  178.7500  138.0110 N   0  0  0  0  0  2  0  0  0  0  0  0
  185.1210  178.4780  139.0700 C   0  0  0  0  0  2  0  0  0  0  0  0
  183.9940  177.6180  138.5230 C   0  0  0  0  0  2  0  0  0  0  0  0
  181.8420  178.1450  139.7390 C   0  0  0  0  0  0  0  0  0  0  0  0
  183.0200  177.3500  139.5700 N   0  0  0  0  0  2  0  0  0  0  0  0
  181.6510  179.1640  139.0240 O   0  0  0  0  0  0  0  0  0  0  0  0
  180.0770  178.9030  141.1400 O   0  0  0  0  0  1  0  0  0  0  0  0
  180.8350  177.7860  140.7830 C   0  0  1  0  0  3  0  0  0  0  0  0
  179.0620  176.2590  141.3540 O   0  0  0  0  0  1  0  0  0  0  0  0
  179.9310  176.6440  140.3300 C   0  0  0  0  0  2  0  0  0  0  0  0
  1  3  1  0  0  0  0
  2  1  2  0  0  0  0
  3  5  2  0  0  0  0
  3  7  1  0  0  0  0
  4  9  1  0  0  0  0
  4 10  1  0  0  0  0
  5  6  1  0  0  0  0
  6  9  2  0  0  0  0
  7  4  2  0  0  0  0
  8  7  1  0  0  0  0
  8 11  2  0  0  0  0
  9 19  1  0  0  0  0
 11 16  1  0  0  0  0
 11 10  1  0  0  0  0
 12 14  1  0  0  0  0
 13 14  2  0  0  0  0
 15 13  1  0  0  0  0
 16 12  2  0  0  0  0
 17 15  2  0  0  0  0
 17 16  1  0  0  0  0
 19 18  1  0  0  0  0
 20  1  1  0  0  0  0
 21 20  1  0  0  0  0
 22 21  1  0  0  0  0
 23 24  1  0  0  0  0
 23 22  1  0  0  0  0
 25 26  2  0  0  0  0
 25 24  1  0  0  0  0
 27  2  1  0  0  0  0
 28 27  1  0  0  0  0
 29 28  1  0  0  0  0
 29 30  1  0  0  0  0
 31 30  1  0  0  0  0
 31 33  1  0  0  0  0
 32 36  1  0  0  0  0
 33 32  1  0  0  0  0
 34 32  2  0  0  0  0
 36 35  1  6  0  0  0
 38 36  1  0  0  0  0
 38 37  1  0  0  0  0
M  END
>  <MODEL>
5

>  <REMARK>
 VINA RESULT:      -7.8      2.789      7.956
  Name = 
  17 active torsions:
  status: ('A' for Active; 'I' for Inactive)
    1  A    between atoms: C_1  and  C_11
    2  A    between atoms: C_3  and  C_38
    3  A    between atoms: N_4  and  C_23
    4  A    between atoms: C_5  and  C_6
    5  A    between atoms: C_5  and  N_7
    6  A    between atoms: C_6  and  C_21
    7  A    between atoms: N_7  and  C_31
    8  A    between atoms: C_11  and  C_27
    9  A    between atoms: N_18  and  N_20
   10  A    between atoms: N_18  and  O_36
   11  A    between atoms: C_19  and  C_32
   12  A    between atoms: N_20  and  C_32
   13  A    between atoms: C_23  and  C_31
   14  A    between atoms: C_24  and  C_38
   15  A    between atoms: O_26  and  C_28
   16  A    between atoms: C_27  and  O_36
   17  A    between atoms: C_30  and  C_35
                            x       y       z     vdW  Elec       q    Type
                         _______ _______ _______ _____ _____    ______ ____

>  <TORSDO>
F 17

$$$$
=
 OpenBabel11042409593D

 38 40  0  0  1  0  0  0  0  0999 V2000
  189.7820  177.7520  142.1500 C   0  0  0  0  0  0  0  0  0  0  0  0
  190.9270  177.2120  141.7030 C   0  0  0  0  0  3  0  0  0  0  0  0
  189.3650  177.5840  143.5670 C   0  0  0  0  0  0  0  0  0  0  0  0
  187.6760  177.5730  145.3370 C   0  0  0  0  0  0  0  0  0  0  0  0
  190.4410  177.4270  144.6320 C   0  0  0  0  0  2  0  0  0  0  0  0
  189.9350  177.1630  146.0450 C   0  0  0  0  0  3  0  0  0  0  0  0
  188.0820  177.6660  143.9590 C   0  0  0  0  0  0  0  0  0  0  0  0
  186.9460  177.9360  143.1530 N   0  0  0  0  0  0  0  0  0  0  0  0
  188.6470  177.2590  146.4010 C   0  0  0  0  0  0  0  0  0  0  0  0
  186.3650  177.7560  145.3900 C   0  0  0  0  0  3  0  0  0  0  0  0
  185.9520  177.9800  143.9890 C   0  0  0  0  0  0  0  0  0  0  0  0
  183.6110  178.6610  144.5160 C   0  0  0  0  0  3  0  0  0  0  0  0
  181.9800  178.9740  142.7530 C   0  0  0  0  0  3  0  0  0  0  0  0
  182.3200  179.0040  144.1100 C   0  0  0  0  0  3  0  0  0  0  0  0
  182.9280  178.5840  141.8040 C   0  0  0  0  0  3  0  0  0  0  0  0
  184.5760  178.2930  143.5670 C   0  0  0  0  0  0  0  0  0  0  0  0
  184.2250  178.2480  142.2090 C   0  0  0  0  0  3  0  0  0  0  0  0
  188.1530  178.0700  148.7050 C   0  0  0  0  0  1  0  0  0  0  0  0
  188.2980  177.0350  147.7410 O   0  0  0  0  0  0  0  0  0  0  0  0
  188.9350  178.5880  141.2390 C   0  0  0  0  0  2  0  0  0  0  0  0
  188.4440  177.8140  140.1900 O   0  0  0  0  0  0  0  0  0  0  0  0
  188.3720  178.6700  139.1410 N   0  0  0  0  0  2  0  0  0  0  0  0
  187.2800  178.2630  138.3610 N   0  0  0  0  0  2  0  0  0  0  0  0
  187.6290  178.5510  136.9780 C   0  0  0  0  0  2  0  0  0  0  0  0
  189.0570  178.2000  136.7300 C   0  0  0  0  0  3  0  0  0  0  0  0
  189.3500  177.1050  136.2780 O   0  0  0  0  0  0  0  0  0  0  0  0
  191.4150  177.3370  140.2950 C   0  0  0  0  0  2  0  0  0  0  0  0
  192.9330  177.3730  140.2810 C   0  0  0  0  0  2  0  0  0  0  0  0
  193.4110  176.9710  138.9730 N   0  0  0  0  0  2  0  0  0  0  0  0
  192.2620  176.4580  138.2450 C   0  0  0  0  0  2  0  0  0  0  0  0
  192.6480  175.1750  137.5280 C   0  0  0  0  0  2  0  0  0  0  0  0
  194.7710  174.0330  136.7680 C   0  0  0  0  0  0  0  0  0  0  0  0
  194.0890  174.9830  137.5940 N   0  0  0  0  0  2  0  0  0  0  0  0
  194.1230  173.2680  136.0050 O   0  0  0  0  0  0  0  0  0  0  0  0
  196.8410  175.1840  136.9710 O   0  0  0  0  0  1  0  0  0  0  0  0
  196.2600  173.9240  136.8200 C   0  0  1  0  0  3  0  0  0  0  0  0
  195.6290  172.4040  138.5790 O   0  0  0  0  0  1  0  0  0  0  0  0
  196.7220  172.9810  137.9270 C   0  0  0  0  0  2  0  0  0  0  0  0
  1  3  1  0  0  0  0
  2  1  2  0  0  0  0
  3  7  2  0  0  0  0
  3  5  1  0  0  0  0
  4 10  2  0  0  0  0
  4  9  1  0  0  0  0
  5  6  1  0  0  0  0
  6  9  2  0  0  0  0
  7  4  1  0  0  0  0
  8  7  1  0  0  0  0
  8 11  2  0  0  0  0
  9 19  1  0  0  0  0
 11 10  1  0  0  0  0
 13 14  2  0  0  0  0
 14 12  1  0  0  0  0
 15 17  2  0  0  0  0
 15 13  1  0  0  0  0
 16 11  1  0  0  0  0
 16 12  2  0  0  0  0
 17 16  1  0  0  0  0
 19 18  1  0  0  0  0
 20  1  1  0  0  0  0
 21 20  1  0  0  0  0
 22 21  1  0  0  0  0
 23 22  1  0  0  0  0
 24 23  1  0  0  0  0
 25 24  1  0  0  0  0
 26 25  2  0  0  0  0
 27  2  1  0  0  0  0
 28 27  1  0  0  0  0
 29 28  1  0  0  0  0
 30 29  1  0  0  0  0
 31 33  1  0  0  0  0
 31 30  1  0  0  0  0
 32 36  1  0  0  0  0
 32 33  1  0  0  0  0
 34 32  2  0  0  0  0
 36 35  1  1  0  0  0
 36 38  1  0  0  0  0
 38 37  1  0  0  0  0
M  END
>  <MODEL>
6

>  <REMARK>
 VINA RESULT:      -7.8      1.664      2.141
  Name = 
  17 active torsions:
  status: ('A' for Active; 'I' for Inactive)
    1  A    between atoms: C_1  and  C_11
    2  A    between atoms: C_3  and  C_38
    3  A    between atoms: N_4  and  C_23
    4  A    between atoms: C_5  and  C_6
    5  A    between atoms: C_5  and  N_7
    6  A    between atoms: C_6  and  C_21
    7  A    between atoms: N_7  and  C_31
    8  A    between atoms: C_11  and  C_27
    9  A    between atoms: N_18  and  N_20
   10  A    between atoms: N_18  and  O_36
   11  A    between atoms: C_19  and  C_32
   12  A    between atoms: N_20  and  C_32
   13  A    between atoms: C_23  and  C_31
   14  A    between atoms: C_24  and  C_38
   15  A    between atoms: O_26  and  C_28
   16  A    between atoms: C_27  and  O_36
   17  A    between atoms: C_30  and  C_35
                            x       y       z     vdW  Elec       q    Type
                         _______ _______ _______ _____ _____    ______ ____

>  <TORSDO>
F 17

$$$$
=
 OpenBabel11042409593D

 38 40  0  0  1  0  0  0  0  0999 V2000
  183.9490  178.2210  139.3270 C   0  0  0  0  0  0  0  0  0  0  0  0
  185.2250  178.6380  139.3420 C   0  0  0  0  0  3  0  0  0  0  0  0
  183.0050  178.6220  140.4020 C   0  0  0  0  0  0  0  0  0  0  0  0
  182.4400  179.0080  142.7510 C   0  0  0  0  0  0  0  0  0  0  0  0
  181.5440  178.8570  140.0420 C   0  0  0  0  0  3  0  0  0  0  0  0
  180.6590  179.3580  141.1780 C   0  0  0  0  0  3  0  0  0  0  0  0
  183.3650  178.6870  141.6960 C   0  0  0  0  0  0  0  0  0  0  0  0
  184.6310  178.3830  142.2590 N   0  0  0  0  0  0  0  0  0  0  0  0
  181.0500  179.4040  142.4580 C   0  0  0  0  0  0  0  0  0  0  0  0
  183.0900  178.9250  143.9030 C   0  0  0  0  0  2  0  0  0  0  0  0
  184.4670  178.5290  143.5390 C   0  0  0  0  0  0  0  0  0  0  0  0
  185.3990  178.6550  145.8490 C   0  0  0  0  0  3  0  0  0  0  0  0
  187.5390  177.6540  146.3820 C   0  0  0  0  0  3  0  0  0  0  0  0
  186.3940  178.3520  146.7810 C   0  0  0  0  0  3  0  0  0  0  0  0
  187.6960  177.2740  145.0470 C   0  0  0  0  0  3  0  0  0  0  0  0
  185.5380  178.2550  144.5120 C   0  0  0  0  0  0  0  0  0  0  0  0
  186.6960  177.5700  144.1140 C   0  0  0  0  0  3  0  0  0  0  0  0
  179.4960  178.9840  144.3590 C   0  0  0  0  0  1  0  0  0  0  0  0
  180.1390  179.8450  143.4280 O   0  0  0  0  0  0  0  0  0  0  0  0
  183.4400  177.3920  138.1860 C   0  0  0  0  0  2  0  0  0  0  0  0
  183.4290  176.0430  138.5370 O   0  0  0  0  0  0  0  0  0  0  0  0
  183.7670  175.3940  137.3950 N   0  0  0  0  0  2  0  0  0  0  0  0
  184.4280  174.2190  137.7800 N   0  0  0  0  0  2  0  0  0  0  0  0
  184.7820  173.5220  136.5510 C   0  0  0  0  0  2  0  0  0  0  0  0
  186.0250  172.7250  136.7600 C   0  0  0  0  0  3  0  0  0  0  0  0
  186.5710  172.7140  137.8510 O   0  0  0  0  0  0  0  0  0  0  0  0
  186.2330  178.2800  138.2990 C   0  0  0  0  0  2  0  0  0  0  0  0
  187.5090  177.7940  138.9660 C   0  0  0  0  0  2  0  0  0  0  0  0
  188.0510  178.8530  139.7940 N   0  0  0  0  0  2  0  0  0  0  0  0
  188.4260  178.2440  141.0610 C   0  0  0  0  0  2  0  0  0  0  0  0
  189.4420  177.1420  140.8110 C   0  0  0  0  0  2  0  0  0  0  0  0
  190.8760  176.9230  142.8810 C   0  0  0  0  0  0  0  0  0  0  0  0
  189.7840  176.4880  142.0650 N   0  0  0  0  0  2  0  0  0  0  0  0
  191.6340  177.8520  142.4920 O   0  0  0  0  0  0  0  0  0  0  0  0
  192.0560  175.2200  144.0470 O   0  0  0  0  0  1  0  0  0  0  0  0
  191.1420  176.2660  144.1960 C   0  0  1  0  0  3  0  0  0  0  0  0
  191.5060  176.7400  146.5290 O   0  0  0  0  0  1  0  0  0  0  0  0
  191.6310  177.2640  145.2400 C   0  0  0  0  0  2  0  0  0  0  0  0
  1  2  2  0  0  0  0
  1  3  1  0  0  0  0
  3  7  1  0  0  0  0
  4 10  1  0  0  0  0
  5  3  2  0  0  0  0
  5  6  1  0  0  0  0
  6  9  2  0  0  0  0
  7  8  1  0  0  0  0
  7  4  2  0  0  0  0
  8 11  2  0  0  0  0
  9  4  1  0  0  0  0
  9 19  1  0  0  0  0
 11 10  1  0  0  0  0
 11 16  1  0  0  0  0
 12 14  1  0  0  0  0
 13 14  2  0  0  0  0
 15 13  1  0  0  0  0
 16 12  2  0  0  0  0
 17 16  1  0  0  0  0
 17 15  2  0  0  0  0
 19 18  1  0  0  0  0
 20 21  1  0  0  0  0
 20  1  1  0  0  0  0
 22 23  1  0  0  0  0
 22 21  1  0  0  0  0
 24 25  1  0  0  0  0
 24 23  1  0  0  0  0
 25 26  2  0  0  0  0
 27 28  1  0  0  0  0
 27  2  1  0  0  0  0
 28 29  1  0  0  0  0
 29 30  1  0  0  0  0
 31 30  1  0  0  0  0
 31 33  1  0  0  0  0
 32 36  1  0  0  0  0
 33 32  1  0  0  0  0
 34 32  2  0  0  0  0
 36 35  1  6  0  0  0
 36 38  1  0  0  0  0
 38 37  1  0  0  0  0
M  END
>  <MODEL>
7

>  <REMARK>
 VINA RESULT:      -7.7      3.781      6.618
  Name = 
  17 active torsions:
  status: ('A' for Active; 'I' for Inactive)
    1  A    between atoms: C_1  and  C_11
    2  A    between atoms: C_3  and  C_38
    3  A    between atoms: N_4  and  C_23
    4  A    between atoms: C_5  and  C_6
    5  A    between atoms: C_5  and  N_7
    6  A    between atoms: C_6  and  C_21
    7  A    between atoms: N_7  and  C_31
    8  A    between atoms: C_11  and  C_27
    9  A    between atoms: N_18  and  N_20
   10  A    between atoms: N_18  and  O_36
   11  A    between atoms: C_19  and  C_32
   12  A    between atoms: N_20  and  C_32
   13  A    between atoms: C_23  and  C_31
   14  A    between atoms: C_24  and  C_38
   15  A    between atoms: O_26  and  C_28
   16  A    between atoms: C_27  and  O_36
   17  A    between atoms: C_30  and  C_35
                            x       y       z     vdW  Elec       q    Type
                         _______ _______ _______ _____ _____    ______ ____

>  <TORSDO>
F 17

$$$$
=
 OpenBabel11042409593D

 38 40  0  0  1  0  0  0  0  0999 V2000
  183.8820  178.1150  139.1380 C   0  0  0  0  0  0  0  0  0  0  0  0
  185.0510  178.7590  138.9970 C   0  0  0  0  0  3  0  0  0  0  0  0
  182.9110  178.5210  140.1870 C   0  0  0  0  0  0  0  0  0  0  0  0
  182.2940  178.9390  142.5180 C   0  0  0  0  0  0  0  0  0  0  0  0
  181.4550  178.7320  139.7940 C   0  0  0  0  0  3  0  0  0  0  0  0
  180.5420  179.2410  140.9030 C   0  0  0  0  0  3  0  0  0  0  0  0
  183.2440  178.6120  141.4860 C   0  0  0  0  0  0  0  0  0  0  0  0
  184.5020  178.3330  142.0800 N   0  0  0  0  0  0  0  0  0  0  0  0
  180.9060  179.3130  142.1900 C   0  0  0  0  0  0  0  0  0  0  0  0
  182.9220  178.8830  143.6830 C   0  0  0  0  0  2  0  0  0  0  0  0
  184.3100  178.4990  143.3540 C   0  0  0  0  0  0  0  0  0  0  0  0
  186.5920  177.6970  143.9630 C   0  0  0  0  0  3  0  0  0  0  0  0
  187.4040  177.8730  146.2380 C   0  0  0  0  0  3  0  0  0  0  0  0
  187.6090  177.5120  144.9030 C   0  0  0  0  0  3  0  0  0  0  0  0
  186.1760  178.4040  146.6390 C   0  0  0  0  0  3  0  0  0  0  0  0
  185.3650  178.2540  144.3520 C   0  0  0  0  0  0  0  0  0  0  0  0
  185.1590  178.5990  145.6970 C   0  0  0  0  0  3  0  0  0  0  0  0
  179.5730  179.0030  144.2710 C   0  0  0  0  0  1  0  0  0  0  0  0
  179.9690  179.7580  143.1340 O   0  0  0  0  0  0  0  0  0  0  0  0
  183.5110  177.0100  138.1950 C   0  0  0  0  0  2  0  0  0  0  0  0
  183.2340  175.8430  138.9030 O   0  0  0  0  0  0  0  0  0  0  0  0
  182.4450  175.1200  138.0700 N   0  0  0  0  0  2  0  0  0  0  0  0
  181.1190  175.4740  138.3600 N   0  0  0  0  0  2  0  0  0  0  0  0
  180.3470  174.2400  138.3370 C   0  0  0  0  0  2  0  0  0  0  0  0
  179.2950  174.2800  139.3930 C   0  0  0  0  0  3  0  0  0  0  0  0
  179.5890  174.0820  140.5610 O   0  0  0  0  0  0  0  0  0  0  0  0
  186.0770  178.4120  137.9670 C   0  0  0  0  0  2  0  0  0  0  0  0
  187.2320  177.6770  138.6240 C   0  0  0  0  0  2  0  0  0  0  0  0
  188.1180  178.6370  139.2520 N   0  0  0  0  0  2  0  0  0  0  0  0
  189.4760  178.2430  138.9100 C   0  0  0  0  0  2  0  0  0  0  0  0
  189.7860  176.8960  139.5410 C   0  0  0  0  0  2  0  0  0  0  0  0
  191.3410  177.4730  141.4480 C   0  0  0  0  0  0  0  0  0  0  0  0
  190.0590  177.0630  140.9600 N   0  0  0  0  0  2  0  0  0  0  0  0
  192.3080  177.6260  140.6540 O   0  0  0  0  0  0  0  0  0  0  0  0
  190.7810  178.7760  143.3560 O   0  0  0  0  0  1  0  0  0  0  0  0
  191.5520  177.7010  142.9090 C   0  0  1  0  0  3  0  0  0  0  0  0
  191.3280  176.7190  145.0970 O   0  0  0  0  0  1  0  0  0  0  0  0
  191.2560  176.4490  143.7280 C   0  0  0  0  0  2  0  0  0  0  0  0
  1  3  1  0  0  0  0
  2  1  2  0  0  0  0
  3  7  1  0  0  0  0
  4 10  1  0  0  0  0
  5  3  2  0  0  0  0
  5  6  1  0  0  0  0
  6  9  2  0  0  0  0
  7  8  1  0  0  0  0
  7  4  2  0  0  0  0
  8 11  2  0  0  0  0
  9  4  1  0  0  0  0
  9 19  1  0  0  0  0
 11 10  1  0  0  0  0
 11 16  1  0  0  0  0
 12 16  2  0  0  0  0
 12 14  1  0  0  0  0
 13 15  1  0  0  0  0
 14 13  2  0  0  0  0
 16 17  1  0  0  0  0
 17 15  2  0  0  0  0
 19 18  1  0  0  0  0
 20 21  1  0  0  0  0
 20  1  1  0  0  0  0
 22 23  1  0  0  0  0
 22 21  1  0  0  0  0
 24 23  1  0  0  0  0
 24 25  1  0  0  0  0
 25 26  2  0  0  0  0
 27 28  1  0  0  0  0
 27  2  1  0  0  0  0
 28 29  1  0  0  0  0
 30 29  1  0  0  0  0
 30 31  1  0  0  0  0
 31 33  1  0  0  0  0
 32 36  1  0  0  0  0
 33 32  1  0  0  0  0
 34 32  2  0  0  0  0
 36 35  1  1  0  0  0
 36 38  1  0  0  0  0
 38 37  1  0  0  0  0
M  END
>  <MODEL>
8

>  <REMARK>
 VINA RESULT:      -7.6      3.632      6.836
  Name = 
  17 active torsions:
  status: ('A' for Active; 'I' for Inactive)
    1  A    between atoms: C_1  and  C_11
    2  A    between atoms: C_3  and  C_38
    3  A    between atoms: N_4  and  C_23
    4  A    between atoms: C_5  and  C_6
    5  A    between atoms: C_5  and  N_7
    6  A    between atoms: C_6  and  C_21
    7  A    between atoms: N_7  and  C_31
    8  A    between atoms: C_11  and  C_27
    9  A    between atoms: N_18  and  N_20
   10  A    between atoms: N_18  and  O_36
   11  A    between atoms: C_19  and  C_32
   12  A    between atoms: N_20  and  C_32
   13  A    between atoms: C_23  and  C_31
   14  A    between atoms: C_24  and  C_38
   15  A    between atoms: O_26  and  C_28
   16  A    between atoms: C_27  and  O_36
   17  A    between atoms: C_30  and  C_35
                            x       y       z     vdW  Elec       q    Type
                         _______ _______ _______ _____ _____    ______ ____

>  <TORSDO>
F 17

$$$$
=
 OpenBabel11042409593D

 38 40  0  0  1  0  0  0  0  0999 V2000
  187.4410  178.3150  140.6410 C   0  0  0  0  0  0  0  0  0  0  0  0
  187.4040  178.3560  139.3000 C   0  0  0  0  0  3  0  0  0  0  0  0
  186.1930  178.4230  141.4400 C   0  0  0  0  0  0  0  0  0  0  0  0
  184.9740  178.4010  143.5610 C   0  0  0  0  0  0  0  0  0  0  0  0
  184.8590  178.4870  140.7080 C   0  0  0  0  0  3  0  0  0  0  0  0
  183.6340  178.6950  141.5900 C   0  0  0  0  0  3  0  0  0  0  0  0
  186.1850  178.3660  142.7830 C   0  0  0  0  0  0  0  0  0  0  0  0
  187.2930  178.1780  143.6490 N   0  0  0  0  0  0  0  0  0  0  0  0
  183.6620  178.6240  142.9270 C   0  0  0  0  0  0  0  0  0  0  0  0
  185.3050  178.2600  144.8370 C   0  0  0  0  0  2  0  0  0  0  0  0
  186.7760  178.1240  144.8390 C   0  0  0  0  0  0  0  0  0  0  0  0
  188.8590  177.3020  145.9360 C   0  0  0  0  0  3  0  0  0  0  0  0
  189.1670  177.5040  148.3300 C   0  0  0  0  0  3  0  0  0  0  0  0
  189.6470  177.1180  147.0750 C   0  0  0  0  0  3  0  0  0  0  0  0
  187.8900  178.0590  148.4500 C   0  0  0  0  0  3  0  0  0  0  0  0
  187.5870  177.8820  146.0440 C   0  0  0  0  0  0  0  0  0  0  0  0
  187.1030  178.2520  147.3080 C   0  0  0  0  0  3  0  0  0  0  0  0
  181.2030  179.0140  143.0210 C   0  0  0  0  0  1  0  0  0  0  0  0
  182.4650  178.7910  143.6380 O   0  0  0  0  0  0  0  0  0  0  0  0
  188.7420  178.0960  141.3540 C   0  0  0  0  0  2  0  0  0  0  0  0
  189.1080  176.7530  141.2900 O   0  0  0  0  0  0  0  0  0  0  0  0
  190.3960  176.7330  141.7130 N   0  0  0  0  0  2  0  0  0  0  0  0
  190.4470  175.8650  142.8120 N   0  0  0  0  0  2  0  0  0  0  0  0
  191.5280  176.3390  143.6650 C   0  0  0  0  0  2  0  0  0  0  0  0
  191.6970  177.8110  143.4990 C   0  0  0  0  0  3  0  0  0  0  0  0
  191.8850  178.5210  144.4740 O   0  0  0  0  0  0  0  0  0  0  0  0
  188.6140  178.2540  138.4280 C   0  0  0  0  0  2  0  0  0  0  0  0
  188.4400  177.1090  137.4440 C   0  0  0  0  0  2  0  0  0  0  0  0
  189.7420  176.5980  137.0660 N   0  0  0  0  0  2  0  0  0  0  0  0
  189.9940  175.4310  137.8970 C   0  0  0  0  0  2  0  0  0  0  0  0
  190.8960  174.4630  137.1500 C   0  0  0  0  0  2  0  0  0  0  0  0
  193.3750  174.1990  136.7410 C   0  0  0  0  0  0  0  0  0  0  0  0
  192.2830  174.6820  137.5300 N   0  0  0  0  0  2  0  0  0  0  0  0
  193.1630  173.4910  135.7210 O   0  0  0  0  0  0  0  0  0  0  0  0
  195.1910  175.7250  136.5740 O   0  0  0  0  0  1  0  0  0  0  0  0
  194.7830  174.5130  137.1330 C   0  0  1  0  0  3  0  0  0  0  0  0
  195.5520  173.3480  139.0960 O   0  0  0  0  0  1  0  0  0  0  0  0
  194.9590  174.5310  138.6480 C   0  0  0  0  0  2  0  0  0  0  0  0
  1 20  1  0  0  0  0
  1  3  1  0  0  0  0
  2  1  2  0  0  0  0
  3  7  1  0  0  0  0
  4 10  1  0  0  0  0
  5  3  2  0  0  0  0
  5  6  1  0  0  0  0
  6  9  2  0  0  0  0
  7  4  2  0  0  0  0
  7  8  1  0  0  0  0
  8 11  2  0  0  0  0
  9  4  1  0  0  0  0
  9 19  1  0  0  0  0
 10 11  1  0  0  0  0
 11 16  1  0  0  0  0
 12 16  2  0  0  0  0
 12 14  1  0  0  0  0
 13 15  1  0  0  0  0
 14 13  2  0  0  0  0
 16 17  1  0  0  0  0
 17 15  2  0  0  0  0
 18 19  1  0  0  0  0
 21 20  1  0  0  0  0
 21 22  1  0  0  0  0
 22 23  1  0  0  0  0
 23 24  1  0  0  0  0
 25 24  1  0  0  0  0
 25 26  2  0  0  0  0
 27  2  1  0  0  0  0
 28 27  1  0  0  0  0
 29 28  1  0  0  0  0
 29 30  1  0  0  0  0
 31 33  1  0  0  0  0
 31 30  1  0  0  0  0
 32 36  1  0  0  0  0
 32 33  1  0  0  0  0
 34 32  2  0  0  0  0
 36 35  1  1  0  0  0
 36 38  1  0  0  0  0
 38 37  1  0  0  0  0
M  END
>  <MODEL>
9

>  <REMARK>
 VINA RESULT:      -7.5      2.202      5.341
  Name = 
  17 active torsions:
  status: ('A' for Active; 'I' for Inactive)
    1  A    between atoms: C_1  and  C_11
    2  A    between atoms: C_3  and  C_38
    3  A    between atoms: N_4  and  C_23
    4  A    between atoms: C_5  and  C_6
    5  A    between atoms: C_5  and  N_7
    6  A    between atoms: C_6  and  C_21
    7  A    between atoms: N_7  and  C_31
    8  A    between atoms: C_11  and  C_27
    9  A    between atoms: N_18  and  N_20
   10  A    between atoms: N_18  and  O_36
   11  A    between atoms: C_19  and  C_32
   12  A    between atoms: N_20  and  C_32
   13  A    between atoms: C_23  and  C_31
   14  A    between atoms: C_24  and  C_38
   15  A    between atoms: O_26  and  C_28
   16  A    between atoms: C_27  and  O_36
   17  A    between atoms: C_30  and  C_35
                            x       y       z     vdW  Elec       q    Type
                         _______ _______ _______ _____ _____    ______ ____

>  <TORSDO>
F 17

$$$$
