=
 OpenBabel11042410543D

 26 28  0  0  1  0  0  0  0  0999 V2000
  191.4160  178.0370  144.9970 C   0  0  0  0  0  2  0  0  0  0  0  0
  189.1010  177.3320  145.0730 C   0  0  2  0  0  3  0  0  0  0  0  0
  190.6630  176.6410  146.9590 C   0  0  0  0  0  0  0  0  0  0  0  0
  191.9440  176.7360  147.5730 N   0  0  0  0  0  1  0  0  0  0  0  0
  190.7510  178.5060  143.7170 C   0  0  0  0  0  2  0  0  0  0  0  0
  189.7880  175.8900  147.4670 O   0  0  0  0  0  0  0  0  0  0  0  0
  190.3760  177.3840  145.7660 N   0  0  0  0  0  0  0  0  0  0  0  0
  189.3780  177.8460  143.6690 C   0  0  1  0  0  3  0  0  0  0  0  0
  189.4140  176.6840  142.6920 C   0  0  0  0  0  2  0  0  0  0  0  0
  190.8450  176.8430  141.5810 S   0  0  0  0  0  0  0  0  0  0  0  0
  187.7540  178.0850  139.2980 C   0  0  0  0  0  3  0  0  0  0  0  0
  190.0800  176.5590  138.8420 C   0  0  0  0  0  0  0  0  0  0  0  0
  188.6400  177.8390  140.3440 C   0  0  0  0  0  3  0  0  0  0  0  0
  189.7990  177.0800  140.1400 C   0  0  0  0  0  0  0  0  0  0  0  0
  189.1690  176.8180  137.8020 C   0  0  0  0  0  0  0  0  0  0  0  0
  188.0170  177.5740  138.0300 C   0  0  0  0  0  3  0  0  0  0  0  0
  189.4050  176.3230  136.5250 O   0  0  0  0  0  1  0  0  0  0  0  0
  192.3970  176.2060  138.2030 C   0  0  0  0  0  0  0  0  0  0  0  0
  193.5240  176.6200  137.9030 O   0  0  0  0  0  0  0  0  0  0  0  0
  191.2410  175.7710  138.5100 N   0  0  0  0  0  0  0  0  0  0  0  0
  188.0930  178.2600  145.7430 C   0  0  0  0  0  2  0  0  0  0  0  0
  186.7510  177.7130  145.6420 N   0  0  0  0  0  0  0  0  0  0  0  0
  185.9680  178.3120  146.7110 C   0  0  0  0  0  2  0  0  0  0  0  0
  184.5700  178.5380  146.1790 C   0  0  0  0  0  2  0  0  0  0  0  0
  186.1660  178.2210  144.4090 C   0  0  0  0  0  2  0  0  0  0  0  0
  184.7070  178.5180  144.6770 C   0  0  0  0  0  2  0  0  0  0  0  0
  1  7  1  0  0  0  0
  2 21  1  1  0  0  0
  2  7  1  0  0  0  0
  3  6  2  0  0  0  0
  3  4  1  0  0  0  0
  5  1  1  0  0  0  0
  7  3  1  0  0  0  0
  8  9  1  6  0  0  0
  8  5  1  0  0  0  0
  8  2  1  0  0  0  0
 10  9  1  0  0  0  0
 11 13  1  0  0  0  0
 12 14  1  0  0  0  0
 14 13  2  0  0  0  0
 14 10  1  0  0  0  0
 15 16  1  0  0  0  0
 15 12  2  0  0  0  0
 16 11  2  0  0  0  0
 17 15  1  0  0  0  0
 18 20  2  0  0  0  0
 19 18  2  0  0  0  0
 20 12  1  0  0  0  0
 22 21  1  0  0  0  0
 22 23  1  0  0  0  0
 24 23  1  0  0  0  0
 25 26  1  0  0  0  0
 25 22  1  0  0  0  0
 26 24  1  0  0  0  0
M  END
>  <MODEL>
1

>  <REMARK>
 VINA RESULT:      -7.4      0.000      0.000
  Name = 
  6 active torsions:
  status: ('A' for Active; 'I' for Inactive)
    1  A    between atoms: N_2  and  C_15
    2  A    between atoms: C_4  and  S_13
    3  A    between atoms: C_4  and  C_25
    4  A    between atoms: C_5  and  N_22
    5  A    between atoms: C_10  and  C_15
    6  A    between atoms: S_13  and  C_14
                            x       y       z     vdW  Elec       q    Type
                         _______ _______ _______ _____ _____    ______ ____

>  <TORSDO>
F 6

$$$$
=
 OpenBabel11042410543D

 26 28  0  0  1  0  0  0  0  0999 V2000
  187.9590  178.1870  139.1970 C   0  0  0  0  0  2  0  0  0  0  0  0
  189.7910  176.6070  139.0930 C   0  0  2  0  0  3  0  0  0  0  0  0
  187.7690  176.2510  137.5900 C   0  0  0  0  0  0  0  0  0  0  0  0
  186.5260  176.7340  137.0900 N   0  0  0  0  0  1  0  0  0  0  0  0
  188.9720  178.5880  140.2520 C   0  0  0  0  0  2  0  0  0  0  0  0
  188.1930  175.1280  137.2110 O   0  0  0  0  0  0  0  0  0  0  0  0
  188.5230  177.0330  138.5260 N   0  0  0  0  0  0  0  0  0  0  0  0
  189.9860  177.4530  140.3410 C   0  0  1  0  0  3  0  0  0  0  0  0
  189.6990  176.6200  141.5780 C   0  0  0  0  0  2  0  0  0  0  0  0
  190.9930  176.8860  142.8280 S   0  0  0  0  0  0  0  0  0  0  0  0
  187.4300  177.3920  144.6600 C   0  0  0  0  0  3  0  0  0  0  0  0
  190.1130  177.2730  145.5190 C   0  0  0  0  0  0  0  0  0  0  0  0
  188.4500  177.1970  143.7310 C   0  0  0  0  0  3  0  0  0  0  0  0
  189.7890  177.1390  144.1360 C   0  0  0  0  0  0  0  0  0  0  0  0
  189.0670  177.4730  146.4380 C   0  0  0  0  0  0  0  0  0  0  0  0
  187.7390  177.5310  146.0100 C   0  0  0  0  0  3  0  0  0  0  0  0
  189.3430  177.6140  147.7930 O   0  0  0  0  0  1  0  0  0  0  0  0
  192.0030  176.2410  146.6430 C   0  0  0  0  0  0  0  0  0  0  0  0
  192.5470  175.2890  147.2160 O   0  0  0  0  0  0  0  0  0  0  0  0
  191.4510  177.2250  146.0540 N   0  0  0  0  0  0  0  0  0  0  0  0
  190.9310  176.8980  138.1230 C   0  0  0  0  0  2  0  0  0  0  0  0
  192.0200  175.9560  138.3180 N   0  0  0  0  0  0  0  0  0  0  0  0
  191.6500  174.7310  137.6290 C   0  0  0  0  0  2  0  0  0  0  0  0
  192.9100  174.1460  137.0310 C   0  0  0  0  0  2  0  0  0  0  0  0
  193.1740  176.4690  137.5930 C   0  0  0  0  0  2  0  0  0  0  0  0
  193.8910  175.2900  136.9710 C   0  0  0  0  0  2  0  0  0  0  0  0
  1  5  1  0  0  0  0
  2 21  1  6  0  0  0
  2  8  1  0  0  0  0
  3  7  1  0  0  0  0
  4  3  1  0  0  0  0
  5  8  1  0  0  0  0
  6  3  2  0  0  0  0
  7  2  1  0  0  0  0
  7  1  1  0  0  0  0
  8  9  1  1  0  0  0
  9 10  1  0  0  0  0
 10 14  1  0  0  0  0
 11 16  1  0  0  0  0
 12 20  1  0  0  0  0
 12 15  1  0  0  0  0
 13 14  1  0  0  0  0
 13 11  2  0  0  0  0
 14 12  2  0  0  0  0
 15 17  1  0  0  0  0
 16 15  2  0  0  0  0
 18 19  2  0  0  0  0
 20 18  2  0  0  0  0
 21 22  1  0  0  0  0
 23 22  1  0  0  0  0
 24 23  1  0  0  0  0
 25 22  1  0  0  0  0
 26 24  1  0  0  0  0
 26 25  1  0  0  0  0
M  END
>  <MODEL>
2

>  <REMARK>
 VINA RESULT:      -7.3      2.063      8.337
  Name = 
  6 active torsions:
  status: ('A' for Active; 'I' for Inactive)
    1  A    between atoms: N_2  and  C_15
    2  A    between atoms: C_4  and  S_13
    3  A    between atoms: C_4  and  C_25
    4  A    between atoms: C_5  and  N_22
    5  A    between atoms: C_10  and  C_15
    6  A    between atoms: S_13  and  C_14
                            x       y       z     vdW  Elec       q    Type
                         _______ _______ _______ _____ _____    ______ ____

>  <TORSDO>
F 6

$$$$
=
 OpenBabel11042410543D

 26 28  0  0  1  0  0  0  0  0999 V2000
  189.1830  176.5030  144.2530 C   0  0  0  0  0  2  0  0  0  0  0  0
  189.4460  177.9490  142.3290 C   0  0  2  0  0  3  0  0  0  0  0  0
  191.1580  178.0710  144.2070 C   0  0  0  0  0  0  0  0  0  0  0  0
  191.6560  177.5480  145.4340 N   0  0  0  0  0  1  0  0  0  0  0  0
  187.9850  176.2860  143.3480 C   0  0  0  0  0  2  0  0  0  0  0  0
  191.7190  179.0740  143.6890 O   0  0  0  0  0  0  0  0  0  0  0  0
  190.0220  177.4690  143.5730 N   0  0  0  0  0  0  0  0  0  0  0  0
  188.0400  177.3710  142.2790 C   0  0  1  0  0  3  0  0  0  0  0  0
  187.0270  178.4520  142.6100 C   0  0  0  0  0  2  0  0  0  0  0  0
  185.9400  178.7520  141.1830 S   0  0  0  0  0  0  0  0  0  0  0  0
  183.6290  179.2380  144.4590 C   0  0  0  0  0  3  0  0  0  0  0  0
  183.1430  178.6190  141.7510 C   0  0  0  0  0  0  0  0  0  0  0  0
  184.6930  179.1470  143.5640 C   0  0  0  0  0  3  0  0  0  0  0  0
  184.4740  178.8370  142.2160 C   0  0  0  0  0  0  0  0  0  0  0  0
  182.0850  178.7120  142.6740 C   0  0  0  0  0  0  0  0  0  0  0  0
  182.3280  179.0180  144.0140 C   0  0  0  0  0  3  0  0  0  0  0  0
  180.7750  178.5000  142.2600 O   0  0  0  0  0  1  0  0  0  0  0  0
  182.8530  177.1560  139.8340 C   0  0  0  0  0  0  0  0  0  0  0  0
  182.9080  176.0480  139.2850 O   0  0  0  0  0  0  0  0  0  0  0  0
  182.7940  178.3000  140.3890 N   0  0  0  0  0  0  0  0  0  0  0  0
  190.2350  177.4170  141.1380 C   0  0  0  0  0  2  0  0  0  0  0  0
  189.3640  177.2370  139.9880 N   0  0  0  0  0  0  0  0  0  0  0  0
  189.2230  178.5390  139.3560 C   0  0  0  0  0  2  0  0  0  0  0  0
  189.1670  178.3160  137.8610 C   0  0  0  0  0  2  0  0  0  0  0  0
  190.0830  176.4190  139.0220 C   0  0  0  0  0  2  0  0  0  0  0  0
  189.7650  176.9490  137.6400 C   0  0  0  0  0  2  0  0  0  0  0  0
  2 21  1  6  0  0  0
  2  7  1  0  0  0  0
  3  4  1  0  0  0  0
  5  1  1  0  0  0  0
  6  3  2  0  0  0  0
  7  3  1  0  0  0  0
  7  1  1  0  0  0  0
  8  2  1  0  0  0  0
  8  9  1  1  0  0  0
  8  5  1  0  0  0  0
 10 14  1  0  0  0  0
 10  9  1  0  0  0  0
 12 14  2  0  0  0  0
 12 15  1  0  0  0  0
 13 11  2  0  0  0  0
 14 13  1  0  0  0  0
 15 16  2  0  0  0  0
 16 11  1  0  0  0  0
 17 15  1  0  0  0  0
 18 20  2  0  0  0  0
 19 18  2  0  0  0  0
 20 12  1  0  0  0  0
 22 21  1  0  0  0  0
 23 22  1  0  0  0  0
 24 23  1  0  0  0  0
 25 22  1  0  0  0  0
 26 24  1  0  0  0  0
 26 25  1  0  0  0  0
M  END
>  <MODEL>
3

>  <REMARK>
 VINA RESULT:      -7.2      3.708      6.746
  Name = 
  6 active torsions:
  status: ('A' for Active; 'I' for Inactive)
    1  A    between atoms: N_2  and  C_15
    2  A    between atoms: C_4  and  S_13
    3  A    between atoms: C_4  and  C_25
    4  A    between atoms: C_5  and  N_22
    5  A    between atoms: C_10  and  C_15
    6  A    between atoms: S_13  and  C_14
                            x       y       z     vdW  Elec       q    Type
                         _______ _______ _______ _____ _____    ______ ____

>  <TORSDO>
F 6

$$$$
=
 OpenBabel11042410543D

 26 28  0  0  1  0  0  0  0  0999 V2000
  191.6890  178.1170  144.9780 C   0  0  0  0  0  2  0  0  0  0  0  0
  189.3540  177.4960  145.1420 C   0  0  2  0  0  3  0  0  0  0  0  0
  191.0290  176.4260  146.7310 C   0  0  0  0  0  0  0  0  0  0  0  0
  192.3600  176.3640  147.2330 N   0  0  0  0  0  1  0  0  0  0  0  0
  190.9450  178.8290  143.8650 C   0  0  0  0  0  2  0  0  0  0  0  0
  190.1620  175.6310  147.1790 O   0  0  0  0  0  0  0  0  0  0  0  0
  190.6840  177.3780  145.7150 N   0  0  0  0  0  0  0  0  0  0  0  0
  189.5400  178.2390  143.8290 C   0  0  1  0  0  3  0  0  0  0  0  0
  189.4340  177.2670  142.6670 C   0  0  0  0  0  2  0  0  0  0  0  0
  188.1370  177.8080  141.5120 S   0  0  0  0  0  0  0  0  0  0  0  0
  191.2150  176.4330  139.2890 C   0  0  0  0  0  3  0  0  0  0  0  0
  188.8380  177.8480  138.7420 C   0  0  0  0  0  0  0  0  0  0  0  0
  190.3440  176.7560  140.3260 C   0  0  0  0  0  3  0  0  0  0  0  0
  189.1600  177.4610  140.0780 C   0  0  0  0  0  0  0  0  0  0  0  0
  189.7360  177.5140  137.7110 C   0  0  0  0  0  0  0  0  0  0  0  0
  190.9120  176.8140  137.9840 C   0  0  0  0  0  3  0  0  0  0  0  0
  189.4600  177.8790  136.3990 O   0  0  0  0  0  1  0  0  0  0  0  0
  186.5130  178.0740  138.0770 C   0  0  0  0  0  0  0  0  0  0  0  0
  185.4050  177.5990  137.7970 O   0  0  0  0  0  0  0  0  0  0  0  0
  187.6490  178.5700  138.3630 N   0  0  0  0  0  0  0  0  0  0  0  0
  188.4560  178.3280  146.0510 C   0  0  0  0  0  2  0  0  0  0  0  0
  187.1270  177.7460  146.1270 N   0  0  0  0  0  0  0  0  0  0  0  0
  186.4850  178.3070  147.3050 C   0  0  0  0  0  2  0  0  0  0  0  0
  185.0220  178.5010  146.9770 C   0  0  0  0  0  2  0  0  0  0  0  0
  186.3640  178.2550  144.9970 C   0  0  0  0  0  2  0  0  0  0  0  0
  184.9490  178.5070  145.4700 C   0  0  0  0  0  2  0  0  0  0  0  0
  1  7  1  0  0  0  0
  2  7  1  0  0  0  0
  2 21  1  1  0  0  0
  3  6  2  0  0  0  0
  3  4  1  0  0  0  0
  5  1  1  0  0  0  0
  7  3  1  0  0  0  0
  8  9  1  6  0  0  0
  8  5  1  0  0  0  0
  8  2  1  0  0  0  0
 10  9  1  0  0  0  0
 11 13  1  0  0  0  0
 12 14  1  0  0  0  0
 14 13  2  0  0  0  0
 14 10  1  0  0  0  0
 15 16  1  0  0  0  0
 15 12  2  0  0  0  0
 16 11  2  0  0  0  0
 17 15  1  0  0  0  0
 18 20  2  0  0  0  0
 19 18  2  0  0  0  0
 20 12  1  0  0  0  0
 21 22  1  0  0  0  0
 22 23  1  0  0  0  0
 24 23  1  0  0  0  0
 25 26  1  0  0  0  0
 25 22  1  0  0  0  0
 26 24  1  0  0  0  0
M  END
>  <MODEL>
4

>  <REMARK>
 VINA RESULT:      -7.1      1.586      2.586
  Name = 
  6 active torsions:
  status: ('A' for Active; 'I' for Inactive)
    1  A    between atoms: N_2  and  C_15
    2  A    between atoms: C_4  and  S_13
    3  A    between atoms: C_4  and  C_25
    4  A    between atoms: C_5  and  N_22
    5  A    between atoms: C_10  and  C_15
    6  A    between atoms: S_13  and  C_14
                            x       y       z     vdW  Elec       q    Type
                         _______ _______ _______ _____ _____    ______ ____

>  <TORSDO>
F 6

$$$$
=
 OpenBabel11042410543D

 26 28  0  0  1  0  0  0  0  0999 V2000
  187.6600  178.0730  138.8100 C   0  0  0  0  0  2  0  0  0  0  0  0
  189.5500  176.5750  139.0240 C   0  0  2  0  0  3  0  0  0  0  0  0
  187.6740  175.9700  137.4150 C   0  0  0  0  0  0  0  0  0  0  0  0
  186.4600  176.3400  136.7690 N   0  0  0  0  0  1  0  0  0  0  0  0
  188.5670  178.6290  139.8900 C   0  0  0  0  0  2  0  0  0  0  0  0
  188.1690  174.8330  137.1960 O   0  0  0  0  0  0  0  0  0  0  0  0
  188.3190  176.8810  138.3160 N   0  0  0  0  0  0  0  0  0  0  0  0
  189.6100  177.5570  140.1820 C   0  0  1  0  0  3  0  0  0  0  0  0
  189.2520  176.8490  141.4770 C   0  0  0  0  0  2  0  0  0  0  0  0
  188.0210  177.8170  142.4030 S   0  0  0  0  0  0  0  0  0  0  0  0
  191.0070  177.2690  145.0660 C   0  0  0  0  0  3  0  0  0  0  0  0
  188.1920  177.3590  145.2180 C   0  0  0  0  0  0  0  0  0  0  0  0
  190.2540  177.4870  143.9140 C   0  0  0  0  0  3  0  0  0  0  0  0
  188.8560  177.5310  143.9670 C   0  0  0  0  0  0  0  0  0  0  0  0
  188.9730  177.1370  146.3670 C   0  0  0  0  0  0  0  0  0  0  0  0
  190.3660  177.0920  146.2900 C   0  0  0  0  0  3  0  0  0  0  0  0
  188.3620  176.9580  147.6030 O   0  0  0  0  0  1  0  0  0  0  0  0
  186.0490  178.4060  145.6770 C   0  0  0  0  0  0  0  0  0  0  0  0
  185.3490  179.3890  145.9500 O   0  0  0  0  0  0  0  0  0  0  0  0
  186.7620  177.3900  145.3970 N   0  0  0  0  0  0  0  0  0  0  0  0
  190.7550  176.8120  138.1200 C   0  0  0  0  0  2  0  0  0  0  0  0
  191.8150  175.8660  138.4240 N   0  0  0  0  0  0  0  0  0  0  0  0
  191.6190  174.7160  137.5560 C   0  0  0  0  0  2  0  0  0  0  0  0
  192.9860  174.2090  137.1550 C   0  0  0  0  0  2  0  0  0  0  0  0
  193.0700  176.4630  137.9890 C   0  0  0  0  0  2  0  0  0  0  0  0
  193.9260  175.3630  137.4000 C   0  0  0  0  0  2  0  0  0  0  0  0
  1  5  1  0  0  0  0
  2 21  1  6  0  0  0
  2  8  1  0  0  0  0
  3  7  1  0  0  0  0
  4  3  1  0  0  0  0
  5  8  1  0  0  0  0
  6  3  2  0  0  0  0
  7  1  1  0  0  0  0
  7  2  1  0  0  0  0
  8  9  1  1  0  0  0
  9 10  1  0  0  0  0
 10 14  1  0  0  0  0
 11 16  1  0  0  0  0
 12 20  1  0  0  0  0
 12 15  1  0  0  0  0
 13 14  1  0  0  0  0
 13 11  2  0  0  0  0
 14 12  2  0  0  0  0
 15 17  1  0  0  0  0
 16 15  2  0  0  0  0
 18 19  2  0  0  0  0
 20 18  2  0  0  0  0
 21 22  1  0  0  0  0
 23 22  1  0  0  0  0
 24 26  1  0  0  0  0
 24 23  1  0  0  0  0
 25 22  1  0  0  0  0
 26 25  1  0  0  0  0
M  END
>  <MODEL>
5

>  <REMARK>
 VINA RESULT:      -7.1      2.101      8.638
  Name = 
  6 active torsions:
  status: ('A' for Active; 'I' for Inactive)
    1  A    between atoms: N_2  and  C_15
    2  A    between atoms: C_4  and  S_13
    3  A    between atoms: C_4  and  C_25
    4  A    between atoms: C_5  and  N_22
    5  A    between atoms: C_10  and  C_15
    6  A    between atoms: S_13  and  C_14
                            x       y       z     vdW  Elec       q    Type
                         _______ _______ _______ _____ _____    ______ ____

>  <TORSDO>
F 6

$$$$
=
 OpenBabel11042410543D

 26 28  0  0  1  0  0  0  0  0999 V2000
  182.5190  179.0240  138.3440 C   0  0  0  0  0  2  0  0  0  0  0  0
  184.5550  177.7940  138.7960 C   0  0  2  0  0  3  0  0  0  0  0  0
  182.5380  176.5450  137.8760 C   0  0  0  0  0  0  0  0  0  0  0  0
  181.2160  176.5910  137.3500 N   0  0  0  0  0  1  0  0  0  0  0  0
  183.5120  179.9900  138.9630 C   0  0  0  0  0  2  0  0  0  0  0  0
  183.1040  175.4300  138.0290 O   0  0  0  0  0  0  0  0  0  0  0  0
  183.2140  177.7570  138.2410 N   0  0  0  0  0  0  0  0  0  0  0  0
  184.6830  179.1530  139.4650 C   0  0  1  0  0  3  0  0  0  0  0  0
  184.5790  178.9980  140.9720 C   0  0  0  0  0  2  0  0  0  0  0  0
  186.2140  178.6260  141.6790 S   0  0  0  0  0  0  0  0  0  0  0  0
  183.6250  178.9930  144.7560 C   0  0  0  0  0  3  0  0  0  0  0  0
  186.3240  178.2170  144.5040 C   0  0  0  0  0  0  0  0  0  0  0  0
  184.2300  178.9760  143.5020 C   0  0  0  0  0  3  0  0  0  0  0  0
  185.5690  178.5980  143.3550 C   0  0  0  0  0  0  0  0  0  0  0  0
  185.6930  178.2460  145.7620 C   0  0  0  0  0  0  0  0  0  0  0  0
  184.3570  178.6310  145.8840 C   0  0  0  0  0  3  0  0  0  0  0  0
  186.3970  177.8880  146.9060 O   0  0  0  0  0  1  0  0  0  0  0  0
  188.1970  176.8220  143.8360 C   0  0  0  0  0  0  0  0  0  0  0  0
  188.6830  175.8680  143.2160 O   0  0  0  0  0  0  0  0  0  0  0  0
  187.7050  177.8050  144.4770 N   0  0  0  0  0  0  0  0  0  0  0  0
  185.5930  177.6980  137.6830 C   0  0  0  0  0  2  0  0  0  0  0  0
  186.7830  178.4590  138.0270 N   0  0  0  0  0  0  0  0  0  0  0  0
  187.7740  177.5060  138.4990 C   0  0  0  0  0  2  0  0  0  0  0  0
  189.1270  177.9830  138.0210 C   0  0  0  0  0  2  0  0  0  0  0  0
  187.3280  178.9970  136.7890 C   0  0  0  0  0  2  0  0  0  0  0  0
  188.8370  178.9250  136.8790 C   0  0  0  0  0  2  0  0  0  0  0  0
  1  5  1  0  0  0  0
  2 21  1  6  0  0  0
  2  8  1  0  0  0  0
  3  6  2  0  0  0  0
  3  7  1  0  0  0  0
  4  3  1  0  0  0  0
  5  8  1  0  0  0  0
  7  1  1  0  0  0  0
  7  2  1  0  0  0  0
  8  9  1  1  0  0  0
  9 10  1  0  0  0  0
 10 14  1  0  0  0  0
 11 16  1  0  0  0  0
 12 15  1  0  0  0  0
 13 11  2  0  0  0  0
 14 13  1  0  0  0  0
 14 12  2  0  0  0  0
 15 16  2  0  0  0  0
 15 17  1  0  0  0  0
 18 20  2  0  0  0  0
 19 18  2  0  0  0  0
 20 12  1  0  0  0  0
 21 22  1  0  0  0  0
 22 23  1  0  0  0  0
 24 23  1  0  0  0  0
 25 26  1  0  0  0  0
 25 22  1  0  0  0  0
 26 24  1  0  0  0  0
M  END
>  <MODEL>
6

>  <REMARK>
 VINA RESULT:      -6.8      4.118      8.731
  Name = 
  6 active torsions:
  status: ('A' for Active; 'I' for Inactive)
    1  A    between atoms: N_2  and  C_15
    2  A    between atoms: C_4  and  S_13
    3  A    between atoms: C_4  and  C_25
    4  A    between atoms: C_5  and  N_22
    5  A    between atoms: C_10  and  C_15
    6  A    between atoms: S_13  and  C_14
                            x       y       z     vdW  Elec       q    Type
                         _______ _______ _______ _____ _____    ______ ____

>  <TORSDO>
F 6

$$$$
=
 OpenBabel11042410543D

 26 28  0  0  1  0  0  0  0  0999 V2000
  191.8380  177.9780  145.1000 C   0  0  0  0  0  2  0  0  0  0  0  0
  189.4870  177.4140  145.2270 C   0  0  2  0  0  3  0  0  0  0  0  0
  191.0960  176.3820  146.9070 C   0  0  0  0  0  0  0  0  0  0  0  0
  192.4120  176.3150  147.4480 N   0  0  0  0  0  1  0  0  0  0  0  0
  191.1400  178.6540  143.9350 C   0  0  0  0  0  2  0  0  0  0  0  0
  190.2000  175.6260  147.3670 O   0  0  0  0  0  0  0  0  0  0  0  0
  190.7980  177.2940  145.8410 N   0  0  0  0  0  0  0  0  0  0  0  0
  189.7240  178.0930  143.8880 C   0  0  1  0  0  3  0  0  0  0  0  0
  189.6270  177.0710  142.7680 C   0  0  0  0  0  2  0  0  0  0  0  0
  187.9640  177.1030  142.0310 S   0  0  0  0  0  0  0  0  0  0  0  0
  190.5570  177.4530  138.9550 C   0  0  0  0  0  3  0  0  0  0  0  0
  187.8450  178.1110  139.3610 C   0  0  0  0  0  0  0  0  0  0  0  0
  189.9510  177.1840  140.1800 C   0  0  0  0  0  3  0  0  0  0  0  0
  188.6070  177.5060  140.4040 C   0  0  0  0  0  0  0  0  0  0  0  0
  188.4790  178.3770  138.1330 C   0  0  0  0  0  0  0  0  0  0  0  0
  189.8220  178.0510  137.9340 C   0  0  0  0  0  3  0  0  0  0  0  0
  187.7710  178.9720  137.0950 O   0  0  0  0  0  1  0  0  0  0  0  0
  185.8820  179.0000  140.4810 C   0  0  0  0  0  0  0  0  0  0  0  0
  185.3160  179.5040  141.4590 O   0  0  0  0  0  0  0  0  0  0  0  0
  186.4560  178.4820  139.4710 N   0  0  0  0  0  0  0  0  0  0  0  0
  188.5840  178.3050  146.0730 C   0  0  0  0  0  2  0  0  0  0  0  0
  187.2540  177.7280  146.1810 N   0  0  0  0  0  0  0  0  0  0  0  0
  186.6110  178.3560  147.3230 C   0  0  0  0  0  2  0  0  0  0  0  0
  185.1480  178.5320  146.9820 C   0  0  0  0  0  2  0  0  0  0  0  0
  186.4930  178.1720  145.0220 C   0  0  0  0  0  2  0  0  0  0  0  0
  185.0770  178.4520  145.4780 C   0  0  0  0  0  2  0  0  0  0  0  0
  1  7  1  0  0  0  0
  2  7  1  0  0  0  0
  2 21  1  1  0  0  0
  3  6  2  0  0  0  0
  3  4  1  0  0  0  0
  5  1  1  0  0  0  0
  7  3  1  0  0  0  0
  8  9  1  6  0  0  0
  8  5  1  0  0  0  0
  8  2  1  0  0  0  0
 10  9  1  0  0  0  0
 11 13  1  0  0  0  0
 12 20  1  0  0  0  0
 12 14  1  0  0  0  0
 13 14  2  0  0  0  0
 14 10  1  0  0  0  0
 15 12  2  0  0  0  0
 16 15  1  0  0  0  0
 16 11  2  0  0  0  0
 17 15  1  0  0  0  0
 18 19  2  0  0  0  0
 20 18  2  0  0  0  0
 21 22  1  0  0  0  0
 22 23  1  0  0  0  0
 24 23  1  0  0  0  0
 25 26  1  0  0  0  0
 25 22  1  0  0  0  0
 26 24  1  0  0  0  0
M  END
>  <MODEL>
7

>  <REMARK>
 VINA RESULT:      -6.8      2.118      2.948
  Name = 
  6 active torsions:
  status: ('A' for Active; 'I' for Inactive)
    1  A    between atoms: N_2  and  C_15
    2  A    between atoms: C_4  and  S_13
    3  A    between atoms: C_4  and  C_25
    4  A    between atoms: C_5  and  N_22
    5  A    between atoms: C_10  and  C_15
    6  A    between atoms: S_13  and  C_14
                            x       y       z     vdW  Elec       q    Type
                         _______ _______ _______ _____ _____    ______ ____

>  <TORSDO>
F 6

$$$$
=
 OpenBabel11042410543D

 26 28  0  0  1  0  0  0  0  0999 V2000
  182.7850  179.0690  142.5090 C   0  0  0  0  0  2  0  0  0  0  0  0
  184.7950  178.2190  141.4590 C   0  0  2  0  0  3  0  0  0  0  0  0
  182.5310  177.4180  140.6180 C   0  0  0  0  0  0  0  0  0  0  0  0
  181.1110  177.5230  140.6620 N   0  0  0  0  0  1  0  0  0  0  0  0
  183.9730  179.6370  143.2630 C   0  0  0  0  0  2  0  0  0  0  0  0
  183.0650  176.5630  139.8630 O   0  0  0  0  0  0  0  0  0  0  0  0
  183.3430  178.2720  141.4360 N   0  0  0  0  0  0  0  0  0  0  0  0
  185.2080  178.9040  142.7520 C   0  0  1  0  0  3  0  0  0  0  0  0
  185.6310  177.8630  143.7740 C   0  0  0  0  0  2  0  0  0  0  0  0
  187.3540  177.3610  143.4820 S   0  0  0  0  0  0  0  0  0  0  0  0
  186.9780  178.1690  147.4210 C   0  0  0  0  0  3  0  0  0  0  0  0
  189.0630  177.2350  145.7680 C   0  0  0  0  0  0  0  0  0  0  0  0
  186.7590  177.9940  146.0560 C   0  0  0  0  0  3  0  0  0  0  0  0
  187.7820  177.5350  145.2170 C   0  0  0  0  0  0  0  0  0  0  0  0
  189.2620  177.4230  147.1480 C   0  0  0  0  0  0  0  0  0  0  0  0
  188.2280  177.8860  147.9650 C   0  0  0  0  0  3  0  0  0  0  0  0
  190.4980  177.1480  147.7210 O   0  0  0  0  0  1  0  0  0  0  0  0
  190.9700  177.4440  144.2780 C   0  0  0  0  0  0  0  0  0  0  0  0
  191.7350  178.1080  143.5670 O   0  0  0  0  0  0  0  0  0  0  0  0
  190.1890  176.7530  145.0080 N   0  0  0  0  0  0  0  0  0  0  0  0
  185.3730  179.0030  140.2850 C   0  0  0  0  0  2  0  0  0  0  0  0
  186.0310  178.1070  139.3480 N   0  0  0  0  0  0  0  0  0  0  0  0
  185.7730  178.6260  138.0150 C   0  0  0  0  0  2  0  0  0  0  0  0
  187.0150  178.3870  137.1860 C   0  0  0  0  0  2  0  0  0  0  0  0
  187.4660  178.2510  139.5440 C   0  0  0  0  0  2  0  0  0  0  0  0
  188.1270  178.1830  138.1840 C   0  0  0  0  0  2  0  0  0  0  0  0
  1  5  1  0  0  0  0
  2 21  1  6  0  0  0
  2  8  1  0  0  0  0
  3  4  1  0  0  0  0
  3  7  1  0  0  0  0
  6  3  2  0  0  0  0
  7  2  1  0  0  0  0
  7  1  1  0  0  0  0
  8  5  1  0  0  0  0
  8  9  1  1  0  0  0
 10  9  1  0  0  0  0
 10 14  1  0  0  0  0
 11 16  1  0  0  0  0
 12 15  1  0  0  0  0
 13 11  2  0  0  0  0
 14 12  2  0  0  0  0
 14 13  1  0  0  0  0
 15 17  1  0  0  0  0
 15 16  2  0  0  0  0
 18 20  2  0  0  0  0
 19 18  2  0  0  0  0
 20 12  1  0  0  0  0
 22 25  1  0  0  0  0
 22 21  1  0  0  0  0
 23 22  1  0  0  0  0
 24 23  1  0  0  0  0
 24 26  1  0  0  0  0
 26 25  1  0  0  0  0
M  END
>  <MODEL>
8

>  <REMARK>
 VINA RESULT:      -6.8      3.360      7.838
  Name = 
  6 active torsions:
  status: ('A' for Active; 'I' for Inactive)
    1  A    between atoms: N_2  and  C_15
    2  A    between atoms: C_4  and  S_13
    3  A    between atoms: C_4  and  C_25
    4  A    between atoms: C_5  and  N_22
    5  A    between atoms: C_10  and  C_15
    6  A    between atoms: S_13  and  C_14
                            x       y       z     vdW  Elec       q    Type
                         _______ _______ _______ _____ _____    ______ ____

>  <TORSDO>
F 6

$$$$
=
 OpenBabel11042410543D

 26 28  0  0  1  0  0  0  0  0999 V2000
  190.4310  176.6510  140.2930 C   0  0  0  0  0  2  0  0  0  0  0  0
  188.6860  178.1270  141.0920 C   0  0  2  0  0  3  0  0  0  0  0  0
  189.4010  178.2690  138.6540 C   0  0  0  0  0  0  0  0  0  0  0  0
  190.1770  177.7430  137.5820 N   0  0  0  0  0  1  0  0  0  0  0  0
  190.2770  176.4150  141.7830 C   0  0  0  0  0  2  0  0  0  0  0  0
  188.6910  179.2910  138.4600 O   0  0  0  0  0  0  0  0  0  0  0  0
  189.4370  177.6460  139.9450 N   0  0  0  0  0  0  0  0  0  0  0  0
  189.3610  177.5150  142.3080 C   0  0  1  0  0  3  0  0  0  0  0  0
  190.1970  178.5660  143.0180 C   0  0  0  0  0  2  0  0  0  0  0  0
  191.0940  177.8200  144.4130 S   0  0  0  0  0  0  0  0  0  0  0  0
  187.1840  177.8780  145.4210 C   0  0  0  0  0  3  0  0  0  0  0  0
  189.5950  177.4380  146.8150 C   0  0  0  0  0  0  0  0  0  0  0  0
  188.3990  177.9300  144.7430 C   0  0  0  0  0  3  0  0  0  0  0  0
  189.6080  177.7190  145.4160 C   0  0  0  0  0  0  0  0  0  0  0  0
  188.3550  177.3940  147.4800 C   0  0  0  0  0  0  0  0  0  0  0  0
  187.1630  177.6120  146.7880 C   0  0  0  0  0  3  0  0  0  0  0  0
  188.3020  177.1290  148.8440 O   0  0  0  0  0  1  0  0  0  0  0  0
  191.6510  176.2980  147.4260 C   0  0  0  0  0  0  0  0  0  0  0  0
  192.5110  175.4250  147.2500 O   0  0  0  0  0  0  0  0  0  0  0  0
  190.7710  177.1980  147.6130 N   0  0  0  0  0  0  0  0  0  0  0  0
  187.2460  177.6290  141.0300 C   0  0  0  0  0  2  0  0  0  0  0  0
  186.3170  178.7440  141.1160 N   0  0  0  0  0  0  0  0  0  0  0  0
  185.4120  178.6290  139.9840 C   0  0  0  0  0  2  0  0  0  0  0  0
  184.0430  179.0740  140.4480 C   0  0  0  0  0  2  0  0  0  0  0  0
  185.4870  178.5280  142.2920 C   0  0  0  0  0  2  0  0  0  0  0  0
  184.0790  178.9690  141.9520 C   0  0  0  0  0  2  0  0  0  0  0  0
  1  5  1  0  0  0  0
  2 21  1  6  0  0  0
  2  8  1  0  0  0  0
  3  7  1  0  0  0  0
  4  3  1  0  0  0  0
  5  8  1  0  0  0  0
  6  3  2  0  0  0  0
  7  1  1  0  0  0  0
  7  2  1  0  0  0  0
  8  9  1  6  0  0  0
  9 10  1  0  0  0  0
 10 14  1  0  0  0  0
 11 16  1  0  0  0  0
 12 15  1  0  0  0  0
 12 20  1  0  0  0  0
 13 14  1  0  0  0  0
 13 11  2  0  0  0  0
 14 12  2  0  0  0  0
 15 17  1  0  0  0  0
 16 15  2  0  0  0  0
 18 20  2  0  0  0  0
 19 18  2  0  0  0  0
 21 22  1  0  0  0  0
 22 25  1  0  0  0  0
 23 24  1  0  0  0  0
 23 22  1  0  0  0  0
 24 26  1  0  0  0  0
 26 25  1  0  0  0  0
M  END
>  <MODEL>
9

>  <REMARK>
 VINA RESULT:      -6.7      2.309      6.919
  Name = 
  6 active torsions:
  status: ('A' for Active; 'I' for Inactive)
    1  A    between atoms: N_2  and  C_15
    2  A    between atoms: C_4  and  S_13
    3  A    between atoms: C_4  and  C_25
    4  A    between atoms: C_5  and  N_22
    5  A    between atoms: C_10  and  C_15
    6  A    between atoms: S_13  and  C_14
                            x       y       z     vdW  Elec       q    Type
                         _______ _______ _______ _____ _____    ______ ____

>  <TORSDO>
F 6

$$$$
