=
 OpenBabel11042413093D

 32 36  0  0  1  0  0  0  0  0999 V2000
  184.7070  178.6330  145.9420 C   0  0  0  0  0  3  0  0  0  0  0  0
  189.8580  177.1160  146.7260 C   0  0  0  0  0  3  0  0  0  0  0  0
  191.0890  176.2580  144.7800 C   0  0  0  0  0  0  0  0  0  0  0  0
  187.4090  177.9180  146.1240 C   0  0  0  0  0  0  0  0  0  0  0  0
  185.3610  178.5870  147.2040 C   0  0  0  0  0  3  0  0  0  0  0  0
  185.6700  177.9160  142.4400 C   0  0  0  0  0  3  0  0  0  0  0  0
  185.4330  178.3150  144.7800 C   0  0  0  0  0  0  0  0  0  0  0  0
  192.0000  175.5110  144.3320 O   0  0  0  0  0  0  0  0  0  0  0  0
  187.0360  177.5620  142.5970 C   0  0  0  0  0  3  0  0  0  0  0  0
  186.7290  178.2180  147.3090 C   0  0  0  0  0  3  0  0  0  0  0  0
  188.8620  177.2940  144.4820 C   0  0  0  0  0  0  0  0  0  0  0  0
  190.9760  176.5340  146.2510 C   0  0  0  0  0  0  0  0  0  0  0  0
  187.5590  177.6230  143.8900 C   0  0  0  0  0  0  0  0  0  0  0  0
  186.7630  177.9830  144.9280 C   0  0  0  0  0  0  0  0  0  0  0  0
  188.7680  177.4660  145.8100 C   0  0  0  0  0  0  0  0  0  0  0  0
  184.9000  178.2830  143.5230 N   0  0  0  0  0  0  0  0  0  0  0  0
  190.1390  176.9010  143.7930 C   0  0  1  0  0  3  0  0  0  0  0  0
  192.2830  176.9280  148.3820 N   0  0  0  0  0  2  0  0  0  0  0  0
  193.3440  176.6030  149.3210 C   0  0  0  0  0  1  0  0  0  0  0  0
  192.0460  176.1550  147.2040 C   0  0  0  0  0  0  0  0  0  0  0  0
  192.7580  175.1370  146.9760 O   0  0  0  0  0  0  0  0  0  0  0  0
  190.7830  178.0830  143.2340 N   0  0  0  0  0  2  0  0  0  0  0  0
  191.3380  177.7290  142.0510 O   0  0  0  0  0  0  0  0  0  0  0  0
  190.4450  176.8030  141.5100 C   0  0  0  0  0  2  0  0  0  0  0  0
  190.1490  177.1560  140.0900 C   0  0  0  0  0  0  0  0  0  0  0  0
  189.2700  178.1380  139.8280 C   0  0  0  0  0  3  0  0  0  0  0  0
  189.2100  177.4780  137.4010 C   0  0  2  0  0  3  0  0  0  0  0  0
  188.9310  178.5790  138.4260 C   0  0  0  0  0  2  0  0  0  0  0  0
  190.7400  176.2960  138.9950 C   0  0  0  0  0  2  0  0  0  0  0  0
  190.6200  176.9300  137.6080 C   0  0  0  0  0  2  0  0  0  0  0  0
  189.0430  178.0070  135.9790 C   0  0  0  0  0  2  0  0  0  0  0  0
  187.6910  178.1130  135.6410 O   0  0  0  0  0  1  0  0  0  0  0  0
  1  5  1  0  0  0  0
  3 12  1  0  0  0  0
  4 10  1  0  0  0  0
  5 10  2  0  0  0  0
  6  9  1  0  0  0  0
  6 16  2  0  0  0  0
  7 14  1  0  0  0  0
  7  1  2  0  0  0  0
  8  3  2  0  0  0  0
  9 13  2  0  0  0  0
 11 15  2  0  0  0  0
 12  2  2  0  0  0  0
 12 20  1  0  0  0  0
 13 11  1  0  0  0  0
 13 14  1  0  0  0  0
 14  4  2  0  0  0  0
 15  4  1  0  0  0  0
 15  2  1  0  0  0  0
 16  7  1  0  0  0  0
 17 22  1  1  0  0  0
 17 11  1  0  0  0  0
 17  3  1  0  0  0  0
 18 19  1  0  0  0  0
 20 18  1  0  0  0  0
 21 20  2  0  0  0  0
 23 22  1  0  0  0  0
 24 23  1  0  0  0  0
 25 24  1  0  0  0  0
 26 25  2  0  0  0  0
 27 31  1  6  0  0  0
 27 30  1  0  0  0  0
 27 28  1  0  0  0  0
 28 26  1  0  0  0  0
 29 25  1  0  0  0  0
 30 29  1  0  0  0  0
 32 31  1  0  0  0  0
M  END
>  <MODEL>
1

>  <REMARK>
 VINA RESULT:     -10.0      0.000      0.000
  Name = 
  6 active torsions:
  status: ('A' for Active; 'I' for Inactive)
    1  A    between atoms: C_2  and  C_3
    2  A    between atoms: C_2  and  O_13
    3  A    between atoms: C_10  and  C_17
    4  A    between atoms: O_13  and  N_20
    5  A    between atoms: C_18  and  C_24
    6  A    between atoms: N_20  and  C_32
                            x       y       z     vdW  Elec       q    Type
                         _______ _______ _______ _____ _____    ______ ____

>  <TORSDO>
F 6

$$$$
=
 OpenBabel11042413093D

 32 36  0  0  1  0  0  0  0  0999 V2000
  190.0630  176.9120  147.3660 C   0  0  0  0  0  3  0  0  0  0  0  0
  190.8390  177.0320  141.9970 C   0  0  0  0  0  3  0  0  0  0  0  0
  188.8430  177.2010  140.5730 C   0  0  0  0  0  0  0  0  0  0  0  0
  190.2710  177.1110  144.5800 C   0  0  0  0  0  0  0  0  0  0  0  0
  191.3180  176.7400  146.7200 C   0  0  0  0  0  3  0  0  0  0  0  0
  186.5870  177.5470  146.2640 C   0  0  0  0  0  3  0  0  0  0  0  0
  188.9220  177.1850  146.5910 C   0  0  0  0  0  0  0  0  0  0  0  0
  188.2900  176.9510  139.4690 O   0  0  0  0  0  0  0  0  0  0  0  0
  186.7570  177.6370  144.8570 C   0  0  0  0  0  3  0  0  0  0  0  0
  191.4330  176.8310  145.3060 C   0  0  0  0  0  3  0  0  0  0  0  0
  188.6470  177.4810  143.0240 C   0  0  0  0  0  0  0  0  0  0  0  0
  190.3210  177.0080  140.7540 C   0  0  0  0  0  0  0  0  0  0  0  0
  188.0580  177.5100  144.3690 C   0  0  0  0  0  0  0  0  0  0  0  0
  189.0860  177.2850  145.2260 C   0  0  0  0  0  0  0  0  0  0  0  0
  189.9610  177.2400  143.1530 C   0  0  0  0  0  0  0  0  0  0  0  0
  187.6620  177.3250  147.0980 N   0  0  0  0  0  0  0  0  0  0  0  0
  187.9860  177.7380  141.6990 C   0  0  1  0  0  3  0  0  0  0  0  0
  190.9840  175.6690  138.7120 N   0  0  0  0  0  2  0  0  0  0  0  0
  191.8670  175.3750  137.5950 C   0  0  0  0  0  1  0  0  0  0  0  0
  191.2240  176.7580  139.6060 C   0  0  0  0  0  0  0  0  0  0  0  0
  192.2170  177.5120  139.4120 O   0  0  0  0  0  0  0  0  0  0  0  0
  187.8120  179.1720  141.5040 N   0  0  0  0  0  2  0  0  0  0  0  0
  186.5920  179.5090  141.9870 O   0  0  0  0  0  0  0  0  0  0  0  0
  185.6930  178.8090  141.1810 C   0  0  0  0  0  2  0  0  0  0  0  0
  184.3620  178.7370  141.8530 C   0  0  0  0  0  0  0  0  0  0  0  0
  183.2780  178.4090  141.1280 C   0  0  0  0  0  3  0  0  0  0  0  0
  181.7680  179.0980  143.0170 C   0  0  2  0  0  3  0  0  0  0  0  0
  181.9000  178.2860  141.7270 C   0  0  0  0  0  2  0  0  0  0  0  0
  184.2570  179.1800  143.2950 C   0  0  0  0  0  2  0  0  0  0  0  0
  182.9340  178.7750  143.9480 C   0  0  0  0  0  2  0  0  0  0  0  0
  180.4350  178.8080  143.7050 C   0  0  0  0  0  2  0  0  0  0  0  0
  179.6100  178.0310  142.8870 O   0  0  0  0  0  1  0  0  0  0  0  0
  2 15  1  0  0  0  0
  3 12  1  0  0  0  0
  3 17  1  0  0  0  0
  4 14  2  0  0  0  0
  4 10  1  0  0  0  0
  5  1  1  0  0  0  0
  6 16  2  0  0  0  0
  7 16  1  0  0  0  0
  7  1  2  0  0  0  0
  8  3  2  0  0  0  0
  9  6  1  0  0  0  0
 10  5  2  0  0  0  0
 11 15  2  0  0  0  0
 11 13  1  0  0  0  0
 12  2  2  0  0  0  0
 13  9  2  0  0  0  0
 13 14  1  0  0  0  0
 14  7  1  0  0  0  0
 15  4  1  0  0  0  0
 17 22  1  6  0  0  0
 17 11  1  0  0  0  0
 18 20  1  0  0  0  0
 19 18  1  0  0  0  0
 20 12  1  0  0  0  0
 21 20  2  0  0  0  0
 22 23  1  0  0  0  0
 24 25  1  0  0  0  0
 24 23  1  0  0  0  0
 25 29  1  0  0  0  0
 26 28  1  0  0  0  0
 26 25  2  0  0  0  0
 27 31  1  1  0  0  0
 27 30  1  0  0  0  0
 28 27  1  0  0  0  0
 29 30  1  0  0  0  0
 32 31  1  0  0  0  0
M  END
>  <MODEL>
2

>  <REMARK>
 VINA RESULT:      -9.9      3.183      6.593
  Name = 
  6 active torsions:
  status: ('A' for Active; 'I' for Inactive)
    1  A    between atoms: C_2  and  C_3
    2  A    between atoms: C_2  and  O_13
    3  A    between atoms: C_10  and  C_17
    4  A    between atoms: O_13  and  N_20
    5  A    between atoms: C_18  and  C_24
    6  A    between atoms: N_20  and  C_32
                            x       y       z     vdW  Elec       q    Type
                         _______ _______ _______ _____ _____    ______ ____

>  <TORSDO>
F 6

$$$$
=
 OpenBabel11042413093D

 32 36  0  0  1  0  0  0  0  0999 V2000
  184.7080  178.7120  145.7940 C   0  0  0  0  0  3  0  0  0  0  0  0
  189.8220  177.0650  146.5530 C   0  0  0  0  0  3  0  0  0  0  0  0
  191.0550  176.2700  144.5810 C   0  0  0  0  0  0  0  0  0  0  0  0
  187.3940  177.9380  145.9670 C   0  0  0  0  0  0  0  0  0  0  0  0
  185.3490  178.5990  147.0590 C   0  0  0  0  0  3  0  0  0  0  0  0
  185.6890  178.1310  142.2720 C   0  0  0  0  0  3  0  0  0  0  0  0
  185.4380  178.4310  144.6250 C   0  0  0  0  0  0  0  0  0  0  0  0
  191.9560  175.5260  144.1090 O   0  0  0  0  0  0  0  0  0  0  0  0
  187.0460  177.7450  142.4250 C   0  0  0  0  0  3  0  0  0  0  0  0
  186.7090  178.1990  147.1580 C   0  0  0  0  0  3  0  0  0  0  0  0
  188.8500  177.3600  144.3120 C   0  0  0  0  0  0  0  0  0  0  0  0
  190.9330  176.4830  146.0630 C   0  0  0  0  0  0  0  0  0  0  0  0
  187.5590  177.7390  143.7240 C   0  0  0  0  0  0  0  0  0  0  0  0
  186.7600  178.0690  144.7700 C   0  0  0  0  0  0  0  0  0  0  0  0
  188.7480  177.4750  145.6440 C   0  0  0  0  0  0  0  0  0  0  0  0
  184.9160  178.4640  143.3640 N   0  0  0  0  0  0  0  0  0  0  0  0
  190.1250  176.9730  143.6160 C   0  0  1  0  0  3  0  0  0  0  0  0
  192.2430  176.7720  148.2090 N   0  0  0  0  0  2  0  0  0  0  0  0
  193.2900  176.3860  149.1410 C   0  0  0  0  0  1  0  0  0  0  0  0
  191.9870  176.0420  147.0070 C   0  0  0  0  0  0  0  0  0  0  0  0
  192.6690  175.0110  146.7500 O   0  0  0  0  0  0  0  0  0  0  0  0
  190.7960  178.1670  143.1150 N   0  0  0  0  0  2  0  0  0  0  0  0
  191.4490  177.8260  141.9790 O   0  0  0  0  0  0  0  0  0  0  0  0
  190.4410  177.4060  141.1100 C   0  0  0  0  0  2  0  0  0  0  0  0
  191.0390  176.9700  139.8140 C   0  0  0  0  0  0  0  0  0  0  0  0
  190.2370  176.4770  138.8540 C   0  0  0  0  0  3  0  0  0  0  0  0
  192.2360  175.6750  137.5540 C   0  0  2  0  0  3  0  0  0  0  0  0
  190.7500  176.0390  137.5050 C   0  0  0  0  0  2  0  0  0  0  0  0
  192.5450  176.9620  139.6810 C   0  0  0  0  0  2  0  0  0  0  0  0
  193.0160  176.7960  138.2350 C   0  0  0  0  0  2  0  0  0  0  0  0
  192.7760  175.4200  136.1490 C   0  0  0  0  0  2  0  0  0  0  0  0
  193.9250  176.1800  135.9100 O   0  0  0  0  0  1  0  0  0  0  0  0
  1  5  1  0  0  0  0
  3 12  1  0  0  0  0
  4 10  1  0  0  0  0
  5 10  2  0  0  0  0
  6  9  1  0  0  0  0
  6 16  2  0  0  0  0
  7 14  1  0  0  0  0
  7  1  2  0  0  0  0
  8  3  2  0  0  0  0
  9 13  2  0  0  0  0
 11 15  2  0  0  0  0
 12  2  2  0  0  0  0
 12 20  1  0  0  0  0
 13 11  1  0  0  0  0
 13 14  1  0  0  0  0
 14  4  2  0  0  0  0
 15  4  1  0  0  0  0
 15  2  1  0  0  0  0
 16  7  1  0  0  0  0
 17 22  1  1  0  0  0
 17 11  1  0  0  0  0
 17  3  1  0  0  0  0
 18 19  1  0  0  0  0
 20 18  1  0  0  0  0
 21 20  2  0  0  0  0
 23 22  1  0  0  0  0
 24 23  1  0  0  0  0
 25 24  1  0  0  0  0
 26 25  2  0  0  0  0
 27 31  1  6  0  0  0
 27 30  1  0  0  0  0
 28 27  1  0  0  0  0
 28 26  1  0  0  0  0
 29 25  1  0  0  0  0
 30 29  1  0  0  0  0
 32 31  1  0  0  0  0
M  END
>  <MODEL>
3

>  <REMARK>
 VINA RESULT:      -9.6      1.475      1.801
  Name = 
  6 active torsions:
  status: ('A' for Active; 'I' for Inactive)
    1  A    between atoms: C_2  and  C_3
    2  A    between atoms: C_2  and  O_13
    3  A    between atoms: C_10  and  C_17
    4  A    between atoms: O_13  and  N_20
    5  A    between atoms: C_18  and  C_24
    6  A    between atoms: N_20  and  C_32
                            x       y       z     vdW  Elec       q    Type
                         _______ _______ _______ _____ _____    ______ ____

>  <TORSDO>
F 6

$$$$
=
 OpenBabel11042413093D

 32 36  0  0  1  0  0  0  0  0999 V2000
  182.0360  178.9810  144.1130 C   0  0  0  0  0  3  0  0  0  0  0  0
  185.5880  178.2440  140.0780 C   0  0  0  0  0  3  0  0  0  0  0  0
  187.9770  178.3270  140.6490 C   0  0  0  0  0  0  0  0  0  0  0  0
  184.0140  178.5020  142.1890 C   0  0  0  0  0  0  0  0  0  0  0  0
  181.6940  178.8570  142.7380 C   0  0  0  0  0  3  0  0  0  0  0  0
  185.1760  178.9140  146.0720 C   0  0  0  0  0  3  0  0  0  0  0  0
  183.3820  178.8590  144.5000 C   0  0  0  0  0  0  0  0  0  0  0  0
  189.1570  178.5780  140.2870 O   0  0  0  0  0  0  0  0  0  0  0  0
  186.1320  178.6700  145.0510 C   0  0  0  0  0  3  0  0  0  0  0  0
  182.6900  178.6220  141.7530 C   0  0  0  0  0  3  0  0  0  0  0  0
  186.2710  178.3070  142.4410 C   0  0  0  0  0  0  0  0  0  0  0  0
  186.8630  178.2560  139.6450 C   0  0  0  0  0  0  0  0  0  0  0  0
  185.6430  178.5080  143.7530 C   0  0  0  0  0  0  0  0  0  0  0  0
  184.3110  178.6100  143.5130 C   0  0  0  0  0  0  0  0  0  0  0  0
  185.3010  178.3080  141.5140 C   0  0  0  0  0  0  0  0  0  0  0  0
  183.8320  179.0030  145.7810 N   0  0  0  0  0  0  0  0  0  0  0  0
  187.7180  178.0620  142.1160 C   0  0  1  0  0  3  0  0  0  0  0  0
  187.7350  177.0920  137.5730 N   0  0  0  0  0  2  0  0  0  0  0  0
  188.0340  177.0450  136.1520 C   0  0  0  0  0  1  0  0  0  0  0  0
  187.1250  178.2300  138.1860 C   0  0  0  0  0  0  0  0  0  0  0  0
  186.8070  179.2220  137.4730 O   0  0  0  0  0  0  0  0  0  0  0  0
  188.0610  176.6740  142.4030 N   0  0  0  0  0  2  0  0  0  0  0  0
  189.3830  176.6270  142.6900 O   0  0  0  0  0  0  0  0  0  0  0  0
  189.5630  177.6120  143.6630 C   0  0  0  0  0  2  0  0  0  0  0  0
  190.2880  177.0380  144.8350 C   0  0  0  0  0  0  0  0  0  0  0  0
  189.8480  177.3100  146.0760 C   0  0  0  0  0  3  0  0  0  0  0  0
  191.9610  176.3680  147.0640 C   0  0  2  0  0  3  0  0  0  0  0  0
  190.5010  176.7520  147.3150 C   0  0  0  0  0  2  0  0  0  0  0  0
  191.5800  176.2920  144.5890 C   0  0  0  0  0  2  0  0  0  0  0  0
  192.0560  175.5030  145.8100 C   0  0  0  0  0  2  0  0  0  0  0  0
  192.5420  175.6340  148.2700 C   0  0  0  0  0  2  0  0  0  0  0  0
  193.2970  176.5000  149.0660 O   0  0  0  0  0  1  0  0  0  0  0  0
  1  7  1  0  0  0  0
  2 15  1  0  0  0  0
  3 17  1  0  0  0  0
  4 14  1  0  0  0  0
  5  1  2  0  0  0  0
  7 16  2  0  0  0  0
  8  3  2  0  0  0  0
  9  6  2  0  0  0  0
 10  4  2  0  0  0  0
 10  5  1  0  0  0  0
 11 13  1  0  0  0  0
 12  2  2  0  0  0  0
 12  3  1  0  0  0  0
 13  9  1  0  0  0  0
 14 13  2  0  0  0  0
 14  7  1  0  0  0  0
 15  4  1  0  0  0  0
 15 11  2  0  0  0  0
 16  6  1  0  0  0  0
 17 22  1  6  0  0  0
 17 11  1  0  0  0  0
 18 20  1  0  0  0  0
 19 18  1  0  0  0  0
 20 12  1  0  0  0  0
 21 20  2  0  0  0  0
 22 23  1  0  0  0  0
 23 24  1  0  0  0  0
 24 25  1  0  0  0  0
 25 26  2  0  0  0  0
 26 28  1  0  0  0  0
 27 28  1  0  0  0  0
 27 31  1  1  0  0  0
 29 25  1  0  0  0  0
 29 30  1  0  0  0  0
 30 27  1  0  0  0  0
 31 32  1  0  0  0  0
M  END
>  <MODEL>
4

>  <REMARK>
 VINA RESULT:      -9.6      2.302      7.416
  Name = 
  6 active torsions:
  status: ('A' for Active; 'I' for Inactive)
    1  A    between atoms: C_2  and  C_3
    2  A    between atoms: C_2  and  O_13
    3  A    between atoms: C_10  and  C_17
    4  A    between atoms: O_13  and  N_20
    5  A    between atoms: C_18  and  C_24
    6  A    between atoms: N_20  and  C_32
                            x       y       z     vdW  Elec       q    Type
                         _______ _______ _______ _____ _____    ______ ____

>  <TORSDO>
F 6

$$$$
=
 OpenBabel11042413093D

 32 36  0  0  1  0  0  0  0  0999 V2000
  181.4630  178.9720  141.4960 C   0  0  0  0  0  3  0  0  0  0  0  0
  186.5970  178.2680  139.8840 C   0  0  0  0  0  3  0  0  0  0  0  0
  188.3460  178.3910  141.6060 C   0  0  0  0  0  0  0  0  0  0  0  0
  184.1560  178.5130  140.8760 C   0  0  0  0  0  0  0  0  0  0  0  0
  181.8820  178.8350  140.1440 C   0  0  0  0  0  3  0  0  0  0  0  0
  183.1410  178.9640  144.7960 C   0  0  0  0  0  3  0  0  0  0  0  0
  182.4170  178.8730  142.5240 C   0  0  0  0  0  0  0  0  0  0  0  0
  189.5410  178.6580  141.9020 O   0  0  0  0  0  0  0  0  0  0  0  0
  184.4890  178.7290  144.4180 C   0  0  0  0  0  3  0  0  0  0  0  0
  183.2460  178.6100  139.8180 C   0  0  0  0  0  3  0  0  0  0  0  0
  185.9600  178.3540  142.2600 C   0  0  0  0  0  0  0  0  0  0  0  0
  187.9120  178.2970  140.1720 C   0  0  0  0  0  0  0  0  0  0  0  0
  184.7420  178.5520  143.0570 C   0  0  0  0  0  0  0  0  0  0  0  0
  183.7250  178.6330  142.1610 C   0  0  0  0  0  0  0  0  0  0  0  0
  185.6090  178.3350  140.9650 C   0  0  0  0  0  0  0  0  0  0  0  0
  182.1390  179.0310  143.8520 N   0  0  0  0  0  0  0  0  0  0  0  0
  187.3690  178.1300  142.7320 C   0  0  1  0  0  3  0  0  0  0  0  0
  189.6780  177.1010  138.8090 N   0  0  0  0  0  2  0  0  0  0  0  0
  190.6680  177.0490  137.7460 C   0  0  0  0  0  1  0  0  0  0  0  0
  188.8900  178.2670  139.0590 C   0  0  0  0  0  0  0  0  0  0  0  0
  189.0320  179.2810  138.3200 O   0  0  0  0  0  0  0  0  0  0  0  0
  187.5290  176.7490  143.1720 N   0  0  0  0  0  2  0  0  0  0  0  0
  187.3600  176.7220  144.5150 O   0  0  0  0  0  0  0  0  0  0  0  0
  188.0790  177.8250  144.9780 C   0  0  0  0  0  2  0  0  0  0  0  0
  189.3030  177.3650  145.6980 C   0  0  0  0  0  0  0  0  0  0  0  0
  190.3640  176.9460  144.9870 C   0  0  0  0  0  3  0  0  0  0  0  0
  191.4310  176.0170  147.0670 C   0  0  2  0  0  3  0  0  0  0  0  0
  191.6500  176.4900  145.6280 C   0  0  0  0  0  2  0  0  0  0  0  0
  189.2530  177.2480  147.2050 C   0  0  0  0  0  2  0  0  0  0  0  0
  190.6350  177.0670  147.8360 C   0  0  0  0  0  2  0  0  0  0  0  0
  192.7660  175.7430  147.7560 C   0  0  0  0  0  2  0  0  0  0  0  0
  192.9520  176.6010  148.8430 O   0  0  0  0  0  1  0  0  0  0  0  0
  1  7  1  0  0  0  0
  2 12  2  0  0  0  0
  2 15  1  0  0  0  0
  3  8  2  0  0  0  0
  3 17  1  0  0  0  0
  4 15  1  0  0  0  0
  4 14  1  0  0  0  0
  5  1  2  0  0  0  0
  7 16  1  0  0  0  0
  9  6  1  0  0  0  0
 10  5  1  0  0  0  0
 10  4  2  0  0  0  0
 11 17  1  0  0  0  0
 11 13  1  0  0  0  0
 12  3  1  0  0  0  0
 13  9  2  0  0  0  0
 14  7  2  0  0  0  0
 14 13  1  0  0  0  0
 15 11  2  0  0  0  0
 16  6  2  0  0  0  0
 17 22  1  6  0  0  0
 18 20  1  0  0  0  0
 19 18  1  0  0  0  0
 20 12  1  0  0  0  0
 21 20  2  0  0  0  0
 22 23  1  0  0  0  0
 23 24  1  0  0  0  0
 24 25  1  0  0  0  0
 25 29  1  0  0  0  0
 26 28  1  0  0  0  0
 26 25  2  0  0  0  0
 27 31  1  1  0  0  0
 27 30  1  0  0  0  0
 28 27  1  0  0  0  0
 29 30  1  0  0  0  0
 31 32  1  0  0  0  0
M  END
>  <MODEL>
5

>  <REMARK>
 VINA RESULT:      -9.5      2.417      7.347
  Name = 
  6 active torsions:
  status: ('A' for Active; 'I' for Inactive)
    1  A    between atoms: C_2  and  C_3
    2  A    between atoms: C_2  and  O_13
    3  A    between atoms: C_10  and  C_17
    4  A    between atoms: O_13  and  N_20
    5  A    between atoms: C_18  and  C_24
    6  A    between atoms: N_20  and  C_32
                            x       y       z     vdW  Elec       q    Type
                         _______ _______ _______ _____ _____    ______ ____

>  <TORSDO>
F 6

$$$$
=
 OpenBabel11042413093D

 32 36  0  0  1  0  0  0  0  0999 V2000
  183.3640  178.9360  145.0940 C   0  0  0  0  0  3  0  0  0  0  0  0
  188.5530  177.3730  144.8090 C   0  0  0  0  0  3  0  0  0  0  0  0
  189.4110  176.7090  142.6040 C   0  0  0  0  0  0  0  0  0  0  0  0
  186.0460  178.2180  144.7280 C   0  0  0  0  0  0  0  0  0  0  0  0
  184.2290  178.7740  146.2110 C   0  0  0  0  0  3  0  0  0  0  0  0
  183.6860  178.5590  141.4250 C   0  0  0  0  0  3  0  0  0  0  0  0
  183.8690  178.7330  143.7970 C   0  0  0  0  0  0  0  0  0  0  0  0
  190.2190  176.0120  141.9350 O   0  0  0  0  0  0  0  0  0  0  0  0
  185.0530  178.1980  141.3050 C   0  0  0  0  0  3  0  0  0  0  0  0
  185.5890  178.4020  146.0370 C   0  0  0  0  0  3  0  0  0  0  0  0
  187.1790  177.7590  142.8040 C   0  0  0  0  0  0  0  0  0  0  0  0
  189.5620  176.8440  144.0920 C   0  0  0  0  0  0  0  0  0  0  0  0
  185.7970  178.1380  142.4850 C   0  0  0  0  0  0  0  0  0  0  0  0
  185.2000  178.3950  143.6770 C   0  0  0  0  0  0  0  0  0  0  0  0
  187.3230  177.8040  144.1370 C   0  0  0  0  0  0  0  0  0  0  0  0
  183.1240  178.8180  142.6570 N   0  0  0  0  0  0  0  0  0  0  0  0
  188.3100  177.4380  141.8660 C   0  0  1  0  0  3  0  0  0  0  0  0
  190.8960  176.5200  146.2180 N   0  0  0  0  0  2  0  0  0  0  0  0
  192.0870  176.1050  146.9410 C   0  0  0  0  0  1  0  0  0  0  0  0
  190.7780  176.3800  144.8010 C   0  0  0  0  0  0  0  0  0  0  0  0
  191.7230  175.8540  144.1490 O   0  0  0  0  0  0  0  0  0  0  0  0
  188.8600  178.6720  141.3160 N   0  0  0  0  0  2  0  0  0  0  0  0
  188.2580  178.8960  140.1240 O   0  0  0  0  0  0  0  0  0  0  0  0
  189.0050  178.1510  139.2110 C   0  0  0  0  0  2  0  0  0  0  0  0
  188.0910  177.4630  138.2520 C   0  0  0  0  0  0  0  0  0  0  0  0
  186.8370  177.9220  138.0960 C   0  0  0  0  0  3  0  0  0  0  0  0
  186.2050  175.8520  136.8140 C   0  0  2  0  0  3  0  0  0  0  0  0
  185.8550  177.3080  137.1310 C   0  0  0  0  0  2  0  0  0  0  0  0
  188.5620  176.1840  137.5970 C   0  0  0  0  0  2  0  0  0  0  0  0
  187.6780  175.7510  136.4260 C   0  0  0  0  0  2  0  0  0  0  0  0
  185.3160  175.3120  135.6960 C   0  0  0  0  0  2  0  0  0  0  0  0
  184.7990  176.3550  134.9220 O   0  0  0  0  0  1  0  0  0  0  0  0
  1  5  1  0  0  0  0
  3 12  1  0  0  0  0
  4 10  1  0  0  0  0
  6 16  2  0  0  0  0
  7  1  2  0  0  0  0
  8  3  2  0  0  0  0
  9  6  1  0  0  0  0
  9 13  2  0  0  0  0
 10  5  2  0  0  0  0
 11 15  2  0  0  0  0
 12 20  1  0  0  0  0
 12  2  2  0  0  0  0
 13 11  1  0  0  0  0
 13 14  1  0  0  0  0
 14  7  1  0  0  0  0
 14  4  2  0  0  0  0
 15  4  1  0  0  0  0
 15  2  1  0  0  0  0
 16  7  1  0  0  0  0
 17 22  1  1  0  0  0
 17  3  1  0  0  0  0
 17 11  1  0  0  0  0
 18 19  1  0  0  0  0
 20 18  1  0  0  0  0
 21 20  2  0  0  0  0
 23 22  1  0  0  0  0
 24 23  1  0  0  0  0
 25 24  1  0  0  0  0
 26 25  2  0  0  0  0
 27 31  1  6  0  0  0
 27 28  1  0  0  0  0
 28 26  1  0  0  0  0
 29 25  1  0  0  0  0
 30 27  1  0  0  0  0
 30 29  1  0  0  0  0
 32 31  1  0  0  0  0
M  END
>  <MODEL>
6

>  <REMARK>
 VINA RESULT:      -9.5      2.027      2.757
  Name = 
  6 active torsions:
  status: ('A' for Active; 'I' for Inactive)
    1  A    between atoms: C_2  and  C_3
    2  A    between atoms: C_2  and  O_13
    3  A    between atoms: C_10  and  C_17
    4  A    between atoms: O_13  and  N_20
    5  A    between atoms: C_18  and  C_24
    6  A    between atoms: N_20  and  C_32
                            x       y       z     vdW  Elec       q    Type
                         _______ _______ _______ _____ _____    ______ ____

>  <TORSDO>
F 6

$$$$
=
 OpenBabel11042413093D

 32 36  0  0  1  0  0  0  0  0999 V2000
  189.9580  177.1600  147.3260 C   0  0  0  0  0  3  0  0  0  0  0  0
  185.7770  177.8810  143.9430 C   0  0  0  0  0  3  0  0  0  0  0  0
  186.2800  178.7410  141.6960 C   0  0  0  0  0  0  0  0  0  0  0  0
  187.9480  177.4800  145.4020 C   0  0  0  0  0  0  0  0  0  0  0  0
  188.5890  176.9970  147.6750 C   0  0  0  0  0  3  0  0  0  0  0  0
  191.8120  178.0640  144.2520 C   0  0  0  0  0  3  0  0  0  0  0  0
  190.2960  177.4830  146.0000 C   0  0  0  0  0  0  0  0  0  0  0  0
  185.8980  179.3960  140.6900 O   0  0  0  0  0  0  0  0  0  0  0  0
  190.7490  178.2120  143.3230 C   0  0  0  0  0  3  0  0  0  0  0  0
  187.5610  177.1650  146.7090 C   0  0  0  0  0  3  0  0  0  0  0  0
  188.1180  178.0510  143.2020 C   0  0  0  0  0  0  0  0  0  0  0  0
  185.3070  178.3460  142.7700 C   0  0  0  0  0  0  0  0  0  0  0  0
  189.4590  177.9590  143.7940 C   0  0  0  0  0  0  0  0  0  0  0  0
  189.2660  177.6150  145.0930 C   0  0  0  0  0  0  0  0  0  0  0  0
  187.2220  177.7700  144.1610 C   0  0  0  0  0  0  0  0  0  0  0  0
  191.5690  177.7060  145.5610 N   0  0  0  0  0  0  0  0  0  0  0  0
  187.7340  178.3290  141.7760 C   0  0  1  0  0  3  0  0  0  0  0  0
  183.0100  178.9080  143.6710 N   0  0  0  0  0  2  0  0  0  0  0  0
  181.5680  179.0250  143.5380 C   0  0  0  0  0  1  0  0  0  0  0  0
  183.8430  178.4850  142.5890 C   0  0  0  0  0  0  0  0  0  0  0  0
  183.3210  178.2290  141.4690 O   0  0  0  0  0  0  0  0  0  0  0  0
  187.9190  177.1280  140.9710 N   0  0  0  0  0  2  0  0  0  0  0  0
  188.1480  177.5180  139.6950 O   0  0  0  0  0  0  0  0  0  0  0  0
  189.3320  178.2540  139.7630 C   0  0  0  0  0  2  0  0  0  0  0  0
  190.4220  177.5250  139.0500 C   0  0  0  0  0  0  0  0  0  0  0  0
  190.2110  177.0950  137.7930 C   0  0  0  0  0  3  0  0  0  0  0  0
  192.3040  175.7030  137.8850 C   0  0  2  0  0  3  0  0  0  0  0  0
  191.2630  176.3750  136.9880 C   0  0  0  0  0  2  0  0  0  0  0  0
  191.6750  177.1680  139.8180 C   0  0  0  0  0  2  0  0  0  0  0  0
  192.8190  176.7060  138.9140 C   0  0  0  0  0  2  0  0  0  0  0  0
  193.4570  175.1460  137.0530 C   0  0  0  0  0  2  0  0  0  0  0  0
  194.6120  175.9170  137.2220 O   0  0  0  0  0  1  0  0  0  0  0  0
  1  5  1  0  0  0  0
  2 15  1  0  0  0  0
  3 17  1  0  0  0  0
  3 12  1  0  0  0  0
  4 10  1  0  0  0  0
  6 16  2  0  0  0  0
  7  1  2  0  0  0  0
  8  3  2  0  0  0  0
  9 13  2  0  0  0  0
  9  6  1  0  0  0  0
 10  5  2  0  0  0  0
 11 13  1  0  0  0  0
 11 15  2  0  0  0  0
 12  2  2  0  0  0  0
 13 14  1  0  0  0  0
 14  4  2  0  0  0  0
 14  7  1  0  0  0  0
 15  4  1  0  0  0  0
 16  7  1  0  0  0  0
 17 22  1  6  0  0  0
 17 11  1  0  0  0  0
 19 18  1  0  0  0  0
 20 12  1  0  0  0  0
 20 18  1  0  0  0  0
 21 20  2  0  0  0  0
 23 24  1  0  0  0  0
 23 22  1  0  0  0  0
 25 24  1  0  0  0  0
 25 29  1  0  0  0  0
 26 25  2  0  0  0  0
 27 31  1  6  0  0  0
 27 30  1  0  0  0  0
 28 26  1  0  0  0  0
 28 27  1  0  0  0  0
 30 29  1  0  0  0  0
 31 32  1  0  0  0  0
M  END
>  <MODEL>
7

>  <REMARK>
 VINA RESULT:      -9.5      2.730      5.757
  Name = 
  6 active torsions:
  status: ('A' for Active; 'I' for Inactive)
    1  A    between atoms: C_2  and  C_3
    2  A    between atoms: C_2  and  O_13
    3  A    between atoms: C_10  and  C_17
    4  A    between atoms: O_13  and  N_20
    5  A    between atoms: C_18  and  C_24
    6  A    between atoms: N_20  and  C_32
                            x       y       z     vdW  Elec       q    Type
                         _______ _______ _______ _____ _____    ______ ____

>  <TORSDO>
F 6

$$$$
=
 OpenBabel11042413093D

 32 36  0  0  1  0  0  0  0  0999 V2000
  188.7160  177.3070  148.0870 C   0  0  0  0  0  3  0  0  0  0  0  0
  186.2980  178.0850  143.2920 C   0  0  0  0  0  3  0  0  0  0  0  0
  187.7490  178.3210  141.3220 C   0  0  0  0  0  0  0  0  0  0  0  0
  187.6480  177.5910  145.5130 C   0  0  0  0  0  0  0  0  0  0  0  0
  187.3190  177.4970  147.8990 C   0  0  0  0  0  3  0  0  0  0  0  0
  191.6810  177.1390  145.8760 C   0  0  0  0  0  3  0  0  0  0  0  0
  189.5610  177.2620  146.9630 C   0  0  0  0  0  0  0  0  0  0  0  0
  187.9230  178.8030  140.1710 O   0  0  0  0  0  0  0  0  0  0  0  0
  191.0800  177.2880  144.5990 C   0  0  0  0  0  3  0  0  0  0  0  0
  186.7680  177.6500  146.5990 C   0  0  0  0  0  3  0  0  0  0  0  0
  188.7070  177.6260  143.4950 C   0  0  0  0  0  0  0  0  0  0  0  0
  186.4000  178.3680  141.9790 C   0  0  0  0  0  0  0  0  0  0  0  0
  189.6890  177.4020  144.5640 C   0  0  0  0  0  0  0  0  0  0  0  0
  188.9780  177.3940  145.7210 C   0  0  0  0  0  0  0  0  0  0  0  0
  187.4970  177.7420  144.0620 C   0  0  0  0  0  0  0  0  0  0  0  0
  190.9180  177.1280  147.0240 N   0  0  0  0  0  0  0  0  0  0  0  0
  188.9240  177.6580  142.0080 C   0  0  1  0  0  3  0  0  0  0  0  0
  183.9720  177.9960  141.3690 N   0  0  0  0  0  2  0  0  0  0  0  0
  182.7650  178.3240  140.6280 C   0  0  0  0  0  1  0  0  0  0  0  0
  185.1780  178.7500  141.2320 C   0  0  0  0  0  0  0  0  0  0  0  0
  185.1990  179.7530  140.4640 O   0  0  0  0  0  0  0  0  0  0  0  0
  189.0500  176.2980  141.4980 N   0  0  0  0  0  2  0  0  0  0  0  0
  190.3680  176.0410  141.3310 O   0  0  0  0  0  0  0  0  0  0  0  0
  190.8410  177.1210  140.5830 C   0  0  0  0  0  2  0  0  0  0  0  0
  191.3540  176.6380  139.2670 C   0  0  0  0  0  0  0  0  0  0  0  0
  190.5160  176.0050  138.4280 C   0  0  0  0  0  3  0  0  0  0  0  0
  192.4500  175.2790  136.9930 C   0  0  2  0  0  3  0  0  0  0  0  0
  190.9390  175.5090  137.0690 C   0  0  0  0  0  2  0  0  0  0  0  0
  192.8360  176.7500  138.9850 C   0  0  0  0  0  2  0  0  0  0  0  0
  193.1830  176.5130  137.5140 C   0  0  0  0  0  2  0  0  0  0  0  0
  192.8790  174.9630  135.5620 C   0  0  0  0  0  2  0  0  0  0  0  0
  192.6360  176.0490  134.7170 O   0  0  0  0  0  1  0  0  0  0  0  0
  2 15  1  0  0  0  0
  3 12  1  0  0  0  0
  3 17  1  0  0  0  0
  4 14  2  0  0  0  0
  4 10  1  0  0  0  0
  5  1  1  0  0  0  0
  6 16  2  0  0  0  0
  7 16  1  0  0  0  0
  7  1  2  0  0  0  0
  8  3  2  0  0  0  0
  9  6  1  0  0  0  0
 10  5  2  0  0  0  0
 11 15  2  0  0  0  0
 11 13  1  0  0  0  0
 12  2  2  0  0  0  0
 13  9  2  0  0  0  0
 13 14  1  0  0  0  0
 14  7  1  0  0  0  0
 15  4  1  0  0  0  0
 17 22  1  6  0  0  0
 17 11  1  0  0  0  0
 19 18  1  0  0  0  0
 20 18  1  0  0  0  0
 20 12  1  0  0  0  0
 21 20  2  0  0  0  0
 23 22  1  0  0  0  0
 24 23  1  0  0  0  0
 25 24  1  0  0  0  0
 26 25  2  0  0  0  0
 27 31  1  6  0  0  0
 27 28  1  0  0  0  0
 27 30  1  0  0  0  0
 28 26  1  0  0  0  0
 29 25  1  0  0  0  0
 30 29  1  0  0  0  0
 32 31  1  0  0  0  0
M  END
>  <MODEL>
8

>  <REMARK>
 VINA RESULT:      -9.5      2.293      5.518
  Name = 
  6 active torsions:
  status: ('A' for Active; 'I' for Inactive)
    1  A    between atoms: C_2  and  C_3
    2  A    between atoms: C_2  and  O_13
    3  A    between atoms: C_10  and  C_17
    4  A    between atoms: O_13  and  N_20
    5  A    between atoms: C_18  and  C_24
    6  A    between atoms: N_20  and  C_32
                            x       y       z     vdW  Elec       q    Type
                         _______ _______ _______ _____ _____    ______ ____

>  <TORSDO>
F 6

$$$$
=
 OpenBabel11042413093D

 32 36  0  0  1  0  0  0  0  0999 V2000
  185.7570  177.4680  136.7990 C   0  0  0  0  0  3  0  0  0  0  0  0
  190.9960  176.2910  137.5800 C   0  0  0  0  0  3  0  0  0  0  0  0
  192.0580  177.1700  139.6150 C   0  0  0  0  0  0  0  0  0  0  0  0
  188.4170  176.8630  137.4350 C   0  0  0  0  0  0  0  0  0  0  0  0
  186.5880  176.7880  135.8660 C   0  0  0  0  0  3  0  0  0  0  0  0
  186.2010  178.8880  140.1890 C   0  0  0  0  0  3  0  0  0  0  0  0
  186.2840  177.8350  138.0500 C   0  0  0  0  0  0  0  0  0  0  0  0
  193.1060  177.5680  140.1900 O   0  0  0  0  0  0  0  0  0  0  0  0
  187.5540  178.5530  140.4520 C   0  0  0  0  0  3  0  0  0  0  0  0
  187.9410  176.4840  136.1750 C   0  0  0  0  0  3  0  0  0  0  0  0
  189.6080  177.3470  139.3170 C   0  0  0  0  0  0  0  0  0  0  0  0
  192.1280  176.4720  138.2870 C   0  0  0  0  0  0  0  0  0  0  0  0
  188.2290  177.8280  139.4680 C   0  0  0  0  0  0  0  0  0  0  0  0
  187.5950  177.4990  138.3130 C   0  0  0  0  0  0  0  0  0  0  0  0
  189.7180  176.7780  138.1060 C   0  0  0  0  0  0  0  0  0  0  0  0
  185.5950  178.5260  139.0040 N   0  0  0  0  0  0  0  0  0  0  0  0
  190.7330  177.3790  140.3140 C   0  0  1  0  0  3  0  0  0  0  0  0
  193.9240  174.7070  138.0300 N   0  0  0  0  0  2  0  0  0  0  0  0
  195.1950  174.2290  137.5120 C   0  0  0  0  0  1  0  0  0  0  0  0
  193.4130  176.0050  137.7150 C   0  0  0  0  0  0  0  0  0  0  0  0
  194.0660  176.7570  136.9400 O   0  0  0  0  0  0  0  0  0  0  0  0
  190.5540  176.3140  141.2940 N   0  0  0  0  0  2  0  0  0  0  0  0
  190.3680  176.8940  142.5030 O   0  0  0  0  0  0  0  0  0  0  0  0
  189.5760  175.9860  143.2070 C   0  0  0  0  0  2  0  0  0  0  0  0
  188.6330  176.7230  144.1000 C   0  0  0  0  0  0  0  0  0  0  0  0
  189.0510  177.1110  145.3170 C   0  0  0  0  0  3  0  0  0  0  0  0
  186.6910  177.6700  145.9830 C   0  0  2  0  0  3  0  0  0  0  0  0
  188.1780  177.8830  146.2740 C   0  0  0  0  0  2  0  0  0  0  0  0
  187.1950  176.8780  143.6600 C   0  0  0  0  0  2  0  0  0  0  0  0
  186.4210  177.8980  144.4980 C   0  0  0  0  0  2  0  0  0  0  0  0
  185.8340  178.6040  146.8340 C   0  0  0  0  0  2  0  0  0  0  0  0
  184.6890  179.0030  146.1390 O   0  0  0  0  0  1  0  0  0  0  0  0
  1  7  1  0  0  0  0
  2 15  1  0  0  0  0
  2 12  2  0  0  0  0
  3  8  2  0  0  0  0
  3 17  1  0  0  0  0
  4 15  1  0  0  0  0
  4 14  1  0  0  0  0
  5 10  1  0  0  0  0
  5  1  2  0  0  0  0
  6  9  1  0  0  0  0
  7 14  2  0  0  0  0
  7 16  1  0  0  0  0
 10  4  2  0  0  0  0
 11 13  1  0  0  0  0
 11 17  1  0  0  0  0
 12  3  1  0  0  0  0
 13  9  2  0  0  0  0
 14 13  1  0  0  0  0
 15 11  2  0  0  0  0
 16  6  2  0  0  0  0
 17 22  1  1  0  0  0
 19 18  1  0  0  0  0
 20 18  1  0  0  0  0
 20 12  1  0  0  0  0
 21 20  2  0  0  0  0
 22 23  1  0  0  0  0
 23 24  1  0  0  0  0
 24 25  1  0  0  0  0
 25 26  2  0  0  0  0
 26 28  1  0  0  0  0
 27 28  1  0  0  0  0
 27 31  1  1  0  0  0
 29 25  1  0  0  0  0
 29 30  1  0  0  0  0
 30 27  1  0  0  0  0
 32 31  1  0  0  0  0
M  END
>  <MODEL>
9

>  <REMARK>
 VINA RESULT:      -9.4      2.936      7.678
  Name = 
  6 active torsions:
  status: ('A' for Active; 'I' for Inactive)
    1  A    between atoms: C_2  and  C_3
    2  A    between atoms: C_2  and  O_13
    3  A    between atoms: C_10  and  C_17
    4  A    between atoms: O_13  and  N_20
    5  A    between atoms: C_18  and  C_24
    6  A    between atoms: N_20  and  C_32
                            x       y       z     vdW  Elec       q    Type
                         _______ _______ _______ _____ _____    ______ ____

>  <TORSDO>
F 6

$$$$
