=
 OpenBabel11042410023D

 38 42  0  0  1  0  0  0  0  0999 V2000
  186.9880  177.8950  138.6750 C   0  0  0  0  0  3  0  0  0  0  0  0
  183.6720  178.7710  143.9670 C   0  0  0  0  0  3  0  0  0  0  0  0
  185.0720  178.6880  145.9720 C   0  0  0  0  0  0  0  0  0  0  0  0
  184.8720  178.4730  143.1520 C   0  0  2  0  0  3  0  0  0  0  0  0
  187.2890  178.2800  141.7530 C   0  0  0  0  0  0  0  0  0  0  0  0
  184.9020  178.6090  141.8090 C   0  0  0  0  0  0  0  0  0  0  0  0
  188.6720  178.3790  141.2130 C   0  0  0  0  0  0  0  0  0  0  0  0
  183.7720  178.8580  145.2960 C   0  0  0  0  0  3  0  0  0  0  0  0
  187.2400  178.1920  143.1530 O   0  0  0  0  0  0  0  0  0  0  0  0
  186.0060  178.4040  139.6340 C   0  0  2  0  0  3  0  0  0  0  0  0
  188.2910  177.7490  138.8170 C   0  0  0  0  0  3  0  0  0  0  0  0
  183.7220  178.9700  141.1460 C   0  0  0  0  0  3  0  0  0  0  0  0
  189.0800  178.1100  139.9800 C   0  0  0  0  0  3  0  0  0  0  0  0
  185.1850  178.9830  147.3240 O   0  0  0  0  0  1  0  0  0  0  0  0
  183.6700  179.0620  139.7660 C   0  0  0  0  0  0  0  0  0  0  0  0
  186.1120  178.3970  141.0580 C   0  0  0  0  0  0  0  0  0  0  0  0
  186.1480  178.2780  145.2920 C   0  0  0  0  0  3  0  0  0  0  0  0
  184.7990  178.7410  139.0250 C   0  0  0  0  0  3  0  0  0  0  0  0
  186.0520  177.8680  143.8470 C   0  0  1  0  0  3  0  0  0  0  0  0
  189.7740  178.7500  142.1590 C   0  0  0  0  0  2  0  0  0  0  0  0
  191.1890  177.6490  143.9550 C   0  0  0  0  0  0  0  0  0  0  0  0
  190.2090  177.5840  142.9180 N   0  0  0  0  0  2  0  0  0  0  0  0
  191.8160  178.7190  144.1750 O   0  0  0  0  0  0  0  0  0  0  0  0
  191.4430  176.4450  144.8150 C   0  0  0  0  0  2  0  0  0  0  0  0
  191.6410  176.7560  146.2400 N   0  0  0  0  0  0  0  0  0  0  0  0
  190.3580  176.9880  146.8910 C   0  0  0  0  0  1  0  0  0  0  0  0
  192.2970  175.6450  146.9100 C   0  0  0  0  0  1  0  0  0  0  0  0
  182.4370  179.4060  139.1290 N   0  0  0  0  0  2  0  0  0  0  0  0
  181.1890  179.5800  139.8650 C   0  0  1  0  0  3  0  0  0  0  0  0
  180.3950  180.7720  139.4360 C   0  0  2  0  0  3  0  0  0  0  0  0
  180.1010  179.4720  138.9800 O   0  0  0  0  0  0  0  0  0  0  0  0
  182.3970  182.3170  138.4530 O   0  0  0  0  0  0  0  0  0  0  0  0
  181.0510  181.7580  138.0800 S   0  0  0  0  0  0  0  0  0  0  0  0
  181.1790  180.9230  136.8370 O   0  0  0  0  0  0  0  0  0  0  0  0
  179.9280  183.1030  137.7350 C   0  0  0  0  0  2  0  0  0  0  0  0
  179.9170  185.5880  137.8590 C   0  0  0  0  0  1  0  0  0  0  0  0
  180.8810  184.4500  135.8910 C   0  0  0  0  0  1  0  0  0  0  0  0
  180.6890  184.3700  137.3890 C   0  0  0  0  0  3  0  0  0  0  0  0
  1 11  2  0  0  0  0
  2  8  2  0  0  0  0
  3 14  1  0  0  0  0
  4 19  1  0  0  0  0
  4  2  1  6  0  0  0
  5  9  1  0  0  0  0
  6  4  1  0  0  0  0
  7  5  1  0  0  0  0
  7 20  1  0  0  0  0
  8  3  1  0  0  0  0
  9 19  1  0  0  0  0
 10  1  1  1  0  0  0
 10 16  1  0  0  0  0
 11 13  1  0  0  0  0
 12  6  2  0  0  0  0
 13  7  2  0  0  0  0
 15 12  1  0  0  0  0
 16  5  2  0  0  0  0
 16  6  1  0  0  0  0
 17  3  2  0  0  0  0
 18 10  1  0  0  0  0
 18 15  2  0  0  0  0
 19 17  1  1  0  0  0
 20 22  1  0  0  0  0
 21 23  2  0  0  0  0
 21 24  1  0  0  0  0
 22 21  1  0  0  0  0
 24 25  1  0  0  0  0
 25 26  1  0  0  0  0
 25 27  1  0  0  0  0
 28 15  1  0  0  0  0
 29 28  1  6  0  0  0
 30 33  1  6  0  0  0
 30 29  1  0  0  0  0
 31 30  1  0  0  0  0
 31 29  1  0  0  0  0
 33 32  2  0  0  0  0
 34 33  2  0  0  0  0
 35 33  1  0  0  0  0
 37 38  1  0  0  0  0
 38 35  1  0  0  0  0
 38 36  1  0  0  0  0
M  END
>  <MODEL>
1

>  <REMARK>
 VINA RESULT:      -8.9      0.000      0.000
  Name = 
  9 active torsions:
  status: ('A' for Active; 'I' for Inactive)
    1  A    between atoms: N_6  and  C_14
    2  A    between atoms: C_9  and  C_17
    3  A    between atoms: S_10  and  C_31
    4  A    between atoms: S_10  and  C_33
    5  A    between atoms: C_11  and  C_14
    6  A    between atoms: N_15  and  C_17
    7  A    between atoms: C_16  and  N_28
    8  A    between atoms: N_28  and  C_29
    9  A    between atoms: C_33  and  C_34
                            x       y       z     vdW  Elec       q    Type
                         _______ _______ _______ _____ _____    ______ ____

>  <TORSDO>
F 9

$$$$
=
 OpenBabel11042410023D

 38 42  0  0  1  0  0  0  0  0999 V2000
  189.0310  178.3020  137.5450 C   0  0  0  0  0  3  0  0  0  0  0  0
  185.2060  178.7670  142.5360 C   0  0  0  0  0  3  0  0  0  0  0  0
  182.8420  178.7740  141.9050 C   0  0  0  0  0  0  0  0  0  0  0  0
  185.5600  178.7050  141.0990 C   0  0  2  0  0  3  0  0  0  0  0  0
  186.0320  178.2120  138.3840 C   0  0  0  0  0  0  0  0  0  0  0  0
  186.8020  178.4140  140.6590 C   0  0  0  0  0  0  0  0  0  0  0  0
  186.0510  177.7570  136.9680 C   0  0  0  0  0  0  0  0  0  0  0  0
  183.9240  178.8120  142.9070 C   0  0  0  0  0  3  0  0  0  0  0  0
  184.7410  178.4670  138.8730 O   0  0  0  0  0  0  0  0  0  0  0  0
  188.4600  178.1280  138.8810 C   0  0  2  0  0  3  0  0  0  0  0  0
  188.4480  178.1790  136.3680 C   0  0  0  0  0  3  0  0  0  0  0  0
  187.8240  178.2420  141.6030 C   0  0  0  0  0  3  0  0  0  0  0  0
  187.0720  177.7910  136.1220 C   0  0  0  0  0  3  0  0  0  0  0  0
  181.5270  178.6160  142.3220 O   0  0  0  0  0  1  0  0  0  0  0  0
  189.1310  178.0080  141.2140 C   0  0  0  0  0  0  0  0  0  0  0  0
  187.0890  178.2740  139.2550 C   0  0  0  0  0  0  0  0  0  0  0  0
  183.1160  178.8630  140.5990 C   0  0  0  0  0  3  0  0  0  0  0  0
  189.4410  177.9920  139.8610 C   0  0  0  0  0  3  0  0  0  0  0  0
  184.5150  179.1170  140.1080 C   0  0  1  0  0  3  0  0  0  0  0  0
  184.7680  177.2680  136.3660 C   0  0  0  0  0  2  0  0  0  0  0  0
  183.9350  175.0750  137.3330 C   0  0  0  0  0  0  0  0  0  0  0  0
  184.7160  175.8110  136.3910 N   0  0  0  0  0  2  0  0  0  0  0  0
  183.3440  175.6660  138.2750 O   0  0  0  0  0  0  0  0  0  0  0  0
  183.7840  173.5890  137.1750 C   0  0  0  0  0  2  0  0  0  0  0  0
  184.9250  172.9360  136.5150 N   0  0  0  0  0  0  0  0  0  0  0  0
  186.0430  172.8120  137.4410 C   0  0  0  0  0  1  0  0  0  0  0  0
  184.5520  171.6030  136.0700 C   0  0  0  0  0  1  0  0  0  0  0  0
  190.1470  177.8680  142.2100 N   0  0  0  0  0  2  0  0  0  0  0  0
  191.0820  176.7470  142.2340 C   0  0  1  0  0  3  0  0  0  0  0  0
  191.5700  176.3960  143.6030 C   0  0  2  0  0  3  0  0  0  0  0  0
  190.5270  175.6870  142.9740 O   0  0  0  0  0  0  0  0  0  0  0  0
  191.7550  177.1230  146.2110 O   0  0  0  0  0  0  0  0  0  0  0  0
  190.9130  177.3450  144.9840 S   0  0  0  0  0  0  0  0  0  0  0  0
  190.8860  178.8110  144.6500 O   0  0  0  0  0  0  0  0  0  0  0  0
  189.2380  176.8180  145.3140 C   0  0  0  0  0  2  0  0  0  0  0  0
  188.5650  177.6310  147.5680 C   0  0  0  0  0  1  0  0  0  0  0  0
  187.0210  177.8620  145.6550 C   0  0  0  0  0  1  0  0  0  0  0  0
  188.4740  177.8860  146.0760 C   0  0  0  0  0  3  0  0  0  0  0  0
  2  8  2  0  0  0  0
  3 14  1  0  0  0  0
  3  8  1  0  0  0  0
  4  2  1  1  0  0  0
  5  9  1  0  0  0  0
  5 16  2  0  0  0  0
  6  4  1  0  0  0  0
  6 12  2  0  0  0  0
  7  5  1  0  0  0  0
  9 19  1  0  0  0  0
 10  1  1  1  0  0  0
 10 16  1  0  0  0  0
 10 18  1  0  0  0  0
 11  1  2  0  0  0  0
 13 11  1  0  0  0  0
 13  7  2  0  0  0  0
 15 12  1  0  0  0  0
 15 28  1  0  0  0  0
 16  6  1  0  0  0  0
 17  3  2  0  0  0  0
 18 15  2  0  0  0  0
 19 17  1  1  0  0  0
 19  4  1  0  0  0  0
 20 22  1  0  0  0  0
 20  7  1  0  0  0  0
 21 23  2  0  0  0  0
 22 21  1  0  0  0  0
 24 21  1  0  0  0  0
 25 24  1  0  0  0  0
 25 26  1  0  0  0  0
 27 25  1  0  0  0  0
 29 28  1  1  0  0  0
 29 31  1  0  0  0  0
 29 30  1  0  0  0  0
 30 33  1  1  0  0  0
 31 30  1  0  0  0  0
 33 35  1  0  0  0  0
 33 32  2  0  0  0  0
 34 33  2  0  0  0  0
 35 38  1  0  0  0  0
 37 38  1  0  0  0  0
 38 36  1  0  0  0  0
M  END
>  <MODEL>
2

>  <REMARK>
 VINA RESULT:      -8.7      3.936      8.906
  Name = 
  9 active torsions:
  status: ('A' for Active; 'I' for Inactive)
    1  A    between atoms: N_6  and  C_14
    2  A    between atoms: C_9  and  C_17
    3  A    between atoms: S_10  and  C_31
    4  A    between atoms: S_10  and  C_33
    5  A    between atoms: C_11  and  C_14
    6  A    between atoms: N_15  and  C_17
    7  A    between atoms: C_16  and  N_28
    8  A    between atoms: N_28  and  C_29
    9  A    between atoms: C_33  and  C_34
                            x       y       z     vdW  Elec       q    Type
                         _______ _______ _______ _____ _____    ______ ____

>  <TORSDO>
F 9

$$$$
=
 OpenBabel11042410023D

 38 42  0  0  1  0  0  0  0  0999 V2000
  188.4700  177.1590  137.9740 C   0  0  0  0  0  3  0  0  0  0  0  0
  188.8460  177.6570  144.2490 C   0  0  0  0  0  3  0  0  0  0  0  0
  191.0140  176.9260  145.1170 C   0  0  0  0  0  0  0  0  0  0  0  0
  189.2980  177.2880  142.8880 C   0  0  2  0  0  3  0  0  0  0  0  0
  190.4490  176.8930  140.3660 C   0  0  0  0  0  0  0  0  0  0  0  0
  188.6470  177.6650  141.7680 C   0  0  0  0  0  0  0  0  0  0  0  0
  191.3010  176.8190  139.1490 C   0  0  0  0  0  0  0  0  0  0  0  0
  189.6550  177.4710  145.2960 C   0  0  0  0  0  3  0  0  0  0  0  0
  191.1280  176.5550  141.5470 O   0  0  0  0  0  0  0  0  0  0  0  0
  188.3250  177.6610  139.3410 C   0  0  2  0  0  3  0  0  0  0  0  0
  189.5540  176.7370  137.3530 C   0  0  0  0  0  3  0  0  0  0  0  0
  187.4410  178.3690  141.8990 C   0  0  0  0  0  3  0  0  0  0  0  0
  190.9020  176.7110  137.8880 C   0  0  0  0  0  3  0  0  0  0  0  0
  191.9010  176.9340  146.1840 O   0  0  0  0  0  1  0  0  0  0  0  0
  186.6920  178.7270  140.7920 C   0  0  0  0  0  0  0  0  0  0  0  0
  189.1650  177.3650  140.4580 C   0  0  0  0  0  0  0  0  0  0  0  0
  191.4090  176.4480  143.9310 C   0  0  0  0  0  3  0  0  0  0  0  0
  187.1210  178.3360  139.5310 C   0  0  0  0  0  3  0  0  0  0  0  0
  190.4550  176.3440  142.7720 C   0  0  1  0  0  3  0  0  0  0  0  0
  192.7890  176.7820  139.3300 C   0  0  0  0  0  2  0  0  0  0  0  0
  193.9890  175.6000  137.4330 C   0  0  0  0  0  0  0  0  0  0  0  0
  193.4600  176.7810  138.0360 N   0  0  0  0  0  2  0  0  0  0  0  0
  194.0020  174.5110  138.0640 O   0  0  0  0  0  0  0  0  0  0  0  0
  194.4950  175.6490  136.0200 C   0  0  0  0  0  2  0  0  0  0  0  0
  195.7000  176.4750  135.8420 N   0  0  0  0  0  0  0  0  0  0  0  0
  196.8120  175.6560  135.3790 C   0  0  0  0  0  1  0  0  0  0  0  0
  195.4550  177.5110  134.8520 C   0  0  0  0  0  1  0  0  0  0  0  0
  185.4540  179.4180  140.9740 N   0  0  0  0  0  2  0  0  0  0  0  0
  184.2900  178.8020  141.6020 C   0  0  1  0  0  3  0  0  0  0  0  0
  183.0980  178.7070  140.7040 C   0  0  2  0  0  3  0  0  0  0  0  0
  183.9610  177.6150  140.9230 O   0  0  0  0  0  0  0  0  0  0  0  0
  184.0460  180.5980  139.0060 O   0  0  0  0  0  0  0  0  0  0  0  0
  183.2850  179.3000  139.0150 S   0  0  0  0  0  0  0  0  0  0  0  0
  184.0110  178.2850  138.1780 O   0  0  0  0  0  0  0  0  0  0  0  0
  181.6690  179.5590  138.3010 C   0  0  0  0  0  2  0  0  0  0  0  0
  180.3010  181.3320  139.3870 C   0  0  0  0  0  1  0  0  0  0  0  0
  180.7100  181.4000  136.9530 C   0  0  0  0  0  1  0  0  0  0  0  0
  181.3090  181.0330  138.2930 C   0  0  0  0  0  3  0  0  0  0  0  0
  2  8  2  0  0  0  0
  3  8  1  0  0  0  0
  3 14  1  0  0  0  0
  4  2  1  1  0  0  0
  5 16  2  0  0  0  0
  5  9  1  0  0  0  0
  6 12  2  0  0  0  0
  6  4  1  0  0  0  0
  7 20  1  0  0  0  0
  7  5  1  0  0  0  0
  9 19  1  0  0  0  0
 10  1  1  1  0  0  0
 10 18  1  0  0  0  0
 10 16  1  0  0  0  0
 11 13  1  0  0  0  0
 11  1  2  0  0  0  0
 13  7  2  0  0  0  0
 15 28  1  0  0  0  0
 15 12  1  0  0  0  0
 16  6  1  0  0  0  0
 17  3  2  0  0  0  0
 18 15  2  0  0  0  0
 19  4  1  0  0  0  0
 19 17  1  1  0  0  0
 21 22  1  0  0  0  0
 21 23  2  0  0  0  0
 22 20  1  0  0  0  0
 24 21  1  0  0  0  0
 25 24  1  0  0  0  0
 26 25  1  0  0  0  0
 27 25  1  0  0  0  0
 29 28  1  6  0  0  0
 30 33  1  6  0  0  0
 30 31  1  0  0  0  0
 30 29  1  0  0  0  0
 31 29  1  0  0  0  0
 32 33  2  0  0  0  0
 34 33  2  0  0  0  0
 35 33  1  0  0  0  0
 37 38  1  0  0  0  0
 38 35  1  0  0  0  0
 38 36  1  0  0  0  0
M  END
>  <MODEL>
3

>  <REMARK>
 VINA RESULT:      -8.6      3.881      5.693
  Name = 
  9 active torsions:
  status: ('A' for Active; 'I' for Inactive)
    1  A    between atoms: N_6  and  C_14
    2  A    between atoms: C_9  and  C_17
    3  A    between atoms: S_10  and  C_31
    4  A    between atoms: S_10  and  C_33
    5  A    between atoms: C_11  and  C_14
    6  A    between atoms: N_15  and  C_17
    7  A    between atoms: C_16  and  N_28
    8  A    between atoms: N_28  and  C_29
    9  A    between atoms: C_33  and  C_34
                            x       y       z     vdW  Elec       q    Type
                         _______ _______ _______ _____ _____    ______ ____

>  <TORSDO>
F 9

$$$$
=
 OpenBabel11042410023D

 38 42  0  0  1  0  0  0  0  0999 V2000
  183.6070  178.9730  144.9820 C   0  0  0  0  0  3  0  0  0  0  0  0
  185.5380  178.5450  138.9950 C   0  0  0  0  0  3  0  0  0  0  0  0
  187.9020  177.9360  138.8160 C   0  0  0  0  0  0  0  0  0  0  0  0
  185.6800  178.5470  140.4690 C   0  0  2  0  0  3  0  0  0  0  0  0
  186.0340  178.1380  143.2160 C   0  0  0  0  0  0  0  0  0  0  0  0
  184.6250  178.5740  141.3100 C   0  0  0  0  0  0  0  0  0  0  0  0
  186.3760  177.6750  144.5880 C   0  0  0  0  0  0  0  0  0  0  0  0
  186.5920  178.2680  138.2220 C   0  0  0  0  0  3  0  0  0  0  0  0
  187.1090  178.0650  142.3160 O   0  0  0  0  0  0  0  0  0  0  0  0
  183.6380  178.6850  143.5470 C   0  0  0  0  0  0  0  0  0  0  0  0
  184.4990  178.6820  145.9090 C   0  0  0  0  0  2  0  0  0  0  0  0
  183.3380  178.6870  140.7660 C   0  0  0  0  0  3  0  0  0  0  0  0
  185.7380  177.9510  145.7170 C   0  0  0  0  0  3  0  0  0  0  0  0
  188.9200  177.4560  138.0040 O   0  0  0  0  0  1  0  0  0  0  0  0
  182.2200  178.7860  141.5760 C   0  0  0  0  0  0  0  0  0  0  0  0
  184.7970  178.4850  142.7370 C   0  0  0  0  0  0  0  0  0  0  0  0
  188.1100  178.0660  140.1310 C   0  0  0  0  0  3  0  0  0  0  0  0
  182.3850  178.8240  142.9540 C   0  0  0  0  0  3  0  0  0  0  0  0
  187.0620  178.6590  141.0340 C   0  0  1  0  0  3  0  0  0  0  0  0
  187.6230  176.8630  144.7680 C   0  0  0  0  0  2  0  0  0  0  0  0
  189.9660  177.8250  144.9250 C   0  0  0  0  0  0  0  0  0  0  0  0
  188.7700  177.5540  144.1920 N   0  0  0  0  0  2  0  0  0  0  0  0
  190.0300  177.5790  146.1580 O   0  0  0  0  0  0  0  0  0  0  0  0
  191.1700  178.3690  144.2100 C   0  0  0  0  0  2  0  0  0  0  0  0
  191.8560  177.3870  143.3560 N   0  0  0  0  0  0  0  0  0  0  0  0
  191.6420  176.0380  143.8610 C   0  0  0  0  0  1  0  0  0  0  0  0
  191.3360  177.4530  142.0000 C   0  0  0  0  0  1  0  0  0  0  0  0
  180.9290  178.9300  140.9790 N   0  0  0  0  0  2  0  0  0  0  0  0
  180.0430  180.0520  141.2720 C   0  0  1  0  0  3  0  0  0  0  0  0
  179.8850  181.0110  140.1360 C   0  0  2  0  0  3  0  0  0  0  0  0
  178.9310  180.0120  140.4110 O   0  0  0  0  0  0  0  0  0  0  0  0
  182.2130  180.9150  138.7470 O   0  0  0  0  0  0  0  0  0  0  0  0
  180.7440  180.6250  138.6030 S   0  0  0  0  0  0  0  0  0  0  0  0
  180.5490  179.1790  138.2400 O   0  0  0  0  0  0  0  0  0  0  0  0
  180.0720  181.6250  137.2850 C   0  0  0  0  0  2  0  0  0  0  0  0
  179.4460  183.9110  138.0460 C   0  0  0  0  0  1  0  0  0  0  0  0
  180.8460  183.6150  136.0340 C   0  0  0  0  0  1  0  0  0  0  0  0
  180.5330  183.0660  137.4080 C   0  0  0  0  0  3  0  0  0  0  0  0
  1 11  1  0  0  0  0
  3 17  2  0  0  0  0
  4  2  1  6  0  0  0
  4 19  1  0  0  0  0
  4  6  1  0  0  0  0
  5  7  1  0  0  0  0
  6 16  1  0  0  0  0
  7 20  1  0  0  0  0
  7 13  2  0  0  0  0
  8  3  1  0  0  0  0
  8  2  2  0  0  0  0
  9  5  1  0  0  0  0
 10  1  2  0  0  0  0
 12  6  2  0  0  0  0
 12 15  1  0  0  0  0
 13 11  1  0  0  0  0
 14  3  1  0  0  0  0
 15 18  2  0  0  0  0
 16  5  2  0  0  0  0
 16 10  1  0  0  0  0
 18 10  1  0  0  0  0
 19 17  1  6  0  0  0
 19  9  1  0  0  0  0
 21 23  2  0  0  0  0
 22 20  1  0  0  0  0
 22 21  1  0  0  0  0
 24 21  1  0  0  0  0
 25 26  1  0  0  0  0
 25 24  1  0  0  0  0
 27 25  1  0  0  0  0
 28 15  1  0  0  0  0
 29 28  1  6  0  0  0
 30 33  1  6  0  0  0
 30 31  1  0  0  0  0
 30 29  1  0  0  0  0
 31 29  1  0  0  0  0
 33 32  2  0  0  0  0
 34 33  2  0  0  0  0
 35 38  1  0  0  0  0
 35 33  1  0  0  0  0
 37 38  1  0  0  0  0
 38 36  1  0  0  0  0
M  END
>  <MODEL>
4

>  <REMARK>
 VINA RESULT:      -8.5      1.647      4.128
  Name = 
  9 active torsions:
  status: ('A' for Active; 'I' for Inactive)
    1  A    between atoms: N_6  and  C_14
    2  A    between atoms: C_9  and  C_17
    3  A    between atoms: S_10  and  C_31
    4  A    between atoms: S_10  and  C_33
    5  A    between atoms: C_11  and  C_14
    6  A    between atoms: N_15  and  C_17
    7  A    between atoms: C_16  and  N_28
    8  A    between atoms: N_28  and  C_29
    9  A    between atoms: C_33  and  C_34
                            x       y       z     vdW  Elec       q    Type
                         _______ _______ _______ _____ _____    ______ ____

>  <TORSDO>
F 9

$$$$
=
 OpenBabel11042410023D

 38 42  0  0  1  0  0  0  0  0999 V2000
  184.4110  178.9880  145.4020 C   0  0  0  0  0  3  0  0  0  0  0  0
  184.9070  178.5660  139.1300 C   0  0  0  0  0  3  0  0  0  0  0  0
  187.1730  177.9900  138.4080 C   0  0  0  0  0  0  0  0  0  0  0  0
  185.3870  178.5760  140.5310 C   0  0  2  0  0  3  0  0  0  0  0  0
  186.3740  178.1810  143.1210 C   0  0  0  0  0  0  0  0  0  0  0  0
  184.5550  178.5910  141.5940 C   0  0  0  0  0  0  0  0  0  0  0  0
  187.0320  177.7280  144.3760 C   0  0  0  0  0  0  0  0  0  0  0  0
  185.7580  178.3030  138.1340 C   0  0  0  0  0  3  0  0  0  0  0  0
  187.2120  178.1200  141.9960 O   0  0  0  0  0  0  0  0  0  0  0  0
  184.1130  178.6960  143.9990 C   0  0  0  0  0  0  0  0  0  0  0  0
  185.4980  178.7130  146.0960 C   0  0  0  0  0  2  0  0  0  0  0  0
  183.1760  178.6840  141.3630 C   0  0  0  0  0  3  0  0  0  0  0  0
  186.6690  177.9990  145.6230 C   0  0  0  0  0  3  0  0  0  0  0  0
  187.9830  177.5230  137.3810 O   0  0  0  0  0  1  0  0  0  0  0  0
  182.2750  178.7700  142.4100 C   0  0  0  0  0  0  0  0  0  0  0  0
  185.0550  178.5090  142.9410 C   0  0  0  0  0  0  0  0  0  0  0  0
  187.6790  178.1280  139.6390 C   0  0  0  0  0  3  0  0  0  0  0  0
  182.7540  178.8150  143.7120 C   0  0  0  0  0  3  0  0  0  0  0  0
  186.8610  178.7090  140.7600 C   0  0  1  0  0  3  0  0  0  0  0  0
  188.2980  176.9340  144.2620 C   0  0  0  0  0  2  0  0  0  0  0  0
  190.1330  177.2760  145.9800 C   0  0  0  0  0  0  0  0  0  0  0  0
  188.8830  176.7150  145.5790 N   0  0  0  0  0  2  0  0  0  0  0  0
  190.8510  177.8970  145.1530 O   0  0  0  0  0  0  0  0  0  0  0  0
  190.5760  177.1610  147.4110 C   0  0  0  0  0  2  0  0  0  0  0  0
  191.9710  176.7220  147.5750 N   0  0  0  0  0  0  0  0  0  0  0  0
  192.4660  177.0880  148.8950 C   0  0  0  0  0  1  0  0  0  0  0  0
  192.0600  175.2770  147.4390 C   0  0  0  0  0  1  0  0  0  0  0  0
  180.8780  178.8930  142.1280 N   0  0  0  0  0  2  0  0  0  0  0  0
  180.3610  179.7230  141.0460 C   0  0  1  0  0  3  0  0  0  0  0  0
  179.8060  178.9430  139.8970 C   0  0  2  0  0  3  0  0  0  0  0  0
  178.9800  179.4950  140.8960 O   0  0  0  0  0  0  0  0  0  0  0  0
  179.3280  176.7360  141.4020 O   0  0  0  0  0  0  0  0  0  0  0  0
  179.8110  177.1480  140.0380 S   0  0  0  0  0  0  0  0  0  0  0  0
  178.9310  176.5340  138.9860 O   0  0  0  0  0  0  0  0  0  0  0  0
  181.4750  176.5450  139.7950 C   0  0  0  0  0  2  0  0  0  0  0  0
  182.8910  175.2050  138.2480 C   0  0  0  0  0  1  0  0  0  0  0  0
  181.9510  177.3650  137.5090 C   0  0  0  0  0  1  0  0  0  0  0  0
  181.6970  176.1340  138.3510 C   0  0  0  0  0  3  0  0  0  0  0  0
  1 11  1  0  0  0  0
  3 17  2  0  0  0  0
  4  2  1  6  0  0  0
  4 19  1  0  0  0  0
  4  6  1  0  0  0  0
  5  7  1  0  0  0  0
  6 16  1  0  0  0  0
  7 13  2  0  0  0  0
  8  3  1  0  0  0  0
  8  2  2  0  0  0  0
  9  5  1  0  0  0  0
 10  1  2  0  0  0  0
 12  6  2  0  0  0  0
 12 15  1  0  0  0  0
 13 11  1  0  0  0  0
 14  3  1  0  0  0  0
 15 18  2  0  0  0  0
 16  5  2  0  0  0  0
 16 10  1  0  0  0  0
 18 10  1  0  0  0  0
 19 17  1  6  0  0  0
 19  9  1  0  0  0  0
 20  7  1  0  0  0  0
 20 22  1  0  0  0  0
 21 24  1  0  0  0  0
 22 21  1  0  0  0  0
 23 21  2  0  0  0  0
 24 25  1  0  0  0  0
 25 26  1  0  0  0  0
 27 25  1  0  0  0  0
 28 15  1  0  0  0  0
 29 28  1  1  0  0  0
 30 33  1  1  0  0  0
 30 31  1  0  0  0  0
 30 29  1  0  0  0  0
 31 29  1  0  0  0  0
 33 32  2  0  0  0  0
 34 33  2  0  0  0  0
 35 33  1  0  0  0  0
 36 38  1  0  0  0  0
 37 38  1  0  0  0  0
 38 35  1  0  0  0  0
M  END
>  <MODEL>
5

>  <REMARK>
 VINA RESULT:      -8.4      2.951      5.131
  Name = 
  9 active torsions:
  status: ('A' for Active; 'I' for Inactive)
    1  A    between atoms: N_6  and  C_14
    2  A    between atoms: C_9  and  C_17
    3  A    between atoms: S_10  and  C_31
    4  A    between atoms: S_10  and  C_33
    5  A    between atoms: C_11  and  C_14
    6  A    between atoms: N_15  and  C_17
    7  A    between atoms: C_16  and  N_28
    8  A    between atoms: N_28  and  C_29
    9  A    between atoms: C_33  and  C_34
                            x       y       z     vdW  Elec       q    Type
                         _______ _______ _______ _____ _____    ______ ____

>  <TORSDO>
F 9

$$$$
=
 OpenBabel11042410023D

 38 42  0  0  1  0  0  0  0  0999 V2000
  183.6620  179.0050  145.0890 C   0  0  0  0  0  3  0  0  0  0  0  0
  185.2860  178.6220  139.0080 C   0  0  0  0  0  3  0  0  0  0  0  0
  187.6140  177.9320  138.7030 C   0  0  0  0  0  0  0  0  0  0  0  0
  185.4990  178.5910  140.4730 C   0  0  2  0  0  3  0  0  0  0  0  0
  185.9690  178.1170  143.1920 C   0  0  0  0  0  0  0  0  0  0  0  0
  184.4870  178.6400  141.3650 C   0  0  0  0  0  0  0  0  0  0  0  0
  186.3590  177.6160  144.5370 C   0  0  0  0  0  0  0  0  0  0  0  0
  186.2910  178.3230  138.1800 C   0  0  0  0  0  3  0  0  0  0  0  0
  186.9960  178.0220  142.2400 O   0  0  0  0  0  0  0  0  0  0  0  0
  183.6140  178.7440  143.6490 C   0  0  0  0  0  0  0  0  0  0  0  0
  184.5860  178.6640  145.9660 C   0  0  0  0  0  2  0  0  0  0  0  0
  183.1800  178.8100  140.8870 C   0  0  0  0  0  3  0  0  0  0  0  0
  185.7870  177.8930  145.7010 C   0  0  0  0  0  3  0  0  0  0  0  0
  188.5740  177.4320  137.8340 O   0  0  0  0  0  1  0  0  0  0  0  0
  182.1070  178.9330  141.7510 C   0  0  0  0  0  0  0  0  0  0  0  0
  184.7240  178.5170  142.7800 C   0  0  0  0  0  0  0  0  0  0  0  0
  187.8900  178.0300  140.0090 C   0  0  0  0  0  3  0  0  0  0  0  0
  182.3390  178.9390  143.1200 C   0  0  0  0  0  3  0  0  0  0  0  0
  186.9100  178.6420  140.9720 C   0  0  1  0  0  3  0  0  0  0  0  0
  187.5830  176.7560  144.6420 C   0  0  0  0  0  2  0  0  0  0  0  0
  189.9020  177.7270  144.9840 C   0  0  0  0  0  0  0  0  0  0  0  0
  188.7570  177.4780  144.1680 N   0  0  0  0  0  2  0  0  0  0  0  0
  189.8920  177.4300  146.2070 O   0  0  0  0  0  0  0  0  0  0  0  0
  191.1430  178.3080  144.3680 C   0  0  0  0  0  2  0  0  0  0  0  0
  191.8660  177.3810  143.4840 N   0  0  0  0  0  0  0  0  0  0  0  0
  191.6600  176.0040  143.9150 C   0  0  0  0  0  1  0  0  0  0  0  0
  191.3800  177.5080  142.1190 C   0  0  0  0  0  1  0  0  0  0  0  0
  180.7950  179.1350  141.2200 N   0  0  0  0  0  2  0  0  0  0  0  0
  179.6860  178.2250  141.4880 C   0  0  1  0  0  3  0  0  0  0  0  0
  179.0650  177.6480  140.2560 C   0  0  2  0  0  3  0  0  0  0  0  0
  180.0090  176.9380  141.0240 O   0  0  0  0  0  0  0  0  0  0  0  0
  181.1690  177.5190  138.5480 O   0  0  0  0  0  0  0  0  0  0  0  0
  179.7900  178.1060  138.6740 S   0  0  0  0  0  0  0  0  0  0  0  0
  178.9310  177.6200  137.5410 O   0  0  0  0  0  0  0  0  0  0  0  0
  179.8950  179.8860  138.5690 C   0  0  0  0  0  2  0  0  0  0  0  0
  181.9330  181.3130  138.5290 C   0  0  0  0  0  1  0  0  0  0  0  0
  180.6370  180.9470  136.4600 C   0  0  0  0  0  1  0  0  0  0  0  0
  181.1010  180.3110  137.7520 C   0  0  0  0  0  3  0  0  0  0  0  0
  1 11  1  0  0  0  0
  3 17  2  0  0  0  0
  4  2  1  6  0  0  0
  4 19  1  0  0  0  0
  4  6  1  0  0  0  0
  5  7  1  0  0  0  0
  6 16  1  0  0  0  0
  7 20  1  0  0  0  0
  7 13  2  0  0  0  0
  8  3  1  0  0  0  0
  8  2  2  0  0  0  0
  9  5  1  0  0  0  0
 10  1  2  0  0  0  0
 12  6  2  0  0  0  0
 12 15  1  0  0  0  0
 13 11  1  0  0  0  0
 14  3  1  0  0  0  0
 15 18  2  0  0  0  0
 16  5  2  0  0  0  0
 16 10  1  0  0  0  0
 18 10  1  0  0  0  0
 19 17  1  6  0  0  0
 19  9  1  0  0  0  0
 21 23  2  0  0  0  0
 22 20  1  0  0  0  0
 22 21  1  0  0  0  0
 24 21  1  0  0  0  0
 25 26  1  0  0  0  0
 25 24  1  0  0  0  0
 27 25  1  0  0  0  0
 28 15  1  0  0  0  0
 29 28  1  6  0  0  0
 30 33  1  6  0  0  0
 30 31  1  0  0  0  0
 30 29  1  0  0  0  0
 31 29  1  0  0  0  0
 32 33  2  0  0  0  0
 34 33  2  0  0  0  0
 35 33  1  0  0  0  0
 37 38  1  0  0  0  0
 38 36  1  0  0  0  0
 38 35  1  0  0  0  0
M  END
>  <MODEL>
6

>  <REMARK>
 VINA RESULT:      -8.4      2.320      4.517
  Name = 
  9 active torsions:
  status: ('A' for Active; 'I' for Inactive)
    1  A    between atoms: N_6  and  C_14
    2  A    between atoms: C_9  and  C_17
    3  A    between atoms: S_10  and  C_31
    4  A    between atoms: S_10  and  C_33
    5  A    between atoms: C_11  and  C_14
    6  A    between atoms: N_15  and  C_17
    7  A    between atoms: C_16  and  N_28
    8  A    between atoms: N_28  and  C_29
    9  A    between atoms: C_33  and  C_34
                            x       y       z     vdW  Elec       q    Type
                         _______ _______ _______ _____ _____    ______ ____

>  <TORSDO>
F 9

$$$$
=
 OpenBabel11042410023D

 38 42  0  0  1  0  0  0  0  0999 V2000
  184.7680  178.6600  145.2600 C   0  0  0  0  0  3  0  0  0  0  0  0
  184.8660  178.6120  138.9560 C   0  0  0  0  0  3  0  0  0  0  0  0
  187.0620  178.0100  138.0590 C   0  0  0  0  0  0  0  0  0  0  0  0
  185.4300  178.5190  140.3220 C   0  0  2  0  0  3  0  0  0  0  0  0
  186.5590  177.9340  142.8160 C   0  0  0  0  0  0  0  0  0  0  0  0
  184.6660  178.4950  141.4340 C   0  0  0  0  0  0  0  0  0  0  0  0
  187.2750  177.3840  143.9980 C   0  0  0  0  0  0  0  0  0  0  0  0
  185.6440  178.3830  137.8940 C   0  0  0  0  0  3  0  0  0  0  0  0
  187.3230  177.9160  141.6390 O   0  0  0  0  0  0  0  0  0  0  0  0
  184.3750  178.4650  143.8640 C   0  0  0  0  0  0  0  0  0  0  0  0
  185.8850  178.3080  145.8670 C   0  0  0  0  0  2  0  0  0  0  0  0
  183.2790  178.6460  141.2970 C   0  0  0  0  0  3  0  0  0  0  0  0
  186.9990  177.5880  145.2790 C   0  0  0  0  0  3  0  0  0  0  0  0
  187.7890  177.5810  136.9570 O   0  0  0  0  0  1  0  0  0  0  0  0
  182.4470  178.6950  142.4010 C   0  0  0  0  0  0  0  0  0  0  0  0
  185.2430  178.3130  142.7400 C   0  0  0  0  0  0  0  0  0  0  0  0
  187.6460  178.0550  139.2610 C   0  0  0  0  0  3  0  0  0  0  0  0
  183.0060  178.6440  143.6710 C   0  0  0  0  0  3  0  0  0  0  0  0
  186.9190  178.5910  140.4650 C   0  0  1  0  0  3  0  0  0  0  0  0
  188.5040  176.5580  143.7570 C   0  0  0  0  0  2  0  0  0  0  0  0
  190.8350  176.7820  144.7330 C   0  0  0  0  0  0  0  0  0  0  0  0
  189.4200  176.6650  144.8860 N   0  0  0  0  0  2  0  0  0  0  0  0
  191.3670  176.6730  143.5970 O   0  0  0  0  0  0  0  0  0  0  0  0
  191.6910  177.0780  145.9310 C   0  0  0  0  0  2  0  0  0  0  0  0
  191.3470  176.2880  147.1240 N   0  0  0  0  0  0  0  0  0  0  0  0
  192.5430  175.6800  147.6920 C   0  0  0  0  0  1  0  0  0  0  0  0
  190.7480  177.1430  148.1360 C   0  0  0  0  0  1  0  0  0  0  0  0
  181.0410  178.8800  142.2170 N   0  0  0  0  0  2  0  0  0  0  0  0
  180.2990  179.9710  142.8390 C   0  0  1  0  0  3  0  0  0  0  0  0
  179.6220  180.8780  141.8620 C   0  0  2  0  0  3  0  0  0  0  0  0
  178.9320  179.8470  142.5300 O   0  0  0  0  0  0  0  0  0  0  0  0
  181.2270  180.4360  139.7190 O   0  0  0  0  0  0  0  0  0  0  0  0
  179.7760  180.4720  140.1150 S   0  0  0  0  0  0  0  0  0  0  0  0
  179.1430  179.1400  139.8260 O   0  0  0  0  0  0  0  0  0  0  0  0
  178.9310  181.7120  139.1470 C   0  0  0  0  0  2  0  0  0  0  0  0
  179.3540  183.9620  138.1710 C   0  0  0  0  0  1  0  0  0  0  0  0
  180.2010  181.9390  137.0350 C   0  0  0  0  0  1  0  0  0  0  0  0
  179.9210  182.5710  138.3810 C   0  0  0  0  0  3  0  0  0  0  0  0
  1 11  1  0  0  0  0
  3 17  2  0  0  0  0
  4  2  1  6  0  0  0
  4 19  1  0  0  0  0
  4  6  1  0  0  0  0
  5  7  1  0  0  0  0
  6 16  1  0  0  0  0
  7 13  2  0  0  0  0
  8  3  1  0  0  0  0
  8  2  2  0  0  0  0
  9  5  1  0  0  0  0
 10  1  2  0  0  0  0
 12  6  2  0  0  0  0
 12 15  1  0  0  0  0
 13 11  1  0  0  0  0
 14  3  1  0  0  0  0
 15 18  2  0  0  0  0
 16  5  2  0  0  0  0
 16 10  1  0  0  0  0
 18 10  1  0  0  0  0
 19 17  1  6  0  0  0
 19  9  1  0  0  0  0
 20  7  1  0  0  0  0
 20 22  1  0  0  0  0
 21 22  1  0  0  0  0
 21 24  1  0  0  0  0
 23 21  2  0  0  0  0
 24 25  1  0  0  0  0
 25 26  1  0  0  0  0
 25 27  1  0  0  0  0
 28 15  1  0  0  0  0
 29 28  1  6  0  0  0
 30 33  1  6  0  0  0
 30 31  1  0  0  0  0
 30 29  1  0  0  0  0
 31 29  1  0  0  0  0
 32 33  2  0  0  0  0
 34 33  2  0  0  0  0
 35 33  1  0  0  0  0
 36 38  1  0  0  0  0
 37 38  1  0  0  0  0
 38 35  1  0  0  0  0
M  END
>  <MODEL>
7

>  <REMARK>
 VINA RESULT:      -8.3      1.943      4.193
  Name = 
  9 active torsions:
  status: ('A' for Active; 'I' for Inactive)
    1  A    between atoms: N_6  and  C_14
    2  A    between atoms: C_9  and  C_17
    3  A    between atoms: S_10  and  C_31
    4  A    between atoms: S_10  and  C_33
    5  A    between atoms: C_11  and  C_14
    6  A    between atoms: N_15  and  C_17
    7  A    between atoms: C_16  and  N_28
    8  A    between atoms: N_28  and  C_29
    9  A    between atoms: C_33  and  C_34
                            x       y       z     vdW  Elec       q    Type
                         _______ _______ _______ _____ _____    ______ ____

>  <TORSDO>
F 9

$$$$
=
 OpenBabel11042410023D

 38 42  0  0  1  0  0  0  0  0999 V2000
  187.0400  178.4870  139.7010 C   0  0  0  0  0  3  0  0  0  0  0  0
  191.4780  176.6040  143.7640 C   0  0  0  0  0  3  0  0  0  0  0  0
  190.8210  176.9530  146.0960 C   0  0  0  0  0  0  0  0  0  0  0  0
  190.2010  177.2240  143.3410 C   0  0  2  0  0  3  0  0  0  0  0  0
  187.6010  178.0670  142.7370 C   0  0  0  0  0  0  0  0  0  0  0  0
  189.7320  177.1530  142.0780 C   0  0  0  0  0  0  0  0  0  0  0  0
  186.1410  178.3360  142.6460 C   0  0  0  0  0  0  0  0  0  0  0  0
  191.7690  176.4920  145.0630 C   0  0  0  0  0  3  0  0  0  0  0  0
  188.0940  178.0840  144.0510 O   0  0  0  0  0  0  0  0  0  0  0  0
  188.1070  177.7120  140.3350 C   0  0  2  0  0  3  0  0  0  0  0  0
  185.9200  178.9470  140.2260 C   0  0  0  0  0  3  0  0  0  0  0  0
  190.5270  176.5360  141.1020 C   0  0  0  0  0  3  0  0  0  0  0  0
  185.4580  178.7470  141.5860 C   0  0  0  0  0  3  0  0  0  0  0  0
  191.0540  176.6410  147.4280 O   0  0  0  0  0  1  0  0  0  0  0  0
  190.1320  176.4890  139.7760 C   0  0  0  0  0  0  0  0  0  0  0  0
  188.4440  177.6890  141.7230 C   0  0  0  0  0  0  0  0  0  0  0  0
  189.7260  177.6450  145.7590 C   0  0  0  0  0  3  0  0  0  0  0  0
  188.9490  177.1110  139.4010 C   0  0  0  0  0  3  0  0  0  0  0  0
  189.4780  178.0750  144.3390 C   0  0  1  0  0  3  0  0  0  0  0  0
  185.3220  178.2130  143.8970 C   0  0  0  0  0  2  0  0  0  0  0  0
  182.8960  178.7440  144.4130 C   0  0  0  0  0  0  0  0  0  0  0  0
  183.9010  178.1750  143.5740 N   0  0  0  0  0  2  0  0  0  0  0  0
  183.1940  179.2050  145.5460 O   0  0  0  0  0  0  0  0  0  0  0  0
  181.4790  178.8310  143.9230 C   0  0  0  0  0  2  0  0  0  0  0  0
  181.3060  179.6810  142.7340 N   0  0  0  0  0  0  0  0  0  0  0  0
  181.4180  178.8840  141.5200 C   0  0  0  0  0  1  0  0  0  0  0  0
  179.9920  180.3040  142.7500 C   0  0  0  0  0  1  0  0  0  0  0  0
  190.9880  175.8760  138.8090 N   0  0  0  0  0  2  0  0  0  0  0  0
  190.6820  175.8580  137.3820 C   0  0  1  0  0  3  0  0  0  0  0  0
  191.8860  175.9730  136.5030 C   0  0  2  0  0  3  0  0  0  0  0  0
  191.2800  174.7330  136.7860 O   0  0  0  0  0  0  0  0  0  0  0  0
  194.5270  176.5800  136.3490 O   0  0  0  0  0  0  0  0  0  0  0  0
  193.4930  176.0620  137.3110 S   0  0  0  0  0  0  0  0  0  0  0  0
  193.4290  176.9610  138.5140 O   0  0  0  0  0  0  0  0  0  0  0  0
  193.9640  174.4290  137.8610 C   0  0  0  0  0  2  0  0  0  0  0  0
  195.8480  172.9270  137.2360 C   0  0  0  0  0  1  0  0  0  0  0  0
  196.0050  174.3360  139.2580 C   0  0  0  0  0  1  0  0  0  0  0  0
  195.4730  174.2650  137.8430 C   0  0  0  0  0  3  0  0  0  0  0  0
  1 11  2  0  0  0  0
  1 10  1  0  0  0  0
  2  8  2  0  0  0  0
  3 14  1  0  0  0  0
  4  2  1  6  0  0  0
  4 19  1  0  0  0  0
  5  9  1  0  0  0  0
  6  4  1  0  0  0  0
  7  5  1  0  0  0  0
  7 20  1  0  0  0  0
  8  3  1  0  0  0  0
  9 19  1  0  0  0  0
 10 18  1  6  0  0  0
 10 16  1  0  0  0  0
 11 13  1  0  0  0  0
 12  6  2  0  0  0  0
 13  7  2  0  0  0  0
 15 12  1  0  0  0  0
 16  6  1  0  0  0  0
 16  5  2  0  0  0  0
 17  3  2  0  0  0  0
 18 15  2  0  0  0  0
 19 17  1  1  0  0  0
 21 23  2  0  0  0  0
 22 20  1  0  0  0  0
 22 21  1  0  0  0  0
 24 21  1  0  0  0  0
 25 27  1  0  0  0  0
 25 24  1  0  0  0  0
 26 25  1  0  0  0  0
 28 15  1  0  0  0  0
 29 28  1  1  0  0  0
 30 31  1  0  0  0  0
 30 33  1  1  0  0  0
 30 29  1  0  0  0  0
 31 29  1  0  0  0  0
 32 33  2  0  0  0  0
 33 35  1  0  0  0  0
 33 34  2  0  0  0  0
 36 38  1  0  0  0  0
 38 35  1  0  0  0  0
 38 37  1  0  0  0  0
M  END
>  <MODEL>
8

>  <REMARK>
 VINA RESULT:      -8.2      4.502      9.749
  Name = 
  9 active torsions:
  status: ('A' for Active; 'I' for Inactive)
    1  A    between atoms: N_6  and  C_14
    2  A    between atoms: C_9  and  C_17
    3  A    between atoms: S_10  and  C_31
    4  A    between atoms: S_10  and  C_33
    5  A    between atoms: C_11  and  C_14
    6  A    between atoms: N_15  and  C_17
    7  A    between atoms: C_16  and  N_28
    8  A    between atoms: N_28  and  C_29
    9  A    between atoms: C_33  and  C_34
                            x       y       z     vdW  Elec       q    Type
                         _______ _______ _______ _____ _____    ______ ____

>  <TORSDO>
F 9

$$$$
=
 OpenBabel11042410023D

 38 42  0  0  1  0  0  0  0  0999 V2000
  190.5760  177.3570  140.2370 C   0  0  0  0  0  3  0  0  0  0  0  0
  184.6190  178.4230  142.0070 C   0  0  0  0  0  3  0  0  0  0  0  0
  184.4010  178.7220  144.4260 C   0  0  0  0  0  0  0  0  0  0  0  0
  186.0660  178.1770  142.1960 C   0  0  2  0  0  3  0  0  0  0  0  0
  188.8200  178.1100  142.6980 C   0  0  0  0  0  0  0  0  0  0  0  0
  186.9510  178.1670  141.1770 C   0  0  0  0  0  0  0  0  0  0  0  0
  190.2240  178.3070  143.1490 C   0  0  0  0  0  0  0  0  0  0  0  0
  183.8380  178.6670  143.0630 C   0  0  0  0  0  3  0  0  0  0  0  0
  187.8820  178.1710  143.7410 O   0  0  0  0  0  0  0  0  0  0  0  0
  189.1990  177.8530  140.2610 C   0  0  0  0  0  0  0  0  0  0  0  0
  191.4850  177.3780  141.1930 C   0  0  0  0  0  2  0  0  0  0  0  0
  186.4680  178.3160  139.8690 C   0  0  0  0  0  3  0  0  0  0  0  0
  191.3340  177.9520  142.5160 C   0  0  0  0  0  3  0  0  0  0  0  0
  183.6120  179.1750  145.4740 O   0  0  0  0  0  1  0  0  0  0  0  0
  187.3150  178.2500  138.7770 C   0  0  0  0  0  0  0  0  0  0  0  0
  188.3640  178.0140  141.4080 C   0  0  0  0  0  0  0  0  0  0  0  0
  185.6690  178.3650  144.6570 C   0  0  0  0  0  3  0  0  0  0  0  0
  188.6610  177.9800  138.9810 C   0  0  0  0  0  3  0  0  0  0  0  0
  186.5320  177.7910  143.5660 C   0  0  1  0  0  3  0  0  0  0  0  0
  190.4520  178.9030  144.5060 C   0  0  0  0  0  2  0  0  0  0  0  0
  190.2110  177.3500  146.4980 C   0  0  0  0  0  0  0  0  0  0  0  0
  190.9750  177.8980  145.4240 N   0  0  0  0  0  2  0  0  0  0  0  0
  189.0730  177.8120  146.7740 O   0  0  0  0  0  0  0  0  0  0  0  0
  190.7520  176.1870  147.2790 C   0  0  0  0  0  2  0  0  0  0  0  0
  192.1980  175.9690  147.1080 N   0  0  0  0  0  0  0  0  0  0  0  0
  192.8140  175.6310  148.3830 C   0  0  0  0  0  1  0  0  0  0  0  0
  192.4330  174.8720  146.1830 C   0  0  0  0  0  1  0  0  0  0  0  0
  186.7750  178.3770  137.4590 N   0  0  0  0  0  2  0  0  0  0  0  0
  187.6080  178.3800  136.2610 C   0  0  1  0  0  3  0  0  0  0  0  0
  187.4610  177.1530  135.4190 C   0  0  2  0  0  3  0  0  0  0  0  0
  186.7890  178.3540  135.1180 O   0  0  0  0  0  0  0  0  0  0  0  0
  186.0700  174.8840  134.8880 O   0  0  0  0  0  0  0  0  0  0  0  0
  186.2740  175.9140  135.9650 S   0  0  0  0  0  0  0  0  0  0  0  0
  186.7560  175.2410  137.2200 O   0  0  0  0  0  0  0  0  0  0  0  0
  184.7160  176.7100  136.3230 C   0  0  0  0  0  2  0  0  0  0  0  0
  183.1280  175.0040  137.1960 C   0  0  0  0  0  1  0  0  0  0  0  0
  183.3150  177.2040  138.3030 C   0  0  0  0  0  1  0  0  0  0  0  0
  184.0810  176.1230  137.5710 C   0  0  0  0  0  3  0  0  0  0  0  0
  1 10  2  0  0  0  0
  1 11  1  0  0  0  0
  2  8  2  0  0  0  0
  3 17  2  0  0  0  0
  3 14  1  0  0  0  0
  4  2  1  6  0  0  0
  4 19  1  0  0  0  0
  5  7  1  0  0  0  0
  5  9  1  0  0  0  0
  6 16  1  0  0  0  0
  6  4  1  0  0  0  0
  7 20  1  0  0  0  0
  8  3  1  0  0  0  0
 10 16  1  0  0  0  0
 11 13  1  0  0  0  0
 12  6  2  0  0  0  0
 13  7  2  0  0  0  0
 15 18  2  0  0  0  0
 15 12  1  0  0  0  0
 16  5  2  0  0  0  0
 18 10  1  0  0  0  0
 19  9  1  0  0  0  0
 19 17  1  1  0  0  0
 20 22  1  0  0  0  0
 21 23  2  0  0  0  0
 21 24  1  0  0  0  0
 22 21  1  0  0  0  0
 25 24  1  0  0  0  0
 25 26  1  0  0  0  0
 27 25  1  0  0  0  0
 28 15  1  0  0  0  0
 29 28  1  1  0  0  0
 30 33  1  1  0  0  0
 30 29  1  0  0  0  0
 31 30  1  0  0  0  0
 31 29  1  0  0  0  0
 32 33  2  0  0  0  0
 33 35  1  0  0  0  0
 33 34  2  0  0  0  0
 35 38  1  0  0  0  0
 36 38  1  0  0  0  0
 38 37  1  0  0  0  0
M  END
>  <MODEL>
9

>  <REMARK>
 VINA RESULT:      -8.0      3.900      5.008
  Name = 
  9 active torsions:
  status: ('A' for Active; 'I' for Inactive)
    1  A    between atoms: N_6  and  C_14
    2  A    between atoms: C_9  and  C_17
    3  A    between atoms: S_10  and  C_31
    4  A    between atoms: S_10  and  C_33
    5  A    between atoms: C_11  and  C_14
    6  A    between atoms: N_15  and  C_17
    7  A    between atoms: C_16  and  N_28
    8  A    between atoms: N_28  and  C_29
    9  A    between atoms: C_33  and  C_34
                            x       y       z     vdW  Elec       q    Type
                         _______ _______ _______ _____ _____    ______ ____

>  <TORSDO>
F 9

$$$$
