=
 OpenBabel11042411223D

 25 28  0  0  1  0  0  0  0  0999 V2000
  186.4630  177.8980  146.7570 C   0  0  0  0  0  3  0  0  0  0  0  0
  183.6590  178.6290  142.1700 C   0  0  0  0  0  0  0  0  0  0  0  0
  187.1350  177.3980  145.7330 C   0  0  0  0  0  3  0  0  0  0  0  0
  182.6610  178.7270  141.2780 N   0  0  0  0  0  0  0  0  0  0  0  0
  185.6620  179.1240  146.6040 C   0  0  0  0  0  2  0  0  0  0  0  0
  184.6830  178.7520  140.2150 N   0  0  0  0  0  2  0  0  0  0  0  0
  186.0330  178.3820  143.6720 C   0  0  0  0  0  0  0  0  0  0  0  0
  183.3340  178.7930  140.1030 C   0  0  0  0  0  0  0  0  0  0  0  0
  182.6740  178.9060  138.8490 N   0  0  0  0  0  1  0  0  0  0  0  0
  182.2600  178.6970  144.1540 N   0  0  0  0  0  1  0  0  0  0  0  0
  187.3110  178.6280  141.4040 C   0  0  0  0  0  1  0  0  0  0  0  0
  184.8580  178.6500  141.5450 C   0  0  0  0  0  0  0  0  0  0  0  0
  184.7410  178.5770  144.3220 C   0  0  0  0  0  0  0  0  0  0  0  0
  184.5800  178.8750  145.6220 C   0  0  0  0  0  2  0  0  0  0  0  0
  187.1550  177.9410  144.3500 C   0  0  2  0  0  3  0  0  0  0  0  0
  183.5510  178.6010  143.5480 C   0  0  0  0  0  0  0  0  0  0  0  0
  186.0660  178.5540  142.2350 C   0  0  0  0  0  0  0  0  0  0  0  0
  188.4000  177.7660  143.6560 N   0  0  0  0  0  2  0  0  0  0  0  0
  190.7570  177.6030  144.3370 C   0  0  0  0  0  2  0  0  0  0  0  0
  189.6720  175.7890  142.9730 C   0  0  0  0  0  2  0  0  0  0  0  0
  190.3400  176.4120  141.7480 C   0  0  0  0  0  2  0  0  0  0  0  0
  191.3620  178.1210  143.0330 C   0  0  0  0  0  2  0  0  0  0  0  0
  189.4560  176.8420  144.0600 C   0  0  0  0  0  3  0  0  0  0  0  0
  192.1870  177.5760  140.9160 C   0  0  0  0  0  1  0  0  0  0  0  0
  191.6200  177.0070  142.1250 N   0  0  0  0  0  0  0  0  0  0  0  0
  2 16  1  0  0  0  0
  3  1  2  0  0  0  0
  4  2  1  0  0  0  0
  5  1  1  0  0  0  0
  6 12  1  0  0  0  0
  7 13  1  0  0  0  0
  7 15  1  0  0  0  0
  8  6  1  0  0  0  0
  8  4  2  0  0  0  0
  9  8  1  0  0  0  0
 11 17  1  0  0  0  0
 12  2  2  0  0  0  0
 12 17  1  0  0  0  0
 13 14  1  0  0  0  0
 14  5  1  0  0  0  0
 15 18  1  6  0  0  0
 15  3  1  0  0  0  0
 16 10  1  0  0  0  0
 16 13  2  0  0  0  0
 17  7  2  0  0  0  0
 18 23  1  0  0  0  0
 20 23  1  0  0  0  0
 21 25  1  0  0  0  0
 21 20  1  0  0  0  0
 22 19  1  0  0  0  0
 23 19  1  0  0  0  0
 24 25  1  0  0  0  0
 25 22  1  0  0  0  0
M  END
>  <MODEL>
1

>  <REMARK>
 VINA RESULT:      -9.4      0.000      0.000
  Name = 
  2 active torsions:
  status: ('A' for Active; 'I' for Inactive)
    1  A    between atoms: C_18  and  N_21
    2  A    between atoms: N_21  and  C_23
                            x       y       z     vdW  Elec       q    Type
                         _______ _______ _______ _____ _____    ______ ____

>  <TORSDO>
F 2

$$$$
=
 OpenBabel11042411223D

 25 28  0  0  1  0  0  0  0  0999 V2000
  185.6610  178.7580  142.6850 C   0  0  0  0  0  3  0  0  0  0  0  0
  189.5090  177.2920  146.2180 C   0  0  0  0  0  0  0  0  0  0  0  0
  186.8240  178.6490  142.0650 C   0  0  0  0  0  3  0  0  0  0  0  0
  190.2560  177.1760  147.3270 N   0  0  0  0  0  0  0  0  0  0  0  0
  185.3040  177.8400  143.7800 C   0  0  0  0  0  2  0  0  0  0  0  0
  191.3110  176.1990  145.5520 N   0  0  0  0  0  2  0  0  0  0  0  0
  188.3120  177.3610  143.6650 C   0  0  0  0  0  0  0  0  0  0  0  0
  191.3440  176.5100  146.8700 C   0  0  0  0  0  0  0  0  0  0  0  0
  192.4340  176.1560  147.7120 N   0  0  0  0  0  1  0  0  0  0  0  0
  187.5920  178.3320  147.2860 N   0  0  0  0  0  1  0  0  0  0  0  0
  190.3680  175.9760  142.8330 C   0  0  0  0  0  1  0  0  0  0  0  0
  190.1280  176.7090  145.1660 C   0  0  0  0  0  0  0  0  0  0  0  0
  187.5840  177.7860  144.8560 C   0  0  0  0  0  0  0  0  0  0  0  0
  186.2620  178.0260  144.8970 C   0  0  0  0  0  2  0  0  0  0  0  0
  187.8990  177.6720  142.3830 C   0  0  2  0  0  3  0  0  0  0  0  0
  188.2420  177.8330  146.1140 C   0  0  0  0  0  0  0  0  0  0  0  0
  189.5760  176.6920  143.8860 C   0  0  0  0  0  0  0  0  0  0  0  0
  188.6570  177.2270  141.2480 N   0  0  0  0  0  2  0  0  0  0  0  0
  188.1850  178.0470  138.9780 C   0  0  0  0  0  2  0  0  0  0  0  0
  190.5480  177.6690  139.7570 C   0  0  0  0  0  2  0  0  0  0  0  0
  190.5050  176.3390  139.0040 C   0  0  0  0  0  2  0  0  0  0  0  0
  188.2800  176.6960  138.2700 C   0  0  0  0  0  2  0  0  0  0  0  0
  189.1400  178.0930  140.1760 C   0  0  0  0  0  3  0  0  0  0  0  0
  189.6590  175.1650  137.1700 C   0  0  0  0  0  1  0  0  0  0  0  0
  189.6510  176.4600  137.8250 N   0  0  0  0  0  0  0  0  0  0  0  0
  1  5  1  0  0  0  0
  2  4  1  0  0  0  0
  3 15  1  0  0  0  0
  3  1  2  0  0  0  0
  5 14  1  0  0  0  0
  6  8  1  0  0  0  0
  7 17  2  0  0  0  0
  7 13  1  0  0  0  0
  8  4  2  0  0  0  0
  8  9  1  0  0  0  0
 11 17  1  0  0  0  0
 12  6  1  0  0  0  0
 12  2  2  0  0  0  0
 13 14  1  0  0  0  0
 13 16  2  0  0  0  0
 15 18  1  6  0  0  0
 15  7  1  0  0  0  0
 16  2  1  0  0  0  0
 16 10  1  0  0  0  0
 17 12  1  0  0  0  0
 19 23  1  0  0  0  0
 20 23  1  0  0  0  0
 21 20  1  0  0  0  0
 22 19  1  0  0  0  0
 23 18  1  0  0  0  0
 24 25  1  0  0  0  0
 25 22  1  0  0  0  0
 25 21  1  0  0  0  0
M  END
>  <MODEL>
2

>  <REMARK>
 VINA RESULT:      -8.9      2.886      6.014
  Name = 
  2 active torsions:
  status: ('A' for Active; 'I' for Inactive)
    1  A    between atoms: C_18  and  N_21
    2  A    between atoms: N_21  and  C_23
                            x       y       z     vdW  Elec       q    Type
                         _______ _______ _______ _____ _____    ______ ____

>  <TORSDO>
F 2

$$$$
=
 OpenBabel11042411223D

 25 28  0  0  1  0  0  0  0  0999 V2000
  191.4610  176.1880  143.5710 C   0  0  0  0  0  3  0  0  0  0  0  0
  186.6100  177.9470  145.2490 C   0  0  0  0  0  0  0  0  0  0  0  0
  190.5720  176.0530  142.6000 C   0  0  0  0  0  3  0  0  0  0  0  0
  185.5310  178.2100  146.0020 N   0  0  0  0  0  0  0  0  0  0  0  0
  191.4030  177.3390  144.4880 C   0  0  0  0  0  2  0  0  0  0  0  0
  185.1090  178.6970  143.8110 N   0  0  0  0  0  2  0  0  0  0  0  0
  188.5990  177.4830  143.3040 C   0  0  0  0  0  0  0  0  0  0  0  0
  184.6430  178.6570  145.0810 C   0  0  0  0  0  0  0  0  0  0  0  0
  183.3240  179.0640  145.4250 N   0  0  0  0  0  1  0  0  0  0  0  0
  188.0820  177.3410  147.0830 N   0  0  0  0  0  1  0  0  0  0  0  0
  186.9080  178.4590  141.5640 C   0  0  0  0  0  1  0  0  0  0  0  0
  186.3670  178.2400  143.9510 C   0  0  0  0  0  0  0  0  0  0  0  0
  188.8940  177.3820  144.7290 C   0  0  0  0  0  0  0  0  0  0  0  0
  190.1310  177.2880  145.2470 C   0  0  0  0  0  2  0  0  0  0  0  0
  189.4280  176.9620  142.3270 C   0  0  2  0  0  3  0  0  0  0  0  0
  187.8520  177.5250  145.6840 C   0  0  0  0  0  0  0  0  0  0  0  0
  187.3170  178.0530  142.9490 C   0  0  0  0  0  0  0  0  0  0  0  0
  189.0850  177.0910  140.9390 N   0  0  0  0  0  2  0  0  0  0  0  0
  189.1790  178.6030  139.0020 C   0  0  0  0  0  2  0  0  0  0  0  0
  190.5910  176.5230  139.0940 C   0  0  0  0  0  2  0  0  0  0  0  0
  189.5450  175.8610  138.1980 C   0  0  0  0  0  2  0  0  0  0  0  0
  188.2150  177.8200  138.1110 C   0  0  0  0  0  2  0  0  0  0  0  0
  189.9600  177.6500  139.9130 C   0  0  0  0  0  3  0  0  0  0  0  0
  187.9750  176.1530  136.4920 C   0  0  0  0  0  1  0  0  0  0  0  0
  188.9540  176.8540  137.3030 N   0  0  0  0  0  0  0  0  0  0  0  0
  1  5  1  0  0  0  0
  2 16  1  0  0  0  0
  2  4  1  0  0  0  0
  3  1  2  0  0  0  0
  5 14  1  0  0  0  0
  6 12  1  0  0  0  0
  6  8  1  0  0  0  0
  7 13  1  0  0  0  0
  8  9  1  0  0  0  0
  8  4  2  0  0  0  0
 11 17  1  0  0  0  0
 12  2  2  0  0  0  0
 13 14  1  0  0  0  0
 13 16  2  0  0  0  0
 15 18  1  6  0  0  0
 15  3  1  0  0  0  0
 15  7  1  0  0  0  0
 16 10  1  0  0  0  0
 17  7  2  0  0  0  0
 17 12  1  0  0  0  0
 19 23  1  0  0  0  0
 20 23  1  0  0  0  0
 21 20  1  0  0  0  0
 22 19  1  0  0  0  0
 23 18  1  0  0  0  0
 24 25  1  0  0  0  0
 25 22  1  0  0  0  0
 25 21  1  0  0  0  0
M  END
>  <MODEL>
3

>  <REMARK>
 VINA RESULT:      -8.8      2.586      4.802
  Name = 
  2 active torsions:
  status: ('A' for Active; 'I' for Inactive)
    1  A    between atoms: C_18  and  N_21
    2  A    between atoms: N_21  and  C_23
                            x       y       z     vdW  Elec       q    Type
                         _______ _______ _______ _____ _____    ______ ____

>  <TORSDO>
F 2

$$$$
=
 OpenBabel11042411223D

 25 28  0  0  1  0  0  0  0  0999 V2000
  186.3660  177.6950  146.5770 C   0  0  0  0  0  3  0  0  0  0  0  0
  184.1020  178.7850  141.7670 C   0  0  0  0  0  0  0  0  0  0  0  0
  187.0670  177.1270  145.6090 C   0  0  0  0  0  3  0  0  0  0  0  0
  183.2090  179.0070  140.7900 N   0  0  0  0  0  0  0  0  0  0  0  0
  185.7310  179.0080  146.3740 C   0  0  0  0  0  2  0  0  0  0  0  0
  185.3100  178.8020  139.9170 N   0  0  0  0  0  2  0  0  0  0  0  0
  186.2830  178.2490  143.4740 C   0  0  0  0  0  0  0  0  0  0  0  0
  183.9910  179.0020  139.6830 C   0  0  0  0  0  0  0  0  0  0  0  0
  183.4670  179.2010  138.3760 N   0  0  0  0  0  1  0  0  0  0  0  0
  182.5430  179.0020  143.6170 N   0  0  0  0  0  1  0  0  0  0  0  0
  187.7850  178.3610  141.3370 C   0  0  0  0  0  1  0  0  0  0  0  0
  185.3480  178.6690  141.2550 C   0  0  0  0  0  0  0  0  0  0  0  0
  184.9680  178.5900  144.0080 C   0  0  0  0  0  0  0  0  0  0  0  0
  184.7220  178.8950  145.2930 C   0  0  0  0  0  2  0  0  0  0  0  0
  187.2780  177.6740  144.2430 C   0  0  2  0  0  3  0  0  0  0  0  0
  183.8650  178.7600  143.1290 C   0  0  0  0  0  0  0  0  0  0  0  0
  186.4670  178.4270  142.0500 C   0  0  0  0  0  0  0  0  0  0  0  0
  188.5530  177.3590  143.6630 N   0  0  0  0  0  2  0  0  0  0  0  0
  190.9660  177.4580  143.2000 C   0  0  0  0  0  2  0  0  0  0  0  0
  189.9920  178.5420  145.2510 C   0  0  0  0  0  2  0  0  0  0  0  0
  190.4570  177.3130  146.0320 C   0  0  0  0  0  2  0  0  0  0  0  0
  191.3740  176.2920  144.1000 C   0  0  0  0  0  2  0  0  0  0  0  0
  189.7500  178.1860  143.7840 C   0  0  0  0  0  3  0  0  0  0  0  0
  192.0550  175.6210  146.2310 C   0  0  0  0  0  1  0  0  0  0  0  0
  191.6820  176.7800  145.4420 N   0  0  0  0  0  0  0  0  0  0  0  0
  2 16  1  0  0  0  0
  3  1  2  0  0  0  0
  4  2  1  0  0  0  0
  5  1  1  0  0  0  0
  6 12  1  0  0  0  0
  7 13  1  0  0  0  0
  7 15  1  0  0  0  0
  8  6  1  0  0  0  0
  8  4  2  0  0  0  0
  9  8  1  0  0  0  0
 11 17  1  0  0  0  0
 12  2  2  0  0  0  0
 12 17  1  0  0  0  0
 13 14  1  0  0  0  0
 14  5  1  0  0  0  0
 15 18  1  6  0  0  0
 15  3  1  0  0  0  0
 16 10  1  0  0  0  0
 16 13  2  0  0  0  0
 17  7  2  0  0  0  0
 18 23  1  0  0  0  0
 19 23  1  0  0  0  0
 19 22  1  0  0  0  0
 20 21  1  0  0  0  0
 22 25  1  0  0  0  0
 23 20  1  0  0  0  0
 25 21  1  0  0  0  0
 25 24  1  0  0  0  0
M  END
>  <MODEL>
4

>  <REMARK>
 VINA RESULT:      -8.7      1.194      1.883
  Name = 
  2 active torsions:
  status: ('A' for Active; 'I' for Inactive)
    1  A    between atoms: C_18  and  N_21
    2  A    between atoms: N_21  and  C_23
                            x       y       z     vdW  Elec       q    Type
                         _______ _______ _______ _____ _____    ______ ____

>  <TORSDO>
F 2

$$$$
=
 OpenBabel11042411223D

 25 28  0  0  1  0  0  0  0  0999 V2000
  184.7350  179.0000  140.8660 C   0  0  0  0  0  3  0  0  0  0  0  0
  186.4350  178.2260  145.9610 C   0  0  0  0  0  0  0  0  0  0  0  0
  186.0560  178.9350  140.8960 C   0  0  0  0  0  3  0  0  0  0  0  0
  186.5550  178.2840  147.2970 N   0  0  0  0  0  0  0  0  0  0  0  0
  183.9210  178.1640  141.7660 C   0  0  0  0  0  2  0  0  0  0  0  0
  188.3670  177.2380  146.3800 N   0  0  0  0  0  2  0  0  0  0  0  0
  186.6220  177.9440  143.1610 C   0  0  0  0  0  0  0  0  0  0  0  0
  187.7490  177.6760  147.5020 C   0  0  0  0  0  0  0  0  0  0  0  0
  188.3050  177.5020  148.7990 N   0  0  0  0  0  1  0  0  0  0  0  0
  184.2090  179.1900  145.8430 N   0  0  0  0  0  1  0  0  0  0  0  0
  188.8660  176.6720  143.5930 C   0  0  0  0  0  1  0  0  0  0  0  0
  187.5040  177.6020  145.4150 C   0  0  0  0  0  0  0  0  0  0  0  0
  185.3960  178.4160  143.7960 C   0  0  0  0  0  0  0  0  0  0  0  0
  184.2130  178.5410  143.1700 C   0  0  0  0  0  2  0  0  0  0  0  0
  186.8720  178.0930  141.8090 C   0  0  2  0  0  3  0  0  0  0  0  0
  185.3600  178.6410  145.1970 C   0  0  0  0  0  0  0  0  0  0  0  0
  187.6410  177.4140  144.0400 C   0  0  0  0  0  0  0  0  0  0  0  0
  188.0980  177.6090  141.2400 N   0  0  0  0  0  2  0  0  0  0  0  0
  188.4960  178.3020  138.9140 C   0  0  0  0  0  2  0  0  0  0  0  0
  190.4130  177.8780  140.4890 C   0  0  0  0  0  2  0  0  0  0  0  0
  190.5550  176.5060  139.8300 C   0  0  0  0  0  2  0  0  0  0  0  0
  188.7500  176.9050  138.3470 C   0  0  0  0  0  2  0  0  0  0  0  0
  188.9750  178.3850  140.3680 C   0  0  0  0  0  3  0  0  0  0  0  0
  190.3310  175.2530  137.8710 C   0  0  0  0  0  1  0  0  0  0  0  0
  190.1730  176.5860  138.4220 N   0  0  0  0  0  0  0  0  0  0  0  0
  1  3  2  0  0  0  0
  1  5  1  0  0  0  0
  2  4  1  0  0  0  0
  3 15  1  0  0  0  0
  4  8  2  0  0  0  0
  5 14  1  0  0  0  0
  6  8  1  0  0  0  0
  7 13  2  0  0  0  0
  7 17  1  0  0  0  0
  8  9  1  0  0  0  0
 11 17  1  0  0  0  0
 12  2  1  0  0  0  0
 12  6  1  0  0  0  0
 13 16  1  0  0  0  0
 14 13  1  0  0  0  0
 15 18  1  1  0  0  0
 15  7  1  0  0  0  0
 16 10  1  0  0  0  0
 16  2  2  0  0  0  0
 17 12  2  0  0  0  0
 19 23  1  0  0  0  0
 21 20  1  0  0  0  0
 22 25  1  0  0  0  0
 22 19  1  0  0  0  0
 23 20  1  0  0  0  0
 23 18  1  0  0  0  0
 24 25  1  0  0  0  0
 25 21  1  0  0  0  0
M  END
>  <MODEL>
5

>  <REMARK>
 VINA RESULT:      -8.7      2.368      5.035
  Name = 
  2 active torsions:
  status: ('A' for Active; 'I' for Inactive)
    1  A    between atoms: C_18  and  N_21
    2  A    between atoms: N_21  and  C_23
                            x       y       z     vdW  Elec       q    Type
                         _______ _______ _______ _____ _____    ______ ____

>  <TORSDO>
F 2

$$$$
=
 OpenBabel11042411223D

 25 28  0  0  1  0  0  0  0  0999 V2000
  187.4660  177.9540  148.2280 C   0  0  0  0  0  3  0  0  0  0  0  0
  190.6170  177.4660  143.8370 C   0  0  0  0  0  0  0  0  0  0  0  0
  186.8590  178.4790  147.1760 C   0  0  0  0  0  3  0  0  0  0  0  0
  191.6800  177.4250  143.0180 N   0  0  0  0  0  0  0  0  0  0  0  0
  188.3060  176.7520  148.0880 C   0  0  0  0  0  2  0  0  0  0  0  0
  189.7430  177.3990  141.8090 N   0  0  0  0  0  2  0  0  0  0  0  0
  188.1330  177.6020  145.1670 C   0  0  0  0  0  0  0  0  0  0  0  0
  191.0970  177.3910  141.7950 C   0  0  0  0  0  0  0  0  0  0  0  0
  191.8500  177.3430  140.5900 N   0  0  0  0  0  1  0  0  0  0  0  0
  191.8680  177.3490  145.9160 N   0  0  0  0  0  1  0  0  0  0  0  0
  187.0320  177.4190  142.8020 C   0  0  0  0  0  1  0  0  0  0  0  0
  189.4680  177.4440  143.1240 C   0  0  0  0  0  0  0  0  0  0  0  0
  189.3780  177.4090  145.9030 C   0  0  0  0  0  0  0  0  0  0  0  0
  189.4510  177.0630  147.1990 C   0  0  0  0  0  2  0  0  0  0  0  0
  186.9540  177.9920  145.7750 C   0  0  2  0  0  3  0  0  0  0  0  0
  190.6230  177.4410  145.2190 C   0  0  0  0  0  0  0  0  0  0  0  0
  188.2110  177.4870  143.7260 C   0  0  0  0  0  0  0  0  0  0  0  0
  185.7600  178.1670  144.9990 N   0  0  0  0  0  2  0  0  0  0  0  0
  183.4590  179.0030  145.2300 C   0  0  0  0  0  2  0  0  0  0  0  0
  185.0990  180.1280  143.6900 C   0  0  0  0  0  2  0  0  0  0  0  0
  184.4310  179.3690  142.5430 C   0  0  0  0  0  2  0  0  0  0  0  0
  182.8860  178.3100  143.9940 C   0  0  0  0  0  2  0  0  0  0  0  0
  184.9300  179.3680  145.0060 C   0  0  0  0  0  3  0  0  0  0  0  0
  182.4520  178.4560  141.7040 C   0  0  0  0  0  1  0  0  0  0  0  0
  183.0110  179.1820  142.8290 N   0  0  0  0  0  0  0  0  0  0  0  0
  2 16  1  0  0  0  0
  3  1  2  0  0  0  0
  4  2  1  0  0  0  0
  5  1  1  0  0  0  0
  6 12  1  0  0  0  0
  7 15  1  0  0  0  0
  7 13  1  0  0  0  0
  8  6  1  0  0  0  0
  8  4  2  0  0  0  0
  9  8  1  0  0  0  0
 11 17  1  0  0  0  0
 12 17  1  0  0  0  0
 12  2  2  0  0  0  0
 13 14  1  0  0  0  0
 14  5  1  0  0  0  0
 15 18  1  6  0  0  0
 15  3  1  0  0  0  0
 16 13  2  0  0  0  0
 16 10  1  0  0  0  0
 17  7  2  0  0  0  0
 18 23  1  0  0  0  0
 20 23  1  0  0  0  0
 21 25  1  0  0  0  0
 21 20  1  0  0  0  0
 22 19  1  0  0  0  0
 23 19  1  0  0  0  0
 24 25  1  0  0  0  0
 25 22  1  0  0  0  0
M  END
>  <MODEL>
6

>  <REMARK>
 VINA RESULT:      -8.6      1.717      6.395
  Name = 
  2 active torsions:
  status: ('A' for Active; 'I' for Inactive)
    1  A    between atoms: C_18  and  N_21
    2  A    between atoms: N_21  and  C_23
                            x       y       z     vdW  Elec       q    Type
                         _______ _______ _______ _____ _____    ______ ____

>  <TORSDO>
F 2

$$$$
=
 OpenBabel11042411223D

 25 28  0  0  1  0  0  0  0  0999 V2000
  189.4620  177.9440  138.9260 C   0  0  0  0  0  3  0  0  0  0  0  0
  185.3800  178.8530  142.3830 C   0  0  0  0  0  0  0  0  0  0  0  0
  189.9120  177.9230  140.1700 C   0  0  0  0  0  3  0  0  0  0  0  0
  184.2610  179.3310  142.9500 N   0  0  0  0  0  0  0  0  0  0  0  0
  188.1270  177.4140  138.6010 C   0  0  0  0  0  2  0  0  0  0  0  0
  185.4520  178.0940  144.4570 N   0  0  0  0  0  2  0  0  0  0  0  0
  187.8430  177.7090  141.6210 C   0  0  0  0  0  0  0  0  0  0  0  0
  184.3540  178.8480  144.2130 C   0  0  0  0  0  0  0  0  0  0  0  0
  183.3670  179.1050  145.2050 N   0  0  0  0  0  1  0  0  0  0  0  0
  184.9250  179.6780  140.1440 N   0  0  0  0  0  1  0  0  0  0  0  0
  187.9390  176.6910  144.0280 C   0  0  0  0  0  1  0  0  0  0  0  0
  186.0850  178.1150  143.2700 C   0  0  0  0  0  0  0  0  0  0  0  0
  186.9570  178.3270  140.6390 C   0  0  0  0  0  0  0  0  0  0  0  0
  187.1030  178.2200  139.3070 C   0  0  0  0  0  2  0  0  0  0  0  0
  189.1720  177.4300  141.3610 C   0  0  2  0  0  3  0  0  0  0  0  0
  185.7700  178.9810  141.0630 C   0  0  0  0  0  0  0  0  0  0  0  0
  187.2970  177.5070  142.9460 C   0  0  0  0  0  0  0  0  0  0  0  0
  189.9950  176.8210  142.3670 N   0  0  0  0  0  2  0  0  0  0  0  0
  192.0990  176.1170  143.4290 C   0  0  0  0  0  2  0  0  0  0  0  0
  191.3210  178.5070  143.5490 C   0  0  0  0  0  2  0  0  0  0  0  0
  190.8090  178.1930  144.9550 C   0  0  0  0  0  2  0  0  0  0  0  0
  191.5420  175.9420  144.8420 C   0  0  0  0  0  2  0  0  0  0  0  0
  191.3560  177.2380  142.6950 C   0  0  0  0  0  3  0  0  0  0  0  0
  191.1170  176.9480  146.9070 C   0  0  0  0  0  1  0  0  0  0  0  0
  191.6670  177.1930  145.5860 N   0  0  0  0  0  0  0  0  0  0  0  0
  1  3  2  0  0  0  0
  2  4  1  0  0  0  0
  2 12  1  0  0  0  0
  3 15  1  0  0  0  0
  4  8  2  0  0  0  0
  5  1  1  0  0  0  0
  5 14  1  0  0  0  0
  7 17  1  0  0  0  0
  8  6  1  0  0  0  0
  8  9  1  0  0  0  0
 10 16  1  0  0  0  0
 12  6  1  0  0  0  0
 13 16  1  0  0  0  0
 13  7  2  0  0  0  0
 14 13  1  0  0  0  0
 15  7  1  0  0  0  0
 15 18  1  1  0  0  0
 16  2  2  0  0  0  0
 17 12  2  0  0  0  0
 17 11  1  0  0  0  0
 18 23  1  0  0  0  0
 19 22  1  0  0  0  0
 20 21  1  0  0  0  0
 21 25  1  0  0  0  0
 22 25  1  0  0  0  0
 23 19  1  0  0  0  0
 23 20  1  0  0  0  0
 25 24  1  0  0  0  0
M  END
>  <MODEL>
7

>  <REMARK>
 VINA RESULT:      -8.4      1.926      4.503
  Name = 
  2 active torsions:
  status: ('A' for Active; 'I' for Inactive)
    1  A    between atoms: C_18  and  N_21
    2  A    between atoms: N_21  and  C_23
                            x       y       z     vdW  Elec       q    Type
                         _______ _______ _______ _____ _____    ______ ____

>  <TORSDO>
F 2

$$$$
=
 OpenBabel11042411223D

 25 28  0  0  1  0  0  0  0  0999 V2000
  185.3160  178.2240  144.8680 C   0  0  0  0  0  3  0  0  0  0  0  0
  187.3220  178.2620  139.8260 C   0  0  0  0  0  0  0  0  0  0  0  0
  186.4250  177.5040  144.8180 C   0  0  0  0  0  3  0  0  0  0  0  0
  187.4310  178.2540  138.4880 N   0  0  0  0  0  0  0  0  0  0  0  0
  185.1770  179.4470  144.0590 C   0  0  0  0  0  2  0  0  0  0  0  0
  189.4790  177.9600  139.4550 N   0  0  0  0  0  2  0  0  0  0  0  0
  187.5410  178.1540  142.6360 C   0  0  0  0  0  0  0  0  0  0  0  0
  188.7600  178.0600  138.3120 C   0  0  0  0  0  0  0  0  0  0  0  0
  189.3570  177.9790  137.0240 N   0  0  0  0  0  1  0  0  0  0  0  0
  184.9500  178.7800  139.9040 N   0  0  0  0  0  1  0  0  0  0  0  0
  190.1180  177.9000  142.2700 C   0  0  0  0  0  1  0  0  0  0  0  0
  188.5340  178.0950  140.4020 C   0  0  0  0  0  0  0  0  0  0  0  0
  186.2940  178.5440  141.9870 C   0  0  0  0  0  0  0  0  0  0  0  0
  185.2410  179.0860  142.6230 C   0  0  0  0  0  2  0  0  0  0  0  0
  187.6100  177.7790  143.9650 C   0  0  2  0  0  3  0  0  0  0  0  0
  186.1810  178.4960  140.5720 C   0  0  0  0  0  0  0  0  0  0  0  0
  188.7080  178.0550  141.7850 C   0  0  0  0  0  0  0  0  0  0  0  0
  188.8670  177.4050  144.5490 N   0  0  0  0  0  2  0  0  0  0  0  0
  191.1530  178.1250  145.0990 C   0  0  0  0  0  2  0  0  0  0  0  0
  189.4040  177.8790  146.8900 C   0  0  0  0  0  2  0  0  0  0  0  0
  190.0320  176.5230  147.2150 C   0  0  0  0  0  2  0  0  0  0  0  0
  191.6800  176.7560  145.5280 C   0  0  0  0  0  2  0  0  0  0  0  0
  189.6630  178.2540  145.4310 C   0  0  0  0  0  3  0  0  0  0  0  0
  191.9900  175.2510  147.2870 C   0  0  0  0  0  1  0  0  0  0  0  0
  191.4700  176.5660  146.9600 N   0  0  0  0  0  0  0  0  0  0  0  0
  2 12  2  0  0  0  0
  2 16  1  0  0  0  0
  3  1  2  0  0  0  0
  4  2  1  0  0  0  0
  5  1  1  0  0  0  0
  6 12  1  0  0  0  0
  7 15  1  0  0  0  0
  8  4  2  0  0  0  0
  8  6  1  0  0  0  0
  9  8  1  0  0  0  0
 10 16  1  0  0  0  0
 12 17  1  0  0  0  0
 13 14  1  0  0  0  0
 13  7  1  0  0  0  0
 14  5  1  0  0  0  0
 15 18  1  6  0  0  0
 15  3  1  0  0  0  0
 16 13  2  0  0  0  0
 17 11  1  0  0  0  0
 17  7  2  0  0  0  0
 18 23  1  0  0  0  0
 19 23  1  0  0  0  0
 19 22  1  0  0  0  0
 20 21  1  0  0  0  0
 22 25  1  0  0  0  0
 23 20  1  0  0  0  0
 25 21  1  0  0  0  0
 25 24  1  0  0  0  0
M  END
>  <MODEL>
8

>  <REMARK>
 VINA RESULT:      -8.0      2.433      3.984
  Name = 
  2 active torsions:
  status: ('A' for Active; 'I' for Inactive)
    1  A    between atoms: C_18  and  N_21
    2  A    between atoms: N_21  and  C_23
                            x       y       z     vdW  Elec       q    Type
                         _______ _______ _______ _____ _____    ______ ____

>  <TORSDO>
F 2

$$$$
=
 OpenBabel11042411223D

 25 28  0  0  1  0  0  0  0  0999 V2000
  185.7970  177.9840  146.2350 C   0  0  0  0  0  3  0  0  0  0  0  0
  182.6900  178.6700  141.8400 C   0  0  0  0  0  0  0  0  0  0  0  0
  186.4120  177.5010  145.1680 C   0  0  0  0  0  3  0  0  0  0  0  0
  181.6340  178.7500  141.0140 N   0  0  0  0  0  0  0  0  0  0  0  0
  184.9640  179.1940  146.1390 C   0  0  0  0  0  2  0  0  0  0  0  0
  183.5830  178.8200  139.8250 N   0  0  0  0  0  2  0  0  0  0  0  0
  185.1600  178.4670  143.1860 C   0  0  0  0  0  0  0  0  0  0  0  0
  182.2290  178.8330  139.7990 C   0  0  0  0  0  0  0  0  0  0  0  0
  181.4880  178.9360  138.5900 N   0  0  0  0  0  1  0  0  0  0  0  0
  181.4200  178.7050  143.9100 N   0  0  0  0  0  1  0  0  0  0  0  0
  186.2850  178.7460  140.8410 C   0  0  0  0  0  1  0  0  0  0  0  0
  183.8460  178.7170  141.1400 C   0  0  0  0  0  0  0  0  0  0  0  0
  183.9090  178.6350  143.9180 C   0  0  0  0  0  0  0  0  0  0  0  0
  183.8260  178.9260  145.2270 C   0  0  0  0  0  2  0  0  0  0  0  0
  186.3320  178.0470  143.7880 C   0  0  2  0  0  3  0  0  0  0  0  0
  182.6710  178.6370  143.2220 C   0  0  0  0  0  0  0  0  0  0  0  0
  185.0970  178.6440  141.7510 C   0  0  0  0  0  0  0  0  0  0  0  0
  187.5330  177.9000  143.0160 N   0  0  0  0  0  2  0  0  0  0  0  0
  189.0800  176.6370  144.4510 C   0  0  0  0  0  2  0  0  0  0  0  0
  189.4850  176.8490  141.9770 C   0  0  0  0  0  2  0  0  0  0  0  0
  190.4890  177.9530  142.3100 C   0  0  0  0  0  2  0  0  0  0  0  0
  190.1070  177.7520  144.6410 C   0  0  0  0  0  2  0  0  0  0  0  0
  188.4220  176.7430  143.0710 C   0  0  0  0  0  3  0  0  0  0  0  0
  192.0560  178.7640  143.8420 C   0  0  0  0  0  1  0  0  0  0  0  0
  191.1260  177.6770  143.5960 N   0  0  0  0  0  0  0  0  0  0  0  0
  2 16  1  0  0  0  0
  3  1  2  0  0  0  0
  4  2  1  0  0  0  0
  5  1  1  0  0  0  0
  6 12  1  0  0  0  0
  7 15  1  0  0  0  0
  7 13  1  0  0  0  0
  8  6  1  0  0  0  0
  8  4  2  0  0  0  0
  9  8  1  0  0  0  0
 11 17  1  0  0  0  0
 12 17  1  0  0  0  0
 12  2  2  0  0  0  0
 13 14  1  0  0  0  0
 14  5  1  0  0  0  0
 15 18  1  6  0  0  0
 15  3  1  0  0  0  0
 16 10  1  0  0  0  0
 16 13  2  0  0  0  0
 17  7  2  0  0  0  0
 18 23  1  0  0  0  0
 19 22  1  0  0  0  0
 20 21  1  0  0  0  0
 20 23  1  0  0  0  0
 21 25  1  0  0  0  0
 23 19  1  0  0  0  0
 25 24  1  0  0  0  0
 25 22  1  0  0  0  0
M  END
>  <MODEL>
9

>  <REMARK>
 VINA RESULT:      -7.8      1.081      1.365
  Name = 
  2 active torsions:
  status: ('A' for Active; 'I' for Inactive)
    1  A    between atoms: C_18  and  N_21
    2  A    between atoms: N_21  and  C_23
                            x       y       z     vdW  Elec       q    Type
                         _______ _______ _______ _____ _____    ______ ____

>  <TORSDO>
F 2

$$$$
