=
 OpenBabel11042411363D

 35 39  0  0  1  0  0  0  0  0999 V2000
  185.8430  178.4860  139.7570 N   0  0  0  0  0  0  0  0  0  0  0  0
  185.1440  178.5060  140.9280 C   0  0  0  0  0  0  0  0  0  0  0  0
  187.2380  178.3090  142.1240 C   0  0  0  0  0  3  0  0  0  0  0  0
  185.1250  178.4520  143.3850 C   0  0  0  0  0  0  0  0  0  0  0  0
  183.7340  178.6180  143.3430 C   0  0  0  0  0  3  0  0  0  0  0  0
  187.9190  178.2840  140.9090 C   0  0  0  0  0  3  0  0  0  0  0  0
  183.0540  178.7150  142.1320 C   0  0  0  0  0  3  0  0  0  0  0  0
  183.7410  178.6550  140.9160 C   0  0  0  0  0  0  0  0  0  0  0  0
  185.8400  178.4080  142.1620 C   0  0  0  0  0  0  0  0  0  0  0  0
  187.1970  178.3590  139.7190 C   0  0  0  0  0  0  0  0  0  0  0  0
  180.8340  179.0580  136.0080 N   0  0  0  0  0  1  0  0  0  0  0  0
  182.5560  177.5700  138.9560 C   0  0  0  0  0  0  0  0  0  0  0  0
  182.8130  176.2700  139.4770 N   0  0  0  0  0  1  0  0  0  0  0  0
  182.6650  179.9900  139.1080 C   0  0  0  0  0  3  0  0  0  0  0  0
  181.8490  177.6890  137.7550 C   0  0  0  0  0  3  0  0  0  0  0  0
  181.9600  180.0990  137.9080 C   0  0  0  0  0  3  0  0  0  0  0  0
  182.9710  178.7300  139.6490 C   0  0  0  0  0  0  0  0  0  0  0  0
  181.5530  178.9480  137.2300 C   0  0  0  0  0  0  0  0  0  0  0  0
  185.7690  178.7160  147.1270 C   0  0  0  0  0  3  0  0  0  0  0  0
  185.7730  178.3370  144.7210 C   0  0  0  0  0  0  0  0  0  0  0  0
  187.0480  178.1650  147.2220 C   0  0  0  0  0  3  0  0  0  0  0  0
  187.0640  177.7960  144.8300 C   0  0  0  0  0  3  0  0  0  0  0  0
  185.1380  178.8050  145.8840 C   0  0  0  0  0  3  0  0  0  0  0  0
  187.7030  177.7060  146.0710 C   0  0  0  0  0  0  0  0  0  0  0  0
  189.9410  177.7710  145.2820 O   0  0  0  0  0  1  0  0  0  0  0  0
  189.0710  177.1080  146.1480 C   0  0  1  0  0  3  0  0  0  0  0  0
  189.6070  177.1710  147.5660 C   0  0  0  0  0  1  0  0  0  0  0  0
  187.0310  177.8230  137.3020 C   0  0  0  0  0  2  0  0  0  0  0  0
  187.9160  178.3730  138.4060 C   0  0  2  0  0  3  0  0  0  0  0  0
  188.1060  176.9500  137.9090 C   0  0  2  0  0  3  0  0  0  0  0  0
  189.2520  176.9080  137.0180 N   0  0  0  0  0  2  0  0  0  0  0  0
  189.8320  175.6400  137.1620 N   0  0  0  0  0  0  0  0  0  0  0  0
  188.8180  174.7430  137.1280 O   0  0  0  0  0  1  0  0  0  0  0  0
  191.6590  176.0690  138.2680 C   0  0  0  0  0  1  0  0  0  0  0  0
  190.3560  175.5900  138.4100 O   0  0  0  0  0  0  0  0  0  0  0  0
  1  2  1  0  0  0  0
  2  9  1  0  0  0  0
  3  9  1  0  0  0  0
  4 20  1  0  0  0  0
  5  4  1  0  0  0  0
  6  3  2  0  0  0  0
  7  5  2  0  0  0  0
  8  2  2  0  0  0  0
  8  7  1  0  0  0  0
  9  4  2  0  0  0  0
 10  1  2  0  0  0  0
 10  6  1  0  0  0  0
 11 18  1  0  0  0  0
 12 13  1  0  0  0  0
 12 17  1  0  0  0  0
 14 17  2  0  0  0  0
 15 12  2  0  0  0  0
 16 14  1  0  0  0  0
 17  8  1  0  0  0  0
 18 15  1  0  0  0  0
 18 16  2  0  0  0  0
 19 21  1  0  0  0  0
 20 22  2  0  0  0  0
 20 23  1  0  0  0  0
 22 24  1  0  0  0  0
 23 19  2  0  0  0  0
 24 26  1  0  0  0  0
 24 21  2  0  0  0  0
 25 26  1  0  0  0  0
 26 27  1  1  0  0  0
 28 30  1  0  0  0  0
 28 29  1  0  0  0  0
 29 10  1  1  0  0  0
 30 31  1  6  0  0  0
 30 29  1  0  0  0  0
 31 32  1  0  0  0  0
 32 35  1  0  0  0  0
 33 32  1  0  0  0  0
 34 35  1  0  0  0  0
M  END
>  <MODEL>
1

>  <REMARK>
 VINA RESULT:      -9.2      0.000      0.000
  Name = 
  7 active torsions:
  status: ('A' for Active; 'I' for Inactive)
    1  A    between atoms: C_8  and  C_33
    2  A    between atoms: C_10  and  C_11
    3  A    between atoms: C_13  and  C_32
    4  A    between atoms: N_22  and  O_28
    5  A    between atoms: N_22  and  N_34
    6  A    between atoms: C_23  and  C_31
    7  A    between atoms: C_27  and  N_34
                            x       y       z     vdW  Elec       q    Type
                         _______ _______ _______ _____ _____    ______ ____

>  <TORSDO>
F 7

$$$$
=
 OpenBabel11042411363D

 35 39  0  0  1  0  0  0  0  0999 V2000
  186.9240  178.4360  140.9040 N   0  0  0  0  0  0  0  0  0  0  0  0
  186.4210  178.3600  142.1690 C   0  0  0  0  0  0  0  0  0  0  0  0
  188.6670  177.9860  142.9870 C   0  0  0  0  0  3  0  0  0  0  0  0
  186.7890  178.0650  144.5810 C   0  0  0  0  0  0  0  0  0  0  0  0
  185.4170  178.2730  144.7800 C   0  0  0  0  0  3  0  0  0  0  0  0
  189.1460  178.0620  141.6810 C   0  0  0  0  0  3  0  0  0  0  0  0
  184.5590  178.5080  143.7100 C   0  0  0  0  0  3  0  0  0  0  0  0
  185.0410  178.5500  142.3980 C   0  0  0  0  0  0  0  0  0  0  0  0
  187.2980  178.1210  143.2590 C   0  0  0  0  0  0  0  0  0  0  0  0
  188.2470  178.2750  140.6350 C   0  0  0  0  0  0  0  0  0  0  0  0
  181.4400  179.3500  138.0290 N   0  0  0  0  0  1  0  0  0  0  0  0
  182.6860  178.7800  141.4920 C   0  0  0  0  0  0  0  0  0  0  0  0
  182.1330  178.6310  142.7960 N   0  0  0  0  0  1  0  0  0  0  0  0
  184.5790  178.9550  139.9840 C   0  0  0  0  0  3  0  0  0  0  0  0
  181.8210  178.9740  140.4100 C   0  0  0  0  0  3  0  0  0  0  0  0
  183.7080  179.1460  138.9090 C   0  0  0  0  0  3  0  0  0  0  0  0
  184.0850  178.7720  141.2850 C   0  0  0  0  0  0  0  0  0  0  0  0
  182.3280  179.1540  139.1230 C   0  0  0  0  0  0  0  0  0  0  0  0
  187.9310  177.7030  148.1930 C   0  0  0  0  0  3  0  0  0  0  0  0
  187.6340  177.8000  145.7780 C   0  0  0  0  0  0  0  0  0  0  0  0
  189.2720  177.3560  148.0200 C   0  0  0  0  0  3  0  0  0  0  0  0
  188.9880  177.4620  145.6190 C   0  0  0  0  0  3  0  0  0  0  0  0
  187.1190  177.9280  147.0790 C   0  0  0  0  0  3  0  0  0  0  0  0
  189.8080  177.2390  146.7310 C   0  0  0  0  0  0  0  0  0  0  0  0
  191.5820  175.7780  147.3270 O   0  0  0  0  0  1  0  0  0  0  0  0
  191.2390  176.8640  146.5200 C   0  0  1  0  0  3  0  0  0  0  0  0
  191.4970  176.5250  145.0640 C   0  0  0  0  0  1  0  0  0  0  0  0
  187.6910  177.9510  138.2400 C   0  0  0  0  0  2  0  0  0  0  0  0
  188.7500  178.3980  139.2310 C   0  0  2  0  0  3  0  0  0  0  0  0
  188.8300  177.0220  138.5910 C   0  0  2  0  0  3  0  0  0  0  0  0
  189.8190  177.0500  137.5280 N   0  0  0  0  0  2  0  0  0  0  0  0
  190.4970  175.8240  137.5710 N   0  0  0  0  0  0  0  0  0  0  0  0
  190.7770  175.5810  138.8740 O   0  0  0  0  0  1  0  0  0  0  0  0
  192.5740  176.3480  137.9650 C   0  0  0  0  0  1  0  0  0  0  0  0
  191.6830  176.0110  136.9450 O   0  0  0  0  0  0  0  0  0  0  0  0
  1  2  1  0  0  0  0
  2  8  2  0  0  0  0
  2  9  1  0  0  0  0
  3  9  1  0  0  0  0
  4  5  1  0  0  0  0
  4 20  1  0  0  0  0
  6  3  2  0  0  0  0
  7  5  2  0  0  0  0
  8  7  1  0  0  0  0
  9  4  2  0  0  0  0
 10  1  2  0  0  0  0
 10  6  1  0  0  0  0
 11 18  1  0  0  0  0
 12 13  1  0  0  0  0
 14 17  2  0  0  0  0
 15 12  2  0  0  0  0
 16 18  2  0  0  0  0
 16 14  1  0  0  0  0
 17 12  1  0  0  0  0
 17  8  1  0  0  0  0
 18 15  1  0  0  0  0
 20 23  1  0  0  0  0
 21 19  1  0  0  0  0
 22 20  2  0  0  0  0
 22 24  1  0  0  0  0
 23 19  2  0  0  0  0
 24 21  2  0  0  0  0
 26 27  1  6  0  0  0
 26 24  1  0  0  0  0
 26 25  1  0  0  0  0
 28 30  1  0  0  0  0
 28 29  1  0  0  0  0
 29 10  1  1  0  0  0
 30 31  1  6  0  0  0
 30 29  1  0  0  0  0
 31 32  1  0  0  0  0
 32 33  1  0  0  0  0
 35 32  1  0  0  0  0
 35 34  1  0  0  0  0
M  END
>  <MODEL>
2

>  <REMARK>
 VINA RESULT:      -9.0      1.452      2.192
  Name = 
  7 active torsions:
  status: ('A' for Active; 'I' for Inactive)
    1  A    between atoms: C_8  and  C_33
    2  A    between atoms: C_10  and  C_11
    3  A    between atoms: C_13  and  C_32
    4  A    between atoms: N_22  and  O_28
    5  A    between atoms: N_22  and  N_34
    6  A    between atoms: C_23  and  C_31
    7  A    between atoms: C_27  and  N_34
                            x       y       z     vdW  Elec       q    Type
                         _______ _______ _______ _____ _____    ______ ____

>  <TORSDO>
F 7

$$$$
=
 OpenBabel11042411363D

 35 39  0  0  1  0  0  0  0  0999 V2000
  188.4580  177.8240  142.7460 N   0  0  0  0  0  0  0  0  0  0  0  0
  187.3350  177.9090  143.5150 C   0  0  0  0  0  0  0  0  0  0  0  0
  186.0690  178.4390  141.5220 C   0  0  0  0  0  3  0  0  0  0  0  0
  184.9140  178.2980  143.6950 C   0  0  0  0  0  0  0  0  0  0  0  0
  185.0070  178.0150  145.0640 C   0  0  0  0  0  3  0  0  0  0  0  0
  187.2370  178.3520  140.7670 C   0  0  0  0  0  3  0  0  0  0  0  0
  186.2260  177.6970  145.6560 C   0  0  0  0  0  3  0  0  0  0  0  0
  187.4000  177.6450  144.8990 C   0  0  0  0  0  0  0  0  0  0  0  0
  186.0920  178.2320  142.9080 C   0  0  0  0  0  0  0  0  0  0  0  0
  188.4420  178.0550  141.4050 C   0  0  0  0  0  0  0  0  0  0  0  0
  192.4040  176.4800  147.4100 N   0  0  0  0  0  1  0  0  0  0  0  0
  188.8390  177.4670  146.9770 C   0  0  0  0  0  0  0  0  0  0  0  0
  187.7480  177.8550  147.8070 N   0  0  0  0  0  1  0  0  0  0  0  0
  189.7810  176.9180  144.8100 C   0  0  0  0  0  3  0  0  0  0  0  0
  190.0710  177.1810  147.5730 C   0  0  0  0  0  3  0  0  0  0  0  0
  191.0080  176.6360  145.4130 C   0  0  0  0  0  3  0  0  0  0  0  0
  188.6820  177.3340  145.5790 C   0  0  0  0  0  0  0  0  0  0  0  0
  191.1540  176.7690  146.7950 C   0  0  0  0  0  0  0  0  0  0  0  0
  181.2340  179.2390  143.4580 C   0  0  0  0  0  3  0  0  0  0  0  0
  183.5760  178.6480  143.1440 C   0  0  0  0  0  0  0  0  0  0  0  0
  181.0430  179.2430  142.0760 C   0  0  0  0  0  3  0  0  0  0  0  0
  183.3660  178.6440  141.7550 C   0  0  0  0  0  3  0  0  0  0  0  0
  182.4920  178.9390  143.9890 C   0  0  0  0  0  3  0  0  0  0  0  0
  182.1090  178.9400  141.2180 C   0  0  0  0  0  0  0  0  0  0  0  0
  180.8030  179.6850  139.3800 O   0  0  0  0  0  1  0  0  0  0  0  0
  181.9310  178.9430  139.7340 C   0  0  1  0  0  3  0  0  0  0  0  0
  183.1580  179.5110  139.0450 C   0  0  0  0  0  1  0  0  0  0  0  0
  189.4280  178.1760  139.1330 C   0  0  0  0  0  2  0  0  0  0  0  0
  189.6990  177.9190  140.6040 C   0  0  2  0  0  3  0  0  0  0  0  0
  189.5670  176.7570  139.6340 C   0  0  2  0  0  3  0  0  0  0  0  0
  190.8910  176.2590  139.3090 N   0  0  0  0  0  2  0  0  0  0  0  0
  190.8310  175.7760  137.9930 N   0  0  0  0  0  0  0  0  0  0  0  0
  191.1710  174.4660  138.0450 O   0  0  0  0  0  1  0  0  0  0  0  0
  192.8930  176.4520  138.1810 C   0  0  0  0  0  1  0  0  0  0  0  0
  191.8110  176.4060  137.3020 O   0  0  0  0  0  0  0  0  0  0  0  0
  1  2  1  0  0  0  0
  2  8  1  0  0  0  0
  3  9  1  0  0  0  0
  4  5  2  0  0  0  0
  5  7  1  0  0  0  0
  6 10  1  0  0  0  0
  6  3  2  0  0  0  0
  8 17  1  0  0  0  0
  8  7  2  0  0  0  0
  9  2  2  0  0  0  0
  9  4  1  0  0  0  0
 10  1  2  0  0  0  0
 12 15  1  0  0  0  0
 12 13  1  0  0  0  0
 14 16  2  0  0  0  0
 14 17  1  0  0  0  0
 16 18  1  0  0  0  0
 17 12  2  0  0  0  0
 18 11  1  0  0  0  0
 18 15  2  0  0  0  0
 19 23  1  0  0  0  0
 20  4  1  0  0  0  0
 20 23  2  0  0  0  0
 21 19  2  0  0  0  0
 22 20  1  0  0  0  0
 24 22  2  0  0  0  0
 24 21  1  0  0  0  0
 25 26  1  0  0  0  0
 26 27  1  6  0  0  0
 26 24  1  0  0  0  0
 28 30  1  0  0  0  0
 28 29  1  0  0  0  0
 29 10  1  1  0  0  0
 30 31  1  6  0  0  0
 30 29  1  0  0  0  0
 32 33  1  0  0  0  0
 32 31  1  0  0  0  0
 35 32  1  0  0  0  0
 35 34  1  0  0  0  0
M  END
>  <MODEL>
3

>  <REMARK>
 VINA RESULT:      -8.9      3.139      7.188
  Name = 
  7 active torsions:
  status: ('A' for Active; 'I' for Inactive)
    1  A    between atoms: C_8  and  C_33
    2  A    between atoms: C_10  and  C_11
    3  A    between atoms: C_13  and  C_32
    4  A    between atoms: N_22  and  O_28
    5  A    between atoms: N_22  and  N_34
    6  A    between atoms: C_23  and  C_31
    7  A    between atoms: C_27  and  N_34
                            x       y       z     vdW  Elec       q    Type
                         _______ _______ _______ _____ _____    ______ ____

>  <TORSDO>
F 7

$$$$
=
 OpenBabel11042411363D

 35 39  0  0  1  0  0  0  0  0999 V2000
  187.3040  178.1980  140.5920 N   0  0  0  0  0  0  0  0  0  0  0  0
  188.4840  177.7660  141.1210 C   0  0  0  0  0  0  0  0  0  0  0  0
  187.5270  178.0100  143.3290 C   0  0  0  0  0  3  0  0  0  0  0  0
  189.8410  177.1960  143.0890 C   0  0  0  0  0  0  0  0  0  0  0  0
  190.8730  176.8120  142.2220 C   0  0  0  0  0  3  0  0  0  0  0  0
  186.3380  178.4550  142.7560 C   0  0  0  0  0  3  0  0  0  0  0  0
  190.7300  176.9080  140.8410 C   0  0  0  0  0  3  0  0  0  0  0  0
  189.5470  177.3880  140.2730 C   0  0  0  0  0  0  0  0  0  0  0  0
  188.6270  177.6680  142.5300 C   0  0  0  0  0  0  0  0  0  0  0  0
  186.2460  178.5600  141.3680 C   0  0  0  0  0  0  0  0  0  0  0  0
  189.1950  177.9620  134.5940 N   0  0  0  0  0  1  0  0  0  0  0  0
  189.8720  176.4630  137.9360 C   0  0  0  0  0  0  0  0  0  0  0  0
  190.3560  175.2280  138.4550 N   0  0  0  0  0  1  0  0  0  0  0  0
  188.9520  178.6890  138.2330 C   0  0  0  0  0  3  0  0  0  0  0  0
  189.7810  176.6240  136.5500 C   0  0  0  0  0  3  0  0  0  0  0  0
  188.8670  178.8410  136.8480 C   0  0  0  0  0  3  0  0  0  0  0  0
  189.4510  177.5030  138.7960 C   0  0  0  0  0  0  0  0  0  0  0  0
  189.2830  177.8080  136.0060 C   0  0  0  0  0  0  0  0  0  0  0  0
  191.5550  176.6190  146.4370 C   0  0  0  0  0  3  0  0  0  0  0  0
  190.0820  177.0800  144.5540 C   0  0  0  0  0  0  0  0  0  0  0  0
  190.4920  176.8050  147.3220 C   0  0  0  0  0  3  0  0  0  0  0  0
  189.0180  177.2520  145.4550 C   0  0  0  0  0  3  0  0  0  0  0  0
  191.3500  176.7510  145.0620 C   0  0  0  0  0  3  0  0  0  0  0  0
  189.2160  177.1180  146.8340 C   0  0  0  0  0  0  0  0  0  0  0  0
  188.4670  178.0480  148.8850 O   0  0  0  0  0  1  0  0  0  0  0  0
  188.0630  177.3260  147.7610 C   0  0  1  0  0  3  0  0  0  0  0  0
  186.9330  178.0550  147.0590 C   0  0  0  0  0  1  0  0  0  0  0  0
  183.7800  178.6470  141.6160 C   0  0  0  0  0  2  0  0  0  0  0  0
  184.9640  178.9990  140.7340 C   0  0  2  0  0  3  0  0  0  0  0  0
  184.1050  177.7850  140.4180 C   0  0  2  0  0  3  0  0  0  0  0  0
  183.2020  178.1150  139.3300 N   0  0  0  0  0  2  0  0  0  0  0  0
  182.9060  176.9140  138.6700 N   0  0  0  0  0  0  0  0  0  0  0  0
  182.7000  175.9830  139.6310 O   0  0  0  0  0  1  0  0  0  0  0  0
  183.8720  177.0790  136.7250 C   0  0  0  0  0  1  0  0  0  0  0  0
  184.0280  176.5470  138.0050 O   0  0  0  0  0  0  0  0  0  0  0  0
  1  2  2  0  0  0  0
  1 10  1  0  0  0  0
  2  9  1  0  0  0  0
  4 20  1  0  0  0  0
  5  4  2  0  0  0  0
  6  3  1  0  0  0  0
  7  5  1  0  0  0  0
  8  7  2  0  0  0  0
  8  2  1  0  0  0  0
  9  4  1  0  0  0  0
  9  3  2  0  0  0  0
 10  6  2  0  0  0  0
 11 18  1  0  0  0  0
 12 13  1  0  0  0  0
 12 17  1  0  0  0  0
 14 17  2  0  0  0  0
 15 12  2  0  0  0  0
 16 14  1  0  0  0  0
 17  8  1  0  0  0  0
 18 15  1  0  0  0  0
 18 16  2  0  0  0  0
 19 21  1  0  0  0  0
 20 23  1  0  0  0  0
 20 22  2  0  0  0  0
 22 24  1  0  0  0  0
 23 19  2  0  0  0  0
 24 21  2  0  0  0  0
 24 26  1  0  0  0  0
 26 27  1  6  0  0  0
 26 25  1  0  0  0  0
 29 10  1  1  0  0  0
 29 28  1  0  0  0  0
 30 31  1  6  0  0  0
 30 29  1  0  0  0  0
 30 28  1  0  0  0  0
 32 31  1  0  0  0  0
 32 33  1  0  0  0  0
 34 35  1  0  0  0  0
 35 32  1  0  0  0  0
M  END
>  <MODEL>
4

>  <REMARK>
 VINA RESULT:      -8.7      2.377      5.681
  Name = 
  7 active torsions:
  status: ('A' for Active; 'I' for Inactive)
    1  A    between atoms: C_8  and  C_33
    2  A    between atoms: C_10  and  C_11
    3  A    between atoms: C_13  and  C_32
    4  A    between atoms: N_22  and  O_28
    5  A    between atoms: N_22  and  N_34
    6  A    between atoms: C_23  and  C_31
    7  A    between atoms: C_27  and  N_34
                            x       y       z     vdW  Elec       q    Type
                         _______ _______ _______ _____ _____    ______ ____

>  <TORSDO>
F 7

$$$$
=
 OpenBabel11042411363D

 35 39  0  0  1  0  0  0  0  0999 V2000
  186.7790  178.5140  142.7220 N   0  0  0  0  0  0  0  0  0  0  0  0
  185.5590  178.5640  143.3310 C   0  0  0  0  0  0  0  0  0  0  0  0
  184.5550  178.9980  141.1730 C   0  0  0  0  0  3  0  0  0  0  0  0
  183.1230  178.8500  143.1740 C   0  0  0  0  0  0  0  0  0  0  0  0
  183.0410  178.5990  144.5500 C   0  0  0  0  0  3  0  0  0  0  0  0
  185.8170  178.9480  140.5850 C   0  0  0  0  0  3  0  0  0  0  0  0
  184.1800  178.3470  145.3080 C   0  0  0  0  0  3  0  0  0  0  0  0
  185.4470  178.3310  144.7180 C   0  0  0  0  0  0  0  0  0  0  0  0
  184.3980  178.8200  142.5540 C   0  0  0  0  0  0  0  0  0  0  0  0
  186.9360  178.7170  141.3860 C   0  0  0  0  0  0  0  0  0  0  0  0
  190.1050  177.3940  147.9000 N   0  0  0  0  0  1  0  0  0  0  0  0
  186.7440  178.6270  146.8750 C   0  0  0  0  0  0  0  0  0  0  0  0
  185.6810  179.3800  147.4510 N   0  0  0  0  0  1  0  0  0  0  0  0
  187.7010  177.3280  145.0630 C   0  0  0  0  0  3  0  0  0  0  0  0
  187.8920  178.3900  147.6370 C   0  0  0  0  0  3  0  0  0  0  0  0
  188.8450  177.0970  145.8300 C   0  0  0  0  0  3  0  0  0  0  0  0
  186.6370  178.0900  145.5720 C   0  0  0  0  0  0  0  0  0  0  0  0
  188.9410  177.6300  147.1170 C   0  0  0  0  0  0  0  0  0  0  0  0
  179.5790  179.9840  142.3770 C   0  0  0  0  0  3  0  0  0  0  0  0
  181.8590  179.1300  142.4390 C   0  0  0  0  0  0  0  0  0  0  0  0
  179.4600  179.5870  141.0450 C   0  0  0  0  0  3  0  0  0  0  0  0
  181.7200  178.7250  141.1010 C   0  0  0  0  0  3  0  0  0  0  0  0
  180.7690  179.7530  143.0710 C   0  0  0  0  0  3  0  0  0  0  0  0
  180.5300  178.9510  140.4020 C   0  0  0  0  0  0  0  0  0  0  0  0
  179.6020  179.3910  138.2610 O   0  0  0  0  0  1  0  0  0  0  0  0
  180.4280  178.5210  138.9740 C   0  0  1  0  0  3  0  0  0  0  0  0
  181.8010  178.4690  138.3290 C   0  0  0  0  0  1  0  0  0  0  0  0
  188.3290  177.5220  139.7190 C   0  0  0  0  0  2  0  0  0  0  0  0
  188.2940  178.6210  140.7650 C   0  0  2  0  0  3  0  0  0  0  0  0
  188.9130  177.2720  141.0900 C   0  0  2  0  0  3  0  0  0  0  0  0
  190.3590  177.3860  141.0260 N   0  0  0  0  0  2  0  0  0  0  0  0
  190.8520  177.0220  142.2870 N   0  0  0  0  0  0  0  0  0  0  0  0
  190.1500  175.9320  142.6770 O   0  0  0  0  0  1  0  0  0  0  0  0
  191.6810  178.2510  143.8830 C   0  0  0  0  0  1  0  0  0  0  0  0
  190.5230  178.0240  143.1380 O   0  0  0  0  0  0  0  0  0  0  0  0
  1  2  1  0  0  0  0
  2  8  1  0  0  0  0
  3  9  1  0  0  0  0
  4  5  2  0  0  0  0
  5  7  1  0  0  0  0
  6  3  2  0  0  0  0
  6 10  1  0  0  0  0
  8  7  2  0  0  0  0
  8 17  1  0  0  0  0
  9  4  1  0  0  0  0
  9  2  2  0  0  0  0
 10  1  2  0  0  0  0
 12 13  1  0  0  0  0
 12 15  1  0  0  0  0
 14 17  1  0  0  0  0
 14 16  2  0  0  0  0
 16 18  1  0  0  0  0
 17 12  2  0  0  0  0
 18 15  2  0  0  0  0
 18 11  1  0  0  0  0
 19 23  1  0  0  0  0
 20 23  2  0  0  0  0
 20  4  1  0  0  0  0
 21 19  2  0  0  0  0
 22 20  1  0  0  0  0
 24 21  1  0  0  0  0
 24 22  2  0  0  0  0
 25 26  1  0  0  0  0
 26 27  1  6  0  0  0
 26 24  1  0  0  0  0
 28 29  1  0  0  0  0
 28 30  1  0  0  0  0
 29 30  1  0  0  0  0
 29 10  1  1  0  0  0
 30 31  1  6  0  0  0
 31 32  1  0  0  0  0
 32 33  1  0  0  0  0
 32 35  1  0  0  0  0
 35 34  1  0  0  0  0
M  END
>  <MODEL>
5

>  <REMARK>
 VINA RESULT:      -8.7      3.403      7.425
  Name = 
  7 active torsions:
  status: ('A' for Active; 'I' for Inactive)
    1  A    between atoms: C_8  and  C_33
    2  A    between atoms: C_10  and  C_11
    3  A    between atoms: C_13  and  C_32
    4  A    between atoms: N_22  and  O_28
    5  A    between atoms: N_22  and  N_34
    6  A    between atoms: C_23  and  C_31
    7  A    between atoms: C_27  and  N_34
                            x       y       z     vdW  Elec       q    Type
                         _______ _______ _______ _____ _____    ______ ____

>  <TORSDO>
F 7

$$$$
=
 OpenBabel11042411363D

 35 39  0  0  1  0  0  0  0  0999 V2000
  186.9680  178.3200  140.7320 N   0  0  0  0  0  0  0  0  0  0  0  0
  186.5180  178.2740  142.0180 C   0  0  0  0  0  0  0  0  0  0  0  0
  188.7780  177.7960  142.7400 C   0  0  0  0  0  3  0  0  0  0  0  0
  186.9780  177.9730  144.4140 C   0  0  0  0  0  0  0  0  0  0  0  0
  185.6280  178.2480  144.6710 C   0  0  0  0  0  3  0  0  0  0  0  0
  189.2020  177.8430  141.4130 C   0  0  0  0  0  3  0  0  0  0  0  0
  184.7360  178.5200  143.6380 C   0  0  0  0  0  3  0  0  0  0  0  0
  185.1610  178.5310  142.3060 C   0  0  0  0  0  0  0  0  0  0  0  0
  187.4310  177.9980  143.0710 C   0  0  0  0  0  0  0  0  0  0  0  0
  188.2690  178.0940  140.4060 C   0  0  0  0  0  0  0  0  0  0  0  0
  181.4160  179.4900  138.0920 N   0  0  0  0  0  1  0  0  0  0  0  0
  182.7780  178.8090  141.4910 C   0  0  0  0  0  0  0  0  0  0  0  0
  182.2700  178.6270  142.8090 N   0  0  0  0  0  1  0  0  0  0  0  0
  184.6180  179.0100  139.9220 C   0  0  0  0  0  3  0  0  0  0  0  0
  181.8770  179.0410  140.4470 C   0  0  0  0  0  3  0  0  0  0  0  0
  183.7120  179.2400  138.8850 C   0  0  0  0  0  3  0  0  0  0  0  0
  184.1680  178.7940  141.2350 C   0  0  0  0  0  0  0  0  0  0  0  0
  182.3400  179.2540  139.1480 C   0  0  0  0  0  0  0  0  0  0  0  0
  188.2300  177.4830  147.9740 C   0  0  0  0  0  3  0  0  0  0  0  0
  187.8610  177.6730  145.5740 C   0  0  0  0  0  0  0  0  0  0  0  0
  189.5700  177.1650  147.7490 C   0  0  0  0  0  3  0  0  0  0  0  0
  189.2150  177.3640  145.3630 C   0  0  0  0  0  3  0  0  0  0  0  0
  187.3830  177.7400  146.8930 C   0  0  0  0  0  3  0  0  0  0  0  0
  190.0700  177.1090  146.4410 C   0  0  0  0  0  0  0  0  0  0  0  0
  191.9350  175.7750  147.0550 O   0  0  0  0  0  1  0  0  0  0  0  0
  191.5000  176.7660  146.1740 C   0  0  1  0  0  3  0  0  0  0  0  0
  191.6830  176.2990  144.7420 C   0  0  0  0  0  1  0  0  0  0  0  0
  187.5190  178.2430  138.0460 C   0  0  0  0  0  2  0  0  0  0  0  0
  188.7150  178.1860  138.9800 C   0  0  2  0  0  3  0  0  0  0  0  0
  188.2730  176.9440  138.2230 C   0  0  2  0  0  3  0  0  0  0  0  0
  189.1560  176.7430  137.0880 N   0  0  0  0  0  2  0  0  0  0  0  0
  189.0650  175.3890  136.7380 N   0  0  0  0  0  0  0  0  0  0  0  0
  188.9810  175.3420  135.3870 O   0  0  0  0  0  1  0  0  0  0  0  0
  187.6520  173.7430  136.5390 C   0  0  0  0  0  1  0  0  0  0  0  0
  187.8810  174.9400  137.2190 O   0  0  0  0  0  0  0  0  0  0  0  0
  1  2  1  0  0  0  0
  2  8  2  0  0  0  0
  2  9  1  0  0  0  0
  3  9  1  0  0  0  0
  4  5  1  0  0  0  0
  4 20  1  0  0  0  0
  6  3  2  0  0  0  0
  7  5  2  0  0  0  0
  8  7  1  0  0  0  0
  9  4  2  0  0  0  0
 10  1  2  0  0  0  0
 10  6  1  0  0  0  0
 11 18  1  0  0  0  0
 12 13  1  0  0  0  0
 14 17  2  0  0  0  0
 15 12  2  0  0  0  0
 16 18  2  0  0  0  0
 16 14  1  0  0  0  0
 17 12  1  0  0  0  0
 17  8  1  0  0  0  0
 18 15  1  0  0  0  0
 20 23  1  0  0  0  0
 21 19  1  0  0  0  0
 22 20  2  0  0  0  0
 22 24  1  0  0  0  0
 23 19  2  0  0  0  0
 24 21  2  0  0  0  0
 26 27  1  6  0  0  0
 26 24  1  0  0  0  0
 26 25  1  0  0  0  0
 28 30  1  0  0  0  0
 28 29  1  0  0  0  0
 29 10  1  1  0  0  0
 30 31  1  6  0  0  0
 30 29  1  0  0  0  0
 32 31  1  0  0  0  0
 32 35  1  0  0  0  0
 33 32  1  0  0  0  0
 34 35  1  0  0  0  0
M  END
>  <MODEL>
6

>  <REMARK>
 VINA RESULT:      -8.4      1.588      2.398
  Name = 
  7 active torsions:
  status: ('A' for Active; 'I' for Inactive)
    1  A    between atoms: C_8  and  C_33
    2  A    between atoms: C_10  and  C_11
    3  A    between atoms: C_13  and  C_32
    4  A    between atoms: N_22  and  O_28
    5  A    between atoms: N_22  and  N_34
    6  A    between atoms: C_23  and  C_31
    7  A    between atoms: C_27  and  N_34
                            x       y       z     vdW  Elec       q    Type
                         _______ _______ _______ _____ _____    ______ ____

>  <TORSDO>
F 7

$$$$
=
 OpenBabel11042411363D

 35 39  0  0  1  0  0  0  0  0999 V2000
  188.4480  177.6860  139.5510 N   0  0  0  0  0  0  0  0  0  0  0  0
  189.1220  177.3420  140.6850 C   0  0  0  0  0  0  0  0  0  0  0  0
  187.2650  178.1870  141.9860 C   0  0  0  0  0  3  0  0  0  0  0  0
  189.2180  177.2220  143.1390 C   0  0  0  0  0  0  0  0  0  0  0  0
  190.4570  176.5780  143.0230 C   0  0  0  0  0  3  0  0  0  0  0  0
  186.6080  178.5330  140.8070 C   0  0  0  0  0  3  0  0  0  0  0  0
  191.0290  176.3280  141.7790 C   0  0  0  0  0  3  0  0  0  0  0  0
  190.3790  176.7070  140.6000 C   0  0  0  0  0  0  0  0  0  0  0  0
  188.5370  177.5980  141.9540 C   0  0  0  0  0  0  0  0  0  0  0  0
  187.2280  178.2860  139.5820 C   0  0  0  0  0  0  0  0  0  0  0  0
  192.8120  175.7180  135.5210 N   0  0  0  0  0  1  0  0  0  0  0  0
  192.3720  176.8510  139.0410 C   0  0  0  0  0  0  0  0  0  0  0  0
  193.1590  177.4760  140.0500 N   0  0  0  0  0  1  0  0  0  0  0  0
  190.3180  175.8070  138.2780 C   0  0  0  0  0  3  0  0  0  0  0  0
  192.9480  176.6030  137.7920 C   0  0  0  0  0  3  0  0  0  0  0  0
  190.9020  175.5650  137.0330 C   0  0  0  0  0  3  0  0  0  0  0  0
  191.0410  176.4480  139.2970 C   0  0  0  0  0  0  0  0  0  0  0  0
  192.2170  175.9650  136.7890 C   0  0  0  0  0  0  0  0  0  0  0  0
  188.9980  177.6030  146.9190 C   0  0  0  0  0  3  0  0  0  0  0  0
  188.6870  177.4700  144.5070 C   0  0  0  0  0  0  0  0  0  0  0  0
  187.6410  177.8800  147.0850 C   0  0  0  0  0  3  0  0  0  0  0  0
  187.3200  177.7370  144.6910 C   0  0  0  0  0  3  0  0  0  0  0  0
  189.5170  177.3950  145.6380 C   0  0  0  0  0  3  0  0  0  0  0  0
  186.7940  177.9430  145.9700 C   0  0  0  0  0  0  0  0  0  0  0  0
  185.1400  179.2130  147.1060 O   0  0  0  0  0  1  0  0  0  0  0  0
  185.3370  178.2430  146.1230 C   0  0  1  0  0  3  0  0  0  0  0  0
  184.7450  178.7140  144.8080 C   0  0  0  0  0  1  0  0  0  0  0  0
  185.0180  178.4510  138.4670 C   0  0  0  0  0  2  0  0  0  0  0  0
  186.5190  178.6140  138.3050 C   0  0  2  0  0  3  0  0  0  0  0  0
  185.8200  177.3750  137.7720 C   0  0  2  0  0  3  0  0  0  0  0  0
  185.6560  177.5050  136.3350 N   0  0  0  0  0  2  0  0  0  0  0  0
  185.9730  176.2590  135.7750 N   0  0  0  0  0  0  0  0  0  0  0  0
  186.8750  175.6800  136.6030 O   0  0  0  0  0  1  0  0  0  0  0  0
  187.9510  176.1890  134.8650 C   0  0  0  0  0  1  0  0  0  0  0  0
  186.6160  176.5070  134.6090 O   0  0  0  0  0  0  0  0  0  0  0  0
  1 10  2  0  0  0  0
  1  2  1  0  0  0  0
  2  9  1  0  0  0  0
  4 20  1  0  0  0  0
  5  4  1  0  0  0  0
  6  3  2  0  0  0  0
  7  5  2  0  0  0  0
  8  2  2  0  0  0  0
  8  7  1  0  0  0  0
  9  3  1  0  0  0  0
  9  4  2  0  0  0  0
 10  6  1  0  0  0  0
 11 18  1  0  0  0  0
 12 17  1  0  0  0  0
 12 13  1  0  0  0  0
 14 17  2  0  0  0  0
 15 12  2  0  0  0  0
 16 14  1  0  0  0  0
 17  8  1  0  0  0  0
 18 16  2  0  0  0  0
 18 15  1  0  0  0  0
 19 21  1  0  0  0  0
 20 22  2  0  0  0  0
 20 23  1  0  0  0  0
 22 24  1  0  0  0  0
 23 19  2  0  0  0  0
 24 26  1  0  0  0  0
 24 21  2  0  0  0  0
 26 27  1  6  0  0  0
 26 25  1  0  0  0  0
 29 28  1  0  0  0  0
 29 10  1  1  0  0  0
 30 31  1  6  0  0  0
 30 29  1  0  0  0  0
 30 28  1  0  0  0  0
 32 31  1  0  0  0  0
 32 33  1  0  0  0  0
 35 34  1  0  0  0  0
 35 32  1  0  0  0  0
M  END
>  <MODEL>
7

>  <REMARK>
 VINA RESULT:      -8.2      2.534      6.096
  Name = 
  7 active torsions:
  status: ('A' for Active; 'I' for Inactive)
    1  A    between atoms: C_8  and  C_33
    2  A    between atoms: C_10  and  C_11
    3  A    between atoms: C_13  and  C_32
    4  A    between atoms: N_22  and  O_28
    5  A    between atoms: N_22  and  N_34
    6  A    between atoms: C_23  and  C_31
    7  A    between atoms: C_27  and  N_34
                            x       y       z     vdW  Elec       q    Type
                         _______ _______ _______ _____ _____    ______ ____

>  <TORSDO>
F 7

$$$$
=
 OpenBabel11042411363D

 35 39  0  0  1  0  0  0  0  0999 V2000
  186.2570  178.6100  143.2770 N   0  0  0  0  0  0  0  0  0  0  0  0
  187.4080  178.1430  142.7140 C   0  0  0  0  0  0  0  0  0  0  0  0
  186.4790  178.6260  140.5330 C   0  0  0  0  0  3  0  0  0  0  0  0
  188.7450  177.6720  140.7060 C   0  0  0  0  0  0  0  0  0  0  0  0
  189.7900  177.2560  141.5430 C   0  0  0  0  0  3  0  0  0  0  0  0
  185.3140  179.0890  141.1410 C   0  0  0  0  0  3  0  0  0  0  0  0
  189.6550  177.2670  142.9280 C   0  0  0  0  0  3  0  0  0  0  0  0
  188.4710  177.7010  143.5310 C   0  0  0  0  0  0  0  0  0  0  0  0
  187.5430  178.1330  141.3010 C   0  0  0  0  0  0  0  0  0  0  0  0
  185.2120  179.0600  142.5320 C   0  0  0  0  0  0  0  0  0  0  0  0
  187.9310  177.5050  149.2200 N   0  0  0  0  0  1  0  0  0  0  0  0
  189.5000  177.5950  145.8440 C   0  0  0  0  0  0  0  0  0  0  0  0
  190.8150  177.6120  145.2970 N   0  0  0  0  0  1  0  0  0  0  0  0
  187.0870  177.6780  145.6030 C   0  0  0  0  0  3  0  0  0  0  0  0
  189.3480  177.5440  147.2340 C   0  0  0  0  0  3  0  0  0  0  0  0
  186.9440  177.6260  146.9910 C   0  0  0  0  0  3  0  0  0  0  0  0
  188.3600  177.6660  145.0110 C   0  0  0  0  0  0  0  0  0  0  0  0
  188.0750  177.5570  147.8060 C   0  0  0  0  0  0  0  0  0  0  0  0
  189.0560  178.6830  137.0510 C   0  0  0  0  0  3  0  0  0  0  0  0
  188.9640  177.6100  139.2350 C   0  0  0  0  0  0  0  0  0  0  0  0
  189.3180  177.4510  136.4500 C   0  0  0  0  0  3  0  0  0  0  0  0
  189.2170  176.3750  138.6150 C   0  0  0  0  0  3  0  0  0  0  0  0
  188.8750  178.7600  138.4340 C   0  0  0  0  0  3  0  0  0  0  0  0
  189.3950  176.2890  137.2300 C   0  0  0  0  0  0  0  0  0  0  0  0
  190.1810  174.0750  137.5670 O   0  0  0  0  0  1  0  0  0  0  0  0
  189.6800  174.9590  136.6110 C   0  0  1  0  0  3  0  0  0  0  0  0
  188.4280  174.3810  135.9790 C   0  0  0  0  0  1  0  0  0  0  0  0
  183.6080  178.7290  144.3960 C   0  0  0  0  0  2  0  0  0  0  0  0
  183.9840  179.5900  143.2030 C   0  0  2  0  0  3  0  0  0  0  0  0
  182.8590  178.5740  143.0920 C   0  0  2  0  0  3  0  0  0  0  0  0
  181.5850  179.2660  143.1850 N   0  0  0  0  0  2  0  0  0  0  0  0
  180.6530  178.4970  142.4740 N   0  0  0  0  0  0  0  0  0  0  0  0
  179.9010  179.3650  141.7560 O   0  0  0  0  0  1  0  0  0  0  0  0
  179.3750  179.0030  144.1640 C   0  0  0  0  0  1  0  0  0  0  0  0
  179.8310  177.9340  143.3920 O   0  0  0  0  0  0  0  0  0  0  0  0
  2  1  1  0  0  0  0
  2  8  1  0  0  0  0
  3  6  2  0  0  0  0
  3  9  1  0  0  0  0
  4  9  1  0  0  0  0
  4  5  2  0  0  0  0
  5  7  1  0  0  0  0
  6 10  1  0  0  0  0
  7  8  2  0  0  0  0
  8 17  1  0  0  0  0
  9  2  2  0  0  0  0
 10  1  2  0  0  0  0
 12 15  1  0  0  0  0
 13 12  1  0  0  0  0
 14 16  2  0  0  0  0
 15 18  2  0  0  0  0
 16 18  1  0  0  0  0
 17 14  1  0  0  0  0
 17 12  2  0  0  0  0
 18 11  1  0  0  0  0
 19 23  1  0  0  0  0
 20  4  1  0  0  0  0
 21 19  2  0  0  0  0
 21 24  1  0  0  0  0
 22 20  1  0  0  0  0
 23 20  2  0  0  0  0
 24 22  2  0  0  0  0
 26 27  1  1  0  0  0
 26 24  1  0  0  0  0
 26 25  1  0  0  0  0
 29 10  1  6  0  0  0
 29 28  1  0  0  0  0
 30 31  1  1  0  0  0
 30 29  1  0  0  0  0
 30 28  1  0  0  0  0
 32 31  1  0  0  0  0
 32 35  1  0  0  0  0
 33 32  1  0  0  0  0
 35 34  1  0  0  0  0
M  END
>  <MODEL>
8

>  <REMARK>
 VINA RESULT:      -8.1      3.819      8.908
  Name = 
  7 active torsions:
  status: ('A' for Active; 'I' for Inactive)
    1  A    between atoms: C_8  and  C_33
    2  A    between atoms: C_10  and  C_11
    3  A    between atoms: C_13  and  C_32
    4  A    between atoms: N_22  and  O_28
    5  A    between atoms: N_22  and  N_34
    6  A    between atoms: C_23  and  C_31
    7  A    between atoms: C_27  and  N_34
                            x       y       z     vdW  Elec       q    Type
                         _______ _______ _______ _____ _____    ______ ____

>  <TORSDO>
F 7

$$$$
=
 OpenBabel11042411363D

 35 39  0  0  1  0  0  0  0  0999 V2000
  188.4560  177.8310  142.1590 N   0  0  0  0  0  0  0  0  0  0  0  0
  187.2530  177.9590  142.7870 C   0  0  0  0  0  0  0  0  0  0  0  0
  186.2280  178.3770  140.6360 C   0  0  0  0  0  3  0  0  0  0  0  0
  184.8310  178.3580  142.6660 C   0  0  0  0  0  0  0  0  0  0  0  0
  184.7630  178.1520  144.0500 C   0  0  0  0  0  3  0  0  0  0  0  0
  187.4750  178.2480  140.0270 C   0  0  0  0  0  3  0  0  0  0  0  0
  185.9040  177.8680  144.7950 C   0  0  0  0  0  3  0  0  0  0  0  0
  187.1570  177.7730  144.1830 C   0  0  0  0  0  0  0  0  0  0  0  0
  186.0910  178.2480  142.0250 C   0  0  0  0  0  0  0  0  0  0  0  0
  188.5960  177.9860  140.8140 C   0  0  0  0  0  0  0  0  0  0  0  0
  191.8310  176.7520  147.3150 N   0  0  0  0  0  1  0  0  0  0  0  0
  188.3300  177.6610  146.4260 C   0  0  0  0  0  0  0  0  0  0  0  0
  187.1390  178.0420  147.1070 N   0  0  0  0  0  1  0  0  0  0  0  0
  189.5430  177.0910  144.4030 C   0  0  0  0  0  3  0  0  0  0  0  0
  189.4850  177.4100  147.1750 C   0  0  0  0  0  3  0  0  0  0  0  0
  190.6910  176.8440  145.1580 C   0  0  0  0  0  3  0  0  0  0  0  0
  188.3500  177.4990  145.0220 C   0  0  0  0  0  0  0  0  0  0  0  0
  190.6620  177.0050  146.5450 C   0  0  0  0  0  0  0  0  0  0  0  0
  182.3780  179.3460  139.9280 C   0  0  0  0  0  3  0  0  0  0  0  0
  183.5670  178.6780  141.9460 C   0  0  0  0  0  0  0  0  0  0  0  0
  181.1710  179.3390  140.6300 C   0  0  0  0  0  3  0  0  0  0  0  0
  182.3470  178.6870  142.6420 C   0  0  0  0  0  3  0  0  0  0  0  0
  183.5690  179.0220  140.5840 C   0  0  0  0  0  3  0  0  0  0  0  0
  181.1520  179.0140  141.9930 C   0  0  0  0  0  0  0  0  0  0  0  0
  178.9680  178.1020  142.1850 O   0  0  0  0  0  1  0  0  0  0  0  0
  179.8720  178.9950  142.7640 C   0  0  1  0  0  3  0  0  0  0  0  0
  180.1210  178.6100  144.2100 C   0  0  0  0  0  1  0  0  0  0  0  0
  189.8460  178.0220  138.6720 C   0  0  0  0  0  2  0  0  0  0  0  0
  189.9360  177.8060  140.1720 C   0  0  2  0  0  3  0  0  0  0  0  0
  189.8960  176.6170  139.2260 C   0  0  2  0  0  3  0  0  0  0  0  0
  191.2390  176.0870  139.0740 N   0  0  0  0  0  2  0  0  0  0  0  0
  191.1250  174.8940  138.3470 N   0  0  0  0  0  0  0  0  0  0  0  0
  191.9640  175.0030  137.2890 O   0  0  0  0  0  1  0  0  0  0  0  0
  189.8970  173.8560  136.8790 C   0  0  0  0  0  1  0  0  0  0  0  0
  189.8670  174.8600  137.8470 O   0  0  0  0  0  0  0  0  0  0  0  0
  1  2  1  0  0  0  0
  2  8  1  0  0  0  0
  3  9  1  0  0  0  0
  4  5  2  0  0  0  0
  5  7  1  0  0  0  0
  6  3  2  0  0  0  0
  6 10  1  0  0  0  0
  8  7  2  0  0  0  0
  8 17  1  0  0  0  0
  9  4  1  0  0  0  0
  9  2  2  0  0  0  0
 10  1  2  0  0  0  0
 12 13  1  0  0  0  0
 12 15  1  0  0  0  0
 14 17  1  0  0  0  0
 14 16  2  0  0  0  0
 16 18  1  0  0  0  0
 17 12  2  0  0  0  0
 18 15  2  0  0  0  0
 18 11  1  0  0  0  0
 19 23  2  0  0  0  0
 19 21  1  0  0  0  0
 20 22  2  0  0  0  0
 20  4  1  0  0  0  0
 21 24  2  0  0  0  0
 23 20  1  0  0  0  0
 24 22  1  0  0  0  0
 24 26  1  0  0  0  0
 25 26  1  0  0  0  0
 26 27  1  1  0  0  0
 28 30  1  0  0  0  0
 28 29  1  0  0  0  0
 29 10  1  1  0  0  0
 30 31  1  6  0  0  0
 30 29  1  0  0  0  0
 32 31  1  0  0  0  0
 33 32  1  0  0  0  0
 34 35  1  0  0  0  0
 35 32  1  0  0  0  0
M  END
>  <MODEL>
9

>  <REMARK>
 VINA RESULT:      -8.1      3.307      7.093
  Name = 
  7 active torsions:
  status: ('A' for Active; 'I' for Inactive)
    1  A    between atoms: C_8  and  C_33
    2  A    between atoms: C_10  and  C_11
    3  A    between atoms: C_13  and  C_32
    4  A    between atoms: N_22  and  O_28
    5  A    between atoms: N_22  and  N_34
    6  A    between atoms: C_23  and  C_31
    7  A    between atoms: C_27  and  N_34
                            x       y       z     vdW  Elec       q    Type
                         _______ _______ _______ _____ _____    ______ ____

>  <TORSDO>
F 7

$$$$
