=
 OpenBabel11042410073D

 54 59  0  0  1  0  0  0  0  0999 V2000
  181.2610  178.4830  140.3550 C   0  0  0  0  0  2  0  0  0  0  0  0
  182.6870  180.5270  138.9210 C   0  0  0  0  0  2  0  0  0  0  0  0
  182.6140  178.0730  139.7610 C   0  0  2  0  0  3  0  0  0  0  0  0
  180.5920  181.0920  137.7490 C   0  0  2  0  0  3  0  0  0  0  0  0
  179.8320  179.4970  135.9480 N   0  0  0  0  0  2  0  0  0  0  0  0
  180.2970  176.5750  138.1430 C   0  0  0  0  0  0  0  0  0  0  0  0
  179.9950  178.1410  136.3740 C   0  0  0  0  0  0  0  0  0  0  0  0
  184.4170  179.5430  140.4320 C   0  0  0  0  0  2  0  0  0  0  0  0
  180.2240  177.1470  135.4250 C   0  0  0  0  0  3  0  0  0  0  0  0
  180.5170  175.5400  137.2120 C   0  0  0  0  0  0  0  0  0  0  0  0
  180.0220  177.8320  137.6970 N   0  0  0  0  0  0  0  0  0  0  0  0
  183.4500  177.3520  140.8120 C   0  0  0  0  0  2  0  0  0  0  0  0
  180.2830  177.3170  140.5300 C   0  0  0  0  0  2  0  0  0  0  0  0
  184.7200  178.1720  140.9940 C   0  0  2  0  0  3  0  0  0  0  0  0
  183.4610  179.2680  139.2980 C   0  0  2  0  0  3  0  0  0  0  0  0
  181.9060  180.3300  137.6350 C   0  0  0  0  0  2  0  0  0  0  0  0
  180.4700  175.8420  135.8480 C   0  0  0  0  0  3  0  0  0  0  0  0
  179.4590  180.5910  136.8410 C   0  0  2  0  0  3  0  0  0  0  0  0
  180.4070  176.3200  139.5140 O   0  0  0  0  0  0  0  0  0  0  0  0
  180.2730  181.8160  136.4560 C   0  0  1  0  0  3  0  0  0  0  0  0
  185.1520  178.2390  142.4280 C   0  0  0  0  0  0  0  0  0  0  0  0
  185.0510  178.5170  144.5820 N   0  0  0  0  0  0  0  0  0  0  0  0
  186.3560  177.8010  142.9410 C   0  0  0  0  0  0  0  0  0  0  0  0
  184.3810  178.6780  143.4470 N   0  0  0  0  0  2  0  0  0  0  0  0
  186.2490  177.9690  144.2990 C   0  0  0  0  0  0  0  0  0  0  0  0
  187.4450  177.2080  142.2310 N   0  0  0  0  0  2  0  0  0  0  0  0
  188.2690  177.9580  141.3320 C   0  0  0  0  0  0  0  0  0  0  0  0
  188.1540  179.2150  141.2640 O   0  0  0  0  0  0  0  0  0  0  0  0
  189.2980  177.2500  140.5110 C   0  0  0  0  0  3  0  0  0  0  0  0
  190.5650  177.0330  141.3190 C   0  0  0  0  0  1  0  0  0  0  0  0
  189.6120  178.0400  139.2520 C   0  0  0  0  0  1  0  0  0  0  0  0
  187.2850  177.6460  145.3200 C   0  0  0  0  0  2  0  0  0  0  0  0
  186.7420  177.8930  146.7160 C   0  0  0  0  0  2  0  0  0  0  0  0
  188.7440  176.8330  147.4650 O   0  0  0  0  0  1  0  0  0  0  0  0
  187.8670  177.8840  147.7330 C   0  0  0  0  0  2  0  0  0  0  0  0
  179.7290  173.2630  137.2160 O   0  0  0  0  0  1  0  0  0  0  0  0
  180.7650  174.1120  137.6170 C   0  0  1  0  0  3  0  0  0  0  0  0
  182.1190  173.5830  137.1410 C   0  0  0  0  0  2  0  0  0  0  0  0
  183.2830  174.3760  137.7160 C   0  0  0  0  0  2  0  0  0  0  0  0
  184.5280  174.6730  136.4750 S   0  0  0  0  0  0  0  0  0  0  0  0
  185.0430  173.3570  135.9600 O   0  0  0  0  0  0  0  0  0  0  0  0
  183.8840  175.4230  135.3410 O   0  0  0  0  0  0  0  0  0  0  0  0
  187.1540  178.5030  136.2470 C   0  0  0  0  0  2  0  0  0  0  0  0
  185.8770  175.6470  137.1360 C   0  0  2  0  0  3  0  0  0  0  0  0
  187.5220  176.2200  135.2110 C   0  0  0  0  0  2  0  0  0  0  0  0
  186.6250  177.9650  137.4930 N   0  0  0  0  0  2  0  0  0  0  0  0
  185.4930  177.1280  137.1300 C   0  0  0  0  0  2  0  0  0  0  0  0
  188.2540  175.2550  137.3100 O   0  0  0  0  0  1  0  0  0  0  0  0
  187.1900  175.3140  136.4060 C   0  0  1  0  0  3  0  0  0  0  0  0
  188.1660  177.5420  135.6310 C   0  0  0  0  0  2  0  0  0  0  0  0
  179.5380  183.0320  136.7710 N   0  0  0  0  0  2  0  0  0  0  0  0
  180.7670  183.6240  135.0250 O   0  0  0  0  0  1  0  0  0  0  0  0
  180.1960  184.1090  136.1560 N   0  0  0  0  0  0  0  0  0  0  0  0
  181.5080  184.5490  137.2160 Cl  0  0  0  0  0  0  0  0  0  0  0  0
  1 13  1  0  0  0  0
  3  1  1  1  0  0  0
  3 12  1  0  0  0  0
  4 16  1  6  0  0  0
  5  7  1  0  0  0  0
  6 19  1  0  0  0  0
  7 11  1  0  0  0  0
  8 14  1  0  0  0  0
  9 17  1  0  0  0  0
  9  7  2  0  0  0  0
 10 37  1  0  0  0  0
 10  6  1  0  0  0  0
 11  6  2  0  0  0  0
 12 14  1  0  0  0  0
 14 21  1  1  0  0  0
 15  2  1  1  0  0  0
 15  3  1  0  0  0  0
 15  8  1  0  0  0  0
 16  2  1  0  0  0  0
 17 10  2  0  0  0  0
 18  5  1  6  0  0  0
 18  4  1  0  0  0  0
 19 13  1  0  0  0  0
 20 51  1  1  0  0  0
 20 18  1  0  0  0  0
 20  4  1  0  0  0  0
 21 23  2  0  0  0  0
 21 24  1  0  0  0  0
 23 25  1  0  0  0  0
 24 22  1  0  0  0  0
 25 22  2  0  0  0  0
 25 32  1  0  0  0  0
 26 23  1  0  0  0  0
 27 26  1  0  0  0  0
 28 27  2  0  0  0  0
 29 30  1  0  0  0  0
 29 27  1  0  0  0  0
 31 29  1  0  0  0  0
 32 33  1  0  0  0  0
 33 35  1  0  0  0  0
 34 35  1  0  0  0  0
 37 36  1  6  0  0  0
 38 37  1  0  0  0  0
 38 39  1  0  0  0  0
 40 39  1  0  0  0  0
 41 40  2  0  0  0  0
 42 40  2  0  0  0  0
 43 46  1  0  0  0  0
 44 40  1  6  0  0  0
 45 50  1  0  0  0  0
 45 49  1  0  0  0  0
 47 44  1  0  0  0  0
 47 46  1  0  0  0  0
 49 44  1  0  0  0  0
 49 48  1  1  0  0  0
 50 43  1  0  0  0  0
 52 53  1  0  0  0  0
 53 51  1  0  0  0  0
 53 54  1  0  0  0  0
M  END
>  <MODEL>
1

>  <REMARK>
 VINA RESULT:      -7.1      0.000      0.000
  Name = 
  13 active torsions:
  status: ('A' for Active; 'I' for Inactive)
    1  A    between atoms: C_1  and  C_39
    2  A    between atoms: S_4  and  C_20
    3  A    between atoms: S_4  and  C_27
    4  A    between atoms: C_6  and  C_27
    5  A    between atoms: C_6  and  C_37
    6  A    between atoms: C_10  and  C_47
    7  A    between atoms: C_13  and  N_46
    8  A    between atoms: C_15  and  C_43
    9  A    between atoms: N_18  and  N_30
   10  A    between atoms: N_18  and  C_51
   11  A    between atoms: C_26  and  C_43
   12  A    between atoms: C_26  and  C_54
   13  A    between atoms: C_33  and  C_37
                            x       y       z     vdW  Elec       q    Type
                         _______ _______ _______ _____ _____    ______ ____

>  <TORSDO>
F 13

$$$$
=
 OpenBabel11042410073D

 54 59  0  0  1  0  0  0  0  0999 V2000
  190.4010  176.2880  135.9390 C   0  0  0  0  0  2  0  0  0  0  0  0
  192.6400  176.2340  137.7420 C   0  0  0  0  0  2  0  0  0  0  0  0
  190.2430  175.4090  137.1860 C   0  0  2  0  0  3  0  0  0  0  0  0
  194.1270  175.9120  135.8010 C   0  0  2  0  0  3  0  0  0  0  0  0
  194.1350  173.6200  134.7440 N   0  0  0  0  0  2  0  0  0  0  0  0
  190.4550  173.5100  134.6210 C   0  0  0  0  0  0  0  0  0  0  0  0
  192.8020  173.1110  134.6360 C   0  0  0  0  0  0  0  0  0  0  0  0
  190.6770  176.6110  139.2420 C   0  0  0  0  0  2  0  0  0  0  0  0
  192.5910  171.7330  134.6660 C   0  0  0  0  0  3  0  0  0  0  0  0
  190.2010  172.1230  134.6340 C   0  0  0  0  0  0  0  0  0  0  0  0
  191.7410  173.9570  134.6000 N   0  0  0  0  0  0  0  0  0  0  0  0
  188.9060  175.6940  137.8610 C   0  0  0  0  0  2  0  0  0  0  0  0
  189.5480  175.8360  134.7490 C   0  0  0  0  0  2  0  0  0  0  0  0
  189.2260  176.1820  139.2680 C   0  0  2  0  0  3  0  0  0  0  0  0
  191.3170  175.6700  138.2520 C   0  0  2  0  0  3  0  0  0  0  0  0
  193.4070  175.1990  136.9390 C   0  0  0  0  0  2  0  0  0  0  0  0
  191.2870  171.2420  134.6500 C   0  0  0  0  0  3  0  0  0  0  0  0
  194.4800  175.0310  134.5940 C   0  0  2  0  0  3  0  0  0  0  0  0
  189.3920  174.4180  134.6760 O   0  0  0  0  0  0  0  0  0  0  0  0
  195.5350  175.3750  135.6330 C   0  0  1  0  0  3  0  0  0  0  0  0
  188.3220  177.2960  139.7020 C   0  0  0  0  0  0  0  0  0  0  0  0
  186.8920  178.9290  139.5890 N   0  0  0  0  0  0  0  0  0  0  0  0
  187.9630  177.5980  140.9990 C   0  0  1  0  0  3  0  0  0  0  0  0
  187.6630  178.1270  138.8650 N   0  0  0  0  0  0  0  0  0  0  0  0
  187.0460  178.6140  140.8900 C   0  0  0  0  0  0  0  0  0  0  0  0
  188.3750  176.9380  142.1980 N   0  0  0  0  0  2  0  0  0  0  0  0
  189.6070  177.2500  142.8560 C   0  0  0  0  0  0  0  0  0  0  0  0
  190.2950  178.2410  142.4790 O   0  0  0  0  0  0  0  0  0  0  0  0
  190.0500  176.4240  144.0210 C   0  0  0  0  0  3  0  0  0  0  0  0
  189.8100  177.1700  145.3220 C   0  0  0  0  0  1  0  0  0  0  0  0
  191.5200  176.0640  143.8920 C   0  0  0  0  0  1  0  0  0  0  0  0
  186.3450  179.3060  142.0080 C   0  0  0  0  0  2  0  0  0  0  0  0
  184.8450  179.2870  141.7810 C   0  0  0  0  0  2  0  0  0  0  0  0
  184.7300  178.2930  143.9470 O   0  0  0  0  0  1  0  0  0  0  0  0
  184.1080  179.2140  143.1050 C   0  0  0  0  0  2  0  0  0  0  0  0
  188.7680  170.2490  135.1230 O   0  0  0  0  0  1  0  0  0  0  0  0
  188.8130  171.5420  134.5950 C   0  0  1  0  0  3  0  0  0  0  0  0
  187.7710  172.4420  135.2620 C   0  0  0  0  0  2  0  0  0  0  0  0
  186.4020  171.7840  135.3330 C   0  0  0  0  0  2  0  0  0  0  0  0
  185.3590  172.6080  136.5220 S   0  0  0  0  0  0  0  0  0  0  0  0
  184.2760  171.6650  136.9730 O   0  0  0  0  0  0  0  0  0  0  0  0
  186.2070  172.9790  137.7060 O   0  0  0  0  0  0  0  0  0  0  0  0
  185.1240  177.2500  136.4200 C   0  0  0  0  0  2  0  0  0  0  0  0
  184.6350  174.0900  135.8260 C   0  0  2  0  0  3  0  0  0  0  0  0
  183.7620  175.5860  137.7590 C   0  0  0  0  0  2  0  0  0  0  0  0
  185.1480  176.4210  135.2230 N   0  0  0  0  0  2  0  0  0  0  0  0
  185.7230  175.1460  135.6190 C   0  0  0  0  0  2  0  0  0  0  0  0
  182.3940  174.9910  135.8500 O   0  0  0  0  0  1  0  0  0  0  0  0
  183.4350  174.5520  136.6720 C   0  0  1  0  0  3  0  0  0  0  0  0
  183.8450  177.0130  137.2150 C   0  0  0  0  0  2  0  0  0  0  0  0
  196.3890  176.4510  135.1520 N   0  0  0  0  0  2  0  0  0  0  0  0
  198.5770  176.1240  135.0300 O   0  0  0  0  0  1  0  0  0  0  0  0
  197.5790  176.4270  135.8970 N   0  0  0  0  0  0  0  0  0  0  0  0
  197.4480  175.0700  136.9840 Cl  0  0  0  0  0  0  0  0  0  0  0  0
  3  1  1  6  0  0  0
  3 12  1  0  0  0  0
  3 15  1  0  0  0  0
  4 16  1  1  0  0  0
  6 10  1  0  0  0  0
  6 19  1  0  0  0  0
  7  9  2  0  0  0  0
  7  5  1  0  0  0  0
  8 14  1  0  0  0  0
 10 17  2  0  0  0  0
 11  6  2  0  0  0  0
 11  7  1  0  0  0  0
 12 14  1  0  0  0  0
 13  1  1  0  0  0  0
 14 21  1  6  0  0  0
 15  2  1  6  0  0  0
 15  8  1  0  0  0  0
 16  2  1  0  0  0  0
 17  9  1  0  0  0  0
 18  5  1  1  0  0  0
 18 20  1  0  0  0  0
 18  4  1  0  0  0  0
 19 13  1  0  0  0  0
 20 51  1  6  0  0  0
 20  4  1  0  0  0  0
 21 23  1  0  0  0  0
 22 25  2  0  0  0  0
 23 26  1  6  0  0  0
 24 22  1  0  0  0  0
 24 21  2  0  0  0  0
 25 23  1  0  0  0  0
 25 32  1  0  0  0  0
 26 27  1  0  0  0  0
 27 29  1  0  0  0  0
 28 27  2  0  0  0  0
 29 30  1  0  0  0  0
 31 29  1  0  0  0  0
 33 32  1  0  0  0  0
 33 35  1  0  0  0  0
 35 34  1  0  0  0  0
 37 10  1  0  0  0  0
 37 36  1  1  0  0  0
 37 38  1  0  0  0  0
 38 39  1  0  0  0  0
 39 40  1  0  0  0  0
 40 41  2  0  0  0  0
 40 42  2  0  0  0  0
 43 50  1  0  0  0  0
 44 40  1  1  0  0  0
 44 49  1  0  0  0  0
 46 47  1  0  0  0  0
 46 43  1  0  0  0  0
 47 44  1  0  0  0  0
 49 48  1  6  0  0  0
 49 45  1  0  0  0  0
 50 45  1  0  0  0  0
 51 53  1  0  0  0  0
 52 53  1  0  0  0  0
 53 54  1  0  0  0  0
M  END
>  <MODEL>
2

>  <REMARK>
 VINA RESULT:      -5.4      5.075      9.485
  Name = 
  13 active torsions:
  status: ('A' for Active; 'I' for Inactive)
    1  A    between atoms: C_1  and  C_39
    2  A    between atoms: S_4  and  C_20
    3  A    between atoms: S_4  and  C_27
    4  A    between atoms: C_6  and  C_27
    5  A    between atoms: C_6  and  C_37
    6  A    between atoms: C_10  and  C_47
    7  A    between atoms: C_13  and  N_46
    8  A    between atoms: C_15  and  C_43
    9  A    between atoms: N_18  and  N_30
   10  A    between atoms: N_18  and  C_51
   11  A    between atoms: C_26  and  C_43
   12  A    between atoms: C_26  and  C_54
   13  A    between atoms: C_33  and  C_37
                            x       y       z     vdW  Elec       q    Type
                         _______ _______ _______ _____ _____    ______ ____

>  <TORSDO>
F 13

$$$$
=
 OpenBabel11042410073D

 54 59  0  0  1  0  0  0  0  0999 V2000
  189.8980  178.3230  138.7150 C   0  0  0  0  0  2  0  0  0  0  0  0
  191.5570  175.9750  138.6350 C   0  0  0  0  0  2  0  0  0  0  0  0
  189.2940  177.0480  139.3170 C   0  0  2  0  0  3  0  0  0  0  0  0
  192.0650  176.4800  136.2750 C   0  0  2  0  0  3  0  0  0  0  0  0
  190.2450  176.0020  134.5940 N   0  0  0  0  0  0  0  0  0  0  0  0
  187.7160  177.7480  136.6250 C   0  0  0  0  0  0  0  0  0  0  0  0
  188.9740  176.4280  135.0930 C   0  0  0  0  0  0  0  0  0  0  0  0
  190.7210  176.0340  140.9900 C   0  0  0  0  0  2  0  0  0  0  0  0
  187.8180  175.7730  134.6730 C   0  0  0  0  0  3  0  0  0  0  0  0
  186.5230  177.1180  136.2140 C   0  0  2  0  0  3  0  0  0  0  0  0
  188.8950  177.4010  136.0380 N   0  0  0  0  0  0  0  0  0  0  0  0
  188.7040  177.3470  140.6900 C   0  0  0  0  0  2  0  0  0  0  0  0
  188.8540  179.3190  138.2000 C   0  0  0  0  0  2  0  0  0  0  0  0
  189.4480  176.4650  141.6840 C   0  0  2  0  0  3  0  0  0  0  0  0
  190.3270  175.9340  139.5370 C   0  0  2  0  0  3  0  0  0  0  0  0
  191.2000  175.6330  137.2010 C   0  0  0  0  0  2  0  0  0  0  0  0
  186.5910  176.1310  135.2260 C   0  0  0  0  0  3  0  0  0  0  0  0
  191.5000  176.6980  134.8640 C   0  0  2  0  0  3  0  0  0  0  0  0
  187.6920  178.6890  137.6600 O   0  0  0  0  0  0  0  0  0  0  0  0
  192.5780  175.6560  135.1110 C   0  0  1  0  0  3  0  0  0  0  0  0
  189.7270  177.1730  142.9750 C   0  0  0  0  0  0  0  0  0  0  0  0
  190.7940  178.2980  144.4990 N   0  0  0  0  0  0  0  0  0  0  0  0
  188.8020  177.5040  143.9430 C   0  0  1  0  0  3  0  0  0  0  0  0
  190.9330  177.6610  143.3430 N   0  0  0  0  0  0  0  0  0  0  0  0
  189.5020  178.2310  144.8750 C   0  0  0  0  0  0  0  0  0  0  0  0
  187.3980  177.2390  143.9380 N   0  0  0  0  0  2  0  0  0  0  0  0
  186.4600  178.1090  143.2950 C   0  0  0  0  0  0  0  0  0  0  0  0
  186.8680  179.0590  142.5690 O   0  0  0  0  0  0  0  0  0  0  0  0
  184.9940  177.8550  143.4500 C   0  0  0  0  0  3  0  0  0  0  0  0
  184.2650  178.1450  142.1510 C   0  0  0  0  0  1  0  0  0  0  0  0
  184.4210  178.7070  144.5700 C   0  0  0  0  0  1  0  0  0  0  0  0
  188.9620  178.8260  146.1290 C   0  0  0  0  0  2  0  0  0  0  0  0
  189.1450  177.8650  147.2890 C   0  0  0  0  0  2  0  0  0  0  0  0
  186.7900  178.2510  147.2870 O   0  0  0  0  0  1  0  0  0  0  0  0
  187.8100  177.5600  147.9410 C   0  0  0  0  0  2  0  0  0  0  0  0
  184.2170  177.6420  135.7550 O   0  0  0  0  0  1  0  0  0  0  0  0
  185.1710  177.4850  136.7640 C   0  0  1  0  0  3  0  0  0  0  0  0
  184.6780  176.5100  137.8350 C   0  0  0  0  0  2  0  0  0  0  0  0
  183.5420  175.6300  137.3360 C   0  0  0  0  0  2  0  0  0  0  0  0
  181.9810  176.1540  138.0200 S   0  0  0  0  0  0  0  0  0  0  0  0
  181.0130  176.4270  136.9000 O   0  0  0  0  0  0  0  0  0  0  0  0
  181.4450  175.0340  138.8670 O   0  0  0  0  0  0  0  0  0  0  0  0
  180.0310  179.6260  140.4180 C   0  0  0  0  0  2  0  0  0  0  0  0
  182.1800  177.6170  139.0320 C   0  0  2  0  0  3  0  0  0  0  0  0
  180.7850  179.5480  138.0010 C   0  0  0  0  0  2  0  0  0  0  0  0
  181.1660  178.8530  140.9040 N   0  0  0  0  0  2  0  0  0  0  0  0
  181.1530  177.6000  140.1670 C   0  0  0  0  0  2  0  0  0  0  0  0
  183.1200  179.7990  138.5990 O   0  0  0  0  0  1  0  0  0  0  0  0
  182.1600  178.8840  138.1590 C   0  0  1  0  0  3  0  0  0  0  0  0
  180.4180  180.4400  139.1880 C   0  0  0  0  0  2  0  0  0  0  0  0
  193.8810  176.1690  134.7140 N   0  0  0  0  0  2  0  0  0  0  0  0
  195.3380  177.5920  135.5850 O   0  0  0  0  0  1  0  0  0  0  0  0
  194.5910  176.4990  135.8790 N   0  0  0  0  0  0  0  0  0  0  0  0
  195.7170  175.1960  136.1510 Cl  0  0  0  0  0  0  0  0  0  0  0  0
  3  1  1  1  0  0  0
  3 15  1  0  0  0  0
  3 12  1  0  0  0  0
  4 16  1  1  0  0  0
  5  7  2  0  0  0  0
  6 19  1  0  0  0  0
  7 11  1  0  0  0  0
  8 14  1  0  0  0  0
  9  7  1  0  0  0  0
  9 17  2  0  0  0  0
 10  6  1  0  0  0  0
 10 37  1  6  0  0  0
 11  6  2  0  0  0  0
 12 14  1  0  0  0  0
 13  1  1  0  0  0  0
 14 21  1  1  0  0  0
 15  2  1  6  0  0  0
 15  8  1  0  0  0  0
 16  2  1  0  0  0  0
 17 10  1  0  0  0  0
 18  5  1  1  0  0  0
 18 20  1  0  0  0  0
 18  4  1  0  0  0  0
 19 13  1  0  0  0  0
 20 51  1  6  0  0  0
 20  4  1  0  0  0  0
 21 24  2  0  0  0  0
 21 23  1  0  0  0  0
 22 25  2  0  0  0  0
 23 26  1  6  0  0  0
 23 25  1  0  0  0  0
 24 22  1  0  0  0  0
 25 32  1  0  0  0  0
 27 29  1  0  0  0  0
 27 26  1  0  0  0  0
 28 27  2  0  0  0  0
 29 31  1  0  0  0  0
 30 29  1  0  0  0  0
 32 33  1  0  0  0  0
 33 35  1  0  0  0  0
 34 35  1  0  0  0  0
 37 36  1  6  0  0  0
 37 38  1  0  0  0  0
 39 38  1  0  0  0  0
 39 40  1  0  0  0  0
 40 42  2  0  0  0  0
 41 40  2  0  0  0  0
 43 46  1  0  0  0  0
 44 40  1  6  0  0  0
 44 47  1  0  0  0  0
 45 49  1  0  0  0  0
 45 50  1  0  0  0  0
 47 46  1  0  0  0  0
 49 48  1  1  0  0  0
 49 44  1  0  0  0  0
 50 43  1  0  0  0  0
 51 53  1  0  0  0  0
 52 53  1  0  0  0  0
 53 54  1  0  0  0  0
M  END
>  <MODEL>
3

>  <REMARK>
 VINA RESULT:      -5.2      3.757      8.066
  Name = 
  13 active torsions:
  status: ('A' for Active; 'I' for Inactive)
    1  A    between atoms: C_1  and  C_39
    2  A    between atoms: S_4  and  C_20
    3  A    between atoms: S_4  and  C_27
    4  A    between atoms: C_6  and  C_27
    5  A    between atoms: C_6  and  C_37
    6  A    between atoms: C_10  and  C_47
    7  A    between atoms: C_13  and  N_46
    8  A    between atoms: C_15  and  C_43
    9  A    between atoms: N_18  and  N_30
   10  A    between atoms: N_18  and  C_51
   11  A    between atoms: C_26  and  C_43
   12  A    between atoms: C_26  and  C_54
   13  A    between atoms: C_33  and  C_37
                            x       y       z     vdW  Elec       q    Type
                         _______ _______ _______ _____ _____    ______ ____

>  <TORSDO>
F 13

$$$$
=
 OpenBabel11042410073D

 54 59  0  0  1  0  0  0  0  0999 V2000
  181.4620  177.5170  139.9050 C   0  0  0  0  0  2  0  0  0  0  0  0
  182.3930  180.0280  138.8570 C   0  0  0  0  0  2  0  0  0  0  0  0
  182.9820  177.6800  139.7920 C   0  0  2  0  0  3  0  0  0  0  0  0
  180.7210  179.8360  137.0550 C   0  0  2  0  0  3  0  0  0  0  0  0
  181.2180  178.1810  135.2160 N   0  0  0  0  0  2  0  0  0  0  0  0
  182.0260  175.5220  137.6340 C   0  0  0  0  0  0  0  0  0  0  0  0
  181.7330  176.9620  135.7600 C   0  0  0  0  0  0  0  0  0  0  0  0
  183.7980  179.6750  140.8940 C   0  0  0  0  0  2  0  0  0  0  0  0
  182.6010  176.1840  134.9970 C   0  0  0  0  0  3  0  0  0  0  0  0
  182.8960  174.7010  136.8880 C   0  0  0  0  0  0  0  0  0  0  0  0
  181.4560  176.6080  137.0420 N   0  0  0  0  0  0  0  0  0  0  0  0
  183.6520  177.2630  141.0970 C   0  0  0  0  0  2  0  0  0  0  0  0
  180.9870  176.0620  139.8420 C   0  0  0  0  0  2  0  0  0  0  0  0
  184.3970  178.4870  141.6120 C   0  0  2  0  0  3  0  0  0  0  0  0
  183.4210  179.1290  139.5400 C   0  0  2  0  0  3  0  0  0  0  0  0
  182.1880  179.6290  137.4070 C   0  0  0  0  0  2  0  0  0  0  0  0
  183.1700  175.0440  135.5610 C   0  0  0  0  0  3  0  0  0  0  0  0
  180.2040  179.0010  135.8740 C   0  0  2  0  0  3  0  0  0  0  0  0
  181.7860  175.2460  138.9840 O   0  0  0  0  0  0  0  0  0  0  0  0
  180.5780  180.4620  135.6820 C   0  0  1  0  0  3  0  0  0  0  0  0
  184.2990  178.6260  143.1020 C   0  0  0  0  0  0  0  0  0  0  0  0
  183.4650  179.0520  145.0640 N   0  0  0  0  0  0  0  0  0  0  0  0
  185.2080  178.1580  144.0280 C   0  0  1  0  0  3  0  0  0  0  0  0
  183.2530  179.1730  143.7590 N   0  0  0  0  0  0  0  0  0  0  0  0
  184.6420  178.4220  145.2510 C   0  0  0  0  0  0  0  0  0  0  0  0
  186.4300  177.4610  143.7790 N   0  0  0  0  0  2  0  0  0  0  0  0
  187.2920  177.7960  142.6860 C   0  0  0  0  0  0  0  0  0  0  0  0
  187.0720  178.8340  142.0000 O   0  0  0  0  0  0  0  0  0  0  0  0
  188.4800  176.9370  142.3930 C   0  0  0  0  0  3  0  0  0  0  0  0
  189.1530  176.5040  143.6840 C   0  0  0  0  0  1  0  0  0  0  0  0
  189.4710  177.6790  141.5130 C   0  0  0  0  0  1  0  0  0  0  0  0
  185.2240  178.1130  146.5870 C   0  0  0  0  0  2  0  0  0  0  0  0
  186.4710  178.9460  146.8230 C   0  0  0  0  0  2  0  0  0  0  0  0
  188.5120  177.7400  147.0890 O   0  0  0  0  0  1  0  0  0  0  0  0
  187.4080  178.2370  147.7810 C   0  0  0  0  0  2  0  0  0  0  0  0
  183.0420  172.2970  136.8100 O   0  0  0  0  0  1  0  0  0  0  0  0
  183.5190  173.4480  137.4440 C   0  0  1  0  0  3  0  0  0  0  0  0
  185.0480  173.4850  137.4310 C   0  0  0  0  0  2  0  0  0  0  0  0
  185.6380  172.6010  136.3430 C   0  0  0  0  0  2  0  0  0  0  0  0
  187.4000  172.8420  136.2100 S   0  0  0  0  0  0  0  0  0  0  0  0
  187.9950  172.9330  137.5890 O   0  0  0  0  0  0  0  0  0  0  0  0
  187.9800  171.6470  135.5050 O   0  0  0  0  0  0  0  0  0  0  0  0
  189.8200  176.7920  135.8280 C   0  0  0  0  0  2  0  0  0  0  0  0
  187.7790  174.3210  135.2760 C   0  0  2  0  0  3  0  0  0  0  0  0
  187.5300  176.3840  136.8310 C   0  0  0  0  0  2  0  0  0  0  0  0
  189.6120  175.8680  134.7220 N   0  0  0  0  0  2  0  0  0  0  0  0
  189.2870  174.5830  135.3180 C   0  0  0  0  0  2  0  0  0  0  0  0
  186.4700  176.2540  134.6570 O   0  0  0  0  0  1  0  0  0  0  0  0
  186.9040  175.4950  135.7470 C   0  0  1  0  0  3  0  0  0  0  0  0
  188.5000  177.4200  136.2610 C   0  0  0  0  0  2  0  0  0  0  0  0
  179.3840  181.2940  135.6710 N   0  0  0  0  0  2  0  0  0  0  0  0
  181.0360  182.6250  135.0340 O   0  0  0  0  0  1  0  0  0  0  0  0
  179.7880  182.6340  135.5660 N   0  0  0  0  0  0  0  0  0  0  0  0
  179.9560  183.2240  137.1980 Cl  0  0  0  0  0  0  0  0  0  0  0  0
  3  1  1  1  0  0  0
  3 12  1  0  0  0  0
  4 16  1  6  0  0  0
  5  7  1  0  0  0  0
  6 19  1  0  0  0  0
  7 11  1  0  0  0  0
  8 14  1  0  0  0  0
  9 17  1  0  0  0  0
  9  7  2  0  0  0  0
 10 37  1  0  0  0  0
 10  6  1  0  0  0  0
 11  6  2  0  0  0  0
 12 14  1  0  0  0  0
 13  1  1  0  0  0  0
 14 21  1  1  0  0  0
 15  2  1  1  0  0  0
 15  3  1  0  0  0  0
 15  8  1  0  0  0  0
 16  2  1  0  0  0  0
 17 10  2  0  0  0  0
 18  5  1  6  0  0  0
 18  4  1  0  0  0  0
 19 13  1  0  0  0  0
 20 51  1  1  0  0  0
 20 18  1  0  0  0  0
 20  4  1  0  0  0  0
 21 24  2  0  0  0  0
 21 23  1  0  0  0  0
 22 25  2  0  0  0  0
 23 26  1  6  0  0  0
 23 25  1  0  0  0  0
 24 22  1  0  0  0  0
 25 32  1  0  0  0  0
 27 26  1  0  0  0  0
 28 27  2  0  0  0  0
 29 27  1  0  0  0  0
 29 30  1  0  0  0  0
 31 29  1  0  0  0  0
 32 33  1  0  0  0  0
 33 35  1  0  0  0  0
 34 35  1  0  0  0  0
 37 36  1  6  0  0  0
 38 37  1  0  0  0  0
 39 38  1  0  0  0  0
 40 39  1  0  0  0  0
 40 41  2  0  0  0  0
 42 40  2  0  0  0  0
 43 50  1  0  0  0  0
 44 47  1  0  0  0  0
 44 49  1  0  0  0  0
 44 40  1  1  0  0  0
 46 47  1  0  0  0  0
 46 43  1  0  0  0  0
 49 48  1  6  0  0  0
 49 45  1  0  0  0  0
 50 45  1  0  0  0  0
 52 53  1  0  0  0  0
 53 51  1  0  0  0  0
 53 54  1  0  0  0  0
M  END
>  <MODEL>
4

>  <REMARK>
 VINA RESULT:      -5.1      1.804      2.311
  Name = 
  13 active torsions:
  status: ('A' for Active; 'I' for Inactive)
    1  A    between atoms: C_1  and  C_39
    2  A    between atoms: S_4  and  C_20
    3  A    between atoms: S_4  and  C_27
    4  A    between atoms: C_6  and  C_27
    5  A    between atoms: C_6  and  C_37
    6  A    between atoms: C_10  and  C_47
    7  A    between atoms: C_13  and  N_46
    8  A    between atoms: C_15  and  C_43
    9  A    between atoms: N_18  and  N_30
   10  A    between atoms: N_18  and  C_51
   11  A    between atoms: C_26  and  C_43
   12  A    between atoms: C_26  and  C_54
   13  A    between atoms: C_33  and  C_37
                            x       y       z     vdW  Elec       q    Type
                         _______ _______ _______ _____ _____    ______ ____

>  <TORSDO>
F 13

$$$$
=
 OpenBabel11042410073D

 54 59  0  0  1  0  0  0  0  0999 V2000
  189.9950  178.3600  139.1240 C   0  0  0  0  0  2  0  0  0  0  0  0
  191.6650  176.0360  139.4190 C   0  0  0  0  0  2  0  0  0  0  0  0
  189.2910  177.0730  139.5710 C   0  0  2  0  0  3  0  0  0  0  0  0
  192.6880  176.5600  137.2370 C   0  0  2  0  0  3  0  0  0  0  0  0
  191.3040  176.0650  135.1860 N   0  0  0  0  0  2  0  0  0  0  0  0
  188.3540  177.7640  136.5920 C   0  0  0  0  0  0  0  0  0  0  0  0
  189.9470  176.4700  135.3830 C   0  0  0  0  0  0  0  0  0  0  0  0
  190.3150  176.0710  141.5220 C   0  0  0  0  0  2  0  0  0  0  0  0
  188.9260  175.8000  134.7110 C   0  0  0  0  0  3  0  0  0  0  0  0
  187.2950  177.1200  135.9200 C   0  0  0  0  0  0  0  0  0  0  0  0
  189.6400  177.4370  136.2870 N   0  0  0  0  0  0  0  0  0  0  0  0
  188.3990  177.3570  140.7750 C   0  0  0  0  0  2  0  0  0  0  0  0
  189.0810  179.3440  138.3870 C   0  0  0  0  0  2  0  0  0  0  0  0
  188.9120  176.4800  141.9100 C   0  0  2  0  0  3  0  0  0  0  0  0
  190.2630  175.9720  140.0180 C   0  0  2  0  0  3  0  0  0  0  0  0
  191.6480  175.6960  137.9400 C   0  0  0  0  0  2  0  0  0  0  0  0
  187.6000  176.1390  134.9720 C   0  0  0  0  0  3  0  0  0  0  0  0
  192.4540  176.7780  135.7350 C   0  0  2  0  0  3  0  0  0  0  0  0
  188.0820  178.6990  137.5960 O   0  0  0  0  0  0  0  0  0  0  0  0
  193.4640  175.7490  136.2180 C   0  0  1  0  0  3  0  0  0  0  0  0
  188.8800  177.1860  143.2320 C   0  0  0  0  0  0  0  0  0  0  0  0
  189.5660  178.2840  144.9790 N   0  0  0  0  0  0  0  0  0  0  0  0
  187.7530  177.5520  143.9370 C   0  0  1  0  0  3  0  0  0  0  0  0
  189.9700  177.6360  143.8930 N   0  0  0  0  0  0  0  0  0  0  0  0
  188.2180  178.2600  145.0170 C   0  0  0  0  0  0  0  0  0  0  0  0
  186.3870  177.3330  143.5780 N   0  0  0  0  0  2  0  0  0  0  0  0
  185.6160  178.3130  142.8740 C   0  0  0  0  0  0  0  0  0  0  0  0
  186.1760  179.3440  142.4040 O   0  0  0  0  0  0  0  0  0  0  0  0
  184.1550  178.0840  142.6570 C   0  0  0  0  0  3  0  0  0  0  0  0
  183.7590  178.4800  141.2460 C   0  0  0  0  0  1  0  0  0  0  0  0
  183.3360  178.8690  143.6670 C   0  0  0  0  0  1  0  0  0  0  0  0
  187.4000  178.8800  146.0960 C   0  0  0  0  0  2  0  0  0  0  0  0
  187.1050  177.8620  147.1830 C   0  0  0  0  0  2  0  0  0  0  0  0
  189.2050  177.5490  148.2720 O   0  0  0  0  0  1  0  0  0  0  0  0
  187.9480  178.1380  148.4120 C   0  0  0  0  0  2  0  0  0  0  0  0
  185.0800  177.3090  134.9920 O   0  0  0  0  0  1  0  0  0  0  0  0
  185.8480  177.4640  136.1500 C   0  0  1  0  0  3  0  0  0  0  0  0
  185.2310  176.6980  137.3220 C   0  0  0  0  0  2  0  0  0  0  0  0
  184.7050  175.3330  136.9070 C   0  0  0  0  0  2  0  0  0  0  0  0
  182.9290  175.2620  137.0500 S   0  0  0  0  0  0  0  0  0  0  0  0
  182.3090  175.5390  135.7070 O   0  0  0  0  0  0  0  0  0  0  0  0
  182.5530  173.8730  137.4850 O   0  0  0  0  0  0  0  0  0  0  0  0
  179.4800  176.7520  139.7880 C   0  0  0  0  0  2  0  0  0  0  0  0
  182.3330  176.4410  138.2580 C   0  0  2  0  0  3  0  0  0  0  0  0
  180.0850  177.4350  137.4250 C   0  0  0  0  0  2  0  0  0  0  0  0
  180.8660  176.6560  140.2240 N   0  0  0  0  0  2  0  0  0  0  0  0
  181.5130  175.7130  139.3260 C   0  0  0  0  0  2  0  0  0  0  0  0
  181.9270  178.8210  138.1700 O   0  0  0  0  0  1  0  0  0  0  0  0
  181.6050  177.6050  137.5630 C   0  0  1  0  0  3  0  0  0  0  0  0
  179.3280  177.8100  138.7000 C   0  0  0  0  0  2  0  0  0  0  0  0
  194.8150  176.2830  136.1280 N   0  0  0  0  0  2  0  0  0  0  0  0
  195.8760  175.1600  137.7150 O   0  0  0  0  0  1  0  0  0  0  0  0
  195.7140  175.2330  136.3700 N   0  0  0  0  0  0  0  0  0  0  0  0
  197.2490  175.7440  135.7200 Cl  0  0  0  0  0  0  0  0  0  0  0  0
  3  1  1  1  0  0  0
  3 15  1  0  0  0  0
  3 12  1  0  0  0  0
  4 16  1  1  0  0  0
  5  7  1  0  0  0  0
  6 19  1  0  0  0  0
  7 11  1  0  0  0  0
  8 14  1  0  0  0  0
  9 17  1  0  0  0  0
  9  7  2  0  0  0  0
 10 37  1  0  0  0  0
 10  6  1  0  0  0  0
 11  6  2  0  0  0  0
 12 14  1  0  0  0  0
 13  1  1  0  0  0  0
 14 21  1  1  0  0  0
 15  2  1  6  0  0  0
 15  8  1  0  0  0  0
 16  2  1  0  0  0  0
 17 10  2  0  0  0  0
 18  5  1  1  0  0  0
 18 20  1  0  0  0  0
 18  4  1  0  0  0  0
 19 13  1  0  0  0  0
 20 51  1  6  0  0  0
 20  4  1  0  0  0  0
 21 24  2  0  0  0  0
 21 23  1  0  0  0  0
 22 25  2  0  0  0  0
 23 26  1  6  0  0  0
 23 25  1  0  0  0  0
 24 22  1  0  0  0  0
 25 32  1  0  0  0  0
 27 26  1  0  0  0  0
 28 27  2  0  0  0  0
 29 27  1  0  0  0  0
 29 31  1  0  0  0  0
 30 29  1  0  0  0  0
 32 33  1  0  0  0  0
 33 35  1  0  0  0  0
 34 35  1  0  0  0  0
 37 36  1  6  0  0  0
 37 38  1  0  0  0  0
 39 40  1  0  0  0  0
 39 38  1  0  0  0  0
 40 42  2  0  0  0  0
 41 40  2  0  0  0  0
 43 46  1  0  0  0  0
 44 40  1  6  0  0  0
 44 47  1  0  0  0  0
 45 49  1  0  0  0  0
 45 50  1  0  0  0  0
 47 46  1  0  0  0  0
 49 48  1  1  0  0  0
 49 44  1  0  0  0  0
 50 43  1  0  0  0  0
 51 53  1  0  0  0  0
 53 52  1  0  0  0  0
 54 53  1  0  0  0  0
M  END
>  <MODEL>
5

>  <REMARK>
 VINA RESULT:      -4.9      3.878      8.391
  Name = 
  13 active torsions:
  status: ('A' for Active; 'I' for Inactive)
    1  A    between atoms: C_1  and  C_39
    2  A    between atoms: S_4  and  C_20
    3  A    between atoms: S_4  and  C_27
    4  A    between atoms: C_6  and  C_27
    5  A    between atoms: C_6  and  C_37
    6  A    between atoms: C_10  and  C_47
    7  A    between atoms: C_13  and  N_46
    8  A    between atoms: C_15  and  C_43
    9  A    between atoms: N_18  and  N_30
   10  A    between atoms: N_18  and  C_51
   11  A    between atoms: C_26  and  C_43
   12  A    between atoms: C_26  and  C_54
   13  A    between atoms: C_33  and  C_37
                            x       y       z     vdW  Elec       q    Type
                         _______ _______ _______ _____ _____    ______ ____

>  <TORSDO>
F 13

$$$$
=
 OpenBabel11042410073D

 54 59  0  0  1  0  0  0  0  0999 V2000
  189.3110  178.6790  139.8960 C   0  0  0  0  0  2  0  0  0  0  0  0
  190.6870  176.3110  140.7740 C   0  0  0  0  0  2  0  0  0  0  0  0
  188.4320  177.4600  140.2010 C   0  0  2  0  0  3  0  0  0  0  0  0
  192.3010  176.6320  138.9370 C   0  0  2  0  0  3  0  0  0  0  0  0
  191.5060  176.0530  136.6130 N   0  0  0  0  0  2  0  0  0  0  0  0
  188.3950  177.9770  137.0450 C   0  0  0  0  0  0  0  0  0  0  0  0
  190.1750  176.5320  136.4020 C   0  0  0  0  0  0  0  0  0  0  0  0
  188.8170  176.5550  142.4130 C   0  0  0  0  0  2  0  0  0  0  0  0
  189.3390  175.8610  135.5110 C   0  0  0  0  0  3  0  0  0  0  0  0
  187.5230  177.3340  136.1420 C   0  0  0  0  0  0  0  0  0  0  0  0
  189.6920  177.5730  137.1290 N   0  0  0  0  0  0  0  0  0  0  0  0
  187.2630  177.8680  141.0910 C   0  0  0  0  0  2  0  0  0  0  0  0
  188.6970  179.6470  138.8800 C   0  0  0  0  0  2  0  0  0  0  0  0
  187.3890  177.0520  142.3720 C   0  0  2  0  0  3  0  0  0  0  0  0
  189.1730  176.3520  140.9620 C   0  0  2  0  0  3  0  0  0  0  0  0
  191.0570  175.8680  139.3700 C   0  0  0  0  0  2  0  0  0  0  0  0
  188.0160  176.2750  135.3730 C   0  0  0  0  0  3  0  0  0  0  0  0
  192.5030  176.7520  137.4190 C   0  0  2  0  0  3  0  0  0  0  0  0
  187.9150  178.9930  137.8790 O   0  0  0  0  0  0  0  0  0  0  0  0
  193.2750  175.7180  138.2220 C   0  0  1  0  0  3  0  0  0  0  0  0
  187.0390  177.8510  143.5910 C   0  0  0  0  0  0  0  0  0  0  0  0
  185.9010  179.1000  144.9580 N   0  0  0  0  0  0  0  0  0  0  0  0
  187.7420  177.8810  144.7770 C   0  0  1  0  0  3  0  0  0  0  0  0
  185.9280  178.6080  143.7260 N   0  0  0  0  0  0  0  0  0  0  0  0
  186.9870  178.6570  145.6220 C   0  0  0  0  0  0  0  0  0  0  0  0
  188.9450  177.1810  145.0990 N   0  0  0  0  0  2  0  0  0  0  0  0
  190.2370  177.7880  144.9770 C   0  0  0  0  0  0  0  0  0  0  0  0
  190.3380  179.0230  144.7330 O   0  0  0  0  0  0  0  0  0  0  0  0
  191.4630  176.9590  145.1890 C   0  0  0  0  0  3  0  0  0  0  0  0
  191.5300  175.8390  144.1660 C   0  0  0  0  0  1  0  0  0  0  0  0
  191.4800  176.3810  146.5940 C   0  0  0  0  0  1  0  0  0  0  0  0
  187.3060  179.0050  147.0350 C   0  0  0  0  0  2  0  0  0  0  0  0
  187.0180  177.8260  147.9460 C   0  0  0  0  0  2  0  0  0  0  0  0
  189.2180  178.2460  148.7690 O   0  0  0  0  0  1  0  0  0  0  0  0
  188.3120  177.2290  148.4660 C   0  0  0  0  0  2  0  0  0  0  0  0
  185.7180  177.7200  134.5940 O   0  0  0  0  0  1  0  0  0  0  0  0
  186.0930  177.7570  135.9400 C   0  0  1  0  0  3  0  0  0  0  0  0
  185.1090  176.9650  136.8040 C   0  0  0  0  0  2  0  0  0  0  0  0
  184.0230  176.2960  135.9760 C   0  0  0  0  0  2  0  0  0  0  0  0
  182.8090  175.5180  137.0240 S   0  0  0  0  0  0  0  0  0  0  0  0
  181.8670  174.7050  136.1770 O   0  0  0  0  0  0  0  0  0  0  0  0
  183.5310  174.5990  137.9700 O   0  0  0  0  0  0  0  0  0  0  0  0
  182.6460  179.7380  138.9680 C   0  0  0  0  0  2  0  0  0  0  0  0
  181.8960  176.7360  137.9660 C   0  0  2  0  0  3  0  0  0  0  0  0
  183.3550  177.5190  139.9650 C   0  0  0  0  0  2  0  0  0  0  0  0
  181.5450  179.1610  138.2090 N   0  0  0  0  0  2  0  0  0  0  0  0
  182.1260  178.1260  137.3680 C   0  0  0  0  0  2  0  0  0  0  0  0
  181.0650  176.7740  140.2330 O   0  0  0  0  0  1  0  0  0  0  0  0
  182.2210  176.6130  139.4650 C   0  0  1  0  0  3  0  0  0  0  0  0
  182.8900  178.9480  140.2500 C   0  0  0  0  0  2  0  0  0  0  0  0
  194.6290  176.1840  138.4810 N   0  0  0  0  0  2  0  0  0  0  0  0
  196.5600  175.2260  137.9670 O   0  0  0  0  0  1  0  0  0  0  0  0
  195.4390  175.0610  138.7130 N   0  0  0  0  0  0  0  0  0  0  0  0
  194.5930  173.6990  138.0280 Cl  0  0  0  0  0  0  0  0  0  0  0  0
  3  1  1  1  0  0  0
  3 15  1  0  0  0  0
  3 12  1  0  0  0  0
  4 16  1  6  0  0  0
  6 11  2  0  0  0  0
  6 19  1  0  0  0  0
  7  5  1  0  0  0  0
  7 11  1  0  0  0  0
  9  7  2  0  0  0  0
 10  6  1  0  0  0  0
 12 14  1  0  0  0  0
 13  1  1  0  0  0  0
 14  8  1  0  0  0  0
 14 21  1  1  0  0  0
 15  2  1  1  0  0  0
 15  8  1  0  0  0  0
 16  2  1  0  0  0  0
 17  9  1  0  0  0  0
 17 10  2  0  0  0  0
 18  5  1  6  0  0  0
 18 20  1  0  0  0  0
 18  4  1  0  0  0  0
 19 13  1  0  0  0  0
 20 51  1  1  0  0  0
 20  4  1  0  0  0  0
 21 24  2  0  0  0  0
 21 23  1  0  0  0  0
 22 25  2  0  0  0  0
 23 26  1  1  0  0  0
 23 25  1  0  0  0  0
 24 22  1  0  0  0  0
 25 32  1  0  0  0  0
 27 26  1  0  0  0  0
 27 29  1  0  0  0  0
 28 27  2  0  0  0  0
 29 31  1  0  0  0  0
 30 29  1  0  0  0  0
 32 33  1  0  0  0  0
 33 35  1  0  0  0  0
 35 34  1  0  0  0  0
 37 36  1  6  0  0  0
 37 10  1  0  0  0  0
 37 38  1  0  0  0  0
 39 38  1  0  0  0  0
 39 40  1  0  0  0  0
 40 42  2  0  0  0  0
 41 40  2  0  0  0  0
 43 50  1  0  0  0  0
 44 40  1  6  0  0  0
 44 49  1  0  0  0  0
 45 50  1  0  0  0  0
 46 43  1  0  0  0  0
 47 44  1  0  0  0  0
 47 46  1  0  0  0  0
 49 45  1  0  0  0  0
 49 48  1  1  0  0  0
 51 53  1  0  0  0  0
 52 53  1  0  0  0  0
 54 53  1  0  0  0  0
M  END
>  <MODEL>
6

>  <REMARK>
 VINA RESULT:      -4.2      3.773      8.082
  Name = 
  13 active torsions:
  status: ('A' for Active; 'I' for Inactive)
    1  A    between atoms: C_1  and  C_39
    2  A    between atoms: S_4  and  C_20
    3  A    between atoms: S_4  and  C_27
    4  A    between atoms: C_6  and  C_27
    5  A    between atoms: C_6  and  C_37
    6  A    between atoms: C_10  and  C_47
    7  A    between atoms: C_13  and  N_46
    8  A    between atoms: C_15  and  C_43
    9  A    between atoms: N_18  and  N_30
   10  A    between atoms: N_18  and  C_51
   11  A    between atoms: C_26  and  C_43
   12  A    between atoms: C_26  and  C_54
   13  A    between atoms: C_33  and  C_37
                            x       y       z     vdW  Elec       q    Type
                         _______ _______ _______ _____ _____    ______ ____

>  <TORSDO>
F 13

$$$$
=
 OpenBabel11042410073D

 54 59  0  0  1  0  0  0  0  0999 V2000
  185.8920  177.8550  137.0920 C   0  0  0  0  0  2  0  0  0  0  0  0
  183.7010  176.2980  136.0700 C   0  0  0  0  0  2  0  0  0  0  0  0
  185.6730  176.4850  137.7450 C   0  0  2  0  0  3  0  0  0  0  0  0
  182.2820  178.3120  136.1900 C   0  0  2  0  0  3  0  0  0  0  0  0
  181.5120  179.0210  138.4860 N   0  0  0  0  0  0  0  0  0  0  0  0
  184.9160  178.7560  139.8670 C   0  0  0  0  0  0  0  0  0  0  0  0
  182.5810  178.9200  139.4300 C   0  0  0  0  0  0  0  0  0  0  0  0
  185.6030  174.6780  136.1350 C   0  0  0  0  0  2  0  0  0  0  0  0
  182.2900  178.6700  140.7710 C   0  0  0  0  0  3  0  0  0  0  0  0
  184.6620  178.5170  141.2320 C   0  0  2  0  0  3  0  0  0  0  0  0
  183.8740  178.9710  139.0170 N   0  0  0  0  0  0  0  0  0  0  0  0
  186.9940  175.7270  137.8230 C   0  0  0  0  0  2  0  0  0  0  0  0
  186.5800  178.8750  138.0050 C   0  0  0  0  0  2  0  0  0  0  0  0
  186.8060  174.4450  137.0230 C   0  0  2  0  0  3  0  0  0  0  0  0
  184.7160  175.5820  136.9550 C   0  0  2  0  0  3  0  0  0  0  0  0
  182.6540  177.0160  136.9000 C   0  0  0  0  0  2  0  0  0  0  0  0
  183.3360  178.4840  141.6730 C   0  0  0  0  0  3  0  0  0  0  0  0
  181.6940  179.4090  137.0890 C   0  0  2  0  0  3  0  0  0  0  0  0
  186.2280  178.7260  139.3810 O   0  0  0  0  0  0  0  0  0  0  0  0
  180.7850  178.5420  136.2340 C   0  0  1  0  0  3  0  0  0  0  0  0
  188.0250  174.0870  136.2280 C   0  0  0  0  0  0  0  0  0  0  0  0
  189.2560  173.3500  134.5950 N   0  0  0  0  0  0  0  0  0  0  0  0
  189.3250  174.4480  136.5180 C   0  0  1  0  0  3  0  0  0  0  0  0
  188.0140  173.4130  135.0570 N   0  0  0  0  0  0  0  0  0  0  0  0
  190.0690  173.9890  135.4600 C   0  0  0  0  0  0  0  0  0  0  0  0
  189.7920  175.2190  137.6260 N   0  0  0  0  0  2  0  0  0  0  0  0
  190.0080  176.6320  137.5370 C   0  0  0  0  0  0  0  0  0  0  0  0
  189.6330  177.2670  136.5120 O   0  0  0  0  0  0  0  0  0  0  0  0
  190.6350  177.3550  138.6850 C   0  0  0  0  0  3  0  0  0  0  0  0
  191.5960  176.4430  139.4260 C   0  0  0  0  0  1  0  0  0  0  0  0
  189.5700  177.8720  139.6370 C   0  0  0  0  0  1  0  0  0  0  0  0
  191.5420  174.1220  135.2830 C   0  0  0  0  0  2  0  0  0  0  0  0
  192.2720  173.1810  136.2240 C   0  0  0  0  0  2  0  0  0  0  0  0
  194.0270  174.5730  135.3990 O   0  0  0  0  0  1  0  0  0  0  0  0
  193.7540  173.5040  136.2530 C   0  0  0  0  0  2  0  0  0  0  0  0
  186.8900  179.0920  141.9490 O   0  0  0  0  0  1  0  0  0  0  0  0
  185.7560  178.3320  142.2500 C   0  0  1  0  0  3  0  0  0  0  0  0
  185.2880  178.5920  143.6830 C   0  0  0  0  0  2  0  0  0  0  0  0
  186.4240  179.0420  144.5890 C   0  0  0  0  0  2  0  0  0  0  0  0
  187.2720  177.6400  145.2920 S   0  0  0  0  0  0  0  0  0  0  0  0
  186.4770  177.1080  146.4530 O   0  0  0  0  0  0  0  0  0  0  0  0
  187.3670  176.5750  144.2350 O   0  0  0  0  0  0  0  0  0  0  0  0
  191.7420  176.4700  145.8060 C   0  0  0  0  0  2  0  0  0  0  0  0
  188.9200  178.0880  145.8280 C   0  0  2  0  0  3  0  0  0  0  0  0
  189.8110  176.2510  147.4310 C   0  0  0  0  0  2  0  0  0  0  0  0
  191.3040  177.7650  145.3020 N   0  0  0  0  0  2  0  0  0  0  0  0
  189.9470  177.5760  144.8150 C   0  0  0  0  0  2  0  0  0  0  0  0
  189.8600  178.6080  147.9910 O   0  0  0  0  0  1  0  0  0  0  0  0
  189.1580  177.6330  147.2780 C   0  0  1  0  0  3  0  0  0  0  0  0
  191.3310  176.2920  147.2640 C   0  0  0  0  0  2  0  0  0  0  0  0
  180.3880  179.2570  135.0300 N   0  0  0  0  0  2  0  0  0  0  0  0
  179.0230  180.9470  134.5980 O   0  0  0  0  0  1  0  0  0  0  0  0
  179.0870  179.7460  135.2250 N   0  0  0  0  0  0  0  0  0  0  0  0
  178.9380  180.0750  136.9300 Cl  0  0  0  0  0  0  0  0  0  0  0  0
  1 13  1  0  0  0  0
  2 16  1  0  0  0  0
  3  1  1  6  0  0  0
  3 12  1  0  0  0  0
  4 20  1  0  0  0  0
  4 16  1  1  0  0  0
  4 18  1  0  0  0  0
  5  7  2  0  0  0  0
  6 10  1  0  0  0  0
  7  9  1  0  0  0  0
  8 15  1  0  0  0  0
  8 14  1  0  0  0  0
  9 17  2  0  0  0  0
 10 17  1  0  0  0  0
 10 37  1  1  0  0  0
 11  7  1  0  0  0  0
 11  6  2  0  0  0  0
 13 19  1  0  0  0  0
 14 21  1  6  0  0  0
 14 12  1  0  0  0  0
 15  2  1  6  0  0  0
 15  3  1  0  0  0  0
 18  5  1  1  0  0  0
 19  6  1  0  0  0  0
 20 51  1  6  0  0  0
 20 18  1  0  0  0  0
 21 23  1  0  0  0  0
 22 24  1  0  0  0  0
 22 25  2  0  0  0  0
 23 26  1  6  0  0  0
 24 21  2  0  0  0  0
 25 23  1  0  0  0  0
 27 26  1  0  0  0  0
 27 29  1  0  0  0  0
 28 27  2  0  0  0  0
 29 30  1  0  0  0  0
 29 31  1  0  0  0  0
 32 25  1  0  0  0  0
 32 33  1  0  0  0  0
 33 35  1  0  0  0  0
 34 35  1  0  0  0  0
 37 36  1  6  0  0  0
 37 38  1  0  0  0  0
 38 39  1  0  0  0  0
 39 40  1  0  0  0  0
 40 41  2  0  0  0  0
 42 40  2  0  0  0  0
 43 50  1  0  0  0  0
 44 40  1  6  0  0  0
 44 49  1  0  0  0  0
 46 43  1  0  0  0  0
 47 46  1  0  0  0  0
 47 44  1  0  0  0  0
 49 45  1  0  0  0  0
 49 48  1  6  0  0  0
 50 45  1  0  0  0  0
 51 53  1  0  0  0  0
 52 53  1  0  0  0  0
 53 54  1  0  0  0  0
M  END
>  <MODEL>
7

>  <REMARK>
 VINA RESULT:      -4.2      3.274      7.945
  Name = 
  13 active torsions:
  status: ('A' for Active; 'I' for Inactive)
    1  A    between atoms: C_1  and  C_39
    2  A    between atoms: S_4  and  C_20
    3  A    between atoms: S_4  and  C_27
    4  A    between atoms: C_6  and  C_27
    5  A    between atoms: C_6  and  C_37
    6  A    between atoms: C_10  and  C_47
    7  A    between atoms: C_13  and  N_46
    8  A    between atoms: C_15  and  C_43
    9  A    between atoms: N_18  and  N_30
   10  A    between atoms: N_18  and  C_51
   11  A    between atoms: C_26  and  C_43
   12  A    between atoms: C_26  and  C_54
   13  A    between atoms: C_33  and  C_37
                            x       y       z     vdW  Elec       q    Type
                         _______ _______ _______ _____ _____    ______ ____

>  <TORSDO>
F 13

$$$$
=
 OpenBabel11042410073D

 54 59  0  0  1  0  0  0  0  0999 V2000
  189.1860  177.2880  136.7990 C   0  0  0  0  0  2  0  0  0  0  0  0
  191.3260  176.8260  138.6640 C   0  0  0  0  0  2  0  0  0  0  0  0
  188.9050  176.2720  137.9120 C   0  0  2  0  0  3  0  0  0  0  0  0
  192.8770  176.6380  136.7560 C   0  0  2  0  0  3  0  0  0  0  0  0
  192.7670  174.5070  135.4090 N   0  0  0  0  0  2  0  0  0  0  0  0
  189.1000  174.7050  135.1310 C   0  0  0  0  0  0  0  0  0  0  0  0
  191.4080  174.1220  135.1840 C   0  0  0  0  0  0  0  0  0  0  0  0
  189.3260  177.1630  140.1240 C   0  0  0  0  0  2  0  0  0  0  0  0
  191.0950  172.7740  135.0240 C   0  0  0  0  0  3  0  0  0  0  0  0
  188.7450  173.3520  134.9520 C   0  0  0  0  0  0  0  0  0  0  0  0
  190.4150  175.0480  135.2180 N   0  0  0  0  0  0  0  0  0  0  0  0
  187.5610  176.5730  138.5670 C   0  0  0  0  0  2  0  0  0  0  0  0
  188.3610  177.0600  135.5280 C   0  0  0  0  0  2  0  0  0  0  0  0
  187.8480  176.8510  140.0370 C   0  0  2  0  0  3  0  0  0  0  0  0
  189.9410  176.3090  139.0440 C   0  0  2  0  0  3  0  0  0  0  0  0
  192.0530  175.8450  137.7620 C   0  0  0  0  0  2  0  0  0  0  0  0
  189.7610  172.3940  134.8940 C   0  0  0  0  0  3  0  0  0  0  0  0
  193.2230  175.8940  135.4580 C   0  0  2  0  0  3  0  0  0  0  0  0
  188.1050  175.6800  135.2630 O   0  0  0  0  0  0  0  0  0  0  0  0
  194.2480  176.0180  136.5730 C   0  0  1  0  0  3  0  0  0  0  0  0
  187.0080  177.9680  140.5790 C   0  0  0  0  0  0  0  0  0  0  0  0
  185.5900  179.6150  140.6390 N   0  0  0  0  0  0  0  0  0  0  0  0
  186.7970  178.2600  141.9100 C   0  0  1  0  0  3  0  0  0  0  0  0
  186.2690  178.8130  139.8270 N   0  0  0  0  0  0  0  0  0  0  0  0
  185.8830  179.2850  141.9130 C   0  0  0  0  0  0  0  0  0  0  0  0
  187.3320  177.5840  143.0500 N   0  0  0  0  0  2  0  0  0  0  0  0
  188.6570  177.8330  143.5320 C   0  0  0  0  0  0  0  0  0  0  0  0
  189.3380  178.7840  143.0550 O   0  0  0  0  0  0  0  0  0  0  0  0
  189.2090  176.9900  144.6370 C   0  0  0  0  0  3  0  0  0  0  0  0
  188.7510  177.5150  145.9860 C   0  0  0  0  0  1  0  0  0  0  0  0
  190.7270  176.9620  144.5780 C   0  0  0  0  0  1  0  0  0  0  0  0
  185.3170  179.9710  143.1070 C   0  0  0  0  0  2  0  0  0  0  0  0
  184.5470  178.9840  143.9650 C   0  0  0  0  0  2  0  0  0  0  0  0
  182.2600  178.6670  144.5680 O   0  0  0  0  0  1  0  0  0  0  0  0
  183.1140  178.8670  143.4830 C   0  0  0  0  0  2  0  0  0  0  0  0
  187.2000  171.5050  134.8890 O   0  0  0  0  0  1  0  0  0  0  0  0
  187.3210  172.8930  134.7840 C   0  0  1  0  0  3  0  0  0  0  0  0
  186.3500  173.6000  135.7310 C   0  0  0  0  0  2  0  0  0  0  0  0
  185.1350  174.1550  135.0040 C   0  0  0  0  0  2  0  0  0  0  0  0
  183.9180  174.7560  136.1610 S   0  0  0  0  0  0  0  0  0  0  0  0
  184.6160  175.3880  137.3340 O   0  0  0  0  0  0  0  0  0  0  0  0
  183.0910  175.8000  135.4640 O   0  0  0  0  0  0  0  0  0  0  0  0
  181.1830  171.1450  135.1170 C   0  0  0  0  0  2  0  0  0  0  0  0
  182.8510  173.4320  136.7190 C   0  0  2  0  0  3  0  0  0  0  0  0
  180.5900  173.5850  135.4530 C   0  0  0  0  0  2  0  0  0  0  0  0
  182.1570  171.1270  136.1990 N   0  0  0  0  0  2  0  0  0  0  0  0
  183.1240  172.1700  135.8960 C   0  0  0  0  0  2  0  0  0  0  0  0
  180.7260  173.4070  137.8660 O   0  0  0  0  0  1  0  0  0  0  0  0
  181.3830  173.8920  136.7320 C   0  0  1  0  0  3  0  0  0  0  0  0
  180.0710  172.1470  135.4080 C   0  0  0  0  0  2  0  0  0  0  0  0
  195.2020  177.0740  136.2700 N   0  0  0  0  0  2  0  0  0  0  0  0
  197.1790  176.0770  136.3150 O   0  0  0  0  0  1  0  0  0  0  0  0
  196.2180  176.5270  135.4710 N   0  0  0  0  0  0  0  0  0  0  0  0
  196.9210  177.8600  134.5940 Cl  0  0  0  0  0  0  0  0  0  0  0  0
  3  1  1  6  0  0  0
  3 12  1  0  0  0  0
  3 15  1  0  0  0  0
  4 16  1  1  0  0  0
  6 11  2  0  0  0  0
  6 19  1  0  0  0  0
  7 11  1  0  0  0  0
  7  5  1  0  0  0  0
  9  7  2  0  0  0  0
 10  6  1  0  0  0  0
 12 14  1  0  0  0  0
 13  1  1  0  0  0  0
 14  8  1  0  0  0  0
 14 21  1  6  0  0  0
 15  2  1  6  0  0  0
 15  8  1  0  0  0  0
 16  2  1  0  0  0  0
 17 10  2  0  0  0  0
 17  9  1  0  0  0  0
 18  5  1  1  0  0  0
 18 20  1  0  0  0  0
 18  4  1  0  0  0  0
 19 13  1  0  0  0  0
 20 51  1  6  0  0  0
 20  4  1  0  0  0  0
 21 23  1  0  0  0  0
 22 25  2  0  0  0  0
 23 25  1  0  0  0  0
 23 26  1  1  0  0  0
 24 21  2  0  0  0  0
 24 22  1  0  0  0  0
 25 32  1  0  0  0  0
 26 27  1  0  0  0  0
 27 29  1  0  0  0  0
 28 27  2  0  0  0  0
 29 30  1  0  0  0  0
 31 29  1  0  0  0  0
 32 33  1  0  0  0  0
 35 33  1  0  0  0  0
 35 34  1  0  0  0  0
 37 36  1  1  0  0  0
 37 10  1  0  0  0  0
 37 38  1  0  0  0  0
 39 38  1  0  0  0  0
 39 40  1  0  0  0  0
 40 41  2  0  0  0  0
 42 40  2  0  0  0  0
 43 50  1  0  0  0  0
 43 46  1  0  0  0  0
 44 40  1  6  0  0  0
 44 49  1  0  0  0  0
 45 49  1  0  0  0  0
 47 46  1  0  0  0  0
 47 44  1  0  0  0  0
 49 48  1  1  0  0  0
 50 45  1  0  0  0  0
 53 51  1  0  0  0  0
 53 52  1  0  0  0  0
 54 53  1  0  0  0  0
M  END
>  <MODEL>
8

>  <REMARK>
 VINA RESULT:      -4.1      4.430      8.793
  Name = 
  13 active torsions:
  status: ('A' for Active; 'I' for Inactive)
    1  A    between atoms: C_1  and  C_39
    2  A    between atoms: S_4  and  C_20
    3  A    between atoms: S_4  and  C_27
    4  A    between atoms: C_6  and  C_27
    5  A    between atoms: C_6  and  C_37
    6  A    between atoms: C_10  and  C_47
    7  A    between atoms: C_13  and  N_46
    8  A    between atoms: C_15  and  C_43
    9  A    between atoms: N_18  and  N_30
   10  A    between atoms: N_18  and  C_51
   11  A    between atoms: C_26  and  C_43
   12  A    between atoms: C_26  and  C_54
   13  A    between atoms: C_33  and  C_37
                            x       y       z     vdW  Elec       q    Type
                         _______ _______ _______ _____ _____    ______ ____

>  <TORSDO>
F 13

$$$$
=
 OpenBabel11042410073D

 54 59  0  0  1  0  0  0  0  0999 V2000
  189.3970  178.3430  139.9700 C   0  0  0  0  0  2  0  0  0  0  0  0
  191.0060  176.0110  139.4770 C   0  0  0  0  0  2  0  0  0  0  0  0
  188.8630  177.0210  140.5360 C   0  0  2  0  0  3  0  0  0  0  0  0
  191.2080  176.7140  137.1220 C   0  0  2  0  0  3  0  0  0  0  0  0
  189.1800  176.3810  135.6580 N   0  0  0  0  0  0  0  0  0  0  0  0
  186.9560  177.9470  138.1410 C   0  0  0  0  0  0  0  0  0  0  0  0
  187.9890  176.7630  136.3520 C   0  0  0  0  0  0  0  0  0  0  0  0
  190.4840  175.8690  141.9170 C   0  0  0  0  0  2  0  0  0  0  0  0
  186.7810  176.1450  136.0330 C   0  0  0  0  0  3  0  0  0  0  0  0
  185.7130  177.3550  137.8380 C   0  0  2  0  0  3  0  0  0  0  0  0
  188.0440  177.6520  137.3790 N   0  0  0  0  0  0  0  0  0  0  0  0
  188.4600  177.2020  141.9950 C   0  0  0  0  0  2  0  0  0  0  0  0
  188.3070  179.3790  139.6820 C   0  0  0  0  0  2  0  0  0  0  0  0
  189.3170  176.2380  142.8050 C   0  0  2  0  0  3  0  0  0  0  0  0
  189.9030  175.8920  140.5250 C   0  0  2  0  0  3  0  0  0  0  0  0
  190.4620  175.7920  138.0770 C   0  0  0  0  0  2  0  0  0  0  0  0
  185.6410  176.4560  136.7700 C   0  0  0  0  0  3  0  0  0  0  0  0
  190.4670  177.0520  135.8200 C   0  0  2  0  0  3  0  0  0  0  0  0
  187.0770  178.7970  139.2460 O   0  0  0  0  0  0  0  0  0  0  0  0
  191.5570  175.9920  135.8350 C   0  0  1  0  0  3  0  0  0  0  0  0
  189.7700  176.8340  144.1040 C   0  0  0  0  0  0  0  0  0  0  0  0
  191.0720  177.3860  145.7540 N   0  0  0  0  0  0  0  0  0  0  0  0
  189.0610  177.7200  144.8880 C   0  0  1  0  0  3  0  0  0  0  0  0
  190.9870  176.6430  144.6580 N   0  0  0  0  0  0  0  0  0  0  0  0
  189.9170  178.0640  145.9050 C   0  0  0  0  0  0  0  0  0  0  0  0
  187.7540  178.2470  144.6500 N   0  0  0  0  0  2  0  0  0  0  0  0
  186.5670  177.5610  145.0630 C   0  0  0  0  0  0  0  0  0  0  0  0
  186.6490  176.5380  145.8000 O   0  0  0  0  0  0  0  0  0  0  0  0
  185.2300  178.0920  144.6560 C   0  0  0  0  0  3  0  0  0  0  0  0
  185.3670  179.0180  143.4610 C   0  0  0  0  0  1  0  0  0  0  0  0
  184.5750  178.8280  145.8120 C   0  0  0  0  0  1  0  0  0  0  0  0
  189.6340  179.0000  147.0290 C   0  0  0  0  0  2  0  0  0  0  0  0
  189.4400  178.2260  148.3200 C   0  0  0  0  0  2  0  0  0  0  0  0
  187.1730  178.9490  148.1360 O   0  0  0  0  0  1  0  0  0  0  0  0
  187.9770  177.8730  148.5120 C   0  0  0  0  0  2  0  0  0  0  0  0
  184.0060  178.9770  138.3490 O   0  0  0  0  0  1  0  0  0  0  0  0
  184.4480  177.6730  138.5890 C   0  0  1  0  0  3  0  0  0  0  0  0
  183.3300  176.6620  138.3300 C   0  0  0  0  0  2  0  0  0  0  0  0
  182.4290  176.4730  139.5410 C   0  0  0  0  0  2  0  0  0  0  0  0
  180.9420  177.4440  139.3880 S   0  0  0  0  0  0  0  0  0  0  0  0
  180.8860  178.0560  138.0150 O   0  0  0  0  0  0  0  0  0  0  0  0
  179.7660  176.5230  139.5600 O   0  0  0  0  0  0  0  0  0  0  0  0
  181.5180  178.7040  143.8260 C   0  0  0  0  0  2  0  0  0  0  0  0
  180.8770  178.7240  140.6370 C   0  0  2  0  0  3  0  0  0  0  0  0
  179.4410  177.8820  142.6300 C   0  0  0  0  0  2  0  0  0  0  0  0
  181.9740  179.5050  142.6980 N   0  0  0  0  0  2  0  0  0  0  0  0
  182.0840  178.5960  141.5680 C   0  0  0  0  0  2  0  0  0  0  0  0
  179.0650  180.0250  141.5640 O   0  0  0  0  0  1  0  0  0  0  0  0
  179.5100  178.7190  141.3440 C   0  0  1  0  0  3  0  0  0  0  0  0
  179.9960  178.6220  143.8490 C   0  0  0  0  0  2  0  0  0  0  0  0
  192.8020  176.5380  135.3160 N   0  0  0  0  0  2  0  0  0  0  0  0
  194.6890  177.0270  136.3680 O   0  0  0  0  0  1  0  0  0  0  0  0
  193.8590  175.9980  136.0670 N   0  0  0  0  0  0  0  0  0  0  0  0
  194.7440  174.9550  134.9860 Cl  0  0  0  0  0  0  0  0  0  0  0  0
  3  1  1  1  0  0  0
  3 12  1  0  0  0  0
  4 16  1  1  0  0  0
  5  7  2  0  0  0  0
  6 19  1  0  0  0  0
  7 11  1  0  0  0  0
  8 14  1  0  0  0  0
  9  7  1  0  0  0  0
  9 17  2  0  0  0  0
 10  6  1  0  0  0  0
 10 37  1  6  0  0  0
 11  6  2  0  0  0  0
 12 14  1  0  0  0  0
 13  1  1  0  0  0  0
 14 21  1  1  0  0  0
 15  2  1  6  0  0  0
 15  3  1  0  0  0  0
 15  8  1  0  0  0  0
 16  2  1  0  0  0  0
 17 10  1  0  0  0  0
 18  5  1  1  0  0  0
 18 20  1  0  0  0  0
 18  4  1  0  0  0  0
 19 13  1  0  0  0  0
 20 51  1  6  0  0  0
 20  4  1  0  0  0  0
 21 24  2  0  0  0  0
 21 23  1  0  0  0  0
 22 25  2  0  0  0  0
 23 26  1  6  0  0  0
 23 25  1  0  0  0  0
 24 22  1  0  0  0  0
 25 32  1  0  0  0  0
 26 27  1  0  0  0  0
 27 28  2  0  0  0  0
 29 27  1  0  0  0  0
 29 31  1  0  0  0  0
 30 29  1  0  0  0  0
 32 33  1  0  0  0  0
 33 35  1  0  0  0  0
 34 35  1  0  0  0  0
 37 36  1  6  0  0  0
 38 37  1  0  0  0  0
 38 39  1  0  0  0  0
 40 39  1  0  0  0  0
 40 42  2  0  0  0  0
 41 40  2  0  0  0  0
 43 50  1  0  0  0  0
 44 40  1  6  0  0  0
 44 49  1  0  0  0  0
 44 47  1  0  0  0  0
 45 50  1  0  0  0  0
 46 43  1  0  0  0  0
 47 46  1  0  0  0  0
 49 48  1  1  0  0  0
 49 45  1  0  0  0  0
 51 53  1  0  0  0  0
 53 52  1  0  0  0  0
 54 53  1  0  0  0  0
M  END
>  <MODEL>
9

>  <REMARK>
 VINA RESULT:      -4.1      4.087      8.202
  Name = 
  13 active torsions:
  status: ('A' for Active; 'I' for Inactive)
    1  A    between atoms: C_1  and  C_39
    2  A    between atoms: S_4  and  C_20
    3  A    between atoms: S_4  and  C_27
    4  A    between atoms: C_6  and  C_27
    5  A    between atoms: C_6  and  C_37
    6  A    between atoms: C_10  and  C_47
    7  A    between atoms: C_13  and  N_46
    8  A    between atoms: C_15  and  C_43
    9  A    between atoms: N_18  and  N_30
   10  A    between atoms: N_18  and  C_51
   11  A    between atoms: C_26  and  C_43
   12  A    between atoms: C_26  and  C_54
   13  A    between atoms: C_33  and  C_37
                            x       y       z     vdW  Elec       q    Type
                         _______ _______ _______ _____ _____    ______ ____

>  <TORSDO>
F 13

$$$$
