=
 OpenBabel11042411103D

 33 34  0  0  1  0  0  0  0  0999 V2000
  190.8630  178.9330  143.9470 O   0  0  0  0  0  0  0  0  0  0  0  0
  190.9350  177.0280  142.5900 N   0  0  0  0  0  2  0  0  0  0  0  0
  190.7190  177.6870  143.8430 C   0  0  0  0  0  0  0  0  0  0  0  0
  191.4240  177.6710  141.3750 C   0  0  1  0  0  3  0  0  0  0  0  0
  188.9020  177.1550  138.8070 O   0  0  0  0  0  0  0  0  0  0  0  0
  192.2980  176.3240  138.5010 C   0  0  1  0  0  3  0  0  0  0  0  0
  190.0090  176.9860  139.3800 C   0  0  0  0  0  0  0  0  0  0  0  0
  192.7110  177.0220  140.8590 C   0  0  0  0  0  2  0  0  0  0  0  0
  190.3680  177.8550  140.4210 O   0  0  0  0  0  0  0  0  0  0  0  0
  192.9640  177.3620  139.4000 C   0  0  0  0  0  2  0  0  0  0  0  0
  190.8910  175.8690  138.9110 C   0  0  0  0  0  2  0  0  0  0  0  0
  192.5120  176.5570  137.0000 C   0  0  0  0  0  2  0  0  0  0  0  0
  193.7690  175.9540  136.3650 C   0  0  1  0  0  3  0  0  0  0  0  0
  194.7010  176.9350  136.0170 O   0  0  0  0  0  1  0  0  0  0  0  0
  194.3940  174.8100  137.1680 C   0  0  2  0  0  3  0  0  0  0  0  0
  195.7360  175.0650  137.4680 O   0  0  0  0  0  1  0  0  0  0  0  0
  194.2390  173.4730  136.4450 C   0  0  2  0  0  3  0  0  0  0  0  0
  192.9140  173.0450  136.5230 O   0  0  0  0  0  1  0  0  0  0  0  0
  195.1540  172.4010  137.0150 C   0  0  0  0  0  1  0  0  0  0  0  0
  190.3380  176.8950  145.0560 C   0  0  2  0  0  3  0  0  0  0  0  0
  186.6330  178.1820  146.8480 C   0  0  0  0  0  0  0  0  0  0  0  0
  187.8260  177.3380  144.8920 C   0  0  0  0  0  0  0  0  0  0  0  0
  185.4540  177.7650  144.8380 F   0  0  0  0  0  0  0  0  0  0  0  0
  189.0090  177.7940  146.9780 C   0  0  0  0  0  3  0  0  0  0  0  0
  187.8210  178.2040  147.5750 C   0  0  0  0  0  3  0  0  0  0  0  0
  189.0320  177.3600  145.6420 C   0  0  0  0  0  0  0  0  0  0  0  0
  185.4820  178.5880  147.4380 F   0  0  0  0  0  0  0  0  0  0  0  0
  186.6290  177.7520  145.5180 C   0  0  0  0  0  0  0  0  0  0  0  0
  187.9360  175.6720  143.1850 O   0  0  0  0  0  1  0  0  0  0  0  0
  187.7960  176.8910  143.4730 C   0  0  0  0  0  0  0  0  0  0  0  0
  187.5980  177.7990  142.4400 O   0  0  0  0  0  0  0  0  0  0  0  0
  192.0920  175.8560  146.2530 O   0  0  0  0  0  0  0  0  0  0  0  0
  191.4300  176.8670  146.0820 C   0  0  0  0  0  3  0  0  0  0  0  0
  2  3  1  0  0  0  0
  3  1  2  0  0  0  0
  3 20  1  0  0  0  0
  4  2  1  1  0  0  0
  5  7  2  0  0  0  0
  6 12  1  6  0  0  0
  6 11  1  0  0  0  0
  6 10  1  0  0  0  0
  7  9  1  0  0  0  0
  8  4  1  0  0  0  0
  9  4  1  0  0  0  0
 10  8  1  0  0  0  0
 11  7  1  0  0  0  0
 13 14  1  1  0  0  0
 13 12  1  0  0  0  0
 13 15  1  0  0  0  0
 15 16  1  6  0  0  0
 17 18  1  0  0  0  0
 17 19  1  1  0  0  0
 17 15  1  0  0  0  0
 20 26  1  0  0  0  0
 20 33  1  1  0  0  0
 21 27  1  0  0  0  0
 21 25  1  0  0  0  0
 22 28  1  0  0  0  0
 22 26  2  0  0  0  0
 23 28  1  0  0  0  0
 24 25  2  0  0  0  0
 26 24  1  0  0  0  0
 28 21  2  0  0  0  0
 29 30  1  0  0  0  0
 30 22  1  0  0  0  0
 31 30  2  0  0  0  0
 33 32  2  0  0  0  0
M  END
>  <MODEL>
1

>  <REMARK>
 VINA RESULT:      -7.9      0.000      0.000
  Name = 
  9 active torsions:
  status: ('A' for Active; 'I' for Inactive)
    1  A    between atoms: C_1  and  N_12
    2  A    between atoms: C_2  and  C_5
    3  A    between atoms: C_2  and  C_8
    4  A    between atoms: C_5  and  C_27
    5  A    between atoms: C_6  and  C_27
    6  A    between atoms: C_9  and  C_24
    7  A    between atoms: C_11  and  C_15
    8  A    between atoms: C_15  and  C_17
    9  A    between atoms: C_15  and  C_26
                            x       y       z     vdW  Elec       q    Type
                         _______ _______ _______ _____ _____    ______ ____

>  <TORSDO>
F 9

$$$$
=
 OpenBabel11042411103D

 33 34  0  0  1  0  0  0  0  0999 V2000
  184.5850  180.2630  139.2780 O   0  0  0  0  0  0  0  0  0  0  0  0
  184.6410  178.3830  140.6710 N   0  0  0  0  0  2  0  0  0  0  0  0
  184.2850  179.0530  139.4570 C   0  0  0  0  0  0  0  0  0  0  0  0
  185.2670  179.0150  141.8270 C   0  0  1  0  0  3  0  0  0  0  0  0
  188.8170  178.2490  141.6680 O   0  0  0  0  0  0  0  0  0  0  0  0
  186.7380  177.6310  144.4270 C   0  0  1  0  0  3  0  0  0  0  0  0
  187.6450  178.1720  142.1180 C   0  0  0  0  0  0  0  0  0  0  0  0
  184.7540  178.4340  143.1480 C   0  0  0  0  0  2  0  0  0  0  0  0
  186.6910  179.0970  141.6700 O   0  0  0  0  0  0  0  0  0  0  0  0
  185.6970  178.7400  144.2990 C   0  0  0  0  0  2  0  0  0  0  0  0
  187.3330  177.0990  143.1170 C   0  0  0  0  0  2  0  0  0  0  0  0
  187.7320  177.8260  145.5790 C   0  0  0  0  0  2  0  0  0  0  0  0
  189.2030  177.4940  145.3060 C   0  0  1  0  0  3  0  0  0  0  0  0
  189.9110  178.6030  144.8390 O   0  0  0  0  0  1  0  0  0  0  0  0
  189.9150  176.7880  146.4620 C   0  0  2  0  0  3  0  0  0  0  0  0
  189.6810  177.4330  147.6820 O   0  0  0  0  0  1  0  0  0  0  0  0
  191.4130  176.6530  146.1940 C   0  0  2  0  0  3  0  0  0  0  0  0
  191.6170  176.0330  144.9610 O   0  0  0  0  0  1  0  0  0  0  0  0
  192.1240  175.8640  147.2820 C   0  0  0  0  0  1  0  0  0  0  0  0
  183.5280  178.3260  138.3880 C   0  0  2  0  0  3  0  0  0  0  0  0
  180.3430  175.8720  139.9450 C   0  0  0  0  0  0  0  0  0  0  0  0
  181.1610  178.0860  139.3210 C   0  0  0  0  0  0  0  0  0  0  0  0
  178.9350  177.7610  140.1900 F   0  0  0  0  0  0  0  0  0  0  0  0
  182.5850  176.1180  139.0970 C   0  0  0  0  0  3  0  0  0  0  0  0
  181.5650  175.3090  139.5900 C   0  0  0  0  0  3  0  0  0  0  0  0
  182.4040  177.5030  138.9570 C   0  0  0  0  0  0  0  0  0  0  0  0
  179.3560  175.0760  140.4280 F   0  0  0  0  0  0  0  0  0  0  0  0
  180.1340  177.2480  139.8120 C   0  0  0  0  0  0  0  0  0  0  0  0
  180.7350  180.2550  140.2230 O   0  0  0  0  0  1  0  0  0  0  0  0
  180.9160  179.5490  139.1960 C   0  0  0  0  0  0  0  0  0  0  0  0
  180.9000  180.1680  137.9520 O   0  0  0  0  0  0  0  0  0  0  0  0
  185.6400  177.6240  137.5920 O   0  0  0  0  0  0  0  0  0  0  0  0
  184.4280  177.5080  137.5120 C   0  0  0  0  0  3  0  0  0  0  0  0
  1  3  2  0  0  0  0
  3  2  1  0  0  0  0
  4  2  1  6  0  0  0
  4  8  1  0  0  0  0
  5  7  2  0  0  0  0
  6 12  1  1  0  0  0
  7 11  1  0  0  0  0
  8 10  1  0  0  0  0
  9  4  1  0  0  0  0
  9  7  1  0  0  0  0
 10  6  1  0  0  0  0
 11  6  1  0  0  0  0
 13 14  1  1  0  0  0
 13 12  1  0  0  0  0
 13 15  1  0  0  0  0
 15 16  1  1  0  0  0
 17 15  1  0  0  0  0
 17 19  1  1  0  0  0
 18 17  1  0  0  0  0
 20 33  1  1  0  0  0
 20 26  1  0  0  0  0
 20  3  1  0  0  0  0
 21 27  1  0  0  0  0
 22 28  2  0  0  0  0
 24 25  1  0  0  0  0
 25 21  2  0  0  0  0
 26 24  2  0  0  0  0
 26 22  1  0  0  0  0
 28 21  1  0  0  0  0
 28 23  1  0  0  0  0
 30 22  1  0  0  0  0
 30 29  1  0  0  0  0
 31 30  2  0  0  0  0
 33 32  2  0  0  0  0
M  END
>  <MODEL>
2

>  <REMARK>
 VINA RESULT:      -7.9      5.631      8.972
  Name = 
  9 active torsions:
  status: ('A' for Active; 'I' for Inactive)
    1  A    between atoms: C_1  and  N_12
    2  A    between atoms: C_2  and  C_5
    3  A    between atoms: C_2  and  C_8
    4  A    between atoms: C_5  and  C_27
    5  A    between atoms: C_6  and  C_27
    6  A    between atoms: C_9  and  C_24
    7  A    between atoms: C_11  and  C_15
    8  A    between atoms: C_15  and  C_17
    9  A    between atoms: C_15  and  C_26
                            x       y       z     vdW  Elec       q    Type
                         _______ _______ _______ _____ _____    ______ ____

>  <TORSDO>
F 9

$$$$
=
 OpenBabel11042411103D

 33 34  0  0  1  0  0  0  0  0999 V2000
  184.4540  180.0590  139.5380 O   0  0  0  0  0  0  0  0  0  0  0  0
  184.2870  178.3280  141.1040 N   0  0  0  0  0  2  0  0  0  0  0  0
  183.9980  178.9240  139.8340 C   0  0  0  0  0  0  0  0  0  0  0  0
  185.0170  178.9750  142.1890 C   0  0  1  0  0  3  0  0  0  0  0  0
  188.5250  178.1180  141.7710 O   0  0  0  0  0  0  0  0  0  0  0  0
  186.6600  177.6250  144.7020 C   0  0  1  0  0  3  0  0  0  0  0  0
  187.3910  178.0820  142.3140 C   0  0  0  0  0  0  0  0  0  0  0  0
  184.5990  178.4420  143.5620 C   0  0  0  0  0  2  0  0  0  0  0  0
  186.4250  179.0180  141.9170 O   0  0  0  0  0  0  0  0  0  0  0  0
  185.6370  178.7550  144.6260 C   0  0  0  0  0  2  0  0  0  0  0  0
  187.1370  177.0440  143.3650 C   0  0  0  0  0  2  0  0  0  0  0  0
  187.7460  177.8260  145.7660 C   0  0  0  0  0  2  0  0  0  0  0  0
  189.1860  177.4730  145.3790 C   0  0  1  0  0  3  0  0  0  0  0  0
  189.8870  178.5840  144.9020 O   0  0  0  0  0  1  0  0  0  0  0  0
  189.9610  176.7110  146.4570 C   0  0  2  0  0  3  0  0  0  0  0  0
  189.7560  177.2630  147.7260 O   0  0  0  0  0  1  0  0  0  0  0  0
  191.4500  176.6380  146.1260 C   0  0  2  0  0  3  0  0  0  0  0  0
  191.6260  176.0750  144.8620 O   0  0  0  0  0  1  0  0  0  0  0  0
  192.2300  175.8320  147.1530 C   0  0  0  0  0  1  0  0  0  0  0  0
  183.1270  178.2090  138.8470 C   0  0  2  0  0  3  0  0  0  0  0  0
  185.2480  175.0090  136.8820 C   0  0  0  0  0  0  0  0  0  0  0  0
  183.2580  175.7770  138.0710 C   0  0  0  0  0  0  0  0  0  0  0  0
  183.4620  173.5070  137.2840 F   0  0  0  0  0  0  0  0  0  0  0  0
  185.1260  177.2900  137.6490 C   0  0  0  0  0  3  0  0  0  0  0  0
  185.8210  176.2720  137.0050 C   0  0  0  0  0  3  0  0  0  0  0  0
  183.8490  177.0630  138.1890 C   0  0  0  0  0  0  0  0  0  0  0  0
  185.9340  174.0220  136.2550 F   0  0  0  0  0  0  0  0  0  0  0  0
  183.9770  174.7570  137.4060 C   0  0  0  0  0  0  0  0  0  0  0  0
  181.7290  175.4390  139.8730 O   0  0  0  0  0  1  0  0  0  0  0  0
  181.9100  175.4820  138.6280 C   0  0  0  0  0  0  0  0  0  0  0  0
  180.8220  175.2650  137.7900 O   0  0  0  0  0  0  0  0  0  0  0  0
  181.5430  178.8120  137.2000 O   0  0  0  0  0  0  0  0  0  0  0  0
  182.5290  179.1420  137.8380 C   0  0  0  0  0  3  0  0  0  0  0  0
  1  3  2  0  0  0  0
  3  2  1  0  0  0  0
  4  2  1  6  0  0  0
  4  8  1  0  0  0  0
  5  7  2  0  0  0  0
  6 12  1  6  0  0  0
  7 11  1  0  0  0  0
  8 10  1  0  0  0  0
  9  4  1  0  0  0  0
  9  7  1  0  0  0  0
 10  6  1  0  0  0  0
 11  6  1  0  0  0  0
 13 14  1  1  0  0  0
 13 12  1  0  0  0  0
 13 15  1  0  0  0  0
 15 16  1  1  0  0  0
 17 15  1  0  0  0  0
 17 19  1  1  0  0  0
 18 17  1  0  0  0  0
 20 33  1  6  0  0  0
 20  3  1  0  0  0  0
 21 25  2  0  0  0  0
 21 28  1  0  0  0  0
 22 26  1  0  0  0  0
 22 30  1  0  0  0  0
 23 28  1  0  0  0  0
 24 26  2  0  0  0  0
 25 24  1  0  0  0  0
 26 20  1  0  0  0  0
 27 21  1  0  0  0  0
 28 22  2  0  0  0  0
 30 29  1  0  0  0  0
 31 30  2  0  0  0  0
 32 33  2  0  0  0  0
M  END
>  <MODEL>
3

>  <REMARK>
 VINA RESULT:      -7.8      5.677      9.262
  Name = 
  9 active torsions:
  status: ('A' for Active; 'I' for Inactive)
    1  A    between atoms: C_1  and  N_12
    2  A    between atoms: C_2  and  C_5
    3  A    between atoms: C_2  and  C_8
    4  A    between atoms: C_5  and  C_27
    5  A    between atoms: C_6  and  C_27
    6  A    between atoms: C_9  and  C_24
    7  A    between atoms: C_11  and  C_15
    8  A    between atoms: C_15  and  C_17
    9  A    between atoms: C_15  and  C_26
                            x       y       z     vdW  Elec       q    Type
                         _______ _______ _______ _____ _____    ______ ____

>  <TORSDO>
F 9

$$$$
=
 OpenBabel11042411103D

 33 34  0  0  1  0  0  0  0  0999 V2000
  184.6960  179.7210  139.6510 O   0  0  0  0  0  0  0  0  0  0  0  0
  184.3140  178.2000  141.3880 N   0  0  0  0  0  2  0  0  0  0  0  0
  184.1120  178.6820  140.0540 C   0  0  0  0  0  0  0  0  0  0  0  0
  185.0950  178.8780  142.4160 C   0  0  1  0  0  3  0  0  0  0  0  0
  188.5480  177.8140  142.0050 O   0  0  0  0  0  0  0  0  0  0  0  0
  186.7120  177.6110  144.9900 C   0  0  1  0  0  3  0  0  0  0  0  0
  187.4230  177.8720  142.5660 C   0  0  0  0  0  0  0  0  0  0  0  0
  184.6750  178.4580  143.8280 C   0  0  0  0  0  2  0  0  0  0  0  0
  186.4990  178.8300  142.1220 O   0  0  0  0  0  0  0  0  0  0  0  0
  185.7470  178.7850  144.8530 C   0  0  0  0  0  2  0  0  0  0  0  0
  187.1350  176.9200  143.6870 C   0  0  0  0  0  2  0  0  0  0  0  0
  187.8270  177.8240  146.0220 C   0  0  0  0  0  2  0  0  0  0  0  0
  189.2530  177.4500  145.6070 C   0  0  1  0  0  3  0  0  0  0  0  0
  189.9290  178.5260  145.0270 O   0  0  0  0  0  1  0  0  0  0  0  0
  190.0710  176.7680  146.7070 C   0  0  2  0  0  3  0  0  0  0  0  0
  189.9560  177.4420  147.9270 O   0  0  0  0  0  1  0  0  0  0  0  0
  191.5360  176.6210  146.3000 C   0  0  2  0  0  3  0  0  0  0  0  0
  191.6190  176.0400  145.0350 O   0  0  0  0  0  1  0  0  0  0  0  0
  192.3290  175.7860  147.2940 C   0  0  0  0  0  1  0  0  0  0  0  0
  183.1820  177.9630  139.1260 C   0  0  2  0  0  3  0  0  0  0  0  0
  180.6970  180.7300  136.9410 C   0  0  0  0  0  0  0  0  0  0  0  0
  181.9930  178.6600  136.9730 C   0  0  0  0  0  0  0  0  0  0  0  0
  180.8210  179.3870  134.9950 F   0  0  0  0  0  0  0  0  0  0  0  0
  181.8530  180.0790  138.9540 C   0  0  0  0  0  3  0  0  0  0  0  0
  181.0430  180.9780  138.2670 C   0  0  0  0  0  3  0  0  0  0  0  0
  182.3370  178.9200  138.3260 C   0  0  0  0  0  0  0  0  0  0  0  0
  179.9110  181.6140  136.2800 F   0  0  0  0  0  0  0  0  0  0  0  0
  181.1630  179.5820  136.2940 C   0  0  0  0  0  0  0  0  0  0  0  0
  181.7480  176.4300  136.1580 O   0  0  0  0  0  1  0  0  0  0  0  0
  182.4810  177.4490  136.2600 C   0  0  0  0  0  0  0  0  0  0  0  0
  183.7430  177.4210  135.6790 O   0  0  0  0  0  0  0  0  0  0  0  0
  182.2720  175.8010  139.4130 O   0  0  0  0  0  0  0  0  0  0  0  0
  182.3450  176.9430  139.8370 C   0  0  0  0  0  3  0  0  0  0  0  0
  1  3  2  0  0  0  0
  3  2  1  0  0  0  0
  4  2  1  6  0  0  0
  4  8  1  0  0  0  0
  5  7  2  0  0  0  0
  6 12  1  6  0  0  0
  7 11  1  0  0  0  0
  8 10  1  0  0  0  0
  9  4  1  0  0  0  0
  9  7  1  0  0  0  0
 10  6  1  0  0  0  0
 11  6  1  0  0  0  0
 13 14  1  1  0  0  0
 13 12  1  0  0  0  0
 13 15  1  0  0  0  0
 15 16  1  1  0  0  0
 17 15  1  0  0  0  0
 17 19  1  1  0  0  0
 18 17  1  0  0  0  0
 20 33  1  1  0  0  0
 20  3  1  0  0  0  0
 21 25  1  0  0  0  0
 22 26  2  0  0  0  0
 23 28  1  0  0  0  0
 25 24  2  0  0  0  0
 26 24  1  0  0  0  0
 26 20  1  0  0  0  0
 27 21  1  0  0  0  0
 28 21  2  0  0  0  0
 28 22  1  0  0  0  0
 29 30  1  0  0  0  0
 30 22  1  0  0  0  0
 31 30  2  0  0  0  0
 32 33  2  0  0  0  0
M  END
>  <MODEL>
4

>  <REMARK>
 VINA RESULT:      -7.7      6.090      9.558
  Name = 
  9 active torsions:
  status: ('A' for Active; 'I' for Inactive)
    1  A    between atoms: C_1  and  N_12
    2  A    between atoms: C_2  and  C_5
    3  A    between atoms: C_2  and  C_8
    4  A    between atoms: C_5  and  C_27
    5  A    between atoms: C_6  and  C_27
    6  A    between atoms: C_9  and  C_24
    7  A    between atoms: C_11  and  C_15
    8  A    between atoms: C_15  and  C_17
    9  A    between atoms: C_15  and  C_26
                            x       y       z     vdW  Elec       q    Type
                         _______ _______ _______ _____ _____    ______ ____

>  <TORSDO>
F 9

$$$$
=
 OpenBabel11042411103D

 33 34  0  0  1  0  0  0  0  0999 V2000
  190.1620  175.0770  142.8440 O   0  0  0  0  0  0  0  0  0  0  0  0
  189.8430  177.1910  141.8910 N   0  0  0  0  0  2  0  0  0  0  0  0
  190.2610  176.3270  142.9550 C   0  0  0  0  0  0  0  0  0  0  0  0
  189.1890  176.7540  140.6630 C   0  0  1  0  0  3  0  0  0  0  0  0
  191.8170  175.8040  138.3370 O   0  0  0  0  0  0  0  0  0  0  0  0
  189.2560  178.1070  137.6620 C   0  0  1  0  0  3  0  0  0  0  0  0
  190.8880  176.5220  138.7890 C   0  0  0  0  0  0  0  0  0  0  0  0
  188.4040  177.8860  139.9950 C   0  0  0  0  0  2  0  0  0  0  0  0
  190.0910  176.0150  139.8260 O   0  0  0  0  0  0  0  0  0  0  0  0
  188.1170  177.5850  138.5340 C   0  0  0  0  0  2  0  0  0  0  0  0
  190.6790  177.8790  138.1890 C   0  0  0  0  0  2  0  0  0  0  0  0
  189.0580  177.8770  136.1580 C   0  0  0  0  0  2  0  0  0  0  0  0
  187.7500  177.2150  135.7120 C   0  0  1  0  0  3  0  0  0  0  0  0
  186.9400  178.0930  134.9870 O   0  0  0  0  0  1  0  0  0  0  0  0
  187.9330  175.8690  135.0070 C   0  0  2  0  0  3  0  0  0  0  0  0
  186.7580  175.1100  135.0330 O   0  0  0  0  0  1  0  0  0  0  0  0
  189.1040  175.0860  135.5970 C   0  0  2  0  0  3  0  0  0  0  0  0
  189.6310  174.2270  134.6340 O   0  0  0  0  0  1  0  0  0  0  0  0
  188.7010  174.2850  136.8250 C   0  0  0  0  0  1  0  0  0  0  0  0
  190.8050  176.9050  144.2250 C   0  0  2  0  0  3  0  0  0  0  0  0
  187.6320  177.8450  146.9900 C   0  0  0  0  0  0  0  0  0  0  0  0
  189.9440  177.1540  146.6190 C   0  0  0  0  0  0  0  0  0  0  0  0
  189.0510  177.4360  148.8410 F   0  0  0  0  0  0  0  0  0  0  0  0
  188.4470  177.5720  144.7380 C   0  0  0  0  0  3  0  0  0  0  0  0
  187.4140  177.8870  145.6160 C   0  0  0  0  0  3  0  0  0  0  0  0
  189.7140  177.2030  145.2180 C   0  0  0  0  0  0  0  0  0  0  0  0
  186.6180  178.1510  147.8370 F   0  0  0  0  0  0  0  0  0  0  0  0
  188.8850  177.4850  147.4940 C   0  0  0  0  0  0  0  0  0  0  0  0
  191.8230  177.4830  148.0560 O   0  0  0  0  0  1  0  0  0  0  0  0
  191.2670  176.7670  147.1810 C   0  0  0  0  0  0  0  0  0  0  0  0
  191.9070  175.6050  146.7680 O   0  0  0  0  0  0  0  0  0  0  0  0
  191.2000  179.2240  144.0000 O   0  0  0  0  0  0  0  0  0  0  0  0
  191.6750  178.1000  143.9790 C   0  0  0  0  0  3  0  0  0  0  0  0
  1  3  2  0  0  0  0
  2  3  1  0  0  0  0
  3 20  1  0  0  0  0
  4  2  1  1  0  0  0
  5  7  2  0  0  0  0
  6 12  1  6  0  0  0
  6 11  1  0  0  0  0
  6 10  1  0  0  0  0
  7  9  1  0  0  0  0
  8  4  1  0  0  0  0
  9  4  1  0  0  0  0
 10  8  1  0  0  0  0
 11  7  1  0  0  0  0
 13 14  1  6  0  0  0
 13 12  1  0  0  0  0
 15 16  1  1  0  0  0
 15 17  1  0  0  0  0
 15 13  1  0  0  0  0
 17 19  1  1  0  0  0
 18 17  1  0  0  0  0
 20 33  1  6  0  0  0
 20 26  1  0  0  0  0
 21 28  1  0  0  0  0
 21 27  1  0  0  0  0
 22 30  1  0  0  0  0
 22 28  2  0  0  0  0
 24 26  2  0  0  0  0
 24 25  1  0  0  0  0
 25 21  2  0  0  0  0
 26 22  1  0  0  0  0
 28 23  1  0  0  0  0
 30 29  1  0  0  0  0
 31 30  2  0  0  0  0
 33 32  2  0  0  0  0
M  END
>  <MODEL>
5

>  <REMARK>
 VINA RESULT:      -7.5      2.579      4.397
  Name = 
  9 active torsions:
  status: ('A' for Active; 'I' for Inactive)
    1  A    between atoms: C_1  and  N_12
    2  A    between atoms: C_2  and  C_5
    3  A    between atoms: C_2  and  C_8
    4  A    between atoms: C_5  and  C_27
    5  A    between atoms: C_6  and  C_27
    6  A    between atoms: C_9  and  C_24
    7  A    between atoms: C_11  and  C_15
    8  A    between atoms: C_15  and  C_17
    9  A    between atoms: C_15  and  C_26
                            x       y       z     vdW  Elec       q    Type
                         _______ _______ _______ _____ _____    ______ ____

>  <TORSDO>
F 9

$$$$
=
 OpenBabel11042411103D

 33 34  0  0  1  0  0  0  0  0999 V2000
  181.4660  179.7510  142.6640 O   0  0  0  0  0  0  0  0  0  0  0  0
  183.3860  178.5420  142.0930 N   0  0  0  0  0  2  0  0  0  0  0  0
  181.9850  178.8220  141.9920 C   0  0  0  0  0  0  0  0  0  0  0  0
  184.3090  179.1940  143.0150 C   0  0  1  0  0  3  0  0  0  0  0  0
  187.6730  178.2790  141.9800 O   0  0  0  0  0  0  0  0  0  0  0  0
  186.3670  177.8570  145.2110 C   0  0  1  0  0  3  0  0  0  0  0  0
  186.6560  178.2670  142.7210 C   0  0  0  0  0  0  0  0  0  0  0  0
  184.1420  178.6870  144.4500 C   0  0  0  0  0  2  0  0  0  0  0  0
  185.6450  179.2120  142.4910 O   0  0  0  0  0  0  0  0  0  0  0  0
  185.3600  179.0010  145.3020 C   0  0  0  0  0  2  0  0  0  0  0  0
  186.5850  177.2490  143.8190 C   0  0  0  0  0  2  0  0  0  0  0  0
  187.6310  178.0580  146.0550 C   0  0  0  0  0  2  0  0  0  0  0  0
  188.9450  177.4940  145.5030 C   0  0  1  0  0  3  0  0  0  0  0  0
  189.6700  178.4560  144.7960 O   0  0  0  0  0  1  0  0  0  0  0  0
  189.8000  176.7590  146.5380 C   0  0  2  0  0  3  0  0  0  0  0  0
  189.6410  177.3030  147.8170 O   0  0  0  0  0  1  0  0  0  0  0  0
  191.2720  176.7390  146.1310 C   0  0  2  0  0  3  0  0  0  0  0  0
  191.4060  176.1550  144.8720 O   0  0  0  0  0  1  0  0  0  0  0  0
  192.1370  175.9880  147.1320 C   0  0  0  0  0  1  0  0  0  0  0  0
  181.1130  177.9950  141.0980 C   0  0  2  0  0  3  0  0  0  0  0  0
  181.1780  179.4180  137.0270 C   0  0  0  0  0  0  0  0  0  0  0  0
  181.5270  177.5900  138.6090 C   0  0  0  0  0  0  0  0  0  0  0  0
  181.8720  177.2940  136.2400 F   0  0  0  0  0  0  0  0  0  0  0  0
  180.8260  179.7960  139.3820 C   0  0  0  0  0  3  0  0  0  0  0  0
  180.8340  180.2690  138.0730 C   0  0  0  0  0  3  0  0  0  0  0  0
  181.1700  178.4650  139.6690 C   0  0  0  0  0  0  0  0  0  0  0  0
  181.1860  179.8890  135.7560 F   0  0  0  0  0  0  0  0  0  0  0  0
  181.5210  178.0870  137.2850 C   0  0  0  0  0  0  0  0  0  0  0  0
  181.0150  175.2790  138.9250 O   0  0  0  0  0  0  0  0  0  0  0  0
  181.9020  176.1710  138.8580 C   0  0  0  0  0  0  0  0  0  0  0  0
  183.2330  175.7980  139.0050 O   0  0  0  0  0  1  0  0  0  0  0  0
  179.0700  176.8730  141.4900 O   0  0  0  0  0  0  0  0  0  0  0  0
  179.7030  177.9100  141.6000 C   0  0  0  0  0  3  0  0  0  0  0  0
  3  2  1  0  0  0  0
  3  1  2  0  0  0  0
  4  2  1  6  0  0  0
  4  8  1  0  0  0  0
  5  7  2  0  0  0  0
  6 10  1  0  0  0  0
  6 12  1  6  0  0  0
  7 11  1  0  0  0  0
  8 10  1  0  0  0  0
  9  7  1  0  0  0  0
  9  4  1  0  0  0  0
 11  6  1  0  0  0  0
 13 14  1  1  0  0  0
 13 12  1  0  0  0  0
 13 15  1  0  0  0  0
 15 16  1  1  0  0  0
 17 15  1  0  0  0  0
 17 19  1  1  0  0  0
 18 17  1  0  0  0  0
 20 33  1  1  0  0  0
 20  3  1  0  0  0  0
 21 28  2  0  0  0  0
 21 25  1  0  0  0  0
 22 30  1  0  0  0  0
 22 26  2  0  0  0  0
 23 28  1  0  0  0  0
 24 26  1  0  0  0  0
 25 24  2  0  0  0  0
 26 20  1  0  0  0  0
 27 21  1  0  0  0  0
 28 22  1  0  0  0  0
 30 29  2  0  0  0  0
 30 31  1  0  0  0  0
 32 33  2  0  0  0  0
M  END
>  <MODEL>
6

>  <REMARK>
 VINA RESULT:      -7.5      6.256      9.682
  Name = 
  9 active torsions:
  status: ('A' for Active; 'I' for Inactive)
    1  A    between atoms: C_1  and  N_12
    2  A    between atoms: C_2  and  C_5
    3  A    between atoms: C_2  and  C_8
    4  A    between atoms: C_5  and  C_27
    5  A    between atoms: C_6  and  C_27
    6  A    between atoms: C_9  and  C_24
    7  A    between atoms: C_11  and  C_15
    8  A    between atoms: C_15  and  C_17
    9  A    between atoms: C_15  and  C_26
                            x       y       z     vdW  Elec       q    Type
                         _______ _______ _______ _____ _____    ______ ____

>  <TORSDO>
F 9

$$$$
=
 OpenBabel11042411103D

 33 34  0  0  1  0  0  0  0  0999 V2000
  191.1120  178.2590  142.9440 O   0  0  0  0  0  0  0  0  0  0  0  0
  190.5530  176.5540  141.4420 N   0  0  0  0  0  2  0  0  0  0  0  0
  190.8000  177.0530  142.7610 C   0  0  0  0  0  0  0  0  0  0  0  0
  190.7260  177.3150  140.2090 C   0  0  1  0  0  3  0  0  0  0  0  0
  187.4580  178.6260  139.3000 O   0  0  0  0  0  0  0  0  0  0  0  0
  189.5290  176.7230  137.1990 C   0  0  1  0  0  3  0  0  0  0  0  0
  188.4670  177.8810  139.1950 C   0  0  0  0  0  0  0  0  0  0  0  0
  191.1790  176.4290  139.0450 C   0  0  0  0  0  2  0  0  0  0  0  0
  189.6020  178.1740  139.9640 O   0  0  0  0  0  0  0  0  0  0  0  0
  190.9220  177.0910  137.7030 C   0  0  0  0  0  2  0  0  0  0  0  0
  188.4040  176.7250  138.2430 C   0  0  0  0  0  2  0  0  0  0  0  0
  189.1710  177.3200  135.8330 C   0  0  0  0  0  2  0  0  0  0  0  0
  188.1880  176.5370  134.9560 C   0  0  1  0  0  3  0  0  0  0  0  0
  188.2320  175.1650  135.2190 O   0  0  0  0  0  1  0  0  0  0  0  0
  186.7610  177.0890  134.9610 C   0  0  2  0  0  3  0  0  0  0  0  0
  186.6920  178.3350  135.5950 O   0  0  0  0  0  1  0  0  0  0  0  0
  185.7830  176.1000  135.5930 C   0  0  2  0  0  3  0  0  0  0  0  0
  184.8720  175.6580  134.6340 O   0  0  0  0  0  1  0  0  0  0  0  0
  185.0290  176.7050  136.7670 C   0  0  0  0  0  1  0  0  0  0  0  0
  190.7120  176.1370  143.9430 C   0  0  2  0  0  3  0  0  0  0  0  0
  188.6510  177.8800  147.3060 C   0  0  0  0  0  0  0  0  0  0  0  0
  188.6000  177.1330  144.9820 C   0  0  0  0  0  0  0  0  0  0  0  0
  186.6500  178.0650  146.0520 F   0  0  0  0  0  0  0  0  0  0  0  0
  190.6450  176.9720  146.3030 C   0  0  0  0  0  3  0  0  0  0  0  0
  189.9940  177.5260  147.4010 C   0  0  0  0  0  3  0  0  0  0  0  0
  189.9690  176.7700  145.0890 C   0  0  0  0  0  0  0  0  0  0  0  0
  188.0260  178.4220  148.3810 F   0  0  0  0  0  0  0  0  0  0  0  0
  187.9530  177.6860  146.1110 C   0  0  0  0  0  0  0  0  0  0  0  0
  187.4160  177.9390  143.0720 O   0  0  0  0  0  0  0  0  0  0  0  0
  187.8360  176.9430  143.7180 C   0  0  0  0  0  0  0  0  0  0  0  0
  187.5860  175.6710  143.2180 O   0  0  0  0  0  1  0  0  0  0  0  0
  192.2930  174.4290  144.3520 O   0  0  0  0  0  0  0  0  0  0  0  0
  192.0560  175.6260  144.3660 C   0  0  0  0  0  3  0  0  0  0  0  0
  2  3  1  0  0  0  0
  3  1  2  0  0  0  0
  3 20  1  0  0  0  0
  4  2  1  1  0  0  0
  6 12  1  6  0  0  0
  6 10  1  0  0  0  0
  6 11  1  0  0  0  0
  7  5  2  0  0  0  0
  7  9  1  0  0  0  0
  8  4  1  0  0  0  0
  9  4  1  0  0  0  0
 10  8  1  0  0  0  0
 11  7  1  0  0  0  0
 13 15  1  0  0  0  0
 13 14  1  1  0  0  0
 13 12  1  0  0  0  0
 15 17  1  0  0  0  0
 15 16  1  1  0  0  0
 17 19  1  1  0  0  0
 18 17  1  0  0  0  0
 20 33  1  1  0  0  0
 20 26  1  0  0  0  0
 21 25  1  0  0  0  0
 21 27  1  0  0  0  0
 22 26  2  0  0  0  0
 22 28  1  0  0  0  0
 23 28  1  0  0  0  0
 24 25  2  0  0  0  0
 26 24  1  0  0  0  0
 28 21  2  0  0  0  0
 29 30  2  0  0  0  0
 30 22  1  0  0  0  0
 31 30  1  0  0  0  0
 32 33  2  0  0  0  0
M  END
>  <MODEL>
7

>  <REMARK>
 VINA RESULT:      -7.4      2.807      4.364
  Name = 
  9 active torsions:
  status: ('A' for Active; 'I' for Inactive)
    1  A    between atoms: C_1  and  N_12
    2  A    between atoms: C_2  and  C_5
    3  A    between atoms: C_2  and  C_8
    4  A    between atoms: C_5  and  C_27
    5  A    between atoms: C_6  and  C_27
    6  A    between atoms: C_9  and  C_24
    7  A    between atoms: C_11  and  C_15
    8  A    between atoms: C_15  and  C_17
    9  A    between atoms: C_15  and  C_26
                            x       y       z     vdW  Elec       q    Type
                         _______ _______ _______ _____ _____    ______ ____

>  <TORSDO>
F 9

$$$$
=
 OpenBabel11042411103D

 33 34  0  0  1  0  0  0  0  0999 V2000
  188.6890  179.1270  137.7700 O   0  0  0  0  0  0  0  0  0  0  0  0
  189.0900  177.3000  139.1760 N   0  0  0  0  0  2  0  0  0  0  0  0
  188.8640  177.8860  137.8890 C   0  0  0  0  0  0  0  0  0  0  0  0
  189.0410  178.0160  140.4460 C   0  0  1  0  0  3  0  0  0  0  0  0
  191.4940  176.4680  142.6380 O   0  0  0  0  0  0  0  0  0  0  0  0
  188.1060  176.9470  143.4160 C   0  0  1  0  0  3  0  0  0  0  0  0
  190.3400  176.7520  142.2260 C   0  0  0  0  0  0  0  0  0  0  0  0
  187.6830  177.8670  141.1380 C   0  0  0  0  0  2  0  0  0  0  0  0
  190.2030  177.7440  141.2440 O   0  0  0  0  0  0  0  0  0  0  0  0
  187.7670  178.2020  142.6170 C   0  0  0  0  0  2  0  0  0  0  0  0
  189.1720  176.0220  142.8150 C   0  0  0  0  0  2  0  0  0  0  0  0
  188.1920  177.1650  144.9320 C   0  0  0  0  0  2  0  0  0  0  0  0
  189.5860  177.3570  145.5390 C   0  0  1  0  0  3  0  0  0  0  0  0
  190.0990  178.6310  145.2790 O   0  0  0  0  0  1  0  0  0  0  0  0
  189.6880  176.9750  147.0170 C   0  0  2  0  0  3  0  0  0  0  0  0
  189.4040  178.0620  147.8510 O   0  0  0  0  0  1  0  0  0  0  0  0
  191.0550  176.3770  147.3450 C   0  0  2  0  0  3  0  0  0  0  0  0
  191.8010  177.2850  148.0950 O   0  0  0  0  0  1  0  0  0  0  0  0
  191.8310  175.9940  146.0940 C   0  0  0  0  0  1  0  0  0  0  0  0
  188.8130  177.0230  136.6660 C   0  0  2  0  0  3  0  0  0  0  0  0
  186.4500  173.4550  137.2040 C   0  0  0  0  0  0  0  0  0  0  0  0
  186.5410  175.8780  136.9110 C   0  0  0  0  0  0  0  0  0  0  0  0
  184.4430  174.7100  137.1300 F   0  0  0  0  0  0  0  0  0  0  0  0
  188.5870  174.5520  137.0060 C   0  0  0  0  0  3  0  0  0  0  0  0
  187.8400  173.3900  137.1720 C   0  0  0  0  0  3  0  0  0  0  0  0
  187.9580  175.8010  136.8760 C   0  0  0  0  0  0  0  0  0  0  0  0
  185.7310  172.3180  137.3690 F   0  0  0  0  0  0  0  0  0  0  0  0
  185.7990  174.6860  137.0730 C   0  0  0  0  0  0  0  0  0  0  0  0
  185.5280  177.6300  135.6440 O   0  0  0  0  0  0  0  0  0  0  0  0
  185.8240  177.1760  136.7810 C   0  0  0  0  0  0  0  0  0  0  0  0
  185.4530  177.9050  137.9050 O   0  0  0  0  0  1  0  0  0  0  0  0
  190.4210  176.6780  134.9690 O   0  0  0  0  0  0  0  0  0  0  0  0
  190.1790  176.6660  136.1650 C   0  0  0  0  0  3  0  0  0  0  0  0
  1  3  2  0  0  0  0
  3  2  1  0  0  0  0
  4  2  1  6  0  0  0
  4  8  1  0  0  0  0
  4  9  1  0  0  0  0
  6 12  1  1  0  0  0
  7  5  2  0  0  0  0
  7 11  1  0  0  0  0
  8 10  1  0  0  0  0
  9  7  1  0  0  0  0
 10  6  1  0  0  0  0
 11  6  1  0  0  0  0
 12 13  1  0  0  0  0
 13 14  1  1  0  0  0
 13 15  1  0  0  0  0
 15 17  1  0  0  0  0
 15 16  1  1  0  0  0
 17 19  1  6  0  0  0
 17 18  1  0  0  0  0
 20 33  1  1  0  0  0
 20 26  1  0  0  0  0
 20  3  1  0  0  0  0
 21 27  1  0  0  0  0
 22 28  1  0  0  0  0
 24 25  2  0  0  0  0
 25 21  1  0  0  0  0
 26 22  2  0  0  0  0
 26 24  1  0  0  0  0
 28 23  1  0  0  0  0
 28 21  2  0  0  0  0
 29 30  2  0  0  0  0
 30 22  1  0  0  0  0
 30 31  1  0  0  0  0
 32 33  2  0  0  0  0
M  END
>  <MODEL>
8

>  <REMARK>
 VINA RESULT:      -7.3      3.905      8.656
  Name = 
  9 active torsions:
  status: ('A' for Active; 'I' for Inactive)
    1  A    between atoms: C_1  and  N_12
    2  A    between atoms: C_2  and  C_5
    3  A    between atoms: C_2  and  C_8
    4  A    between atoms: C_5  and  C_27
    5  A    between atoms: C_6  and  C_27
    6  A    between atoms: C_9  and  C_24
    7  A    between atoms: C_11  and  C_15
    8  A    between atoms: C_15  and  C_17
    9  A    between atoms: C_15  and  C_26
                            x       y       z     vdW  Elec       q    Type
                         _______ _______ _______ _____ _____    ______ ____

>  <TORSDO>
F 9

$$$$
=
 OpenBabel11042411103D

 33 34  0  0  1  0  0  0  0  0999 V2000
  192.7090  176.6170  139.0270 O   0  0  0  0  0  0  0  0  0  0  0  0
  190.5660  176.3740  139.9340 N   0  0  0  0  0  2  0  0  0  0  0  0
  191.4660  176.5630  138.8360 C   0  0  0  0  0  0  0  0  0  0  0  0
  190.9520  176.3310  141.3400 C   0  0  1  0  0  3  0  0  0  0  0  0
  187.9380  175.6410  143.2530 O   0  0  0  0  0  0  0  0  0  0  0  0
  190.1080  178.3440  143.8050 C   0  0  1  0  0  3  0  0  0  0  0  0
  188.8920  176.3410  142.8250 C   0  0  0  0  0  0  0  0  0  0  0  0
  191.4820  177.6800  141.8330 C   0  0  0  0  0  2  0  0  0  0  0  0
  189.9380  175.7060  142.1410 O   0  0  0  0  0  0  0  0  0  0  0  0
  191.4490  177.7770  143.3480 C   0  0  0  0  0  2  0  0  0  0  0  0
  188.8620  177.8180  143.0790 C   0  0  0  0  0  2  0  0  0  0  0  0
  189.9740  178.5080  145.3240 C   0  0  0  0  0  2  0  0  0  0  0  0
  189.0160  177.5610  146.0540 C   0  0  1  0  0  3  0  0  0  0  0  0
  189.6910  176.7020  146.9240 O   0  0  0  0  0  1  0  0  0  0  0  0
  187.8290  178.2580  146.7230 C   0  0  2  0  0  3  0  0  0  0  0  0
  187.8610  178.1090  148.1140 O   0  0  0  0  0  1  0  0  0  0  0  0
  186.5000  177.7680  146.1510 C   0  0  2  0  0  3  0  0  0  0  0  0
  186.3660  178.2000  144.8310 O   0  0  0  0  0  1  0  0  0  0  0  0
  185.3090  178.2480  146.9650 C   0  0  0  0  0  1  0  0  0  0  0  0
  190.9360  176.7200  137.4440 C   0  0  2  0  0  3  0  0  0  0  0  0
  186.8250  175.4730  137.0660 C   0  0  0  0  0  0  0  0  0  0  0  0
  188.4360  177.2320  137.5910 C   0  0  0  0  0  0  0  0  0  0  0  0
  186.0590  177.6280  137.6810 F   0  0  0  0  0  0  0  0  0  0  0  0
  189.1850  174.9950  136.9660 C   0  0  0  0  0  3  0  0  0  0  0  0
  187.8640  174.5780  136.8310 C   0  0  0  0  0  3  0  0  0  0  0  0
  189.4900  176.3120  137.3450 C   0  0  0  0  0  0  0  0  0  0  0  0
  185.5410  175.0560  136.9350 F   0  0  0  0  0  0  0  0  0  0  0  0
  187.1010  176.7920  137.4410 C   0  0  0  0  0  0  0  0  0  0  0  0
  188.8760  179.5320  137.1270 O   0  0  0  0  0  0  0  0  0  0  0  0
  188.7040  178.6380  137.9980 C   0  0  0  0  0  0  0  0  0  0  0  0
  188.7530  178.9980  139.3390 O   0  0  0  0  0  1  0  0  0  0  0  0
  191.7750  176.3670  135.2630 O   0  0  0  0  0  0  0  0  0  0  0  0
  191.7840  176.0130  136.4310 C   0  0  0  0  0  3  0  0  0  0  0  0
  3  1  2  0  0  0  0
  3  2  1  0  0  0  0
  4  2  1  6  0  0  0
  4  8  1  0  0  0  0
  4  9  1  0  0  0  0
  6 12  1  1  0  0  0
  7 11  1  0  0  0  0
  7  5  2  0  0  0  0
  8 10  1  0  0  0  0
  9  7  1  0  0  0  0
 10  6  1  0  0  0  0
 11  6  1  0  0  0  0
 12 13  1  0  0  0  0
 13 15  1  0  0  0  0
 13 14  1  1  0  0  0
 15 16  1  1  0  0  0
 17 15  1  0  0  0  0
 17 19  1  1  0  0  0
 18 17  1  0  0  0  0
 20 33  1  6  0  0  0
 20  3  1  0  0  0  0
 21 28  1  0  0  0  0
 22 30  1  0  0  0  0
 24 26  2  0  0  0  0
 25 24  1  0  0  0  0
 25 21  2  0  0  0  0
 26 20  1  0  0  0  0
 26 22  1  0  0  0  0
 27 21  1  0  0  0  0
 28 22  2  0  0  0  0
 28 23  1  0  0  0  0
 29 30  2  0  0  0  0
 30 31  1  0  0  0  0
 32 33  2  0  0  0  0
M  END
>  <MODEL>
9

>  <REMARK>
 VINA RESULT:      -7.3      3.051      8.684
  Name = 
  9 active torsions:
  status: ('A' for Active; 'I' for Inactive)
    1  A    between atoms: C_1  and  N_12
    2  A    between atoms: C_2  and  C_5
    3  A    between atoms: C_2  and  C_8
    4  A    between atoms: C_5  and  C_27
    5  A    between atoms: C_6  and  C_27
    6  A    between atoms: C_9  and  C_24
    7  A    between atoms: C_11  and  C_15
    8  A    between atoms: C_15  and  C_17
    9  A    between atoms: C_15  and  C_26
                            x       y       z     vdW  Elec       q    Type
                         _______ _______ _______ _____ _____    ______ ____

>  <TORSDO>
F 9

$$$$
