=
 OpenBabel11042411333D

 36 39  0  0  1  0  0  0  0  0999 V2000
  188.7140  177.5200  141.3230 C   0  0  2  0  0  3  0  0  0  0  0  0
  189.0310  178.9890  141.5240 C   0  0  0  0  0  1  0  0  0  0  0  0
  188.2730  176.9500  142.5500 O   0  0  0  0  0  0  0  0  0  0  0  0
  186.1380  178.1320  145.3410 C   0  0  0  0  0  3  0  0  0  0  0  0
  187.1890  177.4600  143.2720 C   0  0  0  0  0  0  0  0  0  0  0  0
  186.0330  177.7690  142.6180 N   0  0  0  0  0  0  0  0  0  0  0  0
  184.9370  178.2460  143.2640 C   0  0  0  0  0  3  0  0  0  0  0  0
  187.2730  177.6430  144.6760 C   0  0  0  0  0  0  0  0  0  0  0  0
  183.5690  179.0500  145.4880 Cl  0  0  0  0  0  0  0  0  0  0  0  0
  184.9720  178.4330  144.6420 C   0  0  0  0  0  0  0  0  0  0  0  0
  189.6140  176.9030  147.5970 C   0  0  0  0  0  3  0  0  0  0  0  0
  190.8950  176.8830  145.5510 C   0  0  0  0  0  3  0  0  0  0  0  0
  189.7370  177.1760  144.8260 C   0  0  0  0  0  3  0  0  0  0  0  0
  190.8430  176.7480  146.9420 C   0  0  0  0  0  0  0  0  0  0  0  0
  188.4580  177.1930  146.8700 C   0  0  0  0  0  3  0  0  0  0  0  0
  188.5000  177.3390  145.4730 C   0  0  0  0  0  0  0  0  0  0  0  0
  192.0340  176.4580  147.6850 N   0  0  0  0  0  0  0  0  0  0  0  0
  192.4070  177.2120  148.6070 O   0  0  0  0  0  0  0  0  0  0  0  0
  192.7920  175.3510  147.3750 O   0  0  0  0  0  0  0  0  0  0  0  0
  189.9630  176.8030  140.8500 C   0  0  0  0  0  2  0  0  0  0  0  0
  190.1720  176.9910  139.3480 C   0  0  1  0  0  3  0  0  0  0  0  0
  191.4570  176.3460  138.8230 C   0  0  0  0  0  2  0  0  0  0  0  0
  191.2010  175.3080  137.7400 C   0  0  0  0  0  1  0  0  0  0  0  0
  188.9360  176.6430  138.5110 C   0  0  0  0  0  2  0  0  0  0  0  0
  188.3660  177.8250  137.7330 C   0  0  1  0  0  3  0  0  0  0  0  0
  186.9060  177.9720  138.0200 C   0  0  0  0  0  0  0  0  0  0  0  0
  186.4290  178.6250  139.0750 O   0  0  0  0  0  0  0  0  0  0  0  0
  182.9820  178.4340  138.9830 N   0  0  0  0  0  0  0  0  0  0  0  0
  183.4010  177.7590  137.8750 C   0  0  0  0  0  3  0  0  0  0  0  0
  185.8850  177.4330  137.2050 C   0  0  0  0  0  3  0  0  0  0  0  0
  185.1370  178.5190  138.9730 C   0  0  0  0  0  0  0  0  0  0  0  0
  184.0410  178.9190  139.6880 C   0  0  0  0  0  3  0  0  0  0  0  0
  181.5940  178.5930  139.3740 C   0  0  0  0  0  1  0  0  0  0  0  0
  184.7710  177.8370  137.9040 C   0  0  0  0  0  0  0  0  0  0  0  0
  188.7930  179.9760  137.1840 O   0  0  0  0  0  1  0  0  0  0  0  0
  189.0690  179.0370  138.1210 N   0  0  0  0  0  2  0  0  0  0  0  0
  1  2  1  1  0  0  0
  1  3  1  0  0  0  0
  3  5  1  0  0  0  0
  5  8  1  0  0  0  0
  6  7  1  0  0  0  0
  6  5  2  0  0  0  0
  7 10  2  0  0  0  0
  8  4  2  0  0  0  0
  8 16  1  0  0  0  0
 10  4  1  0  0  0  0
 10  9  1  0  0  0  0
 12 14  2  0  0  0  0
 13 16  2  0  0  0  0
 13 12  1  0  0  0  0
 14 11  1  0  0  0  0
 14 17  1  0  0  0  0
 15 11  2  0  0  0  0
 16 15  1  0  0  0  0
 17 18  2  0  0  0  0
 19 17  2  0  0  0  0
 20  1  1  0  0  0  0
 21 24  1  6  0  0  0
 21 20  1  0  0  0  0
 22 21  1  0  0  0  0
 23 22  1  0  0  0  0
 25 26  1  0  0  0  0
 25 36  1  0  0  0  0
 25 24  1  1  0  0  0
 26 27  1  0  0  0  0
 28 33  1  0  0  0  0
 28 32  1  0  0  0  0
 29 34  2  0  0  0  0
 29 28  1  0  0  0  0
 30 34  1  0  0  0  0
 30 26  2  0  0  0  0
 31 27  1  0  0  0  0
 31 32  2  0  0  0  0
 34 31  1  0  0  0  0
 35 36  1  0  0  0  0
M  END
>  <MODEL>
1

>  <REMARK>
 VINA RESULT:      -8.7      0.000      0.000
  Name = 
  11 active torsions:
  status: ('A' for Active; 'I' for Inactive)
    1  A    between atoms: N_1  and  C_20
    2  A    between atoms: C_2  and  C_10
    3  A    between atoms: C_10  and  C_14
    4  A    between atoms: C_10  and  N_18
    5  A    between atoms: C_11  and  O_28
    6  A    between atoms: C_12  and  C_27
    7  A    between atoms: C_14  and  C_27
    8  A    between atoms: C_22  and  O_28
    9  A    between atoms: C_22  and  C_35
   10  A    between atoms: C_26  and  C_36
   11  A    between atoms: C_27  and  C_35
                            x       y       z     vdW  Elec       q    Type
                         _______ _______ _______ _____ _____    ______ ____

>  <TORSDO>
F 11

$$$$
=
 OpenBabel11042411333D

 36 39  0  0  1  0  0  0  0  0999 V2000
  186.1740  178.4820  141.0530 C   0  0  2  0  0  3  0  0  0  0  0  0
  185.4870  178.7960  139.7380 C   0  0  0  0  0  1  0  0  0  0  0  0
  185.6190  179.2840  142.0900 O   0  0  0  0  0  0  0  0  0  0  0  0
  182.7900  178.4460  144.3350 C   0  0  0  0  0  3  0  0  0  0  0  0
  184.3250  179.0890  142.5830 C   0  0  0  0  0  0  0  0  0  0  0  0
  183.2550  179.3100  141.7660 N   0  0  0  0  0  0  0  0  0  0  0  0
  181.9750  179.1170  142.1770 C   0  0  0  0  0  3  0  0  0  0  0  0
  184.1140  178.6490  143.9150 C   0  0  0  0  0  0  0  0  0  0  0  0
  180.0760  178.4260  144.0170 Cl  0  0  0  0  0  0  0  0  0  0  0  0
  181.7210  178.6770  143.4720 C   0  0  0  0  0  0  0  0  0  0  0  0
  187.3930  177.4230  145.4340 C   0  0  0  0  0  3  0  0  0  0  0  0
  186.1820  178.6760  147.1060 C   0  0  0  0  0  3  0  0  0  0  0  0
  185.1520  178.9010  146.1890 C   0  0  0  0  0  3  0  0  0  0  0  0
  187.3080  177.9330  146.7370 C   0  0  0  0  0  0  0  0  0  0  0  0
  186.3630  177.6500  144.5190 C   0  0  0  0  0  3  0  0  0  0  0  0
  185.2240  178.3890  144.8810 C   0  0  0  0  0  0  0  0  0  0  0  0
  188.3580  177.6960  147.6830 N   0  0  0  0  0  0  0  0  0  0  0  0
  188.8510  178.6410  148.3350 O   0  0  0  0  0  0  0  0  0  0  0  0
  188.8470  176.4230  147.8710 O   0  0  0  0  0  0  0  0  0  0  0  0
  187.6550  178.7770  140.9220 C   0  0  0  0  0  2  0  0  0  0  0  0
  188.2870  177.9420  139.8080 C   0  0  1  0  0  3  0  0  0  0  0  0
  188.7530  178.7720  138.6100 C   0  0  0  0  0  2  0  0  0  0  0  0
  188.1950  178.2690  137.2860 C   0  0  0  0  0  1  0  0  0  0  0  0
  189.3490  176.9580  140.3110 C   0  0  0  0  0  2  0  0  0  0  0  0
  190.6590  177.6230  140.7250 C   0  0  1  0  0  3  0  0  0  0  0  0
  190.9690  177.2990  142.1510 C   0  0  0  0  0  0  0  0  0  0  0  0
  191.3930  176.1060  142.5560 O   0  0  0  0  0  0  0  0  0  0  0  0
  191.8180  176.2270  145.9820 N   0  0  0  0  0  0  0  0  0  0  0  0
  191.3960  177.4760  145.6360 C   0  0  0  0  0  3  0  0  0  0  0  0
  190.8440  178.2220  143.2140 C   0  0  0  0  0  3  0  0  0  0  0  0
  191.5370  176.2260  143.8430 C   0  0  0  0  0  0  0  0  0  0  0  0
  191.9150  175.4240  144.8860 C   0  0  0  0  0  3  0  0  0  0  0  0
  192.1000  175.8000  147.3390 C   0  0  0  0  0  1  0  0  0  0  0  0
  191.2320  177.4360  144.2730 C   0  0  0  0  0  0  0  0  0  0  0  0
  191.1850  176.2480  139.0100 O   0  0  0  0  0  1  0  0  0  0  0  0
  191.7310  177.1450  139.8670 N   0  0  0  0  0  2  0  0  0  0  0  0
  1  2  1  6  0  0  0
  1  3  1  0  0  0  0
  3  5  1  0  0  0  0
  5  8  1  0  0  0  0
  6  7  1  0  0  0  0
  6  5  2  0  0  0  0
  7 10  2  0  0  0  0
  8  4  2  0  0  0  0
  8 16  1  0  0  0  0
 10  9  1  0  0  0  0
 10  4  1  0  0  0  0
 11 14  1  0  0  0  0
 13 12  1  0  0  0  0
 14 12  2  0  0  0  0
 14 17  1  0  0  0  0
 15 16  1  0  0  0  0
 15 11  2  0  0  0  0
 16 13  2  0  0  0  0
 17 19  2  0  0  0  0
 17 18  2  0  0  0  0
 20  1  1  0  0  0  0
 21 22  1  6  0  0  0
 21 24  1  0  0  0  0
 21 20  1  0  0  0  0
 23 22  1  0  0  0  0
 25 24  1  6  0  0  0
 25 26  1  0  0  0  0
 26 27  1  0  0  0  0
 26 30  2  0  0  0  0
 27 31  1  0  0  0  0
 28 33  1  0  0  0  0
 29 28  1  0  0  0  0
 30 34  1  0  0  0  0
 31 34  1  0  0  0  0
 31 32  2  0  0  0  0
 32 28  1  0  0  0  0
 34 29  2  0  0  0  0
 35 36  1  0  0  0  0
 36 25  1  0  0  0  0
M  END
>  <MODEL>
2

>  <REMARK>
 VINA RESULT:      -8.6      2.407      5.763
  Name = 
  11 active torsions:
  status: ('A' for Active; 'I' for Inactive)
    1  A    between atoms: N_1  and  C_20
    2  A    between atoms: C_2  and  C_10
    3  A    between atoms: C_10  and  C_14
    4  A    between atoms: C_10  and  N_18
    5  A    between atoms: C_11  and  O_28
    6  A    between atoms: C_12  and  C_27
    7  A    between atoms: C_14  and  C_27
    8  A    between atoms: C_22  and  O_28
    9  A    between atoms: C_22  and  C_35
   10  A    between atoms: C_26  and  C_36
   11  A    between atoms: C_27  and  C_35
                            x       y       z     vdW  Elec       q    Type
                         _______ _______ _______ _____ _____    ______ ____

>  <TORSDO>
F 11

$$$$
=
 OpenBabel11042411333D

 36 39  0  0  1  0  0  0  0  0999 V2000
  189.5460  177.0740  143.0810 C   0  0  2  0  0  3  0  0  0  0  0  0
  190.3070  175.7750  142.9040 C   0  0  0  0  0  1  0  0  0  0  0  0
  189.6990  177.8840  141.9200 O   0  0  0  0  0  0  0  0  0  0  0  0
  187.9680  177.8190  138.6410 C   0  0  0  0  0  3  0  0  0  0  0  0
  188.7110  177.9840  140.9350 C   0  0  0  0  0  0  0  0  0  0  0  0
  187.4600  178.4040  141.2800 N   0  0  0  0  0  0  0  0  0  0  0  0
  186.4630  178.5440  140.3670 C   0  0  0  0  0  3  0  0  0  0  0  0
  189.0000  177.6690  139.5830 C   0  0  0  0  0  0  0  0  0  0  0  0
  185.4280  178.4280  137.8410 Cl  0  0  0  0  0  0  0  0  0  0  0  0
  186.7030  178.2550  139.0280 C   0  0  0  0  0  0  0  0  0  0  0  0
  192.7490  176.9860  139.4010 C   0  0  0  0  0  3  0  0  0  0  0  0
  191.6860  176.0060  137.4660 C   0  0  0  0  0  3  0  0  0  0  0  0
  190.4470  176.4660  137.9180 C   0  0  0  0  0  3  0  0  0  0  0  0
  192.8470  176.2650  138.2030 C   0  0  0  0  0  0  0  0  0  0  0  0
  191.5090  177.4430  139.8500 C   0  0  0  0  0  3  0  0  0  0  0  0
  190.3370  177.1950  139.1160 C   0  0  0  0  0  0  0  0  0  0  0  0
  194.1190  175.8010  137.7320 N   0  0  0  0  0  0  0  0  0  0  0  0
  194.8310  175.0650  138.4470 O   0  0  0  0  0  0  0  0  0  0  0  0
  194.5780  176.1780  136.4900 O   0  0  0  0  0  0  0  0  0  0  0  0
  190.0950  177.8100  144.2870 C   0  0  0  0  0  2  0  0  0  0  0  0
  190.1760  176.8890  145.5050 C   0  0  1  0  0  3  0  0  0  0  0  0
  191.3350  177.2210  146.4470 C   0  0  0  0  0  2  0  0  0  0  0  0
  191.6620  176.0870  147.4080 C   0  0  0  0  0  1  0  0  0  0  0  0
  188.8370  176.7180  146.2310 C   0  0  0  0  0  2  0  0  0  0  0  0
  188.2120  178.0330  146.6890 C   0  0  1  0  0  3  0  0  0  0  0  0
  186.8960  178.2380  146.0100 C   0  0  0  0  0  0  0  0  0  0  0  0
  186.7010  178.0300  144.7120 O   0  0  0  0  0  0  0  0  0  0  0  0
  183.4090  178.7830  143.9890 N   0  0  0  0  0  0  0  0  0  0  0  0
  183.5350  179.0060  145.3280 C   0  0  0  0  0  3  0  0  0  0  0  0
  185.7270  178.6730  146.6730 C   0  0  0  0  0  3  0  0  0  0  0  0
  185.4500  178.3240  144.5140 C   0  0  0  0  0  0  0  0  0  0  0  0
  184.5860  178.3580  143.4530 C   0  0  0  0  0  3  0  0  0  0  0  0
  182.1910  178.9960  143.2310 C   0  0  0  0  0  1  0  0  0  0  0  0
  184.8410  178.7020  145.6220 C   0  0  0  0  0  0  0  0  0  0  0  0
  189.1530  178.4900  148.6930 O   0  0  0  0  0  1  0  0  0  0  0  0
  188.0230  177.9960  148.1300 N   0  0  0  0  0  2  0  0  0  0  0  0
  1  2  1  6  0  0  0
  1 20  1  0  0  0  0
  3  1  1  0  0  0  0
  4 10  1  0  0  0  0
  4  8  2  0  0  0  0
  5  6  2  0  0  0  0
  5  3  1  0  0  0  0
  7  6  1  0  0  0  0
  8  5  1  0  0  0  0
  9 10  1  0  0  0  0
 10  7  2  0  0  0  0
 11 15  1  0  0  0  0
 12 13  2  0  0  0  0
 12 14  1  0  0  0  0
 13 16  1  0  0  0  0
 14 11  2  0  0  0  0
 16  8  1  0  0  0  0
 16 15  2  0  0  0  0
 17 14  1  0  0  0  0
 17 18  2  0  0  0  0
 19 17  2  0  0  0  0
 21 20  1  6  0  0  0
 21 24  1  0  0  0  0
 21 22  1  0  0  0  0
 22 23  1  0  0  0  0
 25 24  1  6  0  0  0
 25 36  1  0  0  0  0
 26 30  2  0  0  0  0
 26 25  1  0  0  0  0
 27 26  1  0  0  0  0
 28 29  1  0  0  0  0
 29 34  2  0  0  0  0
 31 27  1  0  0  0  0
 31 34  1  0  0  0  0
 32 28  1  0  0  0  0
 32 31  2  0  0  0  0
 33 28  1  0  0  0  0
 34 30  1  0  0  0  0
 36 35  1  0  0  0  0
M  END
>  <MODEL>
3

>  <REMARK>
 VINA RESULT:      -8.5      2.946      7.276
  Name = 
  11 active torsions:
  status: ('A' for Active; 'I' for Inactive)
    1  A    between atoms: N_1  and  C_20
    2  A    between atoms: C_2  and  C_10
    3  A    between atoms: C_10  and  C_14
    4  A    between atoms: C_10  and  N_18
    5  A    between atoms: C_11  and  O_28
    6  A    between atoms: C_12  and  C_27
    7  A    between atoms: C_14  and  C_27
    8  A    between atoms: C_22  and  O_28
    9  A    between atoms: C_22  and  C_35
   10  A    between atoms: C_26  and  C_36
   11  A    between atoms: C_27  and  C_35
                            x       y       z     vdW  Elec       q    Type
                         _______ _______ _______ _____ _____    ______ ____

>  <TORSDO>
F 11

$$$$
=
 OpenBabel11042411333D

 36 39  0  0  1  0  0  0  0  0999 V2000
  189.1300  177.8160  142.3550 C   0  0  2  0  0  3  0  0  0  0  0  0
  190.1360  178.5710  143.2010 C   0  0  0  0  0  1  0  0  0  0  0  0
  188.1780  177.1730  143.1960 O   0  0  0  0  0  0  0  0  0  0  0  0
  187.0390  178.0280  146.6190 C   0  0  0  0  0  3  0  0  0  0  0  0
  188.1520  177.3560  144.5820 C   0  0  0  0  0  0  0  0  0  0  0  0
  189.2680  177.0810  145.3160 N   0  0  0  0  0  0  0  0  0  0  0  0
  189.3140  177.2600  146.6620 C   0  0  0  0  0  3  0  0  0  0  0  0
  186.9860  177.8400  145.2280 C   0  0  0  0  0  0  0  0  0  0  0  0
  188.2410  177.9740  149.0710 Cl  0  0  0  0  0  0  0  0  0  0  0  0
  188.1970  177.7410  147.3370 C   0  0  0  0  0  0  0  0  0  0  0  0
  184.3990  178.2920  142.4600 C   0  0  0  0  0  3  0  0  0  0  0  0
  183.4030  178.9290  144.5660 C   0  0  0  0  0  3  0  0  0  0  0  0
  184.6010  178.6310  145.2200 C   0  0  0  0  0  3  0  0  0  0  0  0
  183.2940  178.7650  143.1810 C   0  0  0  0  0  0  0  0  0  0  0  0
  185.5940  177.9930  143.1160 C   0  0  0  0  0  3  0  0  0  0  0  0
  185.7180  178.1600  144.5060 C   0  0  0  0  0  0  0  0  0  0  0  0
  182.0670  179.0810  142.5110 N   0  0  0  0  0  0  0  0  0  0  0  0
  181.9310  178.8510  141.2920 O   0  0  0  0  0  0  0  0  0  0  0  0
  181.0280  179.6610  143.2050 O   0  0  0  0  0  0  0  0  0  0  0  0
  189.8600  176.7750  141.5270 C   0  0  0  0  0  2  0  0  0  0  0  0
  190.1860  177.3090  140.1330 C   0  0  1  0  0  3  0  0  0  0  0  0
  190.7220  176.2400  139.1780 C   0  0  0  0  0  2  0  0  0  0  0  0
  192.1120  176.5600  138.6480 C   0  0  0  0  0  1  0  0  0  0  0  0
  189.0620  178.1540  139.5240 C   0  0  0  0  0  2  0  0  0  0  0  0
  188.6680  177.7300  138.1120 C   0  0  1  0  0  3  0  0  0  0  0  0
  187.1810  177.7690  137.9610 C   0  0  0  0  0  0  0  0  0  0  0  0
  186.3790  178.4450  138.7780 O   0  0  0  0  0  0  0  0  0  0  0  0
  183.1250  177.9540  137.7320 N   0  0  0  0  0  0  0  0  0  0  0  0
  183.8880  177.2470  136.8500 C   0  0  0  0  0  3  0  0  0  0  0  0
  186.4750  177.0940  136.9400 C   0  0  0  0  0  3  0  0  0  0  0  0
  185.1810  178.2220  138.3240 C   0  0  0  0  0  0  0  0  0  0  0  0
  183.9020  178.5720  138.6630 C   0  0  0  0  0  3  0  0  0  0  0  0
  181.6760  178.0170  137.6990 C   0  0  0  0  0  1  0  0  0  0  0  0
  185.1830  177.4450  137.2580 C   0  0  0  0  0  0  0  0  0  0  0  0
  188.8800  179.8870  137.4680 O   0  0  0  0  0  1  0  0  0  0  0  0
  189.2850  178.6330  137.1520 N   0  0  0  0  0  2  0  0  0  0  0  0
  1  3  1  0  0  0  0
  1  2  1  1  0  0  0
  3  5  1  0  0  0  0
  4 10  1  0  0  0  0
  5  8  1  0  0  0  0
  5  6  2  0  0  0  0
  6  7  1  0  0  0  0
  7 10  2  0  0  0  0
  8  4  2  0  0  0  0
 10  9  1  0  0  0  0
 11 15  2  0  0  0  0
 11 14  1  0  0  0  0
 12 13  1  0  0  0  0
 14 12  2  0  0  0  0
 15 16  1  0  0  0  0
 16 13  2  0  0  0  0
 16  8  1  0  0  0  0
 17 14  1  0  0  0  0
 17 19  2  0  0  0  0
 18 17  2  0  0  0  0
 20  1  1  0  0  0  0
 21 22  1  6  0  0  0
 21 20  1  0  0  0  0
 23 22  1  0  0  0  0
 24 21  1  0  0  0  0
 25 24  1  1  0  0  0
 26 25  1  0  0  0  0
 26 27  1  0  0  0  0
 28 32  1  0  0  0  0
 29 34  2  0  0  0  0
 29 28  1  0  0  0  0
 30 34  1  0  0  0  0
 30 26  2  0  0  0  0
 31 32  2  0  0  0  0
 31 27  1  0  0  0  0
 33 28  1  0  0  0  0
 34 31  1  0  0  0  0
 36 35  1  0  0  0  0
 36 25  1  0  0  0  0
M  END
>  <MODEL>
4

>  <REMARK>
 VINA RESULT:      -8.4      2.321      4.891
  Name = 
  11 active torsions:
  status: ('A' for Active; 'I' for Inactive)
    1  A    between atoms: N_1  and  C_20
    2  A    between atoms: C_2  and  C_10
    3  A    between atoms: C_10  and  C_14
    4  A    between atoms: C_10  and  N_18
    5  A    between atoms: C_11  and  O_28
    6  A    between atoms: C_12  and  C_27
    7  A    between atoms: C_14  and  C_27
    8  A    between atoms: C_22  and  O_28
    9  A    between atoms: C_22  and  C_35
   10  A    between atoms: C_26  and  C_36
   11  A    between atoms: C_27  and  C_35
                            x       y       z     vdW  Elec       q    Type
                         _______ _______ _______ _____ _____    ______ ____

>  <TORSDO>
F 11

$$$$
=
 OpenBabel11042411333D

 36 39  0  0  1  0  0  0  0  0999 V2000
  186.5410  178.1350  142.4390 C   0  0  2  0  0  3  0  0  0  0  0  0
  186.8450  177.5020  143.7830 C   0  0  0  0  0  1  0  0  0  0  0  0
  187.7050  178.7840  141.9380 O   0  0  0  0  0  0  0  0  0  0  0  0
  190.3090  177.1420  139.8730 C   0  0  0  0  0  3  0  0  0  0  0  0
  188.4220  178.3010  140.8390 C   0  0  0  0  0  0  0  0  0  0  0  0
  187.9660  178.5500  139.5780 N   0  0  0  0  0  0  0  0  0  0  0  0
  188.6280  178.1290  138.4690 C   0  0  0  0  0  3  0  0  0  0  0  0
  189.6250  177.5720  141.0210 C   0  0  0  0  0  0  0  0  0  0  0  0
  190.6800  176.8660  137.1800 Cl  0  0  0  0  0  0  0  0  0  0  0  0
  189.8160  177.4180  138.5990 C   0  0  0  0  0  0  0  0  0  0  0  0
  190.9130  175.6360  144.0460 C   0  0  0  0  0  3  0  0  0  0  0  0
  191.1270  178.0000  144.4880 C   0  0  0  0  0  3  0  0  0  0  0  0
  190.5840  178.2820  143.2320 C   0  0  0  0  0  3  0  0  0  0  0  0
  191.2930  176.6750  144.9060 C   0  0  0  0  0  0  0  0  0  0  0  0
  190.3730  175.9200  142.7900 C   0  0  0  0  0  3  0  0  0  0  0  0
  190.1950  177.2470  142.3630 C   0  0  0  0  0  0  0  0  0  0  0  0
  191.8400  176.3900  146.2000 N   0  0  0  0  0  0  0  0  0  0  0  0
  191.7560  177.2260  147.1230 O   0  0  0  0  0  0  0  0  0  0  0  0
  192.4820  175.1950  146.4320 O   0  0  0  0  0  0  0  0  0  0  0  0
  185.4280  179.1510  142.6090 C   0  0  0  0  0  2  0  0  0  0  0  0
  184.0600  178.5170  142.3570 C   0  0  1  0  0  3  0  0  0  0  0  0
  183.0610  178.7460  143.4940 C   0  0  0  0  0  2  0  0  0  0  0  0
  183.7330  179.0770  144.8180 C   0  0  0  0  0  1  0  0  0  0  0  0
  183.4850  178.8360  140.9730 C   0  0  0  0  0  2  0  0  0  0  0  0
  184.5240  178.8200  139.8560 C   0  0  1  0  0  3  0  0  0  0  0  0
  184.2000  177.7430  138.8700 C   0  0  0  0  0  0  0  0  0  0  0  0
  183.2340  176.8500  139.0540 O   0  0  0  0  0  0  0  0  0  0  0  0
  183.2080  174.7270  136.3290 N   0  0  0  0  0  0  0  0  0  0  0  0
  184.2080  175.6170  136.0720 C   0  0  0  0  0  3  0  0  0  0  0  0
  184.8850  177.5620  137.6480 C   0  0  0  0  0  3  0  0  0  0  0  0
  183.2770  176.0940  137.9960 C   0  0  0  0  0  0  0  0  0  0  0  0
  182.6090  174.9980  137.5220 C   0  0  0  0  0  3  0  0  0  0  0  0
  182.8470  173.6220  135.4620 C   0  0  0  0  0  1  0  0  0  0  0  0
  184.2180  176.4680  137.1490 C   0  0  0  0  0  0  0  0  0  0  0  0
  183.2370  180.4550  138.9710 O   0  0  0  0  0  1  0  0  0  0  0  0
  184.5300  180.1130  139.1890 N   0  0  0  0  0  2  0  0  0  0  0  0
  1 20  1  0  0  0  0
  1  2  1  1  0  0  0
  3  1  1  0  0  0  0
  4  8  2  0  0  0  0
  5  8  1  0  0  0  0
  5  3  1  0  0  0  0
  6  5  2  0  0  0  0
  7 10  2  0  0  0  0
  7  6  1  0  0  0  0
  8 16  1  0  0  0  0
  9 10  1  0  0  0  0
 10  4  1  0  0  0  0
 11 14  1  0  0  0  0
 12 14  2  0  0  0  0
 13 12  1  0  0  0  0
 14 17  1  0  0  0  0
 15 11  2  0  0  0  0
 16 15  1  0  0  0  0
 16 13  2  0  0  0  0
 17 19  2  0  0  0  0
 17 18  2  0  0  0  0
 21 24  1  6  0  0  0
 21 20  1  0  0  0  0
 21 22  1  0  0  0  0
 22 23  1  0  0  0  0
 25 24  1  1  0  0  0
 26 27  1  0  0  0  0
 26 25  1  0  0  0  0
 28 32  1  0  0  0  0
 29 28  1  0  0  0  0
 29 34  2  0  0  0  0
 30 26  2  0  0  0  0
 31 27  1  0  0  0  0
 32 31  2  0  0  0  0
 33 28  1  0  0  0  0
 34 30  1  0  0  0  0
 34 31  1  0  0  0  0
 35 36  1  0  0  0  0
 36 25  1  0  0  0  0
M  END
>  <MODEL>
5

>  <REMARK>
 VINA RESULT:      -8.4      2.750      5.120
  Name = 
  11 active torsions:
  status: ('A' for Active; 'I' for Inactive)
    1  A    between atoms: N_1  and  C_20
    2  A    between atoms: C_2  and  C_10
    3  A    between atoms: C_10  and  C_14
    4  A    between atoms: C_10  and  N_18
    5  A    between atoms: C_11  and  O_28
    6  A    between atoms: C_12  and  C_27
    7  A    between atoms: C_14  and  C_27
    8  A    between atoms: C_22  and  O_28
    9  A    between atoms: C_22  and  C_35
   10  A    between atoms: C_26  and  C_36
   11  A    between atoms: C_27  and  C_35
                            x       y       z     vdW  Elec       q    Type
                         _______ _______ _______ _____ _____    ______ ____

>  <TORSDO>
F 11

$$$$
=
 OpenBabel11042411333D

 36 39  0  0  1  0  0  0  0  0999 V2000
  186.5380  178.0840  142.5080 C   0  0  2  0  0  3  0  0  0  0  0  0
  186.7630  177.5240  143.8990 C   0  0  0  0  0  1  0  0  0  0  0  0
  187.7190  178.7370  142.0540 O   0  0  0  0  0  0  0  0  0  0  0  0
  190.3880  177.1850  140.0030 C   0  0  0  0  0  3  0  0  0  0  0  0
  188.4580  178.2800  140.9590 C   0  0  0  0  0  0  0  0  0  0  0  0
  188.0020  178.5170  139.6960 N   0  0  0  0  0  0  0  0  0  0  0  0
  188.6850  178.1190  138.5900 C   0  0  0  0  0  3  0  0  0  0  0  0
  189.6830  177.5900  141.1470 C   0  0  0  0  0  0  0  0  0  0  0  0
  190.7850  176.9270  137.3120 Cl  0  0  0  0  0  0  0  0  0  0  0  0
  189.8950  177.4470  138.7270 C   0  0  0  0  0  0  0  0  0  0  0  0
  190.9110  177.9540  144.7420 C   0  0  0  0  0  3  0  0  0  0  0  0
  191.2030  175.6590  144.0490 C   0  0  0  0  0  3  0  0  0  0  0  0
  190.6730  175.9720  142.7950 C   0  0  0  0  0  3  0  0  0  0  0  0
  191.3290  176.6480  145.0310 C   0  0  0  0  0  0  0  0  0  0  0  0
  190.3800  178.2640  143.4880 C   0  0  0  0  0  3  0  0  0  0  0  0
  190.2550  177.2800  142.4920 C   0  0  0  0  0  0  0  0  0  0  0  0
  191.8830  176.3260  146.3130 N   0  0  0  0  0  0  0  0  0  0  0  0
  192.4410  175.2250  146.5050 O   0  0  0  0  0  0  0  0  0  0  0  0
  191.7900  177.2230  147.3530 O   0  0  0  0  0  0  0  0  0  0  0  0
  185.3940  179.0790  142.5540 C   0  0  0  0  0  2  0  0  0  0  0  0
  184.0470  178.3790  142.3800 C   0  0  1  0  0  3  0  0  0  0  0  0
  182.9850  178.8390  143.3820 C   0  0  0  0  0  2  0  0  0  0  0  0
  183.5580  179.1360  144.7600 C   0  0  0  0  0  1  0  0  0  0  0  0
  183.5470  178.3670  140.9320 C   0  0  0  0  0  2  0  0  0  0  0  0
  182.0280  178.2760  140.8050 C   0  0  1  0  0  3  0  0  0  0  0  0
  181.5010  179.4760  140.0860 C   0  0  0  0  0  0  0  0  0  0  0  0
  180.3760  180.0970  140.4250 O   0  0  0  0  0  0  0  0  0  0  0  0
  179.8960  182.7190  138.2280 N   0  0  0  0  0  0  0  0  0  0  0  0
  181.0640  182.1370  137.8320 C   0  0  0  0  0  3  0  0  0  0  0  0
  182.1400  180.0740  138.9770 C   0  0  0  0  0  3  0  0  0  0  0  0
  180.2630  181.0690  139.5680 C   0  0  0  0  0  0  0  0  0  0  0  0
  179.3720  182.0740  139.3080 C   0  0  0  0  0  3  0  0  0  0  0  0
  179.2790  183.8550  137.5720 C   0  0  0  0  0  1  0  0  0  0  0  0
  181.2630  181.0980  138.7070 C   0  0  0  0  0  0  0  0  0  0  0  0
  180.3900  176.7820  140.3630 O   0  0  0  0  0  1  0  0  0  0  0  0
  181.6820  177.0700  140.0700 N   0  0  0  0  0  2  0  0  0  0  0  0
  1 20  1  0  0  0  0
  1  2  1  1  0  0  0
  3  1  1  0  0  0  0
  4  8  2  0  0  0  0
  5  8  1  0  0  0  0
  5  3  1  0  0  0  0
  6  5  2  0  0  0  0
  7 10  2  0  0  0  0
  7  6  1  0  0  0  0
  8 16  1  0  0  0  0
  9 10  1  0  0  0  0
 10  4  1  0  0  0  0
 11 14  1  0  0  0  0
 12 14  2  0  0  0  0
 13 12  1  0  0  0  0
 14 17  1  0  0  0  0
 15 11  2  0  0  0  0
 16 13  2  0  0  0  0
 16 15  1  0  0  0  0
 17 18  2  0  0  0  0
 17 19  2  0  0  0  0
 21 24  1  6  0  0  0
 21 20  1  0  0  0  0
 21 22  1  0  0  0  0
 22 23  1  0  0  0  0
 25 24  1  6  0  0  0
 26 27  1  0  0  0  0
 26 25  1  0  0  0  0
 28 32  1  0  0  0  0
 29 28  1  0  0  0  0
 29 34  2  0  0  0  0
 30 26  2  0  0  0  0
 31 27  1  0  0  0  0
 32 31  2  0  0  0  0
 33 28  1  0  0  0  0
 34 30  1  0  0  0  0
 34 31  1  0  0  0  0
 36 35  1  0  0  0  0
 36 25  1  0  0  0  0
M  END
>  <MODEL>
6

>  <REMARK>
 VINA RESULT:      -8.3      3.231      5.804
  Name = 
  11 active torsions:
  status: ('A' for Active; 'I' for Inactive)
    1  A    between atoms: N_1  and  C_20
    2  A    between atoms: C_2  and  C_10
    3  A    between atoms: C_10  and  C_14
    4  A    between atoms: C_10  and  N_18
    5  A    between atoms: C_11  and  O_28
    6  A    between atoms: C_12  and  C_27
    7  A    between atoms: C_14  and  C_27
    8  A    between atoms: C_22  and  O_28
    9  A    between atoms: C_22  and  C_35
   10  A    between atoms: C_26  and  C_36
   11  A    between atoms: C_27  and  C_35
                            x       y       z     vdW  Elec       q    Type
                         _______ _______ _______ _____ _____    ______ ____

>  <TORSDO>
F 11

$$$$
=
 OpenBabel11042411333D

 36 39  0  0  1  0  0  0  0  0999 V2000
  186.4440  178.1440  142.4530 C   0  0  2  0  0  3  0  0  0  0  0  0
  186.7360  177.5300  143.8080 C   0  0  0  0  0  1  0  0  0  0  0  0
  187.6150  178.7760  141.9470 O   0  0  0  0  0  0  0  0  0  0  0  0
  190.1410  177.1570  139.7680 C   0  0  0  0  0  3  0  0  0  0  0  0
  188.2940  178.3100  140.8160 C   0  0  0  0  0  0  0  0  0  0  0  0
  187.8000  178.5870  139.5750 N   0  0  0  0  0  0  0  0  0  0  0  0
  188.4240  178.1830  138.4380 C   0  0  0  0  0  3  0  0  0  0  0  0
  189.4960  177.5690  140.9460 C   0  0  0  0  0  0  0  0  0  0  0  0
  190.4250  176.9320  137.0610 Cl  0  0  0  0  0  0  0  0  0  0  0  0
  189.6110  177.4610  138.5170 C   0  0  0  0  0  0  0  0  0  0  0  0
  190.7460  175.5720  143.9470 C   0  0  0  0  0  3  0  0  0  0  0  0
  191.2350  177.9090  144.3110 C   0  0  0  0  0  3  0  0  0  0  0  0
  190.6530  178.2190  143.0790 C   0  0  0  0  0  3  0  0  0  0  0  0
  191.2830  176.5830  144.7560 C   0  0  0  0  0  0  0  0  0  0  0  0
  190.1670  175.8850  142.7160 C   0  0  0  0  0  3  0  0  0  0  0  0
  190.1060  177.2140  142.2620 C   0  0  0  0  0  0  0  0  0  0  0  0
  191.8720  176.2680  146.0240 N   0  0  0  0  0  0  0  0  0  0  0  0
  192.4910  175.1960  146.1880 O   0  0  0  0  0  0  0  0  0  0  0  0
  191.7450  177.1390  147.0820 O   0  0  0  0  0  0  0  0  0  0  0  0
  185.3380  179.1710  142.6010 C   0  0  0  0  0  2  0  0  0  0  0  0
  183.9670  178.5450  142.3500 C   0  0  1  0  0  3  0  0  0  0  0  0
  182.9520  178.8290  143.4600 C   0  0  0  0  0  2  0  0  0  0  0  0
  183.5920  178.9310  144.8370 C   0  0  0  0  0  1  0  0  0  0  0  0
  183.4180  178.8190  140.9450 C   0  0  0  0  0  2  0  0  0  0  0  0
  184.0000  177.9080  139.8680 C   0  0  1  0  0  3  0  0  0  0  0  0
  182.9600  176.9430  139.3970 C   0  0  0  0  0  0  0  0  0  0  0  0
  181.9530  176.5230  140.1560 O   0  0  0  0  0  0  0  0  0  0  0  0
  180.0700  174.2990  138.3020 N   0  0  0  0  0  0  0  0  0  0  0  0
  181.0710  174.6950  137.4660 C   0  0  0  0  0  3  0  0  0  0  0  0
  182.9380  176.3790  138.1020 C   0  0  0  0  0  3  0  0  0  0  0  0
  181.2870  175.7020  139.3980 C   0  0  0  0  0  0  0  0  0  0  0  0
  180.1780  174.9090  139.5150 C   0  0  0  0  0  3  0  0  0  0  0  0
  179.0420  173.3360  137.9570 C   0  0  0  0  0  1  0  0  0  0  0  0
  181.8190  175.5850  138.1960 C   0  0  0  0  0  0  0  0  0  0  0  0
  184.5530  179.9950  139.2000 O   0  0  0  0  0  1  0  0  0  0  0  0
  184.4620  178.7190  138.7530 N   0  0  0  0  0  2  0  0  0  0  0  0
  1 20  1  0  0  0  0
  1  2  1  1  0  0  0
  3  1  1  0  0  0  0
  4  8  2  0  0  0  0
  5  8  1  0  0  0  0
  5  3  1  0  0  0  0
  6  5  2  0  0  0  0
  7 10  2  0  0  0  0
  7  6  1  0  0  0  0
  8 16  1  0  0  0  0
  9 10  1  0  0  0  0
 10  4  1  0  0  0  0
 11 14  1  0  0  0  0
 12 14  2  0  0  0  0
 13 12  1  0  0  0  0
 14 17  1  0  0  0  0
 15 11  2  0  0  0  0
 16 15  1  0  0  0  0
 16 13  2  0  0  0  0
 17 18  2  0  0  0  0
 17 19  2  0  0  0  0
 21 24  1  6  0  0  0
 21 20  1  0  0  0  0
 21 22  1  0  0  0  0
 22 23  1  0  0  0  0
 25 24  1  1  0  0  0
 26 25  1  0  0  0  0
 26 27  1  0  0  0  0
 28 32  1  0  0  0  0
 29 34  2  0  0  0  0
 29 28  1  0  0  0  0
 30 34  1  0  0  0  0
 30 26  2  0  0  0  0
 31 32  2  0  0  0  0
 31 27  1  0  0  0  0
 33 28  1  0  0  0  0
 34 31  1  0  0  0  0
 36 35  1  0  0  0  0
 36 25  1  0  0  0  0
M  END
>  <MODEL>
7

>  <REMARK>
 VINA RESULT:      -8.1      2.996      5.323
  Name = 
  11 active torsions:
  status: ('A' for Active; 'I' for Inactive)
    1  A    between atoms: N_1  and  C_20
    2  A    between atoms: C_2  and  C_10
    3  A    between atoms: C_10  and  C_14
    4  A    between atoms: C_10  and  N_18
    5  A    between atoms: C_11  and  O_28
    6  A    between atoms: C_12  and  C_27
    7  A    between atoms: C_14  and  C_27
    8  A    between atoms: C_22  and  O_28
    9  A    between atoms: C_22  and  C_35
   10  A    between atoms: C_26  and  C_36
   11  A    between atoms: C_27  and  C_35
                            x       y       z     vdW  Elec       q    Type
                         _______ _______ _______ _____ _____    ______ ____

>  <TORSDO>
F 11

$$$$
=
 OpenBabel11042411333D

 36 39  0  0  1  0  0  0  0  0999 V2000
  184.5660  178.4910  143.5010 C   0  0  2  0  0  3  0  0  0  0  0  0
  184.9690  179.8480  144.0430 C   0  0  0  0  0  1  0  0  0  0  0  0
  185.5570  177.5250  143.8360 O   0  0  0  0  0  0  0  0  0  0  0  0
  188.6770  177.8080  145.8190 C   0  0  0  0  0  3  0  0  0  0  0  0
  186.4430  177.6940  144.9050 C   0  0  0  0  0  0  0  0  0  0  0  0
  185.9490  177.8780  146.1630 N   0  0  0  0  0  0  0  0  0  0  0  0
  186.7570  178.0260  147.2460 C   0  0  0  0  0  3  0  0  0  0  0  0
  187.8450  177.6600  144.6970 C   0  0  0  0  0  0  0  0  0  0  0  0
  189.1910  178.1810  148.4760 Cl  0  0  0  0  0  0  0  0  0  0  0  0
  188.1380  177.9900  147.0910 C   0  0  0  0  0  0  0  0  0  0  0  0
  190.0860  176.3820  141.8850 C   0  0  0  0  0  3  0  0  0  0  0  0
  188.5860  178.0490  140.9880 C   0  0  0  0  0  3  0  0  0  0  0  0
  188.0180  178.2160  142.2540 C   0  0  0  0  0  3  0  0  0  0  0  0
  189.6270  177.1330  140.7950 C   0  0  0  0  0  0  0  0  0  0  0  0
  189.5140  176.5490  143.1480 C   0  0  0  0  0  3  0  0  0  0  0  0
  188.4740  177.4710  143.3560 C   0  0  0  0  0  0  0  0  0  0  0  0
  190.2150  176.9720  139.4980 N   0  0  0  0  0  0  0  0  0  0  0  0
  190.2810  177.9360  138.7070 O   0  0  0  0  0  0  0  0  0  0  0  0
  190.6970  175.7450  139.1030 O   0  0  0  0  0  0  0  0  0  0  0  0
  184.4340  178.5780  141.9930 C   0  0  0  0  0  2  0  0  0  0  0  0
  182.9790  178.4070  141.5560 C   0  0  1  0  0  3  0  0  0  0  0  0
  181.9700  178.9970  142.5440 C   0  0  0  0  0  2  0  0  0  0  0  0
  180.5340  178.6000  142.2350 C   0  0  0  0  0  1  0  0  0  0  0  0
  182.7230  178.8310  140.1060 C   0  0  0  0  0  2  0  0  0  0  0  0
  182.7000  177.6670  139.1190 C   0  0  1  0  0  3  0  0  0  0  0  0
  184.0060  177.5820  138.3960 C   0  0  0  0  0  0  0  0  0  0  0  0
  184.3780  176.5280  137.6770 O   0  0  0  0  0  0  0  0  0  0  0  0
  187.5260  177.1580  136.4040 N   0  0  0  0  0  0  0  0  0  0  0  0
  187.2040  178.2760  137.1150 C   0  0  0  0  0  3  0  0  0  0  0  0
  184.9770  178.6080  138.4020 C   0  0  0  0  0  3  0  0  0  0  0  0
  185.5590  176.8350  137.2270 C   0  0  0  0  0  0  0  0  0  0  0  0
  186.5200  176.2410  136.4550 C   0  0  0  0  0  3  0  0  0  0  0  0
  188.7820  176.9590  135.7070 C   0  0  0  0  0  1  0  0  0  0  0  0
  185.9500  178.0330  137.6180 C   0  0  0  0  0  0  0  0  0  0  0  0
  181.1920  176.0390  139.5500 O   0  0  0  0  0  1  0  0  0  0  0  0
  182.4560  176.4310  139.8430 N   0  0  0  0  0  2  0  0  0  0  0  0
  1  3  1  0  0  0  0
  1  2  1  6  0  0  0
  3  5  1  0  0  0  0
  4 10  1  0  0  0  0
  5  6  2  0  0  0  0
  6  7  1  0  0  0  0
  8  5  1  0  0  0  0
  8  4  2  0  0  0  0
 10  7  2  0  0  0  0
 10  9  1  0  0  0  0
 11 15  1  0  0  0  0
 12 13  2  0  0  0  0
 13 16  1  0  0  0  0
 14 12  1  0  0  0  0
 14 11  2  0  0  0  0
 15 16  2  0  0  0  0
 16  8  1  0  0  0  0
 17 14  1  0  0  0  0
 18 17  2  0  0  0  0
 19 17  2  0  0  0  0
 20  1  1  0  0  0  0
 21 24  1  6  0  0  0
 21 20  1  0  0  0  0
 21 22  1  0  0  0  0
 23 22  1  0  0  0  0
 25 36  1  0  0  0  0
 25 24  1  1  0  0  0
 26 30  2  0  0  0  0
 26 25  1  0  0  0  0
 27 26  1  0  0  0  0
 28 32  1  0  0  0  0
 28 29  1  0  0  0  0
 29 34  2  0  0  0  0
 31 34  1  0  0  0  0
 31 27  1  0  0  0  0
 32 31  2  0  0  0  0
 33 28  1  0  0  0  0
 34 30  1  0  0  0  0
 35 36  1  0  0  0  0
M  END
>  <MODEL>
8

>  <REMARK>
 VINA RESULT:      -7.9      3.074      5.918
  Name = 
  11 active torsions:
  status: ('A' for Active; 'I' for Inactive)
    1  A    between atoms: N_1  and  C_20
    2  A    between atoms: C_2  and  C_10
    3  A    between atoms: C_10  and  C_14
    4  A    between atoms: C_10  and  N_18
    5  A    between atoms: C_11  and  O_28
    6  A    between atoms: C_12  and  C_27
    7  A    between atoms: C_14  and  C_27
    8  A    between atoms: C_22  and  O_28
    9  A    between atoms: C_22  and  C_35
   10  A    between atoms: C_26  and  C_36
   11  A    between atoms: C_27  and  C_35
                            x       y       z     vdW  Elec       q    Type
                         _______ _______ _______ _____ _____    ______ ____

>  <TORSDO>
F 11

$$$$
=
 OpenBabel11042411333D

 36 39  0  0  1  0  0  0  0  0999 V2000
  189.0730  177.8310  142.3460 C   0  0  2  0  0  3  0  0  0  0  0  0
  190.0780  178.6320  143.1510 C   0  0  0  0  0  1  0  0  0  0  0  0
  188.2380  177.0850  143.2240 O   0  0  0  0  0  0  0  0  0  0  0  0
  187.1140  178.0310  146.6280 C   0  0  0  0  0  3  0  0  0  0  0  0
  188.2150  177.2980  144.6060 C   0  0  0  0  0  0  0  0  0  0  0  0
  189.3270  177.0210  145.3460 N   0  0  0  0  0  0  0  0  0  0  0  0
  189.3770  177.2280  146.6870 C   0  0  0  0  0  3  0  0  0  0  0  0
  187.0570  177.8140  145.2420 C   0  0  0  0  0  0  0  0  0  0  0  0
  188.3160  178.0100  149.0810 Cl  0  0  0  0  0  0  0  0  0  0  0  0
  188.2680  177.7410  147.3520 C   0  0  0  0  0  0  0  0  0  0  0  0
  183.4850  178.9220  144.4840 C   0  0  0  0  0  3  0  0  0  0  0  0
  184.5570  178.2860  142.4150 C   0  0  0  0  0  3  0  0  0  0  0  0
  185.7260  177.9810  143.1180 C   0  0  0  0  0  3  0  0  0  0  0  0
  183.4270  178.7560  143.0940 C   0  0  0  0  0  0  0  0  0  0  0  0
  184.6550  178.6180  145.1830 C   0  0  0  0  0  3  0  0  0  0  0  0
  185.7940  178.1390  144.5130 C   0  0  0  0  0  0  0  0  0  0  0  0
  182.2260  179.0590  142.3720 N   0  0  0  0  0  0  0  0  0  0  0  0
  182.0710  178.6550  141.2000 O   0  0  0  0  0  0  0  0  0  0  0  0
  181.2370  179.8140  142.9590 O   0  0  0  0  0  0  0  0  0  0  0  0
  189.8170  176.8830  141.4260 C   0  0  0  0  0  2  0  0  0  0  0  0
  189.7510  177.3560  139.9740 C   0  0  1  0  0  3  0  0  0  0  0  0
  190.5620  176.4890  139.0090 C   0  0  0  0  0  2  0  0  0  0  0  0
  192.0510  176.7990  139.0410 C   0  0  0  0  0  1  0  0  0  0  0  0
  188.3240  177.6310  139.4870 C   0  0  0  0  0  2  0  0  0  0  0  0
  188.1960  177.7050  137.9670 C   0  0  1  0  0  3  0  0  0  0  0  0
  187.1490  176.7490  137.4950 C   0  0  0  0  0  0  0  0  0  0  0  0
  185.8710  177.0810  137.3360 O   0  0  0  0  0  0  0  0  0  0  0  0
  184.1610  174.2780  136.2650 N   0  0  0  0  0  0  0  0  0  0  0  0
  185.4560  173.8710  136.3970 C   0  0  0  0  0  3  0  0  0  0  0  0
  187.4040  175.3980  137.1720 C   0  0  0  0  0  3  0  0  0  0  0  0
  185.2940  175.9890  136.9280 C   0  0  0  0  0  0  0  0  0  0  0  0
  184.0280  175.5940  136.5900 C   0  0  0  0  0  3  0  0  0  0  0  0
  183.0660  173.4190  135.8590 C   0  0  0  0  0  1  0  0  0  0  0  0
  186.1410  174.9840  136.8160 C   0  0  0  0  0  0  0  0  0  0  0  0
  188.9910  179.7550  137.4430 O   0  0  0  0  0  1  0  0  0  0  0  0
  187.8360  179.0600  137.5830 N   0  0  0  0  0  2  0  0  0  0  0  0
  1  2  1  1  0  0  0
  1  3  1  0  0  0  0
  3  5  1  0  0  0  0
  4 10  1  0  0  0  0
  5  8  1  0  0  0  0
  5  6  2  0  0  0  0
  6  7  1  0  0  0  0
  7 10  2  0  0  0  0
  8  4  2  0  0  0  0
 10  9  1  0  0  0  0
 11 15  1  0  0  0  0
 12 14  1  0  0  0  0
 12 13  2  0  0  0  0
 13 16  1  0  0  0  0
 14 11  2  0  0  0  0
 16 15  2  0  0  0  0
 16  8  1  0  0  0  0
 17 19  2  0  0  0  0
 17 14  1  0  0  0  0
 18 17  2  0  0  0  0
 20  1  1  0  0  0  0
 21 22  1  6  0  0  0
 21 20  1  0  0  0  0
 22 23  1  0  0  0  0
 24 21  1  0  0  0  0
 25 24  1  1  0  0  0
 26 25  1  0  0  0  0
 27 26  1  0  0  0  0
 28 29  1  0  0  0  0
 28 32  1  0  0  0  0
 29 34  2  0  0  0  0
 30 26  2  0  0  0  0
 31 27  1  0  0  0  0
 32 31  2  0  0  0  0
 33 28  1  0  0  0  0
 34 31  1  0  0  0  0
 34 30  1  0  0  0  0
 35 36  1  0  0  0  0
 36 25  1  0  0  0  0
M  END
>  <MODEL>
9

>  <REMARK>
 VINA RESULT:      -7.9      2.634      5.183
  Name = 
  11 active torsions:
  status: ('A' for Active; 'I' for Inactive)
    1  A    between atoms: N_1  and  C_20
    2  A    between atoms: C_2  and  C_10
    3  A    between atoms: C_10  and  C_14
    4  A    between atoms: C_10  and  N_18
    5  A    between atoms: C_11  and  O_28
    6  A    between atoms: C_12  and  C_27
    7  A    between atoms: C_14  and  C_27
    8  A    between atoms: C_22  and  O_28
    9  A    between atoms: C_22  and  C_35
   10  A    between atoms: C_26  and  C_36
   11  A    between atoms: C_27  and  C_35
                            x       y       z     vdW  Elec       q    Type
                         _______ _______ _______ _____ _____    ______ ____

>  <TORSDO>
F 11

$$$$
