=
 OpenBabel11032419203D

 25 27  0  0  1  0  0  0  0  0999 V2000
  185.3430  178.5790  145.9790 C   0  0  0  0  0  3  0  0  0  0  0  0
  186.5810  178.0960  145.5350 C   0  0  0  0  0  0  0  0  0  0  0  0
  189.6580  177.2290  147.2760 C   0  0  0  0  0  0  0  0  0  0  0  0
  188.1000  177.2800  143.6340 C   0  0  2  0  0  3  0  0  0  0  0  0
  188.8290  177.3490  146.1030 C   0  0  0  0  0  0  0  0  0  0  0  0
  187.6870  177.8900  146.4820 C   0  0  0  0  0  0  0  0  0  0  0  0
  184.4640  178.4100  143.7300 C   0  0  0  0  0  3  0  0  0  0  0  0
  183.0940  179.2040  145.5100 F   0  0  0  0  0  0  0  0  0  0  0  0
  188.9770  177.7190  148.3760 O   0  0  0  0  0  0  0  0  0  0  0  0
  190.8230  176.7530  147.3190 O   0  0  0  0  0  0  0  0  0  0  0  0
  190.1560  176.3270  144.4280 O   0  0  0  0  0  0  0  0  0  0  0  0
  184.2890  178.7370  145.0770 C   0  0  0  0  0  0  0  0  0  0  0  0
  187.6860  178.1690  147.9620 C   0  0  0  0  0  2  0  0  0  0  0  0
  186.7640  177.7690  144.1710 C   0  0  0  0  0  0  0  0  0  0  0  0
  189.0950  176.9390  144.7190 C   0  0  0  0  0  0  0  0  0  0  0  0
  185.6960  177.9290  143.2790 C   0  0  0  0  0  3  0  0  0  0  0  0
  188.6480  178.2450  142.7880 O   0  0  0  0  0  0  0  0  0  0  0  0
  188.8090  177.5990  141.5590 C   0  0  0  0  0  2  0  0  0  0  0  0
  188.4900  178.5570  140.4270 C   0  0  2  0  0  3  0  0  0  0  0  0
  187.0680  178.5120  140.1340 N   0  0  0  0  0  1  0  0  0  0  0  0
  189.2800  178.1530  139.1930 C   0  0  0  0  0  2  0  0  0  0  0  0
  189.1420  179.1310  138.1690 O   0  0  0  0  0  0  0  0  0  0  0  0
  189.0900  178.0090  135.9860 N   0  0  0  0  0  1  0  0  0  0  0  0
  187.3710  179.3760  136.7320 O   0  0  0  0  0  0  0  0  0  0  0  0
  188.4960  178.8620  136.9600 C   0  0  0  0  0  0  0  0  0  0  0  0
  2  1  1  0  0  0  0
  2  6  1  0  0  0  0
  3 10  2  0  0  0  0
  3  9  1  0  0  0  0
  4 17  1  6  0  0  0
  4 14  1  0  0  0  0
  4 15  1  0  0  0  0
  5  6  2  0  0  0  0
  5  3  1  0  0  0  0
  6 13  1  0  0  0  0
  7 12  1  0  0  0  0
 11 15  2  0  0  0  0
 12  8  1  0  0  0  0
 12  1  2  0  0  0  0
 13  9  1  0  0  0  0
 14  2  2  0  0  0  0
 15  5  1  0  0  0  0
 16  7  2  0  0  0  0
 16 14  1  0  0  0  0
 18 17  1  0  0  0  0
 19 20  1  6  0  0  0
 19 18  1  0  0  0  0
 21 19  1  0  0  0  0
 22 21  1  0  0  0  0
 23 25  1  0  0  0  0
 24 25  2  0  0  0  0
 25 22  1  0  0  0  0
M  END
>  <MODEL>
1

>  <REMARK>
 VINA RESULT:      -9.0      0.000      0.000
  Name = 
  6 active torsions:
  status: ('A' for Active; 'I' for Inactive)
    1  A    between atoms: C_2  and  C_21
    2  A    between atoms: C_2  and  C_25
    3  A    between atoms: C_5  and  O_18
    4  A    between atoms: O_7  and  C_17
    5  A    between atoms: O_7  and  C_21
    6  A    between atoms: O_18  and  C_25
                            x       y       z     vdW  Elec       q    Type
                         _______ _______ _______ _____ _____    ______ ____

>  <TORSDO>
F 6

$$$$
=
 OpenBabel11032419203D

 25 27  0  0  1  0  0  0  0  0999 V2000
  185.5450  178.4870  145.8060 C   0  0  0  0  0  3  0  0  0  0  0  0
  186.7440  177.9910  145.2770 C   0  0  0  0  0  0  0  0  0  0  0  0
  189.8900  176.9940  146.8120 C   0  0  0  0  0  0  0  0  0  0  0  0
  188.1320  177.2020  143.2680 C   0  0  2  0  0  3  0  0  0  0  0  0
  189.0000  177.1730  145.6920 C   0  0  0  0  0  0  0  0  0  0  0  0
  187.8950  177.7270  146.1530 C   0  0  0  0  0  0  0  0  0  0  0  0
  184.5370  178.4140  143.6060 C   0  0  0  0  0  3  0  0  0  0  0  0
  183.2890  179.1810  145.4850 F   0  0  0  0  0  0  0  0  0  0  0  0
  189.2840  177.4630  147.9640 O   0  0  0  0  0  0  0  0  0  0  0  0
  191.0430  176.4890  146.7730 O   0  0  0  0  0  0  0  0  0  0  0  0
  190.2050  176.1760  143.9130 O   0  0  0  0  0  0  0  0  0  0  0  0
  184.4460  178.7010  144.9710 C   0  0  0  0  0  0  0  0  0  0  0  0
  187.9840  177.9570  147.6380 C   0  0  0  0  0  2  0  0  0  0  0  0
  186.8410  177.7050  143.8950 C   0  0  0  0  0  0  0  0  0  0  0  0
  189.1780  176.8020  144.2830 C   0  0  0  0  0  0  0  0  0  0  0  0
  185.7290  177.9200  143.0710 C   0  0  0  0  0  3  0  0  0  0  0  0
  188.6570  178.1830  142.4230 O   0  0  0  0  0  0  0  0  0  0  0  0
  188.8630  177.5340  141.2020 C   0  0  0  0  0  2  0  0  0  0  0  0
  188.6130  178.4980  140.0580 C   0  0  2  0  0  3  0  0  0  0  0  0
  187.2040  178.4820  139.7030 N   0  0  0  0  0  1  0  0  0  0  0  0
  189.4470  178.0770  138.8590 C   0  0  0  0  0  2  0  0  0  0  0  0
  190.6380  177.4240  139.2840 O   0  0  0  0  0  0  0  0  0  0  0  0
  190.6900  175.1780  138.2930 N   0  0  0  0  0  1  0  0  0  0  0  0
  192.3900  176.7250  137.9790 O   0  0  0  0  0  0  0  0  0  0  0  0
  191.2800  176.4580  138.5050 C   0  0  0  0  0  0  0  0  0  0  0  0
  2  1  1  0  0  0  0
  2  6  1  0  0  0  0
  3  9  1  0  0  0  0
  4 17  1  6  0  0  0
  4 14  1  0  0  0  0
  4 15  1  0  0  0  0
  5  6  2  0  0  0  0
  5  3  1  0  0  0  0
  6 13  1  0  0  0  0
  7 12  1  0  0  0  0
 10  3  2  0  0  0  0
 11 15  2  0  0  0  0
 12  8  1  0  0  0  0
 12  1  2  0  0  0  0
 13  9  1  0  0  0  0
 14  2  2  0  0  0  0
 15  5  1  0  0  0  0
 16  7  2  0  0  0  0
 16 14  1  0  0  0  0
 18 17  1  0  0  0  0
 19 20  1  6  0  0  0
 19 18  1  0  0  0  0
 21 22  1  0  0  0  0
 21 19  1  0  0  0  0
 23 25  1  0  0  0  0
 24 25  2  0  0  0  0
 25 22  1  0  0  0  0
M  END
>  <MODEL>
2

>  <REMARK>
 VINA RESULT:      -8.9      1.442      1.738
  Name = 
  6 active torsions:
  status: ('A' for Active; 'I' for Inactive)
    1  A    between atoms: C_2  and  C_21
    2  A    between atoms: C_2  and  C_25
    3  A    between atoms: C_5  and  O_18
    4  A    between atoms: O_7  and  C_17
    5  A    between atoms: O_7  and  C_21
    6  A    between atoms: O_18  and  C_25
                            x       y       z     vdW  Elec       q    Type
                         _______ _______ _______ _____ _____    ______ ____

>  <TORSDO>
F 6

$$$$
=
 OpenBabel11032419203D

 25 27  0  0  1  0  0  0  0  0999 V2000
  185.0690  178.3710  145.0650 C   0  0  0  0  0  3  0  0  0  0  0  0
  185.8880  178.2400  143.9360 C   0  0  0  0  0  0  0  0  0  0  0  0
  185.3160  178.8430  140.3920 C   0  0  0  0  0  0  0  0  0  0  0  0
  188.1670  177.6940  142.8910 C   0  0  2  0  0  3  0  0  0  0  0  0
  186.1310  178.4770  141.5240 C   0  0  0  0  0  0  0  0  0  0  0  0
  185.3550  178.5030  142.5910 C   0  0  0  0  0  0  0  0  0  0  0  0
  186.9400  177.8100  146.4940 C   0  0  0  0  0  3  0  0  0  0  0  0
  184.8000  178.2810  147.4300 F   0  0  0  0  0  0  0  0  0  0  0  0
  184.0210  179.0870  140.8130 O   0  0  0  0  0  0  0  0  0  0  0  0
  185.7010  178.9350  139.1960 O   0  0  0  0  0  0  0  0  0  0  0  0
  188.2830  178.2590  140.5600 O   0  0  0  0  0  0  0  0  0  0  0  0
  185.5950  178.1530  146.3400 C   0  0  0  0  0  0  0  0  0  0  0  0
  183.9480  178.8950  142.2270 C   0  0  0  0  0  2  0  0  0  0  0  0
  187.2500  177.8870  144.0880 C   0  0  0  0  0  0  0  0  0  0  0  0
  187.5630  178.1630  141.5870 C   0  0  0  0  0  0  0  0  0  0  0  0
  187.7640  177.6760  145.3730 C   0  0  0  0  0  3  0  0  0  0  0  0
  188.5200  176.3470  142.7810 O   0  0  0  0  0  0  0  0  0  0  0  0
  189.8590  176.3560  142.3820 C   0  0  0  0  0  2  0  0  0  0  0  0
  190.6870  177.1500  143.3750 C   0  0  2  0  0  3  0  0  0  0  0  0
  191.6710  177.9480  142.6640 N   0  0  0  0  0  1  0  0  0  0  0  0
  191.3930  176.1890  144.3170 C   0  0  0  0  0  2  0  0  0  0  0  0
  191.8780  176.8800  145.4630 O   0  0  0  0  0  0  0  0  0  0  0  0
  190.5170  176.7840  147.5040 N   0  0  0  0  0  1  0  0  0  0  0  0
  192.5220  175.6390  147.2810 O   0  0  0  0  0  0  0  0  0  0  0  0
  191.6740  176.4090  146.7620 C   0  0  0  0  0  0  0  0  0  0  0  0
  1 12  1  0  0  0  0
  2 14  1  0  0  0  0
  2  1  2  0  0  0  0
  3  9  1  0  0  0  0
  3  5  1  0  0  0  0
  4 17  1  6  0  0  0
  4 14  1  0  0  0  0
  5 15  1  0  0  0  0
  5  6  2  0  0  0  0
  6  2  1  0  0  0  0
  9 13  1  0  0  0  0
 10  3  2  0  0  0  0
 11 15  2  0  0  0  0
 12  7  2  0  0  0  0
 12  8  1  0  0  0  0
 13  6  1  0  0  0  0
 14 16  2  0  0  0  0
 15  4  1  0  0  0  0
 16  7  1  0  0  0  0
 18 17  1  0  0  0  0
 18 19  1  0  0  0  0
 19 20  1  6  0  0  0
 19 21  1  0  0  0  0
 21 22  1  0  0  0  0
 22 25  1  0  0  0  0
 25 24  2  0  0  0  0
 25 23  1  0  0  0  0
M  END
>  <MODEL>
3

>  <REMARK>
 VINA RESULT:      -8.5      2.818      6.239
  Name = 
  6 active torsions:
  status: ('A' for Active; 'I' for Inactive)
    1  A    between atoms: C_2  and  C_21
    2  A    between atoms: C_2  and  C_25
    3  A    between atoms: C_5  and  O_18
    4  A    between atoms: O_7  and  C_17
    5  A    between atoms: O_7  and  C_21
    6  A    between atoms: O_18  and  C_25
                            x       y       z     vdW  Elec       q    Type
                         _______ _______ _______ _____ _____    ______ ____

>  <TORSDO>
F 6

$$$$
=
 OpenBabel11032419203D

 25 27  0  0  1  0  0  0  0  0999 V2000
  183.8860  178.9600  144.6380 C   0  0  0  0  0  3  0  0  0  0  0  0
  185.1770  178.4640  144.4160 C   0  0  0  0  0  0  0  0  0  0  0  0
  187.9630  177.7500  146.6480 C   0  0  0  0  0  0  0  0  0  0  0  0
  186.9630  177.5410  142.8200 C   0  0  2  0  0  3  0  0  0  0  0  0
  187.3170  177.7830  145.3590 C   0  0  0  0  0  0  0  0  0  0  0  0
  186.1310  178.3340  145.5270 C   0  0  0  0  0  0  0  0  0  0  0  0
  183.3510  178.6320  142.3000 C   0  0  0  0  0  3  0  0  0  0  0  0
  181.7300  179.5270  143.8000 F   0  0  0  0  0  0  0  0  0  0  0  0
  187.1250  178.3040  147.5990 O   0  0  0  0  0  0  0  0  0  0  0  0
  189.1100  177.2920  146.8940 O   0  0  0  0  0  0  0  0  0  0  0  0
  188.8800  176.6670  143.9720 O   0  0  0  0  0  0  0  0  0  0  0  0
  182.9770  179.0460  143.5810 C   0  0  0  0  0  0  0  0  0  0  0  0
  185.9090  178.7100  146.9690 C   0  0  0  0  0  2  0  0  0  0  0  0
  185.5610  178.0490  143.1190 C   0  0  0  0  0  0  0  0  0  0  0  0
  187.7870  177.2840  144.0610 C   0  0  0  0  0  0  0  0  0  0  0  0
  184.6370  178.1370  142.0700 C   0  0  0  0  0  3  0  0  0  0  0  0
  187.6290  178.4550  142.0010 O   0  0  0  0  0  0  0  0  0  0  0  0
  187.6990  177.8350  140.7500 C   0  0  0  0  0  2  0  0  0  0  0  0
  188.7500  178.5170  139.8950 C   0  0  2  0  0  3  0  0  0  0  0  0
  188.1890  178.8370  138.5930 N   0  0  0  0  0  1  0  0  0  0  0  0
  189.9380  177.5840  139.7250 C   0  0  0  0  0  2  0  0  0  0  0  0
  190.3900  177.1160  140.9900 O   0  0  0  0  0  0  0  0  0  0  0  0
  192.7760  177.4840  140.5430 N   0  0  0  0  0  1  0  0  0  0  0  0
  191.8960  177.4410  142.6890 O   0  0  0  0  0  0  0  0  0  0  0  0
  191.6880  177.3460  141.4530 C   0  0  0  0  0  0  0  0  0  0  0  0
  2  1  1  0  0  0  0
  2  6  1  0  0  0  0
  3 10  2  0  0  0  0
  3  9  1  0  0  0  0
  4 17  1  6  0  0  0
  4 14  1  0  0  0  0
  4 15  1  0  0  0  0
  5  6  2  0  0  0  0
  5  3  1  0  0  0  0
  6 13  1  0  0  0  0
  7 12  1  0  0  0  0
 11 15  2  0  0  0  0
 12  8  1  0  0  0  0
 12  1  2  0  0  0  0
 13  9  1  0  0  0  0
 14  2  2  0  0  0  0
 15  5  1  0  0  0  0
 16  7  2  0  0  0  0
 16 14  1  0  0  0  0
 18 17  1  0  0  0  0
 19 20  1  6  0  0  0
 19 18  1  0  0  0  0
 21 19  1  0  0  0  0
 21 22  1  0  0  0  0
 22 25  1  0  0  0  0
 23 25  1  0  0  0  0
 25 24  2  0  0  0  0
M  END
>  <MODEL>
4

>  <REMARK>
 VINA RESULT:      -8.1      1.938      2.849
  Name = 
  6 active torsions:
  status: ('A' for Active; 'I' for Inactive)
    1  A    between atoms: C_2  and  C_21
    2  A    between atoms: C_2  and  C_25
    3  A    between atoms: C_5  and  O_18
    4  A    between atoms: O_7  and  C_17
    5  A    between atoms: O_7  and  C_21
    6  A    between atoms: O_18  and  C_25
                            x       y       z     vdW  Elec       q    Type
                         _______ _______ _______ _____ _____    ______ ____

>  <TORSDO>
F 6

$$$$
=
 OpenBabel11032419203D

 25 27  0  0  1  0  0  0  0  0999 V2000
  189.4530  177.1170  146.3590 C   0  0  0  0  0  3  0  0  0  0  0  0
  188.9230  177.4040  145.0940 C   0  0  0  0  0  0  0  0  0  0  0  0
  185.5620  178.2140  143.9560 C   0  0  0  0  0  0  0  0  0  0  0  0
  189.2490  177.7740  142.5760 C   0  0  2  0  0  3  0  0  0  0  0  0
  186.9740  178.0020  143.7610 C   0  0  0  0  0  0  0  0  0  0  0  0
  187.4820  177.6390  144.9230 C   0  0  0  0  0  0  0  0  0  0  0  0
  191.6800  177.0340  145.4130 C   0  0  0  0  0  3  0  0  0  0  0  0
  191.3380  176.6530  147.7400 F   0  0  0  0  0  0  0  0  0  0  0  0
  185.2340  177.9630  145.2770 O   0  0  0  0  0  0  0  0  0  0  0  0
  184.7350  178.5740  143.0770 O   0  0  0  0  0  0  0  0  0  0  0  0
  187.2800  178.6270  141.4970 O   0  0  0  0  0  0  0  0  0  0  0  0
  190.8290  176.9300  146.5160 C   0  0  0  0  0  0  0  0  0  0  0  0
  186.4160  177.5860  145.9860 C   0  0  0  0  0  2  0  0  0  0  0  0
  189.7820  177.5040  143.9740 C   0  0  0  0  0  0  0  0  0  0  0  0
  187.7910  178.1730  142.5540 C   0  0  0  0  0  0  0  0  0  0  0  0
  191.1590  177.3190  144.1480 C   0  0  0  0  0  3  0  0  0  0  0  0
  189.4320  176.6430  141.7770 O   0  0  0  0  0  0  0  0  0  0  0  0
  190.3250  177.0470  140.7810 C   0  0  0  0  0  2  0  0  0  0  0  0
  189.7050  176.8260  139.4140 C   0  0  2  0  0  3  0  0  0  0  0  0
  190.4090  175.7590  138.7230 N   0  0  0  0  0  1  0  0  0  0  0  0
  189.8050  178.1110  138.6070 C   0  0  0  0  0  2  0  0  0  0  0  0
  188.5430  178.7660  138.5540 O   0  0  0  0  0  0  0  0  0  0  0  0
  186.1220  178.5220  138.2270 N   0  0  0  0  0  1  0  0  0  0  0  0
  187.6810  177.5510  136.8100 O   0  0  0  0  0  0  0  0  0  0  0  0
  187.4640  178.2540  137.8300 C   0  0  0  0  0  0  0  0  0  0  0  0
  1 12  1  0  0  0  0
  2  1  2  0  0  0  0
  3  9  1  0  0  0  0
  4 17  1  6  0  0  0
  4 14  1  0  0  0  0
  5  3  1  0  0  0  0
  5  6  2  0  0  0  0
  6  2  1  0  0  0  0
  6 13  1  0  0  0  0
  7 12  2  0  0  0  0
  9 13  1  0  0  0  0
 10  3  2  0  0  0  0
 11 15  2  0  0  0  0
 12  8  1  0  0  0  0
 14 16  2  0  0  0  0
 14  2  1  0  0  0  0
 15  4  1  0  0  0  0
 15  5  1  0  0  0  0
 16  7  1  0  0  0  0
 18 17  1  0  0  0  0
 19 20  1  6  0  0  0
 19 18  1  0  0  0  0
 21 19  1  0  0  0  0
 22 21  1  0  0  0  0
 24 25  2  0  0  0  0
 25 23  1  0  0  0  0
 25 22  1  0  0  0  0
M  END
>  <MODEL>
5

>  <REMARK>
 VINA RESULT:      -8.0      2.817      4.317
  Name = 
  6 active torsions:
  status: ('A' for Active; 'I' for Inactive)
    1  A    between atoms: C_2  and  C_21
    2  A    between atoms: C_2  and  C_25
    3  A    between atoms: C_5  and  O_18
    4  A    between atoms: O_7  and  C_17
    5  A    between atoms: O_7  and  C_21
    6  A    between atoms: O_18  and  C_25
                            x       y       z     vdW  Elec       q    Type
                         _______ _______ _______ _____ _____    ______ ____

>  <TORSDO>
F 6

$$$$
=
 OpenBabel11032419203D

 25 27  0  0  1  0  0  0  0  0999 V2000
  186.8050  178.1420  147.2800 C   0  0  0  0  0  3  0  0  0  0  0  0
  186.8090  178.0980  145.8800 C   0  0  0  0  0  0  0  0  0  0  0  0
  184.2310  178.7190  143.3860 C   0  0  0  0  0  0  0  0  0  0  0  0
  188.0640  177.7550  143.6680 C   0  0  2  0  0  3  0  0  0  0  0  0
  185.5740  178.3990  143.8020 C   0  0  0  0  0  0  0  0  0  0  0  0
  185.5740  178.3430  145.1200 C   0  0  0  0  0  0  0  0  0  0  0  0
  189.1860  177.7060  147.3070 C   0  0  0  0  0  3  0  0  0  0  0  0
  187.9840  177.9870  149.3440 F   0  0  0  0  0  0  0  0  0  0  0  0
  183.4210  178.8510  144.4990 O   0  0  0  0  0  0  0  0  0  0  0  0
  183.8340  178.8630  142.2000 O   0  0  0  0  0  0  0  0  0  0  0  0
  186.7560  178.3710  141.7500 O   0  0  0  0  0  0  0  0  0  0  0  0
  187.9910  177.9440  147.9900 C   0  0  0  0  0  0  0  0  0  0  0  0
  184.2030  178.6280  145.6740 C   0  0  0  0  0  2  0  0  0  0  0  0
  188.0160  177.8520  145.1840 C   0  0  0  0  0  0  0  0  0  0  0  0
  186.7840  178.1990  142.9960 C   0  0  0  0  0  0  0  0  0  0  0  0
  189.1980  177.6590  145.9100 C   0  0  0  0  0  3  0  0  0  0  0  0
  188.3560  176.4430  143.2890 O   0  0  0  0  0  0  0  0  0  0  0  0
  189.7250  176.2960  143.5250 C   0  0  0  0  0  2  0  0  0  0  0  0
  190.4880  176.4030  142.2180 C   0  0  2  0  0  3  0  0  0  0  0  0
  191.4290  177.5070  142.2890 N   0  0  0  0  0  1  0  0  0  0  0  0
  189.5040  176.6430  141.0850 C   0  0  0  0  0  2  0  0  0  0  0  0
  189.8170  177.8490  140.3970 O   0  0  0  0  0  0  0  0  0  0  0  0
  189.9670  177.2220  138.0280 N   0  0  0  0  0  1  0  0  0  0  0  0
  188.6840  179.0060  138.7730 O   0  0  0  0  0  0  0  0  0  0  0  0
  189.4630  178.0620  139.0630 C   0  0  0  0  0  0  0  0  0  0  0  0
  1 12  1  0  0  0  0
  2  1  2  0  0  0  0
  3  5  1  0  0  0  0
  3  9  1  0  0  0  0
  4 17  1  1  0  0  0
  4 14  1  0  0  0  0
  5  6  2  0  0  0  0
  6 13  1  0  0  0  0
  6  2  1  0  0  0  0
  7 12  2  0  0  0  0
  9 13  1  0  0  0  0
 10  3  2  0  0  0  0
 11 15  2  0  0  0  0
 12  8  1  0  0  0  0
 14  2  1  0  0  0  0
 14 16  2  0  0  0  0
 15  4  1  0  0  0  0
 15  5  1  0  0  0  0
 16  7  1  0  0  0  0
 17 18  1  0  0  0  0
 19 20  1  1  0  0  0
 19 18  1  0  0  0  0
 21 19  1  0  0  0  0
 22 21  1  0  0  0  0
 23 25  1  0  0  0  0
 24 25  2  0  0  0  0
 25 22  1  0  0  0  0
M  END
>  <MODEL>
6

>  <REMARK>
 VINA RESULT:      -7.8      2.506      4.239
  Name = 
  6 active torsions:
  status: ('A' for Active; 'I' for Inactive)
    1  A    between atoms: C_2  and  C_21
    2  A    between atoms: C_2  and  C_25
    3  A    between atoms: C_5  and  O_18
    4  A    between atoms: O_7  and  C_17
    5  A    between atoms: O_7  and  C_21
    6  A    between atoms: O_18  and  C_25
                            x       y       z     vdW  Elec       q    Type
                         _______ _______ _______ _____ _____    ______ ____

>  <TORSDO>
F 6

$$$$
=
 OpenBabel11032419203D

 25 27  0  0  1  0  0  0  0  0999 V2000
  189.4060  177.8980  146.9100 C   0  0  0  0  0  3  0  0  0  0  0  0
  189.0480  177.7610  145.5630 C   0  0  0  0  0  0  0  0  0  0  0  0
  191.0060  177.5430  142.5020 C   0  0  0  0  0  0  0  0  0  0  0  0
  187.2490  177.4710  143.7560 C   0  0  2  0  0  3  0  0  0  0  0  0
  189.7720  177.5410  143.2470 C   0  0  0  0  0  0  0  0  0  0  0  0
  190.0760  177.7630  144.5120 C   0  0  0  0  0  0  0  0  0  0  0  0
  187.0830  177.6800  147.5560 C   0  0  0  0  0  3  0  0  0  0  0  0
  188.7740  177.9930  149.2050 F   0  0  0  0  0  0  0  0  0  0  0  0
  192.0650  177.7760  143.3600 O   0  0  0  0  0  0  0  0  0  0  0  0
  191.1260  177.3610  141.2610 O   0  0  0  0  0  0  0  0  0  0  0  0
  188.1700  176.9900  141.5910 O   0  0  0  0  0  0  0  0  0  0  0  0
  188.4240  177.8600  147.9030 C   0  0  0  0  0  0  0  0  0  0  0  0
  191.5620  177.9290  144.6890 C   0  0  0  0  0  2  0  0  0  0  0  0
  187.6900  177.5840  145.2070 C   0  0  0  0  0  0  0  0  0  0  0  0
  188.3980  177.3050  142.7890 C   0  0  0  0  0  0  0  0  0  0  0  0
  186.7180  177.5430  146.2140 C   0  0  0  0  0  3  0  0  0  0  0  0
  186.5030  178.5970  143.4030 O   0  0  0  0  0  0  0  0  0  0  0  0
  185.2090  178.1180  143.1820 C   0  0  0  0  0  2  0  0  0  0  0  0
  184.5160  178.9700  142.1350 C   0  0  2  0  0  3  0  0  0  0  0  0
  183.1070  178.6220  142.0740 N   0  0  0  0  0  1  0  0  0  0  0  0
  185.1630  178.7210  140.7820 C   0  0  0  0  0  2  0  0  0  0  0  0
  184.7790  179.7270  139.8520 O   0  0  0  0  0  0  0  0  0  0  0  0
  182.7710  180.5750  138.7220 N   0  0  0  0  0  1  0  0  0  0  0  0
  183.6420  178.4640  138.3110 O   0  0  0  0  0  0  0  0  0  0  0  0
  183.7330  179.5470  138.9440 C   0  0  0  0  0  0  0  0  0  0  0  0
  1 12  1  0  0  0  0
  2  1  2  0  0  0  0
  3  5  1  0  0  0  0
  3  9  1  0  0  0  0
  4 17  1  6  0  0  0
  4 14  1  0  0  0  0
  5  6  2  0  0  0  0
  6 13  1  0  0  0  0
  6  2  1  0  0  0  0
  7 12  2  0  0  0  0
  9 13  1  0  0  0  0
 10  3  2  0  0  0  0
 11 15  2  0  0  0  0
 12  8  1  0  0  0  0
 14  2  1  0  0  0  0
 14 16  2  0  0  0  0
 15  5  1  0  0  0  0
 15  4  1  0  0  0  0
 16  7  1  0  0  0  0
 18 17  1  0  0  0  0
 19 20  1  6  0  0  0
 19 18  1  0  0  0  0
 21 19  1  0  0  0  0
 22 21  1  0  0  0  0
 23 25  1  0  0  0  0
 24 25  2  0  0  0  0
 25 22  1  0  0  0  0
M  END
>  <MODEL>
7

>  <REMARK>
 VINA RESULT:      -7.8      3.337      4.424
  Name = 
  6 active torsions:
  status: ('A' for Active; 'I' for Inactive)
    1  A    between atoms: C_2  and  C_21
    2  A    between atoms: C_2  and  C_25
    3  A    between atoms: C_5  and  O_18
    4  A    between atoms: O_7  and  C_17
    5  A    between atoms: O_7  and  C_21
    6  A    between atoms: O_18  and  C_25
                            x       y       z     vdW  Elec       q    Type
                         _______ _______ _______ _____ _____    ______ ____

>  <TORSDO>
F 6

$$$$
=
 OpenBabel11032419203D

 25 27  0  0  1  0  0  0  0  0999 V2000
  188.9090  177.7030  146.6140 C   0  0  0  0  0  3  0  0  0  0  0  0
  188.7040  177.6780  145.2280 C   0  0  0  0  0  0  0  0  0  0  0  0
  190.9850  177.4530  142.4010 C   0  0  0  0  0  0  0  0  0  0  0  0
  187.1140  177.6610  143.2140 C   0  0  2  0  0  3  0  0  0  0  0  0
  189.6760  177.5240  143.0000 C   0  0  0  0  0  0  0  0  0  0  0  0
  189.8460  177.6430  144.3030 C   0  0  0  0  0  0  0  0  0  0  0  0
  186.5170  177.6660  146.9760 C   0  0  0  0  0  3  0  0  0  0  0  0
  188.0200  177.7250  148.8230 F   0  0  0  0  0  0  0  0  0  0  0  0
  191.9520  177.5370  143.3880 O   0  0  0  0  0  0  0  0  0  0  0  0
  191.2360  177.3320  141.1730 O   0  0  0  0  0  0  0  0  0  0  0  0
  188.2410  177.2210  141.1400 O   0  0  0  0  0  0  0  0  0  0  0  0
  187.8170  177.7000  147.4840 C   0  0  0  0  0  0  0  0  0  0  0  0
  191.3090  177.6590  144.6580 C   0  0  0  0  0  2  0  0  0  0  0  0
  187.3880  177.6490  144.7100 C   0  0  0  0  0  0  0  0  0  0  0  0
  188.3510  177.4440  142.3740 C   0  0  0  0  0  0  0  0  0  0  0  0
  186.3020  177.6410  145.5950 C   0  0  0  0  0  3  0  0  0  0  0  0
  186.5150  178.8700  142.8560 O   0  0  0  0  0  0  0  0  0  0  0  0
  185.1560  178.5740  142.7210 C   0  0  0  0  0  2  0  0  0  0  0  0
  184.8350  178.2780  141.2690 C   0  0  2  0  0  3  0  0  0  0  0  0
  185.3040  179.3680  140.4310 N   0  0  0  0  0  1  0  0  0  0  0  0
  183.3310  178.1230  141.1110 C   0  0  0  0  0  2  0  0  0  0  0  0
  182.6440  178.8610  142.1160 O   0  0  0  0  0  0  0  0  0  0  0  0
  180.6210  180.1260  142.6930 N   0  0  0  0  0  1  0  0  0  0  0  0
  180.5480  178.0490  141.6620 O   0  0  0  0  0  0  0  0  0  0  0  0
  181.2520  178.9740  142.1400 C   0  0  0  0  0  0  0  0  0  0  0  0
  1 12  1  0  0  0  0
  2  1  2  0  0  0  0
  3  5  1  0  0  0  0
  3  9  1  0  0  0  0
  4 17  1  6  0  0  0
  4 14  1  0  0  0  0
  5  6  2  0  0  0  0
  6 13  1  0  0  0  0
  6  2  1  0  0  0  0
  7 12  2  0  0  0  0
  9 13  1  0  0  0  0
 10  3  2  0  0  0  0
 11 15  2  0  0  0  0
 12  8  1  0  0  0  0
 14  2  1  0  0  0  0
 14 16  2  0  0  0  0
 15  5  1  0  0  0  0
 15  4  1  0  0  0  0
 16  7  1  0  0  0  0
 18 17  1  0  0  0  0
 19 20  1  6  0  0  0
 19 18  1  0  0  0  0
 21 19  1  0  0  0  0
 21 22  1  0  0  0  0
 22 25  1  0  0  0  0
 24 25  2  0  0  0  0
 25 23  1  0  0  0  0
M  END
>  <MODEL>
8

>  <REMARK>
 VINA RESULT:      -7.7      3.282      5.179
  Name = 
  6 active torsions:
  status: ('A' for Active; 'I' for Inactive)
    1  A    between atoms: C_2  and  C_21
    2  A    between atoms: C_2  and  C_25
    3  A    between atoms: C_5  and  O_18
    4  A    between atoms: O_7  and  C_17
    5  A    between atoms: O_7  and  C_21
    6  A    between atoms: O_18  and  C_25
                            x       y       z     vdW  Elec       q    Type
                         _______ _______ _______ _____ _____    ______ ____

>  <TORSDO>
F 6

$$$$
=
 OpenBabel11032419203D

 25 27  0  0  1  0  0  0  0  0999 V2000
  191.3910  176.9660  145.8280 C   0  0  0  0  0  3  0  0  0  0  0  0
  190.2610  177.1540  145.0230 C   0  0  0  0  0  0  0  0  0  0  0  0
  189.8290  177.5270  141.4280 C   0  0  0  0  0  0  0  0  0  0  0  0
  187.7160  177.3700  144.7750 C   0  0  2  0  0  3  0  0  0  0  0  0
  189.3450  177.4220  142.7820 C   0  0  0  0  0  0  0  0  0  0  0  0
  190.3990  177.3380  143.5700 C   0  0  0  0  0  0  0  0  0  0  0  0
  189.9730  176.7300  147.7750 C   0  0  0  0  0  3  0  0  0  0  0  0
  192.3410  176.5770  147.9780 F   0  0  0  0  0  0  0  0  0  0  0  0
  191.2130  177.5060  141.4280 O   0  0  0  0  0  0  0  0  0  0  0  0
  189.1220  177.6220  140.3900 O   0  0  0  0  0  0  0  0  0  0  0  0
  186.9970  177.3400  142.4840 O   0  0  0  0  0  0  0  0  0  0  0  0
  191.2460  176.7580  147.2020 C   0  0  0  0  0  0  0  0  0  0  0  0
  191.6760  177.3820  142.7740 C   0  0  0  0  0  2  0  0  0  0  0  0
  188.9700  177.1320  145.6010 C   0  0  0  0  0  0  0  0  0  0  0  0
  187.9670  177.3670  143.2840 C   0  0  0  0  0  0  0  0  0  0  0  0
  188.8390  176.9170  146.9790 C   0  0  0  0  0  3  0  0  0  0  0  0
  187.1330  178.5840  145.1440 O   0  0  0  0  0  0  0  0  0  0  0  0
  185.8300  178.2570  145.5300 C   0  0  0  0  0  2  0  0  0  0  0  0
  184.8700  179.3360  145.0670 C   0  0  2  0  0  3  0  0  0  0  0  0
  183.5180  178.9970  145.4770 N   0  0  0  0  0  1  0  0  0  0  0  0
  184.9330  179.4450  143.5530 C   0  0  0  0  0  2  0  0  0  0  0  0
  183.7630  178.8910  142.9620 O   0  0  0  0  0  0  0  0  0  0  0  0
  184.6110  179.2430  140.6850 N   0  0  0  0  0  1  0  0  0  0  0  0
  182.5900  178.1920  141.1200 O   0  0  0  0  0  0  0  0  0  0  0  0
  183.6150  178.7560  141.5800 C   0  0  0  0  0  0  0  0  0  0  0  0
  1 12  1  0  0  0  0
  2 14  1  0  0  0  0
  2  1  2  0  0  0  0
  3  9  1  0  0  0  0
  3  5  1  0  0  0  0
  4 17  1  1  0  0  0
  4 14  1  0  0  0  0
  5 15  1  0  0  0  0
  5  6  2  0  0  0  0
  6  2  1  0  0  0  0
  9 13  1  0  0  0  0
 10  3  2  0  0  0  0
 11 15  2  0  0  0  0
 12  7  2  0  0  0  0
 12  8  1  0  0  0  0
 13  6  1  0  0  0  0
 14 16  2  0  0  0  0
 15  4  1  0  0  0  0
 16  7  1  0  0  0  0
 17 18  1  0  0  0  0
 19 20  1  6  0  0  0
 19 18  1  0  0  0  0
 21 19  1  0  0  0  0
 22 21  1  0  0  0  0
 23 25  1  0  0  0  0
 24 25  2  0  0  0  0
 25 22  1  0  0  0  0
M  END
>  <MODEL>
9

>  <REMARK>
 VINA RESULT:      -7.7      3.330      5.845
  Name = 
  6 active torsions:
  status: ('A' for Active; 'I' for Inactive)
    1  A    between atoms: C_2  and  C_21
    2  A    between atoms: C_2  and  C_25
    3  A    between atoms: C_5  and  O_18
    4  A    between atoms: O_7  and  C_17
    5  A    between atoms: O_7  and  C_21
    6  A    between atoms: O_18  and  C_25
                            x       y       z     vdW  Elec       q    Type
                         _______ _______ _______ _____ _____    ______ ____

>  <TORSDO>
F 6

$$$$
