=
 OpenBabel11032421223D

 58 66  0  0  1  0  0  0  0  0999 V2000
  181.6720  176.0130  137.8740 C   0  0  1  0  0  3  0  0  0  0  0  0
  185.7120  174.7170  136.4220 C   0  0  1  0  0  3  0  0  0  0  0  0
  186.7610  174.8810  137.5390 C   0  0  1  0  0  3  0  0  0  0  0  0
  187.6610  173.6690  137.5660 C   0  0  0  0  0  3  0  0  0  0  0  0
  187.1420  172.4590  137.3190 C   0  0  0  0  0  3  0  0  0  0  0  0
  185.7490  172.3330  136.9720 N   0  0  0  0  0  0  0  0  0  0  0  0
  180.7380  175.2530  138.7760 C   0  0  0  0  0  0  0  0  0  0  0  0
  178.9410  175.8880  137.1610 C   0  0  0  0  0  2  0  0  0  0  0  0
  179.5110  177.3020  137.2390 C   0  0  0  0  0  2  0  0  0  0  0  0
  181.5780  178.5440  138.1170 C   0  0  2  0  0  3  0  0  0  0  0  0
  181.1720  174.7020  139.7730 O   0  0  0  0  0  0  0  0  0  0  0  0
  179.2760  175.1280  138.4400 C   0  0  0  0  0  2  0  0  0  0  0  0
  185.0910  173.3720  136.5470 C   0  0  0  0  0  0  0  0  0  0  0  0
  183.8300  178.6530  136.8440 C   0  0  0  0  0  2  0  0  0  0  0  0
  184.5910  176.8450  135.7870 C   0  0  0  0  0  2  0  0  0  0  0  0
  183.6830  173.4550  136.5880 N   0  0  0  0  0  0  0  0  0  0  0  0
  183.1270  178.5240  138.1980 C   0  0  1  0  0  3  0  0  0  0  0  0
  183.4140  174.7190  136.5930 C   0  0  0  0  0  0  0  0  0  0  0  0
  183.4430  177.6060  135.9980 O   0  0  0  0  0  0  0  0  0  0  0  0
  182.0690  175.1700  136.7540 N   0  0  0  0  0  2  0  0  0  0  0  0
  181.0480  177.3200  137.3470 C   0  0  1  0  0  3  0  0  0  0  0  0
  184.5590  175.5970  136.5490 N   0  0  0  0  0  0  0  0  0  0  0  0
  189.0190  176.7230  135.5070 C   0  0  2  0  0  3  0  0  0  0  0  0
  187.5860  176.1690  137.4530 C   0  0  2  0  0  3  0  0  0  0  0  0
  188.8550  177.9640  138.8510 C   0  0  0  0  0  2  0  0  0  0  0  0
  188.9350  175.8860  136.7870 C   0  0  2  0  0  3  0  0  0  0  0  0
  190.0830  176.1910  134.5950 C   0  0  0  0  0  2  0  0  0  0  0  0
  187.7060  176.9430  138.7920 C   0  0  1  0  0  3  0  0  0  0  0  0
  191.1820  176.9010  136.5610 O   0  0  0  0  0  0  0  0  0  0  0  0
  189.8070  177.1310  136.7180 C   0  0  1  0  0  0  0  0  0  0  0  0
  189.3440  178.3740  137.4660 C   0  0  0  0  0  2  0  0  0  0  0  0
  191.3710  176.7180  135.1830 C   0  0  0  0  0  2  0  0  0  0  0  0
  186.3810  177.5770  139.2140 C   0  0  0  0  0  2  0  0  0  0  0  0
  186.5270  178.4090  140.4770 C   0  0  0  0  0  2  0  0  0  0  0  0
  188.8340  179.3900  141.7940 O   0  0  0  0  0  0  0  0  0  0  0  0
  186.8610  177.5390  141.5960 N   0  0  0  0  0  0  0  0  0  0  0  0
  188.4070  178.0130  142.2630 P   0  0  1  0  0  0  0  0  0  0  0  0
  185.7640  179.0420  143.2980 C   0  0  0  0  0  2  0  0  0  0  0  0
  189.6030  176.8660  141.9240 O   0  0  0  0  0  1  0  0  0  0  0  0
  186.4430  177.9080  144.0460 C   0  0  1  0  0  3  0  0  0  0  0  0
  185.8330  177.6560  142.6530 C   0  0  2  0  0  3  0  0  0  0  0  0
  187.9670  178.0540  143.9940 C   0  0  1  0  0  3  0  0  0  0  0  0
  188.5770  176.9150  144.6630 N   0  0  0  0  0  2  0  0  0  0  0  0
  189.0240  176.8940  147.0430 C   0  0  0  0  0  1  0  0  0  0  0  0
  189.4710  177.4230  145.6920 C   0  0  1  0  0  3  0  0  0  0  0  0
  192.0360  178.0650  144.9970 O   0  0  0  0  0  1  0  0  0  0  0  0
  191.1810  175.7770  144.0690 O   0  0  0  0  0  0  0  0  0  0  0  0
  191.1750  176.8760  145.3560 P   0  0  0  0  0  0  0  0  0  0  0  0
  191.8150  176.1240  146.7300 O   0  0  0  0  0  1  0  0  0  0  0  0
  183.6550  179.5180  139.1760 C   0  0  0  0  0  0  0  0  0  0  0  0
  184.1700  180.7290  138.7420 O   0  0  0  0  0  0  0  0  0  0  0  0
  183.5960  179.2770  140.4100 O   0  0  0  0  0  1  0  0  0  0  0  0
  181.0630  179.8600  137.5100 C   0  0  0  0  0  2  0  0  0  0  0  0
  180.1790  180.6660  138.4700 C   0  0  2  0  0  3  0  0  0  0  0  0
  180.7420  182.0440  138.7600 C   0  0  0  0  0  1  0  0  0  0  0  0
  179.9080  179.9290  139.7720 C   0  0  0  0  0  2  0  0  0  0  0  0
  180.0050  180.8520  140.8940 N   0  0  0  0  0  2  0  0  0  0  0  0
  180.2500  180.0540  142.0880 C   0  0  0  0  0  1  0  0  0  0  0  0
  1 20  1  6  0  0  0
  1  7  1  0  0  0  0
  2 13  1  1  0  0  0
  2 22  1  0  0  0  0
  2  3  1  0  0  0  0
  3  4  1  6  0  0  0
  5  4  2  0  0  0  0
  6  5  1  0  0  0  0
  7 11  2  0  0  0  0
  8  9  1  0  0  0  0
  8 12  1  0  0  0  0
 10 53  1  6  0  0  0
 10 17  1  0  0  0  0
 12  7  1  0  0  0  0
 13 16  1  0  0  0  0
 13  6  2  0  0  0  0
 14 17  1  0  0  0  0
 15 19  1  0  0  0  0
 15 22  1  0  0  0  0
 16 18  2  0  0  0  0
 17 50  1  1  0  0  0
 18 20  1  0  0  0  0
 19 14  1  0  0  0  0
 21  9  1  1  0  0  0
 21  1  1  0  0  0  0
 21 10  1  0  0  0  0
 22 18  1  0  0  0  0
 23 27  1  6  0  0  0
 23 30  1  0  0  0  0
 23 26  1  0  0  0  0
 24  3  1  1  0  0  0
 24 28  1  0  0  0  0
 26 24  1  0  0  0  0
 27 32  1  0  0  0  0
 28 25  1  0  0  0  0
 28 33  1  0  0  0  0
 29 30  1  0  0  0  0
 30 26  1  0  0  0  0
 30 31  1  0  0  0  0
 31 25  1  0  0  0  0
 32 29  1  0  0  0  0
 33 34  1  0  0  0  0
 34 36  1  0  0  0  0
 35 37  2  0  0  0  0
 36 37  1  0  0  0  0
 36 41  1  0  0  0  0
 37 42  1  0  0  0  0
 38 40  1  0  0  0  0
 39 37  1  0  0  0  0
 41 38  1  0  0  0  0
 41 40  1  0  0  0  0
 42 40  1  0  0  0  0
 42 43  1  0  0  0  0
 43 45  1  0  0  0  0
 45 44  1  0  0  0  0
 46 48  1  0  0  0  0
 47 48  2  0  0  0  0
 48 45  1  0  0  0  0
 48 49  1  0  0  0  0
 50 52  1  0  0  0  0
 51 50  2  0  0  0  0
 53 54  1  0  0  0  0
 54 55  1  0  0  0  0
 54 56  1  0  0  0  0
 56 57  1  0  0  0  0
 57 58  1  0  0  0  0
M  END
>  <MODEL>
1

>  <REMARK>
 VINA RESULT:      -4.6      0.000      0.000
  Name = 
  12 active torsions:
  status: ('A' for Active; 'I' for Inactive)
    1  A    between atoms: C_4  and  C_17
    2  A    between atoms: C_4  and  C_35
    3  A    between atoms: N_6  and  C_29
    4  A    between atoms: N_7  and  C_17
    5  A    between atoms: C_10  and  C_12
    6  A    between atoms: C_16  and  C_44
    7  A    between atoms: C_22  and  C_42
    8  A    between atoms: C_28  and  N_32
    9  A    between atoms: C_28  and  P_34
   10  A    between atoms: C_29  and  C_42
   11  A    between atoms: C_30  and  C_35
   12  A    between atoms: N_32  and  C_53
                            x       y       z     vdW  Elec       q    Type
                         _______ _______ _______ _____ _____    ______ ____

>  <TORSDO>
F 12

$$$$
=
 OpenBabel11032421223D

 58 66  0  0  1  0  0  0  0  0999 V2000
  183.3880  172.8490  136.2090 C   0  0  1  0  0  3  0  0  0  0  0  0
  187.5750  174.3350  135.5970 C   0  0  1  0  0  3  0  0  0  0  0  0
  188.2250  174.6750  136.9520 C   0  0  1  0  0  3  0  0  0  0  0  0
  189.6460  174.1620  136.9710 C   0  0  0  0  0  3  0  0  0  0  0  0
  189.9310  172.9960  136.3750 C   0  0  0  0  0  3  0  0  0  0  0  0
  188.8990  172.2780  135.6720 N   0  0  0  0  0  0  0  0  0  0  0  0
  182.9620  171.4870  136.6840 C   0  0  0  0  0  0  0  0  0  0  0  0
  181.2980  171.5490  134.8220 C   0  0  0  0  0  2  0  0  0  0  0  0
  180.9560  172.9540  135.3100 C   0  0  0  0  0  2  0  0  0  0  0  0
  181.8540  174.7580  136.9000 C   0  0  2  0  0  3  0  0  0  0  0  0
  183.5270  170.9720  137.6340 O   0  0  0  0  0  0  0  0  0  0  0  0
  181.8720  170.7310  135.9740 C   0  0  0  0  0  2  0  0  0  0  0  0
  187.8160  172.8980  135.3030 C   0  0  0  0  0  0  0  0  0  0  0  0
  183.7640  176.3910  136.2790 C   0  0  0  0  0  2  0  0  0  0  0  0
  185.5190  175.6510  135.1200 C   0  0  0  0  0  2  0  0  0  0  0  0
  186.6120  172.2230  135.0040 N   0  0  0  0  0  0  0  0  0  0  0  0
  183.1240  175.5180  137.3620 C   0  0  1  0  0  3  0  0  0  0  0  0
  185.6770  173.0960  135.1830 C   0  0  0  0  0  0  0  0  0  0  0  0
  184.1270  175.6040  135.1780 O   0  0  0  0  0  0  0  0  0  0  0  0
  184.3050  172.7140  135.0840 N   0  0  0  0  0  2  0  0  0  0  0  0
  182.1920  173.7310  135.8020 C   0  0  1  0  0  3  0  0  0  0  0  0
  186.1210  174.4060  135.5970 N   0  0  0  0  0  0  0  0  0  0  0  0
  186.7270  177.7980  136.1620 C   0  0  2  0  0  3  0  0  0  0  0  0
  188.1810  176.1610  137.3240 C   0  0  2  0  0  3  0  0  0  0  0  0
  189.5700  178.1400  138.2950 C   0  0  0  0  0  2  0  0  0  0  0  0
  188.0400  177.0160  136.0620 C   0  0  2  0  0  3  0  0  0  0  0  0
  186.3110  178.3070  134.8150 C   0  0  0  0  0  2  0  0  0  0  0  0
  189.3290  176.6210  138.2610 C   0  0  1  0  0  3  0  0  0  0  0  0
  188.3660  179.3540  135.3180 O   0  0  0  0  0  0  0  0  0  0  0  0
  188.0350  178.5030  136.3820 C   0  0  1  0  0  0  0  0  0  0  0  0
  188.3640  178.9330  137.8070 C   0  0  0  0  0  2  0  0  0  0  0  0
  187.1760  179.5260  134.5960 C   0  0  0  0  0  2  0  0  0  0  0  0
  189.1870  176.0510  139.6720 C   0  0  0  0  0  2  0  0  0  0  0  0
  190.3010  176.5250  140.5900 C   0  0  0  0  0  2  0  0  0  0  0  0
  190.3140  174.9040  142.9110 O   0  0  0  0  0  0  0  0  0  0  0  0
  189.7280  177.2620  141.7080 N   0  0  0  0  0  0  0  0  0  0  0  0
  189.5280  176.1890  143.0740 P   0  0  1  0  0  0  0  0  0  0  0  0
  191.9810  177.8970  142.6490 C   0  0  0  0  0  2  0  0  0  0  0  0
  187.8930  175.8610  143.3650 O   0  0  0  0  0  1  0  0  0  0  0  0
  190.9160  178.3850  143.6170 C   0  0  1  0  0  3  0  0  0  0  0  0
  190.6320  178.3660  142.1010 C   0  0  2  0  0  3  0  0  0  0  0  0
  190.2580  177.2100  144.3460 C   0  0  1  0  0  3  0  0  0  0  0  0
  189.2030  177.7160  145.2090 N   0  0  0  0  0  2  0  0  0  0  0  0
  190.5950  176.7660  146.9480 C   0  0  0  0  0  1  0  0  0  0  0  0
  189.1800  176.9030  146.4160 C   0  0  1  0  0  3  0  0  0  0  0  0
  187.6410  176.6610  148.6620 O   0  0  0  0  0  1  0  0  0  0  0  0
  186.7960  178.4270  146.9310 O   0  0  0  0  0  0  0  0  0  0  0  0
  188.1300  177.6950  147.6740 P   0  0  0  0  0  0  0  0  0  0  0  0
  189.0190  178.8730  148.5020 O   0  0  0  0  0  1  0  0  0  0  0  0
  182.8930  176.2970  138.6130 C   0  0  0  0  0  0  0  0  0  0  0  0
  183.1960  177.6480  138.6690 O   0  0  0  0  0  0  0  0  0  0  0  0
  182.3800  175.7360  139.6160 O   0  0  0  0  0  1  0  0  0  0  0  0
  180.7500  175.7270  136.4470 C   0  0  0  0  0  2  0  0  0  0  0  0
  179.4580  175.6020  137.2640 C   0  0  2  0  0  3  0  0  0  0  0  0
  179.0930  176.8890  137.9780 C   0  0  0  0  0  1  0  0  0  0  0  0
  179.5050  174.4510  138.2570 C   0  0  0  0  0  2  0  0  0  0  0  0
  179.4960  174.9690  139.6180 N   0  0  0  0  0  2  0  0  0  0  0  0
  179.4460  173.8220  140.5140 C   0  0  0  0  0  1  0  0  0  0  0  0
  1 20  1  6  0  0  0
  1  7  1  0  0  0  0
  2 13  1  1  0  0  0
  2 22  1  0  0  0  0
  2  3  1  0  0  0  0
  3  4  1  6  0  0  0
  5  4  2  0  0  0  0
  6  5  1  0  0  0  0
  7 11  2  0  0  0  0
  8  9  1  0  0  0  0
  8 12  1  0  0  0  0
 10 53  1  6  0  0  0
 10 17  1  0  0  0  0
 12  7  1  0  0  0  0
 13  6  2  0  0  0  0
 14 17  1  0  0  0  0
 15 19  1  0  0  0  0
 15 22  1  0  0  0  0
 16 18  2  0  0  0  0
 16 13  1  0  0  0  0
 17 50  1  1  0  0  0
 18 22  1  0  0  0  0
 19 14  1  0  0  0  0
 20 18  1  0  0  0  0
 21  9  1  1  0  0  0
 21  1  1  0  0  0  0
 21 10  1  0  0  0  0
 23 27  1  6  0  0  0
 23 30  1  0  0  0  0
 24  3  1  6  0  0  0
 24 28  1  0  0  0  0
 26 23  1  0  0  0  0
 26 30  1  0  0  0  0
 26 24  1  0  0  0  0
 28 25  1  0  0  0  0
 28 33  1  0  0  0  0
 29 30  1  0  0  0  0
 30 31  1  0  0  0  0
 31 25  1  0  0  0  0
 32 27  1  0  0  0  0
 32 29  1  0  0  0  0
 33 34  1  0  0  0  0
 34 36  1  0  0  0  0
 35 37  2  0  0  0  0
 36 41  1  0  0  0  0
 36 37  1  0  0  0  0
 37 39  1  0  0  0  0
 37 42  1  0  0  0  0
 38 40  1  0  0  0  0
 40 42  1  0  0  0  0
 41 38  1  0  0  0  0
 41 40  1  0  0  0  0
 42 43  1  0  0  0  0
 43 45  1  0  0  0  0
 45 44  1  0  0  0  0
 45 48  1  0  0  0  0
 47 48  2  0  0  0  0
 48 49  1  0  0  0  0
 48 46  1  0  0  0  0
 50 51  2  0  0  0  0
 50 52  1  0  0  0  0
 53 54  1  0  0  0  0
 54 55  1  0  0  0  0
 54 56  1  0  0  0  0
 56 57  1  0  0  0  0
 57 58  1  0  0  0  0
M  END
>  <MODEL>
2

>  <REMARK>
 VINA RESULT:      -2.3      2.806      3.852
  Name = 
  12 active torsions:
  status: ('A' for Active; 'I' for Inactive)
    1  A    between atoms: C_4  and  C_17
    2  A    between atoms: C_4  and  C_35
    3  A    between atoms: N_6  and  C_29
    4  A    between atoms: N_7  and  C_17
    5  A    between atoms: C_10  and  C_12
    6  A    between atoms: C_16  and  C_44
    7  A    between atoms: C_22  and  C_42
    8  A    between atoms: C_28  and  N_32
    9  A    between atoms: C_28  and  P_34
   10  A    between atoms: C_29  and  C_42
   11  A    between atoms: C_30  and  C_35
   12  A    between atoms: N_32  and  C_53
                            x       y       z     vdW  Elec       q    Type
                         _______ _______ _______ _____ _____    ______ ____

>  <TORSDO>
F 12

$$$$
=
 OpenBabel11032421223D

 58 66  0  0  1  0  0  0  0  0999 V2000
  185.8980  178.2390  141.6620 C   0  0  1  0  0  3  0  0  0  0  0  0
  187.9090  177.6790  137.6930 C   0  0  1  0  0  3  0  0  0  0  0  0
  187.9950  176.1800  137.3430 C   0  0  1  0  0  3  0  0  0  0  0  0
  187.6400  175.9820  135.8890 C   0  0  0  0  0  3  0  0  0  0  0  0
  186.6780  176.7360  135.3380 C   0  0  0  0  0  3  0  0  0  0  0  0
  186.0380  177.7640  136.1180 N   0  0  0  0  0  0  0  0  0  0  0  0
  184.4270  178.1490  141.9620 C   0  0  0  0  0  0  0  0  0  0  0  0
  184.7420  180.2540  143.2690 C   0  0  0  0  0  2  0  0  0  0  0  0
  185.9540  179.5670  143.8910 C   0  0  0  0  0  2  0  0  0  0  0  0
  187.4280  177.4920  143.5530 C   0  0  2  0  0  3  0  0  0  0  0  0
  183.7690  177.2320  141.5010 O   0  0  0  0  0  0  0  0  0  0  0  0
  183.7450  179.2040  142.7910 C   0  0  0  0  0  2  0  0  0  0  0  0
  186.6110  178.2080  137.1990 C   0  0  0  0  0  0  0  0  0  0  0  0
  189.3480  177.3670  141.8220 C   0  0  0  0  0  2  0  0  0  0  0  0
  189.0800  178.2770  139.8050 C   0  0  0  0  0  2  0  0  0  0  0  0
  185.9020  178.8740  138.2220 N   0  0  0  0  0  0  0  0  0  0  0  0
  188.1890  176.6380  142.5060 C   0  0  1  0  0  3  0  0  0  0  0  0
  186.6090  178.7110  139.2910 C   0  0  0  0  0  0  0  0  0  0  0  0
  188.8770  178.5100  141.1640 O   0  0  0  0  0  0  0  0  0  0  0  0
  186.1200  179.1600  140.5550 N   0  0  0  0  0  2  0  0  0  0  0  0
  186.7210  178.6870  142.8850 C   0  0  1  0  0  3  0  0  0  0  0  0
  187.8280  177.9560  139.1200 N   0  0  0  0  0  0  0  0  0  0  0  0
  191.0810  176.6340  139.0440 C   0  0  2  0  0  3  0  0  0  0  0  0
  189.3420  175.5260  137.6670 C   0  0  2  0  0  3  0  0  0  0  0  0
  191.1460  173.8590  136.7990 C   0  0  0  0  0  2  0  0  0  0  0  0
  190.4550  176.5770  137.6470 C   0  0  2  0  0  3  0  0  0  0  0  0
  191.8550  177.9040  139.2260 C   0  0  0  0  0  2  0  0  0  0  0  0
  189.6630  174.2670  136.8190 C   0  0  1  0  0  3  0  0  0  0  0  0
  192.9220  176.7150  137.4880 O   0  0  0  0  0  0  0  0  0  0  0  0
  191.8200  175.9640  137.9220 C   0  0  1  0  0  0  0  0  0  0  0  0
  191.9290  174.4450  137.9680 C   0  0  0  0  0  2  0  0  0  0  0  0
  193.1590  177.6490  138.5070 C   0  0  0  0  0  2  0  0  0  0  0  0
  188.7680  173.0830  137.1820 C   0  0  0  0  0  2  0  0  0  0  0  0
  187.9270  172.6250  136.0020 C   0  0  0  0  0  2  0  0  0  0  0  0
  185.6780  173.6130  134.5940 O   0  0  0  0  0  0  0  0  0  0  0  0
  186.7170  171.9780  136.4910 N   0  0  0  0  0  0  0  0  0  0  0  0
  185.3150  172.7500  135.7850 P   0  0  1  0  0  0  0  0  0  0  0  0
  186.6490  170.3170  134.5940 C   0  0  0  0  0  2  0  0  0  0  0  0
  184.4580  173.6460  136.9370 O   0  0  0  0  0  1  0  0  0  0  0  0
  185.3970  170.1200  135.4320 C   0  0  1  0  0  3  0  0  0  0  0  0
  186.7160  170.5500  136.1050 C   0  0  2  0  0  3  0  0  0  0  0  0
  184.4280  171.2930  135.2520 C   0  0  1  0  0  3  0  0  0  0  0  0
  183.2770  171.0970  136.1200 N   0  0  0  0  0  2  0  0  0  0  0  0
  181.5740  169.7090  135.1030 C   0  0  0  0  0  1  0  0  0  0  0  0
  182.0810  171.1270  135.2940 C   0  0  1  0  0  3  0  0  0  0  0  0
  181.4100  173.3810  136.6880 O   0  0  0  0  0  1  0  0  0  0  0  0
  180.0690  171.2370  137.3460 O   0  0  0  0  0  1  0  0  0  0  0  0
  180.7950  172.1290  136.1050 P   0  0  0  0  0  0  0  0  0  0  0  0
  179.6150  172.5680  134.9740 O   0  0  0  0  0  0  0  0  0  0  0  0
  188.6310  175.3250  143.0600 C   0  0  0  0  0  0  0  0  0  0  0  0
  189.9690  174.9640  143.0360 O   0  0  0  0  0  0  0  0  0  0  0  0
  187.7920  174.5540  143.5930 O   0  0  0  0  0  1  0  0  0  0  0  0
  188.3560  177.9480  144.6910 C   0  0  0  0  0  2  0  0  0  0  0  0
  188.1960  177.1210  145.9730 C   0  0  2  0  0  3  0  0  0  0  0  0
  186.9030  177.4260  146.7050 C   0  0  0  0  0  1  0  0  0  0  0  0
  189.3780  177.2750  146.9170 C   0  0  0  0  0  2  0  0  0  0  0  0
  190.6240  177.0790  146.1900 N   0  0  0  0  0  2  0  0  0  0  0  0
  191.3520  176.0120  146.8640 C   0  0  0  0  0  1  0  0  0  0  0  0
  1 20  1  6  0  0  0
  1  7  1  0  0  0  0
  1 21  1  0  0  0  0
  2 13  1  6  0  0  0
  2 22  1  0  0  0  0
  3  4  1  6  0  0  0
  3  2  1  0  0  0  0
  5  4  2  0  0  0  0
  5  6  1  0  0  0  0
  6 13  2  0  0  0  0
  7 12  1  0  0  0  0
  8  9  1  0  0  0  0
 10 53  1  1  0  0  0
 11  7  2  0  0  0  0
 12  8  1  0  0  0  0
 13 16  1  0  0  0  0
 14 17  1  0  0  0  0
 15 19  1  0  0  0  0
 16 18  2  0  0  0  0
 17 50  1  1  0  0  0
 17 10  1  0  0  0  0
 18 20  1  0  0  0  0
 19 14  1  0  0  0  0
 21 10  1  0  0  0  0
 21  9  1  1  0  0  0
 22 18  1  0  0  0  0
 22 15  1  0  0  0  0
 23 27  1  6  0  0  0
 24  3  1  6  0  0  0
 25 28  1  0  0  0  0
 25 31  1  0  0  0  0
 26 24  1  0  0  0  0
 26 30  1  0  0  0  0
 26 23  1  0  0  0  0
 28 33  1  0  0  0  0
 28 24  1  0  0  0  0
 29 30  1  0  0  0  0
 29 32  1  0  0  0  0
 30 31  1  0  0  0  0
 30 23  1  0  0  0  0
 32 27  1  0  0  0  0
 34 36  1  0  0  0  0
 34 33  1  0  0  0  0
 35 37  2  0  0  0  0
 37 36  1  0  0  0  0
 37 39  1  0  0  0  0
 38 40  1  0  0  0  0
 38 41  1  0  0  0  0
 40 41  1  0  0  0  0
 41 36  1  0  0  0  0
 42 40  1  0  0  0  0
 42 37  1  0  0  0  0
 42 43  1  0  0  0  0
 44 45  1  0  0  0  0
 45 48  1  0  0  0  0
 45 43  1  0  0  0  0
 48 46  1  0  0  0  0
 48 47  1  0  0  0  0
 49 48  2  0  0  0  0
 50 52  1  0  0  0  0
 51 50  2  0  0  0  0
 53 54  1  0  0  0  0
 54 55  1  0  0  0  0
 54 56  1  0  0  0  0
 57 58  1  0  0  0  0
 57 56  1  0  0  0  0
M  END
>  <MODEL>
3

>  <REMARK>
 VINA RESULT:      -1.7      3.899      8.761
  Name = 
  12 active torsions:
  status: ('A' for Active; 'I' for Inactive)
    1  A    between atoms: C_4  and  C_17
    2  A    between atoms: C_4  and  C_35
    3  A    between atoms: N_6  and  C_29
    4  A    between atoms: N_7  and  C_17
    5  A    between atoms: C_10  and  C_12
    6  A    between atoms: C_16  and  C_44
    7  A    between atoms: C_22  and  C_42
    8  A    between atoms: C_28  and  N_32
    9  A    between atoms: C_28  and  P_34
   10  A    between atoms: C_29  and  C_42
   11  A    between atoms: C_30  and  C_35
   12  A    between atoms: N_32  and  C_53
                            x       y       z     vdW  Elec       q    Type
                         _______ _______ _______ _____ _____    ______ ____

>  <TORSDO>
F 12

$$$$
=
 OpenBabel11032421223D

 58 66  0  0  1  0  0  0  0  0999 V2000
  183.2490  172.9090  136.2480 C   0  0  1  0  0  3  0  0  0  0  0  0
  187.4720  174.1240  135.3530 C   0  0  1  0  0  3  0  0  0  0  0  0
  188.2430  174.3830  136.6620 C   0  0  1  0  0  3  0  0  0  0  0  0
  189.6220  173.7750  136.5630 C   0  0  0  0  0  3  0  0  0  0  0  0
  189.7810  172.6090  135.9220 C   0  0  0  0  0  3  0  0  0  0  0  0
  188.6520  171.9810  135.2840 N   0  0  0  0  0  0  0  0  0  0  0  0
  182.7650  171.5670  136.7250 C   0  0  0  0  0  0  0  0  0  0  0  0
  180.9770  171.7900  134.9950 C   0  0  0  0  0  2  0  0  0  0  0  0
  180.7700  173.2020  135.5370 C   0  0  0  0  0  2  0  0  0  0  0  0
  181.9060  174.8980  137.0940 C   0  0  2  0  0  3  0  0  0  0  0  0
  183.3620  170.9900  137.6170 O   0  0  0  0  0  0  0  0  0  0  0  0
  181.5760  170.9050  136.0830 C   0  0  0  0  0  2  0  0  0  0  0  0
  187.5900  172.6820  135.0110 C   0  0  0  0  0  0  0  0  0  0  0  0
  183.8740  176.4140  136.3650 C   0  0  0  0  0  2  0  0  0  0  0  0
  185.4820  175.5880  135.0620 C   0  0  0  0  0  2  0  0  0  0  0  0
  186.3240  172.0990  134.7890 N   0  0  0  0  0  0  0  0  0  0  0  0
  183.2560  175.5580  137.4740 C   0  0  1  0  0  3  0  0  0  0  0  0
  185.4670  173.0280  135.0570 C   0  0  0  0  0  0  0  0  0  0  0  0
  184.0990  175.6340  135.2240 O   0  0  0  0  0  0  0  0  0  0  0  0
  184.0680  172.7420  135.0540 N   0  0  0  0  0  2  0  0  0  0  0  0
  182.0900  173.8800  135.9520 C   0  0  1  0  0  3  0  0  0  0  0  0
  186.0300  174.2930  135.4640 N   0  0  0  0  0  0  0  0  0  0  0  0
  186.8030  177.5940  136.1740 C   0  0  2  0  0  3  0  0  0  0  0  0
  188.3290  175.8580  137.0690 C   0  0  2  0  0  3  0  0  0  0  0  0
  189.9450  177.7420  137.8620 C   0  0  0  0  0  2  0  0  0  0  0  0
  188.0450  176.7550  135.8610 C   0  0  2  0  0  3  0  0  0  0  0  0
  186.2160  178.1600  134.9150 C   0  0  0  0  0  2  0  0  0  0  0  0
  189.6260  176.2370  137.8320 C   0  0  1  0  0  3  0  0  0  0  0  0
  188.3730  179.0960  135.1260 O   0  0  0  0  0  0  0  0  0  0  0  0
  188.1620  178.2310  136.2100 C   0  0  1  0  0  0  0  0  0  0  0  0
  188.7210  178.6040  137.5770 C   0  0  0  0  0  2  0  0  0  0  0  0
  187.0990  179.3440  134.5960 C   0  0  0  0  0  2  0  0  0  0  0  0
  189.6680  175.6340  139.2350 C   0  0  0  0  0  2  0  0  0  0  0  0
  190.1590  176.6350  140.2680 C   0  0  0  0  0  2  0  0  0  0  0  0
  191.7140  177.7410  142.3600 O   0  0  0  0  0  0  0  0  0  0  0  0
  189.5260  176.3590  141.5500 N   0  0  0  0  0  0  0  0  0  0  0  0
  190.5970  176.8410  142.8470 P   0  0  1  0  0  0  0  0  0  0  0  0
  188.4660  178.6440  141.6950 C   0  0  0  0  0  2  0  0  0  0  0  0
  191.2210  175.4950  143.6620 O   0  0  0  0  0  1  0  0  0  0  0  0
  188.1710  177.9080  142.9920 C   0  0  1  0  0  3  0  0  0  0  0  0
  188.2660  177.1270  141.6660 C   0  0  2  0  0  3  0  0  0  0  0  0
  189.4380  177.7670  143.8420 C   0  0  1  0  0  3  0  0  0  0  0  0
  189.1250  177.0020  145.0380 N   0  0  0  0  0  2  0  0  0  0  0  0
  186.9870  177.7630  145.8830 C   0  0  0  0  0  1  0  0  0  0  0  0
  188.4940  177.8990  145.9940 C   0  0  1  0  0  3  0  0  0  0  0  0
  190.4790  177.8240  147.8720 O   0  0  0  0  0  0  0  0  0  0  0  0
  188.8130  175.8130  147.9470 O   0  0  0  0  0  1  0  0  0  0  0  0
  189.0220  177.4710  147.6840 P   0  0  0  0  0  0  0  0  0  0  0  0
  188.0940  178.3320  148.8070 O   0  0  0  0  0  1  0  0  0  0  0  0
  183.1740  176.3170  138.7560 C   0  0  0  0  0  0  0  0  0  0  0  0
  182.3170  175.9060  139.7650 O   0  0  0  0  0  1  0  0  0  0  0  0
  183.9170  177.3140  138.9450 O   0  0  0  0  0  0  0  0  0  0  0  0
  180.8420  175.9510  136.7470 C   0  0  0  0  0  2  0  0  0  0  0  0
  179.8150  176.1690  137.8650 C   0  0  2  0  0  3  0  0  0  0  0  0
  178.9580  174.9420  138.1140 C   0  0  0  0  0  1  0  0  0  0  0  0
  178.9310  177.3810  137.6170 C   0  0  0  0  0  2  0  0  0  0  0  0
  179.5070  178.2110  136.5690 N   0  0  0  0  0  2  0  0  0  0  0  0
  180.0090  179.4210  137.2070 C   0  0  0  0  0  1  0  0  0  0  0  0
  1 20  1  6  0  0  0
  1  7  1  0  0  0  0
  2 13  1  1  0  0  0
  2 22  1  0  0  0  0
  2  3  1  0  0  0  0
  3  4  1  6  0  0  0
  5  4  2  0  0  0  0
  6  5  1  0  0  0  0
  7 11  2  0  0  0  0
  8  9  1  0  0  0  0
  8 12  1  0  0  0  0
 10 53  1  6  0  0  0
 10 17  1  0  0  0  0
 12  7  1  0  0  0  0
 13  6  2  0  0  0  0
 14 17  1  0  0  0  0
 15 19  1  0  0  0  0
 15 22  1  0  0  0  0
 16 13  1  0  0  0  0
 16 18  2  0  0  0  0
 17 50  1  1  0  0  0
 18 22  1  0  0  0  0
 19 14  1  0  0  0  0
 20 18  1  0  0  0  0
 21  9  1  1  0  0  0
 21  1  1  0  0  0  0
 21 10  1  0  0  0  0
 23 27  1  6  0  0  0
 23 30  1  0  0  0  0
 24  3  1  6  0  0  0
 24 28  1  0  0  0  0
 26 23  1  0  0  0  0
 26 30  1  0  0  0  0
 26 24  1  0  0  0  0
 28 25  1  0  0  0  0
 28 33  1  0  0  0  0
 29 30  1  0  0  0  0
 30 31  1  0  0  0  0
 31 25  1  0  0  0  0
 32 27  1  0  0  0  0
 32 29  1  0  0  0  0
 33 34  1  0  0  0  0
 34 36  1  0  0  0  0
 35 37  2  0  0  0  0
 36 41  1  0  0  0  0
 36 37  1  0  0  0  0
 37 39  1  0  0  0  0
 37 42  1  0  0  0  0
 38 40  1  0  0  0  0
 40 42  1  0  0  0  0
 41 38  1  0  0  0  0
 41 40  1  0  0  0  0
 42 43  1  0  0  0  0
 43 45  1  0  0  0  0
 44 45  1  0  0  0  0
 45 48  1  0  0  0  0
 48 46  2  0  0  0  0
 48 47  1  0  0  0  0
 48 49  1  0  0  0  0
 50 52  2  0  0  0  0
 50 51  1  0  0  0  0
 53 54  1  0  0  0  0
 54 55  1  0  0  0  0
 56 54  1  0  0  0  0
 57 58  1  0  0  0  0
 57 56  1  0  0  0  0
M  END
>  <MODEL>
4

>  <REMARK>
 VINA RESULT:      -1.7      2.372      3.493
  Name = 
  12 active torsions:
  status: ('A' for Active; 'I' for Inactive)
    1  A    between atoms: C_4  and  C_17
    2  A    between atoms: C_4  and  C_35
    3  A    between atoms: N_6  and  C_29
    4  A    between atoms: N_7  and  C_17
    5  A    between atoms: C_10  and  C_12
    6  A    between atoms: C_16  and  C_44
    7  A    between atoms: C_22  and  C_42
    8  A    between atoms: C_28  and  N_32
    9  A    between atoms: C_28  and  P_34
   10  A    between atoms: C_29  and  C_42
   11  A    between atoms: C_30  and  C_35
   12  A    between atoms: N_32  and  C_53
                            x       y       z     vdW  Elec       q    Type
                         _______ _______ _______ _____ _____    ______ ____

>  <TORSDO>
F 12

$$$$
