=
 OpenBabel11032420003D

 64 69  0  0  1  0  0  0  0  0999 V2000
  191.3200  176.0990  143.9460 C   0  0  0  0  0  3  0  0  0  0  0  0
  191.3470  176.8060  146.3580 C   0  0  0  0  0  0  0  0  0  0  0  0
  191.1660  177.0170  139.5440 C   0  0  0  0  0  3  0  0  0  0  0  0
  189.3510  177.5700  144.1430 C   0  0  0  0  0  0  0  0  0  0  0  0
  188.2830  177.2990  139.3800 C   0  0  0  0  0  3  0  0  0  0  0  0
  189.0780  177.1550  138.2160 C   0  0  0  0  0  3  0  0  0  0  0  0
  190.2430  177.2770  142.0980 C   0  0  0  0  0  0  0  0  0  0  0  0
  188.2380  177.5520  143.2100 N   0  0  0  0  0  0  0  0  0  0  0  0
  191.6090  175.8770  145.2280 C   0  0  0  0  0  3  0  0  0  0  0  0
  190.3430  177.1620  140.6430 C   0  0  0  0  0  0  0  0  0  0  0  0
  189.1820  177.7010  145.4560 C   0  0  0  0  0  3  0  0  0  0  0  0
  188.9570  177.3820  142.0200 C   0  0  0  0  0  0  0  0  0  0  0  0
  188.9960  177.2930  140.5650 C   0  0  0  0  0  0  0  0  0  0  0  0
  190.4980  177.0170  138.2860 C   0  0  0  0  0  0  0  0  0  0  0  0
  190.2490  177.6030  146.4790 C   0  0  0  0  0  0  0  0  0  0  0  0
  192.3000  176.7920  147.3690 O   0  0  0  0  0  1  0  0  0  0  0  0
  190.7270  177.3830  143.4860 C   0  0  2  0  0  3  0  0  0  0  0  0
  186.9620  178.2470  143.3630 C   0  0  0  0  0  2  0  0  0  0  0  0
  186.5670  178.9320  142.0630 C   0  0  0  0  0  2  0  0  0  0  0  0
  184.6430  178.8010  140.5660 C   0  0  0  0  0  3  0  0  0  0  0  0
  185.1070  178.7620  141.8130 C   0  0  0  0  0  3  0  0  0  0  0  0
  183.1840  178.6430  140.2720 C   0  0  2  0  0  3  0  0  0  0  0  0
  182.8910  177.2210  139.8210 C   0  0  0  0  0  1  0  0  0  0  0  0
  182.8190  179.5330  139.2570 O   0  0  0  0  0  0  0  0  0  0  0  0
  181.4150  179.5630  139.2750 C   0  0  1  0  0  3  0  0  0  0  0  0
  181.6990  178.5040  136.8770 C   0  0  2  0  0  3  0  0  0  0  0  0
  179.5050  178.5190  138.0350 O   0  0  0  0  0  1  0  0  0  0  0  0
  180.8270  178.9660  137.9940 C   0  0  1  0  0  0  0  0  0  0  0  0
  181.0610  179.7630  136.8580 O   0  0  0  0  0  0  0  0  0  0  0  0
  180.9860  177.5580  135.9220 C   0  0  0  0  0  2  0  0  0  0  0  0
  181.9340  176.7770  135.2420 O   0  0  0  0  0  0  0  0  0  0  0  0
  183.1800  177.2310  135.6900 C   0  0  0  0  0  2  0  0  0  0  0  0
  183.8610  176.1870  136.5670 C   0  0  0  0  0  2  0  0  0  0  0  0
  185.3040  176.3230  136.4960 N   0  0  0  0  0  2  0  0  0  0  0  0
  185.8100  175.0240  136.0980 C   0  0  0  0  0  2  0  0  0  0  0  0
  184.6930  173.9870  136.1240 C   0  0  0  0  0  2  0  0  0  0  0  0
  185.0060  172.8630  137.0660 C   0  0  0  0  0  0  0  0  0  0  0  0
  184.0520  171.8900  137.3480 O   0  0  0  0  0  0  0  0  0  0  0  0
  186.1250  172.8230  137.6410 O   0  0  0  0  0  1  0  0  0  0  0  0
  180.8830  178.8640  140.5250 C   0  0  0  0  0  2  0  0  0  0  0  0
  180.4510  179.5860  142.7620 O   0  0  0  0  0  1  0  0  0  0  0  0
  180.1380  179.8380  141.4260 C   0  0  0  0  0  2  0  0  0  0  0  0
  190.0100  178.3740  147.6300 O   0  0  0  0  0  0  0  0  0  0  0  0
  188.9350  178.1840  148.5460 C   0  0  0  0  0  2  0  0  0  0  0  0
  186.7260  178.1000  147.6560 O   0  0  0  0  0  1  0  0  0  0  0  0
  187.8610  177.3270  147.9020 C   0  0  0  0  0  2  0  0  0  0  0  0
  191.2330  176.8720  137.0670 N   0  0  0  0  0  2  0  0  0  0  0  0
  192.1840  175.7980  136.8220 C   0  0  0  0  0  2  0  0  0  0  0  0
  190.3220  174.9370  135.4050 C   0  0  0  0  0  3  0  0  0  0  0  0
  191.5330  174.6910  136.0600 C   0  0  0  0  0  0  0  0  0  0  0  0
  190.2480  172.7020  134.6140 C   0  0  0  0  0  3  0  0  0  0  0  0
  192.1130  173.4130  135.9850 C   0  0  0  0  0  0  0  0  0  0  0  0
  191.4570  172.4140  135.2510 C   0  0  0  0  0  3  0  0  0  0  0  0
  189.7100  173.9470  134.7050 N   0  0  0  0  0  0  0  0  0  0  0  0
  194.6610  173.1070  136.0980 C   0  0  0  0  0  0  0  0  0  0  0  0
  194.8580  173.5050  134.9180 O   0  0  0  0  0  0  0  0  0  0  0  0
  193.3440  173.1460  136.6740 N   0  0  0  0  0  2  0  0  0  0  0  0
  195.5100  171.8890  138.0960 C   0  0  0  0  0  1  0  0  0  0  0  0
  195.7680  172.6460  136.8800 N   0  0  0  0  0  0  0  0  0  0  0  0
  197.0270  172.6550  136.3510 O   0  0  0  0  0  0  0  0  0  0  0  0
  197.7540  174.9550  135.8930 C   0  0  0  0  0  1  0  0  0  0  0  0
  199.1770  173.3400  137.0670 C   0  0  0  0  0  1  0  0  0  0  0  0
  197.7410  173.7720  136.8570 C   0  0  0  0  0  0  0  0  0  0  0  0
  197.1960  174.2140  138.2110 C   0  0  0  0  0  1  0  0  0  0  0  0
  1  9  2  0  0  0  0
  2 15  2  0  0  0  0
  2 16  1  0  0  0  0
  3 10  1  0  0  0  0
  4 11  2  0  0  0  0
  5 13  1  0  0  0  0
  6 14  1  0  0  0  0
  6  5  2  0  0  0  0
  7 17  1  0  0  0  0
  8 18  1  0  0  0  0
  8  4  1  0  0  0  0
  9  2  1  0  0  0  0
 10  7  1  0  0  0  0
 11 15  1  0  0  0  0
 12  7  2  0  0  0  0
 12  8  1  0  0  0  0
 13 10  2  0  0  0  0
 13 12  1  0  0  0  0
 14  3  2  0  0  0  0
 15 43  1  0  0  0  0
 17  1  1  1  0  0  0
 17  4  1  0  0  0  0
 19 18  1  0  0  0  0
 20 21  2  0  0  0  0
 21 19  1  0  0  0  0
 22 23  1  6  0  0  0
 22 20  1  0  0  0  0
 24 25  1  0  0  0  0
 24 22  1  0  0  0  0
 25 40  1  1  0  0  0
 26 30  1  6  0  0  0
 26 28  1  0  0  0  0
 28 27  1  1  0  0  0
 28 25  1  0  0  0  0
 29 26  1  0  0  0  0
 29 28  1  0  0  0  0
 31 32  1  0  0  0  0
 31 30  1  0  0  0  0
 32 33  1  0  0  0  0
 34 33  1  0  0  0  0
 35 36  1  0  0  0  0
 35 34  1  0  0  0  0
 36 37  1  0  0  0  0
 37 38  2  0  0  0  0
 37 39  1  0  0  0  0
 40 42  1  0  0  0  0
 42 41  1  0  0  0  0
 43 44  1  0  0  0  0
 45 46  1  0  0  0  0
 46 44  1  0  0  0  0
 47 14  1  0  0  0  0
 48 47  1  0  0  0  0
 49 50  1  0  0  0  0
 50 48  1  0  0  0  0
 51 54  1  0  0  0  0
 51 53  2  0  0  0  0
 52 50  2  0  0  0  0
 52 57  1  0  0  0  0
 53 52  1  0  0  0  0
 54 49  2  0  0  0  0
 55 57  1  0  0  0  0
 55 59  1  0  0  0  0
 56 55  2  0  0  0  0
 59 58  1  0  0  0  0
 60 63  1  0  0  0  0
 60 59  1  0  0  0  0
 61 63  1  0  0  0  0
 63 62  1  0  0  0  0
 63 64  1  0  0  0  0
M  END
>  <MODEL>
1

>  <REMARK>
 VINA RESULT:      -6.1      0.000      0.000
  Name = 
  26 active torsions:
  status: ('A' for Active; 'I' for Inactive)
    1  A    between atoms: O_2  and  C_5
    2  A    between atoms: O_2  and  C_12
    3  A    between atoms: C_5  and  C_23
    4  A    between atoms: C_9  and  C_31
    5  A    between atoms: C_12  and  C_36
    6  A    between atoms: C_12  and  C_51
    7  A    between atoms: N_16  and  C_18
    8  A    between atoms: N_16  and  C_44
    9  A    between atoms: O_17  and  C_45
   10  A    between atoms: O_17  and  C_57
   11  A    between atoms: C_18  and  C_34
   12  A    between atoms: O_20  and  C_48
   13  A    between atoms: O_20  and  C_54
   14  A    between atoms: N_21  and  C_50
   15  A    between atoms: N_22  and  C_41
   16  A    between atoms: C_24  and  C_48
   17  A    between atoms: C_26  and  C_61
   18  A    between atoms: C_27  and  C_36
   19  A    between atoms: C_31  and  C_38
   20  A    between atoms: C_38  and  N_53
   21  A    between atoms: C_41  and  C_61
   22  A    between atoms: C_45  and  C_49
   23  A    between atoms: C_46  and  O_55
   24  A    between atoms: C_52  and  N_53
   25  A    between atoms: C_52  and  C_54
   26  A    between atoms: O_55  and  N_58
                            x       y       z     vdW  Elec       q    Type
                         _______ _______ _______ _____ _____    ______ ____

>  <TORSDO>
F 26

$$$$
=
 OpenBabel11032420003D

 64 69  0  0  1  0  0  0  0  0999 V2000
  191.7320  175.6860  144.8050 C   0  0  0  0  0  3  0  0  0  0  0  0
  191.8160  176.2780  147.2460 C   0  0  0  0  0  0  0  0  0  0  0  0
  191.7660  176.8060  140.4460 C   0  0  0  0  0  3  0  0  0  0  0  0
  189.9710  177.3950  145.0490 C   0  0  0  0  0  0  0  0  0  0  0  0
  188.9490  177.4740  140.2690 C   0  0  0  0  0  3  0  0  0  0  0  0
  189.7350  177.2760  139.1070 C   0  0  0  0  0  3  0  0  0  0  0  0
  190.8470  177.0750  143.0010 C   0  0  0  0  0  0  0  0  0  0  0  0
  188.8800  177.5650  144.1060 N   0  0  0  0  0  0  0  0  0  0  0  0
  191.9700  175.3730  146.0780 C   0  0  0  0  0  3  0  0  0  0  0  0
  190.9530  177.0110  141.5430 C   0  0  0  0  0  0  0  0  0  0  0  0
  189.8010  177.4900  146.3650 C   0  0  0  0  0  3  0  0  0  0  0  0
  189.5880  177.3530  142.9160 C   0  0  0  0  0  0  0  0  0  0  0  0
  189.6370  177.3220  141.4590 C   0  0  0  0  0  0  0  0  0  0  0  0
  191.1230  176.9490  139.1840 C   0  0  0  0  0  0  0  0  0  0  0  0
  190.8300  177.2070  147.3930 C   0  0  0  0  0  0  0  0  0  0  0  0
  192.7430  176.0940  148.2640 O   0  0  0  0  0  1  0  0  0  0  0  0
  191.3200  177.0560  144.3970 C   0  0  2  0  0  3  0  0  0  0  0  0
  187.7040  178.4150  144.2780 C   0  0  0  0  0  2  0  0  0  0  0  0
  186.4300  177.6220  144.0260 C   0  0  0  0  0  2  0  0  0  0  0  0
  184.2160  178.2320  143.1970 C   0  0  0  0  0  3  0  0  0  0  0  0
  185.2550  178.5370  143.9730 C   0  0  0  0  0  3  0  0  0  0  0  0
  183.0200  179.1260  143.1090 C   0  0  2  0  0  3  0  0  0  0  0  0
  181.9510  178.6710  144.0890 C   0  0  0  0  0  1  0  0  0  0  0  0
  182.5040  179.0800  141.8090 O   0  0  0  0  0  0  0  0  0  0  0  0
  183.2250  178.0650  141.1590 C   0  0  1  0  0  3  0  0  0  0  0  0
  181.1660  178.0000  139.5130 C   0  0  2  0  0  3  0  0  0  0  0  0
  182.9160  176.2430  139.4690 O   0  0  0  0  0  1  0  0  0  0  0  0
  182.3630  177.3490  140.1160 C   0  0  1  0  0  0  0  0  0  0  0  0
  181.0610  177.0740  140.5730 O   0  0  0  0  0  0  0  0  0  0  0  0
  180.7230  177.3400  138.2150 C   0  0  0  0  0  2  0  0  0  0  0  0
  181.1260  178.1300  137.1270 O   0  0  0  0  0  0  0  0  0  0  0  0
  180.7540  179.4390  137.4590 C   0  0  0  0  0  2  0  0  0  0  0  0
  179.6270  179.9330  136.5610 C   0  0  0  0  0  2  0  0  0  0  0  0
  179.3470  181.3330  136.8150 N   0  0  0  0  0  2  0  0  0  0  0  0
  180.5490  182.0560  136.4510 C   0  0  0  0  0  2  0  0  0  0  0  0
  180.9570  183.0090  137.5700 C   0  0  0  0  0  2  0  0  0  0  0  0
  181.4690  184.3090  137.0280 C   0  0  0  0  0  0  0  0  0  0  0  0
  181.0680  184.7620  135.7750 O   0  0  0  0  0  0  0  0  0  0  0  0
  182.3040  184.9770  137.6920 O   0  0  0  0  0  1  0  0  0  0  0  0
  184.5070  178.6290  140.5480 C   0  0  0  0  0  2  0  0  0  0  0  0
  185.1410  179.0580  138.2840 O   0  0  0  0  0  1  0  0  0  0  0  0
  184.2140  179.3990  139.2690 C   0  0  0  0  0  2  0  0  0  0  0  0
  190.6780  177.9530  148.5750 O   0  0  0  0  0  0  0  0  0  0  0  0
  189.4360  178.3280  149.1630 C   0  0  0  0  0  2  0  0  0  0  0  0
  187.2030  177.4970  149.2290 O   0  0  0  0  0  1  0  0  0  0  0  0
  188.2920  177.7040  148.3830 C   0  0  0  0  0  2  0  0  0  0  0  0
  191.8510  176.7600  137.9660 N   0  0  0  0  0  2  0  0  0  0  0  0
  191.2340  176.7570  136.6490 C   0  0  0  0  0  2  0  0  0  0  0  0
  189.0830  175.5840  136.1870 C   0  0  0  0  0  3  0  0  0  0  0  0
  190.4550  175.5000  136.4430 C   0  0  0  0  0  0  0  0  0  0  0  0
  188.9230  173.2220  136.0400 C   0  0  0  0  0  3  0  0  0  0  0  0
  191.0730  174.2390  136.4970 C   0  0  0  0  0  0  0  0  0  0  0  0
  190.2910  173.0930  136.2920 C   0  0  0  0  0  3  0  0  0  0  0  0
  188.3520  174.4560  135.9950 N   0  0  0  0  0  0  0  0  0  0  0  0
  193.5410  173.9990  135.8270 C   0  0  0  0  0  0  0  0  0  0  0  0
  193.3200  174.1390  134.5940 O   0  0  0  0  0  0  0  0  0  0  0  0
  192.4760  174.1430  136.7830 N   0  0  0  0  0  2  0  0  0  0  0  0
  195.0790  173.2490  137.6360 C   0  0  0  0  0  1  0  0  0  0  0  0
  194.8730  173.7310  136.2780 N   0  0  0  0  0  0  0  0  0  0  0  0
  195.8940  173.6440  135.3740 O   0  0  0  0  0  0  0  0  0  0  0  0
  196.4240  176.0040  134.9530 C   0  0  0  0  0  1  0  0  0  0  0  0
  198.1510  174.2650  135.0210 C   0  0  0  0  0  1  0  0  0  0  0  0
  196.8240  174.6880  135.6160 C   0  0  0  0  0  0  0  0  0  0  0  0
  197.0420  174.9060  137.1090 C   0  0  0  0  0  1  0  0  0  0  0  0
  1  9  2  0  0  0  0
  2 15  2  0  0  0  0
  2 16  1  0  0  0  0
  3 10  1  0  0  0  0
  4 11  2  0  0  0  0
  5 13  1  0  0  0  0
  6 14  1  0  0  0  0
  6  5  2  0  0  0  0
  7 17  1  0  0  0  0
  8 18  1  0  0  0  0
  8  4  1  0  0  0  0
  9  2  1  0  0  0  0
 10  7  1  0  0  0  0
 11 15  1  0  0  0  0
 12  7  2  0  0  0  0
 12  8  1  0  0  0  0
 13 10  2  0  0  0  0
 13 12  1  0  0  0  0
 14  3  2  0  0  0  0
 15 43  1  0  0  0  0
 17  1  1  1  0  0  0
 17  4  1  0  0  0  0
 19 18  1  0  0  0  0
 20 21  2  0  0  0  0
 21 19  1  0  0  0  0
 22 20  1  0  0  0  0
 22 23  1  1  0  0  0
 24 22  1  0  0  0  0
 25 40  1  6  0  0  0
 25 24  1  0  0  0  0
 26 30  1  6  0  0  0
 26 28  1  0  0  0  0
 26 29  1  0  0  0  0
 28 27  1  6  0  0  0
 28 29  1  0  0  0  0
 28 25  1  0  0  0  0
 31 32  1  0  0  0  0
 31 30  1  0  0  0  0
 33 34  1  0  0  0  0
 33 32  1  0  0  0  0
 35 34  1  0  0  0  0
 35 36  1  0  0  0  0
 37 36  1  0  0  0  0
 37 39  1  0  0  0  0
 38 37  2  0  0  0  0
 41 42  1  0  0  0  0
 42 40  1  0  0  0  0
 43 44  1  0  0  0  0
 46 44  1  0  0  0  0
 46 45  1  0  0  0  0
 47 14  1  0  0  0  0
 48 47  1  0  0  0  0
 49 50  1  0  0  0  0
 50 52  2  0  0  0  0
 50 48  1  0  0  0  0
 51 53  2  0  0  0  0
 52 57  1  0  0  0  0
 53 52  1  0  0  0  0
 54 51  1  0  0  0  0
 54 49  2  0  0  0  0
 55 59  1  0  0  0  0
 55 57  1  0  0  0  0
 56 55  2  0  0  0  0
 59 58  1  0  0  0  0
 60 63  1  0  0  0  0
 60 59  1  0  0  0  0
 61 63  1  0  0  0  0
 62 63  1  0  0  0  0
 63 64  1  0  0  0  0
M  END
>  <MODEL>
2

>  <REMARK>
 VINA RESULT:      -6.0      2.189      4.051
  Name = 
  26 active torsions:
  status: ('A' for Active; 'I' for Inactive)
    1  A    between atoms: O_2  and  C_5
    2  A    between atoms: O_2  and  C_12
    3  A    between atoms: C_5  and  C_23
    4  A    between atoms: C_9  and  C_31
    5  A    between atoms: C_12  and  C_36
    6  A    between atoms: C_12  and  C_51
    7  A    between atoms: N_16  and  C_18
    8  A    between atoms: N_16  and  C_44
    9  A    between atoms: O_17  and  C_45
   10  A    between atoms: O_17  and  C_57
   11  A    between atoms: C_18  and  C_34
   12  A    between atoms: O_20  and  C_48
   13  A    between atoms: O_20  and  C_54
   14  A    between atoms: N_21  and  C_50
   15  A    between atoms: N_22  and  C_41
   16  A    between atoms: C_24  and  C_48
   17  A    between atoms: C_26  and  C_61
   18  A    between atoms: C_27  and  C_36
   19  A    between atoms: C_31  and  C_38
   20  A    between atoms: C_38  and  N_53
   21  A    between atoms: C_41  and  C_61
   22  A    between atoms: C_45  and  C_49
   23  A    between atoms: C_46  and  O_55
   24  A    between atoms: C_52  and  N_53
   25  A    between atoms: C_52  and  C_54
   26  A    between atoms: O_55  and  N_58
                            x       y       z     vdW  Elec       q    Type
                         _______ _______ _______ _____ _____    ______ ____

>  <TORSDO>
F 26

$$$$
=
 OpenBabel11032420003D

 64 69  0  0  1  0  0  0  0  0999 V2000
  189.6880  173.3800  135.7460 C   0  0  0  0  0  3  0  0  0  0  0  0
  192.1830  173.5600  135.5050 C   0  0  0  0  0  0  0  0  0  0  0  0
  185.5150  174.9200  135.0670 C   0  0  0  0  0  3  0  0  0  0  0  0
  190.1940  175.6380  136.6000 C   0  0  0  0  0  0  0  0  0  0  0  0
  185.4890  176.7630  137.3080 C   0  0  0  0  0  3  0  0  0  0  0  0
  184.2940  176.3930  136.6420 C   0  0  0  0  0  3  0  0  0  0  0  0
  188.1020  175.2330  135.8730 C   0  0  0  0  0  0  0  0  0  0  0  0
  189.3050  176.3840  137.4730 N   0  0  0  0  0  0  0  0  0  0  0  0
  190.9040  172.8350  135.7160 C   0  0  0  0  0  3  0  0  0  0  0  0
  186.6460  175.3160  135.7510 C   0  0  0  0  0  0  0  0  0  0  0  0
  191.5140  175.6280  136.7610 C   0  0  0  0  0  3  0  0  0  0  0  0
  188.0820  176.0390  136.8830 C   0  0  0  0  0  0  0  0  0  0  0  0
  186.6330  176.1770  136.7980 C   0  0  0  0  0  0  0  0  0  0  0  0
  184.2960  175.4890  135.5370 C   0  0  0  0  0  0  0  0  0  0  0  0
  192.4720  174.7980  135.9950 C   0  0  0  0  0  0  0  0  0  0  0  0
  193.1470  172.8630  134.7880 O   0  0  0  0  0  1  0  0  0  0  0  0
  189.4720  174.8320  135.5080 C   0  0  2  0  0  3  0  0  0  0  0  0
  189.6130  177.6310  138.1700 C   0  0  0  0  0  2  0  0  0  0  0  0
  189.8960  177.3650  139.6410 C   0  0  0  0  0  2  0  0  0  0  0  0
  188.2450  178.3650  141.1360 C   0  0  0  0  0  3  0  0  0  0  0  0
  188.6210  177.3130  140.4110 C   0  0  0  0  0  3  0  0  0  0  0  0
  186.9760  178.3510  141.9290 C   0  0  2  0  0  3  0  0  0  0  0  0
  186.3000  179.7100  141.8590 C   0  0  0  0  0  1  0  0  0  0  0  0
  187.2700  178.0500  143.2630 O   0  0  0  0  0  0  0  0  0  0  0  0
  186.0270  177.8220  143.8750 C   0  0  1  0  0  3  0  0  0  0  0  0
  186.7050  177.5680  146.4120 C   0  0  2  0  0  3  0  0  0  0  0  0
  185.6850  179.6570  145.5460 O   0  0  0  0  0  1  0  0  0  0  0  0
  186.0180  178.3200  145.3240 C   0  0  1  0  0  0  0  0  0  0  0  0
  185.3140  177.4680  146.1940 O   0  0  0  0  0  0  0  0  0  0  0  0
  186.9670  178.4190  147.6460 C   0  0  0  0  0  2  0  0  0  0  0  0
  188.2910  178.2330  148.0700 O   0  0  0  0  0  0  0  0  0  0  0  0
  188.8220  177.2580  147.2170 C   0  0  0  0  0  2  0  0  0  0  0  0
  190.3320  177.1440  147.3870 C   0  0  0  0  0  2  0  0  0  0  0  0
  190.9080  176.3490  146.3190 N   0  0  0  0  0  2  0  0  0  0  0  0
  191.6690  177.2710  145.4990 C   0  0  0  0  0  2  0  0  0  0  0  0
  190.8670  177.6740  144.2670 C   0  0  0  0  0  2  0  0  0  0  0  0
  191.1790  176.7940  143.0940 C   0  0  0  0  0  0  0  0  0  0  0  0
  190.5470  175.5630  142.9440 O   0  0  0  0  0  1  0  0  0  0  0  0
  192.0520  177.1500  142.2600 O   0  0  0  0  0  0  0  0  0  0  0  0
  184.9030  178.4490  143.0520 C   0  0  0  0  0  2  0  0  0  0  0  0
  182.5740  178.3260  143.5760 O   0  0  0  0  0  1  0  0  0  0  0  0
  183.7730  178.9370  143.9460 C   0  0  0  0  0  2  0  0  0  0  0  0
  193.7450  175.3780  135.8530 O   0  0  0  0  0  0  0  0  0  0  0  0
  194.9000  175.0380  136.6150 C   0  0  0  0  0  2  0  0  0  0  0  0
  195.4990  174.1470  138.7420 O   0  0  0  0  0  1  0  0  0  0  0  0
  194.5200  174.8820  138.0770 C   0  0  0  0  0  2  0  0  0  0  0  0
  183.0490  175.1590  134.9170 N   0  0  0  0  0  2  0  0  0  0  0  0
  181.7540  175.3790  135.5440 C   0  0  0  0  0  2  0  0  0  0  0  0
  180.7550  173.1640  134.9820 C   0  0  0  0  0  3  0  0  0  0  0  0
  181.1530  174.0780  135.9630 C   0  0  0  0  0  0  0  0  0  0  0  0
  180.0310  171.6330  136.6420 C   0  0  0  0  0  3  0  0  0  0  0  0
  180.9830  173.7530  137.3200 C   0  0  0  0  0  0  0  0  0  0  0  0
  180.4160  172.5150  137.6540 C   0  0  0  0  0  3  0  0  0  0  0  0
  180.2060  171.9740  135.3370 N   0  0  0  0  0  0  0  0  0  0  0  0
  180.6720  175.9030  138.6920 C   0  0  0  0  0  0  0  0  0  0  0  0
  179.5170  176.1360  138.2440 O   0  0  0  0  0  0  0  0  0  0  0  0
  181.3670  174.6950  138.3330 N   0  0  0  0  0  2  0  0  0  0  0  0
  182.7090  176.7430  139.8520 C   0  0  0  0  0  1  0  0  0  0  0  0
  181.2790  176.8320  139.5960 N   0  0  0  0  0  0  0  0  0  0  0  0
  180.6000  177.9540  139.9770 O   0  0  0  0  0  0  0  0  0  0  0  0
  180.4050  180.3700  139.5850 C   0  0  0  0  0  1  0  0  0  0  0  0
  181.3910  178.8510  137.9330 C   0  0  0  0  0  1  0  0  0  0  0  0
  181.2300  179.0970  139.4190 C   0  0  0  0  0  0  0  0  0  0  0  0
  182.6240  179.3040  140.0010 C   0  0  0  0  0  1  0  0  0  0  0  0
  2  9  1  0  0  0  0
  2 15  2  0  0  0  0
  3 14  2  0  0  0  0
  3 10  1  0  0  0  0
  4 11  2  0  0  0  0
  4  8  1  0  0  0  0
  6  5  2  0  0  0  0
  7 12  2  0  0  0  0
  8 18  1  0  0  0  0
  9  1  2  0  0  0  0
 10  7  1  0  0  0  0
 10 13  2  0  0  0  0
 12  8  1  0  0  0  0
 13 12  1  0  0  0  0
 13  5  1  0  0  0  0
 14  6  1  0  0  0  0
 15 11  1  0  0  0  0
 16  2  1  0  0  0  0
 17  1  1  1  0  0  0
 17  7  1  0  0  0  0
 17  4  1  0  0  0  0
 18 19  1  0  0  0  0
 19 21  1  0  0  0  0
 20 22  1  0  0  0  0
 21 20  2  0  0  0  0
 22 23  1  1  0  0  0
 22 24  1  0  0  0  0
 24 25  1  0  0  0  0
 25 40  1  6  0  0  0
 25 28  1  0  0  0  0
 26 30  1  1  0  0  0
 28 27  1  1  0  0  0
 28 29  1  0  0  0  0
 28 26  1  0  0  0  0
 29 26  1  0  0  0  0
 30 31  1  0  0  0  0
 32 33  1  0  0  0  0
 32 31  1  0  0  0  0
 34 33  1  0  0  0  0
 35 34  1  0  0  0  0
 36 35  1  0  0  0  0
 37 36  1  0  0  0  0
 38 37  1  0  0  0  0
 39 37  2  0  0  0  0
 40 42  1  0  0  0  0
 41 42  1  0  0  0  0
 43 15  1  0  0  0  0
 43 44  1  0  0  0  0
 44 46  1  0  0  0  0
 46 45  1  0  0  0  0
 47 14  1  0  0  0  0
 47 48  1  0  0  0  0
 48 50  1  0  0  0  0
 49 54  2  0  0  0  0
 49 50  1  0  0  0  0
 50 52  2  0  0  0  0
 51 53  2  0  0  0  0
 52 53  1  0  0  0  0
 52 57  1  0  0  0  0
 54 51  1  0  0  0  0
 55 59  1  0  0  0  0
 56 55  2  0  0  0  0
 57 55  1  0  0  0  0
 59 58  1  0  0  0  0
 59 60  1  0  0  0  0
 62 63  1  0  0  0  0
 63 61  1  0  0  0  0
 63 60  1  0  0  0  0
 63 64  1  0  0  0  0
M  END
>  <MODEL>
3

>  <REMARK>
 VINA RESULT:      -5.6      2.619     10.632
  Name = 
  26 active torsions:
  status: ('A' for Active; 'I' for Inactive)
    1  A    between atoms: O_2  and  C_5
    2  A    between atoms: O_2  and  C_12
    3  A    between atoms: C_5  and  C_23
    4  A    between atoms: C_9  and  C_31
    5  A    between atoms: C_12  and  C_36
    6  A    between atoms: C_12  and  C_51
    7  A    between atoms: N_16  and  C_18
    8  A    between atoms: N_16  and  C_44
    9  A    between atoms: O_17  and  C_45
   10  A    between atoms: O_17  and  C_57
   11  A    between atoms: C_18  and  C_34
   12  A    between atoms: O_20  and  C_48
   13  A    between atoms: O_20  and  C_54
   14  A    between atoms: N_21  and  C_50
   15  A    between atoms: N_22  and  C_41
   16  A    between atoms: C_24  and  C_48
   17  A    between atoms: C_26  and  C_61
   18  A    between atoms: C_27  and  C_36
   19  A    between atoms: C_31  and  C_38
   20  A    between atoms: C_38  and  N_53
   21  A    between atoms: C_41  and  C_61
   22  A    between atoms: C_45  and  C_49
   23  A    between atoms: C_46  and  O_55
   24  A    between atoms: C_52  and  N_53
   25  A    between atoms: C_52  and  C_54
   26  A    between atoms: O_55  and  N_58
                            x       y       z     vdW  Elec       q    Type
                         _______ _______ _______ _____ _____    ______ ____

>  <TORSDO>
F 26

$$$$
=
 OpenBabel11032420003D

 64 69  0  0  1  0  0  0  0  0999 V2000
  189.7790  173.3940  135.7610 C   0  0  0  0  0  3  0  0  0  0  0  0
  192.2180  172.7880  135.7200 C   0  0  0  0  0  0  0  0  0  0  0  0
  186.3750  176.2100  134.9060 C   0  0  0  0  0  3  0  0  0  0  0  0
  190.8760  175.3240  136.8340 C   0  0  0  0  0  0  0  0  0  0  0  0
  186.7070  177.8390  137.2840 C   0  0  0  0  0  3  0  0  0  0  0  0
  185.5270  177.9040  136.5040 C   0  0  0  0  0  3  0  0  0  0  0  0
  188.8420  175.6430  135.9240 C   0  0  0  0  0  0  0  0  0  0  0  0
  190.1830  176.2640  137.6990 N   0  0  0  0  0  0  0  0  0  0  0  0
  190.7630  172.4940  135.7750 C   0  0  0  0  0  3  0  0  0  0  0  0
  187.5030  176.1890  135.7030 C   0  0  0  0  0  0  0  0  0  0  0  0
  192.1060  174.8890  137.0910 C   0  0  0  0  0  3  0  0  0  0  0  0
  188.9760  176.3560  136.9930 C   0  0  0  0  0  0  0  0  0  0  0  0
  187.6570  176.9500  136.8130 C   0  0  0  0  0  0  0  0  0  0  0  0
  185.3540  177.1080  135.3310 C   0  0  0  0  0  0  0  0  0  0  0  0
  192.8280  173.8420  136.3310 C   0  0  0  0  0  0  0  0  0  0  0  0
  192.9820  171.8630  135.0210 O   0  0  0  0  0  1  0  0  0  0  0  0
  190.0490  174.8510  135.6290 C   0  0  2  0  0  3  0  0  0  0  0  0
  190.7950  177.3080  138.5170 C   0  0  0  0  0  2  0  0  0  0  0  0
  191.1410  176.7700  139.8980 C   0  0  0  0  0  2  0  0  0  0  0  0
  189.8670  176.8960  141.9770 C   0  0  0  0  0  3  0  0  0  0  0  0
  189.9000  176.5480  140.6920 C   0  0  0  0  0  3  0  0  0  0  0  0
  188.6440  176.6840  142.8120 C   0  0  2  0  0  3  0  0  0  0  0  0
  187.9110  178.0000  143.0130 C   0  0  0  0  0  1  0  0  0  0  0  0
  189.0190  176.1700  144.0570 O   0  0  0  0  0  0  0  0  0  0  0  0
  189.4880  177.2720  144.7890 C   0  0  1  0  0  3  0  0  0  0  0  0
  188.0660  178.5410  146.6110 C   0  0  2  0  0  3  0  0  0  0  0  0
  188.6550  176.1450  146.8650 O   0  0  0  0  0  1  0  0  0  0  0  0
  188.8360  177.3430  146.1720 C   0  0  1  0  0  0  0  0  0  0  0  0
  189.4060  178.3290  146.9990 O   0  0  0  0  0  0  0  0  0  0  0  0
  187.1440  178.2550  147.7870 C   0  0  0  0  0  2  0  0  0  0  0  0
  185.9410  178.9580  147.6210 O   0  0  0  0  0  0  0  0  0  0  0  0
  185.7230  179.0020  146.2390 C   0  0  0  0  0  2  0  0  0  0  0  0
  184.4630  178.2360  145.8580 C   0  0  0  0  0  2  0  0  0  0  0  0
  183.7980  178.8700  144.7360 N   0  0  0  0  0  2  0  0  0  0  0  0
  184.4610  178.3760  143.5450 C   0  0  0  0  0  2  0  0  0  0  0  0
  183.8330  178.9840  142.2960 C   0  0  0  0  0  2  0  0  0  0  0  0
  182.3370  179.0070  142.3850 C   0  0  0  0  0  0  0  0  0  0  0  0
  181.6890  179.9420  143.1860 O   0  0  0  0  0  1  0  0  0  0  0  0
  181.6600  178.1430  141.7670 O   0  0  0  0  0  0  0  0  0  0  0  0
  191.0140  177.2420  144.8810 C   0  0  0  0  0  2  0  0  0  0  0  0
  190.9090  179.5600  144.3090 O   0  0  0  0  0  1  0  0  0  0  0  0
  191.6350  178.3870  144.0970 C   0  0  0  0  0  2  0  0  0  0  0  0
  194.2260  173.9960  136.3320 O   0  0  0  0  0  0  0  0  0  0  0  0
  194.9510  174.9660  137.0830 C   0  0  0  0  0  2  0  0  0  0  0  0
  196.9450  175.0370  138.3850 O   0  0  0  0  0  1  0  0  0  0  0  0
  195.8110  174.2700  138.1220 C   0  0  0  0  0  2  0  0  0  0  0  0
  184.1320  177.2250  134.5950 N   0  0  0  0  0  2  0  0  0  0  0  0
  182.8170  176.9940  135.1740 C   0  0  0  0  0  2  0  0  0  0  0  0
  183.6230  174.6500  135.4470 C   0  0  0  0  0  3  0  0  0  0  0  0
  182.7860  175.6810  135.8840 C   0  0  0  0  0  0  0  0  0  0  0  0
  182.8050  173.2080  137.1430 C   0  0  0  0  0  3  0  0  0  0  0  0
  181.9380  175.4630  136.9840 C   0  0  0  0  0  0  0  0  0  0  0  0
  181.9540  174.2110  137.6140 C   0  0  0  0  0  3  0  0  0  0  0  0
  183.6140  173.4470  136.0760 N   0  0  0  0  0  0  0  0  0  0  0  0
  181.3840  177.5860  138.3200 C   0  0  0  0  0  0  0  0  0  0  0  0
  182.5800  177.8040  138.6540 O   0  0  0  0  0  0  0  0  0  0  0  0
  181.0580  176.5090  137.4250 N   0  0  0  0  0  2  0  0  0  0  0  0
  178.9610  178.0150  138.7030 C   0  0  0  0  0  1  0  0  0  0  0  0
  180.3480  178.4450  138.8100 N   0  0  0  0  0  0  0  0  0  0  0  0
  180.6620  179.4980  139.6200 O   0  0  0  0  0  0  0  0  0  0  0  0
  181.9140  181.4210  138.7450 C   0  0  0  0  0  1  0  0  0  0  0  0
  179.6340  181.6310  139.6200 C   0  0  0  0  0  1  0  0  0  0  0  0
  180.5730  180.7040  138.8770 C   0  0  0  0  0  0  0  0  0  0  0  0
  179.9770  180.4640  137.4940 C   0  0  0  0  0  1  0  0  0  0  0  0
  1  9  2  0  0  0  0
  2  9  1  0  0  0  0
  2 15  2  0  0  0  0
  3 14  2  0  0  0  0
  3 10  1  0  0  0  0
  4 11  2  0  0  0  0
  4  8  1  0  0  0  0
  6  5  2  0  0  0  0
  7 12  2  0  0  0  0
  8 18  1  0  0  0  0
 10  7  1  0  0  0  0
 10 13  2  0  0  0  0
 12  8  1  0  0  0  0
 13 12  1  0  0  0  0
 13  5  1  0  0  0  0
 14  6  1  0  0  0  0
 15 43  1  0  0  0  0
 15 11  1  0  0  0  0
 16  2  1  0  0  0  0
 17  1  1  1  0  0  0
 17  7  1  0  0  0  0
 17  4  1  0  0  0  0
 18 19  1  0  0  0  0
 19 21  1  0  0  0  0
 20 22  1  0  0  0  0
 21 20  2  0  0  0  0
 22 23  1  1  0  0  0
 22 24  1  0  0  0  0
 24 25  1  0  0  0  0
 25 40  1  1  0  0  0
 25 28  1  0  0  0  0
 26 29  1  0  0  0  0
 26 30  1  1  0  0  0
 28 26  1  0  0  0  0
 28 27  1  1  0  0  0
 28 29  1  0  0  0  0
 31 30  1  0  0  0  0
 32 31  1  0  0  0  0
 33 32  1  0  0  0  0
 34 33  1  0  0  0  0
 35 34  1  0  0  0  0
 36 37  1  0  0  0  0
 36 35  1  0  0  0  0
 37 38  1  0  0  0  0
 39 37  2  0  0  0  0
 42 41  1  0  0  0  0
 42 40  1  0  0  0  0
 43 44  1  0  0  0  0
 44 46  1  0  0  0  0
 46 45  1  0  0  0  0
 47 48  1  0  0  0  0
 47 14  1  0  0  0  0
 48 50  1  0  0  0  0
 49 50  2  0  0  0  0
 49 54  1  0  0  0  0
 50 52  1  0  0  0  0
 51 53  1  0  0  0  0
 52 57  1  0  0  0  0
 52 53  2  0  0  0  0
 54 51  2  0  0  0  0
 55 56  2  0  0  0  0
 55 59  1  0  0  0  0
 57 55  1  0  0  0  0
 58 59  1  0  0  0  0
 59 60  1  0  0  0  0
 61 63  1  0  0  0  0
 63 60  1  0  0  0  0
 63 62  1  0  0  0  0
 64 63  1  0  0  0  0
M  END
>  <MODEL>
4

>  <REMARK>
 VINA RESULT:      -5.6      2.420     10.941
  Name = 
  26 active torsions:
  status: ('A' for Active; 'I' for Inactive)
    1  A    between atoms: O_2  and  C_5
    2  A    between atoms: O_2  and  C_12
    3  A    between atoms: C_5  and  C_23
    4  A    between atoms: C_9  and  C_31
    5  A    between atoms: C_12  and  C_36
    6  A    between atoms: C_12  and  C_51
    7  A    between atoms: N_16  and  C_18
    8  A    between atoms: N_16  and  C_44
    9  A    between atoms: O_17  and  C_45
   10  A    between atoms: O_17  and  C_57
   11  A    between atoms: C_18  and  C_34
   12  A    between atoms: O_20  and  C_48
   13  A    between atoms: O_20  and  C_54
   14  A    between atoms: N_21  and  C_50
   15  A    between atoms: N_22  and  C_41
   16  A    between atoms: C_24  and  C_48
   17  A    between atoms: C_26  and  C_61
   18  A    between atoms: C_27  and  C_36
   19  A    between atoms: C_31  and  C_38
   20  A    between atoms: C_38  and  N_53
   21  A    between atoms: C_41  and  C_61
   22  A    between atoms: C_45  and  C_49
   23  A    between atoms: C_46  and  O_55
   24  A    between atoms: C_52  and  N_53
   25  A    between atoms: C_52  and  C_54
   26  A    between atoms: O_55  and  N_58
                            x       y       z     vdW  Elec       q    Type
                         _______ _______ _______ _____ _____    ______ ____

>  <TORSDO>
F 26

$$$$
=
 OpenBabel11032420003D

 64 69  0  0  1  0  0  0  0  0999 V2000
  192.6990  177.1360  139.4340 C   0  0  0  0  0  3  0  0  0  0  0  0
  194.6980  175.6400  139.1470 C   0  0  0  0  0  0  0  0  0  0  0  0
  188.2730  177.7990  139.9040 C   0  0  0  0  0  3  0  0  0  0  0  0
  192.1060  175.7380  137.4910 C   0  0  0  0  0  0  0  0  0  0  0  0
  187.6310  177.6640  137.0780 C   0  0  0  0  0  3  0  0  0  0  0  0
  186.7080  178.1810  138.0210 C   0  0  0  0  0  3  0  0  0  0  0  0
  190.4290  176.6970  138.6470 C   0  0  0  0  0  0  0  0  0  0  0  0
  191.0930  176.1060  136.5150 N   0  0  0  0  0  0  0  0  0  0  0  0
  194.0060  176.8940  139.5390 C   0  0  0  0  0  3  0  0  0  0  0  0
  189.1310  177.3050  138.9420 C   0  0  0  0  0  0  0  0  0  0  0  0
  193.2560  175.1670  137.1470 C   0  0  0  0  0  3  0  0  0  0  0  0
  190.1450  176.6580  137.3870 C   0  0  0  0  0  0  0  0  0  0  0  0
  188.8300  177.2430  137.6220 C   0  0  0  0  0  0  0  0  0  0  0  0
  187.0140  178.2500  139.4140 C   0  0  0  0  0  0  0  0  0  0  0  0
  194.3850  174.8780  138.0610 C   0  0  0  0  0  0  0  0  0  0  0  0
  195.7710  175.2790  139.9520 O   0  0  0  0  0  1  0  0  0  0  0  0
  191.7470  176.1060  138.9390 C   0  0  2  0  0  3  0  0  0  0  0  0
  190.8220  175.4340  135.2470 C   0  0  0  0  0  2  0  0  0  0  0  0
  190.8210  173.9240  135.4320 C   0  0  0  0  0  2  0  0  0  0  0  0
  188.8830  172.4960  135.8400 C   0  0  0  0  0  3  0  0  0  0  0  0
  189.5030  173.3550  135.0320 C   0  0  0  0  0  3  0  0  0  0  0  0
  187.5620  171.8960  135.4730 C   0  0  2  0  0  3  0  0  0  0  0  0
  187.7680  170.6710  134.5980 C   0  0  0  0  0  1  0  0  0  0  0  0
  186.8050  172.8410  134.7740 O   0  0  0  0  0  0  0  0  0  0  0  0
  185.6340  173.0130  135.5300 C   0  0  1  0  0  3  0  0  0  0  0  0
  184.6970  175.4350  135.0690 C   0  0  2  0  0  3  0  0  0  0  0  0
  185.6440  174.8110  137.2750 O   0  0  0  0  0  1  0  0  0  0  0  0
  185.4420  174.4780  135.9350 C   0  0  1  0  0  0  0  0  0  0  0  0
  186.1070  175.3760  135.0800 O   0  0  0  0  0  0  0  0  0  0  0  0
  184.2330  176.6750  135.8190 C   0  0  0  0  0  2  0  0  0  0  0  0
  183.1140  177.2220  135.1720 O   0  0  0  0  0  0  0  0  0  0  0  0
  182.0560  177.0870  136.0790 C   0  0  0  0  0  2  0  0  0  0  0  0
  180.7770  176.6630  135.3700 C   0  0  0  0  0  2  0  0  0  0  0  0
  180.0620  175.6730  136.1530 N   0  0  0  0  0  2  0  0  0  0  0  0
  180.9900  175.2180  137.1690 C   0  0  0  0  0  2  0  0  0  0  0  0
  180.2430  174.8660  138.4510 C   0  0  0  0  0  2  0  0  0  0  0  0
  180.7680  175.6380  139.6240 C   0  0  0  0  0  0  0  0  0  0  0  0
  179.9580  175.8870  140.7280 O   0  0  0  0  0  1  0  0  0  0  0  0
  181.9370  176.1040  139.5940 O   0  0  0  0  0  0  0  0  0  0  0  0
  184.4240  172.4700  134.7720 C   0  0  0  0  0  2  0  0  0  0  0  0
  183.8530  171.4990  136.8800 O   0  0  0  0  0  1  0  0  0  0  0  0
  183.3100  172.0700  135.7280 C   0  0  0  0  0  2  0  0  0  0  0  0
  195.1550  173.7630  137.6850 O   0  0  0  0  0  0  0  0  0  0  0  0
  195.3100  173.2750  136.3560 C   0  0  0  0  0  2  0  0  0  0  0  0
  194.2900  171.8680  134.7250 O   0  0  0  0  0  1  0  0  0  0  0  0
  194.2570  172.2170  136.0740 C   0  0  0  0  0  2  0  0  0  0  0  0
  186.0330  178.7880  140.3060 N   0  0  0  0  0  2  0  0  0  0  0  0
  184.6680  178.2920  140.4000 C   0  0  0  0  0  2  0  0  0  0  0  0
  182.7470  178.8500  141.8880 C   0  0  0  0  0  3  0  0  0  0  0  0
  184.1090  178.5600  141.7570 C   0  0  0  0  0  0  0  0  0  0  0  0
  182.9750  179.0670  144.2390 C   0  0  0  0  0  3  0  0  0  0  0  0
  184.9210  178.5230  142.9050 C   0  0  0  0  0  0  0  0  0  0  0  0
  184.3390  178.7800  144.1540 C   0  0  0  0  0  3  0  0  0  0  0  0
  182.2140  179.0970  143.1120 N   0  0  0  0  0  0  0  0  0  0  0  0
  187.1650  177.5970  143.7450 C   0  0  0  0  0  0  0  0  0  0  0  0
  186.6620  177.0240  144.7500 O   0  0  0  0  0  0  0  0  0  0  0  0
  186.3240  178.2500  142.7770 N   0  0  0  0  0  2  0  0  0  0  0  0
  189.1900  178.4790  142.5980 C   0  0  0  0  0  1  0  0  0  0  0  0
  188.5830  177.5620  143.5500 N   0  0  0  0  0  0  0  0  0  0  0  0
  189.3770  176.8990  144.4420 O   0  0  0  0  0  0  0  0  0  0  0  0
  191.1920  177.9810  143.1920 C   0  0  0  0  0  1  0  0  0  0  0  0
  190.5660  175.6380  142.8290 C   0  0  0  0  0  1  0  0  0  0  0  0
  190.6680  176.7230  143.8800 C   0  0  0  0  0  0  0  0  0  0  0  0
  191.6710  176.2500  144.9270 C   0  0  0  0  0  1  0  0  0  0  0  0
  1  9  2  0  0  0  0
  2  9  1  0  0  0  0
  2 16  1  0  0  0  0
  4 17  1  0  0  0  0
  5 13  2  0  0  0  0
  5  6  1  0  0  0  0
  6 14  2  0  0  0  0
  7 17  1  0  0  0  0
  7 10  1  0  0  0  0
  8 12  1  0  0  0  0
  8  4  1  0  0  0  0
 10  3  2  0  0  0  0
 11  4  2  0  0  0  0
 11 15  1  0  0  0  0
 12 13  1  0  0  0  0
 12  7  2  0  0  0  0
 13 10  1  0  0  0  0
 14  3  1  0  0  0  0
 14 47  1  0  0  0  0
 15  2  2  0  0  0  0
 17  1  1  6  0  0  0
 18 19  1  0  0  0  0
 18  8  1  0  0  0  0
 21 19  1  0  0  0  0
 21 20  2  0  0  0  0
 22 23  1  6  0  0  0
 22 20  1  0  0  0  0
 24 22  1  0  0  0  0
 24 25  1  0  0  0  0
 25 40  1  6  0  0  0
 25 28  1  0  0  0  0
 26 29  1  0  0  0  0
 26 30  1  1  0  0  0
 26 28  1  0  0  0  0
 28 27  1  1  0  0  0
 29 28  1  0  0  0  0
 31 30  1  0  0  0  0
 31 32  1  0  0  0  0
 33 32  1  0  0  0  0
 33 34  1  0  0  0  0
 34 35  1  0  0  0  0
 35 36  1  0  0  0  0
 36 37  1  0  0  0  0
 37 38  1  0  0  0  0
 39 37  2  0  0  0  0
 40 42  1  0  0  0  0
 42 41  1  0  0  0  0
 43 15  1  0  0  0  0
 44 43  1  0  0  0  0
 45 46  1  0  0  0  0
 46 44  1  0  0  0  0
 47 48  1  0  0  0  0
 48 50  1  0  0  0  0
 49 54  1  0  0  0  0
 50 49  2  0  0  0  0
 50 52  1  0  0  0  0
 52 53  2  0  0  0  0
 53 51  1  0  0  0  0
 54 51  2  0  0  0  0
 55 56  2  0  0  0  0
 57 52  1  0  0  0  0
 57 55  1  0  0  0  0
 58 59  1  0  0  0  0
 59 55  1  0  0  0  0
 59 60  1  0  0  0  0
 61 63  1  0  0  0  0
 62 63  1  0  0  0  0
 63 60  1  0  0  0  0
 63 64  1  0  0  0  0
M  END
>  <MODEL>
5

>  <REMARK>
 VINA RESULT:      -5.5      2.416      8.809
  Name = 
  26 active torsions:
  status: ('A' for Active; 'I' for Inactive)
    1  A    between atoms: O_2  and  C_5
    2  A    between atoms: O_2  and  C_12
    3  A    between atoms: C_5  and  C_23
    4  A    between atoms: C_9  and  C_31
    5  A    between atoms: C_12  and  C_36
    6  A    between atoms: C_12  and  C_51
    7  A    between atoms: N_16  and  C_18
    8  A    between atoms: N_16  and  C_44
    9  A    between atoms: O_17  and  C_45
   10  A    between atoms: O_17  and  C_57
   11  A    between atoms: C_18  and  C_34
   12  A    between atoms: O_20  and  C_48
   13  A    between atoms: O_20  and  C_54
   14  A    between atoms: N_21  and  C_50
   15  A    between atoms: N_22  and  C_41
   16  A    between atoms: C_24  and  C_48
   17  A    between atoms: C_26  and  C_61
   18  A    between atoms: C_27  and  C_36
   19  A    between atoms: C_31  and  C_38
   20  A    between atoms: C_38  and  N_53
   21  A    between atoms: C_41  and  C_61
   22  A    between atoms: C_45  and  C_49
   23  A    between atoms: C_46  and  O_55
   24  A    between atoms: C_52  and  N_53
   25  A    between atoms: C_52  and  C_54
   26  A    between atoms: O_55  and  N_58
                            x       y       z     vdW  Elec       q    Type
                         _______ _______ _______ _____ _____    ______ ____

>  <TORSDO>
F 26

$$$$
=
 OpenBabel11032420003D

 64 69  0  0  1  0  0  0  0  0999 V2000
  191.0780  176.2590  144.2950 C   0  0  0  0  0  3  0  0  0  0  0  0
  190.6490  177.1530  146.6040 C   0  0  0  0  0  0  0  0  0  0  0  0
  191.6250  176.8140  139.8630 C   0  0  0  0  0  3  0  0  0  0  0  0
  189.0190  177.5890  144.0300 C   0  0  0  0  0  0  0  0  0  0  0  0
  188.8010  176.8660  139.2000 C   0  0  0  0  0  3  0  0  0  0  0  0
  189.7910  176.6910  138.2010 C   0  0  0  0  0  3  0  0  0  0  0  0
  190.2640  177.2040  142.1950 C   0  0  0  0  0  0  0  0  0  0  0  0
  188.0850  177.4150  142.9300 N   0  0  0  0  0  0  0  0  0  0  0  0
  191.1560  176.1600  145.6220 C   0  0  0  0  0  3  0  0  0  0  0  0
  190.6190  176.9830  140.7930 C   0  0  0  0  0  0  0  0  0  0  0  0
  188.6200  177.8090  145.2800 C   0  0  0  0  0  3  0  0  0  0  0  0
  189.0070  177.2060  141.8960 C   0  0  0  0  0  0  0  0  0  0  0  0
  189.3000  177.0070  140.4820 C   0  0  0  0  0  0  0  0  0  0  0  0
  191.1830  176.6660  138.5170 C   0  0  0  0  0  0  0  0  0  0  0  0
  189.5000  177.8720  146.4700 C   0  0  0  0  0  0  0  0  0  0  0  0
  191.4140  177.2890  147.7560 O   0  0  0  0  0  1  0  0  0  0  0  0
  190.4960  177.4540  143.6290 C   0  0  2  0  0  3  0  0  0  0  0  0
  186.7620  178.0220  142.8070 C   0  0  0  0  0  2  0  0  0  0  0  0
  186.6610  178.8270  141.5200 C   0  0  0  0  0  2  0  0  0  0  0  0
  184.9200  178.6740  139.8150 C   0  0  0  0  0  3  0  0  0  0  0  0
  185.2400  178.9260  141.0830 C   0  0  0  0  0  3  0  0  0  0  0  0
  183.5060  178.7690  139.3340 C   0  0  2  0  0  3  0  0  0  0  0  0
  183.1100  180.2260  139.1590 C   0  0  0  0  0  1  0  0  0  0  0  0
  182.6590  178.1700  140.2710 O   0  0  0  0  0  0  0  0  0  0  0  0
  181.4640  178.9050  140.2160 C   0  0  1  0  0  3  0  0  0  0  0  0
  180.3430  176.6180  139.5310 C   0  0  2  0  0  3  0  0  0  0  0  0
  179.1620  178.7790  139.2360 O   0  0  0  0  0  1  0  0  0  0  0  0
  180.3490  178.1080  139.5320 C   0  0  1  0  0  0  0  0  0  0  0  0
  180.8040  177.3660  138.4260 O   0  0  0  0  0  0  0  0  0  0  0  0
  178.9750  176.0320  139.2150 C   0  0  0  0  0  2  0  0  0  0  0  0
  179.0910  175.1180  138.1560 O   0  0  0  0  0  0  0  0  0  0  0  0
  180.2340  174.3610  138.4410 C   0  0  0  0  0  2  0  0  0  0  0  0
  180.8890  173.8530  137.1630 C   0  0  0  0  0  2  0  0  0  0  0  0
  182.3330  173.9510  137.2550 N   0  0  0  0  0  2  0  0  0  0  0  0
  182.7010  175.1480  136.5250 C   0  0  0  0  0  2  0  0  0  0  0  0
  184.0190  174.9380  135.7880 C   0  0  0  0  0  2  0  0  0  0  0  0
  184.8730  176.1690  135.8210 C   0  0  0  0  0  0  0  0  0  0  0  0
  185.5000  176.6280  134.6660 O   0  0  0  0  0  0  0  0  0  0  0  0
  185.0620  176.7700  136.9110 O   0  0  0  0  0  1  0  0  0  0  0  0
  181.0560  179.3670  141.6140 C   0  0  0  0  0  2  0  0  0  0  0  0
  180.7100  178.6500  143.8680 O   0  0  0  0  0  1  0  0  0  0  0  0
  181.2160  178.2470  142.6320 C   0  0  0  0  0  2  0  0  0  0  0  0
  189.0210  178.7110  147.4910 O   0  0  0  0  0  0  0  0  0  0  0  0
  187.8160  178.5160  148.2260 C   0  0  0  0  0  2  0  0  0  0  0  0
  186.2020  178.9680  146.5320 O   0  0  0  0  0  1  0  0  0  0  0  0
  186.7460  177.9480  147.3110 C   0  0  0  0  0  2  0  0  0  0  0  0
  192.1250  176.4810  137.4550 N   0  0  0  0  0  2  0  0  0  0  0  0
  193.5640  176.6160  137.6200 C   0  0  0  0  0  2  0  0  0  0  0  0
  195.5200  175.1190  138.0040 C   0  0  0  0  0  3  0  0  0  0  0  0
  194.2280  175.2850  137.4960 C   0  0  0  0  0  0  0  0  0  0  0  0
  195.5440  172.8480  137.3200 C   0  0  0  0  0  3  0  0  0  0  0  0
  193.5810  174.1970  136.8850 C   0  0  0  0  0  0  0  0  0  0  0  0
  194.2520  172.9690  136.8010 C   0  0  0  0  0  3  0  0  0  0  0  0
  196.1460  173.9180  137.9050 N   0  0  0  0  0  0  0  0  0  0  0  0
  191.4330  173.3410  135.7650 C   0  0  0  0  0  0  0  0  0  0  0  0
  191.7470  172.1250  135.8720 O   0  0  0  0  0  0  0  0  0  0  0  0
  192.2630  174.3650  136.3400 N   0  0  0  0  0  2  0  0  0  0  0  0
  190.0170  175.0800  134.6840 C   0  0  0  0  0  1  0  0  0  0  0  0
  190.2190  173.6990  135.0970 N   0  0  0  0  0  0  0  0  0  0  0  0
  189.4050  172.7240  134.5950 O   0  0  0  0  0  0  0  0  0  0  0  0
  187.6310  171.2620  135.4600 C   0  0  0  0  0  1  0  0  0  0  0  0
  187.1810  173.5350  134.6570 C   0  0  0  0  0  1  0  0  0  0  0  0
  188.2090  172.6720  135.3570 C   0  0  0  0  0  0  0  0  0  0  0  0
  188.4140  173.2490  136.7540 C   0  0  0  0  0  1  0  0  0  0  0  0
  1  9  2  0  0  0  0
  2 16  1  0  0  0  0
  3 10  1  0  0  0  0
  4 11  2  0  0  0  0
  5 13  1  0  0  0  0
  6 14  1  0  0  0  0
  6  5  2  0  0  0  0
  7 17  1  0  0  0  0
  8  4  1  0  0  0  0
  9  2  1  0  0  0  0
 10  7  1  0  0  0  0
 11 15  1  0  0  0  0
 12  7  2  0  0  0  0
 12  8  1  0  0  0  0
 13 10  2  0  0  0  0
 13 12  1  0  0  0  0
 14  3  2  0  0  0  0
 15  2  2  0  0  0  0
 15 43  1  0  0  0  0
 17  4  1  0  0  0  0
 17  1  1  1  0  0  0
 18  8  1  0  0  0  0
 19 18  1  0  0  0  0
 20 21  2  0  0  0  0
 21 19  1  0  0  0  0
 22 23  1  1  0  0  0
 22 20  1  0  0  0  0
 22 24  1  0  0  0  0
 25 24  1  0  0  0  0
 25 40  1  1  0  0  0
 26 30  1  6  0  0  0
 26 28  1  0  0  0  0
 28 27  1  6  0  0  0
 28 25  1  0  0  0  0
 29 26  1  0  0  0  0
 29 28  1  0  0  0  0
 31 32  1  0  0  0  0
 31 30  1  0  0  0  0
 33 34  1  0  0  0  0
 33 32  1  0  0  0  0
 35 34  1  0  0  0  0
 36 37  1  0  0  0  0
 36 35  1  0  0  0  0
 37 39  1  0  0  0  0
 38 37  2  0  0  0  0
 40 42  1  0  0  0  0
 42 41  1  0  0  0  0
 43 44  1  0  0  0  0
 45 46  1  0  0  0  0
 46 44  1  0  0  0  0
 47 48  1  0  0  0  0
 47 14  1  0  0  0  0
 50 48  1  0  0  0  0
 50 49  2  0  0  0  0
 51 54  2  0  0  0  0
 52 50  1  0  0  0  0
 53 52  2  0  0  0  0
 53 51  1  0  0  0  0
 54 49  1  0  0  0  0
 55 56  2  0  0  0  0
 55 57  1  0  0  0  0
 57 52  1  0  0  0  0
 58 59  1  0  0  0  0
 59 55  1  0  0  0  0
 60 59  1  0  0  0  0
 60 63  1  0  0  0  0
 62 63  1  0  0  0  0
 63 61  1  0  0  0  0
 63 64  1  0  0  0  0
M  END
>  <MODEL>
6

>  <REMARK>
 VINA RESULT:      -5.5      1.922      3.936
  Name = 
  26 active torsions:
  status: ('A' for Active; 'I' for Inactive)
    1  A    between atoms: O_2  and  C_5
    2  A    between atoms: O_2  and  C_12
    3  A    between atoms: C_5  and  C_23
    4  A    between atoms: C_9  and  C_31
    5  A    between atoms: C_12  and  C_36
    6  A    between atoms: C_12  and  C_51
    7  A    between atoms: N_16  and  C_18
    8  A    between atoms: N_16  and  C_44
    9  A    between atoms: O_17  and  C_45
   10  A    between atoms: O_17  and  C_57
   11  A    between atoms: C_18  and  C_34
   12  A    between atoms: O_20  and  C_48
   13  A    between atoms: O_20  and  C_54
   14  A    between atoms: N_21  and  C_50
   15  A    between atoms: N_22  and  C_41
   16  A    between atoms: C_24  and  C_48
   17  A    between atoms: C_26  and  C_61
   18  A    between atoms: C_27  and  C_36
   19  A    between atoms: C_31  and  C_38
   20  A    between atoms: C_38  and  N_53
   21  A    between atoms: C_41  and  C_61
   22  A    between atoms: C_45  and  C_49
   23  A    between atoms: C_46  and  O_55
   24  A    between atoms: C_52  and  N_53
   25  A    between atoms: C_52  and  C_54
   26  A    between atoms: O_55  and  N_58
                            x       y       z     vdW  Elec       q    Type
                         _______ _______ _______ _____ _____    ______ ____

>  <TORSDO>
F 26

$$$$
=
 OpenBabel11032420003D

 64 69  0  0  1  0  0  0  0  0999 V2000
  190.2720  176.2670  143.6790 C   0  0  0  0  0  3  0  0  0  0  0  0
  189.7820  177.0810  146.0050 C   0  0  0  0  0  0  0  0  0  0  0  0
  191.3420  176.9850  139.3670 C   0  0  0  0  0  3  0  0  0  0  0  0
  188.5170  177.9660  143.3440 C   0  0  0  0  0  0  0  0  0  0  0  0
  188.6520  177.5950  138.4700 C   0  0  0  0  0  3  0  0  0  0  0  0
  189.6880  177.3030  137.5500 C   0  0  0  0  0  3  0  0  0  0  0  0
  189.8490  177.4730  141.5970 C   0  0  0  0  0  0  0  0  0  0  0  0
  187.6800  178.0350  142.1580 N   0  0  0  0  0  0  0  0  0  0  0  0
  190.2000  176.0740  144.9960 C   0  0  0  0  0  3  0  0  0  0  0  0
  190.2950  177.2780  140.2180 C   0  0  0  0  0  0  0  0  0  0  0  0
  188.0420  178.1790  144.5680 C   0  0  0  0  0  3  0  0  0  0  0  0
  188.6480  177.7250  141.1930 C   0  0  0  0  0  0  0  0  0  0  0  0
  189.0390  177.5620  139.7980 C   0  0  0  0  0  0  0  0  0  0  0  0
  191.0160  177.0040  137.9810 C   0  0  0  0  0  0  0  0  0  0  0  0
  188.7970  178.0050  145.8300 C   0  0  0  0  0  0  0  0  0  0  0  0
  190.4420  177.0030  147.2260 O   0  0  0  0  0  1  0  0  0  0  0  0
  189.9790  177.5880  143.0610 C   0  0  2  0  0  3  0  0  0  0  0  0
  186.5040  178.8800  141.9690 C   0  0  0  0  0  2  0  0  0  0  0  0
  185.7370  178.4590  140.7240 C   0  0  0  0  0  2  0  0  0  0  0  0
  183.6370  179.1860  141.7350 C   0  0  0  0  0  3  0  0  0  0  0  0
  184.2970  178.2550  141.0490 C   0  0  0  0  0  3  0  0  0  0  0  0
  182.1930  179.0170  142.0890 C   0  0  2  0  0  3  0  0  0  0  0  0
  182.0480  178.7160  143.5710 C   0  0  0  0  0  1  0  0  0  0  0  0
  181.6580  177.9580  141.3480 O   0  0  0  0  0  0  0  0  0  0  0  0
  180.8050  178.5560  140.4060 C   0  0  1  0  0  3  0  0  0  0  0  0
  179.9470  177.3870  138.2030 C   0  0  2  0  0  3  0  0  0  0  0  0
  179.4550  176.4470  140.4460 O   0  0  0  0  0  1  0  0  0  0  0  0
  179.9460  177.5110  139.6890 C   0  0  1  0  0  0  0  0  0  0  0  0
  178.9330  178.0830  138.8960 O   0  0  0  0  0  0  0  0  0  0  0  0
  179.4070  176.0490  137.7210 C   0  0  0  0  0  2  0  0  0  0  0  0
  180.4710  175.1510  137.5440 O   0  0  0  0  0  0  0  0  0  0  0  0
  180.9200  175.3590  136.2340 C   0  0  0  0  0  2  0  0  0  0  0  0
  182.3820  175.7850  136.2170 C   0  0  0  0  0  2  0  0  0  0  0  0
  182.9230  175.7040  134.8730 N   0  0  0  0  0  2  0  0  0  0  0  0
  184.1800  176.4250  134.9020 C   0  0  0  0  0  2  0  0  0  0  0  0
  184.9660  176.0730  136.1590 C   0  0  0  0  0  2  0  0  0  0  0  0
  186.4430  176.0600  135.9020 C   0  0  0  0  0  0  0  0  0  0  0  0
  187.2300  175.0020  136.3460 O   0  0  0  0  0  1  0  0  0  0  0  0
  186.9840  177.0350  135.3180 O   0  0  0  0  0  0  0  0  0  0  0  0
  179.9510  179.6360  141.0690 C   0  0  0  0  0  2  0  0  0  0  0  0
  179.1970  181.8980  140.8970 O   0  0  0  0  0  1  0  0  0  0  0  0
  180.0120  180.9410  140.2890 C   0  0  0  0  0  2  0  0  0  0  0  0
  188.3760  178.8540  146.8690 O   0  0  0  0  0  0  0  0  0  0  0  0
  187.0280  179.2270  147.1380 C   0  0  0  0  0  2  0  0  0  0  0  0
  184.9220  178.2050  146.6920 O   0  0  0  0  0  1  0  0  0  0  0  0
  186.1700  177.9820  147.2720 C   0  0  0  0  0  2  0  0  0  0  0  0
  192.0100  176.7150  136.9920 N   0  0  0  0  0  2  0  0  0  0  0  0
  192.7030  175.4390  136.8930 C   0  0  0  0  0  2  0  0  0  0  0  0
  190.6530  174.8690  135.5940 C   0  0  0  0  0  3  0  0  0  0  0  0
  191.8820  174.4610  136.1200 C   0  0  0  0  0  0  0  0  0  0  0  0
  190.2890  172.7190  134.6620 C   0  0  0  0  0  3  0  0  0  0  0  0
  192.3220  173.1430  135.9050 C   0  0  0  0  0  0  0  0  0  0  0  0
  191.5110  172.2700  135.1680 C   0  0  0  0  0  3  0  0  0  0  0  0
  189.8880  173.9990  134.8850 N   0  0  0  0  0  0  0  0  0  0  0  0
  194.8660  172.7860  135.8360 C   0  0  0  0  0  0  0  0  0  0  0  0
  195.0260  173.4440  134.7730 O   0  0  0  0  0  0  0  0  0  0  0  0
  193.5720  172.7090  136.4620 N   0  0  0  0  0  2  0  0  0  0  0  0
  195.7640  171.1300  137.4630 C   0  0  0  0  0  1  0  0  0  0  0  0
  195.9910  172.1430  136.4440 N   0  0  0  0  0  0  0  0  0  0  0  0
  197.2290  172.2580  135.8780 O   0  0  0  0  0  0  0  0  0  0  0  0
  198.7720  174.1630  136.0140 C   0  0  0  0  0  1  0  0  0  0  0  0
  199.1400  172.0860  137.2640 C   0  0  0  0  0  1  0  0  0  0  0  0
  198.0690  173.0150  136.7350 C   0  0  0  0  0  0  0  0  0  0  0  0
  197.2980  173.5540  137.9360 C   0  0  0  0  0  1  0  0  0  0  0  0
  1  9  2  0  0  0  0
  2 16  1  0  0  0  0
  3 10  1  0  0  0  0
  4 11  2  0  0  0  0
  5 13  1  0  0  0  0
  6 14  1  0  0  0  0
  6  5  2  0  0  0  0
  7 17  1  0  0  0  0
  8  4  1  0  0  0  0
  9  2  1  0  0  0  0
 10  7  1  0  0  0  0
 11 15  1  0  0  0  0
 12  7  2  0  0  0  0
 12  8  1  0  0  0  0
 13 10  2  0  0  0  0
 13 12  1  0  0  0  0
 14  3  2  0  0  0  0
 15  2  2  0  0  0  0
 15 43  1  0  0  0  0
 17  4  1  0  0  0  0
 17  1  1  1  0  0  0
 18  8  1  0  0  0  0
 19 21  1  0  0  0  0
 19 18  1  0  0  0  0
 20 22  1  0  0  0  0
 21 20  2  0  0  0  0
 22 23  1  1  0  0  0
 24 22  1  0  0  0  0
 25 40  1  1  0  0  0
 25 24  1  0  0  0  0
 26 30  1  1  0  0  0
 26 29  1  0  0  0  0
 26 28  1  0  0  0  0
 28 25  1  0  0  0  0
 28 27  1  1  0  0  0
 29 28  1  0  0  0  0
 31 30  1  0  0  0  0
 32 31  1  0  0  0  0
 33 32  1  0  0  0  0
 34 35  1  0  0  0  0
 34 33  1  0  0  0  0
 35 36  1  0  0  0  0
 37 36  1  0  0  0  0
 37 38  1  0  0  0  0
 39 37  2  0  0  0  0
 42 41  1  0  0  0  0
 42 40  1  0  0  0  0
 43 44  1  0  0  0  0
 44 46  1  0  0  0  0
 45 46  1  0  0  0  0
 47 14  1  0  0  0  0
 48 47  1  0  0  0  0
 49 50  1  0  0  0  0
 50 48  1  0  0  0  0
 51 54  1  0  0  0  0
 51 53  2  0  0  0  0
 52 50  2  0  0  0  0
 52 57  1  0  0  0  0
 53 52  1  0  0  0  0
 54 49  2  0  0  0  0
 55 59  1  0  0  0  0
 55 57  1  0  0  0  0
 56 55  2  0  0  0  0
 59 58  1  0  0  0  0
 60 59  1  0  0  0  0
 60 63  1  0  0  0  0
 61 63  1  0  0  0  0
 63 62  1  0  0  0  0
 63 64  1  0  0  0  0
M  END
>  <MODEL>
7

>  <REMARK>
 VINA RESULT:      -5.4      1.619      1.961
  Name = 
  26 active torsions:
  status: ('A' for Active; 'I' for Inactive)
    1  A    between atoms: O_2  and  C_5
    2  A    between atoms: O_2  and  C_12
    3  A    between atoms: C_5  and  C_23
    4  A    between atoms: C_9  and  C_31
    5  A    between atoms: C_12  and  C_36
    6  A    between atoms: C_12  and  C_51
    7  A    between atoms: N_16  and  C_18
    8  A    between atoms: N_16  and  C_44
    9  A    between atoms: O_17  and  C_45
   10  A    between atoms: O_17  and  C_57
   11  A    between atoms: C_18  and  C_34
   12  A    between atoms: O_20  and  C_48
   13  A    between atoms: O_20  and  C_54
   14  A    between atoms: N_21  and  C_50
   15  A    between atoms: N_22  and  C_41
   16  A    between atoms: C_24  and  C_48
   17  A    between atoms: C_26  and  C_61
   18  A    between atoms: C_27  and  C_36
   19  A    between atoms: C_31  and  C_38
   20  A    between atoms: C_38  and  N_53
   21  A    between atoms: C_41  and  C_61
   22  A    between atoms: C_45  and  C_49
   23  A    between atoms: C_46  and  O_55
   24  A    between atoms: C_52  and  N_53
   25  A    between atoms: C_52  and  C_54
   26  A    between atoms: O_55  and  N_58
                            x       y       z     vdW  Elec       q    Type
                         _______ _______ _______ _____ _____    ______ ____

>  <TORSDO>
F 26

$$$$
=
 OpenBabel11032420003D

 64 69  0  0  1  0  0  0  0  0999 V2000
  191.5240  177.3120  138.7580 C   0  0  0  0  0  3  0  0  0  0  0  0
  193.1360  175.8950  137.4520 C   0  0  0  0  0  0  0  0  0  0  0  0
  187.5090  178.0260  140.6610 C   0  0  0  0  0  3  0  0  0  0  0  0
  190.2590  176.7120  136.7280 C   0  0  0  0  0  0  0  0  0  0  0  0
  186.1690  178.9180  138.2470 C   0  0  0  0  0  3  0  0  0  0  0  0
  185.6000  179.1280  139.5270 C   0  0  0  0  0  3  0  0  0  0  0  0
  189.0900  177.3060  138.5570 C   0  0  0  0  0  0  0  0  0  0  0  0
  189.1030  177.4530  136.2530 N   0  0  0  0  0  0  0  0  0  0  0  0
  192.7630  176.9740  138.4020 C   0  0  0  0  0  3  0  0  0  0  0  0
  188.0140  177.8480  139.3880 C   0  0  0  0  0  0  0  0  0  0  0  0
  191.1870  176.2300  135.9060 C   0  0  0  0  0  3  0  0  0  0  0  0
  188.4980  177.7230  137.4870 C   0  0  0  0  0  0  0  0  0  0  0  0
  187.3880  178.2650  138.2620 C   0  0  0  0  0  0  0  0  0  0  0  0
  186.2510  178.6910  140.7210 C   0  0  0  0  0  0  0  0  0  0  0  0
  192.4510  175.5770  136.3180 C   0  0  0  0  0  0  0  0  0  0  0  0
  194.3090  175.2160  137.7580 O   0  0  0  0  0  1  0  0  0  0  0  0
  190.3330  176.5750  138.2570 C   0  0  2  0  0  3  0  0  0  0  0  0
  188.4250  177.2800  134.9710 C   0  0  0  0  0  2  0  0  0  0  0  0
  187.0290  177.8850  135.0180 C   0  0  0  0  0  2  0  0  0  0  0  0
  185.5100  176.0090  134.6540 C   0  0  0  0  0  3  0  0  0  0  0  0
  186.0460  176.8780  135.5090 C   0  0  0  0  0  3  0  0  0  0  0  0
  184.5140  174.9870  135.1040 C   0  0  2  0  0  3  0  0  0  0  0  0
  184.9080  173.6110  134.5940 C   0  0  0  0  0  1  0  0  0  0  0  0
  183.2520  175.3210  134.6020 O   0  0  0  0  0  0  0  0  0  0  0  0
  182.4030  175.3520  135.7200 C   0  0  1  0  0  3  0  0  0  0  0  0
  180.6030  177.1640  136.3790 C   0  0  2  0  0  3  0  0  0  0  0  0
  183.0330  177.6460  136.5050 O   0  0  0  0  0  1  0  0  0  0  0  0
  182.0150  176.7870  136.0870 C   0  0  1  0  0  0  0  0  0  0  0  0
  181.1970  177.4000  135.1200 O   0  0  0  0  0  0  0  0  0  0  0  0
  180.4850  178.4760  137.1400 C   0  0  0  0  0  2  0  0  0  0  0  0
  179.4460  178.3800  138.0790 O   0  0  0  0  0  0  0  0  0  0  0  0
  179.3470  177.0190  138.3880 C   0  0  0  0  0  2  0  0  0  0  0  0
  180.1910  176.6710  139.6080 C   0  0  0  0  0  2  0  0  0  0  0  0
  179.3510  176.4820  140.7750 N   0  0  0  0  0  2  0  0  0  0  0  0
  178.9600  177.8100  141.2070 C   0  0  0  0  0  2  0  0  0  0  0  0
  180.1720  178.5790  141.7210 C   0  0  0  0  0  2  0  0  0  0  0  0
  179.7680  179.7030  142.6280 C   0  0  0  0  0  0  0  0  0  0  0  0
  179.0090  179.4550  143.7670 O   0  0  0  0  0  1  0  0  0  0  0  0
  180.0800  180.8860  142.3330 O   0  0  0  0  0  0  0  0  0  0  0  0
  181.1740  174.4750  135.4820 C   0  0  0  0  0  2  0  0  0  0  0  0
  180.9750  172.1480  134.9740 O   0  0  0  0  0  1  0  0  0  0  0  0
  181.4200  173.0470  135.9440 C   0  0  0  0  0  2  0  0  0  0  0  0
  192.9240  174.6190  135.4040 O   0  0  0  0  0  0  0  0  0  0  0  0
  192.7300  173.2110  135.5070 C   0  0  0  0  0  2  0  0  0  0  0  0
  190.4470  172.5320  135.4410 O   0  0  0  0  0  1  0  0  0  0  0  0
  191.5570  172.7930  134.6390 C   0  0  0  0  0  2  0  0  0  0  0  0
  185.6170  178.9430  141.9800 N   0  0  0  0  0  2  0  0  0  0  0  0
  185.0860  177.8950  142.8390 C   0  0  0  0  0  2  0  0  0  0  0  0
  184.0330  178.4910  145.0190 C   0  0  0  0  0  3  0  0  0  0  0  0
  185.1990  178.2930  144.2730 C   0  0  0  0  0  0  0  0  0  0  0  0
  185.3060  179.0260  146.9470 C   0  0  0  0  0  3  0  0  0  0  0  0
  186.4510  178.4670  144.8890 C   0  0  0  0  0  0  0  0  0  0  0  0
  186.4950  178.8370  146.2400 C   0  0  0  0  0  3  0  0  0  0  0  0
  184.1090  178.8510  146.3260 N   0  0  0  0  0  0  0  0  0  0  0  0
  188.8840  177.7020  144.5810 C   0  0  0  0  0  0  0  0  0  0  0  0
  188.9370  177.1040  145.6900 O   0  0  0  0  0  0  0  0  0  0  0  0
  187.6530  178.2890  144.1240 N   0  0  0  0  0  2  0  0  0  0  0  0
  190.0940  178.7130  142.6540 C   0  0  0  0  0  1  0  0  0  0  0  0
  190.0520  177.7630  143.7560 N   0  0  0  0  0  0  0  0  0  0  0  0
  191.2080  177.1620  144.1670 O   0  0  0  0  0  0  0  0  0  0  0  0
  191.8930  174.8230  144.4630 C   0  0  0  0  0  1  0  0  0  0  0  0
  192.2960  176.0520  142.3800 C   0  0  0  0  0  1  0  0  0  0  0  0
  191.3300  175.8970  143.5360 C   0  0  0  0  0  0  0  0  0  0  0  0
  189.9970  175.4330  142.9570 C   0  0  0  0  0  1  0  0  0  0  0  0
  2 16  1  0  0  0  0
  2  9  1  0  0  0  0
  3 14  1  0  0  0  0
  4 17  1  0  0  0  0
  5 13  2  0  0  0  0
  5  6  1  0  0  0  0
  6 14  2  0  0  0  0
  7 10  1  0  0  0  0
  8  4  1  0  0  0  0
  8 12  1  0  0  0  0
  9  1  2  0  0  0  0
 10  3  2  0  0  0  0
 11 15  1  0  0  0  0
 11  4  2  0  0  0  0
 12 13  1  0  0  0  0
 12  7  2  0  0  0  0
 13 10  1  0  0  0  0
 14 47  1  0  0  0  0
 15  2  2  0  0  0  0
 17  7  1  0  0  0  0
 17  1  1  1  0  0  0
 18 19  1  0  0  0  0
 18  8  1  0  0  0  0
 19 21  1  0  0  0  0
 20 22  1  0  0  0  0
 20 21  2  0  0  0  0
 22 23  1  6  0  0  0
 24 22  1  0  0  0  0
 24 25  1  0  0  0  0
 25 40  1  6  0  0  0
 25 28  1  0  0  0  0
 26 30  1  1  0  0  0
 28 26  1  0  0  0  0
 28 27  1  1  0  0  0
 29 28  1  0  0  0  0
 29 26  1  0  0  0  0
 30 31  1  0  0  0  0
 31 32  1  0  0  0  0
 32 33  1  0  0  0  0
 33 34  1  0  0  0  0
 34 35  1  0  0  0  0
 35 36  1  0  0  0  0
 36 37  1  0  0  0  0
 37 38  1  0  0  0  0
 39 37  2  0  0  0  0
 40 42  1  0  0  0  0
 41 42  1  0  0  0  0
 43 44  1  0  0  0  0
 43 15  1  0  0  0  0
 46 45  1  0  0  0  0
 46 44  1  0  0  0  0
 47 48  1  0  0  0  0
 48 50  1  0  0  0  0
 49 54  1  0  0  0  0
 50 52  1  0  0  0  0
 50 49  2  0  0  0  0
 52 53  2  0  0  0  0
 53 51  1  0  0  0  0
 54 51  2  0  0  0  0
 55 56  2  0  0  0  0
 57 55  1  0  0  0  0
 57 52  1  0  0  0  0
 58 59  1  0  0  0  0
 59 60  1  0  0  0  0
 59 55  1  0  0  0  0
 62 63  1  0  0  0  0
 63 60  1  0  0  0  0
 63 61  1  0  0  0  0
 64 63  1  0  0  0  0
M  END
>  <MODEL>
8

>  <REMARK>
 VINA RESULT:      -5.0      2.789      8.843
  Name = 
  26 active torsions:
  status: ('A' for Active; 'I' for Inactive)
    1  A    between atoms: O_2  and  C_5
    2  A    between atoms: O_2  and  C_12
    3  A    between atoms: C_5  and  C_23
    4  A    between atoms: C_9  and  C_31
    5  A    between atoms: C_12  and  C_36
    6  A    between atoms: C_12  and  C_51
    7  A    between atoms: N_16  and  C_18
    8  A    between atoms: N_16  and  C_44
    9  A    between atoms: O_17  and  C_45
   10  A    between atoms: O_17  and  C_57
   11  A    between atoms: C_18  and  C_34
   12  A    between atoms: O_20  and  C_48
   13  A    between atoms: O_20  and  C_54
   14  A    between atoms: N_21  and  C_50
   15  A    between atoms: N_22  and  C_41
   16  A    between atoms: C_24  and  C_48
   17  A    between atoms: C_26  and  C_61
   18  A    between atoms: C_27  and  C_36
   19  A    between atoms: C_31  and  C_38
   20  A    between atoms: C_38  and  N_53
   21  A    between atoms: C_41  and  C_61
   22  A    between atoms: C_45  and  C_49
   23  A    between atoms: C_46  and  O_55
   24  A    between atoms: C_52  and  N_53
   25  A    between atoms: C_52  and  C_54
   26  A    between atoms: O_55  and  N_58
                            x       y       z     vdW  Elec       q    Type
                         _______ _______ _______ _____ _____    ______ ____

>  <TORSDO>
F 26

$$$$
=
 OpenBabel11032420003D

 64 69  0  0  1  0  0  0  0  0999 V2000
  187.7200  178.9320  146.5250 C   0  0  0  0  0  3  0  0  0  0  0  0
  189.5000  177.8590  147.9380 C   0  0  0  0  0  0  0  0  0  0  0  0
  184.1090  178.7130  143.8480 C   0  0  0  0  0  3  0  0  0  0  0  0
  188.7160  177.2480  145.0250 C   0  0  0  0  0  0  0  0  0  0  0  0
  185.5630  178.1550  141.4010 C   0  0  0  0  0  3  0  0  0  0  0  0
  184.2070  178.5650  141.3770 C   0  0  0  0  0  3  0  0  0  0  0  0
  186.6280  177.9540  144.5710 C   0  0  0  0  0  0  0  0  0  0  0  0
  188.6050  177.2940  143.5770 N   0  0  0  0  0  0  0  0  0  0  0  0
  188.6240  178.9780  147.5030 C   0  0  0  0  0  3  0  0  0  0  0  0
  185.4290  178.3090  143.8120 C   0  0  0  0  0  0  0  0  0  0  0  0
  189.8380  176.8930  145.6450 C   0  0  0  0  0  3  0  0  0  0  0  0
  187.2760  177.7270  143.4770 C   0  0  0  0  0  0  0  0  0  0  0  0
  186.1070  178.0490  142.6680 C   0  0  0  0  0  0  0  0  0  0  0  0
  183.4820  178.8400  142.5760 C   0  0  0  0  0  0  0  0  0  0  0  0
  190.0690  176.9410  147.1080 C   0  0  0  0  0  0  0  0  0  0  0  0
  189.7700  177.8140  149.3000 O   0  0  0  0  0  1  0  0  0  0  0  0
  187.4430  177.6820  145.7680 C   0  0  2  0  0  3  0  0  0  0  0  0
  189.3200  176.4530  142.6210 C   0  0  0  0  0  2  0  0  0  0  0  0
  189.4780  177.1720  141.2900 C   0  0  0  0  0  2  0  0  0  0  0  0
  191.2170  176.4580  139.7310 C   0  0  0  0  0  3  0  0  0  0  0  0
  190.8990  177.1220  140.8410 C   0  0  0  0  0  3  0  0  0  0  0  0
  192.6320  176.3770  139.2500 C   0  0  2  0  0  3  0  0  0  0  0  0
  193.4430  177.5340  139.8100 C   0  0  0  0  0  1  0  0  0  0  0  0
  192.6470  176.4370  137.8520 O   0  0  0  0  0  0  0  0  0  0  0  0
  192.8630  175.1160  137.4260 C   0  0  1  0  0  3  0  0  0  0  0  0
  190.3950  174.1910  137.5410 C   0  0  2  0  0  3  0  0  0  0  0  0
  191.4970  174.6790  135.3720 O   0  0  0  0  0  1  0  0  0  0  0  0
  191.6140  174.5360  136.7550 C   0  0  1  0  0  0  0  0  0  0  0  0
  191.3390  173.2150  137.1560 O   0  0  0  0  0  0  0  0  0  0  0  0
  189.1500  174.0640  136.6760 C   0  0  0  0  0  2  0  0  0  0  0  0
  188.0890  174.7590  137.2770 O   0  0  0  0  0  0  0  0  0  0  0  0
  186.9240  174.1620  136.7810 C   0  0  0  0  0  2  0  0  0  0  0  0
  186.8670  174.2510  135.2610 C   0  0  0  0  0  2  0  0  0  0  0  0
  186.1760  175.4570  134.8460 N   0  0  0  0  0  2  0  0  0  0  0  0
  186.2530  176.3720  135.9680 C   0  0  0  0  0  2  0  0  0  0  0  0
  186.7790  177.7280  135.5140 C   0  0  0  0  0  2  0  0  0  0  0  0
  188.1700  177.9760  136.0140 C   0  0  0  0  0  0  0  0  0  0  0  0
  189.2380  178.0630  135.1250 O   0  0  0  0  0  0  0  0  0  0  0  0
  188.3840  178.0620  137.2520 O   0  0  0  0  0  1  0  0  0  0  0  0
  194.0850  175.0430  136.5120 C   0  0  0  0  0  2  0  0  0  0  0  0
  196.3750  174.3670  136.6140 O   0  0  0  0  0  1  0  0  0  0  0  0
  195.3750  175.0390  137.3180 C   0  0  0  0  0  2  0  0  0  0  0  0
  190.9790  175.9760  147.5750 O   0  0  0  0  0  0  0  0  0  0  0  0
  192.3710  175.9360  147.2740 C   0  0  0  0  0  2  0  0  0  0  0  0
  192.8370  177.2230  149.2240 O   0  0  0  0  0  1  0  0  0  0  0  0
  193.1750  176.0470  148.5560 C   0  0  0  0  0  2  0  0  0  0  0  0
  182.1160  179.2540  142.4720 N   0  0  0  0  0  2  0  0  0  0  0  0
  181.0920  178.4910  141.7760 C   0  0  0  0  0  2  0  0  0  0  0  0
  180.4470  180.7130  140.8470 C   0  0  0  0  0  3  0  0  0  0  0  0
  180.4600  179.3210  140.7080 C   0  0  0  0  0  0  0  0  0  0  0  0
  179.3160  180.9500  138.7750 C   0  0  0  0  0  3  0  0  0  0  0  0
  179.8850  178.7350  139.5670 C   0  0  0  0  0  0  0  0  0  0  0  0
  179.3100  179.5650  138.5960 C   0  0  0  0  0  3  0  0  0  0  0  0
  179.8790  181.4900  139.8890 N   0  0  0  0  0  0  0  0  0  0  0  0
  180.6490  176.5250  138.5010 C   0  0  0  0  0  0  0  0  0  0  0  0
  181.5780  177.0570  137.8350 O   0  0  0  0  0  0  0  0  0  0  0  0
  179.8740  177.3060  139.4290 N   0  0  0  0  0  2  0  0  0  0  0  0
  179.1370  174.5800  138.8580 C   0  0  0  0  0  1  0  0  0  0  0  0
  180.3910  175.1250  138.3580 N   0  0  0  0  0  0  0  0  0  0  0  0
  181.1590  174.3730  137.5150 O   0  0  0  0  0  0  0  0  0  0  0  0
  180.6150  172.5540  139.0730 C   0  0  0  0  0  1  0  0  0  0  0  0
  181.8840  172.1760  137.0090 C   0  0  0  0  0  1  0  0  0  0  0  0
  180.7800  173.0100  137.6250 C   0  0  0  0  0  0  0  0  0  0  0  0
  179.5020  172.7230  136.8440 C   0  0  0  0  0  1  0  0  0  0  0  0
  1  9  2  0  0  0  0
  2 16  1  0  0  0  0
  4 11  2  0  0  0  0
  4 17  1  0  0  0  0
  5 13  1  0  0  0  0
  6  5  2  0  0  0  0
  6 14  1  0  0  0  0
  7 17  1  0  0  0  0
  8  4  1  0  0  0  0
  9  2  1  0  0  0  0
 10  3  1  0  0  0  0
 10  7  1  0  0  0  0
 11 15  1  0  0  0  0
 12  8  1  0  0  0  0
 12  7  2  0  0  0  0
 13 12  1  0  0  0  0
 13 10  2  0  0  0  0
 14  3  2  0  0  0  0
 15 43  1  0  0  0  0
 15  2  2  0  0  0  0
 17  1  1  6  0  0  0
 18  8  1  0  0  0  0
 19 18  1  0  0  0  0
 20 21  2  0  0  0  0
 21 19  1  0  0  0  0
 22 20  1  0  0  0  0
 22 23  1  1  0  0  0
 24 22  1  0  0  0  0
 25 40  1  6  0  0  0
 25 24  1  0  0  0  0
 26 30  1  6  0  0  0
 28 27  1  6  0  0  0
 28 29  1  0  0  0  0
 28 25  1  0  0  0  0
 28 26  1  0  0  0  0
 29 26  1  0  0  0  0
 30 31  1  0  0  0  0
 32 31  1  0  0  0  0
 33 32  1  0  0  0  0
 34 33  1  0  0  0  0
 34 35  1  0  0  0  0
 36 35  1  0  0  0  0
 36 37  1  0  0  0  0
 37 39  1  0  0  0  0
 38 37  2  0  0  0  0
 40 42  1  0  0  0  0
 41 42  1  0  0  0  0
 44 43  1  0  0  0  0
 44 46  1  0  0  0  0
 46 45  1  0  0  0  0
 47 14  1  0  0  0  0
 48 47  1  0  0  0  0
 50 49  1  0  0  0  0
 50 48  1  0  0  0  0
 51 54  1  0  0  0  0
 52 50  2  0  0  0  0
 53 51  2  0  0  0  0
 53 52  1  0  0  0  0
 54 49  2  0  0  0  0
 55 57  1  0  0  0  0
 56 55  2  0  0  0  0
 57 52  1  0  0  0  0
 59 55  1  0  0  0  0
 59 58  1  0  0  0  0
 60 63  1  0  0  0  0
 60 59  1  0  0  0  0
 62 63  1  0  0  0  0
 63 61  1  0  0  0  0
 64 63  1  0  0  0  0
M  END
>  <MODEL>
9

>  <REMARK>
 VINA RESULT:      -4.9      2.958     10.226
  Name = 
  26 active torsions:
  status: ('A' for Active; 'I' for Inactive)
    1  A    between atoms: O_2  and  C_5
    2  A    between atoms: O_2  and  C_12
    3  A    between atoms: C_5  and  C_23
    4  A    between atoms: C_9  and  C_31
    5  A    between atoms: C_12  and  C_36
    6  A    between atoms: C_12  and  C_51
    7  A    between atoms: N_16  and  C_18
    8  A    between atoms: N_16  and  C_44
    9  A    between atoms: O_17  and  C_45
   10  A    between atoms: O_17  and  C_57
   11  A    between atoms: C_18  and  C_34
   12  A    between atoms: O_20  and  C_48
   13  A    between atoms: O_20  and  C_54
   14  A    between atoms: N_21  and  C_50
   15  A    between atoms: N_22  and  C_41
   16  A    between atoms: C_24  and  C_48
   17  A    between atoms: C_26  and  C_61
   18  A    between atoms: C_27  and  C_36
   19  A    between atoms: C_31  and  C_38
   20  A    between atoms: C_38  and  N_53
   21  A    between atoms: C_41  and  C_61
   22  A    between atoms: C_45  and  C_49
   23  A    between atoms: C_46  and  O_55
   24  A    between atoms: C_52  and  N_53
   25  A    between atoms: C_52  and  C_54
   26  A    between atoms: O_55  and  N_58
                            x       y       z     vdW  Elec       q    Type
                         _______ _______ _______ _____ _____    ______ ____

>  <TORSDO>
F 26

$$$$
