=
 OpenBabel11032420453D

 47 50  0  0  1  0  0  0  0  0999 V2000
  183.4210  179.1700  138.7600 C   0  0  0  0  0  0  0  0  0  0  0  0
  182.1550  179.4730  138.1690 N   0  0  0  0  0  2  0  0  0  0  0  0
  185.1080  179.2830  140.3570 C   0  0  1  0  0  3  0  0  0  0  0  0
  184.5430  178.0170  137.9870 S   0  0  0  0  0  0  0  0  0  0  0  0
  187.0230  178.4010  139.1510 N   0  0  0  0  0  0  0  0  0  0  0  0
  185.7340  178.5850  139.1990 C   0  0  0  0  0  0  0  0  0  0  0  0
  183.8030  179.7140  139.8720 N   0  0  0  0  0  0  0  0  0  0  0  0
  189.1730  175.9020  137.3490 C   0  0  0  0  0  0  0  0  0  0  0  0
  189.3760  176.5710  136.1810 N   0  0  0  0  0  0  0  0  0  0  0  0
  189.7610  174.6200  137.5630 N   0  0  0  0  0  2  0  0  0  0  0  0
  188.0250  178.3860  136.9310 C   0  0  0  0  0  3  0  0  0  0  0  0
  187.8120  177.7340  138.1490 C   0  0  0  0  0  0  0  0  0  0  0  0
  188.3860  176.4740  138.3520 C   0  0  0  0  0  3  0  0  0  0  0  0
  188.8180  177.7870  135.9500 C   0  0  0  0  0  3  0  0  0  0  0  0
  193.7990  175.3610  137.8320 C   0  0  0  0  0  3  0  0  0  0  0  0
  190.6400  174.0620  136.6230 N   0  0  0  0  0  0  0  0  0  0  0  0
  191.9270  174.1910  136.7230 C   0  0  0  0  0  0  0  0  0  0  0  0
  192.9700  173.4910  135.4410 S   0  0  0  0  0  0  0  0  0  0  0  0
  192.5330  174.9330  137.8480 C   0  0  0  0  0  3  0  0  0  0  0  0
  194.7460  175.1160  136.6880 C   0  0  0  0  0  2  0  0  0  0  0  0
  194.0080  174.9790  135.3620 C   0  0  0  0  0  2  0  0  0  0  0  0
  183.9330  177.5460  141.5020 O   0  0  0  0  0  0  0  0  0  0  0  0
  184.9480  178.2910  141.4740 C   0  0  0  0  0  0  0  0  0  0  0  0
  185.8780  178.2650  142.5600 N   0  0  0  0  0  2  0  0  0  0  0  0
  185.0470  179.3580  144.5450 C   0  0  0  0  0  1  0  0  0  0  0  0
  185.4320  178.0330  143.9220 C   0  0  2  0  0  3  0  0  0  0  0  0
  186.5580  177.4110  144.7280 C   0  0  0  0  0  2  0  0  0  0  0  0
  187.6150  176.8600  143.7740 C   0  0  0  0  0  2  0  0  0  0  0  0
  191.5940  176.6650  146.0420 C   0  0  0  0  0  2  0  0  0  0  0  0
  189.9910  177.0210  142.9260 C   0  0  1  0  0  3  0  0  0  0  0  0
  190.9850  177.4630  145.1720 C   0  0  0  0  0  0  0  0  0  0  0  0
  191.6210  177.5740  143.5070 S   0  0  0  0  0  0  0  0  0  0  0  0
  188.9470  177.6130  143.8680 C   0  0  2  0  0  3  0  0  0  0  0  0
  189.7640  177.5030  141.5740 N   0  0  0  0  0  1  0  0  0  0  0  0
  189.5100  177.6270  145.2870 C   0  0  0  0  0  2  0  0  0  0  0  0
  181.3200  180.5880  138.5960 C   0  0  0  0  0  2  0  0  0  0  0  0
  179.8480  180.2980  138.3100 C   0  0  1  0  0  3  0  0  0  0  0  0
  178.9820  180.4570  139.5630 C   0  0  0  0  0  2  0  0  0  0  0  0
  179.7930  180.4640  140.8600 C   0  0  0  0  0  2  0  0  0  0  0  0
  179.2350  179.4320  141.8300 C   0  0  0  0  0  2  0  0  0  0  0  0
  180.7550  177.8900  140.8330 O   0  0  0  0  0  1  0  0  0  0  0  0
  180.2360  178.3160  142.0570 C   0  0  0  0  0  2  0  0  0  0  0  0
  179.3720  181.1400  137.2630 O   0  0  0  0  0  0  0  0  0  0  0  0
  180.0750  182.2640  136.8170 C   0  0  0  0  0  0  0  0  0  0  0  0
  180.6770  182.2630  135.6730 N   0  0  0  0  0  2  0  0  0  0  0  0
  181.0910  184.3590  137.1970 O   0  0  0  0  0  1  0  0  0  0  0  0
  180.0890  183.5000  137.6490 C   0  0  0  0  0  2  0  0  0  0  0  0
  1  7  2  0  0  0  0
  2 36  1  0  0  0  0
  2  1  1  0  0  0  0
  3 23  1  1  0  0  0
  4  1  1  0  0  0  0
  4  6  1  0  0  0  0
  5  6  2  0  0  0  0
  6  3  1  0  0  0  0
  7  3  1  0  0  0  0
  8 10  1  0  0  0  0
  8 13  1  0  0  0  0
  9  8  2  0  0  0  0
 11 12  1  0  0  0  0
 12 13  2  0  0  0  0
 12  5  1  0  0  0  0
 14  9  1  0  0  0  0
 14 11  2  0  0  0  0
 15 19  2  0  0  0  0
 16 17  2  0  0  0  0
 16 10  1  0  0  0  0
 17 19  1  0  0  0  0
 18 17  1  0  0  0  0
 20 15  1  0  0  0  0
 21 18  1  0  0  0  0
 21 20  1  0  0  0  0
 23 22  2  0  0  0  0
 23 24  1  0  0  0  0
 24 26  1  0  0  0  0
 26 25  1  1  0  0  0
 26 27  1  0  0  0  0
 28 27  1  0  0  0  0
 30 34  1  6  0  0  0
 30 32  1  0  0  0  0
 30 33  1  0  0  0  0
 31 35  1  0  0  0  0
 31 29  2  0  0  0  0
 32 31  1  0  0  0  0
 33 28  1  1  0  0  0
 33 35  1  0  0  0  0
 37 36  1  1  0  0  0
 37 38  1  0  0  0  0
 38 39  1  0  0  0  0
 39 40  1  0  0  0  0
 40 42  1  0  0  0  0
 41 42  1  0  0  0  0
 43 37  1  0  0  0  0
 44 43  1  0  0  0  0
 44 47  1  0  0  0  0
 45 44  2  0  0  0  0
 46 47  1  0  0  0  0
M  END
>  <MODEL>
1

>  <REMARK>
 VINA RESULT:      -7.1      0.000      0.000
  Name = 
  16 active torsions:
  status: ('A' for Active; 'I' for Inactive)
    1  A    between atoms: C_1  and  O_15
    2  A    between atoms: C_1  and  C_32
    3  A    between atoms: C_3  and  C_10
    4  A    between atoms: C_3  and  C_41
    5  A    between atoms: N_5  and  N_26
    6  A    between atoms: C_6  and  C_14
    7  A    between atoms: C_6  and  C_22
    8  A    between atoms: C_10  and  O_15
    9  A    between atoms: C_10  and  C_33
   10  A    between atoms: N_12  and  C_33
   11  A    between atoms: C_14  and  C_38
   12  A    between atoms: C_16  and  C_23
   13  A    between atoms: C_18  and  C_41
   14  A    between atoms: C_18  and  C_47
   15  A    between atoms: C_22  and  N_25
   16  A    between atoms: N_34  and  C_37
                            x       y       z     vdW  Elec       q    Type
                         _______ _______ _______ _____ _____    ______ ____

>  <TORSDO>
F 16

$$$$
=
 OpenBabel11032420453D

 47 50  0  0  1  0  0  0  0  0999 V2000
  182.3720  178.6040  138.5360 C   0  0  0  0  0  0  0  0  0  0  0  0
  181.0450  178.6090  138.0020 N   0  0  0  0  0  2  0  0  0  0  0  0
  184.0770  179.1810  140.0080 C   0  0  1  0  0  3  0  0  0  0  0  0
  183.6560  177.6100  137.7960 S   0  0  0  0  0  0  0  0  0  0  0  0
  186.0680  178.5570  138.7640 N   0  0  0  0  0  0  0  0  0  0  0  0
  184.7710  178.5030  138.8780 C   0  0  0  0  0  0  0  0  0  0  0  0
  182.6930  179.3140  139.5710 N   0  0  0  0  0  0  0  0  0  0  0  0
  188.5020  176.2820  137.0280 C   0  0  0  0  0  0  0  0  0  0  0  0
  188.5980  176.9190  135.8270 N   0  0  0  0  0  0  0  0  0  0  0  0
  189.2570  175.0990  137.2830 N   0  0  0  0  0  2  0  0  0  0  0  0
  187.0300  178.5730  136.5270 C   0  0  0  0  0  3  0  0  0  0  0  0
  186.9230  177.9540  137.7760 C   0  0  0  0  0  0  0  0  0  0  0  0
  187.6610  176.7910  138.0210 C   0  0  0  0  0  3  0  0  0  0  0  0
  187.8810  178.0390  135.5570 C   0  0  0  0  0  3  0  0  0  0  0  0
  193.1530  176.4120  137.4060 C   0  0  0  0  0  3  0  0  0  0  0  0
  190.1880  174.6190  136.3500 N   0  0  0  0  0  0  0  0  0  0  0  0
  191.4450  174.9330  136.4100 C   0  0  0  0  0  0  0  0  0  0  0  0
  192.5520  174.3170  135.1370 S   0  0  0  0  0  0  0  0  0  0  0  0
  191.9620  175.8130  137.4780 C   0  0  0  0  0  3  0  0  0  0  0  0
  194.1040  176.2400  136.2520 C   0  0  0  0  0  2  0  0  0  0  0  0
  193.3670  175.9290  134.9550 C   0  0  0  0  0  2  0  0  0  0  0  0
  183.2390  177.4570  141.4360 O   0  0  0  0  0  0  0  0  0  0  0  0
  184.1590  178.2880  141.2150 C   0  0  0  0  0  0  0  0  0  0  0  0
  185.2130  178.4520  142.1670 N   0  0  0  0  0  2  0  0  0  0  0  0
  184.2440  179.5440  144.0890 C   0  0  0  0  0  1  0  0  0  0  0  0
  184.9640  178.3090  143.5900 C   0  0  2  0  0  3  0  0  0  0  0  0
  186.2830  178.1700  144.3270 C   0  0  0  0  0  2  0  0  0  0  0  0
  187.2020  177.2360  143.5430 C   0  0  0  0  0  2  0  0  0  0  0  0
  191.2220  176.7540  145.6940 C   0  0  0  0  0  2  0  0  0  0  0  0
  189.5180  176.8370  142.6120 C   0  0  1  0  0  3  0  0  0  0  0  0
  190.7020  177.4820  144.7120 C   0  0  0  0  0  0  0  0  0  0  0  0
  191.2480  177.1930  143.0370 S   0  0  0  0  0  0  0  0  0  0  0  0
  188.6430  177.7530  143.4610 C   0  0  2  0  0  3  0  0  0  0  0  0
  189.2940  177.1100  141.2020 N   0  0  0  0  0  1  0  0  0  0  0  0
  189.2830  177.9150  144.8380 C   0  0  0  0  0  2  0  0  0  0  0  0
  180.0340  179.5860  138.3830 C   0  0  0  0  0  2  0  0  0  0  0  0
  180.5750  180.5310  139.4530 C   0  0  1  0  0  3  0  0  0  0  0  0
  180.5990  181.9840  138.9710 C   0  0  0  0  0  2  0  0  0  0  0  0
  181.4750  182.1960  137.7350 C   0  0  0  0  0  2  0  0  0  0  0  0
  180.7350  183.0450  136.7100 C   0  0  0  0  0  2  0  0  0  0  0  0
  182.3610  184.5770  137.5400 O   0  0  0  0  0  1  0  0  0  0  0  0
  181.1950  184.4880  136.7790 C   0  0  0  0  0  2  0  0  0  0  0  0
  179.8100  180.4130  140.6500 O   0  0  0  0  0  0  0  0  0  0  0  0
  180.1090  179.4820  141.6500 C   0  0  0  0  0  0  0  0  0  0  0  0
  180.9020  179.7840  142.6260 N   0  0  0  0  0  2  0  0  0  0  0  0
  179.6360  177.5110  142.8550 O   0  0  0  0  0  1  0  0  0  0  0  0
  179.4650  178.1400  141.6220 C   0  0  0  0  0  2  0  0  0  0  0  0
  1  7  2  0  0  0  0
  2 36  1  0  0  0  0
  2  1  1  0  0  0  0
  3 23  1  1  0  0  0
  4  1  1  0  0  0  0
  4  6  1  0  0  0  0
  5  6  2  0  0  0  0
  6  3  1  0  0  0  0
  7  3  1  0  0  0  0
  8 10  1  0  0  0  0
  8 13  1  0  0  0  0
  9  8  2  0  0  0  0
 11 12  1  0  0  0  0
 12 13  2  0  0  0  0
 12  5  1  0  0  0  0
 14  9  1  0  0  0  0
 14 11  2  0  0  0  0
 15 19  2  0  0  0  0
 16 17  2  0  0  0  0
 16 10  1  0  0  0  0
 17 19  1  0  0  0  0
 18 17  1  0  0  0  0
 20 15  1  0  0  0  0
 21 18  1  0  0  0  0
 21 20  1  0  0  0  0
 23 22  2  0  0  0  0
 23 24  1  0  0  0  0
 24 26  1  0  0  0  0
 26 25  1  1  0  0  0
 26 27  1  0  0  0  0
 28 27  1  0  0  0  0
 30 34  1  6  0  0  0
 30 32  1  0  0  0  0
 30 33  1  0  0  0  0
 31 35  1  0  0  0  0
 31 29  2  0  0  0  0
 32 31  1  0  0  0  0
 33 28  1  1  0  0  0
 33 35  1  0  0  0  0
 37 36  1  6  0  0  0
 37 43  1  0  0  0  0
 38 37  1  0  0  0  0
 39 38  1  0  0  0  0
 40 42  1  0  0  0  0
 40 39  1  0  0  0  0
 42 41  1  0  0  0  0
 43 44  1  0  0  0  0
 44 45  2  0  0  0  0
 47 44  1  0  0  0  0
 47 46  1  0  0  0  0
M  END
>  <MODEL>
2

>  <REMARK>
 VINA RESULT:      -7.0      1.301      3.083
  Name = 
  16 active torsions:
  status: ('A' for Active; 'I' for Inactive)
    1  A    between atoms: C_1  and  O_15
    2  A    between atoms: C_1  and  C_32
    3  A    between atoms: C_3  and  C_10
    4  A    between atoms: C_3  and  C_41
    5  A    between atoms: N_5  and  N_26
    6  A    between atoms: C_6  and  C_14
    7  A    between atoms: C_6  and  C_22
    8  A    between atoms: C_10  and  O_15
    9  A    between atoms: C_10  and  C_33
   10  A    between atoms: N_12  and  C_33
   11  A    between atoms: C_14  and  C_38
   12  A    between atoms: C_16  and  C_23
   13  A    between atoms: C_18  and  C_41
   14  A    between atoms: C_18  and  C_47
   15  A    between atoms: C_22  and  N_25
   16  A    between atoms: N_34  and  C_37
                            x       y       z     vdW  Elec       q    Type
                         _______ _______ _______ _____ _____    ______ ____

>  <TORSDO>
F 16

$$$$
=
 OpenBabel11032420453D

 47 50  0  0  1  0  0  0  0  0999 V2000
  183.1430  178.9540  138.6700 C   0  0  0  0  0  0  0  0  0  0  0  0
  181.8470  179.1100  138.0860 N   0  0  0  0  0  2  0  0  0  0  0  0
  184.8300  179.2960  140.2340 C   0  0  1  0  0  3  0  0  0  0  0  0
  184.3590  177.8750  137.9330 S   0  0  0  0  0  0  0  0  0  0  0  0
  186.8050  178.5400  139.0390 N   0  0  0  0  0  0  0  0  0  0  0  0
  185.5050  178.6060  139.0990 C   0  0  0  0  0  0  0  0  0  0  0  0
  183.4850  179.5820  139.7500 N   0  0  0  0  0  0  0  0  0  0  0  0
  189.0170  176.0820  137.2560 C   0  0  0  0  0  0  0  0  0  0  0  0
  189.3010  176.7990  136.1330 N   0  0  0  0  0  0  0  0  0  0  0  0
  189.5690  174.7800  137.4450 N   0  0  0  0  0  2  0  0  0  0  0  0
  187.9380  178.6040  136.8840 C   0  0  0  0  0  3  0  0  0  0  0  0
  187.6410  177.9030  138.0570 C   0  0  0  0  0  0  0  0  0  0  0  0
  188.1810  176.6240  138.2350 C   0  0  0  0  0  3  0  0  0  0  0  0
  188.7790  178.0340  135.9260 C   0  0  0  0  0  3  0  0  0  0  0  0
  193.5920  175.4600  137.9650 C   0  0  0  0  0  3  0  0  0  0  0  0
  190.4930  174.2470  136.5340 N   0  0  0  0  0  0  0  0  0  0  0  0
  191.7730  174.3570  136.7100 C   0  0  0  0  0  0  0  0  0  0  0  0
  192.8790  173.6930  135.4610 S   0  0  0  0  0  0  0  0  0  0  0  0
  192.3240  175.0480  137.8950 C   0  0  0  0  0  3  0  0  0  0  0  0
  194.6000  175.2470  136.8670 C   0  0  0  0  0  2  0  0  0  0  0  0
  193.9350  175.1700  135.4980 C   0  0  0  0  0  2  0  0  0  0  0  0
  183.8710  177.4710  141.4420 O   0  0  0  0  0  0  0  0  0  0  0  0
  184.7750  178.3470  141.3970 C   0  0  0  0  0  0  0  0  0  0  0  0
  185.6690  178.5010  142.5020 N   0  0  0  0  0  2  0  0  0  0  0  0
  184.3020  179.4080  144.2730 C   0  0  0  0  0  1  0  0  0  0  0  0
  185.2210  178.2760  143.8650 C   0  0  2  0  0  3  0  0  0  0  0  0
  186.4190  178.2460  144.7970 C   0  0  0  0  0  2  0  0  0  0  0  0
  187.3970  177.1730  144.3240 C   0  0  0  0  0  2  0  0  0  0  0  0
  191.6860  176.3720  145.7310 C   0  0  0  0  0  2  0  0  0  0  0  0
  189.5420  176.9730  143.0020 C   0  0  1  0  0  3  0  0  0  0  0  0
  191.0350  177.2540  144.9820 C   0  0  0  0  0  0  0  0  0  0  0  0
  191.3200  177.2700  143.2190 S   0  0  0  0  0  0  0  0  0  0  0  0
  188.8160  177.7140  144.1200 C   0  0  2  0  0  3  0  0  0  0  0  0
  189.1130  177.4850  141.7120 N   0  0  0  0  0  1  0  0  0  0  0  0
  189.6570  177.6410  145.3920 C   0  0  0  0  0  2  0  0  0  0  0  0
  180.9170  180.1620  138.4750 C   0  0  0  0  0  2  0  0  0  0  0  0
  179.4880  179.6250  138.5240 C   0  0  1  0  0  3  0  0  0  0  0  0
  179.3490  178.3060  137.7590 C   0  0  0  0  0  2  0  0  0  0  0  0
  178.9310  177.1340  138.6480 C   0  0  0  0  0  2  0  0  0  0  0  0
  180.0360  176.0870  138.6860 C   0  0  0  0  0  2  0  0  0  0  0  0
  179.7560  173.8730  139.5210 O   0  0  0  0  0  1  0  0  0  0  0  0
  179.8960  175.2050  139.9110 C   0  0  0  0  0  2  0  0  0  0  0  0
  179.0660  179.4660  139.8760 O   0  0  0  0  0  0  0  0  0  0  0  0
  179.6890  180.1200  140.9450 C   0  0  0  0  0  0  0  0  0  0  0  0
  179.6450  181.4080  141.0540 N   0  0  0  0  0  2  0  0  0  0  0  0
  180.9310  178.1760  141.4360 O   0  0  0  0  0  1  0  0  0  0  0  0
  180.3680  179.3210  142.0020 C   0  0  0  0  0  2  0  0  0  0  0  0
  1  7  2  0  0  0  0
  2 36  1  0  0  0  0
  2  1  1  0  0  0  0
  3 23  1  1  0  0  0
  4  1  1  0  0  0  0
  4  6  1  0  0  0  0
  5  6  2  0  0  0  0
  6  3  1  0  0  0  0
  7  3  1  0  0  0  0
  8 10  1  0  0  0  0
  8 13  1  0  0  0  0
  9  8  2  0  0  0  0
 11 12  1  0  0  0  0
 12 13  2  0  0  0  0
 12  5  1  0  0  0  0
 14  9  1  0  0  0  0
 14 11  2  0  0  0  0
 16 17  2  0  0  0  0
 16 10  1  0  0  0  0
 17 19  1  0  0  0  0
 18 21  1  0  0  0  0
 18 17  1  0  0  0  0
 19 15  2  0  0  0  0
 20 15  1  0  0  0  0
 21 20  1  0  0  0  0
 23 22  2  0  0  0  0
 23 24  1  0  0  0  0
 24 26  1  0  0  0  0
 26 25  1  1  0  0  0
 26 27  1  0  0  0  0
 28 27  1  0  0  0  0
 30 34  1  6  0  0  0
 30 32  1  0  0  0  0
 30 33  1  0  0  0  0
 31 35  1  0  0  0  0
 31 29  2  0  0  0  0
 32 31  1  0  0  0  0
 33 28  1  1  0  0  0
 33 35  1  0  0  0  0
 36 37  1  0  0  0  0
 37 38  1  6  0  0  0
 37 43  1  0  0  0  0
 38 39  1  0  0  0  0
 39 40  1  0  0  0  0
 40 42  1  0  0  0  0
 41 42  1  0  0  0  0
 43 44  1  0  0  0  0
 44 45  2  0  0  0  0
 44 47  1  0  0  0  0
 46 47  1  0  0  0  0
M  END
>  <MODEL>
3

>  <REMARK>
 VINA RESULT:      -7.0      1.440      2.263
  Name = 
  16 active torsions:
  status: ('A' for Active; 'I' for Inactive)
    1  A    between atoms: C_1  and  O_15
    2  A    between atoms: C_1  and  C_32
    3  A    between atoms: C_3  and  C_10
    4  A    between atoms: C_3  and  C_41
    5  A    between atoms: N_5  and  N_26
    6  A    between atoms: C_6  and  C_14
    7  A    between atoms: C_6  and  C_22
    8  A    between atoms: C_10  and  O_15
    9  A    between atoms: C_10  and  C_33
   10  A    between atoms: N_12  and  C_33
   11  A    between atoms: C_14  and  C_38
   12  A    between atoms: C_16  and  C_23
   13  A    between atoms: C_18  and  C_41
   14  A    between atoms: C_18  and  C_47
   15  A    between atoms: C_22  and  N_25
   16  A    between atoms: N_34  and  C_37
                            x       y       z     vdW  Elec       q    Type
                         _______ _______ _______ _____ _____    ______ ____

>  <TORSDO>
F 16

$$$$
=
 OpenBabel11032420453D

 47 50  0  0  1  0  0  0  0  0999 V2000
  186.8330  176.7080  137.4700 C   0  0  0  0  0  0  0  0  0  0  0  0
  185.5290  176.3170  137.0310 N   0  0  0  0  0  2  0  0  0  0  0  0
  188.4320  178.1100  138.4120 C   0  0  1  0  0  3  0  0  0  0  0  0
  188.2230  175.6000  137.3190 S   0  0  0  0  0  0  0  0  0  0  0  0
  190.5090  177.1260  137.6270 N   0  0  0  0  0  0  0  0  0  0  0  0
  189.2190  177.0180  137.7740 C   0  0  0  0  0  0  0  0  0  0  0  0
  187.0560  177.8730  137.9910 N   0  0  0  0  0  0  0  0  0  0  0  0
  193.2260  174.5590  137.2510 C   0  0  0  0  0  0  0  0  0  0  0  0
  193.2630  174.4590  135.8930 N   0  0  0  0  0  0  0  0  0  0  0  0
  194.1140  173.7890  138.0590 N   0  0  0  0  0  2  0  0  0  0  0  0
  191.4960  176.0450  135.6810 C   0  0  0  0  0  3  0  0  0  0  0  0
  191.4460  176.1860  137.0710 C   0  0  0  0  0  0  0  0  0  0  0  0
  192.3150  175.4250  137.8600 C   0  0  0  0  0  3  0  0  0  0  0  0
  192.4210  175.1720  135.1030 C   0  0  0  0  0  3  0  0  0  0  0  0
  198.0820  174.7170  138.6260 C   0  0  0  0  0  3  0  0  0  0  0  0
  195.1110  172.9900  137.4800 N   0  0  0  0  0  0  0  0  0  0  0  0
  196.3720  173.1890  137.7090 C   0  0  0  0  0  0  0  0  0  0  0  0
  197.5770  172.1510  136.8770 S   0  0  0  0  0  0  0  0  0  0  0  0
  196.8220  174.2740  138.6050 C   0  0  0  0  0  3  0  0  0  0  0  0
  199.1780  174.1510  137.7640 C   0  0  0  0  0  2  0  0  0  0  0  0
  198.6320  173.5700  136.4650 C   0  0  0  0  0  2  0  0  0  0  0  0
  187.8160  178.6620  140.6540 O   0  0  0  0  0  0  0  0  0  0  0  0
  188.5530  177.9690  139.9030 C   0  0  0  0  0  0  0  0  0  0  0  0
  189.5700  177.1420  140.4730 N   0  0  0  0  0  2  0  0  0  0  0  0
  191.7590  177.3140  141.4770 C   0  0  0  0  0  1  0  0  0  0  0  0
  190.2760  177.5450  141.6760 C   0  0  2  0  0  3  0  0  0  0  0  0
  189.7950  176.7130  142.8510 C   0  0  0  0  0  2  0  0  0  0  0  0
  189.6640  177.6070  144.0820 C   0  0  0  0  0  2  0  0  0  0  0  0
  188.1930  178.3330  148.3620 C   0  0  0  0  0  2  0  0  0  0  0  0
  187.3400  178.0830  144.9540 C   0  0  1  0  0  3  0  0  0  0  0  0
  187.8950  177.5540  147.3290 C   0  0  0  0  0  0  0  0  0  0  0  0
  186.3590  177.8180  146.4590 S   0  0  0  0  0  0  0  0  0  0  0  0
  188.5470  177.1540  145.0280 C   0  0  2  0  0  3  0  0  0  0  0  0
  186.5400  177.7600  143.7840 N   0  0  0  0  0  1  0  0  0  0  0  0
  189.0140  177.0610  146.4790 C   0  0  0  0  0  2  0  0  0  0  0  0
  184.4230  177.2530  136.8770 C   0  0  0  0  0  2  0  0  0  0  0  0
  183.4440  177.1250  138.0410 C   0  0  1  0  0  3  0  0  0  0  0  0
  182.9300  175.6910  138.1980 C   0  0  0  0  0  2  0  0  0  0  0  0
  181.4890  175.5100  137.7180 C   0  0  0  0  0  2  0  0  0  0  0  0
  180.5180  175.9030  138.8230 C   0  0  0  0  0  2  0  0  0  0  0  0
  180.0160  174.4720  140.6610 O   0  0  0  0  0  1  0  0  0  0  0  0
  179.7440  174.6940  139.3100 C   0  0  0  0  0  2  0  0  0  0  0  0
  184.0510  177.5730  139.2500 O   0  0  0  0  0  0  0  0  0  0  0  0
  183.6270  178.7210  139.9290 C   0  0  0  0  0  0  0  0  0  0  0  0
  184.4420  179.3930  140.6740 N   0  0  0  0  0  2  0  0  0  0  0  0
  181.5380  179.1010  140.9560 O   0  0  0  0  0  1  0  0  0  0  0  0
  182.2300  179.2070  139.7500 C   0  0  0  0  0  2  0  0  0  0  0  0
  1  7  2  0  0  0  0
  2  1  1  0  0  0  0
  3 23  1  1  0  0  0
  4  1  1  0  0  0  0
  4  6  1  0  0  0  0
  5  6  2  0  0  0  0
  6  3  1  0  0  0  0
  7  3  1  0  0  0  0
  8 13  1  0  0  0  0
  8 10  1  0  0  0  0
  9  8  2  0  0  0  0
 11 12  1  0  0  0  0
 12  5  1  0  0  0  0
 12 13  2  0  0  0  0
 14 11  2  0  0  0  0
 14  9  1  0  0  0  0
 16 17  2  0  0  0  0
 16 10  1  0  0  0  0
 17 19  1  0  0  0  0
 18 17  1  0  0  0  0
 19 15  2  0  0  0  0
 20 15  1  0  0  0  0
 21 18  1  0  0  0  0
 21 20  1  0  0  0  0
 23 24  1  0  0  0  0
 23 22  2  0  0  0  0
 24 26  1  0  0  0  0
 26 25  1  6  0  0  0
 26 27  1  0  0  0  0
 27 28  1  0  0  0  0
 30 34  1  6  0  0  0
 30 33  1  0  0  0  0
 30 32  1  0  0  0  0
 31 29  2  0  0  0  0
 32 31  1  0  0  0  0
 33 28  1  6  0  0  0
 33 35  1  0  0  0  0
 35 31  1  0  0  0  0
 36  2  1  0  0  0  0
 37 36  1  6  0  0  0
 37 38  1  0  0  0  0
 37 43  1  0  0  0  0
 39 38  1  0  0  0  0
 39 40  1  0  0  0  0
 40 42  1  0  0  0  0
 42 41  1  0  0  0  0
 43 44  1  0  0  0  0
 44 45  2  0  0  0  0
 47 44  1  0  0  0  0
 47 46  1  0  0  0  0
M  END
>  <MODEL>
4

>  <REMARK>
 VINA RESULT:      -7.0      2.931      4.713
  Name = 
  16 active torsions:
  status: ('A' for Active; 'I' for Inactive)
    1  A    between atoms: C_1  and  O_15
    2  A    between atoms: C_1  and  C_32
    3  A    between atoms: C_3  and  C_10
    4  A    between atoms: C_3  and  C_41
    5  A    between atoms: N_5  and  N_26
    6  A    between atoms: C_6  and  C_14
    7  A    between atoms: C_6  and  C_22
    8  A    between atoms: C_10  and  O_15
    9  A    between atoms: C_10  and  C_33
   10  A    between atoms: N_12  and  C_33
   11  A    between atoms: C_14  and  C_38
   12  A    between atoms: C_16  and  C_23
   13  A    between atoms: C_18  and  C_41
   14  A    between atoms: C_18  and  C_47
   15  A    between atoms: C_22  and  N_25
   16  A    between atoms: N_34  and  C_37
                            x       y       z     vdW  Elec       q    Type
                         _______ _______ _______ _____ _____    ______ ____

>  <TORSDO>
F 16

$$$$
=
 OpenBabel11032420453D

 47 50  0  0  1  0  0  0  0  0999 V2000
  182.3800  178.5140  138.5710 C   0  0  0  0  0  0  0  0  0  0  0  0
  181.0240  178.4980  138.1150 N   0  0  0  0  0  2  0  0  0  0  0  0
  184.1600  179.1210  139.9390 C   0  0  1  0  0  3  0  0  0  0  0  0
  183.6330  177.5330  137.7620 S   0  0  0  0  0  0  0  0  0  0  0  0
  186.0830  178.5170  138.5840 N   0  0  0  0  0  0  0  0  0  0  0  0
  184.7960  178.4470  138.7730 C   0  0  0  0  0  0  0  0  0  0  0  0
  182.7510  179.2340  139.5820 N   0  0  0  0  0  0  0  0  0  0  0  0
  188.7050  176.5280  136.7720 C   0  0  0  0  0  0  0  0  0  0  0  0
  188.4220  176.8870  135.4890 N   0  0  0  0  0  0  0  0  0  0  0  0
  189.7810  175.6350  137.0550 N   0  0  0  0  0  2  0  0  0  0  0  0
  186.6110  178.2540  136.2210 C   0  0  0  0  0  3  0  0  0  0  0  0
  186.8880  177.9210  137.5510 C   0  0  0  0  0  0  0  0  0  0  0  0
  187.9400  177.0400  137.8230 C   0  0  0  0  0  3  0  0  0  0  0  0
  187.3970  177.7260  135.1940 C   0  0  0  0  0  3  0  0  0  0  0  0
  193.8120  175.2420  137.7750 C   0  0  0  0  0  3  0  0  0  0  0  0
  190.6340  175.1840  136.0370 N   0  0  0  0  0  0  0  0  0  0  0  0
  191.8930  174.9560  136.2460 C   0  0  0  0  0  0  0  0  0  0  0  0
  192.9190  174.4360  134.8670 S   0  0  0  0  0  0  0  0  0  0  0  0
  192.4930  175.1550  137.5810 C   0  0  0  0  0  3  0  0  0  0  0  0
  194.8260  175.1240  136.6680 C   0  0  0  0  0  2  0  0  0  0  0  0
  194.2550  175.5760  135.3290 C   0  0  0  0  0  2  0  0  0  0  0  0
  183.5480  177.2580  141.3040 O   0  0  0  0  0  0  0  0  0  0  0  0
  184.3240  178.2370  141.1430 C   0  0  0  0  0  0  0  0  0  0  0  0
  185.2780  178.5620  142.1570 N   0  0  0  0  0  2  0  0  0  0  0  0
  184.3280  179.6090  144.1130 C   0  0  0  0  0  1  0  0  0  0  0  0
  184.9760  178.3570  143.5620 C   0  0  2  0  0  3  0  0  0  0  0  0
  186.2590  178.0820  144.3250 C   0  0  0  0  0  2  0  0  0  0  0  0
  187.2160  177.2950  143.4330 C   0  0  0  0  0  2  0  0  0  0  0  0
  191.1600  176.7850  145.7130 C   0  0  0  0  0  2  0  0  0  0  0  0
  189.5800  177.0330  142.5750 C   0  0  1  0  0  3  0  0  0  0  0  0
  190.6560  177.5650  144.7640 C   0  0  0  0  0  0  0  0  0  0  0  0
  191.2780  177.4110  143.0970 S   0  0  0  0  0  0  0  0  0  0  0  0
  188.6410  177.8600  143.4480 C   0  0  2  0  0  3  0  0  0  0  0  0
  189.4030  177.3970  141.1800 N   0  0  0  0  0  1  0  0  0  0  0  0
  189.2200  177.9440  144.8580 C   0  0  0  0  0  2  0  0  0  0  0  0
  180.0230  179.4630  138.5500 C   0  0  0  0  0  2  0  0  0  0  0  0
  179.7490  180.4860  137.4490 C   0  0  1  0  0  3  0  0  0  0  0  0
  179.1910  181.7950  138.0140 C   0  0  0  0  0  2  0  0  0  0  0  0
  180.2580  182.8750  138.1990 C   0  0  0  0  0  2  0  0  0  0  0  0
  179.8730  184.1270  137.4230 C   0  0  0  0  0  2  0  0  0  0  0  0
  182.2480  184.3220  137.4740 O   0  0  0  0  0  1  0  0  0  0  0  0
  181.1020  184.7870  136.8280 C   0  0  0  0  0  2  0  0  0  0  0  0
  180.9330  180.7310  136.6950 O   0  0  0  0  0  0  0  0  0  0  0  0
  180.9600  180.6900  135.2960 C   0  0  0  0  0  0  0  0  0  0  0  0
  180.7110  181.7480  134.5950 N   0  0  0  0  0  2  0  0  0  0  0  0
  180.2500  178.5470  134.6160 O   0  0  0  0  0  1  0  0  0  0  0  0
  181.3330  179.4260  134.6040 C   0  0  0  0  0  2  0  0  0  0  0  0
  1  7  2  0  0  0  0
  2 36  1  0  0  0  0
  2  1  1  0  0  0  0
  3 23  1  1  0  0  0
  4  1  1  0  0  0  0
  4  6  1  0  0  0  0
  5  6  2  0  0  0  0
  6  3  1  0  0  0  0
  7  3  1  0  0  0  0
  8 10  1  0  0  0  0
  8 13  1  0  0  0  0
  9  8  2  0  0  0  0
 11 12  1  0  0  0  0
 12 13  2  0  0  0  0
 12  5  1  0  0  0  0
 14  9  1  0  0  0  0
 14 11  2  0  0  0  0
 16 17  2  0  0  0  0
 16 10  1  0  0  0  0
 17 19  1  0  0  0  0
 18 21  1  0  0  0  0
 18 17  1  0  0  0  0
 19 15  2  0  0  0  0
 20 15  1  0  0  0  0
 21 20  1  0  0  0  0
 23 22  2  0  0  0  0
 23 24  1  0  0  0  0
 24 26  1  0  0  0  0
 26 25  1  1  0  0  0
 26 27  1  0  0  0  0
 28 27  1  0  0  0  0
 30 34  1  6  0  0  0
 30 32  1  0  0  0  0
 30 33  1  0  0  0  0
 31 35  1  0  0  0  0
 31 29  2  0  0  0  0
 32 31  1  0  0  0  0
 33 28  1  1  0  0  0
 33 35  1  0  0  0  0
 37 38  1  1  0  0  0
 37 36  1  0  0  0  0
 38 39  1  0  0  0  0
 40 39  1  0  0  0  0
 42 40  1  0  0  0  0
 42 41  1  0  0  0  0
 43 37  1  0  0  0  0
 44 43  1  0  0  0  0
 45 44  2  0  0  0  0
 47 46  1  0  0  0  0
 47 44  1  0  0  0  0
M  END
>  <MODEL>
5

>  <REMARK>
 VINA RESULT:      -6.8      1.340      2.514
  Name = 
  16 active torsions:
  status: ('A' for Active; 'I' for Inactive)
    1  A    between atoms: C_1  and  O_15
    2  A    between atoms: C_1  and  C_32
    3  A    between atoms: C_3  and  C_10
    4  A    between atoms: C_3  and  C_41
    5  A    between atoms: N_5  and  N_26
    6  A    between atoms: C_6  and  C_14
    7  A    between atoms: C_6  and  C_22
    8  A    between atoms: C_10  and  O_15
    9  A    between atoms: C_10  and  C_33
   10  A    between atoms: N_12  and  C_33
   11  A    between atoms: C_14  and  C_38
   12  A    between atoms: C_16  and  C_23
   13  A    between atoms: C_18  and  C_41
   14  A    between atoms: C_18  and  C_47
   15  A    between atoms: C_22  and  N_25
   16  A    between atoms: N_34  and  C_37
                            x       y       z     vdW  Elec       q    Type
                         _______ _______ _______ _____ _____    ______ ____

>  <TORSDO>
F 16

$$$$
=
 OpenBabel11032420453D

 47 50  0  0  1  0  0  0  0  0999 V2000
  186.6510  176.8610  137.6890 C   0  0  0  0  0  0  0  0  0  0  0  0
  185.3380  176.4700  137.2770 N   0  0  0  0  0  2  0  0  0  0  0  0
  188.2640  178.2530  138.6210 C   0  0  1  0  0  3  0  0  0  0  0  0
  188.0450  175.7690  137.4730 S   0  0  0  0  0  0  0  0  0  0  0  0
  190.3260  177.3060  137.7550 N   0  0  0  0  0  0  0  0  0  0  0  0
  189.0420  177.1840  137.9350 C   0  0  0  0  0  0  0  0  0  0  0  0
  186.8800  178.0150  138.2330 N   0  0  0  0  0  0  0  0  0  0  0  0
  193.1130  174.8430  137.2280 C   0  0  0  0  0  0  0  0  0  0  0  0
  193.0430  174.7000  135.8750 N   0  0  0  0  0  0  0  0  0  0  0  0
  194.0970  174.1370  137.9810 N   0  0  0  0  0  2  0  0  0  0  0  0
  191.1970  176.2040  135.7650 C   0  0  0  0  0  3  0  0  0  0  0  0
  191.2550  176.3880  137.1500 C   0  0  0  0  0  0  0  0  0  0  0  0
  192.2180  175.6900  137.8860 C   0  0  0  0  0  3  0  0  0  0  0  0
  192.1080  175.3520  135.1380 C   0  0  0  0  0  3  0  0  0  0  0  0
  198.0790  174.7940  138.7780 C   0  0  0  0  0  3  0  0  0  0  0  0
  195.0770  173.3610  137.3440 N   0  0  0  0  0  0  0  0  0  0  0  0
  196.3360  173.4690  137.6350 C   0  0  0  0  0  0  0  0  0  0  0  0
  197.5230  172.4750  136.7260 S   0  0  0  0  0  0  0  0  0  0  0  0
  196.8020  174.4200  138.6660 C   0  0  0  0  0  3  0  0  0  0  0  0
  199.1800  174.2770  137.8910 C   0  0  0  0  0  2  0  0  0  0  0  0
  198.6570  173.8770  136.5170 C   0  0  0  0  0  2  0  0  0  0  0  0
  187.7870  178.8220  140.8920 O   0  0  0  0  0  0  0  0  0  0  0  0
  188.4280  178.0770  140.1040 C   0  0  0  0  0  0  0  0  0  0  0  0
  189.3860  177.1510  140.6230 N   0  0  0  0  0  2  0  0  0  0  0  0
  191.6400  177.3460  141.4630 C   0  0  0  0  0  1  0  0  0  0  0  0
  190.1700  177.4680  141.8030 C   0  0  2  0  0  3  0  0  0  0  0  0
  189.8330  176.4920  142.9160 C   0  0  0  0  0  2  0  0  0  0  0  0
  190.8400  176.6560  144.0520 C   0  0  0  0  0  2  0  0  0  0  0  0
  186.8980  177.3820  146.2760 C   0  0  0  0  0  2  0  0  0  0  0  0
  190.3470  176.7140  146.5300 C   0  0  1  0  0  3  0  0  0  0  0  0
  188.1400  177.8520  146.2780 C   0  0  0  0  0  0  0  0  0  0  0  0
  189.1920  177.5140  147.6810 S   0  0  0  0  0  0  0  0  0  0  0  0
  190.2890  177.4870  145.2160 C   0  0  2  0  0  3  0  0  0  0  0  0
  191.6940  176.7660  147.0730 N   0  0  0  0  0  1  0  0  0  0  0  0
  188.8540  177.9490  144.9750 C   0  0  0  0  0  2  0  0  0  0  0  0
  184.2210  177.4000  137.1770 C   0  0  0  0  0  2  0  0  0  0  0  0
  183.2450  177.1940  138.3330 C   0  0  1  0  0  3  0  0  0  0  0  0
  183.6470  178.0030  139.5690 C   0  0  0  0  0  2  0  0  0  0  0  0
  182.6530  177.8740  140.7240 C   0  0  0  0  0  2  0  0  0  0  0  0
  182.9960  178.8710  141.8220 C   0  0  0  0  0  2  0  0  0  0  0  0
  185.1180  179.4510  142.7380 O   0  0  0  0  0  1  0  0  0  0  0  0
  184.2040  178.4040  142.6110 C   0  0  0  0  0  2  0  0  0  0  0  0
  181.9190  177.5270  137.9260 O   0  0  0  0  0  0  0  0  0  0  0  0
  180.8790  176.5920  137.9010 C   0  0  0  0  0  0  0  0  0  0  0  0
  180.1360  176.3950  138.9410 N   0  0  0  0  0  2  0  0  0  0  0  0
  181.7410  175.7780  135.8620 O   0  0  0  0  0  1  0  0  0  0  0  0
  180.5880  175.8500  136.6440 C   0  0  0  0  0  2  0  0  0  0  0  0
  1  7  2  0  0  0  0
  2  1  1  0  0  0  0
  3 23  1  1  0  0  0
  4  1  1  0  0  0  0
  4  6  1  0  0  0  0
  5  6  2  0  0  0  0
  6  3  1  0  0  0  0
  7  3  1  0  0  0  0
  8 13  1  0  0  0  0
  8 10  1  0  0  0  0
  9  8  2  0  0  0  0
 11 12  1  0  0  0  0
 12  5  1  0  0  0  0
 12 13  2  0  0  0  0
 14 11  2  0  0  0  0
 14  9  1  0  0  0  0
 16 17  2  0  0  0  0
 16 10  1  0  0  0  0
 17 19  1  0  0  0  0
 18 17  1  0  0  0  0
 19 15  2  0  0  0  0
 20 15  1  0  0  0  0
 21 18  1  0  0  0  0
 21 20  1  0  0  0  0
 23 24  1  0  0  0  0
 23 22  2  0  0  0  0
 24 26  1  0  0  0  0
 26 25  1  6  0  0  0
 26 27  1  0  0  0  0
 27 28  1  0  0  0  0
 29 31  2  0  0  0  0
 30 34  1  1  0  0  0
 30 32  1  0  0  0  0
 31 32  1  0  0  0  0
 33 28  1  6  0  0  0
 33 30  1  0  0  0  0
 35 33  1  0  0  0  0
 35 31  1  0  0  0  0
 36  2  1  0  0  0  0
 37 36  1  6  0  0  0
 37 38  1  0  0  0  0
 38 39  1  0  0  0  0
 39 40  1  0  0  0  0
 40 42  1  0  0  0  0
 42 41  1  0  0  0  0
 43 37  1  0  0  0  0
 44 43  1  0  0  0  0
 44 45  2  0  0  0  0
 46 47  1  0  0  0  0
 47 44  1  0  0  0  0
M  END
>  <MODEL>
6

>  <REMARK>
 VINA RESULT:      -6.7      3.202      4.655
  Name = 
  16 active torsions:
  status: ('A' for Active; 'I' for Inactive)
    1  A    between atoms: C_1  and  O_15
    2  A    between atoms: C_1  and  C_32
    3  A    between atoms: C_3  and  C_10
    4  A    between atoms: C_3  and  C_41
    5  A    between atoms: N_5  and  N_26
    6  A    between atoms: C_6  and  C_14
    7  A    between atoms: C_6  and  C_22
    8  A    between atoms: C_10  and  O_15
    9  A    between atoms: C_10  and  C_33
   10  A    between atoms: N_12  and  C_33
   11  A    between atoms: C_14  and  C_38
   12  A    between atoms: C_16  and  C_23
   13  A    between atoms: C_18  and  C_41
   14  A    between atoms: C_18  and  C_47
   15  A    between atoms: C_22  and  N_25
   16  A    between atoms: N_34  and  C_37
                            x       y       z     vdW  Elec       q    Type
                         _______ _______ _______ _____ _____    ______ ____

>  <TORSDO>
F 16

$$$$
=
 OpenBabel11032420453D

 47 50  0  0  1  0  0  0  0  0999 V2000
  182.8640  177.4380  138.0460 C   0  0  0  0  0  0  0  0  0  0  0  0
  181.5240  176.9500  137.9300 N   0  0  0  0  0  2  0  0  0  0  0  0
  184.5320  179.0100  138.4350 C   0  0  1  0  0  3  0  0  0  0  0  0
  184.2600  176.3510  137.8070 S   0  0  0  0  0  0  0  0  0  0  0  0
  186.4780  177.9600  137.4310 N   0  0  0  0  0  0  0  0  0  0  0  0
  185.2450  177.8470  137.8370 C   0  0  0  0  0  0  0  0  0  0  0  0
  183.1180  178.6760  138.3270 N   0  0  0  0  0  0  0  0  0  0  0  0
  189.1580  175.3670  136.9720 C   0  0  0  0  0  0  0  0  0  0  0  0
  189.0110  175.1150  135.6420 N   0  0  0  0  0  0  0  0  0  0  0  0
  190.1600  174.6930  137.7310 N   0  0  0  0  0  2  0  0  0  0  0  0
  187.2070  176.6680  135.4990 C   0  0  0  0  0  3  0  0  0  0  0  0
  187.3450  176.9630  136.8590 C   0  0  0  0  0  0  0  0  0  0  0  0
  188.3260  176.2960  137.6010 C   0  0  0  0  0  3  0  0  0  0  0  0
  188.0580  175.7350  134.9010 C   0  0  0  0  0  3  0  0  0  0  0  0
  193.9450  176.0340  136.8390 C   0  0  0  0  0  3  0  0  0  0  0  0
  191.0800  173.8340  137.1130 N   0  0  0  0  0  0  0  0  0  0  0  0
  192.3110  174.1830  136.8990 C   0  0  0  0  0  0  0  0  0  0  0  0
  193.4010  173.0370  136.0490 S   0  0  0  0  0  0  0  0  0  0  0  0
  192.8080  175.5130  137.3070 C   0  0  0  0  0  3  0  0  0  0  0  0
  194.8510  175.3210  135.8700 C   0  0  0  0  0  2  0  0  0  0  0  0
  194.0800  174.3460  134.9890 C   0  0  0  0  0  2  0  0  0  0  0  0
  186.1360  178.9270  140.2050 O   0  0  0  0  0  0  0  0  0  0  0  0
  184.9350  179.1170  139.8790 C   0  0  0  0  0  0  0  0  0  0  0  0
  183.9480  179.3210  140.8940 N   0  0  0  0  0  2  0  0  0  0  0  0
  182.7340  178.8110  142.9170 C   0  0  0  0  0  1  0  0  0  0  0  0
  184.0460  178.6520  142.1790 C   0  0  2  0  0  3  0  0  0  0  0  0
  185.1580  179.2820  142.9970 C   0  0  0  0  0  2  0  0  0  0  0  0
  184.8200  179.1640  144.4810 C   0  0  0  0  0  2  0  0  0  0  0  0
  189.1590  177.7000  144.6820 C   0  0  0  0  0  2  0  0  0  0  0  0
  186.2870  178.6650  146.4780 C   0  0  1  0  0  3  0  0  0  0  0  0
  187.9740  177.3640  145.1780 C   0  0  0  0  0  0  0  0  0  0  0  0
  187.6730  177.5800  146.9250 S   0  0  0  0  0  0  0  0  0  0  0  0
  185.6660  178.1080  145.2010 C   0  0  2  0  0  3  0  0  0  0  0  0
  185.3010  178.6640  147.5460 N   0  0  0  0  0  1  0  0  0  0  0  0
  186.7750  177.5480  144.3140 C   0  0  0  0  0  2  0  0  0  0  0  0
  180.3610  177.8230  137.8470 C   0  0  0  0  0  2  0  0  0  0  0  0
  179.8420  178.1630  139.2420 C   0  0  1  0  0  3  0  0  0  0  0  0
  179.1830  179.5450  139.2840 C   0  0  0  0  0  2  0  0  0  0  0  0
  180.0880  180.6270  139.8740 C   0  0  0  0  0  2  0  0  0  0  0  0
  180.0900  181.8550  138.9730 C   0  0  0  0  0  2  0  0  0  0  0  0
  181.0850  181.4880  136.8390 O   0  0  0  0  0  1  0  0  0  0  0  0
  181.3570  181.9070  138.1430 C   0  0  0  0  0  2  0  0  0  0  0  0
  178.9320  177.1610  139.6900 O   0  0  0  0  0  0  0  0  0  0  0  0
  179.2760  176.2030  140.6490 C   0  0  0  0  0  0  0  0  0  0  0  0
  179.3480  176.5110  141.9030 N   0  0  0  0  0  2  0  0  0  0  0  0
  179.4980  173.9610  141.3480 O   0  0  0  0  0  1  0  0  0  0  0  0
  179.5110  174.7930  140.2290 C   0  0  0  0  0  2  0  0  0  0  0  0
  1  7  2  0  0  0  0
  2  1  1  0  0  0  0
  3 23  1  1  0  0  0
  4  6  1  0  0  0  0
  4  1  1  0  0  0  0
  5  6  2  0  0  0  0
  6  3  1  0  0  0  0
  7  3  1  0  0  0  0
  8 13  1  0  0  0  0
  8 10  1  0  0  0  0
  9  8  2  0  0  0  0
 11 12  1  0  0  0  0
 12  5  1  0  0  0  0
 12 13  2  0  0  0  0
 14 11  2  0  0  0  0
 14  9  1  0  0  0  0
 15 19  2  0  0  0  0
 16 10  1  0  0  0  0
 17 16  2  0  0  0  0
 17 19  1  0  0  0  0
 18 17  1  0  0  0  0
 20 15  1  0  0  0  0
 21 20  1  0  0  0  0
 21 18  1  0  0  0  0
 23 22  2  0  0  0  0
 23 24  1  0  0  0  0
 24 26  1  0  0  0  0
 26 25  1  1  0  0  0
 26 27  1  0  0  0  0
 27 28  1  0  0  0  0
 29 31  2  0  0  0  0
 30 32  1  0  0  0  0
 30 34  1  1  0  0  0
 31 32  1  0  0  0  0
 33 28  1  6  0  0  0
 33 30  1  0  0  0  0
 35 31  1  0  0  0  0
 35 33  1  0  0  0  0
 36  2  1  0  0  0  0
 37 36  1  6  0  0  0
 37 38  1  0  0  0  0
 37 43  1  0  0  0  0
 38 39  1  0  0  0  0
 40 39  1  0  0  0  0
 41 42  1  0  0  0  0
 42 40  1  0  0  0  0
 43 44  1  0  0  0  0
 44 45  2  0  0  0  0
 47 44  1  0  0  0  0
 47 46  1  0  0  0  0
M  END
>  <MODEL>
7

>  <REMARK>
 VINA RESULT:      -6.6      2.190      3.875
  Name = 
  16 active torsions:
  status: ('A' for Active; 'I' for Inactive)
    1  A    between atoms: C_1  and  O_15
    2  A    between atoms: C_1  and  C_32
    3  A    between atoms: C_3  and  C_10
    4  A    between atoms: C_3  and  C_41
    5  A    between atoms: N_5  and  N_26
    6  A    between atoms: C_6  and  C_14
    7  A    between atoms: C_6  and  C_22
    8  A    between atoms: C_10  and  O_15
    9  A    between atoms: C_10  and  C_33
   10  A    between atoms: N_12  and  C_33
   11  A    between atoms: C_14  and  C_38
   12  A    between atoms: C_16  and  C_23
   13  A    between atoms: C_18  and  C_41
   14  A    between atoms: C_18  and  C_47
   15  A    between atoms: C_22  and  N_25
   16  A    between atoms: N_34  and  C_37
                            x       y       z     vdW  Elec       q    Type
                         _______ _______ _______ _____ _____    ______ ____

>  <TORSDO>
F 16

$$$$
=
 OpenBabel11032420453D

 47 50  0  0  1  0  0  0  0  0999 V2000
  182.7280  178.2160  139.4970 C   0  0  0  0  0  0  0  0  0  0  0  0
  181.3210  177.9610  139.4430 N   0  0  0  0  0  2  0  0  0  0  0  0
  184.6620  179.3780  140.0580 C   0  0  1  0  0  3  0  0  0  0  0  0
  183.8960  177.0710  138.7810 S   0  0  0  0  0  0  0  0  0  0  0  0
  186.3010  178.4160  138.5460 N   0  0  0  0  0  0  0  0  0  0  0  0
  185.1120  178.3530  139.0750 C   0  0  0  0  0  0  0  0  0  0  0  0
  183.2080  179.2770  140.0630 N   0  0  0  0  0  0  0  0  0  0  0  0
  188.5640  175.8440  137.0050 C   0  0  0  0  0  0  0  0  0  0  0  0
  188.1270  175.8930  135.7160 N   0  0  0  0  0  0  0  0  0  0  0  0
  189.6280  174.9690  137.3770 N   0  0  0  0  0  2  0  0  0  0  0  0
  186.4940  177.5340  136.2830 C   0  0  0  0  0  3  0  0  0  0  0  0
  186.9320  177.5220  137.6110 C   0  0  0  0  0  0  0  0  0  0  0  0
  187.9720  176.6580  137.9730 C   0  0  0  0  0  3  0  0  0  0  0  0
  187.1100  176.7090  135.3400 C   0  0  0  0  0  3  0  0  0  0  0  0
  193.7200  174.6040  137.5870 C   0  0  0  0  0  3  0  0  0  0  0  0
  190.3150  174.2150  136.4130 N   0  0  0  0  0  0  0  0  0  0  0  0
  191.5910  173.9960  136.4940 C   0  0  0  0  0  0  0  0  0  0  0  0
  192.3940  173.0680  135.1830 S   0  0  0  0  0  0  0  0  0  0  0  0
  192.3870  174.5290  137.6190 C   0  0  0  0  0  3  0  0  0  0  0  0
  194.5540  174.1390  136.4240 C   0  0  0  0  0  2  0  0  0  0  0  0
  193.7890  174.2290  135.1090 C   0  0  0  0  0  2  0  0  0  0  0  0
  186.1520  178.1740  141.4860 O   0  0  0  0  0  0  0  0  0  0  0  0
  185.2160  179.0120  141.4070 C   0  0  0  0  0  0  0  0  0  0  0  0
  184.6140  179.5220  142.6000 N   0  0  0  0  0  2  0  0  0  0  0  0
  183.1380  178.9730  144.4280 C   0  0  0  0  0  1  0  0  0  0  0  0
  184.4780  178.6910  143.7820 C   0  0  2  0  0  3  0  0  0  0  0  0
  185.5850  179.0200  144.7670 C   0  0  0  0  0  2  0  0  0  0  0  0
  185.6270  177.9490  145.8540 C   0  0  0  0  0  2  0  0  0  0  0  0
  189.8130  178.1790  144.0010 C   0  0  0  0  0  2  0  0  0  0  0  0
  187.9040  177.9280  146.9510 C   0  0  1  0  0  3  0  0  0  0  0  0
  189.1440  177.4060  144.8480 C   0  0  0  0  0  0  0  0  0  0  0  0
  189.6040  177.4100  146.5730 S   0  0  0  0  0  0  0  0  0  0  0  0
  186.9860  177.2460  145.9420 C   0  0  2  0  0  3  0  0  0  0  0  0
  187.5530  177.5110  148.2970 N   0  0  0  0  0  1  0  0  0  0  0  0
  187.6950  177.1780  144.5920 C   0  0  0  0  0  2  0  0  0  0  0  0
  180.3150  178.9650  139.7620 C   0  0  0  0  0  2  0  0  0  0  0  0
  179.8790  179.7080  138.5010 C   0  0  1  0  0  3  0  0  0  0  0  0
  179.7020  181.2080  138.7550 C   0  0  0  0  0  2  0  0  0  0  0  0
  180.9600  182.0240  138.4530 C   0  0  0  0  0  2  0  0  0  0  0  0
  180.7740  182.8120  137.1640 C   0  0  0  0  0  2  0  0  0  0  0  0
  182.2770  184.6170  137.5740 O   0  0  0  0  0  1  0  0  0  0  0  0
  180.9260  184.2990  137.4200 C   0  0  0  0  0  2  0  0  0  0  0  0
  180.8140  179.4870  137.4480 O   0  0  0  0  0  0  0  0  0  0  0  0
  180.4590  178.8850  136.2350 C   0  0  0  0  0  0  0  0  0  0  0  0
  181.1230  179.1270  135.1520 N   0  0  0  0  0  2  0  0  0  0  0  0
  179.8050  176.6610  135.8040 O   0  0  0  0  0  1  0  0  0  0  0  0
  179.3320  177.9120  136.2000 C   0  0  0  0  0  2  0  0  0  0  0  0
  1  7  2  0  0  0  0
  2  1  1  0  0  0  0
  2 36  1  0  0  0  0
  3  7  1  0  0  0  0
  3 23  1  1  0  0  0
  4  6  1  0  0  0  0
  4  1  1  0  0  0  0
  5  6  2  0  0  0  0
  6  3  1  0  0  0  0
  8 10  1  0  0  0  0
  8 13  1  0  0  0  0
  9  8  2  0  0  0  0
 11 12  1  0  0  0  0
 12 13  2  0  0  0  0
 12  5  1  0  0  0  0
 14  9  1  0  0  0  0
 14 11  2  0  0  0  0
 15 19  2  0  0  0  0
 16 17  2  0  0  0  0
 16 10  1  0  0  0  0
 17 19  1  0  0  0  0
 18 17  1  0  0  0  0
 20 15  1  0  0  0  0
 21 18  1  0  0  0  0
 21 20  1  0  0  0  0
 23 22  2  0  0  0  0
 23 24  1  0  0  0  0
 24 26  1  0  0  0  0
 26 25  1  1  0  0  0
 26 27  1  0  0  0  0
 27 28  1  0  0  0  0
 29 31  2  0  0  0  0
 30 34  1  1  0  0  0
 31 32  1  0  0  0  0
 32 30  1  0  0  0  0
 33 28  1  6  0  0  0
 33 30  1  0  0  0  0
 35 31  1  0  0  0  0
 35 33  1  0  0  0  0
 37 38  1  1  0  0  0
 37 36  1  0  0  0  0
 39 38  1  0  0  0  0
 40 42  1  0  0  0  0
 40 39  1  0  0  0  0
 42 41  1  0  0  0  0
 43 37  1  0  0  0  0
 44 43  1  0  0  0  0
 45 44  2  0  0  0  0
 46 47  1  0  0  0  0
 47 44  1  0  0  0  0
M  END
>  <MODEL>
8

>  <REMARK>
 VINA RESULT:      -6.6      1.895      3.116
  Name = 
  16 active torsions:
  status: ('A' for Active; 'I' for Inactive)
    1  A    between atoms: C_1  and  O_15
    2  A    between atoms: C_1  and  C_32
    3  A    between atoms: C_3  and  C_10
    4  A    between atoms: C_3  and  C_41
    5  A    between atoms: N_5  and  N_26
    6  A    between atoms: C_6  and  C_14
    7  A    between atoms: C_6  and  C_22
    8  A    between atoms: C_10  and  O_15
    9  A    between atoms: C_10  and  C_33
   10  A    between atoms: N_12  and  C_33
   11  A    between atoms: C_14  and  C_38
   12  A    between atoms: C_16  and  C_23
   13  A    between atoms: C_18  and  C_41
   14  A    between atoms: C_18  and  C_47
   15  A    between atoms: C_22  and  N_25
   16  A    between atoms: N_34  and  C_37
                            x       y       z     vdW  Elec       q    Type
                         _______ _______ _______ _____ _____    ______ ____

>  <TORSDO>
F 16

$$$$
=
 OpenBabel11032420453D

 47 50  0  0  1  0  0  0  0  0999 V2000
  190.6320  176.9730  141.8870 C   0  0  0  0  0  0  0  0  0  0  0  0
  190.4280  176.5920  143.2510 N   0  0  0  0  0  2  0  0  0  0  0  0
  191.7770  177.8770  140.0770 C   0  0  1  0  0  3  0  0  0  0  0  0
  189.4010  176.6230  140.6430 S   0  0  0  0  0  0  0  0  0  0  0  0
  190.0030  178.1960  138.4490 N   0  0  0  0  0  0  0  0  0  0  0  0
  190.3890  177.6720  139.5770 C   0  0  0  0  0  0  0  0  0  0  0  0
  191.7090  177.5800  141.5020 N   0  0  0  0  0  0  0  0  0  0  0  0
  186.3130  178.0980  137.7510 C   0  0  0  0  0  0  0  0  0  0  0  0
  186.3370  177.8080  136.4210 N   0  0  0  0  0  0  0  0  0  0  0  0
  185.0720  178.2480  138.4390 N   0  0  0  0  0  2  0  0  0  0  0  0
  188.7210  177.8160  136.4140 C   0  0  0  0  0  3  0  0  0  0  0  0
  188.7310  178.0960  137.7840 C   0  0  0  0  0  0  0  0  0  0  0  0
  187.5120  178.2470  138.4530 C   0  0  0  0  0  3  0  0  0  0  0  0
  187.5040  177.6710  135.7430 C   0  0  0  0  0  3  0  0  0  0  0  0
  181.6090  177.9220  140.6340 C   0  0  0  0  0  3  0  0  0  0  0  0
  183.8520  178.0030  137.7910 N   0  0  0  0  0  0  0  0  0  0  0  0
  182.7250  177.9860  138.4320 C   0  0  0  0  0  0  0  0  0  0  0  0
  181.2200  177.6060  137.5280 S   0  0  0  0  0  0  0  0  0  0  0  0
  182.6710  178.2340  139.8880 C   0  0  0  0  0  3  0  0  0  0  0  0
  180.3510  177.3090  140.0790 C   0  0  0  0  0  2  0  0  0  0  0  0
  180.6290  176.4850  138.8280 C   0  0  0  0  0  2  0  0  0  0  0  0
  193.9210  176.9460  139.5780 O   0  0  0  0  0  0  0  0  0  0  0  0
  192.6780  176.8950  139.3820 C   0  0  0  0  0  0  0  0  0  0  0  0
  192.1480  175.9820  138.4180 N   0  0  0  0  0  2  0  0  0  0  0  0
  192.0320  175.9960  136.0070 C   0  0  0  0  0  1  0  0  0  0  0  0
  192.8850  175.6560  137.2100 C   0  0  2  0  0  3  0  0  0  0  0  0
  193.2040  174.1720  137.1930 C   0  0  0  0  0  2  0  0  0  0  0  0
  194.4920  173.9240  137.9750 C   0  0  0  0  0  2  0  0  0  0  0  0
  199.0600  174.1060  137.6370 C   0  0  0  0  0  2  0  0  0  0  0  0
  196.1830  172.0730  137.6540 C   0  0  1  0  0  3  0  0  0  0  0  0
  198.0340  173.5990  136.9630 C   0  0  0  0  0  0  0  0  0  0  0  0
  197.8230  171.8270  136.9120 S   0  0  0  0  0  0  0  0  0  0  0  0
  195.6230  173.3780  137.0970 C   0  0  2  0  0  3  0  0  0  0  0  0
  195.3110  170.9690  137.2930 N   0  0  0  0  0  1  0  0  0  0  0  0
  196.7650  174.3770  136.9290 C   0  0  0  0  0  2  0  0  0  0  0  0
  191.2540  177.0770  144.3480 C   0  0  0  0  0  2  0  0  0  0  0  0
  190.3830  177.6250  145.4760 C   0  0  1  0  0  3  0  0  0  0  0  0
  188.9480  177.8890  145.0110 C   0  0  0  0  0  2  0  0  0  0  0  0
  187.8950  177.2040  145.8830 C   0  0  0  0  0  2  0  0  0  0  0  0
  186.4990  177.6240  145.4420 C   0  0  0  0  0  2  0  0  0  0  0  0
  184.7560  179.1810  145.9070 O   0  0  0  0  0  1  0  0  0  0  0  0
  185.8750  178.5570  146.4610 C   0  0  0  0  0  2  0  0  0  0  0  0
  190.3920  176.7310  146.5870 O   0  0  0  0  0  0  0  0  0  0  0  0
  191.4860  176.6070  147.4490 C   0  0  0  0  0  0  0  0  0  0  0  0
  191.6910  177.4670  148.3930 N   0  0  0  0  0  2  0  0  0  0  0  0
  193.5380  175.6400  148.0950 O   0  0  0  0  0  1  0  0  0  0  0  0
  192.4010  175.4400  147.3130 C   0  0  0  0  0  2  0  0  0  0  0  0
  1  2  1  0  0  0  0
  2 36  1  0  0  0  0
  3 23  1  6  0  0  0
  3  7  1  0  0  0  0
  4  1  1  0  0  0  0
  5  6  2  0  0  0  0
  6  3  1  0  0  0  0
  6  4  1  0  0  0  0
  7  1  2  0  0  0  0
  8 10  1  0  0  0  0
  8 13  1  0  0  0  0
  9  8  2  0  0  0  0
 11 12  1  0  0  0  0
 12  5  1  0  0  0  0
 12 13  2  0  0  0  0
 14 11  2  0  0  0  0
 14  9  1  0  0  0  0
 16 17  2  0  0  0  0
 16 10  1  0  0  0  0
 17 19  1  0  0  0  0
 18 17  1  0  0  0  0
 18 21  1  0  0  0  0
 19 15  2  0  0  0  0
 20 15  1  0  0  0  0
 21 20  1  0  0  0  0
 23 22  2  0  0  0  0
 24 23  1  0  0  0  0
 26 25  1  6  0  0  0
 26 24  1  0  0  0  0
 27 26  1  0  0  0  0
 27 28  1  0  0  0  0
 30 34  1  6  0  0  0
 31 29  2  0  0  0  0
 32 31  1  0  0  0  0
 32 30  1  0  0  0  0
 33 30  1  0  0  0  0
 33 28  1  1  0  0  0
 35 31  1  0  0  0  0
 35 33  1  0  0  0  0
 37 36  1  6  0  0  0
 37 43  1  0  0  0  0
 38 37  1  0  0  0  0
 38 39  1  0  0  0  0
 40 39  1  0  0  0  0
 40 42  1  0  0  0  0
 41 42  1  0  0  0  0
 43 44  1  0  0  0  0
 44 45  2  0  0  0  0
 47 44  1  0  0  0  0
 47 46  1  0  0  0  0
M  END
>  <MODEL>
9

>  <REMARK>
 VINA RESULT:      -6.6      3.725     10.410
  Name = 
  16 active torsions:
  status: ('A' for Active; 'I' for Inactive)
    1  A    between atoms: C_1  and  O_15
    2  A    between atoms: C_1  and  C_32
    3  A    between atoms: C_3  and  C_10
    4  A    between atoms: C_3  and  C_41
    5  A    between atoms: N_5  and  N_26
    6  A    between atoms: C_6  and  C_14
    7  A    between atoms: C_6  and  C_22
    8  A    between atoms: C_10  and  O_15
    9  A    between atoms: C_10  and  C_33
   10  A    between atoms: N_12  and  C_33
   11  A    between atoms: C_14  and  C_38
   12  A    between atoms: C_16  and  C_23
   13  A    between atoms: C_18  and  C_41
   14  A    between atoms: C_18  and  C_47
   15  A    between atoms: C_22  and  N_25
   16  A    between atoms: N_34  and  C_37
                            x       y       z     vdW  Elec       q    Type
                         _______ _______ _______ _____ _____    ______ ____

>  <TORSDO>
F 16

$$$$
