=
 OpenBabel11042411393D

 45 49  0  0  1  0  0  0  0  0999 V2000
  188.6660  178.7710  141.1630 C   0  0  0  0  0  2  0  0  0  0  0  0
  188.0750  177.6220  140.3620 C   0  0  0  0  0  2  0  0  0  0  0  0
  189.4250  177.4670  141.0370 C   0  0  0  0  0  0  0  0  0  0  0  0
  190.6170  177.6240  140.2070 N   0  0  0  0  0  2  0  0  0  0  0  0
  190.8060  176.4220  139.4060 C   0  0  0  0  0  2  0  0  0  0  0  0
  190.9720  176.7740  137.9380 C   0  0  1  0  0  3  0  0  0  0  0  0
  192.3540  175.4040  136.4630 N   0  0  0  0  0  0  0  0  0  0  0  0
  194.5340  176.0660  137.0890 N   0  0  0  0  0  0  0  0  0  0  0  0
  193.5380  176.7300  137.8180 N   0  0  0  0  0  2  0  0  0  0  0  0
  192.2750  176.2560  137.4130 C   0  0  0  0  0  0  0  0  0  0  0  0
  193.7710  175.2140  136.1660 C   0  0  0  0  0  2  0  0  0  0  0  0
  195.1850  175.2100  137.9810 N   0  0  0  0  0  2  0  0  0  0  0  0
  196.5880  173.2480  137.8030 C   0  0  0  0  0  2  0  0  0  0  0  0
  195.2400  172.8180  138.3380 C   0  0  0  0  0  2  0  0  0  0  0  0
  195.3270  173.9280  137.3140 C   0  0  0  0  0  3  0  0  0  0  0  0
  189.5740  176.0940  136.9870 S   0  0  0  0  0  0  0  0  0  0  0  0
  189.3470  178.6980  137.1990 O   0  0  0  0  0  0  0  0  0  0  0  0
  188.8210  177.7010  136.7320 C   0  0  0  0  0  0  0  0  0  0  0  0
  187.5510  177.8100  135.9460 C   0  0  0  0  0  2  0  0  0  0  0  0
  186.2170  178.7050  137.7050 F   0  0  0  0  0  0  0  0  0  0  0  0
  185.1800  177.5860  136.0380 F   0  0  0  0  0  0  0  0  0  0  0  0
  186.4260  176.4630  137.5450 F   0  0  0  0  0  0  0  0  0  0  0  0
  186.3170  177.6410  136.8230 C   0  0  0  0  0  0  0  0  0  0  0  0
  189.5170  176.7020  142.3580 C   0  0  2  0  0  3  0  0  0  0  0  0
  188.1610  176.2110  142.8740 C   0  0  0  0  0  2  0  0  0  0  0  0
  187.4420  177.3220  143.6240 C   0  0  1  0  0  3  0  0  0  0  0  0
  185.5630  178.8660  143.3930 C   0  0  0  0  0  2  0  0  0  0  0  0
  185.0260  178.9800  144.7390 N   0  0  0  0  0  0  0  0  0  0  0  0
  186.0170  177.4500  143.1180 C   0  0  0  0  0  2  0  0  0  0  0  0
  185.5560  179.4420  146.9620 O   0  0  0  0  0  0  0  0  0  0  0  0
  185.8180  178.7730  145.9250 C   0  0  0  0  0  0  0  0  0  0  0  0
  187.4940  177.0480  145.0920 C   0  0  0  0  0  3  0  0  0  0  0  0
  186.8320  177.7040  146.0510 C   0  0  0  0  0  3  0  0  0  0  0  0
  182.6650  178.7800  144.1310 C   0  0  0  0  0  1  0  0  0  0  0  0
  183.7130  179.6070  144.8490 C   0  0  0  0  0  2  0  0  0  0  0  0
  190.4280  177.3710  143.4060 C   0  0  2  0  0  3  0  0  0  0  0  0
  191.0700  179.4490  143.8120 C   0  0  0  0  0  1  0  0  0  0  0  0
  191.0550  178.4700  142.8190 O   0  0  0  0  0  0  0  0  0  0  0  0
  191.5060  176.4520  143.9790 C   0  0  0  0  0  2  0  0  0  0  0  0
  192.3640  175.5900  147.5520 C   0  0  0  0  0  3  0  0  0  0  0  0
  191.4760  176.4090  145.4660 C   0  0  0  0  0  0  0  0  0  0  0  0
  191.4950  176.3880  148.2270 N   0  0  0  0  0  0  0  0  0  0  0  0
  190.5990  177.2320  146.1780 C   0  0  0  0  0  3  0  0  0  0  0  0
  190.6190  177.2000  147.5740 C   0  0  0  0  0  3  0  0  0  0  0  0
  192.3720  175.5890  146.1550 C   0  0  0  0  0  3  0  0  0  0  0  0
  2  3  1  0  0  0  0
  2  1  1  0  0  0  0
  3  1  1  0  0  0  0
  3 24  1  0  0  0  0
  4  3  1  0  0  0  0
  5  4  1  0  0  0  0
  6  5  1  1  0  0  0
  7 10  2  0  0  0  0
  8  9  1  0  0  0  0
  8 12  1  0  0  0  0
 10  9  1  0  0  0  0
 10  6  1  0  0  0  0
 11  7  1  0  0  0  0
 11  8  1  0  0  0  0
 13 14  1  0  0  0  0
 15 13  1  0  0  0  0
 15 12  1  0  0  0  0
 15 14  1  0  0  0  0
 16  6  1  0  0  0  0
 18 16  1  0  0  0  0
 18 17  2  0  0  0  0
 19 18  1  0  0  0  0
 19 23  1  0  0  0  0
 21 23  1  0  0  0  0
 23 22  1  0  0  0  0
 23 20  1  0  0  0  0
 24 25  1  1  0  0  0
 24 36  1  0  0  0  0
 26 25  1  6  0  0  0
 26 32  1  0  0  0  0
 27 28  1  0  0  0  0
 28 35  1  0  0  0  0
 28 31  1  0  0  0  0
 29 27  1  0  0  0  0
 29 26  1  0  0  0  0
 31 33  1  0  0  0  0
 31 30  2  0  0  0  0
 32 33  2  0  0  0  0
 34 35  1  0  0  0  0
 36 39  1  6  0  0  0
 38 36  1  0  0  0  0
 38 37  1  0  0  0  0
 39 41  1  0  0  0  0
 40 42  1  0  0  0  0
 41 45  1  0  0  0  0
 41 43  2  0  0  0  0
 43 44  1  0  0  0  0
 44 42  2  0  0  0  0
 45 40  2  0  0  0  0
M  END
>  <MODEL>
1

>  <REMARK>
 VINA RESULT:      -7.5      0.000      0.000
  Name = 
  18 active torsions:
  status: ('A' for Active; 'I' for Inactive)
    1  A    between atoms: C_1  and  C_22
    2  A    between atoms: C_1  and  C_29
    3  A    between atoms: C_1  and  C_43
    4  A    between atoms: N_3  and  C_22
    5  A    between atoms: N_3  and  C_42
    6  A    between atoms: C_6  and  C_21
    7  A    between atoms: C_6  and  C_43
    8  A    between atoms: C_12  and  C_29
    9  A    between atoms: S_14  and  C_36
   10  A    between atoms: S_14  and  C_41
   11  A    between atoms: N_16  and  N_31
   12  A    between atoms: C_18  and  C_28
   13  A    between atoms: N_19  and  C_40
   14  A    between atoms: C_27  and  C_41
   15  A    between atoms: C_28  and  C_36
   16  A    between atoms: N_31  and  C_44
   17  A    between atoms: O_37  and  C_43
   18  A    between atoms: C_41  and  C_42
                            x       y       z     vdW  Elec       q    Type
                         _______ _______ _______ _____ _____    ______ ____

>  <TORSDO>
F 18

$$$$
=
 OpenBabel11042411393D

 45 49  0  0  1  0  0  0  0  0999 V2000
  189.4110  178.4810  139.1000 C   0  0  0  0  0  2  0  0  0  0  0  0
  188.4100  177.4110  138.6930 C   0  0  0  0  0  2  0  0  0  0  0  0
  189.1520  177.3010  140.0120 C   0  0  0  0  0  0  0  0  0  0  0  0
  190.3050  176.4060  140.0660 N   0  0  0  0  0  2  0  0  0  0  0  0
  191.2790  176.8180  139.0630 C   0  0  0  0  0  2  0  0  0  0  0  0
  191.7850  175.6200  138.2790 C   0  0  1  0  0  3  0  0  0  0  0  0
  190.4610  175.7630  136.2330 N   0  0  0  0  0  0  0  0  0  0  0  0
  189.2050  173.7640  136.3270 N   0  0  0  0  0  0  0  0  0  0  0  0
  190.0620  173.9150  137.4250 N   0  0  0  0  0  2  0  0  0  0  0  0
  190.7450  175.1420  137.3130 C   0  0  0  0  0  0  0  0  0  0  0  0
  189.4800  174.9560  135.5120 C   0  0  0  0  0  2  0  0  0  0  0  0
  187.9010  173.9000  136.8110 N   0  0  0  0  0  2  0  0  0  0  0  0
  185.7430  174.1020  135.7380 C   0  0  0  0  0  2  0  0  0  0  0  0
  186.0190  175.3860  136.4900 C   0  0  0  0  0  2  0  0  0  0  0  0
  187.1540  174.6470  135.8150 C   0  0  0  0  0  3  0  0  0  0  0  0
  193.3220  176.0660  137.4090 S   0  0  0  0  0  0  0  0  0  0  0  0
  193.7840  173.4890  137.2660 O   0  0  0  0  0  0  0  0  0  0  0  0
  194.1330  174.5200  137.8160 C   0  0  0  0  0  0  0  0  0  0  0  0
  195.2350  174.5030  138.8300 C   0  0  0  0  0  2  0  0  0  0  0  0
  196.7970  172.8620  138.0970 F   0  0  0  0  0  0  0  0  0  0  0  0
  196.6560  174.7950  136.9370 F   0  0  0  0  0  0  0  0  0  0  0  0
  197.5880  174.7780  138.9900 F   0  0  0  0  0  0  0  0  0  0  0  0
  196.5930  174.2280  138.1970 C   0  0  0  0  0  0  0  0  0  0  0  0
  188.4390  177.6950  141.3070 C   0  0  2  0  0  3  0  0  0  0  0  0
  187.5310  178.9200  141.1550 C   0  0  0  0  0  2  0  0  0  0  0  0
  186.0680  178.5090  141.2090 C   0  0  1  0  0  3  0  0  0  0  0  0
  184.1750  178.4060  142.7510 C   0  0  0  0  0  2  0  0  0  0  0  0
  183.0210  178.7070  141.9210 N   0  0  0  0  0  0  0  0  0  0  0  0
  185.3640  179.2440  142.3350 C   0  0  0  0  0  2  0  0  0  0  0  0
  181.8830  178.1300  139.9700 O   0  0  0  0  0  0  0  0  0  0  0  0
  182.9800  178.4520  140.5030 C   0  0  0  0  0  0  0  0  0  0  0  0
  185.4280  178.7680  139.8840 C   0  0  0  0  0  3  0  0  0  0  0  0
  184.1240  178.6950  139.5980 C   0  0  0  0  0  3  0  0  0  0  0  0
  181.9550  178.7640  144.1220 C   0  0  0  0  0  1  0  0  0  0  0  0
  181.7850  179.0080  142.6350 C   0  0  0  0  0  2  0  0  0  0  0  0
  189.3510  177.6900  142.5500 C   0  0  2  0  0  3  0  0  0  0  0  0
  191.4180  178.2440  143.1100 C   0  0  0  0  0  1  0  0  0  0  0  0
  190.6760  177.5810  142.1320 O   0  0  0  0  0  0  0  0  0  0  0  0
  189.0620  176.5590  143.5350 C   0  0  0  0  0  2  0  0  0  0  0  0
  186.4220  177.6910  145.9830 C   0  0  0  0  0  3  0  0  0  0  0  0
  188.4090  177.0480  144.7780 C   0  0  0  0  0  0  0  0  0  0  0  0
  187.1690  177.8690  147.1050 N   0  0  0  0  0  0  0  0  0  0  0  0
  189.1570  177.2250  145.9450 C   0  0  0  0  0  3  0  0  0  0  0  0
  188.5110  177.6490  147.1100 C   0  0  0  0  0  3  0  0  0  0  0  0
  187.0300  177.2730  144.7980 C   0  0  0  0  0  3  0  0  0  0  0  0
  1  3  1  0  0  0  0
  2  1  1  0  0  0  0
  2  3  1  0  0  0  0
  3  4  1  0  0  0  0
  3 24  1  0  0  0  0
  5  4  1  0  0  0  0
  6  5  1  6  0  0  0
  7 10  2  0  0  0  0
  8 12  1  0  0  0  0
  8  9  1  0  0  0  0
 10  9  1  0  0  0  0
 10  6  1  0  0  0  0
 11  7  1  0  0  0  0
 11  8  1  0  0  0  0
 13 15  1  0  0  0  0
 13 14  1  0  0  0  0
 15 14  1  0  0  0  0
 15 12  1  0  0  0  0
 16 18  1  0  0  0  0
 16  6  1  0  0  0  0
 17 18  2  0  0  0  0
 18 19  1  0  0  0  0
 20 23  1  0  0  0  0
 21 23  1  0  0  0  0
 23 19  1  0  0  0  0
 23 22  1  0  0  0  0
 24 25  1  6  0  0  0
 24 36  1  0  0  0  0
 26 25  1  6  0  0  0
 26 29  1  0  0  0  0
 28 35  1  0  0  0  0
 28 27  1  0  0  0  0
 29 27  1  0  0  0  0
 30 31  2  0  0  0  0
 31 28  1  0  0  0  0
 32 26  1  0  0  0  0
 33 32  2  0  0  0  0
 33 31  1  0  0  0  0
 35 34  1  0  0  0  0
 36 39  1  1  0  0  0
 38 36  1  0  0  0  0
 38 37  1  0  0  0  0
 39 41  1  0  0  0  0
 40 42  1  0  0  0  0
 41 45  1  0  0  0  0
 41 43  2  0  0  0  0
 42 44  2  0  0  0  0
 43 44  1  0  0  0  0
 45 40  2  0  0  0  0
M  END
>  <MODEL>
2

>  <REMARK>
 VINA RESULT:      -7.5      3.876      5.803
  Name = 
  18 active torsions:
  status: ('A' for Active; 'I' for Inactive)
    1  A    between atoms: C_1  and  C_22
    2  A    between atoms: C_1  and  C_29
    3  A    between atoms: C_1  and  C_43
    4  A    between atoms: N_3  and  C_22
    5  A    between atoms: N_3  and  C_42
    6  A    between atoms: C_6  and  C_21
    7  A    between atoms: C_6  and  C_43
    8  A    between atoms: C_12  and  C_29
    9  A    between atoms: S_14  and  C_36
   10  A    between atoms: S_14  and  C_41
   11  A    between atoms: N_16  and  N_31
   12  A    between atoms: C_18  and  C_28
   13  A    between atoms: N_19  and  C_40
   14  A    between atoms: C_27  and  C_41
   15  A    between atoms: C_28  and  C_36
   16  A    between atoms: N_31  and  C_44
   17  A    between atoms: O_37  and  C_43
   18  A    between atoms: C_41  and  C_42
                            x       y       z     vdW  Elec       q    Type
                         _______ _______ _______ _____ _____    ______ ____

>  <TORSDO>
F 18

$$$$
=
 OpenBabel11042411393D

 45 49  0  0  1  0  0  0  0  0999 V2000
  188.7040  177.1940  139.8320 C   0  0  0  0  0  2  0  0  0  0  0  0
  189.1930  178.6290  139.7110 C   0  0  0  0  0  2  0  0  0  0  0  0
  187.7260  178.3420  139.9690 C   0  0  0  0  0  0  0  0  0  0  0  0
  186.8150  178.4030  138.8290 N   0  0  0  0  0  2  0  0  0  0  0  0
  187.5810  178.2880  137.5950 C   0  0  0  0  0  2  0  0  0  0  0  0
  187.0090  177.1990  136.7050 C   0  0  1  0  0  3  0  0  0  0  0  0
  187.4420  174.8230  137.0600 N   0  0  0  0  0  0  0  0  0  0  0  0
  189.7080  174.6420  136.4160 N   0  0  0  0  0  0  0  0  0  0  0  0
  189.2170  175.9490  136.3000 N   0  0  0  0  0  2  0  0  0  0  0  0
  187.8780  175.9790  136.7340 C   0  0  0  0  0  0  0  0  0  0  0  0
  188.5420  173.8780  136.8820 C   0  0  0  0  0  2  0  0  0  0  0  0
  190.6300  174.6490  137.4660 N   0  0  0  0  0  2  0  0  0  0  0  0
  192.0530  176.2550  138.5820 C   0  0  0  0  0  2  0  0  0  0  0  0
  192.9180  175.4060  137.6740 C   0  0  0  0  0  2  0  0  0  0  0  0
  191.5140  175.7790  137.2490 C   0  0  0  0  0  3  0  0  0  0  0  0
  185.3140  176.8000  137.2440 S   0  0  0  0  0  0  0  0  0  0  0  0
  185.3500  177.3290  134.6750 O   0  0  0  0  0  0  0  0  0  0  0  0
  184.6260  176.9990  135.6000 C   0  0  0  0  0  0  0  0  0  0  0  0
  183.1660  176.7590  135.3710 C   0  0  0  0  0  2  0  0  0  0  0  0
  181.7310  175.0140  134.6150 F   0  0  0  0  0  0  0  0  0  0  0  0
  183.8900  174.5100  135.0510 F   0  0  0  0  0  0  0  0  0  0  0  0
  182.4710  174.9520  136.7470 F   0  0  0  0  0  0  0  0  0  0  0  0
  182.8100  175.2800  135.4430 C   0  0  0  0  0  0  0  0  0  0  0  0
  187.1730  178.4870  141.3880 C   0  0  2  0  0  3  0  0  0  0  0  0
  187.3910  177.2440  142.2570 C   0  0  0  0  0  2  0  0  0  0  0  0
  188.3310  177.5590  143.4120 C   0  0  1  0  0  3  0  0  0  0  0  0
  188.3030  178.1140  145.7910 C   0  0  0  0  0  2  0  0  0  0  0  0
  189.4850  177.4600  146.3250 N   0  0  0  0  0  0  0  0  0  0  0  0
  187.6490  177.2530  144.7330 C   0  0  0  0  0  2  0  0  0  0  0  0
  191.7890  177.2060  146.0770 O   0  0  0  0  0  0  0  0  0  0  0  0
  190.6530  177.1700  145.5310 C   0  0  0  0  0  0  0  0  0  0  0  0
  189.6010  176.7910  143.2440 C   0  0  0  0  0  3  0  0  0  0  0  0
  190.5890  176.6760  144.1390 C   0  0  0  0  0  3  0  0  0  0  0  0
  188.2950  177.9130  148.4140 C   0  0  0  0  0  1  0  0  0  0  0  0
  189.5620  177.3730  147.7790 C   0  0  0  0  0  2  0  0  0  0  0  0
  185.7630  179.1050  141.4510 C   0  0  2  0  0  3  0  0  0  0  0  0
  184.7970  179.4190  143.4160 C   0  0  0  0  0  1  0  0  0  0  0  0
  185.7080  179.9890  142.5280 O   0  0  0  0  0  0  0  0  0  0  0  0
  184.6370  178.0850  141.6080 C   0  0  0  0  0  2  0  0  0  0  0  0
  182.6930  179.3390  138.6260 C   0  0  0  0  0  3  0  0  0  0  0  0
  183.6530  178.1570  140.4950 C   0  0  0  0  0  0  0  0  0  0  0  0
  181.8950  178.2690  138.3680 N   0  0  0  0  0  0  0  0  0  0  0  0
  182.8330  177.0630  140.2060 C   0  0  0  0  0  3  0  0  0  0  0  0
  181.9450  177.1420  139.1300 C   0  0  0  0  0  3  0  0  0  0  0  0
  183.5900  179.3010  139.6950 C   0  0  0  0  0  3  0  0  0  0  0  0
  1  3  1  0  0  0  0
  2  1  1  0  0  0  0
  2  3  1  0  0  0  0
  3 24  1  0  0  0  0
  4  3  1  0  0  0  0
  5  4  1  0  0  0  0
  6 10  1  0  0  0  0
  6 16  1  0  0  0  0
  6  5  1  1  0  0  0
  8 11  1  0  0  0  0
  8 12  1  0  0  0  0
  9  8  1  0  0  0  0
  9 10  1  0  0  0  0
 10  7  2  0  0  0  0
 11  7  1  0  0  0  0
 14 13  1  0  0  0  0
 15 12  1  0  0  0  0
 15 14  1  0  0  0  0
 15 13  1  0  0  0  0
 17 18  2  0  0  0  0
 18 16  1  0  0  0  0
 19 23  1  0  0  0  0
 19 18  1  0  0  0  0
 20 23  1  0  0  0  0
 21 23  1  0  0  0  0
 23 22  1  0  0  0  0
 24 36  1  0  0  0  0
 24 25  1  6  0  0  0
 26 25  1  6  0  0  0
 26 29  1  0  0  0  0
 27 28  1  0  0  0  0
 28 35  1  0  0  0  0
 29 27  1  0  0  0  0
 31 30  2  0  0  0  0
 31 28  1  0  0  0  0
 32 26  1  0  0  0  0
 32 33  2  0  0  0  0
 33 31  1  0  0  0  0
 35 34  1  0  0  0  0
 36 39  1  1  0  0  0
 36 38  1  0  0  0  0
 38 37  1  0  0  0  0
 40 45  1  0  0  0  0
 41 39  1  0  0  0  0
 42 40  2  0  0  0  0
 42 44  1  0  0  0  0
 43 41  1  0  0  0  0
 44 43  2  0  0  0  0
 45 41  2  0  0  0  0
M  END
>  <MODEL>
3

>  <REMARK>
 VINA RESULT:      -7.4      3.102      6.137
  Name = 
  18 active torsions:
  status: ('A' for Active; 'I' for Inactive)
    1  A    between atoms: C_1  and  C_22
    2  A    between atoms: C_1  and  C_29
    3  A    between atoms: C_1  and  C_43
    4  A    between atoms: N_3  and  C_22
    5  A    between atoms: N_3  and  C_42
    6  A    between atoms: C_6  and  C_21
    7  A    between atoms: C_6  and  C_43
    8  A    between atoms: C_12  and  C_29
    9  A    between atoms: S_14  and  C_36
   10  A    between atoms: S_14  and  C_41
   11  A    between atoms: N_16  and  N_31
   12  A    between atoms: C_18  and  C_28
   13  A    between atoms: N_19  and  C_40
   14  A    between atoms: C_27  and  C_41
   15  A    between atoms: C_28  and  C_36
   16  A    between atoms: N_31  and  C_44
   17  A    between atoms: O_37  and  C_43
   18  A    between atoms: C_41  and  C_42
                            x       y       z     vdW  Elec       q    Type
                         _______ _______ _______ _____ _____    ______ ____

>  <TORSDO>
F 18

$$$$
=
 OpenBabel11042411393D

 45 49  0  0  1  0  0  0  0  0999 V2000
  188.9120  177.1930  139.9570 C   0  0  0  0  0  2  0  0  0  0  0  0
  189.3180  178.6480  139.7830 C   0  0  0  0  0  2  0  0  0  0  0  0
  187.8620  178.2830  140.0100 C   0  0  0  0  0  0  0  0  0  0  0  0
  186.9880  178.2360  138.8410 N   0  0  0  0  0  2  0  0  0  0  0  0
  187.7950  178.3450  137.6330 C   0  0  0  0  0  2  0  0  0  0  0  0
  187.8240  177.0240  136.8840 C   0  0  1  0  0  3  0  0  0  0  0  0
  185.9050  177.4120  135.4270 N   0  0  0  0  0  0  0  0  0  0  0  0
  184.5530  175.5310  135.8940 N   0  0  0  0  0  0  0  0  0  0  0  0
  185.7450  175.5360  136.6320 N   0  0  0  0  0  2  0  0  0  0  0  0
  186.4730  176.7020  136.3240 C   0  0  0  0  0  0  0  0  0  0  0  0
  184.6580  176.7420  135.0680 C   0  0  0  0  0  2  0  0  0  0  0  0
  183.5150  175.7530  136.8020 N   0  0  0  0  0  2  0  0  0  0  0  0
  181.7300  174.2620  137.4680 C   0  0  0  0  0  2  0  0  0  0  0  0
  182.5790  173.5520  136.4360 C   0  0  0  0  0  2  0  0  0  0  0  0
  183.2280  174.4800  137.4390 C   0  0  0  0  0  3  0  0  0  0  0  0
  189.0730  177.1030  135.5600 S   0  0  0  0  0  0  0  0  0  0  0  0
  189.5750  174.9570  136.9820 O   0  0  0  0  0  0  0  0  0  0  0  0
  190.0900  175.8190  136.2900 C   0  0  0  0  0  0  0  0  0  0  0  0
  191.5670  175.8120  136.0450 C   0  0  0  0  0  2  0  0  0  0  0  0
  192.5300  174.9530  138.0470 F   0  0  0  0  0  0  0  0  0  0  0  0
  193.5990  176.6340  136.9830 F   0  0  0  0  0  0  0  0  0  0  0  0
  191.6690  177.0390  138.0750 F   0  0  0  0  0  0  0  0  0  0  0  0
  192.3610  176.1130  137.3100 C   0  0  0  0  0  0  0  0  0  0  0  0
  187.2550  178.4570  141.4030 C   0  0  2  0  0  3  0  0  0  0  0  0
  187.4330  177.2300  142.3030 C   0  0  0  0  0  2  0  0  0  0  0  0
  188.3580  177.5510  143.4670 C   0  0  1  0  0  3  0  0  0  0  0  0
  188.3000  178.1530  145.8340 C   0  0  0  0  0  2  0  0  0  0  0  0
  189.4630  177.4900  146.4010 N   0  0  0  0  0  0  0  0  0  0  0  0
  187.6490  177.2830  144.7820 C   0  0  0  0  0  2  0  0  0  0  0  0
  191.7650  177.1910  146.1960 O   0  0  0  0  0  0  0  0  0  0  0  0
  190.6380  177.1640  145.6320 C   0  0  0  0  0  0  0  0  0  0  0  0
  189.6170  176.7580  143.3360 C   0  0  0  0  0  3  0  0  0  0  0  0
  190.5880  176.6440  144.2490 C   0  0  0  0  0  3  0  0  0  0  0  0
  188.1180  177.5150  148.4440 C   0  0  0  0  0  1  0  0  0  0  0  0
  189.5140  177.4300  147.8570 C   0  0  0  0  0  2  0  0  0  0  0  0
  185.8470  179.0830  141.3980 C   0  0  2  0  0  3  0  0  0  0  0  0
  184.8630  179.4410  143.3480 C   0  0  0  0  0  1  0  0  0  0  0  0
  185.7630  180.0040  142.4420 O   0  0  0  0  0  0  0  0  0  0  0  0
  184.7110  178.0740  141.5550 C   0  0  0  0  0  2  0  0  0  0  0  0
  181.7080  177.3970  139.3710 C   0  0  0  0  0  3  0  0  0  0  0  0
  183.6920  178.2020  140.4790 C   0  0  0  0  0  0  0  0  0  0  0  0
  181.7400  178.4770  138.5460 N   0  0  0  0  0  0  0  0  0  0  0  0
  183.6990  179.3120  139.6300 C   0  0  0  0  0  3  0  0  0  0  0  0
  182.7070  179.4280  138.6530 C   0  0  0  0  0  3  0  0  0  0  0  0
  182.6850  177.2420  140.3570 C   0  0  0  0  0  3  0  0  0  0  0  0
  1  3  1  0  0  0  0
  2  1  1  0  0  0  0
  2  3  1  0  0  0  0
  3 24  1  0  0  0  0
  4  3  1  0  0  0  0
  5  4  1  0  0  0  0
  6  5  1  6  0  0  0
  7 10  2  0  0  0  0
  8  9  1  0  0  0  0
  8 12  1  0  0  0  0
 10  9  1  0  0  0  0
 10  6  1  0  0  0  0
 11  7  1  0  0  0  0
 11  8  1  0  0  0  0
 12 15  1  0  0  0  0
 14 15  1  0  0  0  0
 14 13  1  0  0  0  0
 15 13  1  0  0  0  0
 16 18  1  0  0  0  0
 16  6  1  0  0  0  0
 18 17  2  0  0  0  0
 19 18  1  0  0  0  0
 19 23  1  0  0  0  0
 21 23  1  0  0  0  0
 23 20  1  0  0  0  0
 23 22  1  0  0  0  0
 24 25  1  6  0  0  0
 26 25  1  6  0  0  0
 26 29  1  0  0  0  0
 27 28  1  0  0  0  0
 28 35  1  0  0  0  0
 29 27  1  0  0  0  0
 31 30  2  0  0  0  0
 31 28  1  0  0  0  0
 32 26  1  0  0  0  0
 32 33  2  0  0  0  0
 33 31  1  0  0  0  0
 35 34  1  0  0  0  0
 36 24  1  0  0  0  0
 36 39  1  1  0  0  0
 36 38  1  0  0  0  0
 38 37  1  0  0  0  0
 40 45  1  0  0  0  0
 41 39  1  0  0  0  0
 42 44  1  0  0  0  0
 42 40  2  0  0  0  0
 43 41  1  0  0  0  0
 44 43  2  0  0  0  0
 45 41  2  0  0  0  0
M  END
>  <MODEL>
4

>  <REMARK>
 VINA RESULT:      -7.2      3.892      7.504
  Name = 
  18 active torsions:
  status: ('A' for Active; 'I' for Inactive)
    1  A    between atoms: C_1  and  C_22
    2  A    between atoms: C_1  and  C_29
    3  A    between atoms: C_1  and  C_43
    4  A    between atoms: N_3  and  C_22
    5  A    between atoms: N_3  and  C_42
    6  A    between atoms: C_6  and  C_21
    7  A    between atoms: C_6  and  C_43
    8  A    between atoms: C_12  and  C_29
    9  A    between atoms: S_14  and  C_36
   10  A    between atoms: S_14  and  C_41
   11  A    between atoms: N_16  and  N_31
   12  A    between atoms: C_18  and  C_28
   13  A    between atoms: N_19  and  C_40
   14  A    between atoms: C_27  and  C_41
   15  A    between atoms: C_28  and  C_36
   16  A    between atoms: N_31  and  C_44
   17  A    between atoms: O_37  and  C_43
   18  A    between atoms: C_41  and  C_42
                            x       y       z     vdW  Elec       q    Type
                         _______ _______ _______ _____ _____    ______ ____

>  <TORSDO>
F 18

$$$$
=
 OpenBabel11042411393D

 45 49  0  0  1  0  0  0  0  0999 V2000
  190.5730  176.0050  141.6670 C   0  0  0  0  0  2  0  0  0  0  0  0
  191.3200  177.3010  141.3890 C   0  0  0  0  0  2  0  0  0  0  0  0
  189.8380  177.1930  141.0830 C   0  0  0  0  0  0  0  0  0  0  0  0
  189.4500  176.9490  139.6960 N   0  0  0  0  0  2  0  0  0  0  0  0
  190.3980  177.6110  138.8090 C   0  0  0  0  0  2  0  0  0  0  0  0
  190.5320  176.8510  137.5010 C   0  0  1  0  0  3  0  0  0  0  0  0
  192.3260  175.7630  136.2520 N   0  0  0  0  0  0  0  0  0  0  0  0
  194.2070  176.2220  137.6050 N   0  0  0  0  0  0  0  0  0  0  0  0
  193.0220  176.7560  138.1290 N   0  0  0  0  0  2  0  0  0  0  0  0
  191.9470  176.4100  137.2870 C   0  0  0  0  0  0  0  0  0  0  0  0
  193.7730  175.5940  136.3490 C   0  0  0  0  0  2  0  0  0  0  0  0
  194.5950  175.1860  138.4590 N   0  0  0  0  0  2  0  0  0  0  0  0
  196.5290  173.7470  138.2620 C   0  0  0  0  0  2  0  0  0  0  0  0
  195.3030  172.8740  138.4170 C   0  0  0  0  0  2  0  0  0  0  0  0
  195.2160  174.1660  137.6340 C   0  0  0  0  0  3  0  0  0  0  0  0
  189.4020  175.4210  137.5090 S   0  0  0  0  0  0  0  0  0  0  0  0
  188.9190  176.2910  135.0820 O   0  0  0  0  0  0  0  0  0  0  0  0
  188.4040  176.0620  136.1640 C   0  0  0  0  0  0  0  0  0  0  0  0
  186.9430  176.3120  136.3760 C   0  0  0  0  0  2  0  0  0  0  0  0
  185.3200  177.9610  136.9400 F   0  0  0  0  0  0  0  0  0  0  0  0
  187.4850  178.3800  137.4300 F   0  0  0  0  0  0  0  0  0  0  0  0
  186.7880  178.4150  135.2860 F   0  0  0  0  0  0  0  0  0  0  0  0
  186.6280  177.7950  136.5160 C   0  0  0  0  0  0  0  0  0  0  0  0
  188.8270  177.8040  142.0560 C   0  0  2  0  0  3  0  0  0  0  0  0
  187.9310  178.8680  141.4150 C   0  0  0  0  0  2  0  0  0  0  0  0
  186.4670  178.4640  141.5140 C   0  0  1  0  0  3  0  0  0  0  0  0
  184.6470  178.2870  143.1340 C   0  0  0  0  0  2  0  0  0  0  0  0
  183.4580  178.6400  142.3770 N   0  0  0  0  0  0  0  0  0  0  0  0
  185.8230  179.1390  142.7100 C   0  0  0  0  0  2  0  0  0  0  0  0
  182.2270  178.1780  140.4520 O   0  0  0  0  0  0  0  0  0  0  0  0
  183.3500  178.4630  140.9500 C   0  0  0  0  0  0  0  0  0  0  0  0
  185.7700  178.7990  140.2360 C   0  0  0  0  0  3  0  0  0  0  0  0
  184.4530  178.7500  140.0080 C   0  0  0  0  0  3  0  0  0  0  0  0
  182.5930  178.9670  144.6410 C   0  0  0  0  0  1  0  0  0  0  0  0
  182.2600  178.9090  143.1630 C   0  0  0  0  0  2  0  0  0  0  0  0
  189.4220  178.1710  143.4290 C   0  0  2  0  0  3  0  0  0  0  0  0
  190.9350  179.6240  144.1320 C   0  0  0  0  0  1  0  0  0  0  0  0
  190.7500  178.5570  143.2520 O   0  0  0  0  0  0  0  0  0  0  0  0
  189.3840  177.0370  144.4520 C   0  0  0  0  0  2  0  0  0  0  0  0
  188.7410  177.9150  148.0660 C   0  0  0  0  0  3  0  0  0  0  0  0
  188.6860  177.4340  145.7050 C   0  0  0  0  0  0  0  0  0  0  0  0
  187.4270  178.2570  148.0200 N   0  0  0  0  0  0  0  0  0  0  0  0
  187.3390  177.8020  145.6750 C   0  0  0  0  0  3  0  0  0  0  0  0
  186.7180  178.2080  146.8590 C   0  0  0  0  0  3  0  0  0  0  0  0
  189.3970  177.4990  146.9060 C   0  0  0  0  0  3  0  0  0  0  0  0
  2  1  1  0  0  0  0
  3  2  1  0  0  0  0
  3  1  1  0  0  0  0
  3 24  1  0  0  0  0
  4  3  1  0  0  0  0
  5  4  1  0  0  0  0
  6 16  1  0  0  0  0
  6  5  1  1  0  0  0
  7 11  1  0  0  0  0
  7 10  2  0  0  0  0
  8  9  1  0  0  0  0
  8 12  1  0  0  0  0
 10  6  1  0  0  0  0
 10  9  1  0  0  0  0
 11  8  1  0  0  0  0
 13 14  1  0  0  0  0
 15 13  1  0  0  0  0
 15 14  1  0  0  0  0
 15 12  1  0  0  0  0
 17 18  2  0  0  0  0
 18 19  1  0  0  0  0
 18 16  1  0  0  0  0
 19 23  1  0  0  0  0
 22 23  1  0  0  0  0
 23 20  1  0  0  0  0
 23 21  1  0  0  0  0
 24 25  1  6  0  0  0
 24 36  1  0  0  0  0
 26 25  1  6  0  0  0
 26 29  1  0  0  0  0
 28 27  1  0  0  0  0
 28 35  1  0  0  0  0
 29 27  1  0  0  0  0
 30 31  2  0  0  0  0
 31 28  1  0  0  0  0
 32 26  1  0  0  0  0
 33 32  2  0  0  0  0
 33 31  1  0  0  0  0
 35 34  1  0  0  0  0
 36 39  1  1  0  0  0
 38 36  1  0  0  0  0
 38 37  1  0  0  0  0
 39 41  1  0  0  0  0
 41 45  1  0  0  0  0
 42 40  1  0  0  0  0
 43 41  2  0  0  0  0
 43 44  1  0  0  0  0
 44 42  2  0  0  0  0
 45 40  2  0  0  0  0
M  END
>  <MODEL>
5

>  <REMARK>
 VINA RESULT:      -7.2      1.943      2.818
  Name = 
  18 active torsions:
  status: ('A' for Active; 'I' for Inactive)
    1  A    between atoms: C_1  and  C_22
    2  A    between atoms: C_1  and  C_29
    3  A    between atoms: C_1  and  C_43
    4  A    between atoms: N_3  and  C_22
    5  A    between atoms: N_3  and  C_42
    6  A    between atoms: C_6  and  C_21
    7  A    between atoms: C_6  and  C_43
    8  A    between atoms: C_12  and  C_29
    9  A    between atoms: S_14  and  C_36
   10  A    between atoms: S_14  and  C_41
   11  A    between atoms: N_16  and  N_31
   12  A    between atoms: C_18  and  C_28
   13  A    between atoms: N_19  and  C_40
   14  A    between atoms: C_27  and  C_41
   15  A    between atoms: C_28  and  C_36
   16  A    between atoms: N_31  and  C_44
   17  A    between atoms: O_37  and  C_43
   18  A    between atoms: C_41  and  C_42
                            x       y       z     vdW  Elec       q    Type
                         _______ _______ _______ _____ _____    ______ ____

>  <TORSDO>
F 18

$$$$
=
 OpenBabel11042411393D

 45 49  0  0  1  0  0  0  0  0999 V2000
  190.2190  176.4150  141.0880 C   0  0  0  0  0  2  0  0  0  0  0  0
  190.6550  177.8240  141.4610 C   0  0  0  0  0  2  0  0  0  0  0  0
  189.2490  177.5700  140.9490 C   0  0  0  0  0  0  0  0  0  0  0  0
  188.9760  177.8700  139.5460 N   0  0  0  0  0  2  0  0  0  0  0  0
  190.2270  177.8470  138.7980 C   0  0  0  0  0  2  0  0  0  0  0  0
  190.0470  177.1320  137.4710 C   0  0  1  0  0  3  0  0  0  0  0  0
  191.3020  175.4290  136.2520 N   0  0  0  0  0  0  0  0  0  0  0  0
  193.5160  175.8630  136.9540 N   0  0  0  0  0  0  0  0  0  0  0  0
  192.5850  176.7340  137.5360 N   0  0  0  0  0  2  0  0  0  0  0  0
  191.2920  176.3880  137.0970 C   0  0  0  0  0  0  0  0  0  0  0  0
  192.6930  175.0190  136.0770 C   0  0  0  0  0  2  0  0  0  0  0  0
  193.9910  175.0380  137.9760 N   0  0  0  0  0  2  0  0  0  0  0  0
  196.1570  174.1360  137.3910 C   0  0  0  0  0  2  0  0  0  0  0  0
  195.4980  173.1870  138.3680 C   0  0  0  0  0  2  0  0  0  0  0  0
  194.6600  173.9160  137.3420 C   0  0  0  0  0  3  0  0  0  0  0  0
  188.6230  176.0010  137.5760 S   0  0  0  0  0  0  0  0  0  0  0  0
  188.3940  177.5300  135.4570 O   0  0  0  0  0  0  0  0  0  0  0  0
  187.8010  176.7250  136.1560 C   0  0  0  0  0  0  0  0  0  0  0  0
  186.3910  176.3360  135.8350 C   0  0  0  0  0  2  0  0  0  0  0  0
  185.9800  178.2440  137.2000 F   0  0  0  0  0  0  0  0  0  0  0  0
  184.3160  177.5090  135.8610 F   0  0  0  0  0  0  0  0  0  0  0  0
  184.9030  176.3210  137.6850 F   0  0  0  0  0  0  0  0  0  0  0  0
  185.3780  177.1210  136.6570 C   0  0  0  0  0  0  0  0  0  0  0  0
  188.0910  177.4960  141.9470 C   0  0  2  0  0  3  0  0  0  0  0  0
  187.2590  178.7810  142.0100 C   0  0  0  0  0  2  0  0  0  0  0  0
  185.7890  178.4780  141.7610 C   0  0  1  0  0  3  0  0  0  0  0  0
  183.6560  178.3050  142.9390 C   0  0  0  0  0  2  0  0  0  0  0  0
  182.6790  178.8030  141.9860 N   0  0  0  0  0  0  0  0  0  0  0  0
  184.9400  179.1000  142.8540 C   0  0  0  0  0  2  0  0  0  0  0  0
  181.8680  178.5880  139.8110 O   0  0  0  0  0  0  0  0  0  0  0  0
  182.8710  178.7500  140.5580 C   0  0  0  0  0  0  0  0  0  0  0  0
  185.4030  178.9650  140.4030 C   0  0  0  0  0  3  0  0  0  0  0  0
  184.1650  179.0300  139.9000 C   0  0  0  0  0  3  0  0  0  0  0  0
  181.2520  178.6320  143.9660 C   0  0  0  0  0  1  0  0  0  0  0  0
  181.3560  179.0940  142.5250 C   0  0  0  0  0  2  0  0  0  0  0  0
  188.4750  176.8820  143.3070 C   0  0  2  0  0  3  0  0  0  0  0  0
  186.8020  176.7460  144.7490 C   0  0  0  0  0  1  0  0  0  0  0  0
  187.4420  176.0440  143.7270 O   0  0  0  0  0  0  0  0  0  0  0  0
  188.7400  177.9080  144.4070 C   0  0  0  0  0  2  0  0  0  0  0  0
  191.8210  176.3910  145.9710 C   0  0  0  0  0  3  0  0  0  0  0  0
  189.7060  177.4090  145.4210 C   0  0  0  0  0  0  0  0  0  0  0  0
  191.5520  176.5620  147.2920 N   0  0  0  0  0  0  0  0  0  0  0  0
  189.4540  177.5880  146.7840 C   0  0  0  0  0  3  0  0  0  0  0  0
  190.3970  177.1450  147.7140 C   0  0  0  0  0  3  0  0  0  0  0  0
  190.9020  176.8160  145.0090 C   0  0  0  0  0  3  0  0  0  0  0  0
  1  2  1  0  0  0  0
  3  1  1  0  0  0  0
  3  2  1  0  0  0  0
  3 24  1  0  0  0  0
  4  3  1  0  0  0  0
  5  4  1  0  0  0  0
  6 16  1  0  0  0  0
  6  5  1  1  0  0  0
  7 10  2  0  0  0  0
  8  9  1  0  0  0  0
  8 12  1  0  0  0  0
 10  6  1  0  0  0  0
 10  9  1  0  0  0  0
 11  7  1  0  0  0  0
 11  8  1  0  0  0  0
 13 14  1  0  0  0  0
 15 13  1  0  0  0  0
 15 12  1  0  0  0  0
 15 14  1  0  0  0  0
 17 18  2  0  0  0  0
 18 16  1  0  0  0  0
 19 18  1  0  0  0  0
 19 23  1  0  0  0  0
 21 23  1  0  0  0  0
 23 20  1  0  0  0  0
 23 22  1  0  0  0  0
 24 25  1  1  0  0  0
 24 36  1  0  0  0  0
 26 25  1  1  0  0  0
 26 29  1  0  0  0  0
 28 35  1  0  0  0  0
 28 27  1  0  0  0  0
 29 27  1  0  0  0  0
 30 31  2  0  0  0  0
 31 28  1  0  0  0  0
 32 26  1  0  0  0  0
 33 32  2  0  0  0  0
 33 31  1  0  0  0  0
 35 34  1  0  0  0  0
 36 38  1  0  0  0  0
 36 39  1  1  0  0  0
 38 37  1  0  0  0  0
 39 41  1  0  0  0  0
 40 42  1  0  0  0  0
 41 43  2  0  0  0  0
 42 44  2  0  0  0  0
 43 44  1  0  0  0  0
 45 41  1  0  0  0  0
 45 40  2  0  0  0  0
M  END
>  <MODEL>
6

>  <REMARK>
 VINA RESULT:      -7.0      2.070      2.818
  Name = 
  18 active torsions:
  status: ('A' for Active; 'I' for Inactive)
    1  A    between atoms: C_1  and  C_22
    2  A    between atoms: C_1  and  C_29
    3  A    between atoms: C_1  and  C_43
    4  A    between atoms: N_3  and  C_22
    5  A    between atoms: N_3  and  C_42
    6  A    between atoms: C_6  and  C_21
    7  A    between atoms: C_6  and  C_43
    8  A    between atoms: C_12  and  C_29
    9  A    between atoms: S_14  and  C_36
   10  A    between atoms: S_14  and  C_41
   11  A    between atoms: N_16  and  N_31
   12  A    between atoms: C_18  and  C_28
   13  A    between atoms: N_19  and  C_40
   14  A    between atoms: C_27  and  C_41
   15  A    between atoms: C_28  and  C_36
   16  A    between atoms: N_31  and  C_44
   17  A    between atoms: O_37  and  C_43
   18  A    between atoms: C_41  and  C_42
                            x       y       z     vdW  Elec       q    Type
                         _______ _______ _______ _____ _____    ______ ____

>  <TORSDO>
F 18

$$$$
=
 OpenBabel11042411393D

 45 49  0  0  1  0  0  0  0  0999 V2000
  190.3720  176.7520  140.1430 C   0  0  0  0  0  2  0  0  0  0  0  0
  190.2840  178.2350  139.8170 C   0  0  0  0  0  2  0  0  0  0  0  0
  189.0310  177.4560  140.1730 C   0  0  0  0  0  0  0  0  0  0  0  0
  188.1750  177.0150  139.0750 N   0  0  0  0  0  2  0  0  0  0  0  0
  188.9520  176.9850  137.8430 C   0  0  0  0  0  2  0  0  0  0  0  0
  188.8660  175.6180  137.1860 C   0  0  1  0  0  3  0  0  0  0  0  0
  186.7730  176.0570  136.0100 N   0  0  0  0  0  0  0  0  0  0  0  0
  185.5040  174.1370  136.5460 N   0  0  0  0  0  0  0  0  0  0  0  0
  186.7800  174.1190  137.1250 N   0  0  0  0  0  2  0  0  0  0  0  0
  187.4560  175.3080  136.7880 C   0  0  0  0  0  0  0  0  0  0  0  0
  185.4940  175.3910  135.7790 C   0  0  0  0  0  2  0  0  0  0  0  0
  184.5900  174.2990  137.5910 N   0  0  0  0  0  2  0  0  0  0  0  0
  182.1780  174.1850  137.4440 C   0  0  0  0  0  2  0  0  0  0  0  0
  182.5480  175.4650  138.1600 C   0  0  0  0  0  2  0  0  0  0  0  0
  183.4180  174.9510  137.0340 C   0  0  0  0  0  3  0  0  0  0  0  0
  189.9750  175.5670  135.7400 S   0  0  0  0  0  0  0  0  0  0  0  0
  191.0380  174.0570  137.6030 O   0  0  0  0  0  0  0  0  0  0  0  0
  191.2990  174.7650  136.6450 C   0  0  0  0  0  0  0  0  0  0  0  0
  192.7200  174.9690  136.2170 C   0  0  0  0  0  2  0  0  0  0  0  0
  192.5340  176.7540  137.7830 F   0  0  0  0  0  0  0  0  0  0  0  0
  194.2390  175.2920  138.0270 F   0  0  0  0  0  0  0  0  0  0  0  0
  194.2590  176.7740  136.3270 F   0  0  0  0  0  0  0  0  0  0  0  0
  193.4510  175.9630  137.1100 C   0  0  0  0  0  0  0  0  0  0  0  0
  188.4520  177.5730  141.5840 C   0  0  2  0  0  3  0  0  0  0  0  0
  187.5900  178.8230  141.7870 C   0  0  0  0  0  2  0  0  0  0  0  0
  186.1130  178.4740  141.6780 C   0  0  1  0  0  3  0  0  0  0  0  0
  184.0990  178.2720  143.0470 C   0  0  0  0  0  2  0  0  0  0  0  0
  183.0270  178.7220  142.1760 N   0  0  0  0  0  0  0  0  0  0  0  0
  185.3470  179.0990  142.8300 C   0  0  0  0  0  2  0  0  0  0  0  0
  182.0310  178.4350  140.0880 O   0  0  0  0  0  0  0  0  0  0  0  0
  183.0920  178.6410  140.7370 C   0  0  0  0  0  0  0  0  0  0  0  0
  185.5920  178.9190  140.3510 C   0  0  0  0  0  3  0  0  0  0  0  0
  184.3130  178.9400  139.9600 C   0  0  0  0  0  3  0  0  0  0  0  0
  181.8180  178.6470  144.3010 C   0  0  0  0  0  1  0  0  0  0  0  0
  181.7490  178.9890  142.8250 C   0  0  0  0  0  2  0  0  0  0  0  0
  189.4680  177.2740  142.7040 C   0  0  2  0  0  3  0  0  0  0  0  0
  190.1810  175.2370  143.1920 C   0  0  0  0  0  1  0  0  0  0  0  0
  189.0920  176.0960  143.3470 O   0  0  0  0  0  0  0  0  0  0  0  0
  189.5880  178.3780  143.7540 C   0  0  0  0  0  2  0  0  0  0  0  0
  187.6670  177.3730  146.8440 C   0  0  0  0  0  3  0  0  0  0  0  0
  189.2750  177.8880  145.1230 C   0  0  0  0  0  0  0  0  0  0  0  0
  188.6700  176.8960  147.6270 N   0  0  0  0  0  0  0  0  0  0  0  0
  190.2900  177.3810  145.9390 C   0  0  0  0  0  3  0  0  0  0  0  0
  189.9630  176.8910  147.2060 C   0  0  0  0  0  3  0  0  0  0  0  0
  187.9530  177.8760  145.5720 C   0  0  0  0  0  3  0  0  0  0  0  0
  1  3  1  0  0  0  0
  2  1  1  0  0  0  0
  2  3  1  0  0  0  0
  3 24  1  0  0  0  0
  4  3  1  0  0  0  0
  5  4  1  0  0  0  0
  6  5  1  6  0  0  0
  7 10  2  0  0  0  0
  8  9  1  0  0  0  0
  8 12  1  0  0  0  0
 10  9  1  0  0  0  0
 10  6  1  0  0  0  0
 11  7  1  0  0  0  0
 11  8  1  0  0  0  0
 13 14  1  0  0  0  0
 15 13  1  0  0  0  0
 15 12  1  0  0  0  0
 15 14  1  0  0  0  0
 16 18  1  0  0  0  0
 16  6  1  0  0  0  0
 18 17  2  0  0  0  0
 19 18  1  0  0  0  0
 19 23  1  0  0  0  0
 22 23  1  0  0  0  0
 23 20  1  0  0  0  0
 23 21  1  0  0  0  0
 24 25  1  1  0  0  0
 24 36  1  0  0  0  0
 26 25  1  1  0  0  0
 26 29  1  0  0  0  0
 28 35  1  0  0  0  0
 28 27  1  0  0  0  0
 29 27  1  0  0  0  0
 30 31  2  0  0  0  0
 31 28  1  0  0  0  0
 32 26  1  0  0  0  0
 33 32  2  0  0  0  0
 33 31  1  0  0  0  0
 35 34  1  0  0  0  0
 36 38  1  0  0  0  0
 36 39  1  1  0  0  0
 37 38  1  0  0  0  0
 39 41  1  0  0  0  0
 40 42  1  0  0  0  0
 41 45  1  0  0  0  0
 41 43  2  0  0  0  0
 43 44  1  0  0  0  0
 44 42  2  0  0  0  0
 45 40  2  0  0  0  0
M  END
>  <MODEL>
7

>  <REMARK>
 VINA RESULT:      -7.0      3.679      5.920
  Name = 
  18 active torsions:
  status: ('A' for Active; 'I' for Inactive)
    1  A    between atoms: C_1  and  C_22
    2  A    between atoms: C_1  and  C_29
    3  A    between atoms: C_1  and  C_43
    4  A    between atoms: N_3  and  C_22
    5  A    between atoms: N_3  and  C_42
    6  A    between atoms: C_6  and  C_21
    7  A    between atoms: C_6  and  C_43
    8  A    between atoms: C_12  and  C_29
    9  A    between atoms: S_14  and  C_36
   10  A    between atoms: S_14  and  C_41
   11  A    between atoms: N_16  and  N_31
   12  A    between atoms: C_18  and  C_28
   13  A    between atoms: N_19  and  C_40
   14  A    between atoms: C_27  and  C_41
   15  A    between atoms: C_28  and  C_36
   16  A    between atoms: N_31  and  C_44
   17  A    between atoms: O_37  and  C_43
   18  A    between atoms: C_41  and  C_42
                            x       y       z     vdW  Elec       q    Type
                         _______ _______ _______ _____ _____    ______ ____

>  <TORSDO>
F 18

$$$$
=
 OpenBabel11042411393D

 45 49  0  0  1  0  0  0  0  0999 V2000
  187.6480  177.8850  137.5350 C   0  0  0  0  0  2  0  0  0  0  0  0
  188.9710  178.6340  137.4880 C   0  0  0  0  0  2  0  0  0  0  0  0
  188.9130  177.2190  138.0350 C   0  0  0  0  0  0  0  0  0  0  0  0
  188.8900  177.0570  139.4870 N   0  0  0  0  0  2  0  0  0  0  0  0
  188.6820  178.3560  140.1120 C   0  0  0  0  0  2  0  0  0  0  0  0
  188.6380  178.2240  141.6240 C   0  0  1  0  0  3  0  0  0  0  0  0
  186.3210  178.9810  141.4770 N   0  0  0  0  0  0  0  0  0  0  0  0
  185.3840  178.0550  143.4390 N   0  0  0  0  0  0  0  0  0  0  0  0
  186.7450  177.7540  143.2970 N   0  0  0  0  0  2  0  0  0  0  0  0
  187.2350  178.3680  142.1280 C   0  0  0  0  0  0  0  0  0  0  0  0
  185.0780  178.8340  142.2300 C   0  0  0  0  0  2  0  0  0  0  0  0
  185.2750  178.9330  144.5200 N   0  0  0  0  0  2  0  0  0  0  0  0
  185.9590  179.2580  146.8170 C   0  0  0  0  0  2  0  0  0  0  0  0
  184.8950  178.1820  146.7880 C   0  0  0  0  0  2  0  0  0  0  0  0
  185.8980  178.2840  145.6600 C   0  0  0  0  0  3  0  0  0  0  0  0
  189.3420  176.6180  142.1170 S   0  0  0  0  0  0  0  0  0  0  0  0
  191.1280  178.4170  142.7870 O   0  0  0  0  0  0  0  0  0  0  0  0
  190.6210  177.3630  143.1290 C   0  0  0  0  0  0  0  0  0  0  0  0
  191.0580  176.6850  144.3910 C   0  0  0  0  0  2  0  0  0  0  0  0
  190.2020  178.4180  145.7820 F   0  0  0  0  0  0  0  0  0  0  0  0
  188.8700  176.6480  145.3370 F   0  0  0  0  0  0  0  0  0  0  0  0
  190.6410  176.4090  146.7120 F   0  0  0  0  0  0  0  0  0  0  0  0
  190.1730  177.0490  145.5750 C   0  0  0  0  0  0  0  0  0  0  0  0
  189.3620  176.0560  137.1490 C   0  0  2  0  0  3  0  0  0  0  0  0
  190.0980  176.5030  135.8820 C   0  0  0  0  0  2  0  0  0  0  0  0
  191.5770  176.1610  135.9760 C   0  0  1  0  0  3  0  0  0  0  0  0
  193.4250  176.1280  137.5740 C   0  0  0  0  0  2  0  0  0  0  0  0
  194.2100  174.9670  137.1900 N   0  0  0  0  0  0  0  0  0  0  0  0
  191.9470  175.8500  137.4150 C   0  0  0  0  0  2  0  0  0  0  0  0
  195.2940  173.9110  135.4160 O   0  0  0  0  0  0  0  0  0  0  0  0
  194.2330  174.4390  135.8480 C   0  0  0  0  0  0  0  0  0  0  0  0
  191.8860  175.0240  135.0580 C   0  0  0  0  0  3  0  0  0  0  0  0
  193.0320  174.3380  134.9920 C   0  0  0  0  0  3  0  0  0  0  0  0
  195.1560  173.0250  138.3380 C   0  0  0  0  0  1  0  0  0  0  0  0
  195.2120  174.5290  138.1540 C   0  0  0  0  0  2  0  0  0  0  0  0
  188.2860  174.9700  136.9490 C   0  0  2  0  0  3  0  0  0  0  0  0
  188.8110  173.1320  135.8350 C   0  0  0  0  0  1  0  0  0  0  0  0
  188.8810  173.7180  137.0990 O   0  0  0  0  0  0  0  0  0  0  0  0
  187.5960  175.0150  135.5870 C   0  0  0  0  0  2  0  0  0  0  0  0
  184.1230  175.0720  137.0640 C   0  0  0  0  0  3  0  0  0  0  0  0
  186.1170  175.1130  135.7090 C   0  0  0  0  0  0  0  0  0  0  0  0
  183.3810  175.3820  135.9690 N   0  0  0  0  0  0  0  0  0  0  0  0
  185.3380  175.4430  134.5980 C   0  0  0  0  0  3  0  0  0  0  0  0
  183.9540  175.5660  134.7490 C   0  0  0  0  0  3  0  0  0  0  0  0
  185.5090  174.9350  136.9540 C   0  0  0  0  0  3  0  0  0  0  0  0
  1  3  1  0  0  0  0
  2  1  1  0  0  0  0
  2  3  1  0  0  0  0
  3  4  1  0  0  0  0
  4  5  1  0  0  0  0
  6  5  1  6  0  0  0
  6 16  1  0  0  0  0
  6 10  1  0  0  0  0
  7 10  2  0  0  0  0
  7 11  1  0  0  0  0
  8 12  1  0  0  0  0
  9  8  1  0  0  0  0
 10  9  1  0  0  0  0
 11  8  1  0  0  0  0
 12 15  1  0  0  0  0
 14 13  1  0  0  0  0
 15 14  1  0  0  0  0
 15 13  1  0  0  0  0
 16 18  1  0  0  0  0
 17 18  2  0  0  0  0
 18 19  1  0  0  0  0
 19 23  1  0  0  0  0
 21 23  1  0  0  0  0
 23 20  1  0  0  0  0
 23 22  1  0  0  0  0
 24 25  1  6  0  0  0
 24  3  1  0  0  0  0
 26 25  1  1  0  0  0
 26 29  1  0  0  0  0
 28 27  1  0  0  0  0
 28 35  1  0  0  0  0
 29 27  1  0  0  0  0
 30 31  2  0  0  0  0
 31 28  1  0  0  0  0
 32 26  1  0  0  0  0
 33 32  2  0  0  0  0
 33 31  1  0  0  0  0
 35 34  1  0  0  0  0
 36 39  1  6  0  0  0
 36 38  1  0  0  0  0
 36 24  1  0  0  0  0
 37 38  1  0  0  0  0
 39 41  1  0  0  0  0
 41 45  2  0  0  0  0
 42 40  2  0  0  0  0
 43 44  2  0  0  0  0
 43 41  1  0  0  0  0
 44 42  1  0  0  0  0
 45 40  1  0  0  0  0
M  END
>  <MODEL>
8

>  <REMARK>
 VINA RESULT:      -6.9      3.625     10.391
  Name = 
  18 active torsions:
  status: ('A' for Active; 'I' for Inactive)
    1  A    between atoms: C_1  and  C_22
    2  A    between atoms: C_1  and  C_29
    3  A    between atoms: C_1  and  C_43
    4  A    between atoms: N_3  and  C_22
    5  A    between atoms: N_3  and  C_42
    6  A    between atoms: C_6  and  C_21
    7  A    between atoms: C_6  and  C_43
    8  A    between atoms: C_12  and  C_29
    9  A    between atoms: S_14  and  C_36
   10  A    between atoms: S_14  and  C_41
   11  A    between atoms: N_16  and  N_31
   12  A    between atoms: C_18  and  C_28
   13  A    between atoms: N_19  and  C_40
   14  A    between atoms: C_27  and  C_41
   15  A    between atoms: C_28  and  C_36
   16  A    between atoms: N_31  and  C_44
   17  A    between atoms: O_37  and  C_43
   18  A    between atoms: C_41  and  C_42
                            x       y       z     vdW  Elec       q    Type
                         _______ _______ _______ _____ _____    ______ ____

>  <TORSDO>
F 18

$$$$
=
 OpenBabel11042411393D

 45 49  0  0  1  0  0  0  0  0999 V2000
  190.1010  176.4210  139.8290 C   0  0  0  0  0  2  0  0  0  0  0  0
  190.3730  177.9050  139.6380 C   0  0  0  0  0  2  0  0  0  0  0  0
  188.9740  177.4220  139.9750 C   0  0  0  0  0  0  0  0  0  0  0  0
  188.0170  177.3080  138.8770 N   0  0  0  0  0  2  0  0  0  0  0  0
  188.6420  177.7710  137.6450 C   0  0  0  0  0  2  0  0  0  0  0  0
  188.6300  176.6770  136.5910 C   0  0  1  0  0  3  0  0  0  0  0  0
  186.3900  177.3990  135.9420 N   0  0  0  0  0  0  0  0  0  0  0  0
  185.4510  175.3910  135.1240 N   0  0  0  0  0  0  0  0  0  0  0  0
  186.7690  175.2280  135.5710 N   0  0  0  0  0  2  0  0  0  0  0  0
  187.2420  176.4560  136.0730 C   0  0  0  0  0  0  0  0  0  0  0  0
  185.1960  176.8240  135.3280 C   0  0  0  0  0  2  0  0  0  0  0  0
  184.6320  174.7060  136.0240 N   0  0  0  0  0  2  0  0  0  0  0  0
  184.9820  173.0140  137.7160 C   0  0  0  0  0  2  0  0  0  0  0  0
  184.2020  172.3910  136.5790 C   0  0  0  0  0  2  0  0  0  0  0  0
  185.2660  173.4270  136.2880 C   0  0  0  0  0  3  0  0  0  0  0  0
  189.7640  177.1230  135.2370 S   0  0  0  0  0  0  0  0  0  0  0  0
  191.8470  176.1230  136.4770 O   0  0  0  0  0  0  0  0  0  0  0  0
  190.9630  175.8650  135.6770 C   0  0  0  0  0  0  0  0  0  0  0  0
  190.8720  174.5040  135.0610 C   0  0  0  0  0  2  0  0  0  0  0  0
  190.3920  172.2160  135.5200 F   0  0  0  0  0  0  0  0  0  0  0  0
  192.0380  173.2200  136.6970 F   0  0  0  0  0  0  0  0  0  0  0  0
  189.8840  173.7590  137.0870 F   0  0  0  0  0  0  0  0  0  0  0  0
  190.7990  173.4020  136.1090 C   0  0  0  0  0  0  0  0  0  0  0  0
  188.4670  177.5420  141.4130 C   0  0  2  0  0  3  0  0  0  0  0  0
  187.6310  178.8010  141.6610 C   0  0  0  0  0  2  0  0  0  0  0  0
  186.1460  178.4780  141.5940 C   0  0  1  0  0  3  0  0  0  0  0  0
  184.1790  178.2570  143.0260 C   0  0  0  0  0  2  0  0  0  0  0  0
  183.0830  178.7520  142.2090 N   0  0  0  0  0  0  0  0  0  0  0  0
  185.4300  179.0740  142.7920 C   0  0  0  0  0  2  0  0  0  0  0  0
  182.0110  178.5500  140.1490 O   0  0  0  0  0  0  0  0  0  0  0  0
  183.0970  178.7190  140.7670 C   0  0  0  0  0  0  0  0  0  0  0  0
  185.5860  178.9750  140.3010 C   0  0  0  0  0  3  0  0  0  0  0  0
  184.2940  179.0270  139.9570 C   0  0  0  0  0  3  0  0  0  0  0  0
  182.0840  179.1960  144.3970 C   0  0  0  0  0  1  0  0  0  0  0  0
  181.8340  179.0150  142.9130 C   0  0  0  0  0  2  0  0  0  0  0  0
  189.5320  177.2260  142.4810 C   0  0  2  0  0  3  0  0  0  0  0  0
  190.3680  175.3140  143.2170 C   0  0  0  0  0  1  0  0  0  0  0  0
  189.1810  176.0410  143.1270 O   0  0  0  0  0  0  0  0  0  0  0  0
  189.7040  178.3170  143.5360 C   0  0  0  0  0  2  0  0  0  0  0  0
  189.7560  177.1390  147.1220 C   0  0  0  0  0  3  0  0  0  0  0  0
  189.2510  177.8740  144.8820 C   0  0  0  0  0  0  0  0  0  0  0  0
  188.4280  177.1390  147.4130 N   0  0  0  0  0  0  0  0  0  0  0  0
  187.8920  177.8800  145.2060 C   0  0  0  0  0  3  0  0  0  0  0  0
  187.4960  177.4980  146.4890 C   0  0  0  0  0  3  0  0  0  0  0  0
  190.1920  177.5100  145.8480 C   0  0  0  0  0  3  0  0  0  0  0  0
  1  3  1  0  0  0  0
  2  1  1  0  0  0  0
  2  3  1  0  0  0  0
  3 24  1  0  0  0  0
  4  3  1  0  0  0  0
  5  4  1  0  0  0  0
  6  5  1  1  0  0  0
  7 10  2  0  0  0  0
  8 11  1  0  0  0  0
  8  9  1  0  0  0  0
  8 12  1  0  0  0  0
  9 10  1  0  0  0  0
 10  6  1  0  0  0  0
 11  7  1  0  0  0  0
 12 15  1  0  0  0  0
 14 13  1  0  0  0  0
 15 14  1  0  0  0  0
 15 13  1  0  0  0  0
 16 18  1  0  0  0  0
 16  6  1  0  0  0  0
 18 17  2  0  0  0  0
 19 18  1  0  0  0  0
 19 23  1  0  0  0  0
 20 23  1  0  0  0  0
 23 21  1  0  0  0  0
 23 22  1  0  0  0  0
 24 25  1  1  0  0  0
 24 36  1  0  0  0  0
 26 25  1  1  0  0  0
 26 29  1  0  0  0  0
 28 35  1  0  0  0  0
 28 27  1  0  0  0  0
 29 27  1  0  0  0  0
 30 31  2  0  0  0  0
 31 28  1  0  0  0  0
 32 26  1  0  0  0  0
 33 32  2  0  0  0  0
 33 31  1  0  0  0  0
 35 34  1  0  0  0  0
 36 38  1  0  0  0  0
 36 39  1  1  0  0  0
 38 37  1  0  0  0  0
 39 41  1  0  0  0  0
 40 42  1  0  0  0  0
 41 43  2  0  0  0  0
 41 45  1  0  0  0  0
 43 44  1  0  0  0  0
 44 42  2  0  0  0  0
 45 40  2  0  0  0  0
M  END
>  <MODEL>
9

>  <REMARK>
 VINA RESULT:      -6.7      3.543      5.468
  Name = 
  18 active torsions:
  status: ('A' for Active; 'I' for Inactive)
    1  A    between atoms: C_1  and  C_22
    2  A    between atoms: C_1  and  C_29
    3  A    between atoms: C_1  and  C_43
    4  A    between atoms: N_3  and  C_22
    5  A    between atoms: N_3  and  C_42
    6  A    between atoms: C_6  and  C_21
    7  A    between atoms: C_6  and  C_43
    8  A    between atoms: C_12  and  C_29
    9  A    between atoms: S_14  and  C_36
   10  A    between atoms: S_14  and  C_41
   11  A    between atoms: N_16  and  N_31
   12  A    between atoms: C_18  and  C_28
   13  A    between atoms: N_19  and  C_40
   14  A    between atoms: C_27  and  C_41
   15  A    between atoms: C_28  and  C_36
   16  A    between atoms: N_31  and  C_44
   17  A    between atoms: O_37  and  C_43
   18  A    between atoms: C_41  and  C_42
                            x       y       z     vdW  Elec       q    Type
                         _______ _______ _______ _____ _____    ______ ____

>  <TORSDO>
F 18

$$$$
