=
 OpenBabel11032419203D

 25 28  0  0  1  0  0  0  0  0999 V2000
  185.6720  179.0180  146.3490 C   0  0  0  0  0  3  0  0  0  0  0  0
  184.8500  178.8760  145.2110 C   0  0  0  0  0  0  0  0  0  0  0  0
  188.5480  177.2270  145.1190 C   0  0  1  0  0  3  0  0  0  0  0  0
  185.3300  178.1680  144.0900 C   0  0  0  0  0  0  0  0  0  0  0  0
  187.3730  177.7950  145.2880 C   0  0  0  0  0  0  0  0  0  0  0  0
  189.6220  177.1780  146.1050 C   0  0  0  0  0  3  0  0  0  0  0  0
  189.6360  177.1390  142.9500 N   0  0  0  0  0  0  0  0  0  0  0  0
  184.4920  178.0010  142.8650 C   0  0  0  0  0  1  0  0  0  0  0  0
  190.8960  176.9080  145.8220 C   0  0  0  0  0  3  0  0  0  0  0  0
  186.6160  177.6300  144.1650 C   0  0  0  0  0  0  0  0  0  0  0  0
  183.5790  179.4370  145.2080 O   0  0  0  0  0  1  0  0  0  0  0  0
  188.5490  176.5880  143.7680 C   0  0  2  0  0  3  0  0  0  0  0  0
  186.9250  178.4760  146.3730 N   0  0  0  0  0  0  0  0  0  0  0  0
  191.5210  176.6950  144.4990 C   0  0  0  0  0  3  0  0  0  0  0  0
  187.2230  176.9580  143.2450 N   0  0  0  0  0  2  0  0  0  0  0  0
  190.9980  176.8210  143.2710 C   0  0  0  0  0  3  0  0  0  0  0  0
  189.4020  177.6150  141.6140 C   0  0  0  0  0  0  0  0  0  0  0  0
  188.8920  178.5270  139.0370 C   0  0  0  0  0  3  0  0  0  0  0  0
  189.8310  177.5120  139.2290 C   0  0  0  0  0  0  0  0  0  0  0  0
  188.2330  179.0580  140.1010 N   0  0  0  0  0  0  0  0  0  0  0  0
  190.0840  177.0490  140.5260 C   0  0  0  0  0  0  0  0  0  0  0  0
  188.4640  178.6280  141.3690 C   0  0  0  0  0  3  0  0  0  0  0  0
  191.0000  176.0670  140.7350 F   0  0  0  0  0  0  0  0  0  0  0  0
  191.0750  176.5110  137.1840 N   0  0  0  0  0  0  0  0  0  0  0  0
  190.5200  176.9570  138.0960 C   0  0  0  0  0  0  0  0  0  0  0  0
  1 13  1  0  0  0  0
  2  1  2  0  0  0  0
  3  5  1  0  0  0  0
  3  6  1  1  0  0  0
  4 10  2  0  0  0  0
  4  2  1  0  0  0  0
  5 13  2  0  0  0  0
  7 16  1  0  0  0  0
  7 12  1  0  0  0  0
  8  4  1  0  0  0  0
  9  6  2  0  0  0  0
 10  5  1  0  0  0  0
 11  2  1  0  0  0  0
 12 15  1  6  0  0  0
 12  3  1  0  0  0  0
 14  9  1  0  0  0  0
 15 10  1  0  0  0  0
 16 14  2  0  0  0  0
 17  7  1  0  0  0  0
 18 19  2  0  0  0  0
 18 20  1  0  0  0  0
 19 21  1  0  0  0  0
 20 22  2  0  0  0  0
 21 23  1  0  0  0  0
 21 17  2  0  0  0  0
 22 17  1  0  0  0  0
 24 25  3  0  0  0  0
 25 19  1  0  0  0  0
M  END
>  <MODEL>
1

>  <REMARK>
 VINA RESULT:      -9.3      0.000      0.000
  Name = 
  2 active torsions:
  status: ('A' for Active; 'I' for Inactive)
    1  A    between atoms: C_4  and  N_10
    2  A    between atoms: C_13  and  C_20
                            x       y       z     vdW  Elec       q    Type
                         _______ _______ _______ _____ _____    ______ ____

>  <TORSDO>
F 2

$$$$
=
 OpenBabel11032419203D

 25 28  0  0  1  0  0  0  0  0999 V2000
  185.9550  179.1270  140.4500 C   0  0  0  0  0  3  0  0  0  0  0  0
  187.1010  178.4230  140.0210 C   0  0  0  0  0  0  0  0  0  0  0  0
  185.9650  178.0510  143.8900 C   0  0  1  0  0  3  0  0  0  0  0  0
  187.8050  177.6150  140.9360 C   0  0  0  0  0  0  0  0  0  0  0  0
  186.2120  178.2480  142.6130 C   0  0  0  0  0  0  0  0  0  0  0  0
  184.8500  178.6170  144.6420 C   0  0  0  0  0  3  0  0  0  0  0  0
  187.7420  177.7010  145.5070 N   0  0  0  0  0  0  0  0  0  0  0  0
  189.0240  176.8590  140.5210 C   0  0  0  0  0  1  0  0  0  0  0  0
  184.7930  178.6890  145.9710 C   0  0  0  0  0  3  0  0  0  0  0  0
  187.3240  177.5480  142.2450 C   0  0  0  0  0  0  0  0  0  0  0  0
  187.5210  178.5360  138.7010 O   0  0  0  0  0  1  0  0  0  0  0  0
  186.9900  177.0910  144.4040 C   0  0  2  0  0  3  0  0  0  0  0  0
  185.5260  179.0320  141.7430 N   0  0  0  0  0  0  0  0  0  0  0  0
  185.8290  178.3180  146.9580 C   0  0  0  0  0  3  0  0  0  0  0  0
  187.8330  176.8690  143.2180 N   0  0  0  0  0  2  0  0  0  0  0  0
  187.0970  177.9260  146.7690 C   0  0  0  0  0  3  0  0  0  0  0  0
  189.1800  177.6860  145.5330 C   0  0  0  0  0  0  0  0  0  0  0  0
  191.9600  177.6420  145.5250 C   0  0  0  0  0  3  0  0  0  0  0  0
  191.2680  176.8990  146.4830 C   0  0  0  0  0  0  0  0  0  0  0  0
  191.2790  178.3740  144.6050 N   0  0  0  0  0  0  0  0  0  0  0  0
  189.8670  176.9180  146.4840 C   0  0  0  0  0  0  0  0  0  0  0  0
  189.9200  178.4090  144.5870 C   0  0  0  0  0  3  0  0  0  0  0  0
  189.1750  176.2080  147.4130 F   0  0  0  0  0  0  0  0  0  0  0  0
  192.5890  175.5080  148.2300 N   0  0  0  0  0  0  0  0  0  0  0  0
  191.9990  176.1280  147.4510 C   0  0  0  0  0  0  0  0  0  0  0  0
  1 13  1  0  0  0  0
  2  1  2  0  0  0  0
  2  4  1  0  0  0  0
  3 12  1  0  0  0  0
  3  6  1  6  0  0  0
  4 10  2  0  0  0  0
  5  3  1  0  0  0  0
  6  9  2  0  0  0  0
  7 17  1  0  0  0  0
  7 16  1  0  0  0  0
  8  4  1  0  0  0  0
  9 14  1  0  0  0  0
 10  5  1  0  0  0  0
 10 15  1  0  0  0  0
 11  2  1  0  0  0  0
 12 15  1  6  0  0  0
 12  7  1  0  0  0  0
 13  5  2  0  0  0  0
 16 14  2  0  0  0  0
 17 21  1  0  0  0  0
 18 19  1  0  0  0  0
 19 21  2  0  0  0  0
 19 25  1  0  0  0  0
 20 18  2  0  0  0  0
 21 23  1  0  0  0  0
 22 20  1  0  0  0  0
 22 17  2  0  0  0  0
 25 24  3  0  0  0  0
M  END
>  <MODEL>
2

>  <REMARK>
 VINA RESULT:      -8.6      2.886      5.764
  Name = 
  2 active torsions:
  status: ('A' for Active; 'I' for Inactive)
    1  A    between atoms: C_4  and  N_10
    2  A    between atoms: C_13  and  C_20
                            x       y       z     vdW  Elec       q    Type
                         _______ _______ _______ _____ _____    ______ ____

>  <TORSDO>
F 2

$$$$
=
 OpenBabel11032419203D

 25 28  0  0  1  0  0  0  0  0999 V2000
  191.6730  177.6600  145.3030 C   0  0  0  0  0  3  0  0  0  0  0  0
  190.9060  177.2400  146.4100 C   0  0  0  0  0  0  0  0  0  0  0  0
  189.0970  177.4350  142.7920 C   0  0  1  0  0  3  0  0  0  0  0  0
  189.5500  176.8970  146.2280 C   0  0  0  0  0  0  0  0  0  0  0  0
  189.8080  177.4030  143.8980 C   0  0  0  0  0  0  0  0  0  0  0  0
  189.5900  177.8090  141.4710 C   0  0  0  0  0  3  0  0  0  0  0  0
  186.7330  177.9890  142.7970 N   0  0  0  0  0  0  0  0  0  0  0  0
  188.7050  176.4530  147.3760 C   0  0  0  0  0  1  0  0  0  0  0  0
  188.8140  178.1590  140.4450 C   0  0  0  0  0  3  0  0  0  0  0  0
  189.0260  176.9900  144.9380 C   0  0  0  0  0  0  0  0  0  0  0  0
  191.4950  177.1680  147.6670 O   0  0  0  0  0  1  0  0  0  0  0  0
  187.7220  176.9550  143.1270 C   0  0  2  0  0  3  0  0  0  0  0  0
  191.1140  177.7380  144.0600 N   0  0  0  0  0  0  0  0  0  0  0  0
  187.3470  178.3360  140.4200 C   0  0  0  0  0  3  0  0  0  0  0  0
  187.8150  176.7250  144.5780 N   0  0  0  0  0  2  0  0  0  0  0  0
  186.4580  178.2950  141.4220 C   0  0  0  0  0  3  0  0  0  0  0  0
  185.7300  178.3960  143.7430 C   0  0  0  0  0  0  0  0  0  0  0  0
  183.8110  179.1450  145.6110 C   0  0  0  0  0  3  0  0  0  0  0  0
  183.4060  178.7610  144.3320 C   0  0  0  0  0  0  0  0  0  0  0  0
  185.1310  179.1470  145.9370 N   0  0  0  0  0  0  0  0  0  0  0  0
  184.3710  178.3790  143.3920 C   0  0  0  0  0  0  0  0  0  0  0  0
  186.0860  178.7830  145.0420 C   0  0  0  0  0  3  0  0  0  0  0  0
  183.9980  178.0090  142.1390 F   0  0  0  0  0  0  0  0  0  0  0  0
  180.8810  178.7630  143.7300 N   0  0  0  0  0  0  0  0  0  0  0  0
  182.0070  178.7620  143.9980 C   0  0  0  0  0  0  0  0  0  0  0  0
  1  2  1  0  0  0  0
  2 11  1  0  0  0  0
  3  6  1  6  0  0  0
  3 12  1  0  0  0  0
  3  5  1  0  0  0  0
  4  2  2  0  0  0  0
  4  8  1  0  0  0  0
  5 13  1  0  0  0  0
  5 10  2  0  0  0  0
  7 12  1  0  0  0  0
  7 17  1  0  0  0  0
  9  6  2  0  0  0  0
 10  4  1  0  0  0  0
 12 15  1  1  0  0  0
 13  1  2  0  0  0  0
 14  9  1  0  0  0  0
 14 16  2  0  0  0  0
 15 10  1  0  0  0  0
 16  7  1  0  0  0  0
 17 22  1  0  0  0  0
 18 20  1  0  0  0  0
 19 18  2  0  0  0  0
 21 17  2  0  0  0  0
 21 19  1  0  0  0  0
 22 20  2  0  0  0  0
 23 21  1  0  0  0  0
 24 25  3  0  0  0  0
 25 19  1  0  0  0  0
M  END
>  <MODEL>
3

>  <REMARK>
 VINA RESULT:      -8.1      3.028      6.242
  Name = 
  2 active torsions:
  status: ('A' for Active; 'I' for Inactive)
    1  A    between atoms: C_4  and  N_10
    2  A    between atoms: C_13  and  C_20
                            x       y       z     vdW  Elec       q    Type
                         _______ _______ _______ _____ _____    ______ ____

>  <TORSDO>
F 2

$$$$
=
 OpenBabel11032419203D

 25 28  0  0  1  0  0  0  0  0999 V2000
  188.7610  176.7140  142.9030 C   0  0  0  0  0  3  0  0  0  0  0  0
  189.0580  177.0760  141.5720 C   0  0  0  0  0  0  0  0  0  0  0  0
  185.6470  178.5000  143.2260 C   0  0  1  0  0  3  0  0  0  0  0  0
  188.1750  177.9180  140.8650 C   0  0  0  0  0  0  0  0  0  0  0  0
  186.7860  177.9830  142.8190 C   0  0  0  0  0  0  0  0  0  0  0  0
  185.0590  178.3340  144.5510 C   0  0  0  0  0  3  0  0  0  0  0  0
  183.7810  178.8540  141.7130 N   0  0  0  0  0  0  0  0  0  0  0  0
  188.4530  178.3190  139.4540 C   0  0  0  0  0  1  0  0  0  0  0  0
  183.7800  178.5690  144.8450 C   0  0  0  0  0  3  0  0  0  0  0  0
  187.0310  178.3610  141.5310 C   0  0  0  0  0  0  0  0  0  0  0  0
  190.2180  176.5980  140.9730 O   0  0  0  0  0  1  0  0  0  0  0  0
  185.1090  179.3370  142.1100 C   0  0  2  0  0  3  0  0  0  0  0  0
  187.6270  177.1710  143.5100 N   0  0  0  0  0  0  0  0  0  0  0  0
  182.6800  178.9450  143.9330 C   0  0  0  0  0  3  0  0  0  0  0  0
  186.1110  179.1290  141.0520 N   0  0  0  0  0  2  0  0  0  0  0  0
  182.6650  179.0390  142.5960 C   0  0  0  0  0  3  0  0  0  0  0  0
  183.4560  178.6020  140.3360 C   0  0  0  0  0  0  0  0  0  0  0  0
  182.7850  178.1570  137.6740 C   0  0  0  0  0  3  0  0  0  0  0  0
  182.7910  177.0830  138.5660 C   0  0  0  0  0  0  0  0  0  0  0  0
  183.1010  179.4060  138.1070 N   0  0  0  0  0  0  0  0  0  0  0  0
  183.1230  177.3070  139.9070 C   0  0  0  0  0  0  0  0  0  0  0  0
  183.4290  179.6480  139.4040 C   0  0  0  0  0  3  0  0  0  0  0  0
  183.1420  176.2740  140.7900 F   0  0  0  0  0  0  0  0  0  0  0  0
  182.1840  174.7060  137.7180 N   0  0  0  0  0  0  0  0  0  0  0  0
  182.4540  175.7660  138.0960 C   0  0  0  0  0  0  0  0  0  0  0  0
  1 13  1  0  0  0  0
  2  1  2  0  0  0  0
  3  6  1  1  0  0  0
  4 10  2  0  0  0  0
  4  2  1  0  0  0  0
  5  3  1  0  0  0  0
  5 13  2  0  0  0  0
  6  9  2  0  0  0  0
  7 12  1  0  0  0  0
  7 16  1  0  0  0  0
  8  4  1  0  0  0  0
 10  5  1  0  0  0  0
 11  2  1  0  0  0  0
 12 15  1  6  0  0  0
 12  3  1  0  0  0  0
 14  9  1  0  0  0  0
 15 10  1  0  0  0  0
 16 14  2  0  0  0  0
 17  7  1  0  0  0  0
 18 20  2  0  0  0  0
 18 19  1  0  0  0  0
 19 21  2  0  0  0  0
 20 22  1  0  0  0  0
 21 17  1  0  0  0  0
 21 23  1  0  0  0  0
 22 17  2  0  0  0  0
 24 25  3  0  0  0  0
 25 19  1  0  0  0  0
M  END
>  <MODEL>
4

>  <REMARK>
 VINA RESULT:      -7.9      3.936      6.235
  Name = 
  2 active torsions:
  status: ('A' for Active; 'I' for Inactive)
    1  A    between atoms: C_4  and  N_10
    2  A    between atoms: C_13  and  C_20
                            x       y       z     vdW  Elec       q    Type
                         _______ _______ _______ _____ _____    ______ ____

>  <TORSDO>
F 2

$$$$
=
 OpenBabel11032419203D

 25 28  0  0  1  0  0  0  0  0999 V2000
  188.6440  177.3500  142.5220 C   0  0  0  0  0  3  0  0  0  0  0  0
  188.7650  177.5020  141.1250 C   0  0  0  0  0  0  0  0  0  0  0  0
  185.3610  178.7890  142.9020 C   0  0  1  0  0  3  0  0  0  0  0  0
  187.7150  178.0960  140.3950 C   0  0  0  0  0  0  0  0  0  0  0  0
  186.5170  178.3450  142.4580 C   0  0  0  0  0  0  0  0  0  0  0  0
  184.9260  178.7930  144.2940 C   0  0  0  0  0  3  0  0  0  0  0  0
  183.3320  178.6480  141.5750 N   0  0  0  0  0  0  0  0  0  0  0  0
  187.8040  178.2710  138.9150 C   0  0  0  0  0  1  0  0  0  0  0  0
  183.6600  178.9260  144.6900 C   0  0  0  0  0  3  0  0  0  0  0  0
  186.5880  178.5150  141.1060 C   0  0  0  0  0  0  0  0  0  0  0  0
  189.9170  177.0650  140.4840 O   0  0  0  0  0  1  0  0  0  0  0  0
  184.6140  179.3460  141.7330 C   0  0  2  0  0  3  0  0  0  0  0  0
  187.5200  177.7720  143.1720 N   0  0  0  0  0  0  0  0  0  0  0  0
  182.4390  179.0020  143.8610 C   0  0  0  0  0  3  0  0  0  0  0  0
  185.5320  179.0720  140.6160 N   0  0  0  0  0  2  0  0  0  0  0  0
  182.2880  178.8560  142.5370 C   0  0  0  0  0  3  0  0  0  0  0  0
  182.9170  178.1200  140.3040 C   0  0  0  0  0  0  0  0  0  0  0  0
  182.1690  177.0730  137.8390 C   0  0  0  0  0  3  0  0  0  0  0  0
  182.0180  178.4410  138.0750 C   0  0  0  0  0  0  0  0  0  0  0  0
  182.6810  176.2660  138.8060 N   0  0  0  0  0  0  0  0  0  0  0  0
  182.3990  178.9690  139.3140 C   0  0  0  0  0  0  0  0  0  0  0  0
  183.0560  176.7550  140.0170 C   0  0  0  0  0  3  0  0  0  0  0  0
  182.2540  180.2960  139.5670 F   0  0  0  0  0  0  0  0  0  0  0  0
  181.0390  179.9640  136.2160 N   0  0  0  0  0  0  0  0  0  0  0  0
  181.4760  179.2850  137.0450 C   0  0  0  0  0  0  0  0  0  0  0  0
  1 13  1  0  0  0  0
  2  1  2  0  0  0  0
  3  6  1  1  0  0  0
  4 10  2  0  0  0  0
  4  2  1  0  0  0  0
  5  3  1  0  0  0  0
  5 13  2  0  0  0  0
  6  9  2  0  0  0  0
  7 12  1  0  0  0  0
  7 16  1  0  0  0  0
  8  4  1  0  0  0  0
 10  5  1  0  0  0  0
 11  2  1  0  0  0  0
 12 15  1  6  0  0  0
 12  3  1  0  0  0  0
 14  9  1  0  0  0  0
 15 10  1  0  0  0  0
 16 14  2  0  0  0  0
 17  7  1  0  0  0  0
 18 19  2  0  0  0  0
 18 20  1  0  0  0  0
 19 21  1  0  0  0  0
 20 22  2  0  0  0  0
 21 23  1  0  0  0  0
 21 17  2  0  0  0  0
 22 17  1  0  0  0  0
 24 25  3  0  0  0  0
 25 19  1  0  0  0  0
M  END
>  <MODEL>
5

>  <REMARK>
 VINA RESULT:      -7.8      4.363      6.796
  Name = 
  2 active torsions:
  status: ('A' for Active; 'I' for Inactive)
    1  A    between atoms: C_4  and  N_10
    2  A    between atoms: C_13  and  C_20
                            x       y       z     vdW  Elec       q    Type
                         _______ _______ _______ _____ _____    ______ ____

>  <TORSDO>
F 2

$$$$
=
 OpenBabel11032419203D

 25 28  0  0  1  0  0  0  0  0999 V2000
  187.1440  177.2330  144.7910 C   0  0  0  0  0  3  0  0  0  0  0  0
  188.0550  177.2770  143.7150 C   0  0  0  0  0  0  0  0  0  0  0  0
  184.3130  178.7030  143.1120 C   0  0  1  0  0  3  0  0  0  0  0  0
  187.6460  177.8140  142.4780 C   0  0  0  0  0  0  0  0  0  0  0  0
  185.4910  178.2240  143.4470 C   0  0  0  0  0  0  0  0  0  0  0  0
  183.1550  178.8160  143.9930 C   0  0  0  0  0  3  0  0  0  0  0  0
  183.4160  178.4640  140.8680 N   0  0  0  0  0  0  0  0  0  0  0  0
  188.5800  177.8730  141.3140 C   0  0  0  0  0  1  0  0  0  0  0  0
  181.9010  178.9810  143.5750 C   0  0  0  0  0  3  0  0  0  0  0  0
  186.3370  178.2880  142.3780 C   0  0  0  0  0  0  0  0  0  0  0  0
  189.3450  176.7890  143.8870 O   0  0  0  0  0  1  0  0  0  0  0  0
  184.4040  179.1690  141.6950 C   0  0  2  0  0  3  0  0  0  0  0  0
  185.8710  177.7060  144.6440 N   0  0  0  0  0  0  0  0  0  0  0  0
  181.3860  178.9960  142.1890 C   0  0  0  0  0  3  0  0  0  0  0  0
  185.7840  178.8080  141.3340 N   0  0  0  0  0  2  0  0  0  0  0  0
  182.0190  178.7470  141.0340 C   0  0  0  0  0  3  0  0  0  0  0  0
  183.7860  177.8400  139.6270 C   0  0  0  0  0  0  0  0  0  0  0  0
  184.4870  176.6810  137.1990 C   0  0  0  0  0  3  0  0  0  0  0  0
  183.5860  176.0210  138.0360 C   0  0  0  0  0  0  0  0  0  0  0  0
  185.0110  177.8800  137.5690 N   0  0  0  0  0  0  0  0  0  0  0  0
  183.2290  176.6060  139.2570 C   0  0  0  0  0  0  0  0  0  0  0  0
  184.6810  178.4670  138.7500 C   0  0  0  0  0  3  0  0  0  0  0  0
  182.3600  175.9760  140.0890 F   0  0  0  0  0  0  0  0  0  0  0  0
  182.5970  173.7350  137.3080 N   0  0  0  0  0  0  0  0  0  0  0  0
  183.0390  174.7540  137.6330 C   0  0  0  0  0  0  0  0  0  0  0  0
  2 11  1  0  0  0  0
  2  1  2  0  0  0  0
  3  5  1  0  0  0  0
  3  6  1  1  0  0  0
  4  2  1  0  0  0  0
  5 13  2  0  0  0  0
  7 16  1  0  0  0  0
  7 12  1  0  0  0  0
  8  4  1  0  0  0  0
  9  6  2  0  0  0  0
 10  4  2  0  0  0  0
 10  5  1  0  0  0  0
 12 15  1  6  0  0  0
 12  3  1  0  0  0  0
 13  1  1  0  0  0  0
 14  9  1  0  0  0  0
 15 10  1  0  0  0  0
 16 14  2  0  0  0  0
 17  7  1  0  0  0  0
 18 20  2  0  0  0  0
 18 19  1  0  0  0  0
 19 21  2  0  0  0  0
 20 22  1  0  0  0  0
 21 17  1  0  0  0  0
 21 23  1  0  0  0  0
 22 17  2  0  0  0  0
 24 25  3  0  0  0  0
 25 19  1  0  0  0  0
M  END
>  <MODEL>
6

>  <REMARK>
 VINA RESULT:      -7.6      4.102      6.210
  Name = 
  2 active torsions:
  status: ('A' for Active; 'I' for Inactive)
    1  A    between atoms: C_4  and  N_10
    2  A    between atoms: C_13  and  C_20
                            x       y       z     vdW  Elec       q    Type
                         _______ _______ _______ _____ _____    ______ ____

>  <TORSDO>
F 2

$$$$
=
 OpenBabel11032419203D

 25 28  0  0  1  0  0  0  0  0999 V2000
  189.5330  178.1370  146.4220 C   0  0  0  0  0  3  0  0  0  0  0  0
  188.1460  177.8800  146.4260 C   0  0  0  0  0  0  0  0  0  0  0  0
  190.2020  177.2230  143.0000 C   0  0  1  0  0  3  0  0  0  0  0  0
  187.5220  177.4020  145.2560 C   0  0  0  0  0  0  0  0  0  0  0  0
  189.6620  177.4630  144.1750 C   0  0  0  0  0  0  0  0  0  0  0  0
  191.6130  177.3710  142.6620 C   0  0  0  0  0  3  0  0  0  0  0  0
  188.9860  177.5770  140.9280 N   0  0  0  0  0  0  0  0  0  0  0  0
  186.0550  177.1240  145.2200 C   0  0  0  0  0  1  0  0  0  0  0  0
  192.0890  177.4510  141.4200 C   0  0  0  0  0  3  0  0  0  0  0  0
  188.3240  177.2000  144.1300 C   0  0  0  0  0  0  0  0  0  0  0  0
  187.4100  178.1020  147.5840 O   0  0  0  0  0  1  0  0  0  0  0  0
  189.1200  176.7100  142.1050 C   0  0  2  0  0  3  0  0  0  0  0  0
  190.2750  177.9260  145.2950 N   0  0  0  0  0  0  0  0  0  0  0  0
  191.3380  177.5030  140.1480 C   0  0  0  0  0  3  0  0  0  0  0  0
  187.9360  176.7740  142.9760 N   0  0  0  0  0  2  0  0  0  0  0  0
  190.0180  177.5870  139.9310 C   0  0  0  0  0  3  0  0  0  0  0  0
  187.7050  178.0790  140.5090 C   0  0  0  0  0  0  0  0  0  0  0  0
  185.2060  179.0310  139.7500 C   0  0  0  0  0  3  0  0  0  0  0  0
  185.9060  178.1870  138.8860 C   0  0  0  0  0  0  0  0  0  0  0  0
  185.7420  179.3780  140.9500 N   0  0  0  0  0  0  0  0  0  0  0  0
  187.1630  177.7040  139.2700 C   0  0  0  0  0  0  0  0  0  0  0  0
  186.9610  178.9230  141.3440 C   0  0  0  0  0  3  0  0  0  0  0  0
  187.8650  176.8870  138.4420 F   0  0  0  0  0  0  0  0  0  0  0  0
  184.8650  177.5370  136.6000 N   0  0  0  0  0  0  0  0  0  0  0  0
  185.3290  177.8270  137.6200 C   0  0  0  0  0  0  0  0  0  0  0  0
  1  2  1  0  0  0  0
  2 11  1  0  0  0  0
  3  6  1  1  0  0  0
  3  5  1  0  0  0  0
  4  2  2  0  0  0  0
  5 13  1  0  0  0  0
  7 12  1  0  0  0  0
  8  4  1  0  0  0  0
  9  6  2  0  0  0  0
 10  5  2  0  0  0  0
 10  4  1  0  0  0  0
 12 15  1  1  0  0  0
 12  3  1  0  0  0  0
 13  1  2  0  0  0  0
 14  9  1  0  0  0  0
 15 10  1  0  0  0  0
 16 14  2  0  0  0  0
 16  7  1  0  0  0  0
 17  7  1  0  0  0  0
 17 22  1  0  0  0  0
 18 20  1  0  0  0  0
 19 21  1  0  0  0  0
 19 18  2  0  0  0  0
 20 22  2  0  0  0  0
 21 17  2  0  0  0  0
 23 21  1  0  0  0  0
 24 25  3  0  0  0  0
 25 19  1  0  0  0  0
M  END
>  <MODEL>
7

>  <REMARK>
 VINA RESULT:      -7.4      2.388      3.534
  Name = 
  2 active torsions:
  status: ('A' for Active; 'I' for Inactive)
    1  A    between atoms: C_4  and  N_10
    2  A    between atoms: C_13  and  C_20
                            x       y       z     vdW  Elec       q    Type
                         _______ _______ _______ _____ _____    ______ ____

>  <TORSDO>
F 2

$$$$
=
 OpenBabel11032419203D

 25 28  0  0  1  0  0  0  0  0999 V2000
  189.3850  176.4000  147.6700 C   0  0  0  0  0  3  0  0  0  0  0  0
  190.6490  176.6070  147.0770 C   0  0  0  0  0  0  0  0  0  0  0  0
  187.3740  177.9830  145.1320 C   0  0  1  0  0  3  0  0  0  0  0  0
  190.7370  177.2840  145.8440 C   0  0  0  0  0  0  0  0  0  0  0  0
  188.3490  177.5020  145.8730 C   0  0  0  0  0  0  0  0  0  0  0  0
  185.9540  177.9490  145.4620 C   0  0  0  0  0  3  0  0  0  0  0  0
  187.4900  178.0030  142.7070 N   0  0  0  0  0  0  0  0  0  0  0  0
  192.0550  177.5190  145.1830 C   0  0  0  0  0  1  0  0  0  0  0  0
  184.9690  178.1270  144.5820 C   0  0  0  0  0  3  0  0  0  0  0  0
  189.5480  177.7270  145.2610 C   0  0  0  0  0  0  0  0  0  0  0  0
  191.7920  176.1410  147.7160 O   0  0  0  0  0  1  0  0  0  0  0  0
  187.9960  178.6280  143.9350 C   0  0  2  0  0  3  0  0  0  0  0  0
  188.2500  176.8490  147.0590 N   0  0  0  0  0  0  0  0  0  0  0  0
  185.0630  178.3010  143.1170 C   0  0  0  0  0  3  0  0  0  0  0  0
  189.4280  178.3580  144.1420 N   0  0  0  0  0  2  0  0  0  0  0  0
  186.1280  178.2200  142.3080 C   0  0  0  0  0  3  0  0  0  0  0  0
  188.3810  177.5520  141.6720 C   0  0  0  0  0  0  0  0  0  0  0  0
  190.1510  176.6930  139.7080 C   0  0  0  0  0  3  0  0  0  0  0  0
  189.1820  177.6460  139.3850 C   0  0  0  0  0  0  0  0  0  0  0  0
  190.2270  176.1970  140.9700 N   0  0  0  0  0  0  0  0  0  0  0  0
  188.2940  178.0820  140.3760 C   0  0  0  0  0  0  0  0  0  0  0  0
  189.3750  176.6030  141.9480 C   0  0  0  0  0  3  0  0  0  0  0  0
  187.3390  179.0030  140.0820 F   0  0  0  0  0  0  0  0  0  0  0  0
  189.0550  178.5810  136.9680 N   0  0  0  0  0  0  0  0  0  0  0  0
  189.1120  178.1640  138.0460 C   0  0  0  0  0  0  0  0  0  0  0  0
  2  1  1  0  0  0  0
  2 11  1  0  0  0  0
  3  6  1  1  0  0  0
  3  5  1  0  0  0  0
  4  2  2  0  0  0  0
  5 13  1  0  0  0  0
  7 12  1  0  0  0  0
  8  4  1  0  0  0  0
  9  6  2  0  0  0  0
 10  4  1  0  0  0  0
 10  5  2  0  0  0  0
 12 15  1  1  0  0  0
 12  3  1  0  0  0  0
 13  1  2  0  0  0  0
 14  9  1  0  0  0  0
 15 10  1  0  0  0  0
 16  7  1  0  0  0  0
 16 14  2  0  0  0  0
 17 22  1  0  0  0  0
 17  7  1  0  0  0  0
 18 20  1  0  0  0  0
 19 18  2  0  0  0  0
 19 21  1  0  0  0  0
 20 22  2  0  0  0  0
 21 17  2  0  0  0  0
 23 21  1  0  0  0  0
 24 25  3  0  0  0  0
 25 19  1  0  0  0  0
M  END
>  <MODEL>
8

>  <REMARK>
 VINA RESULT:      -7.2      2.512      4.335
  Name = 
  2 active torsions:
  status: ('A' for Active; 'I' for Inactive)
    1  A    between atoms: C_4  and  N_10
    2  A    between atoms: C_13  and  C_20
                            x       y       z     vdW  Elec       q    Type
                         _______ _______ _______ _____ _____    ______ ____

>  <TORSDO>
F 2

$$$$
=
 OpenBabel11032419203D

 25 28  0  0  1  0  0  0  0  0999 V2000
  181.7860  178.1680  140.9000 C   0  0  0  0  0  3  0  0  0  0  0  0
  181.7630  178.5740  142.2510 C   0  0  0  0  0  0  0  0  0  0  0  0
  185.3020  178.6700  140.2850 C   0  0  1  0  0  3  0  0  0  0  0  0
  182.9550  179.0030  142.8700 C   0  0  0  0  0  0  0  0  0  0  0  0
  184.0920  178.6040  140.7960 C   0  0  0  0  0  0  0  0  0  0  0  0
  185.6680  178.3370  138.9120 C   0  0  0  0  0  3  0  0  0  0  0  0
  187.2880  178.2540  141.6180 N   0  0  0  0  0  0  0  0  0  0  0  0
  182.9710  179.4350  144.2990 C   0  0  0  0  0  1  0  0  0  0  0  0
  186.9110  178.0860  138.5010 C   0  0  0  0  0  3  0  0  0  0  0  0
  184.1200  179.0070  142.1000 C   0  0  0  0  0  0  0  0  0  0  0  0
  180.5660  178.5470  142.9560 O   0  0  0  0  0  1  0  0  0  0  0  0
  186.2090  179.2110  141.3430 C   0  0  2  0  0  3  0  0  0  0  0  0
  182.9520  178.1870  140.1890 N   0  0  0  0  0  0  0  0  0  0  0  0
  188.1470  177.9950  139.3070 C   0  0  0  0  0  3  0  0  0  0  0  0
  185.2980  179.3600  142.4900 N   0  0  0  0  0  2  0  0  0  0  0  0
  188.3110  178.0360  140.6360 C   0  0  0  0  0  3  0  0  0  0  0  0
  187.6130  177.8570  142.9610 C   0  0  0  0  0  0  0  0  0  0  0  0
  188.2030  177.1280  145.5790 C   0  0  0  0  0  3  0  0  0  0  0  0
  189.2410  177.5030  144.7240 C   0  0  0  0  0  0  0  0  0  0  0  0
  186.9190  177.1250  145.1340 N   0  0  0  0  0  0  0  0  0  0  0  0
  188.9440  177.8750  143.4070 C   0  0  0  0  0  0  0  0  0  0  0  0
  186.6060  177.4790  143.8590 C   0  0  0  0  0  3  0  0  0  0  0  0
  189.9400  178.2360  142.5570 F   0  0  0  0  0  0  0  0  0  0  0  0
  191.6850  177.5030  145.5950 N   0  0  0  0  0  0  0  0  0  0  0  0
  190.5950  177.5030  145.2070 C   0  0  0  0  0  0  0  0  0  0  0  0
  1  2  1  0  0  0  0
  2  4  2  0  0  0  0
  2 11  1  0  0  0  0
  3  6  1  6  0  0  0
  3  5  1  0  0  0  0
  3 12  1  0  0  0  0
  4  8  1  0  0  0  0
  5 10  2  0  0  0  0
  7 17  1  0  0  0  0
  9  6  2  0  0  0  0
  9 14  1  0  0  0  0
 10 15  1  0  0  0  0
 10  4  1  0  0  0  0
 12  7  1  0  0  0  0
 12 15  1  1  0  0  0
 13  5  1  0  0  0  0
 13  1  2  0  0  0  0
 14 16  2  0  0  0  0
 16  7  1  0  0  0  0
 17 21  2  0  0  0  0
 17 22  1  0  0  0  0
 19 25  1  0  0  0  0
 19 18  2  0  0  0  0
 20 18  1  0  0  0  0
 21 19  1  0  0  0  0
 22 20  2  0  0  0  0
 23 21  1  0  0  0  0
 25 24  3  0  0  0  0
M  END
>  <MODEL>
9

>  <REMARK>
 VINA RESULT:      -7.2      2.462      5.382
  Name = 
  2 active torsions:
  status: ('A' for Active; 'I' for Inactive)
    1  A    between atoms: C_4  and  N_10
    2  A    between atoms: C_13  and  C_20
                            x       y       z     vdW  Elec       q    Type
                         _______ _______ _______ _____ _____    ______ ____

>  <TORSDO>
F 2

$$$$
