=
 OpenBabel11042412113D

 37 41  0  0  1  0  0  0  0  0999 V2000
  182.2290  180.1730  138.7330 C   0  0  0  0  0  2  0  0  0  0  0  0
  181.1740  178.7900  141.6220 C   0  0  0  0  0  2  0  0  0  0  0  0
  188.9640  178.2160  136.7250 C   0  0  0  0  0  2  0  0  0  0  0  0
  179.8130  179.7590  139.3590 C   0  0  0  0  0  2  0  0  0  0  0  0
  188.7250  177.6130  138.1070 C   0  0  2  0  0  3  0  0  0  0  0  0
  186.5620  177.9460  135.9580 C   0  0  0  0  0  2  0  0  0  0  0  0
  183.3430  177.1040  140.5820 C   0  0  0  0  0  1  0  0  0  0  0  0
  179.9700  180.6370  140.6070 C   0  0  0  0  0  2  0  0  0  0  0  0
  185.6210  178.5720  141.0580 O   0  0  0  0  0  1  0  0  0  0  0  0
  186.1940  177.7720  138.4840 C   0  0  1  0  0  3  0  0  0  0  0  0
  186.0830  177.0790  137.1140 C   0  0  1  0  0  3  0  0  0  0  0  0
  184.7390  179.1360  140.1280 C   0  0  1  0  0  3  0  0  0  0  0  0
  182.5820  179.3430  141.4000 C   0  0  0  0  0  2  0  0  0  0  0  0
  183.6350  177.2610  137.3040 C   0  0  0  0  0  3  0  0  0  0  0  0
  187.5800  178.3620  138.7770 C   0  0  0  0  0  2  0  0  0  0  0  0
  182.6880  178.7930  138.9330 N   0  0  1  0  0  0  0  0  0  0  0  0
  188.0260  177.6330  135.6730 C   0  0  0  0  0  2  0  0  0  0  0  0
  184.6910  176.5550  136.8920 C   0  0  0  0  0  0  0  0  0  0  0  0
  185.1200  178.8690  138.6740 C   0  0  2  0  0  3  0  0  0  0  0  0
  180.2070  179.8660  141.8410 N   0  0  0  0  0  0  0  0  0  0  0  0
  180.7750  180.2050  138.2650 C   0  0  0  0  0  2  0  0  0  0  0  0
  183.7710  178.6110  137.9620 C   0  0  1  0  0  3  0  0  0  0  0  0
  183.3160  178.6050  140.2610 C   0  0  2  0  0  0  0  0  0  0  0  0
  183.7570  174.2550  137.1930 C   0  0  0  0  0  0  0  0  0  0  0  0
  184.5500  173.1110  137.7120 C   0  0  0  0  0  2  0  0  0  0  0  0
  185.9070  173.3110  137.1550 C   0  0  0  0  0  0  0  0  0  0  0  0
  181.3550  174.6130  137.9540 O   0  0  0  0  0  0  0  0  0  0  0  0
  186.8870  172.7630  137.6370 O   0  0  0  0  0  0  0  0  0  0  0  0
  182.5220  174.4420  137.5740 C   0  0  0  0  0  0  0  0  0  0  0  0
  184.4570  175.2070  136.2660 C   0  0  2  0  0  3  0  0  0  0  0  0
  186.0540  174.4580  135.7900 S   0  0  0  0  0  0  0  0  0  0  0  0
  178.9510  179.2480  142.2370 C   0  0  0  0  0  2  0  0  0  0  0  0
  178.9310  179.0390  143.7330 C   0  0  0  0  0  1  0  0  0  0  0  0
  189.9750  177.7670  138.9560 C   0  0  0  0  0  2  0  0  0  0  0  0
  190.4390  176.4400  139.4480 C   0  0  0  0  0  0  0  0  0  0  0  0
  190.5060  176.2170  140.6850 O   0  0  0  0  0  0  0  0  0  0  0  0
  190.7750  175.4130  138.5220 N   0  0  0  0  0  1  0  0  0  0  0  0
  2 20  1  0  0  0  0
  3  5  1  0  0  0  0
  4  8  1  0  0  0  0
  5 15  1  0  0  0  0
  5 34  1  1  0  0  0
  8 20  1  0  0  0  0
 10 19  1  0  0  0  0
 10 15  1  6  0  0  0
 11  6  1  6  0  0  0
 11 10  1  0  0  0  0
 12 23  1  0  0  0  0
 12  9  1  1  0  0  0
 13  2  1  0  0  0  0
 14 22  1  0  0  0  0
 16  1  1  1  0  0  0
 16 23  1  0  0  0  0
 17  6  1  0  0  0  0
 17  3  1  0  0  0  0
 18 11  1  0  0  0  0
 18 14  2  0  0  0  0
 19 12  1  0  0  0  0
 20 32  1  0  0  0  0
 21  1  1  0  0  0  0
 21  4  1  0  0  0  0
 22 19  1  0  0  0  0
 22 16  1  0  0  0  0
 23  7  1  0  0  0  0
 23 13  1  0  0  0  0
 24 29  2  0  0  0  0
 24 25  1  0  0  0  0
 26 28  2  0  0  0  0
 26 25  1  0  0  0  0
 29 27  2  0  0  0  0
 30 18  1  0  0  0  0
 30 24  1  0  0  0  0
 31 30  1  0  0  0  0
 31 26  1  0  0  0  0
 32 33  1  0  0  0  0
 34 35  1  0  0  0  0
 35 36  2  0  0  0  0
 37 35  1  0  0  0  0
M  END
>  <MODEL>
1

>  <REMARK>
 VINA RESULT:      -6.6      0.000      0.000
  Name = 
  4 active torsions:
  status: ('A' for Active; 'I' for Inactive)
    1  A    between atoms: C_6  and  C_16
    2  A    between atoms: C_7  and  C_16
    3  A    between atoms: C_8  and  N_32
    4  A    between atoms: C_30  and  C_33
                            x       y       z     vdW  Elec       q    Type
                         _______ _______ _______ _____ _____    ______ ____

>  <TORSDO>
F 4

$$$$
=
 OpenBabel11042412113D

 37 41  0  0  1  0  0  0  0  0999 V2000
  180.9870  179.3130  139.0090 C   0  0  0  0  0  2  0  0  0  0  0  0
  181.3200  179.1420  142.3600 C   0  0  0  0  0  2  0  0  0  0  0  0
  187.0720  177.7920  135.2830 C   0  0  0  0  0  2  0  0  0  0  0  0
  179.1160  178.8250  140.6400 C   0  0  0  0  0  2  0  0  0  0  0  0
  187.4540  177.8050  136.7610 C   0  0  2  0  0  3  0  0  0  0  0  0
  184.7530  176.8410  135.6700 C   0  0  0  0  0  2  0  0  0  0  0  0
  183.4850  177.5440  141.1790 C   0  0  0  0  0  1  0  0  0  0  0  0
  179.3640  180.1630  141.3480 C   0  0  0  0  0  2  0  0  0  0  0  0
  185.2380  179.4190  140.1880 O   0  0  0  0  0  1  0  0  0  0  0  0
  185.2300  177.7030  138.0330 C   0  0  1  0  0  3  0  0  0  0  0  0
  184.9310  176.4840  137.1400 C   0  0  1  0  0  3  0  0  0  0  0  0
  183.9900  179.3850  139.5540 C   0  0  1  0  0  3  0  0  0  0  0  0
  182.3580  179.7660  141.4260 C   0  0  0  0  0  2  0  0  0  0  0  0
  182.7190  176.3360  138.2110 C   0  0  0  0  0  3  0  0  0  0  0  0
  186.3910  178.5750  137.5340 C   0  0  0  0  0  2  0  0  0  0  0  0
  181.8830  178.2420  139.4620 N   0  0  1  0  0  0  0  0  0  0  0  0
  186.0870  176.6750  134.9520 C   0  0  0  0  0  2  0  0  0  0  0  0
  183.7660  175.7010  137.6780 C   0  0  0  0  0  0  0  0  0  0  0  0
  183.9810  178.5890  138.2510 C   0  0  2  0  0  3  0  0  0  0  0  0
  180.1820  180.0390  142.5670 N   0  0  0  0  0  0  0  0  0  0  0  0
  179.5230  178.9100  139.1740 C   0  0  0  0  0  2  0  0  0  0  0  0
  182.6270  177.8400  138.2650 C   0  0  1  0  0  3  0  0  0  0  0  0
  182.9060  178.7400  140.4100 C   0  0  2  0  0  0  0  0  0  0  0  0
  184.8260  173.6210  136.7810 C   0  0  0  0  0  0  0  0  0  0  0  0
  184.3480  172.9210  135.5600 C   0  0  0  0  0  2  0  0  0  0  0  0
  182.8750  173.0680  135.5940 C   0  0  0  0  0  0  0  0  0  0  0  0
  187.3170  173.9100  137.2130 O   0  0  0  0  0  0  0  0  0  0  0  0
  182.1910  172.9150  134.5940 O   0  0  0  0  0  0  0  0  0  0  0  0
  186.1020  173.7670  137.0120 C   0  0  0  0  0  0  0  0  0  0  0  0
  183.7790  174.1970  137.6910 C   0  0  2  0  0  3  0  0  0  0  0  0
  182.1540  173.5570  137.1560 S   0  0  0  0  0  0  0  0  0  0  0  0
  179.3540  179.4560  143.6120 C   0  0  0  0  0  2  0  0  0  0  0  0
  180.0450  178.2490  144.2000 C   0  0  0  0  0  1  0  0  0  0  0  0
  188.7910  178.5030  136.9380 C   0  0  0  0  0  2  0  0  0  0  0  0
  189.7700  177.5970  137.6020 C   0  0  0  0  0  0  0  0  0  0  0  0
  190.4150  176.7610  136.9180 O   0  0  0  0  0  0  0  0  0  0  0  0
  190.0000  177.7000  139.0030 N   0  0  0  0  0  1  0  0  0  0  0  0
  1 21  1  0  0  0  0
  2 20  1  0  0  0  0
  3  5  1  0  0  0  0
  4  8  1  0  0  0  0
  5 34  1  6  0  0  0
  5 15  1  0  0  0  0
  8 20  1  0  0  0  0
 10 15  1  6  0  0  0
 10 19  1  0  0  0  0
 11  6  1  6  0  0  0
 11 18  1  0  0  0  0
 11 10  1  0  0  0  0
 12  9  1  1  0  0  0
 12 23  1  0  0  0  0
 13  2  1  0  0  0  0
 14 22  1  0  0  0  0
 16  1  1  6  0  0  0
 16 23  1  0  0  0  0
 17  3  1  0  0  0  0
 17  6  1  0  0  0  0
 18 30  1  0  0  0  0
 18 14  2  0  0  0  0
 19 22  1  0  0  0  0
 19 12  1  0  0  0  0
 20 32  1  0  0  0  0
 21  4  1  0  0  0  0
 22 16  1  0  0  0  0
 23  7  1  0  0  0  0
 23 13  1  0  0  0  0
 24 29  2  0  0  0  0
 24 30  1  0  0  0  0
 25 26  1  0  0  0  0
 25 24  1  0  0  0  0
 26 31  1  0  0  0  0
 28 26  2  0  0  0  0
 29 27  2  0  0  0  0
 31 30  1  0  0  0  0
 32 33  1  0  0  0  0
 34 35  1  0  0  0  0
 35 37  1  0  0  0  0
 36 35  2  0  0  0  0
M  END
>  <MODEL>
2

>  <REMARK>
 VINA RESULT:      -6.1      1.633      2.364
  Name = 
  4 active torsions:
  status: ('A' for Active; 'I' for Inactive)
    1  A    between atoms: C_6  and  C_16
    2  A    between atoms: C_7  and  C_16
    3  A    between atoms: C_8  and  N_32
    4  A    between atoms: C_30  and  C_33
                            x       y       z     vdW  Elec       q    Type
                         _______ _______ _______ _____ _____    ______ ____

>  <TORSDO>
F 4

$$$$
=
 OpenBabel11042412113D

 37 41  0  0  1  0  0  0  0  0999 V2000
  181.8760  178.5250  138.7910 C   0  0  0  0  0  2  0  0  0  0  0  0
  180.5920  180.4680  136.3530 C   0  0  0  0  0  2  0  0  0  0  0  0
  183.2160  171.6410  136.7820 C   0  0  0  0  0  2  0  0  0  0  0  0
  182.1100  181.0400  138.6520 C   0  0  0  0  0  2  0  0  0  0  0  0
  182.5140  172.3140  135.6040 C   0  0  2  0  0  3  0  0  0  0  0  0
  184.4710  173.7250  137.5000 C   0  0  0  0  0  2  0  0  0  0  0  0
  181.9420  178.2050  135.0530 C   0  0  0  0  0  1  0  0  0  0  0  0
  180.5840  181.1980  138.6680 C   0  0  0  0  0  2  0  0  0  0  0  0
  180.2570  176.0750  135.4970 O   0  0  0  0  0  1  0  0  0  0  0  0
  182.6400  174.8280  136.0910 C   0  0  1  0  0  3  0  0  0  0  0  0
  184.1480  174.5780  136.2800 C   0  0  1  0  0  3  0  0  0  0  0  0
  180.8510  176.6070  136.6480 C   0  0  1  0  0  3  0  0  0  0  0  0
  180.1630  179.0240  136.6130 C   0  0  0  0  0  2  0  0  0  0  0  0
  184.3930  176.9570  136.8660 C   0  0  0  0  0  3  0  0  0  0  0  0
  181.7870  173.5520  136.1110 C   0  0  0  0  0  2  0  0  0  0  0  0
  182.4150  178.2360  137.4560 N   0  0  1  0  0  0  0  0  0  0  0  0
  184.5780  172.2660  137.0730 C   0  0  0  0  0  2  0  0  0  0  0  0
  184.9090  175.8750  136.2770 C   0  0  0  0  0  0  0  0  0  0  0  0
  182.0800  175.8350  137.1220 C   0  0  2  0  0  3  0  0  0  0  0  0
  179.9990  181.3840  137.3280 N   0  0  0  0  0  0  0  0  0  0  0  0
  182.5260  179.7720  139.3870 C   0  0  0  0  0  2  0  0  0  0  0  0
  183.0690  176.9310  137.5870 C   0  0  1  0  0  3  0  0  0  0  0  0
  181.3410  178.0380  136.4560 C   0  0  2  0  0  0  0  0  0  0  0  0
  187.3960  175.6660  136.4410 C   0  0  0  0  0  0  0  0  0  0  0  0
  188.2860  176.7870  136.8400 C   0  0  0  0  0  2  0  0  0  0  0  0
  187.6640  177.9910  136.2450 C   0  0  0  0  0  0  0  0  0  0  0  0
  187.8030  173.3150  137.3250 O   0  0  0  0  0  0  0  0  0  0  0  0
  187.9290  179.1160  136.6450 O   0  0  0  0  0  0  0  0  0  0  0  0
  187.6020  174.4560  136.8860 C   0  0  0  0  0  0  0  0  0  0  0  0
  186.2260  176.0030  135.5620 C   0  0  2  0  0  3  0  0  0  0  0  0
  186.4440  177.7160  134.9660 S   0  0  0  0  0  0  0  0  0  0  0  0
  180.2950  182.7390  136.8880 C   0  0  0  0  0  2  0  0  0  0  0  0
  180.5830  182.7460  135.4060 C   0  0  0  0  0  1  0  0  0  0  0  0
  181.4980  171.3600  135.0020 C   0  0  0  0  0  2  0  0  0  0  0  0
  180.1340  171.6520  135.5230 C   0  0  0  0  0  0  0  0  0  0  0  0
  179.3360  172.3470  134.8420 O   0  0  0  0  0  0  0  0  0  0  0  0
  179.7200  171.1180  136.7760 N   0  0  0  0  0  1  0  0  0  0  0  0
  1 21  1  0  0  0  0
  2 13  1  0  0  0  0
  2 20  1  0  0  0  0
  3 17  1  0  0  0  0
  4  8  1  0  0  0  0
  4 21  1  0  0  0  0
  5 34  1  1  0  0  0
  5 15  1  0  0  0  0
  5  3  1  0  0  0  0
  7 23  1  0  0  0  0
 10 15  1  1  0  0  0
 10 11  1  0  0  0  0
 10 19  1  0  0  0  0
 11  6  1  1  0  0  0
 12  9  1  6  0  0  0
 12 19  1  0  0  0  0
 14 22  1  0  0  0  0
 16 22  1  0  0  0  0
 16  1  1  1  0  0  0
 17  6  1  0  0  0  0
 18 11  1  0  0  0  0
 18 14  2  0  0  0  0
 19 22  1  0  0  0  0
 20  8  1  0  0  0  0
 23 13  1  0  0  0  0
 23 12  1  0  0  0  0
 23 16  1  0  0  0  0
 24 25  1  0  0  0  0
 24 29  2  0  0  0  0
 26 28  2  0  0  0  0
 26 25  1  0  0  0  0
 29 27  2  0  0  0  0
 30 18  1  0  0  0  0
 30 24  1  0  0  0  0
 31 30  1  0  0  0  0
 31 26  1  0  0  0  0
 32 20  1  0  0  0  0
 33 32  1  0  0  0  0
 34 35  1  0  0  0  0
 35 37  1  0  0  0  0
 36 35  2  0  0  0  0
M  END
>  <MODEL>
3

>  <REMARK>
 VINA RESULT:      -5.1      2.977      6.404
  Name = 
  4 active torsions:
  status: ('A' for Active; 'I' for Inactive)
    1  A    between atoms: C_6  and  C_16
    2  A    between atoms: C_7  and  C_16
    3  A    between atoms: C_8  and  N_32
    4  A    between atoms: C_30  and  C_33
                            x       y       z     vdW  Elec       q    Type
                         _______ _______ _______ _____ _____    ______ ____

>  <TORSDO>
F 4

$$$$
=
 OpenBabel11042412113D

 37 41  0  0  1  0  0  0  0  0999 V2000
  186.5410  177.6660  135.4870 C   0  0  0  0  0  2  0  0  0  0  0  0
  188.6100  175.0960  136.1840 C   0  0  0  0  0  2  0  0  0  0  0  0
  179.4580  175.9180  135.4320 C   0  0  0  0  0  2  0  0  0  0  0  0
  188.8400  177.8800  136.5190 C   0  0  0  0  0  2  0  0  0  0  0  0
  180.2310  174.6140  135.6200 C   0  0  2  0  0  3  0  0  0  0  0  0
  181.0920  177.3260  136.7650 C   0  0  0  0  0  2  0  0  0  0  0  0
  185.9520  174.3900  137.2190 C   0  0  0  0  0  1  0  0  0  0  0  0
  189.4680  177.1880  135.3010 C   0  0  0  0  0  2  0  0  0  0  0  0
  184.4920  173.7920  134.9650 O   0  0  0  0  0  1  0  0  0  0  0  0
  182.6080  175.3260  136.2650 C   0  0  1  0  0  3  0  0  0  0  0  0
  181.9150  176.1810  137.3410 C   0  0  1  0  0  3  0  0  0  0  0  0
  184.8920  175.1300  135.0710 C   0  0  1  0  0  3  0  0  0  0  0  0
  187.3940  174.9920  135.2630 C   0  0  0  0  0  2  0  0  0  0  0  0
  184.1330  177.0250  137.9950 C   0  0  0  0  0  3  0  0  0  0  0  0
  181.6670  174.8260  135.1590 C   0  0  0  0  0  2  0  0  0  0  0  0
  186.0040  176.7240  136.4770 N   0  0  1  0  0  0  0  0  0  0  0  0
  179.6460  176.8720  136.6080 C   0  0  0  0  0  2  0  0  0  0  0  0
  182.9050  176.6540  138.3680 C   0  0  0  0  0  0  0  0  0  0  0  0
  183.8110  176.0560  135.6220 C   0  0  2  0  0  3  0  0  0  0  0  0
  189.7320  175.7540  135.5130 N   0  0  0  0  0  0  0  0  0  0  0  0
  187.5620  178.6070  136.1230 C   0  0  0  0  0  2  0  0  0  0  0  0
  184.5730  177.0300  136.5530 C   0  0  1  0  0  3  0  0  0  0  0  0
  186.0810  175.3220  136.0060 C   0  0  2  0  0  0  0  0  0  0  0  0
  181.1120  176.3770  140.0890 C   0  0  0  0  0  0  0  0  0  0  0  0
  180.2840  177.5010  140.5970 C   0  0  0  0  0  2  0  0  0  0  0  0
  181.2080  178.6570  140.6440 C   0  0  0  0  0  0  0  0  0  0  0  0
  180.0540  174.1190  139.5820 O   0  0  0  0  0  0  0  0  0  0  0  0
  180.7970  179.8080  140.6850 O   0  0  0  0  0  0  0  0  0  0  0  0
  180.5770  175.2140  139.8320 C   0  0  0  0  0  0  0  0  0  0  0  0
  182.5650  176.6600  139.8330 C   0  0  2  0  0  3  0  0  0  0  0  0
  182.9570  178.2920  140.5550 S   0  0  0  0  0  0  0  0  0  0  0  0
  190.8920  175.6290  136.3830 C   0  0  0  0  0  2  0  0  0  0  0  0
  190.7920  174.3590  137.1930 C   0  0  0  0  0  1  0  0  0  0  0  0
  179.6020  173.5200  134.7750 C   0  0  0  0  0  2  0  0  0  0  0  0
  179.8390  172.1840  135.3880 C   0  0  0  0  0  0  0  0  0  0  0  0
  180.1030  171.1940  134.6560 O   0  0  0  0  0  0  0  0  0  0  0  0
  179.8010  172.0310  136.8030 N   0  0  0  0  0  1  0  0  0  0  0  0
  1 21  1  0  0  0  0
  3  5  1  0  0  0  0
  3 17  1  0  0  0  0
  5 34  1  6  0  0  0
  8 20  1  0  0  0  0
  8  4  1  0  0  0  0
 10 15  1  6  0  0  0
 10 11  1  0  0  0  0
 11  6  1  6  0  0  0
 11 18  1  0  0  0  0
 12  9  1  1  0  0  0
 12 19  1  0  0  0  0
 12 23  1  0  0  0  0
 13 23  1  0  0  0  0
 13  2  1  0  0  0  0
 14 18  2  0  0  0  0
 15  5  1  0  0  0  0
 16  1  1  6  0  0  0
 16 22  1  0  0  0  0
 17  6  1  0  0  0  0
 18 30  1  0  0  0  0
 19 10  1  0  0  0  0
 19 22  1  0  0  0  0
 20  2  1  0  0  0  0
 20 32  1  0  0  0  0
 21  4  1  0  0  0  0
 22 14  1  0  0  0  0
 23 16  1  0  0  0  0
 23  7  1  0  0  0  0
 24 25  1  0  0  0  0
 25 26  1  0  0  0  0
 26 28  2  0  0  0  0
 27 29  2  0  0  0  0
 29 24  2  0  0  0  0
 30 24  1  0  0  0  0
 30 31  1  0  0  0  0
 31 26  1  0  0  0  0
 32 33  1  0  0  0  0
 34 35  1  0  0  0  0
 35 37  1  0  0  0  0
 36 35  2  0  0  0  0
M  END
>  <MODEL>
4

>  <REMARK>
 VINA RESULT:      -5.1      3.255      8.282
  Name = 
  4 active torsions:
  status: ('A' for Active; 'I' for Inactive)
    1  A    between atoms: C_6  and  C_16
    2  A    between atoms: C_7  and  C_16
    3  A    between atoms: C_8  and  N_32
    4  A    between atoms: C_30  and  C_33
                            x       y       z     vdW  Elec       q    Type
                         _______ _______ _______ _____ _____    ______ ____

>  <TORSDO>
F 4

$$$$
=
 OpenBabel11042412113D

 37 41  0  0  1  0  0  0  0  0999 V2000
  193.7480  175.6860  134.6040 C   0  0  0  0  0  2  0  0  0  0  0  0
  195.3280  174.1220  137.1390 C   0  0  0  0  0  2  0  0  0  0  0  0
  186.4980  174.8720  134.5970 C   0  0  0  0  0  2  0  0  0  0  0  0
  195.9760  176.3750  135.5850 C   0  0  0  0  0  2  0  0  0  0  0  0
  187.0390  173.9860  135.7180 C   0  0  2  0  0  3  0  0  0  0  0  0
  188.2400  176.6900  134.9050 C   0  0  0  0  0  2  0  0  0  0  0  0
  192.5270  174.4920  137.9450 C   0  0  0  0  0  1  0  0  0  0  0  0
  196.5670  175.0000  135.2460 C   0  0  0  0  0  2  0  0  0  0  0  0
  191.1490  172.6360  136.4530 O   0  0  0  0  0  1  0  0  0  0  0  0
  189.4490  174.7740  136.0980 C   0  0  1  0  0  3  0  0  0  0  0  0
  188.8280  176.1780  136.2140 C   0  0  1  0  0  3  0  0  0  0  0  0
  191.7490  173.6610  135.7120 C   0  0  1  0  0  3  0  0  0  0  0  0
  194.1770  173.5100  136.3390 C   0  0  0  0  0  2  0  0  0  0  0  0
  191.1020  177.0800  136.4890 C   0  0  0  0  0  3  0  0  0  0  0  0
  188.5190  173.7290  135.4670 C   0  0  0  0  0  2  0  0  0  0  0  0
  193.0010  175.7010  135.8680 N   0  0  1  0  0  0  0  0  0  0  0  0
  186.7540  176.3530  134.8610 C   0  0  0  0  0  2  0  0  0  0  0  0
  189.8080  177.1480  136.8130 C   0  0  0  0  0  0  0  0  0  0  0  0
  190.7940  174.7910  135.3340 C   0  0  2  0  0  3  0  0  0  0  0  0
  196.5840  174.0710  136.3900 N   0  0  0  0  0  0  0  0  0  0  0  0
  194.8590  176.7330  134.6110 C   0  0  0  0  0  2  0  0  0  0  0  0
  191.6350  176.0790  135.4960 C   0  0  1  0  0  3  0  0  0  0  0  0
  192.8860  174.3480  136.4600 C   0  0  2  0  0  0  0  0  0  0  0  0
  189.0050  177.5440  139.1480 C   0  0  0  0  0  0  0  0  0  0  0  0
  187.5690  177.5650  139.5270 C   0  0  0  0  0  2  0  0  0  0  0  0
  186.8840  178.1920  138.3730 C   0  0  0  0  0  0  0  0  0  0  0  0
  190.7180  176.3940  140.6380 O   0  0  0  0  0  0  0  0  0  0  0  0
  185.6820  178.0640  138.1920 O   0  0  0  0  0  0  0  0  0  0  0  0
  189.8900  176.9610  139.9110 C   0  0  0  0  0  0  0  0  0  0  0  0
  189.3730  178.1660  137.8320 C   0  0  2  0  0  3  0  0  0  0  0  0
  187.9170  179.0800  137.2140 S   0  0  0  0  0  0  0  0  0  0  0  0
  197.6470  174.4840  137.2940 C   0  0  0  0  0  2  0  0  0  0  0  0
  197.1950  174.3190  138.7260 C   0  0  0  0  0  1  0  0  0  0  0  0
  186.3030  172.6580  135.7200 C   0  0  0  0  0  2  0  0  0  0  0  0
  185.3840  172.5700  136.8890 C   0  0  0  0  0  0  0  0  0  0  0  0
  185.6980  173.1190  137.9770 O   0  0  0  0  0  0  0  0  0  0  0  0
  184.1370  171.8950  136.7660 N   0  0  0  0  0  1  0  0  0  0  0  0
  1 21  1  0  0  0  0
  3 17  1  0  0  0  0
  3  5  1  0  0  0  0
  5 34  1  6  0  0  0
  8  4  1  0  0  0  0
  8 20  1  0  0  0  0
 10 15  1  6  0  0  0
 10 11  1  0  0  0  0
 11  6  1  6  0  0  0
 11 18  1  0  0  0  0
 12  9  1  1  0  0  0
 12 23  1  0  0  0  0
 13 23  1  0  0  0  0
 13  2  1  0  0  0  0
 14 18  2  0  0  0  0
 15  5  1  0  0  0  0
 16  1  1  6  0  0  0
 16 23  1  0  0  0  0
 17  6  1  0  0  0  0
 18 30  1  0  0  0  0
 19 22  1  0  0  0  0
 19 12  1  0  0  0  0
 19 10  1  0  0  0  0
 20  2  1  0  0  0  0
 20 32  1  0  0  0  0
 21  4  1  0  0  0  0
 22 16  1  0  0  0  0
 22 14  1  0  0  0  0
 23  7  1  0  0  0  0
 24 25  1  0  0  0  0
 24 29  2  0  0  0  0
 26 25  1  0  0  0  0
 28 26  2  0  0  0  0
 29 27  2  0  0  0  0
 30 24  1  0  0  0  0
 31 30  1  0  0  0  0
 31 26  1  0  0  0  0
 32 33  1  0  0  0  0
 34 35  1  0  0  0  0
 35 36  2  0  0  0  0
 37 35  1  0  0  0  0
M  END
>  <MODEL>
5

>  <REMARK>
 VINA RESULT:      -5.0      4.570     10.380
  Name = 
  4 active torsions:
  status: ('A' for Active; 'I' for Inactive)
    1  A    between atoms: C_6  and  C_16
    2  A    between atoms: C_7  and  C_16
    3  A    between atoms: C_8  and  N_32
    4  A    between atoms: C_30  and  C_33
                            x       y       z     vdW  Elec       q    Type
                         _______ _______ _______ _____ _____    ______ ____

>  <TORSDO>
F 4

$$$$
=
 OpenBabel11042412113D

 37 41  0  0  1  0  0  0  0  0999 V2000
  188.8050  174.9980  137.6890 C   0  0  0  0  0  2  0  0  0  0  0  0
  190.4440  176.7540  135.3220 C   0  0  0  0  0  2  0  0  0  0  0  0
  182.2470  177.6710  139.4390 C   0  0  0  0  0  2  0  0  0  0  0  0
  190.5520  174.0590  136.1200 C   0  0  0  0  0  2  0  0  0  0  0  0
  182.8840  178.6680  138.4730 C   0  0  2  0  0  3  0  0  0  0  0  0
  183.2720  175.6280  138.3420 C   0  0  0  0  0  2  0  0  0  0  0  0
  187.5880  177.3930  135.0690 C   0  0  0  0  0  1  0  0  0  0  0  0
  191.5850  175.0670  136.6420 C   0  0  0  0  0  2  0  0  0  0  0  0
  187.0740  179.0310  137.2200 O   0  0  0  0  0  1  0  0  0  0  0  0
  184.8510  177.4140  137.4110 C   0  0  1  0  0  3  0  0  0  0  0  0
  183.8110  176.3220  137.0980 C   0  0  1  0  0  3  0  0  0  0  0  0
  187.4140  177.7130  137.5500 C   0  0  1  0  0  3  0  0  0  0  0  0
  189.6610  177.3890  136.4720 C   0  0  0  0  0  2  0  0  0  0  0  0
  185.6290  174.9690  136.1370 C   0  0  0  0  0  3  0  0  0  0  0  0
  184.3890  178.4380  138.4560 C   0  0  0  0  0  2  0  0  0  0  0  0
  187.9300  175.5510  136.6470 N   0  0  1  0  0  0  0  0  0  0  0  0
  181.9870  176.3190  138.7820 C   0  0  0  0  0  2  0  0  0  0  0  0
  184.3480  175.3450  136.0910 C   0  0  0  0  0  0  0  0  0  0  0  0
  186.2120  176.8190  137.8430 C   0  0  2  0  0  3  0  0  0  0  0  0
  191.7410  176.2490  135.7760 N   0  0  0  0  0  0  0  0  0  0  0  0
  189.5200  173.7420  137.1950 C   0  0  0  0  0  2  0  0  0  0  0  0
  186.5770  175.4580  137.2020 C   0  0  1  0  0  3  0  0  0  0  0  0
  188.1680  176.9970  136.4340 C   0  0  2  0  0  0  0  0  0  0  0  0
  182.0880  175.3750  135.0190 C   0  0  0  0  0  0  0  0  0  0  0  0
  180.9980  174.4320  135.3810 C   0  0  0  0  0  2  0  0  0  0  0  0
  181.6870  173.1520  135.6620 C   0  0  0  0  0  0  0  0  0  0  0  0
  181.5850  177.8360  134.6110 O   0  0  0  0  0  0  0  0  0  0  0  0
  181.1530  172.2630  136.3080 O   0  0  0  0  0  0  0  0  0  0  0  0
  181.8360  176.6380  134.8030 C   0  0  0  0  0  0  0  0  0  0  0  0
  183.4840  174.8220  134.9760 C   0  0  2  0  0  3  0  0  0  0  0  0
  183.3710  173.0010  135.0790 S   0  0  0  0  0  0  0  0  0  0  0  0
  192.4900  175.8500  134.5940 C   0  0  0  0  0  2  0  0  0  0  0  0
  193.9170  176.3300  134.7040 C   0  0  0  0  0  1  0  0  0  0  0  0
  182.6090  180.0850  138.9460 C   0  0  0  0  0  2  0  0  0  0  0  0
  181.6970  180.7850  137.9990 C   0  0  0  0  0  0  0  0  0  0  0  0
  181.1600  180.1460  137.0560 O   0  0  0  0  0  0  0  0  0  0  0  0
  181.4060  182.1660  138.1790 N   0  0  0  0  0  1  0  0  0  0  0  0
  2 20  1  0  0  0  0
  2 13  1  0  0  0  0
  4  8  1  0  0  0  0
  4 21  1  0  0  0  0
  5 34  1  1  0  0  0
  5  3  1  0  0  0  0
  6 17  1  0  0  0  0
  7 23  1  0  0  0  0
 10 19  1  0  0  0  0
 10 15  1  1  0  0  0
 11 10  1  0  0  0  0
 11  6  1  1  0  0  0
 12  9  1  6  0  0  0
 12 19  1  0  0  0  0
 14 22  1  0  0  0  0
 15  5  1  0  0  0  0
 16 22  1  0  0  0  0
 16  1  1  1  0  0  0
 17  3  1  0  0  0  0
 18 14  2  0  0  0  0
 18 11  1  0  0  0  0
 20  8  1  0  0  0  0
 21  1  1  0  0  0  0
 22 19  1  0  0  0  0
 23 13  1  0  0  0  0
 23 16  1  0  0  0  0
 23 12  1  0  0  0  0
 24 25  1  0  0  0  0
 25 26  1  0  0  0  0
 26 28  2  0  0  0  0
 27 29  2  0  0  0  0
 29 24  2  0  0  0  0
 30 24  1  0  0  0  0
 30 31  1  0  0  0  0
 30 18  1  0  0  0  0
 31 26  1  0  0  0  0
 32 33  1  0  0  0  0
 32 20  1  0  0  0  0
 35 37  1  0  0  0  0
 35 34  1  0  0  0  0
 36 35  2  0  0  0  0
M  END
>  <MODEL>
6

>  <REMARK>
 VINA RESULT:      -5.0      2.800      8.062
  Name = 
  4 active torsions:
  status: ('A' for Active; 'I' for Inactive)
    1  A    between atoms: C_6  and  C_16
    2  A    between atoms: C_7  and  C_16
    3  A    between atoms: C_8  and  N_32
    4  A    between atoms: C_30  and  C_33
                            x       y       z     vdW  Elec       q    Type
                         _______ _______ _______ _____ _____    ______ ____

>  <TORSDO>
F 4

$$$$
=
 OpenBabel11042412113D

 37 41  0  0  1  0  0  0  0  0999 V2000
  183.1790  178.1290  135.5720 C   0  0  0  0  0  2  0  0  0  0  0  0
  181.2350  178.3330  138.3200 C   0  0  0  0  0  2  0  0  0  0  0  0
  190.2120  176.7540  136.9350 C   0  0  0  0  0  2  0  0  0  0  0  0
  180.6950  177.6550  135.6440 C   0  0  0  0  0  2  0  0  0  0  0  0
  189.5330  176.9510  138.2890 C   0  0  2  0  0  3  0  0  0  0  0  0
  188.2030  175.6550  135.8470 C   0  0  0  0  0  2  0  0  0  0  0  0
  183.6390  176.8110  139.0540 C   0  0  0  0  0  1  0  0  0  0  0  0
  180.4230  179.0750  136.1570 C   0  0  0  0  0  2  0  0  0  0  0  0
  185.6200  178.7150  139.2010 O   0  0  0  0  0  1  0  0  0  0  0  0
  187.0190  176.7930  137.8100 C   0  0  1  0  0  3  0  0  0  0  0  0
  187.3730  175.4680  137.1100 C   0  0  1  0  0  3  0  0  0  0  0  0
  185.0920  178.5100  137.9210 C   0  0  1  0  0  3  0  0  0  0  0  0
  182.6340  178.9420  138.2120 C   0  0  0  0  0  2  0  0  0  0  0  0
  185.0000  175.2440  136.4960 C   0  0  0  0  0  3  0  0  0  0  0  0
  188.2260  177.7030  138.0750 C   0  0  0  0  0  2  0  0  0  0  0  0
  183.5560  177.1900  136.6360 N   0  0  1  0  0  0  0  0  0  0  0  0
  189.6800  175.5290  136.1970 C   0  0  0  0  0  2  0  0  0  0  0  0
  186.1380  174.6480  136.8610 C   0  0  0  0  0  0  0  0  0  0  0  0
  185.9350  177.5880  137.0450 C   0  0  2  0  0  3  0  0  0  0  0  0
  180.2430  179.1470  137.6180 N   0  0  0  0  0  0  0  0  0  0  0  0
  181.9630  177.6230  134.7990 C   0  0  0  0  0  2  0  0  0  0  0  0
  184.9000  176.7320  136.2760 C   0  0  1  0  0  3  0  0  0  0  0  0
  183.7090  177.8680  137.9440 C   0  0  2  0  0  0  0  0  0  0  0  0
  186.5320  172.3950  135.8480 C   0  0  0  0  0  0  0  0  0  0  0  0
  185.4710  171.6060  135.1710 C   0  0  0  0  0  2  0  0  0  0  0  0
  184.2420  171.8830  135.9490 C   0  0  0  0  0  0  0  0  0  0  0  0
  188.8780  172.5130  134.8690 O   0  0  0  0  0  0  0  0  0  0  0  0
  183.1290  171.6790  135.4870 O   0  0  0  0  0  0  0  0  0  0  0  0
  187.7390  172.4560  135.3550 C   0  0  0  0  0  0  0  0  0  0  0  0
  186.1350  173.1590  137.0790 C   0  0  2  0  0  3  0  0  0  0  0  0
  184.4640  172.6070  137.5690 S   0  0  0  0  0  0  0  0  0  0  0  0
  178.9310  178.6060  137.9400 C   0  0  0  0  0  2  0  0  0  0  0  0
  179.0790  177.3960  138.8310 C   0  0  0  0  0  1  0  0  0  0  0  0
  190.4300  177.7740  139.1970 C   0  0  0  0  0  2  0  0  0  0  0  0
  190.1990  177.4160  140.6240 C   0  0  0  0  0  0  0  0  0  0  0  0
  190.9780  176.6160  141.2050 O   0  0  0  0  0  0  0  0  0  0  0  0
  189.1190  178.0030  141.3410 N   0  0  0  0  0  1  0  0  0  0  0  0
  3  5  1  0  0  0  0
  4  8  1  0  0  0  0
  5 34  1  1  0  0  0
  6 17  1  0  0  0  0
  8 20  1  0  0  0  0
 10 15  1  6  0  0  0
 11  6  1  6  0  0  0
 11 10  1  0  0  0  0
 12 23  1  0  0  0  0
 12  9  1  1  0  0  0
 13  2  1  0  0  0  0
 14 18  2  0  0  0  0
 15  5  1  0  0  0  0
 16  1  1  6  0  0  0
 16 23  1  0  0  0  0
 17  3  1  0  0  0  0
 18 30  1  0  0  0  0
 18 11  1  0  0  0  0
 19 10  1  0  0  0  0
 19 12  1  0  0  0  0
 20 32  1  0  0  0  0
 20  2  1  0  0  0  0
 21  1  1  0  0  0  0
 21  4  1  0  0  0  0
 22 14  1  0  0  0  0
 22 16  1  0  0  0  0
 22 19  1  0  0  0  0
 23 13  1  0  0  0  0
 23  7  1  0  0  0  0
 24 30  1  0  0  0  0
 25 24  1  0  0  0  0
 25 26  1  0  0  0  0
 26 31  1  0  0  0  0
 27 29  2  0  0  0  0
 28 26  2  0  0  0  0
 29 24  2  0  0  0  0
 30 31  1  0  0  0  0
 32 33  1  0  0  0  0
 34 35  1  0  0  0  0
 35 36  2  0  0  0  0
 35 37  1  0  0  0  0
M  END
>  <MODEL>
7

>  <REMARK>
 VINA RESULT:      -5.0      2.413      3.424
  Name = 
  4 active torsions:
  status: ('A' for Active; 'I' for Inactive)
    1  A    between atoms: C_6  and  C_16
    2  A    between atoms: C_7  and  C_16
    3  A    between atoms: C_8  and  N_32
    4  A    between atoms: C_30  and  C_33
                            x       y       z     vdW  Elec       q    Type
                         _______ _______ _______ _____ _____    ______ ____

>  <TORSDO>
F 4

$$$$
=
 OpenBabel11042412113D

 37 41  0  0  1  0  0  0  0  0999 V2000
  192.4930  175.6460  134.9160 C   0  0  0  0  0  2  0  0  0  0  0  0
  193.5580  172.8180  136.4130 C   0  0  0  0  0  2  0  0  0  0  0  0
  185.6280  177.5200  136.5260 C   0  0  0  0  0  2  0  0  0  0  0  0
  194.9030  175.0940  135.4500 C   0  0  0  0  0  2  0  0  0  0  0  0
  185.8750  176.1590  137.1730 C   0  0  2  0  0  3  0  0  0  0  0  0
  187.9960  178.3570  136.8830 C   0  0  0  0  0  2  0  0  0  0  0  0
  191.2900  173.8400  137.9770 C   0  0  0  0  0  1  0  0  0  0  0  0
  194.8160  173.8210  134.5970 C   0  0  0  0  0  2  0  0  0  0  0  0
  189.0920  173.2700  136.4230 O   0  0  0  0  0  1  0  0  0  0  0  0
  188.4200  175.8450  137.1340 C   0  0  1  0  0  3  0  0  0  0  0  0
  188.4650  177.2330  137.7980 C   0  0  1  0  0  3  0  0  0  0  0  0
  189.9750  174.2090  135.8750 C   0  0  1  0  0  3  0  0  0  0  0  0
  192.1700  172.9900  135.7940 C   0  0  0  0  0  2  0  0  0  0  0  0
  190.9230  177.1040  137.7280 C   0  0  0  0  0  3  0  0  0  0  0  0
  187.0680  175.5020  136.4910 C   0  0  0  0  0  2  0  0  0  0  0  0
  191.9780  175.4660  136.2790 N   0  0  1  0  0  0  0  0  0  0  0  0
  186.5130  178.6100  137.1250 C   0  0  0  0  0  2  0  0  0  0  0  0
  189.8260  177.5050  138.3770 C   0  0  0  0  0  0  0  0  0  0  0  0
  189.5450  175.6580  136.0900 C   0  0  2  0  0  3  0  0  0  0  0  0
  194.5770  172.6000  135.3860 N   0  0  0  0  0  0  0  0  0  0  0  0
  193.9330  176.1510  134.9360 C   0  0  0  0  0  2  0  0  0  0  0  0
  190.8640  176.4120  136.3900 C   0  0  1  0  0  3  0  0  0  0  0  0
  191.3760  174.1260  136.4720 C   0  0  2  0  0  0  0  0  0  0  0  0
  191.0160  177.4930  140.5760 C   0  0  0  0  0  0  0  0  0  0  0  0
  190.5250  176.7540  141.7680 C   0  0  0  0  0  2  0  0  0  0  0  0
  189.0510  176.8750  141.7040 C   0  0  0  0  0  0  0  0  0  0  0  0
  193.4910  177.4960  139.9870 O   0  0  0  0  0  0  0  0  0  0  0  0
  188.3160  176.1160  142.3200 O   0  0  0  0  0  0  0  0  0  0  0  0
  192.2850  177.5040  140.2710 C   0  0  0  0  0  0  0  0  0  0  0  0
  189.9840  178.1670  139.7180 C   0  0  2  0  0  3  0  0  0  0  0  0
  188.3950  178.1350  140.6180 S   0  0  0  0  0  0  0  0  0  0  0  0
  195.8140  172.2510  136.0680 C   0  0  0  0  0  2  0  0  0  0  0  0
  195.5180  171.8460  137.4920 C   0  0  0  0  0  1  0  0  0  0  0  0
  184.6550  175.2740  136.9860 C   0  0  0  0  0  2  0  0  0  0  0  0
  183.4270  175.9700  137.4590 C   0  0  0  0  0  0  0  0  0  0  0  0
  182.5150  176.2610  136.6410 O   0  0  0  0  0  0  0  0  0  0  0  0
  183.2680  176.2770  138.8400 N   0  0  0  0  0  1  0  0  0  0  0  0
  1 21  1  0  0  0  0
  3 17  1  0  0  0  0
  3  5  1  0  0  0  0
  5 34  1  6  0  0  0
  6 17  1  0  0  0  0
  8 20  1  0  0  0  0
  8  4  1  0  0  0  0
 10 15  1  6  0  0  0
 10 11  1  0  0  0  0
 11  6  1  6  0  0  0
 11 18  1  0  0  0  0
 12 19  1  0  0  0  0
 12  9  1  1  0  0  0
 12 23  1  0  0  0  0
 13  2  1  0  0  0  0
 13 23  1  0  0  0  0
 14 18  2  0  0  0  0
 15  5  1  0  0  0  0
 16  1  1  6  0  0  0
 16 22  1  0  0  0  0
 16 23  1  0  0  0  0
 18 30  1  0  0  0  0
 19 22  1  0  0  0  0
 19 10  1  0  0  0  0
 20 32  1  0  0  0  0
 20  2  1  0  0  0  0
 21  4  1  0  0  0  0
 22 14  1  0  0  0  0
 23  7  1  0  0  0  0
 24 25  1  0  0  0  0
 26 25  1  0  0  0  0
 26 28  2  0  0  0  0
 27 29  2  0  0  0  0
 29 24  2  0  0  0  0
 30 24  1  0  0  0  0
 30 31  1  0  0  0  0
 31 26  1  0  0  0  0
 32 33  1  0  0  0  0
 34 35  1  0  0  0  0
 35 37  1  0  0  0  0
 36 35  2  0  0  0  0
M  END
>  <MODEL>
8

>  <REMARK>
 VINA RESULT:      -4.9      3.758     10.126
  Name = 
  4 active torsions:
  status: ('A' for Active; 'I' for Inactive)
    1  A    between atoms: C_6  and  C_16
    2  A    between atoms: C_7  and  C_16
    3  A    between atoms: C_8  and  N_32
    4  A    between atoms: C_30  and  C_33
                            x       y       z     vdW  Elec       q    Type
                         _______ _______ _______ _____ _____    ______ ____

>  <TORSDO>
F 4

$$$$
=
 OpenBabel11042412113D

 37 41  0  0  1  0  0  0  0  0999 V2000
  192.9950  175.7890  134.8850 C   0  0  0  0  0  2  0  0  0  0  0  0
  194.1950  173.0140  136.3780 C   0  0  0  0  0  2  0  0  0  0  0  0
  186.0050  177.2480  136.3810 C   0  0  0  0  0  2  0  0  0  0  0  0
  195.4230  175.3730  135.4590 C   0  0  0  0  0  2  0  0  0  0  0  0
  186.3190  175.8970  137.0210 C   0  0  2  0  0  3  0  0  0  0  0  0
  188.3130  178.2160  136.7890 C   0  0  0  0  0  2  0  0  0  0  0  0
  191.8430  173.8880  137.9070 C   0  0  0  0  0  1  0  0  0  0  0  0
  195.4260  174.1060  134.5940 C   0  0  0  0  0  2  0  0  0  0  0  0
  189.7110  173.2060  136.3070 O   0  0  0  0  0  1  0  0  0  0  0  0
  188.8780  175.7310  137.0270 C   0  0  1  0  0  3  0  0  0  0  0  0
  188.8300  177.1140  137.7040 C   0  0  1  0  0  3  0  0  0  0  0  0
  190.5480  174.2000  135.7840 C   0  0  1  0  0  3  0  0  0  0  0  0
  192.8120  173.1110  135.7340 C   0  0  0  0  0  2  0  0  0  0  0  0
  191.2920  177.1280  137.6790 C   0  0  0  0  0  3  0  0  0  0  0  0
  187.5600  175.3170  136.3560 C   0  0  0  0  0  2  0  0  0  0  0  0
  192.4670  175.5670  136.2360 N   0  0  1  0  0  0  0  0  0  0  0  0
  186.8140  178.3810  137.0050 C   0  0  0  0  0  2  0  0  0  0  0  0
  190.1620  177.4580  138.3100 C   0  0  0  0  0  0  0  0  0  0  0  0
  190.0310  175.6200  136.0030 C   0  0  2  0  0  3  0  0  0  0  0  0
  195.2440  172.8660  135.3680 N   0  0  0  0  0  0  0  0  0  0  0  0
  194.4030  176.3780  134.9360 C   0  0  0  0  0  2  0  0  0  0  0  0
  191.2980  176.4460  136.3340 C   0  0  1  0  0  3  0  0  0  0  0  0
  191.9400  174.1930  136.4060 C   0  0  2  0  0  0  0  0  0  0  0  0
  191.2770  177.4640  140.5480 C   0  0  0  0  0  0  0  0  0  0  0  0
  190.7670  176.7040  141.7190 C   0  0  0  0  0  2  0  0  0  0  0  0
  189.2920  176.7850  141.6060 C   0  0  0  0  0  0  0  0  0  0  0  0
  193.7700  177.5370  140.0430 O   0  0  0  0  0  0  0  0  0  0  0  0
  188.5590  176.0030  142.1920 O   0  0  0  0  0  0  0  0  0  0  0  0
  192.5550  177.5110  140.2870 C   0  0  0  0  0  0  0  0  0  0  0  0
  190.2570  178.1150  139.6600 C   0  0  2  0  0  3  0  0  0  0  0  0
  188.6390  178.0350  140.5050 S   0  0  0  0  0  0  0  0  0  0  0  0
  196.4870  172.5820  136.0710 C   0  0  0  0  0  2  0  0  0  0  0  0
  197.4830  171.9610  135.1210 C   0  0  0  0  0  1  0  0  0  0  0  0
  185.1560  174.9450  136.8030 C   0  0  0  0  0  2  0  0  0  0  0  0
  185.5960  173.5330  136.9770 C   0  0  0  0  0  0  0  0  0  0  0  0
  185.8990  173.1050  138.1210 O   0  0  0  0  0  0  0  0  0  0  0  0
  185.6430  172.6570  135.8550 N   0  0  0  0  0  1  0  0  0  0  0  0
  1 21  1  0  0  0  0
  3 17  1  0  0  0  0
  3  5  1  0  0  0  0
  5 34  1  6  0  0  0
  6 17  1  0  0  0  0
  8 20  1  0  0  0  0
  8  4  1  0  0  0  0
 10 15  1  6  0  0  0
 10 11  1  0  0  0  0
 11  6  1  6  0  0  0
 11 18  1  0  0  0  0
 12 19  1  0  0  0  0
 12  9  1  1  0  0  0
 12 23  1  0  0  0  0
 13  2  1  0  0  0  0
 13 23  1  0  0  0  0
 14 18  2  0  0  0  0
 15  5  1  0  0  0  0
 16  1  1  6  0  0  0
 16 22  1  0  0  0  0
 16 23  1  0  0  0  0
 18 30  1  0  0  0  0
 19 22  1  0  0  0  0
 19 10  1  0  0  0  0
 20 32  1  0  0  0  0
 20  2  1  0  0  0  0
 21  4  1  0  0  0  0
 22 14  1  0  0  0  0
 23  7  1  0  0  0  0
 24 25  1  0  0  0  0
 26 25  1  0  0  0  0
 26 28  2  0  0  0  0
 27 29  2  0  0  0  0
 29 24  2  0  0  0  0
 30 31  1  0  0  0  0
 30 24  1  0  0  0  0
 31 26  1  0  0  0  0
 33 32  1  0  0  0  0
 34 35  1  0  0  0  0
 35 36  2  0  0  0  0
 37 35  1  0  0  0  0
M  END
>  <MODEL>
9

>  <REMARK>
 VINA RESULT:      -4.8      4.786     10.413
  Name = 
  4 active torsions:
  status: ('A' for Active; 'I' for Inactive)
    1  A    between atoms: C_6  and  C_16
    2  A    between atoms: C_7  and  C_16
    3  A    between atoms: C_8  and  N_32
    4  A    between atoms: C_30  and  C_33
                            x       y       z     vdW  Elec       q    Type
                         _______ _______ _______ _____ _____    ______ ____

>  <TORSDO>
F 4

$$$$
