=
 OpenBabel11042410193D

 48 50  0  0  1  0  0  0  0  0999 V2000
  190.4420  177.1910  139.0650 N   0  0  0  0  0  0  0  0  0  0  0  0
  189.6940  177.5010  140.2520 C   0  0  0  0  0  0  0  0  0  0  0  0
  188.4370  177.5940  140.1930 O   0  0  0  0  0  0  0  0  0  0  0  0
  191.8420  176.7870  139.1420 C   0  0  0  0  0  2  0  0  0  0  0  0
  192.2000  175.8780  137.9760 C   0  0  0  0  0  2  0  0  0  0  0  0
  193.4140  176.4020  137.2300 C   0  0  0  0  0  2  0  0  0  0  0  0
  194.3480  175.2560  136.8910 C   0  0  0  0  0  2  0  0  0  0  0  0
  194.2980  174.2570  137.9410 N   0  0  0  0  0  2  0  0  0  0  0  0
  195.3500  173.2970  137.6510 C   0  0  0  0  0  2  0  0  0  0  0  0
  196.5260  173.9930  136.9880 C   0  0  0  0  0  2  0  0  0  0  0  0
  197.7410  174.0280  137.9180 C   0  0  1  0  0  3  0  0  0  0  0  0
  198.8390  173.3580  137.3630 O   0  0  0  0  0  1  0  0  0  0  0  0
  198.0770  175.3380  138.3210 O   0  0  0  0  0  0  0  0  0  0  0  0
  197.3380  175.2750  140.5910 C   0  0  0  0  0  1  0  0  0  0  0  0
  198.5280  175.3010  139.6510 C   0  0  0  0  0  2  0  0  0  0  0  0
  190.3850  177.6720  141.5710 C   0  0  0  0  0  2  0  0  0  0  0  0
  185.7330  178.5150  146.9860 C   0  0  0  0  0  3  0  0  0  0  0  0
  187.7420  177.7150  145.8990 C   0  0  0  0  0  0  0  0  0  0  0  0
  189.0660  177.2520  145.9750 C   0  0  0  0  0  3  0  0  0  0  0  0
  189.0900  177.0250  143.5760 C   0  0  0  0  0  0  0  0  0  0  0  0
  185.0800  178.6080  145.7440 C   0  0  0  0  0  0  0  0  0  0  0  0
  190.9920  176.3870  144.6240 N   0  0  0  0  0  0  0  0  0  0  0  0
  185.7650  178.2560  144.5750 C   0  0  0  0  0  3  0  0  0  0  0  0
  189.7000  176.9160  144.7810 C   0  0  0  0  0  0  0  0  0  0  0  0
  187.0560  178.0690  147.0630 C   0  0  0  0  0  3  0  0  0  0  0  0
  187.0880  177.8140  144.6360 C   0  0  0  0  0  0  0  0  0  0  0  0
  191.2490  176.1150  143.2640 N   0  0  0  0  0  0  0  0  0  0  0  0
  187.7690  177.4610  143.4590 C   0  0  0  0  0  3  0  0  0  0  0  0
  190.0330  176.5420  142.5310 C   0  0  2  0  0  3  0  0  0  0  0  0
  183.7570  179.0470  145.6440 O   0  0  0  0  0  0  0  0  0  0  0  0
  183.0300  179.0230  144.4240 C   0  0  0  0  0  1  0  0  0  0  0  0
  189.7800  177.1640  137.7670 C   0  0  0  0  0  2  0  0  0  0  0  0
  189.0510  175.8770  137.5900 C   0  0  0  0  0  3  0  0  0  0  0  0
  186.7730  175.8330  136.3150 C   0  0  0  0  0  3  0  0  0  0  0  0
  187.9140  175.8550  136.9540 C   0  0  0  0  0  0  0  0  0  0  0  0
  185.8890  174.6530  136.2710 C   0  0  0  0  0  0  0  0  0  0  0  0
  186.3240  173.4990  135.7450 C   0  0  0  0  0  3  0  0  0  0  0  0
  185.5160  172.2470  135.6630 C   0  0  0  0  0  1  0  0  0  0  0  0
  184.2670  174.8330  136.9580 S   0  0  0  0  0  0  0  0  0  0  0  0
  183.2700  174.8790  135.8340 O   0  0  0  0  0  0  0  0  0  0  0  0
  183.9260  173.6620  137.8380 O   0  0  0  0  0  0  0  0  0  0  0  0
  184.1550  176.3110  137.8580 N   0  0  0  0  0  2  0  0  0  0  0  0
  182.7670  176.5140  138.2450 C   0  0  0  0  0  2  0  0  0  0  0  0
  182.6630  176.7070  139.7480 C   0  0  0  0  0  2  0  0  0  0  0  0
  182.9270  178.1580  140.1120 C   0  0  0  0  0  2  0  0  0  0  0  0
  182.3590  179.0300  139.0990 N   0  0  0  0  0  2  0  0  0  0  0  0
  183.2670  180.1540  138.9480 C   0  0  0  0  0  2  0  0  0  0  0  0
  184.5680  179.7440  139.2400 O   0  0  0  0  0  1  0  0  0  0  0  0
  1  4  1  0  0  0  0
  1  2  1  0  0  0  0
  2 16  1  0  0  0  0
  3  2  2  0  0  0  0
  5  4  1  0  0  0  0
  6  5  1  0  0  0  0
  7  6  1  0  0  0  0
  7  8  1  0  0  0  0
  9  8  1  0  0  0  0
 10  9  1  0  0  0  0
 10 11  1  0  0  0  0
 11 12  1  6  0  0  0
 11 13  1  0  0  0  0
 13 15  1  0  0  0  0
 15 14  1  0  0  0  0
 17 25  1  0  0  0  0
 18 19  1  0  0  0  0
 18 25  2  0  0  0  0
 20 24  1  0  0  0  0
 21 17  2  0  0  0  0
 22 24  1  0  0  0  0
 23 26  2  0  0  0  0
 23 21  1  0  0  0  0
 24 19  2  0  0  0  0
 26 18  1  0  0  0  0
 27 22  2  0  0  0  0
 28 20  2  0  0  0  0
 28 26  1  0  0  0  0
 29 16  1  6  0  0  0
 29 27  1  0  0  0  0
 29 20  1  0  0  0  0
 30 21  1  0  0  0  0
 31 30  1  0  0  0  0
 32  1  1  0  0  0  0
 33 32  1  0  0  0  0
 34 35  2  0  0  0  0
 35 33  2  0  0  0  0
 36 34  1  0  0  0  0
 36 39  1  0  0  0  0
 37 36  2  0  0  0  0
 38 37  1  0  0  0  0
 39 41  2  0  0  0  0
 39 42  1  0  0  0  0
 40 39  2  0  0  0  0
 42 43  1  0  0  0  0
 43 44  1  0  0  0  0
 44 45  1  0  0  0  0
 46 45  1  0  0  0  0
 47 46  1  0  0  0  0
 47 48  1  0  0  0  0
M  END
>  <MODEL>
1

>  <REMARK>
 VINA RESULT:      -7.2      0.000      0.000
  Name = 
  23 active torsions:
  status: ('A' for Active; 'I' for Inactive)
    1  A    between atoms: C_3  and  N_17
    2  A    between atoms: C_3  and  C_47
    3  A    between atoms: N_5  and  C_23
    4  A    between atoms: N_5  and  C_29
    5  A    between atoms: C_7  and  O_8
    6  A    between atoms: C_9  and  C_24
    7  A    between atoms: C_9  and  N_43
    8  A    between atoms: C_10  and  N_17
    9  A    between atoms: C_10  and  C_27
   10  A    between atoms: C_12  and  C_13
   11  A    between atoms: C_13  and  N_14
   12  A    between atoms: N_14  and  C_25
   13  A    between atoms: C_16  and  C_19
   14  A    between atoms: C_19  and  C_46
   15  A    between atoms: C_20  and  C_21
   16  A    between atoms: C_20  and  S_28
   17  A    between atoms: C_24  and  C_29
   18  A    between atoms: C_25  and  C_35
   19  A    between atoms: C_27  and  C_35
   20  A    between atoms: S_28  and  N_43
   21  A    between atoms: C_38  and  O_48
   22  A    between atoms: C_39  and  C_47
   23  A    between atoms: C_39  and  O_48
                            x       y       z     vdW  Elec       q    Type
                         _______ _______ _______ _____ _____    ______ ____

>  <TORSDO>
F 23

$$$$
=
 OpenBabel11042410193D

 48 50  0  0  1  0  0  0  0  0999 V2000
  189.7350  176.9820  138.8050 N   0  0  0  0  0  0  0  0  0  0  0  0
  189.2010  177.6300  139.9710 C   0  0  0  0  0  0  0  0  0  0  0  0
  188.0240  178.0860  139.9500 O   0  0  0  0  0  0  0  0  0  0  0  0
  190.9600  176.1920  138.8790 C   0  0  0  0  0  2  0  0  0  0  0  0
  191.8360  176.4500  137.6630 C   0  0  0  0  0  2  0  0  0  0  0  0
  193.2920  176.1490  137.9670 C   0  0  0  0  0  2  0  0  0  0  0  0
  193.6300  174.7340  137.5360 C   0  0  0  0  0  2  0  0  0  0  0  0
  194.2140  174.7550  136.2080 N   0  0  0  0  0  2  0  0  0  0  0  0
  195.2230  173.7090  136.1830 C   0  0  0  0  0  2  0  0  0  0  0  0
  196.4210  174.1560  135.3630 C   0  0  0  0  0  2  0  0  0  0  0  0
  197.5770  174.5900  136.2670 C   0  0  1  0  0  3  0  0  0  0  0  0
  197.5260  175.9600  136.5530 O   0  0  0  0  0  1  0  0  0  0  0  0
  197.6660  173.8140  137.4420 O   0  0  0  0  0  0  0  0  0  0  0  0
  196.7170  174.5780  139.4960 C   0  0  0  0  0  1  0  0  0  0  0  0
  197.8860  174.6690  138.5340 C   0  0  0  0  0  2  0  0  0  0  0  0
  190.0090  177.7340  141.2290 C   0  0  0  0  0  2  0  0  0  0  0  0
  185.5900  178.5210  146.8440 C   0  0  0  0  0  3  0  0  0  0  0  0
  187.5470  177.7280  145.6630 C   0  0  0  0  0  0  0  0  0  0  0  0
  188.8710  177.2580  145.6780 C   0  0  0  0  0  3  0  0  0  0  0  0
  188.7940  177.0650  143.2770 C   0  0  0  0  0  0  0  0  0  0  0  0
  184.8860  178.6350  145.6310 C   0  0  0  0  0  0  0  0  0  0  0  0
  190.7350  176.4030  144.2360 N   0  0  0  0  0  0  0  0  0  0  0  0
  185.5200  178.2970  144.4300 C   0  0  0  0  0  3  0  0  0  0  0  0
  189.4530  176.9360  144.4530 C   0  0  0  0  0  0  0  0  0  0  0  0
  186.9120  178.0680  146.8600 C   0  0  0  0  0  3  0  0  0  0  0  0
  186.8420  177.8480  144.4300 C   0  0  0  0  0  0  0  0  0  0  0  0
  190.9330  176.1500  142.8630 N   0  0  0  0  0  0  0  0  0  0  0  0
  187.4720  177.5090  143.2210 C   0  0  0  0  0  3  0  0  0  0  0  0
  189.6900  176.5930  142.1870 C   0  0  2  0  0  3  0  0  0  0  0  0
  183.5620  179.0810  145.5930 O   0  0  0  0  0  0  0  0  0  0  0  0
  182.7690  179.0320  144.4150 C   0  0  0  0  0  1  0  0  0  0  0  0
  188.9980  177.0080  137.5480 C   0  0  0  0  0  2  0  0  0  0  0  0
  188.0790  175.8400  137.4690 C   0  0  0  0  0  3  0  0  0  0  0  0
  185.5310  176.2110  137.0340 C   0  0  0  0  0  3  0  0  0  0  0  0
  186.8070  176.0250  137.2530 C   0  0  0  0  0  0  0  0  0  0  0  0
  184.5230  175.1400  137.1440 C   0  0  0  0  0  0  0  0  0  0  0  0
  184.8830  173.8550  137.0190 C   0  0  0  0  0  3  0  0  0  0  0  0
  183.9460  172.6980  137.1250 C   0  0  0  0  0  1  0  0  0  0  0  0
  182.8540  175.6330  137.4670 S   0  0  0  0  0  0  0  0  0  0  0  0
  182.6360  177.0050  136.8920 O   0  0  0  0  0  0  0  0  0  0  0  0
  181.8820  174.6910  136.8100 O   0  0  0  0  0  0  0  0  0  0  0  0
  182.5640  175.6970  139.1760 N   0  0  0  0  0  2  0  0  0  0  0  0
  181.1270  175.7400  139.4010 C   0  0  0  0  0  2  0  0  0  0  0  0
  180.7460  177.0230  140.1200 C   0  0  0  0  0  2  0  0  0  0  0  0
  181.9900  177.8300  140.4510 C   0  0  0  0  0  2  0  0  0  0  0  0
  181.6870  179.2490  140.3820 N   0  0  0  0  0  2  0  0  0  0  0  0
  180.5820  179.4920  141.2930 C   0  0  0  0  0  2  0  0  0  0  0  0
  179.9590  180.6950  140.9590 O   0  0  0  0  0  1  0  0  0  0  0  0
  1  4  1  0  0  0  0
  1  2  1  0  0  0  0
  2 16  1  0  0  0  0
  3  2  2  0  0  0  0
  5  6  1  0  0  0  0
  5  4  1  0  0  0  0
  7  6  1  0  0  0  0
  8  7  1  0  0  0  0
  9  8  1  0  0  0  0
 10  9  1  0  0  0  0
 10 11  1  0  0  0  0
 11 12  1  1  0  0  0
 11 13  1  0  0  0  0
 13 15  1  0  0  0  0
 15 14  1  0  0  0  0
 17 25  1  0  0  0  0
 18 19  1  0  0  0  0
 18 25  2  0  0  0  0
 20 24  1  0  0  0  0
 21 17  2  0  0  0  0
 22 24  1  0  0  0  0
 23 26  2  0  0  0  0
 23 21  1  0  0  0  0
 24 19  2  0  0  0  0
 26 18  1  0  0  0  0
 27 22  2  0  0  0  0
 28 20  2  0  0  0  0
 28 26  1  0  0  0  0
 29 16  1  6  0  0  0
 29 27  1  0  0  0  0
 29 20  1  0  0  0  0
 30 21  1  0  0  0  0
 31 30  1  0  0  0  0
 32  1  1  0  0  0  0
 33 32  1  0  0  0  0
 34 36  1  0  0  0  0
 34 35  2  0  0  0  0
 35 33  2  0  0  0  0
 36 39  1  0  0  0  0
 37 38  1  0  0  0  0
 37 36  2  0  0  0  0
 39 42  1  0  0  0  0
 40 39  2  0  0  0  0
 41 39  2  0  0  0  0
 42 43  1  0  0  0  0
 43 44  1  0  0  0  0
 44 45  1  0  0  0  0
 46 45  1  0  0  0  0
 46 47  1  0  0  0  0
 48 47  1  0  0  0  0
M  END
>  <MODEL>
2

>  <REMARK>
 VINA RESULT:      -7.0      1.447      1.592
  Name = 
  23 active torsions:
  status: ('A' for Active; 'I' for Inactive)
    1  A    between atoms: C_3  and  N_17
    2  A    between atoms: C_3  and  C_47
    3  A    between atoms: N_5  and  C_23
    4  A    between atoms: N_5  and  C_29
    5  A    between atoms: C_7  and  O_8
    6  A    between atoms: C_9  and  C_24
    7  A    between atoms: C_9  and  N_43
    8  A    between atoms: C_10  and  N_17
    9  A    between atoms: C_10  and  C_27
   10  A    between atoms: C_12  and  C_13
   11  A    between atoms: C_13  and  N_14
   12  A    between atoms: N_14  and  C_25
   13  A    between atoms: C_16  and  C_19
   14  A    between atoms: C_19  and  C_46
   15  A    between atoms: C_20  and  C_21
   16  A    between atoms: C_20  and  S_28
   17  A    between atoms: C_24  and  C_29
   18  A    between atoms: C_25  and  C_35
   19  A    between atoms: C_27  and  C_35
   20  A    between atoms: S_28  and  N_43
   21  A    between atoms: C_38  and  O_48
   22  A    between atoms: C_39  and  C_47
   23  A    between atoms: C_39  and  O_48
                            x       y       z     vdW  Elec       q    Type
                         _______ _______ _______ _____ _____    ______ ____

>  <TORSDO>
F 23

$$$$
=
 OpenBabel11042410193D

 48 50  0  0  1  0  0  0  0  0999 V2000
  189.7290  177.1820  138.9560 N   0  0  0  0  0  0  0  0  0  0  0  0
  189.1980  177.6720  140.1980 C   0  0  0  0  0  0  0  0  0  0  0  0
  187.9900  178.0300  140.2640 O   0  0  0  0  0  0  0  0  0  0  0  0
  191.0130  176.4910  138.9090 C   0  0  0  0  0  2  0  0  0  0  0  0
  191.6410  176.6240  137.5300 C   0  0  0  0  0  2  0  0  0  0  0  0
  192.3190  175.3320  137.1130 C   0  0  0  0  0  2  0  0  0  0  0  0
  192.8960  175.4770  135.7170 C   0  0  0  0  0  2  0  0  0  0  0  0
  194.3450  175.5020  135.7880 N   0  0  0  0  0  2  0  0  0  0  0  0
  194.7700  174.1370  136.0520 C   0  0  0  0  0  2  0  0  0  0  0  0
  195.9270  174.1300  137.0360 C   0  0  0  0  0  2  0  0  0  0  0  0
  196.0940  172.7540  137.6820 C   0  0  1  0  0  3  0  0  0  0  0  0
  195.3590  172.6440  138.8690 O   0  0  0  0  0  1  0  0  0  0  0  0
  195.8050  171.6990  136.7890 O   0  0  0  0  0  0  0  0  0  0  0  0
  196.6170  169.6280  137.6570 C   0  0  0  0  0  1  0  0  0  0  0  0
  196.8990  170.8180  136.7600 C   0  0  0  0  0  2  0  0  0  0  0  0
  190.0500  177.7250  141.4300 C   0  0  0  0  0  2  0  0  0  0  0  0
  185.4740  178.5450  146.9130 C   0  0  0  0  0  3  0  0  0  0  0  0
  187.4660  177.7470  145.7940 C   0  0  0  0  0  0  0  0  0  0  0  0
  188.7900  177.2810  145.8490 C   0  0  0  0  0  3  0  0  0  0  0  0
  188.7800  177.0680  143.4490 C   0  0  0  0  0  0  0  0  0  0  0  0
  184.8050  178.6480  145.6810 C   0  0  0  0  0  0  0  0  0  0  0  0
  190.6950  176.4190  144.4670 N   0  0  0  0  0  0  0  0  0  0  0  0
  185.4720  178.3010  144.5000 C   0  0  0  0  0  3  0  0  0  0  0  0
  189.4070  176.9500  144.6440 C   0  0  0  0  0  0  0  0  0  0  0  0
  186.7970  178.0950  146.9690 C   0  0  0  0  0  3  0  0  0  0  0  0
  186.7950  177.8560  144.5410 C   0  0  0  0  0  0  0  0  0  0  0  0
  190.9320  176.1550  143.1020 N   0  0  0  0  0  0  0  0  0  0  0  0
  187.4600  177.5080  143.3520 C   0  0  0  0  0  3  0  0  0  0  0  0
  189.7080  176.5900  142.3880 C   0  0  2  0  0  3  0  0  0  0  0  0
  183.4810  179.0900  145.6020 O   0  0  0  0  0  0  0  0  0  0  0  0
  182.6550  178.8430  144.4730 C   0  0  0  0  0  1  0  0  0  0  0  0
  188.9380  177.2650  137.7360 C   0  0  0  0  0  2  0  0  0  0  0  0
  188.2600  175.9650  137.4760 C   0  0  0  0  0  3  0  0  0  0  0  0
  186.0230  175.9060  136.1300 C   0  0  0  0  0  3  0  0  0  0  0  0
  187.1430  175.9360  136.8050 C   0  0  0  0  0  0  0  0  0  0  0  0
  185.1810  174.7010  136.0030 C   0  0  0  0  0  0  0  0  0  0  0  0
  185.6920  173.5700  135.4960 C   0  0  0  0  0  3  0  0  0  0  0  0
  184.9320  172.2950  135.3360 C   0  0  0  0  0  1  0  0  0  0  0  0
  183.5080  174.8220  136.5650 S   0  0  0  0  0  0  0  0  0  0  0  0
  182.6050  174.9530  135.3700 O   0  0  0  0  0  0  0  0  0  0  0  0
  183.1070  173.5830  137.3190 O   0  0  0  0  0  0  0  0  0  0  0  0
  183.3080  176.2240  137.5660 N   0  0  0  0  0  2  0  0  0  0  0  0
  182.7440  175.8070  138.8410 C   0  0  0  0  0  2  0  0  0  0  0  0
  182.0030  176.9620  139.4910 C   0  0  0  0  0  2  0  0  0  0  0  0
  182.8070  178.2440  139.3600 C   0  0  0  0  0  2  0  0  0  0  0  0
  183.4540  178.5490  140.6240 N   0  0  0  0  0  2  0  0  0  0  0  0
  184.7440  179.1370  140.3090 C   0  0  0  0  0  2  0  0  0  0  0  0
  185.0070  178.9830  138.9480 O   0  0  0  0  0  1  0  0  0  0  0  0
  1  2  1  0  0  0  0
  2  3  2  0  0  0  0
  2 16  1  0  0  0  0
  4  1  1  0  0  0  0
  5  4  1  0  0  0  0
  6  5  1  0  0  0  0
  7  8  1  0  0  0  0
  7  6  1  0  0  0  0
  8  9  1  0  0  0  0
  9 10  1  0  0  0  0
 10 11  1  0  0  0  0
 11 12  1  1  0  0  0
 13 11  1  0  0  0  0
 15 13  1  0  0  0  0
 15 14  1  0  0  0  0
 17 25  1  0  0  0  0
 18 19  1  0  0  0  0
 18 25  2  0  0  0  0
 20 24  1  0  0  0  0
 21 17  2  0  0  0  0
 22 24  1  0  0  0  0
 23 26  2  0  0  0  0
 23 21  1  0  0  0  0
 24 19  2  0  0  0  0
 26 18  1  0  0  0  0
 27 22  2  0  0  0  0
 28 20  2  0  0  0  0
 28 26  1  0  0  0  0
 29 16  1  6  0  0  0
 29 27  1  0  0  0  0
 29 20  1  0  0  0  0
 30 21  1  0  0  0  0
 31 30  1  0  0  0  0
 32  1  1  0  0  0  0
 33 32  1  0  0  0  0
 34 35  2  0  0  0  0
 35 33  2  0  0  0  0
 36 34  1  0  0  0  0
 36 39  1  0  0  0  0
 37 36  2  0  0  0  0
 38 37  1  0  0  0  0
 39 41  2  0  0  0  0
 39 42  1  0  0  0  0
 40 39  2  0  0  0  0
 42 43  1  0  0  0  0
 43 44  1  0  0  0  0
 45 44  1  0  0  0  0
 45 46  1  0  0  0  0
 47 46  1  0  0  0  0
 48 47  1  0  0  0  0
M  END
>  <MODEL>
3

>  <REMARK>
 VINA RESULT:      -6.7      1.417      1.779
  Name = 
  23 active torsions:
  status: ('A' for Active; 'I' for Inactive)
    1  A    between atoms: C_3  and  N_17
    2  A    between atoms: C_3  and  C_47
    3  A    between atoms: N_5  and  C_23
    4  A    between atoms: N_5  and  C_29
    5  A    between atoms: C_7  and  O_8
    6  A    between atoms: C_9  and  C_24
    7  A    between atoms: C_9  and  N_43
    8  A    between atoms: C_10  and  N_17
    9  A    between atoms: C_10  and  C_27
   10  A    between atoms: C_12  and  C_13
   11  A    between atoms: C_13  and  N_14
   12  A    between atoms: N_14  and  C_25
   13  A    between atoms: C_16  and  C_19
   14  A    between atoms: C_19  and  C_46
   15  A    between atoms: C_20  and  C_21
   16  A    between atoms: C_20  and  S_28
   17  A    between atoms: C_24  and  C_29
   18  A    between atoms: C_25  and  C_35
   19  A    between atoms: C_27  and  C_35
   20  A    between atoms: S_28  and  N_43
   21  A    between atoms: C_38  and  O_48
   22  A    between atoms: C_39  and  C_47
   23  A    between atoms: C_39  and  O_48
                            x       y       z     vdW  Elec       q    Type
                         _______ _______ _______ _____ _____    ______ ____

>  <TORSDO>
F 23

$$$$
=
 OpenBabel11042410193D

 48 50  0  0  1  0  0  0  0  0999 V2000
  189.5050  177.3440  138.6350 N   0  0  0  0  0  0  0  0  0  0  0  0
  189.0960  177.9570  139.8690 C   0  0  0  0  0  0  0  0  0  0  0  0
  187.9800  178.5410  139.9370 O   0  0  0  0  0  0  0  0  0  0  0  0
  190.6320  176.4180  138.5940 C   0  0  0  0  0  2  0  0  0  0  0  0
  190.8070  175.8530  137.1930 C   0  0  0  0  0  2  0  0  0  0  0  0
  192.2670  175.8660  136.7780 C   0  0  0  0  0  2  0  0  0  0  0  0
  193.0720  174.9590  137.6900 C   0  0  0  0  0  2  0  0  0  0  0  0
  193.4350  173.7480  136.9770 N   0  0  0  0  0  2  0  0  0  0  0  0
  194.8120  173.4520  137.3390 C   0  0  0  0  0  2  0  0  0  0  0  0
  195.7170  174.6060  136.9430 C   0  0  0  0  0  2  0  0  0  0  0  0
  197.0050  174.6040  137.7680 C   0  0  1  0  0  3  0  0  0  0  0  0
  197.9770  175.4500  137.2190 O   0  0  0  0  0  1  0  0  0  0  0  0
  196.7750  174.8880  139.1310 O   0  0  0  0  0  0  0  0  0  0  0  0
  197.7850  175.3690  141.2410 C   0  0  0  0  0  1  0  0  0  0  0  0
  198.0110  175.0980  139.7660 C   0  0  0  0  0  2  0  0  0  0  0  0
  189.9600  177.8740  141.0910 C   0  0  0  0  0  2  0  0  0  0  0  0
  185.3920  178.4760  146.6080 C   0  0  0  0  0  3  0  0  0  0  0  0
  187.3570  177.6840  145.4390 C   0  0  0  0  0  0  0  0  0  0  0  0
  188.6620  177.1650  145.4640 C   0  0  0  0  0  3  0  0  0  0  0  0
  188.6570  177.1240  143.0550 C   0  0  0  0  0  0  0  0  0  0  0  0
  184.7330  178.6910  145.3840 C   0  0  0  0  0  0  0  0  0  0  0  0
  190.5400  176.3320  144.0280 N   0  0  0  0  0  0  0  0  0  0  0  0
  185.3920  178.4050  144.1840 C   0  0  0  0  0  3  0  0  0  0  0  0
  189.2720  176.8980  144.2400 C   0  0  0  0  0  0  0  0  0  0  0  0
  186.6960  177.9730  146.6350 C   0  0  0  0  0  3  0  0  0  0  0  0
  186.6970  177.9070  144.1960 C   0  0  0  0  0  0  0  0  0  0  0  0
  190.7740  176.1570  142.6490 N   0  0  0  0  0  0  0  0  0  0  0  0
  187.3540  177.6200  142.9870 C   0  0  0  0  0  3  0  0  0  0  0  0
  189.5710  176.6870  141.9650 C   0  0  2  0  0  3  0  0  0  0  0  0
  183.4270  179.1880  145.3350 O   0  0  0  0  0  0  0  0  0  0  0  0
  182.5380  178.9040  144.2640 C   0  0  0  0  0  1  0  0  0  0  0  0
  188.7260  177.5480  137.4210 C   0  0  0  0  0  2  0  0  0  0  0  0
  187.5790  176.5990  137.3820 C   0  0  0  0  0  3  0  0  0  0  0  0
  185.1340  177.5110  137.3090 C   0  0  0  0  0  3  0  0  0  0  0  0
  186.3590  177.0540  137.3460 C   0  0  0  0  0  0  0  0  0  0  0  0
  183.9420  176.6570  137.4750 C   0  0  0  0  0  0  0  0  0  0  0  0
  184.0070  175.3440  137.2110 C   0  0  0  0  0  3  0  0  0  0  0  0
  182.8670  174.3930  137.3590 C   0  0  0  0  0  1  0  0  0  0  0  0
  182.4630  177.4390  138.0520 S   0  0  0  0  0  0  0  0  0  0  0  0
  181.2990  176.5250  137.7860 O   0  0  0  0  0  0  0  0  0  0  0  0
  182.5330  177.6880  139.5340 O   0  0  0  0  0  0  0  0  0  0  0  0
  182.2000  178.9300  137.2050 N   0  0  0  0  0  2  0  0  0  0  0  0
  180.9990  179.5580  137.7350 C   0  0  0  0  0  2  0  0  0  0  0  0
  180.9170  181.0040  137.2780 C   0  0  0  0  0  2  0  0  0  0  0  0
  179.9490  181.7800  138.1550 C   0  0  0  0  0  2  0  0  0  0  0  0
  180.1510  183.2060  137.9680 N   0  0  0  0  0  2  0  0  0  0  0  0
  180.8770  183.3720  136.7210 C   0  0  0  0  0  2  0  0  0  0  0  0
  181.7580  184.4490  136.8350 O   0  0  0  0  0  1  0  0  0  0  0  0
  1  2  1  0  0  0  0
  2  3  2  0  0  0  0
  2 16  1  0  0  0  0
  4  1  1  0  0  0  0
  5  4  1  0  0  0  0
  6  5  1  0  0  0  0
  6  7  1  0  0  0  0
  8  9  1  0  0  0  0
  8  7  1  0  0  0  0
 10  9  1  0  0  0  0
 10 11  1  0  0  0  0
 11 12  1  6  0  0  0
 11 13  1  0  0  0  0
 13 15  1  0  0  0  0
 15 14  1  0  0  0  0
 17 25  1  0  0  0  0
 18 19  1  0  0  0  0
 18 25  2  0  0  0  0
 20 24  1  0  0  0  0
 21 17  2  0  0  0  0
 22 24  1  0  0  0  0
 23 26  2  0  0  0  0
 23 21  1  0  0  0  0
 24 19  2  0  0  0  0
 26 18  1  0  0  0  0
 27 22  2  0  0  0  0
 28 20  2  0  0  0  0
 28 26  1  0  0  0  0
 29 16  1  6  0  0  0
 29 27  1  0  0  0  0
 29 20  1  0  0  0  0
 30 21  1  0  0  0  0
 31 30  1  0  0  0  0
 32  1  1  0  0  0  0
 33 32  1  0  0  0  0
 34 35  2  0  0  0  0
 34 36  1  0  0  0  0
 35 33  2  0  0  0  0
 36 39  1  0  0  0  0
 37 38  1  0  0  0  0
 37 36  2  0  0  0  0
 39 41  2  0  0  0  0
 40 39  2  0  0  0  0
 42 43  1  0  0  0  0
 42 39  1  0  0  0  0
 44 43  1  0  0  0  0
 44 45  1  0  0  0  0
 46 45  1  0  0  0  0
 47 48  1  0  0  0  0
 47 46  1  0  0  0  0
M  END
>  <MODEL>
4

>  <REMARK>
 VINA RESULT:      -6.6      2.006      2.417
  Name = 
  23 active torsions:
  status: ('A' for Active; 'I' for Inactive)
    1  A    between atoms: C_3  and  N_17
    2  A    between atoms: C_3  and  C_47
    3  A    between atoms: N_5  and  C_23
    4  A    between atoms: N_5  and  C_29
    5  A    between atoms: C_7  and  O_8
    6  A    between atoms: C_9  and  C_24
    7  A    between atoms: C_9  and  N_43
    8  A    between atoms: C_10  and  N_17
    9  A    between atoms: C_10  and  C_27
   10  A    between atoms: C_12  and  C_13
   11  A    between atoms: C_13  and  N_14
   12  A    between atoms: N_14  and  C_25
   13  A    between atoms: C_16  and  C_19
   14  A    between atoms: C_19  and  C_46
   15  A    between atoms: C_20  and  C_21
   16  A    between atoms: C_20  and  S_28
   17  A    between atoms: C_24  and  C_29
   18  A    between atoms: C_25  and  C_35
   19  A    between atoms: C_27  and  C_35
   20  A    between atoms: S_28  and  N_43
   21  A    between atoms: C_38  and  O_48
   22  A    between atoms: C_39  and  C_47
   23  A    between atoms: C_39  and  O_48
                            x       y       z     vdW  Elec       q    Type
                         _______ _______ _______ _____ _____    ______ ____

>  <TORSDO>
F 23

$$$$
=
 OpenBabel11042410193D

 48 50  0  0  1  0  0  0  0  0999 V2000
  185.6910  178.4080  143.9850 N   0  0  0  0  0  0  0  0  0  0  0  0
  186.4430  178.4530  142.7610 C   0  0  0  0  0  0  0  0  0  0  0  0
  186.2180  179.3670  141.9210 O   0  0  0  0  0  0  0  0  0  0  0  0
  186.1140  177.5620  145.0960 C   0  0  0  0  0  2  0  0  0  0  0  0
  185.6210  178.1320  146.4170 C   0  0  0  0  0  2  0  0  0  0  0  0
  186.7250  178.8970  147.1250 C   0  0  0  0  0  2  0  0  0  0  0  0
  187.2620  178.0770  148.2830 C   0  0  0  0  0  2  0  0  0  0  0  0
  188.7130  178.1170  148.2790 N   0  0  0  0  0  2  0  0  0  0  0  0
  189.1560  176.9740  147.4990 C   0  0  0  0  0  2  0  0  0  0  0  0
  190.1350  177.4200  146.4250 C   0  0  0  0  0  2  0  0  0  0  0  0
  191.5380  176.8760  146.6990 C   0  0  1  0  0  3  0  0  0  0  0  0
  191.9600  177.1580  148.0050 O   0  0  0  0  0  1  0  0  0  0  0  0
  191.6540  175.5020  146.3980 O   0  0  0  0  0  0  0  0  0  0  0  0
  192.4960  173.9770  144.7650 C   0  0  0  0  0  1  0  0  0  0  0  0
  191.9340  175.3600  145.0280 C   0  0  0  0  0  2  0  0  0  0  0  0
  187.5240  177.4510  142.4870 C   0  0  0  0  0  2  0  0  0  0  0  0
  189.9850  176.7160  135.7730 C   0  0  0  0  0  3  0  0  0  0  0  0
  190.1440  176.8840  138.1820 C   0  0  0  0  0  0  0  0  0  0  0  0
  190.8350  176.6280  139.3780 C   0  0  0  0  0  3  0  0  0  0  0  0
  189.0850  177.7540  140.5930 C   0  0  0  0  0  0  0  0  0  0  0  0
  188.7730  177.4280  135.7890 C   0  0  0  0  0  0  0  0  0  0  0  0
  190.8000  176.9920  141.8570 N   0  0  0  0  0  0  0  0  0  0  0  0
  188.2440  177.8670  137.0080 C   0  0  0  0  0  3  0  0  0  0  0  0
  190.2640  177.0880  140.5630 C   0  0  0  0  0  0  0  0  0  0  0  0
  190.6680  176.4470  136.9630 C   0  0  0  0  0  3  0  0  0  0  0  0
  188.9120  177.6010  138.2050 C   0  0  0  0  0  0  0  0  0  0  0  0
  189.9560  177.6340  142.7860 N   0  0  0  0  0  0  0  0  0  0  0  0
  188.3770  178.0450  139.4260 C   0  0  0  0  0  3  0  0  0  0  0  0
  188.7990  178.1310  142.0030 C   0  0  2  0  0  3  0  0  0  0  0  0
  188.0770  177.7120  134.6100 O   0  0  0  0  0  0  0  0  0  0  0  0
  186.7000  178.0660  134.5980 C   0  0  0  0  0  1  0  0  0  0  0  0
  184.5530  179.2970  144.1800 C   0  0  0  0  0  2  0  0  0  0  0  0
  183.3020  178.6370  143.7160 C   0  0  0  0  0  3  0  0  0  0  0  0
  182.7020  178.6140  141.1750 C   0  0  0  0  0  3  0  0  0  0  0  0
  183.0020  178.6260  142.4480 C   0  0  0  0  0  0  0  0  0  0  0  0
  181.3970  178.1700  140.6510 C   0  0  0  0  0  0  0  0  0  0  0  0
  180.2980  178.2500  141.4140 C   0  0  0  0  0  3  0  0  0  0  0  0
  178.9310  177.8410  140.9770 C   0  0  0  0  0  1  0  0  0  0  0  0
  181.3580  177.5610  138.9900 S   0  0  0  0  0  0  0  0  0  0  0  0
  182.7550  177.5850  138.4340 O   0  0  0  0  0  0  0  0  0  0  0  0
  180.8650  176.1400  138.9520 O   0  0  0  0  0  0  0  0  0  0  0  0
  180.3530  178.5700  138.0010 N   0  0  0  0  0  2  0  0  0  0  0  0
  181.1280  179.7280  137.5810 C   0  0  0  0  0  2  0  0  0  0  0  0
  180.5110  181.0020  138.1320 C   0  0  0  0  0  2  0  0  0  0  0  0
  179.8510  181.7930  137.0160 C   0  0  0  0  0  2  0  0  0  0  0  0
  180.7910  182.7620  136.4780 N   0  0  0  0  0  2  0  0  0  0  0  0
  180.8560  183.8610  137.4260 C   0  0  0  0  0  2  0  0  0  0  0  0
  182.0260  184.5910  137.2120 O   0  0  0  0  0  1  0  0  0  0  0  0
  1 32  1  0  0  0  0
  1  4  1  0  0  0  0
  2  1  1  0  0  0  0
  3  2  2  0  0  0  0
  4  5  1  0  0  0  0
  5  6  1  0  0  0  0
  6  7  1  0  0  0  0
  8  7  1  0  0  0  0
  9  8  1  0  0  0  0
 10 11  1  0  0  0  0
 10  9  1  0  0  0  0
 11 12  1  1  0  0  0
 13 11  1  0  0  0  0
 14 15  1  0  0  0  0
 15 13  1  0  0  0  0
 16  2  1  0  0  0  0
 17 21  2  0  0  0  0
 17 25  1  0  0  0  0
 18 26  1  0  0  0  0
 18 19  1  0  0  0  0
 19 24  2  0  0  0  0
 20 29  1  0  0  0  0
 21 23  1  0  0  0  0
 22 27  2  0  0  0  0
 23 26  2  0  0  0  0
 24 20  1  0  0  0  0
 24 22  1  0  0  0  0
 25 18  2  0  0  0  0
 26 28  1  0  0  0  0
 28 20  2  0  0  0  0
 29 16  1  1  0  0  0
 29 27  1  0  0  0  0
 30 21  1  0  0  0  0
 31 30  1  0  0  0  0
 33 32  1  0  0  0  0
 34 35  2  0  0  0  0
 35 33  2  0  0  0  0
 36 34  1  0  0  0  0
 36 37  2  0  0  0  0
 38 37  1  0  0  0  0
 39 36  1  0  0  0  0
 40 39  2  0  0  0  0
 41 39  2  0  0  0  0
 42 39  1  0  0  0  0
 43 42  1  0  0  0  0
 43 44  1  0  0  0  0
 45 44  1  0  0  0  0
 46 45  1  0  0  0  0
 46 47  1  0  0  0  0
 48 47  1  0  0  0  0
M  END
>  <MODEL>
5

>  <REMARK>
 VINA RESULT:      -6.6      4.098      8.187
  Name = 
  23 active torsions:
  status: ('A' for Active; 'I' for Inactive)
    1  A    between atoms: C_3  and  N_17
    2  A    between atoms: C_3  and  C_47
    3  A    between atoms: N_5  and  C_23
    4  A    between atoms: N_5  and  C_29
    5  A    between atoms: C_7  and  O_8
    6  A    between atoms: C_9  and  C_24
    7  A    between atoms: C_9  and  N_43
    8  A    between atoms: C_10  and  N_17
    9  A    between atoms: C_10  and  C_27
   10  A    between atoms: C_12  and  C_13
   11  A    between atoms: C_13  and  N_14
   12  A    between atoms: N_14  and  C_25
   13  A    between atoms: C_16  and  C_19
   14  A    between atoms: C_19  and  C_46
   15  A    between atoms: C_20  and  C_21
   16  A    between atoms: C_20  and  S_28
   17  A    between atoms: C_24  and  C_29
   18  A    between atoms: C_25  and  C_35
   19  A    between atoms: C_27  and  C_35
   20  A    between atoms: S_28  and  N_43
   21  A    between atoms: C_38  and  O_48
   22  A    between atoms: C_39  and  C_47
   23  A    between atoms: C_39  and  O_48
                            x       y       z     vdW  Elec       q    Type
                         _______ _______ _______ _____ _____    ______ ____

>  <TORSDO>
F 23

$$$$
=
 OpenBabel11042410193D

 48 50  0  0  1  0  0  0  0  0999 V2000
  183.0260  179.1510  139.9600 N   0  0  0  0  0  0  0  0  0  0  0  0
  182.7270  178.4010  141.1490 C   0  0  0  0  0  0  0  0  0  0  0  0
  181.5350  178.0700  141.3970 O   0  0  0  0  0  0  0  0  0  0  0  0
  184.3990  179.2960  139.4880 C   0  0  0  0  0  2  0  0  0  0  0  0
  184.5940  178.5470  138.1790 C   0  0  0  0  0  2  0  0  0  0  0  0
  185.8580  177.7070  138.2150 C   0  0  0  0  0  2  0  0  0  0  0  0
  187.0520  178.5480  137.8040 C   0  0  0  0  0  2  0  0  0  0  0  0
  188.1120  178.4050  138.7830 N   0  0  0  0  0  2  0  0  0  0  0  0
  189.2960  177.9830  138.0540 C   0  0  0  0  0  2  0  0  0  0  0  0
  189.6700  176.5620  138.4380 C   0  0  0  0  0  2  0  0  0  0  0  0
  191.1550  176.4580  138.7890 C   0  0  1  0  0  3  0  0  0  0  0  0
  191.9710  176.7140  137.6800 O   0  0  0  0  0  1  0  0  0  0  0  0
  191.5080  177.2620  139.8940 O   0  0  0  0  0  0  0  0  0  0  0  0
  190.2540  177.8090  141.8510 C   0  0  0  0  0  1  0  0  0  0  0  0
  190.9370  176.7140  141.0540 C   0  0  0  0  0  2  0  0  0  0  0  0
  183.8210  177.9680  142.0780 C   0  0  0  0  0  2  0  0  0  0  0  0
  188.8660  177.1510  147.1330 C   0  0  0  0  0  3  0  0  0  0  0  0
  186.7580  177.9010  146.2120 C   0  0  0  0  0  0  0  0  0  0  0  0
  185.4250  178.3070  146.3930 C   0  0  0  0  0  3  0  0  0  0  0  0
  185.2270  178.6060  144.0100 C   0  0  0  0  0  0  0  0  0  0  0  0
  189.4350  177.1210  145.8460 C   0  0  0  0  0  0  0  0  0  0  0  0
  183.3790  179.1340  145.2060 N   0  0  0  0  0  0  0  0  0  0  0  0
  188.6580  177.4800  144.7390 C   0  0  0  0  0  3  0  0  0  0  0  0
  184.6980  178.6540  145.2570 C   0  0  0  0  0  0  0  0  0  0  0  0
  187.5360  177.5400  147.3140 C   0  0  0  0  0  3  0  0  0  0  0  0
  187.3260  177.8670  144.9050 C   0  0  0  0  0  0  0  0  0  0  0  0
  183.0180  179.4360  143.8770 N   0  0  0  0  0  0  0  0  0  0  0  0
  186.5520  178.2270  143.7890 C   0  0  0  0  0  3  0  0  0  0  0  0
  184.1960  179.0810  143.0490 C   0  0  2  0  0  3  0  0  0  0  0  0
  190.7640  176.7400  145.6430 O   0  0  0  0  0  0  0  0  0  0  0  0
  191.6380  176.4020  146.7110 C   0  0  0  0  0  1  0  0  0  0  0  0
  181.9470  179.6850  139.1390 C   0  0  0  0  0  2  0  0  0  0  0  0
  181.6300  178.7400  138.0320 C   0  0  0  0  0  3  0  0  0  0  0  0
  179.8730  176.8440  138.3960 C   0  0  0  0  0  3  0  0  0  0  0  0
  180.7540  177.7940  138.2140 C   0  0  0  0  0  0  0  0  0  0  0  0
  179.6480  175.7470  137.4360 C   0  0  0  0  0  0  0  0  0  0  0  0
  179.1850  176.0090  136.2050 C   0  0  0  0  0  3  0  0  0  0  0  0
  178.9360  174.9770  135.1560 C   0  0  0  0  0  1  0  0  0  0  0  0
  180.0380  174.1080  137.9760 S   0  0  0  0  0  0  0  0  0  0  0  0
  180.1860  174.1150  139.4720 O   0  0  0  0  0  0  0  0  0  0  0  0
  178.9330  173.1510  137.6210 O   0  0  0  0  0  0  0  0  0  0  0  0
  181.5350  173.5820  137.2750 N   0  0  0  0  0  2  0  0  0  0  0  0
  181.2400  172.6560  136.1920 C   0  0  0  0  0  2  0  0  0  0  0  0
  182.3770  171.6630  136.0260 C   0  0  0  0  0  2  0  0  0  0  0  0
  183.3140  171.7300  137.2190 C   0  0  0  0  0  2  0  0  0  0  0  0
  184.6440  172.1140  136.7770 N   0  0  0  0  0  2  0  0  0  0  0  0
  185.1240  173.1240  137.7040 C   0  0  0  0  0  2  0  0  0  0  0  0
  184.9660  174.3890  137.1370 O   0  0  0  0  0  1  0  0  0  0  0  0
  1  2  1  0  0  0  0
  2  3  2  0  0  0  0
  2 16  1  0  0  0  0
  4  1  1  0  0  0  0
  5  6  1  0  0  0  0
  5  4  1  0  0  0  0
  7  6  1  0  0  0  0
  7  8  1  0  0  0  0
  9 10  1  0  0  0  0
  9  8  1  0  0  0  0
 10 11  1  0  0  0  0
 11 12  1  6  0  0  0
 11 13  1  0  0  0  0
 13 15  1  0  0  0  0
 15 14  1  0  0  0  0
 17 25  1  0  0  0  0
 18 19  1  0  0  0  0
 18 25  2  0  0  0  0
 20 24  1  0  0  0  0
 21 17  2  0  0  0  0
 22 24  1  0  0  0  0
 23 26  2  0  0  0  0
 23 21  1  0  0  0  0
 24 19  2  0  0  0  0
 26 18  1  0  0  0  0
 27 22  2  0  0  0  0
 28 20  2  0  0  0  0
 28 26  1  0  0  0  0
 29 16  1  6  0  0  0
 29 27  1  0  0  0  0
 29 20  1  0  0  0  0
 30 21  1  0  0  0  0
 30 31  1  0  0  0  0
 32  1  1  0  0  0  0
 33 35  2  0  0  0  0
 33 32  1  0  0  0  0
 35 34  2  0  0  0  0
 36 39  1  0  0  0  0
 36 34  1  0  0  0  0
 37 36  2  0  0  0  0
 38 37  1  0  0  0  0
 39 40  2  0  0  0  0
 41 39  2  0  0  0  0
 42 39  1  0  0  0  0
 43 42  1  0  0  0  0
 44 43  1  0  0  0  0
 44 45  1  0  0  0  0
 46 45  1  0  0  0  0
 46 47  1  0  0  0  0
 48 47  1  0  0  0  0
M  END
>  <MODEL>
6

>  <REMARK>
 VINA RESULT:      -6.5      3.648      6.562
  Name = 
  23 active torsions:
  status: ('A' for Active; 'I' for Inactive)
    1  A    between atoms: C_3  and  N_17
    2  A    between atoms: C_3  and  C_47
    3  A    between atoms: N_5  and  C_23
    4  A    between atoms: N_5  and  C_29
    5  A    between atoms: C_7  and  O_8
    6  A    between atoms: C_9  and  C_24
    7  A    between atoms: C_9  and  N_43
    8  A    between atoms: C_10  and  N_17
    9  A    between atoms: C_10  and  C_27
   10  A    between atoms: C_12  and  C_13
   11  A    between atoms: C_13  and  N_14
   12  A    between atoms: N_14  and  C_25
   13  A    between atoms: C_16  and  C_19
   14  A    between atoms: C_19  and  C_46
   15  A    between atoms: C_20  and  C_21
   16  A    between atoms: C_20  and  S_28
   17  A    between atoms: C_24  and  C_29
   18  A    between atoms: C_25  and  C_35
   19  A    between atoms: C_27  and  C_35
   20  A    between atoms: S_28  and  N_43
   21  A    between atoms: C_38  and  O_48
   22  A    between atoms: C_39  and  C_47
   23  A    between atoms: C_39  and  O_48
                            x       y       z     vdW  Elec       q    Type
                         _______ _______ _______ _____ _____    ______ ____

>  <TORSDO>
F 23

$$$$
=
 OpenBabel11042410193D

 48 50  0  0  1  0  0  0  0  0999 V2000
  189.5250  176.8730  138.7710 N   0  0  0  0  0  0  0  0  0  0  0  0
  190.3850  177.2620  139.8540 C   0  0  0  0  0  0  0  0  0  0  0  0
  191.6360  177.1680  139.7260 O   0  0  0  0  0  0  0  0  0  0  0  0
  188.1130  177.2380  138.7630 C   0  0  0  0  0  2  0  0  0  0  0  0
  187.7720  178.0270  137.5090 C   0  0  0  0  0  2  0  0  0  0  0  0
  186.3020  178.4040  137.4850 C   0  0  0  0  0  2  0  0  0  0  0  0
  185.5060  177.3420  136.7490 C   0  0  0  0  0  2  0  0  0  0  0  0
  184.1330  177.3490  137.2160 N   0  0  0  0  0  2  0  0  0  0  0  0
  184.0840  178.2630  138.3450 C   0  0  0  0  0  2  0  0  0  0  0  0
  182.8390  178.0020  139.1770 C   0  0  0  0  0  2  0  0  0  0  0  0
  182.1440  176.7120  138.7390 C   0  0  1  0  0  3  0  0  0  0  0  0
  182.4780  175.6340  139.5700 O   0  0  0  0  0  1  0  0  0  0  0  0
  180.7470  176.8640  138.6170 O   0  0  0  0  0  0  0  0  0  0  0  0
  179.7310  176.2060  136.5580 C   0  0  0  0  0  1  0  0  0  0  0  0
  180.4510  177.3050  137.3160 C   0  0  0  0  0  2  0  0  0  0  0  0
  189.8150  177.8220  141.1230 C   0  0  0  0  0  2  0  0  0  0  0  0
  184.3280  178.8890  145.6420 C   0  0  0  0  0  3  0  0  0  0  0  0
  186.4650  178.0100  144.9260 C   0  0  0  0  0  0  0  0  0  0  0  0
  187.7400  177.5050  145.2340 C   0  0  0  0  0  3  0  0  0  0  0  0
  188.1700  177.2450  142.8780 C   0  0  0  0  0  0  0  0  0  0  0  0
  183.9030  178.9880  144.3050 C   0  0  0  0  0  0  0  0  0  0  0  0
  189.8390  176.5590  144.2440 N   0  0  0  0  0  0  0  0  0  0  0  0
  184.7670  178.5980  143.2750 C   0  0  0  0  0  3  0  0  0  0  0  0
  188.5580  177.1320  144.1700 C   0  0  0  0  0  0  0  0  0  0  0  0
  185.6010  178.4010  145.9510 C   0  0  0  0  0  3  0  0  0  0  0  0
  186.0430  178.1130  143.5680 C   0  0  0  0  0  0  0  0  0  0  0  0
  190.3170  176.2610  142.9520 N   0  0  0  0  0  0  0  0  0  0  0  0
  186.9060  177.7220  142.5300 C   0  0  0  0  0  3  0  0  0  0  0  0
  189.2620  176.7180  142.0160 C   0  0  2  0  0  3  0  0  0  0  0  0
  182.6330  179.4680  143.9740 O   0  0  0  0  0  0  0  0  0  0  0  0
  181.4860  178.6300  143.9180 C   0  0  0  0  0  1  0  0  0  0  0  0
  190.0780  176.2030  137.6000 C   0  0  0  0  0  2  0  0  0  0  0  0
  191.1190  175.2230  138.0150 C   0  0  0  0  0  3  0  0  0  0  0  0
  192.8590  174.3530  136.2740 C   0  0  0  0  0  3  0  0  0  0  0  0
  191.9870  174.7880  137.1460 C   0  0  0  0  0  0  0  0  0  0  0  0
  193.7880  173.2370  136.5390 C   0  0  0  0  0  0  0  0  0  0  0  0
  193.4510  171.9830  136.2080 C   0  0  0  0  0  3  0  0  0  0  0  0
  194.3200  170.7880  136.4220 C   0  0  0  0  0  1  0  0  0  0  0  0
  195.3440  173.6410  137.2790 S   0  0  0  0  0  0  0  0  0  0  0  0
  195.3630  175.1120  137.5920 O   0  0  0  0  0  0  0  0  0  0  0  0
  195.5350  172.8870  138.5660 O   0  0  0  0  0  0  0  0  0  0  0  0
  196.6410  173.2920  136.1820 N   0  0  0  0  0  2  0  0  0  0  0  0
  197.6800  174.2960  136.3580 C   0  0  0  0  0  2  0  0  0  0  0  0
  198.9350  173.6590  136.9290 C   0  0  0  0  0  2  0  0  0  0  0  0
  199.1670  174.1370  138.3520 C   0  0  0  0  0  2  0  0  0  0  0  0
  198.3020  175.2690  138.6370 N   0  0  0  0  0  2  0  0  0  0  0  0
  198.3520  175.4910  140.0720 C   0  0  0  0  0  2  0  0  0  0  0  0
  197.0590  175.6770  140.5610 O   0  0  0  0  0  1  0  0  0  0  0  0
  1  2  1  0  0  0  0
  2 16  1  0  0  0  0
  3  2  2  0  0  0  0
  4  1  1  0  0  0  0
  5  4  1  0  0  0  0
  6  5  1  0  0  0  0
  7  8  1  0  0  0  0
  7  6  1  0  0  0  0
  8  9  1  0  0  0  0
  9 10  1  0  0  0  0
 11 10  1  0  0  0  0
 11 12  1  1  0  0  0
 13 11  1  0  0  0  0
 14 15  1  0  0  0  0
 15 13  1  0  0  0  0
 17 25  1  0  0  0  0
 18 19  1  0  0  0  0
 18 25  2  0  0  0  0
 20 24  1  0  0  0  0
 21 17  2  0  0  0  0
 23 26  2  0  0  0  0
 23 21  1  0  0  0  0
 24 22  1  0  0  0  0
 24 19  2  0  0  0  0
 26 18  1  0  0  0  0
 27 22  2  0  0  0  0
 28 20  2  0  0  0  0
 28 26  1  0  0  0  0
 29 16  1  6  0  0  0
 29 20  1  0  0  0  0
 29 27  1  0  0  0  0
 30 21  1  0  0  0  0
 31 30  1  0  0  0  0
 32 33  1  0  0  0  0
 32  1  1  0  0  0  0
 34 36  1  0  0  0  0
 34 35  2  0  0  0  0
 35 33  2  0  0  0  0
 36 39  1  0  0  0  0
 37 38  1  0  0  0  0
 37 36  2  0  0  0  0
 39 40  2  0  0  0  0
 39 41  2  0  0  0  0
 42 43  1  0  0  0  0
 42 39  1  0  0  0  0
 43 44  1  0  0  0  0
 44 45  1  0  0  0  0
 45 46  1  0  0  0  0
 46 47  1  0  0  0  0
 47 48  1  0  0  0  0
M  END
>  <MODEL>
7

>  <REMARK>
 VINA RESULT:      -6.4      2.638      9.705
  Name = 
  23 active torsions:
  status: ('A' for Active; 'I' for Inactive)
    1  A    between atoms: C_3  and  N_17
    2  A    between atoms: C_3  and  C_47
    3  A    between atoms: N_5  and  C_23
    4  A    between atoms: N_5  and  C_29
    5  A    between atoms: C_7  and  O_8
    6  A    between atoms: C_9  and  C_24
    7  A    between atoms: C_9  and  N_43
    8  A    between atoms: C_10  and  N_17
    9  A    between atoms: C_10  and  C_27
   10  A    between atoms: C_12  and  C_13
   11  A    between atoms: C_13  and  N_14
   12  A    between atoms: N_14  and  C_25
   13  A    between atoms: C_16  and  C_19
   14  A    between atoms: C_19  and  C_46
   15  A    between atoms: C_20  and  C_21
   16  A    between atoms: C_20  and  S_28
   17  A    between atoms: C_24  and  C_29
   18  A    between atoms: C_25  and  C_35
   19  A    between atoms: C_27  and  C_35
   20  A    between atoms: S_28  and  N_43
   21  A    between atoms: C_38  and  O_48
   22  A    between atoms: C_39  and  C_47
   23  A    between atoms: C_39  and  O_48
                            x       y       z     vdW  Elec       q    Type
                         _______ _______ _______ _____ _____    ______ ____

>  <TORSDO>
F 23

$$$$
=
 OpenBabel11042410193D

 48 50  0  0  1  0  0  0  0  0999 V2000
  183.9550  178.7170  142.9080 N   0  0  0  0  0  0  0  0  0  0  0  0
  183.6470  178.5560  144.3030 C   0  0  0  0  0  0  0  0  0  0  0  0
  182.5380  178.9580  144.7500 O   0  0  0  0  0  0  0  0  0  0  0  0
  185.0790  178.0130  142.3000 C   0  0  0  0  0  2  0  0  0  0  0  0
  186.0350  178.9980  141.6460 C   0  0  0  0  0  2  0  0  0  0  0  0
  186.9380  178.2990  140.6460 C   0  0  0  0  0  2  0  0  0  0  0  0
  188.3900  178.6210  140.9460 C   0  0  0  0  0  2  0  0  0  0  0  0
  189.2510  177.8730  140.0480 N   0  0  0  0  0  2  0  0  0  0  0  0
  188.6650  177.9860  138.7230 C   0  0  0  0  0  2  0  0  0  0  0  0
  188.9450  176.7280  137.9170 C   0  0  0  0  0  2  0  0  0  0  0  0
  187.8620  176.4980  136.8620 C   0  0  1  0  0  3  0  0  0  0  0  0
  187.6400  175.1340  136.6340 O   0  0  0  0  0  1  0  0  0  0  0  0
  186.6630  177.1800  137.1580 O   0  0  0  0  0  0  0  0  0  0  0  0
  187.0280  177.9390  134.9240 C   0  0  0  0  0  1  0  0  0  0  0  0
  186.0090  177.4920  135.9550 C   0  0  0  0  0  2  0  0  0  0  0  0
  184.6110  177.8740  145.2270 C   0  0  0  0  0  2  0  0  0  0  0  0
  191.6470  176.4480  145.5940 C   0  0  0  0  0  3  0  0  0  0  0  0
  189.5200  177.3060  146.3660 C   0  0  0  0  0  0  0  0  0  0  0  0
  188.6700  177.6900  147.4170 C   0  0  0  0  0  3  0  0  0  0  0  0
  186.9840  178.2730  145.7980 C   0  0  0  0  0  0  0  0  0  0  0  0
  191.2290  176.5720  144.2570 C   0  0  0  0  0  0  0  0  0  0  0  0
  186.4220  178.6570  147.9560 N   0  0  0  0  0  0  0  0  0  0  0  0
  189.9490  177.0630  143.9760 C   0  0  0  0  0  3  0  0  0  0  0  0
  187.4070  178.1720  147.0800 C   0  0  0  0  0  0  0  0  0  0  0  0
  190.7980  176.8150  146.6420 C   0  0  0  0  0  3  0  0  0  0  0  0
  189.0880  177.4290  145.0130 C   0  0  0  0  0  0  0  0  0  0  0  0
  185.3050  179.1170  147.2300 N   0  0  0  0  0  0  0  0  0  0  0  0
  187.8040  177.9220  144.7240 C   0  0  0  0  0  3  0  0  0  0  0  0
  185.6180  178.8620  145.8030 C   0  0  2  0  0  3  0  0  0  0  0  0
  192.0630  176.2160  143.1940 O   0  0  0  0  0  0  0  0  0  0  0  0
  192.0830  176.9250  141.9630 C   0  0  0  0  0  1  0  0  0  0  0  0
  183.0770  179.5010  142.0490 C   0  0  0  0  0  2  0  0  0  0  0  0
  182.2930  178.6000  141.1600 C   0  0  0  0  0  3  0  0  0  0  0  0
  183.1530  178.0710  138.7520 C   0  0  0  0  0  3  0  0  0  0  0  0
  182.7220  178.3370  139.9580 C   0  0  0  0  0  0  0  0  0  0  0  0
  182.3480  177.3630  137.7380 C   0  0  0  0  0  0  0  0  0  0  0  0
  182.0830  177.9430  136.5590 C   0  0  0  0  0  3  0  0  0  0  0  0
  181.2920  177.3100  135.4630 C   0  0  0  0  0  1  0  0  0  0  0  0
  181.7860  175.7360  138.1460 S   0  0  0  0  0  0  0  0  0  0  0  0
  182.2970  175.3770  139.5140 O   0  0  0  0  0  0  0  0  0  0  0  0
  180.2830  175.6820  138.1810 O   0  0  0  0  0  0  0  0  0  0  0  0
  182.4010  174.5820  137.0060 N   0  0  0  0  0  2  0  0  0  0  0  0
  183.8370  174.7770  136.8790 C   0  0  0  0  0  2  0  0  0  0  0  0
  184.5840  173.6660  137.5960 C   0  0  0  0  0  2  0  0  0  0  0  0
  184.2150  172.3160  137.0040 C   0  0  0  0  0  2  0  0  0  0  0  0
  184.7080  172.2260  135.6410 N   0  0  0  0  0  2  0  0  0  0  0  0
  186.1350  171.9650  135.7220 C   0  0  0  0  0  2  0  0  0  0  0  0
  186.4360  170.7990  135.0170 O   0  0  0  0  0  1  0  0  0  0  0  0
  1  2  1  0  0  0  0
  2  3  2  0  0  0  0
  2 16  1  0  0  0  0
  4  1  1  0  0  0  0
  5  4  1  0  0  0  0
  6  7  1  0  0  0  0
  6  5  1  0  0  0  0
  8  7  1  0  0  0  0
  9  8  1  0  0  0  0
 10  9  1  0  0  0  0
 11 12  1  1  0  0  0
 11 13  1  0  0  0  0
 11 10  1  0  0  0  0
 14 15  1  0  0  0  0
 15 13  1  0  0  0  0
 17 25  1  0  0  0  0
 18 25  2  0  0  0  0
 18 19  1  0  0  0  0
 20 29  1  0  0  0  0
 20 24  1  0  0  0  0
 21 17  2  0  0  0  0
 23 21  1  0  0  0  0
 23 26  2  0  0  0  0
 24 19  2  0  0  0  0
 24 22  1  0  0  0  0
 26 18  1  0  0  0  0
 27 22  2  0  0  0  0
 28 26  1  0  0  0  0
 28 20  2  0  0  0  0
 29 16  1  1  0  0  0
 29 27  1  0  0  0  0
 30 21  1  0  0  0  0
 31 30  1  0  0  0  0
 32  1  1  0  0  0  0
 33 32  1  0  0  0  0
 34 35  2  0  0  0  0
 35 33  2  0  0  0  0
 36 39  1  0  0  0  0
 36 34  1  0  0  0  0
 37 36  2  0  0  0  0
 38 37  1  0  0  0  0
 39 41  2  0  0  0  0
 39 40  2  0  0  0  0
 42 39  1  0  0  0  0
 43 42  1  0  0  0  0
 43 44  1  0  0  0  0
 45 44  1  0  0  0  0
 46 47  1  0  0  0  0
 46 45  1  0  0  0  0
 48 47  1  0  0  0  0
M  END
>  <MODEL>
8

>  <REMARK>
 VINA RESULT:      -6.4      3.733      7.156
  Name = 
  23 active torsions:
  status: ('A' for Active; 'I' for Inactive)
    1  A    between atoms: C_3  and  N_17
    2  A    between atoms: C_3  and  C_47
    3  A    between atoms: N_5  and  C_23
    4  A    between atoms: N_5  and  C_29
    5  A    between atoms: C_7  and  O_8
    6  A    between atoms: C_9  and  C_24
    7  A    between atoms: C_9  and  N_43
    8  A    between atoms: C_10  and  N_17
    9  A    between atoms: C_10  and  C_27
   10  A    between atoms: C_12  and  C_13
   11  A    between atoms: C_13  and  N_14
   12  A    between atoms: N_14  and  C_25
   13  A    between atoms: C_16  and  C_19
   14  A    between atoms: C_19  and  C_46
   15  A    between atoms: C_20  and  C_21
   16  A    between atoms: C_20  and  S_28
   17  A    between atoms: C_24  and  C_29
   18  A    between atoms: C_25  and  C_35
   19  A    between atoms: C_27  and  C_35
   20  A    between atoms: S_28  and  N_43
   21  A    between atoms: C_38  and  O_48
   22  A    between atoms: C_39  and  C_47
   23  A    between atoms: C_39  and  O_48
                            x       y       z     vdW  Elec       q    Type
                         _______ _______ _______ _____ _____    ______ ____

>  <TORSDO>
F 23

$$$$
=
 OpenBabel11042410193D

 48 50  0  0  1  0  0  0  0  0999 V2000
  188.8220  177.9270  137.9400 N   0  0  0  0  0  0  0  0  0  0  0  0
  188.4620  178.2300  139.2980 C   0  0  0  0  0  0  0  0  0  0  0  0
  187.2710  178.5400  139.5760 O   0  0  0  0  0  0  0  0  0  0  0  0
  190.0950  177.2880  137.6250 C   0  0  0  0  0  2  0  0  0  0  0  0
  190.0000  175.7830  137.8250 C   0  0  0  0  0  2  0  0  0  0  0  0
  190.0270  175.0540  136.4940 C   0  0  0  0  0  2  0  0  0  0  0  0
  191.1730  175.5700  135.6440 C   0  0  0  0  0  2  0  0  0  0  0  0
  192.1450  174.5120  135.4390 N   0  0  0  0  0  2  0  0  0  0  0  0
  192.8900  174.3890  136.6810 C   0  0  0  0  0  2  0  0  0  0  0  0
  193.7990  173.1730  136.6290 C   0  0  0  0  0  2  0  0  0  0  0  0
  194.7240  173.1230  137.8460 C   0  0  1  0  0  3  0  0  0  0  0  0
  195.5230  171.9730  137.8450 O   0  0  0  0  0  1  0  0  0  0  0  0
  195.4960  174.2960  137.9880 O   0  0  0  0  0  0  0  0  0  0  0  0
  197.7390  174.5380  138.7690 C   0  0  0  0  0  1  0  0  0  0  0  0
  196.3120  174.1670  139.1240 C   0  0  0  0  0  2  0  0  0  0  0  0
  189.4760  178.1420  140.3990 C   0  0  0  0  0  2  0  0  0  0  0  0
  185.9710  178.2650  146.6730 C   0  0  0  0  0  3  0  0  0  0  0  0
  187.7030  177.6020  145.1200 C   0  0  0  0  0  0  0  0  0  0  0  0
  188.9990  177.1170  144.8740 C   0  0  0  0  0  3  0  0  0  0  0  0
  188.5590  177.2320  142.5080 C   0  0  0  0  0  0  0  0  0  0  0  0
  185.0990  178.5430  145.6050 C   0  0  0  0  0  0  0  0  0  0  0  0
  190.5980  176.4280  143.0720 N   0  0  0  0  0  0  0  0  0  0  0  0
  185.5350  178.3520  144.2890 C   0  0  0  0  0  3  0  0  0  0  0  0
  189.3810  176.9460  143.5460 C   0  0  0  0  0  0  0  0  0  0  0  0
  187.2650  177.7960  146.4310 C   0  0  0  0  0  3  0  0  0  0  0  0
  186.8270  177.8880  144.0330 C   0  0  0  0  0  0  0  0  0  0  0  0
  190.5820  176.3490  141.6640 N   0  0  0  0  0  0  0  0  0  0  0  0
  187.2590  177.6980  142.7090 C   0  0  0  0  0  3  0  0  0  0  0  0
  189.2670  176.8920  141.2450 C   0  0  2  0  0  3  0  0  0  0  0  0
  183.7990  179.0070  145.8240 O   0  0  0  0  0  0  0  0  0  0  0  0
  182.7500  178.8260  144.8830 C   0  0  0  0  0  1  0  0  0  0  0  0
  187.8680  178.1500  136.8620 C   0  0  0  0  0  2  0  0  0  0  0  0
  186.9410  176.9900  136.7500 C   0  0  0  0  0  3  0  0  0  0  0  0
  184.3590  177.3670  136.8640 C   0  0  0  0  0  3  0  0  0  0  0  0
  185.6520  177.1780  136.8080 C   0  0  0  0  0  0  0  0  0  0  0  0
  183.3810  176.2680  136.9690 C   0  0  0  0  0  0  0  0  0  0  0  0
  183.4610  175.2100  136.1500 C   0  0  0  0  0  3  0  0  0  0  0  0
  182.5320  174.0420  136.1820 C   0  0  0  0  0  1  0  0  0  0  0  0
  182.1390  176.4100  138.2220 S   0  0  0  0  0  0  0  0  0  0  0  0
  180.7880  176.2370  137.5840 O   0  0  0  0  0  0  0  0  0  0  0  0
  182.3050  175.3370  139.2630 O   0  0  0  0  0  0  0  0  0  0  0  0
  182.2050  177.9780  138.9610 N   0  0  0  0  0  2  0  0  0  0  0  0
  180.8460  178.4100  139.2530 C   0  0  0  0  0  2  0  0  0  0  0  0
  180.3120  177.6780  140.4720 C   0  0  0  0  0  2  0  0  0  0  0  0
  180.5850  178.4820  141.7310 C   0  0  0  0  0  2  0  0  0  0  0  0
  179.4600  178.3660  142.6420 N   0  0  0  0  0  2  0  0  0  0  0  0
  179.4360  179.5770  143.4440 C   0  0  0  0  0  2  0  0  0  0  0  0
  180.3420  180.5000  142.9210 O   0  0  0  0  0  1  0  0  0  0  0  0
  1  2  1  0  0  0  0
  2  3  2  0  0  0  0
  2 16  1  0  0  0  0
  4  5  1  0  0  0  0
  4  1  1  0  0  0  0
  6  5  1  0  0  0  0
  7  6  1  0  0  0  0
  8  7  1  0  0  0  0
  8  9  1  0  0  0  0
 10  9  1  0  0  0  0
 10 11  1  0  0  0  0
 11 12  1  6  0  0  0
 11 13  1  0  0  0  0
 13 15  1  0  0  0  0
 14 15  1  0  0  0  0
 18 25  2  0  0  0  0
 19 18  1  0  0  0  0
 20 28  2  0  0  0  0
 20 24  1  0  0  0  0
 21 30  1  0  0  0  0
 21 17  2  0  0  0  0
 22 24  1  0  0  0  0
 23 21  1  0  0  0  0
 24 19  2  0  0  0  0
 25 17  1  0  0  0  0
 26 23  2  0  0  0  0
 26 18  1  0  0  0  0
 27 22  2  0  0  0  0
 28 26  1  0  0  0  0
 29 16  1  6  0  0  0
 29 27  1  0  0  0  0
 29 20  1  0  0  0  0
 31 30  1  0  0  0  0
 32  1  1  0  0  0  0
 33 35  2  0  0  0  0
 33 32  1  0  0  0  0
 34 36  1  0  0  0  0
 35 34  2  0  0  0  0
 36 39  1  0  0  0  0
 37 38  1  0  0  0  0
 37 36  2  0  0  0  0
 39 42  1  0  0  0  0
 39 41  2  0  0  0  0
 40 39  2  0  0  0  0
 42 43  1  0  0  0  0
 43 44  1  0  0  0  0
 44 45  1  0  0  0  0
 45 46  1  0  0  0  0
 46 47  1  0  0  0  0
 48 47  1  0  0  0  0
M  END
>  <MODEL>
9

>  <REMARK>
 VINA RESULT:      -6.4      2.113      2.662
  Name = 
  23 active torsions:
  status: ('A' for Active; 'I' for Inactive)
    1  A    between atoms: C_3  and  N_17
    2  A    between atoms: C_3  and  C_47
    3  A    between atoms: N_5  and  C_23
    4  A    between atoms: N_5  and  C_29
    5  A    between atoms: C_7  and  O_8
    6  A    between atoms: C_9  and  C_24
    7  A    between atoms: C_9  and  N_43
    8  A    between atoms: C_10  and  N_17
    9  A    between atoms: C_10  and  C_27
   10  A    between atoms: C_12  and  C_13
   11  A    between atoms: C_13  and  N_14
   12  A    between atoms: N_14  and  C_25
   13  A    between atoms: C_16  and  C_19
   14  A    between atoms: C_19  and  C_46
   15  A    between atoms: C_20  and  C_21
   16  A    between atoms: C_20  and  S_28
   17  A    between atoms: C_24  and  C_29
   18  A    between atoms: C_25  and  C_35
   19  A    between atoms: C_27  and  C_35
   20  A    between atoms: S_28  and  N_43
   21  A    between atoms: C_38  and  O_48
   22  A    between atoms: C_39  and  C_47
   23  A    between atoms: C_39  and  O_48
                            x       y       z     vdW  Elec       q    Type
                         _______ _______ _______ _____ _____    ______ ____

>  <TORSDO>
F 23

$$$$
