=
 OpenBabel11032419483D

 27 29  0  0  1  0  0  0  0  0999 V2000
  188.1770  177.7720  144.1270 C   0  0  2  0  0  3  0  0  0  0  0  0
  187.1840  178.4170  141.8970 C   0  0  0  0  0  3  0  0  0  0  0  0
  189.7860  176.3600  143.3740 C   0  0  1  0  0  3  0  0  0  0  0  0
  188.9380  176.6370  144.4740 O   0  0  0  0  0  0  0  0  0  0  0  0
  189.3260  177.1490  142.1650 C   0  0  0  0  0  2  0  0  0  0  0  0
  186.7390  177.6340  144.5660 C   0  0  0  0  0  0  0  0  0  0  0  0
  188.2780  177.9640  142.6950 N   0  0  0  0  0  0  0  0  0  0  0  0
  185.9740  178.4890  142.4480 C   0  0  0  0  0  0  0  0  0  0  0  0
  185.7670  178.0280  143.7940 N   0  0  0  0  0  0  0  0  0  0  0  0
  181.4550  179.5010  139.2380 C   0  0  0  0  0  1  0  0  0  0  0  0
  183.6580  178.2480  141.9940 O   0  0  0  0  0  0  0  0  0  0  0  0
  183.9280  179.2590  139.3260 C   0  0  1  0  0  3  0  0  0  0  0  0
  185.1070  178.7380  140.1420 C   0  0  0  0  0  2  0  0  0  0  0  0
  182.5700  178.9190  141.4040 C   0  0  2  0  0  3  0  0  0  0  0  0
  184.0770  178.8790  138.0050 F   0  0  0  0  0  0  0  0  0  0  0  0
  181.3820  178.4030  141.9240 O   0  0  0  0  0  1  0  0  0  0  0  0
  182.5990  178.7370  139.8790 C   0  0  1  0  0  3  0  0  0  0  0  0
  184.8190  178.9530  141.6270 C   0  0  2  0  0  3  0  0  0  0  0  0
  191.2450  176.6610  143.7130 C   0  0  0  0  0  2  0  0  0  0  0  0
  191.6930  175.9000  144.8270 O   0  0  0  0  0  0  0  0  0  0  0  0
  192.1620  175.7450  147.1250 C   0  0  0  0  0  2  0  0  0  0  0  0
  191.7930  176.4790  146.0870 C   0  0  0  0  0  3  0  0  0  0  0  0
  186.4340  177.2300  145.9710 C   0  0  0  0  0  2  0  0  0  0  0  0
  186.5180  178.4100  146.8840 C   0  0  0  0  0  0  0  0  0  0  0  0
  185.6840  179.2990  146.8090 O   0  0  0  0  0  0  0  0  0  0  0  0
  187.8670  178.5490  148.0540 S   0  0  0  0  0  0  0  0  0  0  0  0
  188.3550  176.8170  147.8220 C   0  0  0  0  0  1  0  0  0  0  0  0
  1  4  1  6  0  0  0
  1  6  1  0  0  0  0
  2  8  2  0  0  0  0
  2  7  1  0  0  0  0
  3 19  1  1  0  0  0
  3  4  1  0  0  0  0
  5  7  1  0  0  0  0
  5  3  1  0  0  0  0
  6 23  1  0  0  0  0
  7  1  1  0  0  0  0
  8  9  1  0  0  0  0
  9  6  2  0  0  0  0
 12 15  1  6  0  0  0
 12 17  1  0  0  0  0
 12 13  1  0  0  0  0
 13 18  1  0  0  0  0
 14 16  1  1  0  0  0
 14 11  1  0  0  0  0
 17 10  1  6  0  0  0
 17 14  1  0  0  0  0
 18 11  1  0  0  0  0
 18  8  1  1  0  0  0
 19 20  1  0  0  0  0
 20 22  1  0  0  0  0
 22 21  2  0  0  0  0
 23 24  1  0  0  0  0
 24 26  1  0  0  0  0
 25 24  2  0  0  0  0
 27 26  1  0  0  0  0
M  END
>  <MODEL>
1

>  <REMARK>
 VINA RESULT:      -7.2      0.000      0.000
  Name = 
  7 active torsions:
  status: ('A' for Active; 'I' for Inactive)
    1  A    between atoms: C_2  and  S_4
    2  A    between atoms: C_2  and  C_15
    3  A    between atoms: C_8  and  O_26
    4  A    between atoms: C_10  and  C_14
    5  A    between atoms: C_14  and  O_26
    6  A    between atoms: C_15  and  C_19
    7  A    between atoms: C_21  and  C_23
                            x       y       z     vdW  Elec       q    Type
                         _______ _______ _______ _____ _____    ______ ____

>  <TORSDO>
F 7

$$$$
=
 OpenBabel11032419483D

 27 29  0  0  1  0  0  0  0  0999 V2000
  188.3400  177.3780  144.5520 C   0  0  2  0  0  3  0  0  0  0  0  0
  185.8820  177.7600  144.1210 C   0  0  0  0  0  3  0  0  0  0  0  0
  188.4600  178.3010  146.6220 C   0  0  1  0  0  3  0  0  0  0  0  0
  189.2070  178.0380  145.4470 O   0  0  0  0  0  0  0  0  0  0  0  0
  186.9850  178.0870  146.3450 C   0  0  0  0  0  2  0  0  0  0  0  0
  188.5200  177.8740  143.1370 C   0  0  0  0  0  0  0  0  0  0  0  0
  186.9810  177.5690  145.0140 N   0  0  0  0  0  0  0  0  0  0  0  0
  186.1310  177.9580  142.8290 C   0  0  0  0  0  0  0  0  0  0  0  0
  187.4880  178.0690  142.3660 N   0  0  0  0  0  0  0  0  0  0  0  0
  181.9010  179.4880  139.4370 C   0  0  0  0  0  1  0  0  0  0  0  0
  185.2840  179.2380  141.0200 O   0  0  0  0  0  0  0  0  0  0  0  0
  182.5620  178.6250  141.6730 C   0  0  1  0  0  3  0  0  0  0  0  0
  183.7120  178.4580  142.6610 C   0  0  0  0  0  2  0  0  0  0  0  0
  184.3270  179.1990  139.9890 C   0  0  2  0  0  3  0  0  0  0  0  0
  181.4470  179.0990  142.3390 F   0  0  0  0  0  0  0  0  0  0  0  0
  184.7040  180.0910  138.9850 O   0  0  0  0  0  1  0  0  0  0  0  0
  182.9430  179.5790  140.5370 C   0  0  1  0  0  3  0  0  0  0  0  0
  184.9960  178.1670  141.8850 C   0  0  2  0  0  3  0  0  0  0  0  0
  188.9390  177.4350  147.7850 C   0  0  0  0  0  2  0  0  0  0  0  0
  189.8460  176.4290  147.3530 O   0  0  0  0  0  0  0  0  0  0  0  0
  192.0570  176.0210  146.6670 C   0  0  0  0  0  2  0  0  0  0  0  0
  191.2170  176.5940  147.5140 C   0  0  0  0  0  3  0  0  0  0  0  0
  189.8910  177.9500  142.5520 C   0  0  0  0  0  2  0  0  0  0  0  0
  190.2010  176.7060  141.7840 C   0  0  0  0  0  0  0  0  0  0  0  0
  190.2440  175.6310  142.3580 O   0  0  0  0  0  0  0  0  0  0  0  0
  190.5610  176.7970  140.0310 S   0  0  0  0  0  0  0  0  0  0  0  0
  192.2090  177.4990  140.3220 C   0  0  0  0  0  1  0  0  0  0  0  0
  1  6  1  6  0  0  0
  1  7  1  0  0  0  0
  1  4  1  0  0  0  0
  2  7  1  0  0  0  0
  3 19  1  1  0  0  0
  4  3  1  0  0  0  0
  5  3  1  0  0  0  0
  7  5  1  0  0  0  0
  8  2  2  0  0  0  0
  9  8  1  0  0  0  0
  9  6  2  0  0  0  0
 11 18  1  0  0  0  0
 12 15  1  1  0  0  0
 12 13  1  0  0  0  0
 14 16  1  6  0  0  0
 14 17  1  0  0  0  0
 14 11  1  0  0  0  0
 17 10  1  6  0  0  0
 17 12  1  0  0  0  0
 18 13  1  0  0  0  0
 18  8  1  1  0  0  0
 20 22  1  0  0  0  0
 20 19  1  0  0  0  0
 21 22  2  0  0  0  0
 23  6  1  0  0  0  0
 24 25  2  0  0  0  0
 24 23  1  0  0  0  0
 26 27  1  0  0  0  0
 26 24  1  0  0  0  0
M  END
>  <MODEL>
2

>  <REMARK>
 VINA RESULT:      -7.1      2.529      4.068
  Name = 
  7 active torsions:
  status: ('A' for Active; 'I' for Inactive)
    1  A    between atoms: C_2  and  S_4
    2  A    between atoms: C_2  and  C_15
    3  A    between atoms: C_8  and  O_26
    4  A    between atoms: C_10  and  C_14
    5  A    between atoms: C_14  and  O_26
    6  A    between atoms: C_15  and  C_19
    7  A    between atoms: C_21  and  C_23
                            x       y       z     vdW  Elec       q    Type
                         _______ _______ _______ _____ _____    ______ ____

>  <TORSDO>
F 7

$$$$
=
 OpenBabel11032419483D

 27 29  0  0  1  0  0  0  0  0999 V2000
  189.3510  177.6980  141.7520 C   0  0  2  0  0  3  0  0  0  0  0  0
  187.1350  178.5980  140.9450 C   0  0  0  0  0  3  0  0  0  0  0  0
  190.0080  176.6750  139.8350 C   0  0  1  0  0  3  0  0  0  0  0  0
  190.1230  176.6310  141.2460 O   0  0  0  0  0  0  0  0  0  0  0  0
  188.8740  177.6010  139.4450 C   0  0  0  0  0  2  0  0  0  0  0  0
  188.5760  177.2900  142.9810 C   0  0  0  0  0  0  0  0  0  0  0  0
  188.4710  178.1590  140.6980 N   0  0  0  0  0  0  0  0  0  0  0  0
  186.6080  178.4050  142.1520 C   0  0  0  0  0  0  0  0  0  0  0  0
  187.3460  177.6830  143.1530 N   0  0  0  0  0  0  0  0  0  0  0  0
  181.2280  179.4000  143.4980 C   0  0  0  0  0  1  0  0  0  0  0  0
  184.8650  178.5510  143.7550 O   0  0  0  0  0  0  0  0  0  0  0  0
  182.8280  178.6640  141.7430 C   0  0  1  0  0  3  0  0  0  0  0  0
  184.2410  178.1580  141.4690 C   0  0  0  0  0  2  0  0  0  0  0  0
  183.6710  179.2420  144.0310 C   0  0  2  0  0  3  0  0  0  0  0  0
  181.9190  177.8950  141.0410 F   0  0  0  0  0  0  0  0  0  0  0  0
  183.4090  179.1690  145.4000 O   0  0  0  0  0  1  0  0  0  0  0  0
  182.5070  178.6250  143.2400 C   0  0  1  0  0  3  0  0  0  0  0  0
  185.2120  178.8510  142.4250 C   0  0  2  0  0  3  0  0  0  0  0  0
  191.3240  177.1030  139.1880 C   0  0  0  0  0  2  0  0  0  0  0  0
  191.8170  176.1130  138.2950 O   0  0  0  0  0  0  0  0  0  0  0  0
  193.8170  175.0160  137.7290 C   0  0  0  0  0  2  0  0  0  0  0  0
  193.1370  176.1440  137.8590 C   0  0  0  0  0  3  0  0  0  0  0  0
  189.2830  176.6010  144.1020 C   0  0  0  0  0  2  0  0  0  0  0  0
  189.5690  177.5620  145.2090 C   0  0  0  0  0  0  0  0  0  0  0  0
  190.1080  178.6290  144.9660 O   0  0  0  0  0  0  0  0  0  0  0  0
  189.1680  177.1300  146.9010 S   0  0  0  0  0  0  0  0  0  0  0  0
  187.4810  177.7830  146.7540 C   0  0  0  0  0  1  0  0  0  0  0  0
  1  4  1  6  0  0  0
  1  6  1  0  0  0  0
  2  8  2  0  0  0  0
  3 19  1  6  0  0  0
  3  4  1  0  0  0  0
  5  3  1  0  0  0  0
  5  7  1  0  0  0  0
  6  9  2  0  0  0  0
  6 23  1  0  0  0  0
  7  2  1  0  0  0  0
  7  1  1  0  0  0  0
  8  9  1  0  0  0  0
 11 14  1  0  0  0  0
 12 15  1  6  0  0  0
 12 17  1  0  0  0  0
 13 12  1  0  0  0  0
 13 18  1  0  0  0  0
 14 16  1  1  0  0  0
 17 10  1  6  0  0  0
 17 14  1  0  0  0  0
 18  8  1  6  0  0  0
 18 11  1  0  0  0  0
 20 19  1  0  0  0  0
 21 22  2  0  0  0  0
 22 20  1  0  0  0  0
 23 24  1  0  0  0  0
 24 26  1  0  0  0  0
 25 24  2  0  0  0  0
 27 26  1  0  0  0  0
M  END
>  <MODEL>
3

>  <REMARK>
 VINA RESULT:      -7.1      2.917      3.942
  Name = 
  7 active torsions:
  status: ('A' for Active; 'I' for Inactive)
    1  A    between atoms: C_2  and  S_4
    2  A    between atoms: C_2  and  C_15
    3  A    between atoms: C_8  and  O_26
    4  A    between atoms: C_10  and  C_14
    5  A    between atoms: C_14  and  O_26
    6  A    between atoms: C_15  and  C_19
    7  A    between atoms: C_21  and  C_23
                            x       y       z     vdW  Elec       q    Type
                         _______ _______ _______ _____ _____    ______ ____

>  <TORSDO>
F 7

$$$$
=
 OpenBabel11032419483D

 27 29  0  0  1  0  0  0  0  0999 V2000
  188.9500  177.3660  142.3910 C   0  0  2  0  0  3  0  0  0  0  0  0
  186.7070  177.9030  143.4180 C   0  0  0  0  0  3  0  0  0  0  0  0
  190.2530  177.8090  144.1950 C   0  0  1  0  0  3  0  0  0  0  0  0
  190.2380  177.7880  142.7790 O   0  0  0  0  0  0  0  0  0  0  0  0
  188.8360  177.7040  144.7210 C   0  0  0  0  0  2  0  0  0  0  0  0
  188.4380  178.1540  141.2090 C   0  0  0  0  0  0  0  0  0  0  0  0
  188.0690  177.4900  143.5340 N   0  0  0  0  0  0  0  0  0  0  0  0
  186.2750  178.3730  142.2490 C   0  0  0  0  0  0  0  0  0  0  0  0
  187.1960  178.5430  141.1570 N   0  0  0  0  0  0  0  0  0  0  0  0
  180.7340  179.3190  141.8720 C   0  0  0  0  0  1  0  0  0  0  0  0
  184.0940  178.3110  143.1800 O   0  0  0  0  0  0  0  0  0  0  0  0
  182.8450  178.8290  140.6530 C   0  0  1  0  0  3  0  0  0  0  0  0
  184.2790  178.3260  140.7850 C   0  0  0  0  0  2  0  0  0  0  0  0
  182.8610  178.9880  143.1540 C   0  0  2  0  0  3  0  0  0  0  0  0
  182.2410  178.2200  139.5690 F   0  0  0  0  0  0  0  0  0  0  0  0
  182.1580  178.6980  144.3240 O   0  0  0  0  0  1  0  0  0  0  0  0
  182.0430  178.5530  141.9280 C   0  0  1  0  0  3  0  0  0  0  0  0
  184.8580  178.8160  142.1120 C   0  0  2  0  0  3  0  0  0  0  0  0
  191.1380  176.6960  144.7540 C   0  0  0  0  0  2  0  0  0  0  0  0
  191.8030  177.1010  145.9430 O   0  0  0  0  0  0  0  0  0  0  0  0
  192.4460  175.7100  147.7250 C   0  0  0  0  0  2  0  0  0  0  0  0
  191.5310  176.4780  147.1550 C   0  0  0  0  0  3  0  0  0  0  0  0
  189.3030  178.3170  140.0030 C   0  0  0  0  0  2  0  0  0  0  0  0
  189.4270  177.0210  139.2700 C   0  0  0  0  0  0  0  0  0  0  0  0
  190.3000  176.2270  139.5800 O   0  0  0  0  0  0  0  0  0  0  0  0
  188.3290  176.6520  137.9020 S   0  0  0  0  0  0  0  0  0  0  0  0
  189.3020  177.6550  136.7440 C   0  0  0  0  0  1  0  0  0  0  0  0
  1  6  1  6  0  0  0
  1  4  1  0  0  0  0
  1  7  1  0  0  0  0
  2  7  1  0  0  0  0
  3  5  1  0  0  0  0
  3 19  1  1  0  0  0
  4  3  1  0  0  0  0
  7  5  1  0  0  0  0
  8  2  2  0  0  0  0
  9  6  2  0  0  0  0
  9  8  1  0  0  0  0
 12 15  1  6  0  0  0
 12 13  1  0  0  0  0
 12 17  1  0  0  0  0
 13 18  1  0  0  0  0
 14 11  1  0  0  0  0
 14 16  1  1  0  0  0
 17 10  1  6  0  0  0
 17 14  1  0  0  0  0
 18  8  1  1  0  0  0
 18 11  1  0  0  0  0
 19 20  1  0  0  0  0
 20 22  1  0  0  0  0
 22 21  2  0  0  0  0
 23  6  1  0  0  0  0
 24 25  2  0  0  0  0
 24 23  1  0  0  0  0
 26 24  1  0  0  0  0
 27 26  1  0  0  0  0
M  END
>  <MODEL>
4

>  <REMARK>
 VINA RESULT:      -7.1      2.881      4.365
  Name = 
  7 active torsions:
  status: ('A' for Active; 'I' for Inactive)
    1  A    between atoms: C_2  and  S_4
    2  A    between atoms: C_2  and  C_15
    3  A    between atoms: C_8  and  O_26
    4  A    between atoms: C_10  and  C_14
    5  A    between atoms: C_14  and  O_26
    6  A    between atoms: C_15  and  C_19
    7  A    between atoms: C_21  and  C_23
                            x       y       z     vdW  Elec       q    Type
                         _______ _______ _______ _____ _____    ______ ____

>  <TORSDO>
F 7

$$$$
=
 OpenBabel11032419483D

 27 29  0  0  1  0  0  0  0  0999 V2000
  187.3860  177.8750  140.3650 C   0  0  2  0  0  3  0  0  0  0  0  0
  188.6340  177.1750  142.4450 C   0  0  0  0  0  3  0  0  0  0  0  0
  189.1640  178.5480  139.1250 C   0  0  1  0  0  3  0  0  0  0  0  0
  187.7800  178.7570  139.3380 O   0  0  0  0  0  0  0  0  0  0  0  0
  189.7370  177.7350  140.2680 C   0  0  0  0  0  2  0  0  0  0  0  0
  186.4320  178.5350  141.3310 C   0  0  0  0  0  0  0  0  0  0  0  0
  188.5790  177.4010  141.0360 N   0  0  0  0  0  0  0  0  0  0  0  0
  187.6200  177.5890  143.2020 C   0  0  0  0  0  0  0  0  0  0  0  0
  186.5380  178.3310  142.6130 N   0  0  0  0  0  0  0  0  0  0  0  0
  187.9300  177.5030  148.8270 C   0  0  0  0  0  1  0  0  0  0  0  0
  186.8940  178.3470  145.3300 O   0  0  0  0  0  0  0  0  0  0  0  0
  189.1270  177.1560  146.6750 C   0  0  1  0  0  3  0  0  0  0  0  0
  189.1080  177.4270  145.1740 C   0  0  0  0  0  2  0  0  0  0  0  0
  186.7410  177.9220  146.6630 C   0  0  2  0  0  3  0  0  0  0  0  0
  190.3890  177.4180  147.1750 F   0  0  0  0  0  0  0  0  0  0  0  0
  185.7950  178.7310  147.2920 O   0  0  0  0  0  1  0  0  0  0  0  0
  188.0830  178.0080  147.4040 C   0  0  1  0  0  3  0  0  0  0  0  0
  187.6640  177.3680  144.6760 C   0  0  2  0  0  3  0  0  0  0  0  0
  189.4180  177.8720  137.7790 C   0  0  0  0  0  2  0  0  0  0  0  0
  189.5060  176.4590  137.9090 O   0  0  0  0  0  0  0  0  0  0  0  0
  187.3620  176.0620  137.0330 C   0  0  0  0  0  2  0  0  0  0  0  0
  188.5900  175.6300  137.2730 C   0  0  0  0  0  3  0  0  0  0  0  0
  185.2400  179.2650  140.8060 C   0  0  0  0  0  2  0  0  0  0  0  0
  183.9860  178.5230  141.1360 C   0  0  0  0  0  0  0  0  0  0  0  0
  183.4900  178.6280  142.2460 O   0  0  0  0  0  0  0  0  0  0  0  0
  183.2370  177.4380  139.9220 S   0  0  0  0  0  0  0  0  0  0  0  0
  184.0430  178.2940  138.5400 C   0  0  0  0  0  1  0  0  0  0  0  0
  1  4  1  6  0  0  0
  1  7  1  0  0  0  0
  1  6  1  0  0  0  0
  2  8  2  0  0  0  0
  3 19  1  6  0  0  0
  3  4  1  0  0  0  0
  3  5  1  0  0  0  0
  5  7  1  0  0  0  0
  6  9  2  0  0  0  0
  7  2  1  0  0  0  0
  9  8  1  0  0  0  0
 11 14  1  0  0  0  0
 12 15  1  1  0  0  0
 12 17  1  0  0  0  0
 13 12  1  0  0  0  0
 14 16  1  1  0  0  0
 14 17  1  0  0  0  0
 17 10  1  1  0  0  0
 18  8  1  6  0  0  0
 18 13  1  0  0  0  0
 18 11  1  0  0  0  0
 19 20  1  0  0  0  0
 21 22  2  0  0  0  0
 22 20  1  0  0  0  0
 23 24  1  0  0  0  0
 23  6  1  0  0  0  0
 24 25  2  0  0  0  0
 26 24  1  0  0  0  0
 27 26  1  0  0  0  0
M  END
>  <MODEL>
5

>  <REMARK>
 VINA RESULT:      -7.0      3.821      6.978
  Name = 
  7 active torsions:
  status: ('A' for Active; 'I' for Inactive)
    1  A    between atoms: C_2  and  S_4
    2  A    between atoms: C_2  and  C_15
    3  A    between atoms: C_8  and  O_26
    4  A    between atoms: C_10  and  C_14
    5  A    between atoms: C_14  and  O_26
    6  A    between atoms: C_15  and  C_19
    7  A    between atoms: C_21  and  C_23
                            x       y       z     vdW  Elec       q    Type
                         _______ _______ _______ _____ _____    ______ ____

>  <TORSDO>
F 7

$$$$
=
 OpenBabel11032419483D

 27 29  0  0  1  0  0  0  0  0999 V2000
  187.5740  176.9550  144.8350 C   0  0  2  0  0  3  0  0  0  0  0  0
  185.3930  178.2010  145.0840 C   0  0  0  0  0  3  0  0  0  0  0  0
  188.7000  177.9160  146.5560 C   0  0  1  0  0  3  0  0  0  0  0  0
  188.8630  177.3050  145.2890 O   0  0  0  0  0  0  0  0  0  0  0  0
  187.2390  178.2530  146.7750 C   0  0  0  0  0  2  0  0  0  0  0  0
  187.4060  177.2420  143.3620 C   0  0  0  0  0  0  0  0  0  0  0  0
  186.6030  177.6770  145.6310 N   0  0  0  0  0  0  0  0  0  0  0  0
  185.2300  178.1950  143.7630 C   0  0  0  0  0  0  0  0  0  0  0  0
  186.2980  177.7530  142.9070 N   0  0  0  0  0  0  0  0  0  0  0  0
  180.2180  179.5600  141.5800 C   0  0  0  0  0  1  0  0  0  0  0  0
  182.8630  178.2860  143.9030 O   0  0  0  0  0  0  0  0  0  0  0  0
  182.5800  178.9290  141.1250 C   0  0  1  0  0  3  0  0  0  0  0  0
  183.8480  178.3180  141.7120 C   0  0  0  0  0  2  0  0  0  0  0  0
  181.7590  179.0540  143.4890 C   0  0  2  0  0  3  0  0  0  0  0  0
  182.3380  178.3810  139.8780 F   0  0  0  0  0  0  0  0  0  0  0  0
  180.6840  178.8020  144.3430 O   0  0  0  0  0  1  0  0  0  0  0  0
  181.3770  178.6970  142.0440 C   0  0  1  0  0  3  0  0  0  0  0  0
  183.9750  178.7450  143.1740 C   0  0  2  0  0  3  0  0  0  0  0  0
  189.2380  177.0210  147.6720 C   0  0  0  0  0  2  0  0  0  0  0  0
  190.6450  177.1590  147.8230 O   0  0  0  0  0  0  0  0  0  0  0  0
  192.4250  175.6280  147.7100 C   0  0  0  0  0  2  0  0  0  0  0  0
  191.5180  176.3650  147.0880 C   0  0  0  0  0  3  0  0  0  0  0  0
  188.4330  176.7530  142.3950 C   0  0  0  0  0  2  0  0  0  0  0  0
  189.0860  177.9030  141.7000 C   0  0  0  0  0  0  0  0  0  0  0  0
  189.8550  178.6270  142.3100 O   0  0  0  0  0  0  0  0  0  0  0  0
  188.7020  178.2530  139.9850 S   0  0  0  0  0  0  0  0  0  0  0  0
  190.0750  177.2310  139.3840 C   0  0  0  0  0  1  0  0  0  0  0  0
  1  6  1  6  0  0  0
  1  4  1  0  0  0  0
  1  7  1  0  0  0  0
  2  7  1  0  0  0  0
  3  5  1  0  0  0  0
  3 19  1  1  0  0  0
  4  3  1  0  0  0  0
  7  5  1  0  0  0  0
  8  2  2  0  0  0  0
  9  6  2  0  0  0  0
  9  8  1  0  0  0  0
 12 15  1  6  0  0  0
 12 13  1  0  0  0  0
 12 17  1  0  0  0  0
 13 18  1  0  0  0  0
 14 11  1  0  0  0  0
 14 16  1  1  0  0  0
 17 10  1  6  0  0  0
 17 14  1  0  0  0  0
 18  8  1  1  0  0  0
 18 11  1  0  0  0  0
 19 20  1  0  0  0  0
 22 21  2  0  0  0  0
 22 20  1  0  0  0  0
 23  6  1  0  0  0  0
 24 25  2  0  0  0  0
 24 23  1  0  0  0  0
 26 24  1  0  0  0  0
 27 26  1  0  0  0  0
M  END
>  <MODEL>
6

>  <REMARK>
 VINA RESULT:      -7.0      2.441      3.771
  Name = 
  7 active torsions:
  status: ('A' for Active; 'I' for Inactive)
    1  A    between atoms: C_2  and  S_4
    2  A    between atoms: C_2  and  C_15
    3  A    between atoms: C_8  and  O_26
    4  A    between atoms: C_10  and  C_14
    5  A    between atoms: C_14  and  O_26
    6  A    between atoms: C_15  and  C_19
    7  A    between atoms: C_21  and  C_23
                            x       y       z     vdW  Elec       q    Type
                         _______ _______ _______ _____ _____    ______ ____

>  <TORSDO>
F 7

$$$$
=
 OpenBabel11032419483D

 27 29  0  0  1  0  0  0  0  0999 V2000
  190.1420  177.6150  139.8040 C   0  0  2  0  0  3  0  0  0  0  0  0
  187.6820  178.1460  140.0030 C   0  0  0  0  0  3  0  0  0  0  0  0
  190.0260  176.1610  138.0650 C   0  0  1  0  0  3  0  0  0  0  0  0
  190.7730  176.4980  139.2200 O   0  0  0  0  0  0  0  0  0  0  0  0
  188.6960  176.8870  138.0900 C   0  0  0  0  0  2  0  0  0  0  0  0
  190.0940  177.5030  141.3090 C   0  0  0  0  0  0  0  0  0  0  0  0
  188.8140  177.7320  139.2370 N   0  0  0  0  0  0  0  0  0  0  0  0
  187.8030  178.2500  141.3240 C   0  0  0  0  0  0  0  0  0  0  0  0
  189.0280  177.8590  141.9680 N   0  0  0  0  0  0  0  0  0  0  0  0
  183.2010  179.1060  144.4600 C   0  0  0  0  0  1  0  0  0  0  0  0
  186.5490  177.8920  143.3060 O   0  0  0  0  0  0  0  0  0  0  0  0
  184.1640  179.0030  142.1700 C   0  0  1  0  0  3  0  0  0  0  0  0
  185.3420  178.5230  141.3280 C   0  0  0  0  0  2  0  0  0  0  0  0
  185.6170  178.5180  144.1540 C   0  0  2  0  0  3  0  0  0  0  0  0
  182.9800  178.6740  141.5370 F   0  0  0  0  0  0  0  0  0  0  0  0
  185.6730  177.9200  145.4130 O   0  0  0  0  0  1  0  0  0  0  0  0
  184.2010  178.3880  143.5730 C   0  0  1  0  0  3  0  0  0  0  0  0
  186.6290  178.6740  142.1390 C   0  0  2  0  0  3  0  0  0  0  0  0
  190.8080  176.4760  136.7910 C   0  0  0  0  0  2  0  0  0  0  0  0
  192.2060  176.2990  136.9760 O   0  0  0  0  0  0  0  0  0  0  0  0
  193.7780  174.6640  137.5930 C   0  0  0  0  0  2  0  0  0  0  0  0
  192.7920  175.0500  136.7990 C   0  0  0  0  0  3  0  0  0  0  0  0
  191.3400  177.1740  142.0630 C   0  0  0  0  0  2  0  0  0  0  0  0
  191.0290  176.2840  143.2220 C   0  0  0  0  0  0  0  0  0  0  0  0
  190.5550  175.1770  143.0300 O   0  0  0  0  0  0  0  0  0  0  0  0
  191.3050  176.8590  144.8970 S   0  0  0  0  0  0  0  0  0  0  0  0
  191.6790  178.5460  144.3440 C   0  0  0  0  0  1  0  0  0  0  0  0
  1  4  1  6  0  0  0
  1  6  1  0  0  0  0
  2  8  2  0  0  0  0
  3 19  1  6  0  0  0
  3  5  1  0  0  0  0
  3  4  1  0  0  0  0
  5  7  1  0  0  0  0
  6  9  2  0  0  0  0
  6 23  1  0  0  0  0
  7  1  1  0  0  0  0
  7  2  1  0  0  0  0
  8  9  1  0  0  0  0
 11 14  1  0  0  0  0
 12 15  1  6  0  0  0
 12 17  1  0  0  0  0
 13 18  1  0  0  0  0
 13 12  1  0  0  0  0
 14 16  1  1  0  0  0
 17 14  1  0  0  0  0
 17 10  1  1  0  0  0
 18  8  1  6  0  0  0
 18 11  1  0  0  0  0
 19 20  1  0  0  0  0
 22 20  1  0  0  0  0
 22 21  2  0  0  0  0
 23 24  1  0  0  0  0
 24 26  1  0  0  0  0
 25 24  2  0  0  0  0
 27 26  1  0  0  0  0
M  END
>  <MODEL>
7

>  <REMARK>
 VINA RESULT:      -6.8      3.649      5.323
  Name = 
  7 active torsions:
  status: ('A' for Active; 'I' for Inactive)
    1  A    between atoms: C_2  and  S_4
    2  A    between atoms: C_2  and  C_15
    3  A    between atoms: C_8  and  O_26
    4  A    between atoms: C_10  and  C_14
    5  A    between atoms: C_14  and  O_26
    6  A    between atoms: C_15  and  C_19
    7  A    between atoms: C_21  and  C_23
                            x       y       z     vdW  Elec       q    Type
                         _______ _______ _______ _____ _____    ______ ____

>  <TORSDO>
F 7

$$$$
=
 OpenBabel11032419483D

 27 29  0  0  1  0  0  0  0  0999 V2000
  189.0520  177.5470  144.4640 C   0  0  2  0  0  3  0  0  0  0  0  0
  190.2470  177.3240  142.2520 C   0  0  0  0  0  3  0  0  0  0  0  0
  190.5570  176.4530  145.7630 C   0  0  1  0  0  3  0  0  0  0  0  0
  189.1840  176.7740  145.6360 O   0  0  0  0  0  0  0  0  0  0  0  0
  191.2750  176.7610  144.4650 C   0  0  0  0  0  2  0  0  0  0  0  0
  187.8230  177.1600  143.6780 C   0  0  0  0  0  0  0  0  0  0  0  0
  190.2580  177.3870  143.6780 N   0  0  0  0  0  0  0  0  0  0  0  0
  189.0790  177.2200  141.6220 C   0  0  0  0  0  0  0  0  0  0  0  0
  187.8630  177.0800  142.3780 N   0  0  0  0  0  0  0  0  0  0  0  0
  189.7080  177.1290  136.0240 C   0  0  0  0  0  1  0  0  0  0  0  0
  190.1490  176.4010  139.6700 O   0  0  0  0  0  0  0  0  0  0  0  0
  189.0140  178.4460  138.0150 C   0  0  1  0  0  3  0  0  0  0  0  0
  189.0880  178.5510  139.5350 C   0  0  0  0  0  2  0  0  0  0  0  0
  189.9110  176.1250  138.3100 C   0  0  2  0  0  3  0  0  0  0  0  0
  189.2640  179.6850  137.4540 F   0  0  0  0  0  0  0  0  0  0  0  0
  190.8500  175.1950  137.8630 O   0  0  0  0  0  1  0  0  0  0  0  0
  190.0140  177.4150  137.4830 C   0  0  1  0  0  3  0  0  0  0  0  0
  189.0490  177.1460  140.1330 C   0  0  2  0  0  3  0  0  0  0  0  0
  191.1900  177.1960  146.9390 C   0  0  0  0  0  2  0  0  0  0  0  0
  190.3340  177.2100  148.0740 O   0  0  0  0  0  0  0  0  0  0  0  0
  188.2520  178.0020  148.8240 C   0  0  0  0  0  2  0  0  0  0  0  0
  189.4270  178.2460  148.2650 C   0  0  0  0  0  3  0  0  0  0  0  0
  186.5040  177.0640  144.3720 C   0  0  0  0  0  2  0  0  0  0  0  0
  185.9170  178.4240  144.5700 C   0  0  0  0  0  0  0  0  0  0  0  0
  186.0670  179.0030  145.6330 O   0  0  0  0  0  0  0  0  0  0  0  0
  184.9510  179.1850  143.2670 S   0  0  0  0  0  0  0  0  0  0  0  0
  183.4010  178.9860  144.1880 C   0  0  0  0  0  1  0  0  0  0  0  0
  1  6  1  6  0  0  0
  1  4  1  0  0  0  0
  2  7  1  0  0  0  0
  3 19  1  1  0  0  0
  4  3  1  0  0  0  0
  5  3  1  0  0  0  0
  6 23  1  0  0  0  0
  7  1  1  0  0  0  0
  7  5  1  0  0  0  0
  8  2  2  0  0  0  0
  8  9  1  0  0  0  0
  9  6  2  0  0  0  0
 11 18  1  0  0  0  0
 12 15  1  6  0  0  0
 12 13  1  0  0  0  0
 13 18  1  0  0  0  0
 14 16  1  6  0  0  0
 14 11  1  0  0  0  0
 17 10  1  6  0  0  0
 17 12  1  0  0  0  0
 17 14  1  0  0  0  0
 18  8  1  1  0  0  0
 19 20  1  0  0  0  0
 20 22  1  0  0  0  0
 22 21  2  0  0  0  0
 23 24  1  0  0  0  0
 24 25  2  0  0  0  0
 26 27  1  0  0  0  0
 26 24  1  0  0  0  0
M  END
>  <MODEL>
8

>  <REMARK>
 VINA RESULT:      -6.8      3.266      5.025
  Name = 
  7 active torsions:
  status: ('A' for Active; 'I' for Inactive)
    1  A    between atoms: C_2  and  S_4
    2  A    between atoms: C_2  and  C_15
    3  A    between atoms: C_8  and  O_26
    4  A    between atoms: C_10  and  C_14
    5  A    between atoms: C_14  and  O_26
    6  A    between atoms: C_15  and  C_19
    7  A    between atoms: C_21  and  C_23
                            x       y       z     vdW  Elec       q    Type
                         _______ _______ _______ _____ _____    ______ ____

>  <TORSDO>
F 7

$$$$
=
 OpenBabel11032419483D

 27 29  0  0  1  0  0  0  0  0999 V2000
  185.8150  178.8960  140.3820 C   0  0  2  0  0  3  0  0  0  0  0  0
  185.1140  178.1350  142.6850 C   0  0  0  0  0  3  0  0  0  0  0  0
  184.1620  177.8990  139.1880 C   0  0  1  0  0  3  0  0  0  0  0  0
  185.5050  178.3430  139.1230 O   0  0  0  0  0  0  0  0  0  0  0  0
  183.7030  177.8790  140.6320 C   0  0  0  0  0  2  0  0  0  0  0  0
  187.2030  178.5100  140.8330 C   0  0  0  0  0  0  0  0  0  0  0  0
  184.8090  178.4590  141.3280 N   0  0  0  0  0  0  0  0  0  0  0  0
  186.3900  178.0480  143.0540 C   0  0  0  0  0  0  0  0  0  0  0  0
  187.4330  178.1870  142.0740 N   0  0  0  0  0  0  0  0  0  0  0  0
  187.8890  177.4730  148.4540 C   0  0  0  0  0  1  0  0  0  0  0  0
  186.2200  178.6890  145.3310 O   0  0  0  0  0  0  0  0  0  0  0  0
  188.5540  177.2010  146.0740 C   0  0  1  0  0  3  0  0  0  0  0  0
  188.2410  177.5950  144.6340 C   0  0  0  0  0  2  0  0  0  0  0  0
  186.3130  178.1710  146.6370 C   0  0  2  0  0  3  0  0  0  0  0  0
  189.9140  177.3090  146.2970 F   0  0  0  0  0  0  0  0  0  0  0  0
  185.6130  179.0060  147.5080 O   0  0  0  0  0  1  0  0  0  0  0  0
  187.7850  178.0780  147.0660 C   0  0  1  0  0  3  0  0  0  0  0  0
  186.7260  177.7040  144.4650 C   0  0  2  0  0  3  0  0  0  0  0  0
  183.2510  178.7710  138.3260 C   0  0  0  0  0  2  0  0  0  0  0  0
  182.4910  179.6770  139.1150 O   0  0  0  0  0  0  0  0  0  0  0  0
  181.0600  181.0930  137.9010 C   0  0  0  0  0  2  0  0  0  0  0  0
  182.1560  180.9350  138.6260 C   0  0  0  0  0  3  0  0  0  0  0  0
  188.3570  178.6930  139.9030 C   0  0  0  0  0  2  0  0  0  0  0  0
  188.9680  177.3720  139.5630 C   0  0  0  0  0  0  0  0  0  0  0  0
  188.4460  176.6570  138.7240 O   0  0  0  0  0  0  0  0  0  0  0  0
  190.4390  176.8140  140.4210 S   0  0  0  0  0  0  0  0  0  0  0  0
  191.3920  176.6960  138.8820 C   0  0  0  0  0  1  0  0  0  0  0  0
  1  4  1  6  0  0  0
  1  6  1  0  0  0  0
  1  7  1  0  0  0  0
  2  8  2  0  0  0  0
  3 19  1  6  0  0  0
  3  5  1  0  0  0  0
  4  3  1  0  0  0  0
  5  7  1  0  0  0  0
  6  9  2  0  0  0  0
  7  2  1  0  0  0  0
  9  8  1  0  0  0  0
 11 14  1  0  0  0  0
 12 15  1  1  0  0  0
 12 17  1  0  0  0  0
 13 12  1  0  0  0  0
 14 17  1  0  0  0  0
 14 16  1  1  0  0  0
 17 10  1  1  0  0  0
 18  8  1  6  0  0  0
 18 13  1  0  0  0  0
 18 11  1  0  0  0  0
 19 20  1  0  0  0  0
 21 22  2  0  0  0  0
 22 20  1  0  0  0  0
 23  6  1  0  0  0  0
 24 23  1  0  0  0  0
 24 26  1  0  0  0  0
 25 24  2  0  0  0  0
 27 26  1  0  0  0  0
M  END
>  <MODEL>
9

>  <REMARK>
 VINA RESULT:      -6.8      3.449      7.947
  Name = 
  7 active torsions:
  status: ('A' for Active; 'I' for Inactive)
    1  A    between atoms: C_2  and  S_4
    2  A    between atoms: C_2  and  C_15
    3  A    between atoms: C_8  and  O_26
    4  A    between atoms: C_10  and  C_14
    5  A    between atoms: C_14  and  O_26
    6  A    between atoms: C_15  and  C_19
    7  A    between atoms: C_21  and  C_23
                            x       y       z     vdW  Elec       q    Type
                         _______ _______ _______ _____ _____    ______ ____

>  <TORSDO>
F 7

$$$$
