=
 OpenBabel11042411193D

 48 52  0  0  1  0  0  0  0  0999 V2000
  185.2760  177.9360  138.6020 C   0  0  0  0  0  0  0  0  0  0  0  0
  186.6040  177.2260  138.3000 C   0  0  2  0  0  3  0  0  0  0  0  0
  187.6790  177.3100  143.3980 C   0  0  1  0  0  3  0  0  0  0  0  0
  188.1550  177.9320  140.2160 C   0  0  2  0  0  3  0  0  0  0  0  0
  187.3980  178.5390  142.5130 C   0  0  0  0  0  2  0  0  0  0  0  0
  189.5340  179.3200  138.1310 O   0  0  0  0  0  0  0  0  0  0  0  0
  188.4250  176.1750  142.6820 C   0  0  0  0  0  2  0  0  0  0  0  0
  185.1630  178.9480  139.5980 C   0  0  0  0  0  0  0  0  0  0  0  0
  186.1400  179.1960  140.5680 O   0  0  0  0  0  0  0  0  0  0  0  0
  182.9300  179.4140  138.8900 N   0  0  0  0  0  0  0  0  0  0  0  0
  188.5670  178.5700  137.8270 C   0  0  0  0  0  0  0  0  0  0  0  0
  188.8520  176.6150  140.5490 C   0  0  0  0  0  2  0  0  0  0  0  0
  186.9440  178.1580  141.1090 C   0  0  1  0  0  3  0  0  0  0  0  0
  184.0970  177.5690  137.9020 C   0  0  0  0  0  0  0  0  0  0  0  0
  182.9460  178.3550  138.0450 C   0  0  0  0  0  3  0  0  0  0  0  0
  183.9950  179.7090  139.6720 C   0  0  0  0  0  3  0  0  0  0  0  0
  189.4150  176.6760  141.8310 O   0  0  0  0  0  0  0  0  0  0  0  0
  188.1860  178.3070  136.4210 C   0  0  2  0  0  3  0  0  0  0  0  0
  187.7550  177.9570  138.8170 N   0  0  0  0  0  0  0  0  0  0  0  0
  186.8820  177.0380  136.4880 S   0  0  0  0  0  0  0  0  0  0  0  0
  188.3610  177.6650  144.6890 C   0  0  0  0  0  0  0  0  0  0  0  0
  190.7150  177.4980  145.4470 C   0  0  0  0  0  3  0  0  0  0  0  0
  187.6740  177.5090  145.8240 C   0  0  0  0  0  3  0  0  0  0  0  0
  189.7150  178.3090  144.6950 C   0  0  0  0  0  2  0  0  0  0  0  0
  190.6210  177.2160  146.7520 C   0  0  0  0  0  0  0  0  0  0  0  0
  189.4650  177.6360  147.5820 C   0  0  0  0  0  3  0  0  0  0  0  0
  188.1920  177.7610  147.1830 C   0  0  0  0  0  3  0  0  0  0  0  0
  192.1390  175.4040  146.9380 O   0  0  0  0  0  0  0  0  0  0  0  0
  192.3540  177.0500  148.5770 N   0  0  0  0  0  2  0  0  0  0  0  0
  191.7330  176.5030  147.4070 C   0  0  0  0  0  0  0  0  0  0  0  0
  193.0650  175.0660  149.7730 C   0  0  0  0  0  1  0  0  0  0  0  0
  193.4880  176.4190  149.2370 C   0  0  0  0  0  3  0  0  0  0  0  0
  193.9650  177.2840  150.3870 C   0  0  0  0  0  1  0  0  0  0  0  0
  182.9240  174.9000  138.5590 N   0  0  0  0  0  2  0  0  0  0  0  0
  184.0720  176.3770  137.0970 N   0  0  0  0  0  2  0  0  0  0  0  0
  183.6800  173.9990  136.5070 N   0  0  0  0  0  0  0  0  0  0  0  0
  184.3550  174.2010  135.2360 C   0  0  0  0  0  1  0  0  0  0  0  0
  183.5460  175.0840  137.4390 C   0  0  0  0  0  0  0  0  0  0  0  0
  184.2570  171.7390  136.6210 O   0  0  0  0  0  1  0  0  0  0  0  0
  183.2240  172.6530  136.8300 C   0  0  0  0  0  2  0  0  0  0  0  0
  189.3460  177.7610  135.6470 C   0  0  0  0  0  3  0  0  0  0  0  0
  189.5240  175.8860  137.0440 F   0  0  0  0  0  0  0  0  0  0  0  0
  189.9390  176.6080  135.9660 C   0  0  0  0  0  0  0  0  0  0  0  0
  192.4040  176.3650  135.8820 C   0  0  0  0  0  1  0  0  0  0  0  0
  191.0940  176.1330  135.1460 C   0  0  1  0  0  3  0  0  0  0  0  0
  191.9270  173.9380  134.6460 O   0  0  0  0  0  1  0  0  0  0  0  0
  189.6500  174.1750  134.5950 O   0  0  0  0  0  0  0  0  0  0  0  0
  190.9260  174.6940  134.7690 C   0  0  0  0  0  0  0  0  0  0  0  0
  1  8  1  0  0  0  0
  2 20  1  6  0  0  0
  2  1  1  0  0  0  0
  2 19  1  0  0  0  0
  3 21  1  1  0  0  0
  4 12  1  1  0  0  0
  4 13  1  0  0  0  0
  5  3  1  0  0  0  0
  7  3  1  0  0  0  0
  8 16  2  0  0  0  0
  8  9  1  0  0  0  0
  9 13  1  0  0  0  0
 10 16  1  0  0  0  0
 11  6  2  0  0  0  0
 11 19  1  0  0  0  0
 12 17  1  0  0  0  0
 13  5  1  1  0  0  0
 14 15  1  0  0  0  0
 14  1  2  0  0  0  0
 15 10  2  0  0  0  0
 17  7  1  0  0  0  0
 18 41  1  6  0  0  0
 18 20  1  0  0  0  0
 18 11  1  0  0  0  0
 19  4  1  0  0  0  0
 21 24  1  0  0  0  0
 21 23  2  0  0  0  0
 22 25  2  0  0  0  0
 23 27  1  0  0  0  0
 24 22  1  0  0  0  0
 25 30  1  0  0  0  0
 25 26  1  0  0  0  0
 27 26  2  0  0  0  0
 28 30  2  0  0  0  0
 29 32  1  0  0  0  0
 30 29  1  0  0  0  0
 32 31  1  0  0  0  0
 32 33  1  0  0  0  0
 35 38  1  0  0  0  0
 35 14  1  0  0  0  0
 36 40  1  0  0  0  0
 36 38  1  0  0  0  0
 37 36  1  0  0  0  0
 38 34  2  0  0  0  0
 39 40  1  0  0  0  0
 41 43  2  0  0  0  0
 43 42  1  0  0  0  0
 45 44  1  1  0  0  0
 45 43  1  0  0  0  0
 46 48  1  0  0  0  0
 47 48  2  0  0  0  0
 48 45  1  0  0  0  0
M  END
>  <MODEL>
1

>  <REMARK>
 VINA RESULT:      -7.1      0.000      0.000
  Name = 
  8 active torsions:
  status: ('A' for Active; 'I' for Inactive)
    1  A    between atoms: C_1  and  C_6
    2  A    between atoms: N_17  and  C_30
    3  A    between atoms: N_22  and  C_40
    4  A    between atoms: C_24  and  C_38
    5  A    between atoms: C_25  and  N_31
    6  A    between atoms: C_26  and  C_32
    7  A    between atoms: C_35  and  C_47
    8  A    between atoms: C_44  and  C_47
                            x       y       z     vdW  Elec       q    Type
                         _______ _______ _______ _____ _____    ______ ____

>  <TORSDO>
F 8

$$$$
=
 OpenBabel11042411193D

 48 52  0  0  1  0  0  0  0  0999 V2000
  181.4110  178.6080  136.7160 C   0  0  0  0  0  0  0  0  0  0  0  0
  182.1780  178.9940  137.9890 C   0  0  2  0  0  3  0  0  0  0  0  0
  186.6220  177.8330  135.5300 C   0  0  1  0  0  3  0  0  0  0  0  0
  184.3400  177.6210  137.8720 C   0  0  2  0  0  3  0  0  0  0  0  0
  185.4410  176.8720  135.7640 C   0  0  0  0  0  2  0  0  0  0  0  0
  183.2030  176.2750  140.1240 O   0  0  0  0  0  0  0  0  0  0  0  0
  186.8520  178.8380  136.6670 C   0  0  0  0  0  2  0  0  0  0  0  0
  181.8030  177.5140  135.8920 C   0  0  0  0  0  0  0  0  0  0  0  0
  183.0440  176.8750  135.9890 O   0  0  0  0  0  0  0  0  0  0  0  0
  179.8080  177.7520  134.6010 N   0  0  0  0  0  0  0  0  0  0  0  0
  182.6100  177.2860  139.6560 C   0  0  0  0  0  0  0  0  0  0  0  0
  185.3800  178.6470  138.3180 C   0  0  0  0  0  2  0  0  0  0  0  0
  184.2240  177.5730  136.3550 C   0  0  1  0  0  3  0  0  0  0  0  0
  180.2860  179.3690  136.3030 C   0  0  0  0  0  0  0  0  0  0  0  0
  179.4840  178.8920  135.2590 C   0  0  0  0  0  3  0  0  0  0  0  0
  180.9460  177.0750  134.8820 C   0  0  0  0  0  3  0  0  0  0  0  0
  186.6610  178.2420  137.9180 O   0  0  0  0  0  0  0  0  0  0  0  0
  181.4030  177.8560  140.2930 C   0  0  2  0  0  3  0  0  0  0  0  0
  183.0440  177.9200  138.4630 N   0  0  0  0  0  0  0  0  0  0  0  0
  181.0360  179.3880  139.3810 S   0  0  0  0  0  0  0  0  0  0  0  0
  187.8980  177.1160  135.1860 C   0  0  0  0  0  0  0  0  0  0  0  0
  188.8850  174.9790  135.9610 C   0  0  0  0  0  3  0  0  0  0  0  0
  188.9750  177.8550  134.9060 C   0  0  0  0  0  3  0  0  0  0  0  0
  187.9250  175.6260  135.0210 C   0  0  0  0  0  2  0  0  0  0  0  0
  190.2030  175.2060  135.9580 C   0  0  0  0  0  0  0  0  0  0  0  0
  190.8480  176.1850  135.0470 C   0  0  0  0  0  3  0  0  0  0  0  0
  190.3180  177.3290  134.5940 C   0  0  0  0  0  3  0  0  0  0  0  0
  190.5520  173.7980  137.8340 O   0  0  0  0  0  0  0  0  0  0  0  0
  192.4780  174.3520  136.6390 N   0  0  0  0  0  2  0  0  0  0  0  0
  191.0630  174.4170  136.8600 C   0  0  0  0  0  0  0  0  0  0  0  0
  194.4370  174.4430  138.0620 C   0  0  0  0  0  1  0  0  0  0  0  0
  193.3690  173.5500  137.4640 C   0  0  0  0  0  3  0  0  0  0  0  0
  194.0310  172.4770  136.6200 C   0  0  0  0  0  1  0  0  0  0  0  0
  180.9030  182.1100  135.2820 N   0  0  0  0  0  2  0  0  0  0  0  0
  180.0050  180.6400  136.9170 N   0  0  0  0  0  2  0  0  0  0  0  0
  180.0290  183.1000  137.2430 N   0  0  0  0  0  0  0  0  0  0  0  0
  179.3810  182.9360  138.5350 C   0  0  0  0  0  1  0  0  0  0  0  0
  180.3460  181.9530  136.4400 C   0  0  0  0  0  0  0  0  0  0  0  0
  181.8000  184.5670  136.8390 O   0  0  0  0  0  1  0  0  0  0  0  0
  180.4100  184.4470  136.8380 C   0  0  0  0  0  2  0  0  0  0  0  0
  181.6690  178.2030  141.7250 C   0  0  0  0  0  3  0  0  0  0  0  0
  183.7250  179.2040  141.2050 F   0  0  0  0  0  0  0  0  0  0  0  0
  182.7700  178.8520  142.1110 C   0  0  0  0  0  0  0  0  0  0  0  0
  181.8530  178.5350  144.3920 C   0  0  0  0  0  1  0  0  0  0  0  0
  182.9630  179.1580  143.5610 C   0  0  1  0  0  3  0  0  0  0  0  0
  184.9580  177.8350  143.3860 O   0  0  0  0  0  0  0  0  0  0  0  0
  184.8790  179.2900  145.1530 O   0  0  0  0  0  1  0  0  0  0  0  0
  184.3130  178.7080  144.0270 C   0  0  0  0  0  0  0  0  0  0  0  0
  2  1  1  6  0  0  0
  2 19  1  0  0  0  0
  2 20  1  0  0  0  0
  3 21  1  1  0  0  0
  3  5  1  0  0  0  0
  3  7  1  0  0  0  0
  4 12  1  6  0  0  0
  4 19  1  0  0  0  0
  7 17  1  0  0  0  0
  8  9  1  0  0  0  0
  8  1  2  0  0  0  0
  9 13  1  0  0  0  0
 10 16  2  0  0  0  0
 10 15  1  0  0  0  0
 11  6  2  0  0  0  0
 11 18  1  0  0  0  0
 13  5  1  6  0  0  0
 13  4  1  0  0  0  0
 14  1  1  0  0  0  0
 14 35  1  0  0  0  0
 15 14  2  0  0  0  0
 16  8  1  0  0  0  0
 17 12  1  0  0  0  0
 18 41  1  1  0  0  0
 19 11  1  0  0  0  0
 20 18  1  0  0  0  0
 23 21  2  0  0  0  0
 24 21  1  0  0  0  0
 24 22  1  0  0  0  0
 25 22  2  0  0  0  0
 25 30  1  0  0  0  0
 26 25  1  0  0  0  0
 27 23  1  0  0  0  0
 27 26  2  0  0  0  0
 29 30  1  0  0  0  0
 29 32  1  0  0  0  0
 30 28  2  0  0  0  0
 32 31  1  0  0  0  0
 33 32  1  0  0  0  0
 34 38  2  0  0  0  0
 36 37  1  0  0  0  0
 38 35  1  0  0  0  0
 38 36  1  0  0  0  0
 40 39  1  0  0  0  0
 40 36  1  0  0  0  0
 41 43  2  0  0  0  0
 42 43  1  0  0  0  0
 43 45  1  0  0  0  0
 45 48  1  0  0  0  0
 45 44  1  1  0  0  0
 46 48  2  0  0  0  0
 48 47  1  0  0  0  0
M  END
>  <MODEL>
2

>  <REMARK>
 VINA RESULT:      -6.1      5.228      9.277
  Name = 
  8 active torsions:
  status: ('A' for Active; 'I' for Inactive)
    1  A    between atoms: C_1  and  C_6
    2  A    between atoms: N_17  and  C_30
    3  A    between atoms: N_22  and  C_40
    4  A    between atoms: C_24  and  C_38
    5  A    between atoms: C_25  and  N_31
    6  A    between atoms: C_26  and  C_32
    7  A    between atoms: C_35  and  C_47
    8  A    between atoms: C_44  and  C_47
                            x       y       z     vdW  Elec       q    Type
                         _______ _______ _______ _____ _____    ______ ____

>  <TORSDO>
F 8

$$$$
=
 OpenBabel11042411193D

 48 52  0  0  1  0  0  0  0  0999 V2000
  189.2250  176.6610  137.2520 C   0  0  0  0  0  0  0  0  0  0  0  0
  190.3180  175.8060  137.9110 C   0  0  2  0  0  3  0  0  0  0  0  0
  188.3430  177.0700  142.5640 C   0  0  1  0  0  3  0  0  0  0  0  0
  190.6330  176.8520  140.2300 C   0  0  2  0  0  3  0  0  0  0  0  0
  188.8620  178.0590  141.5030 C   0  0  0  0  0  2  0  0  0  0  0  0
  193.1900  177.5810  139.1770 O   0  0  0  0  0  0  0  0  0  0  0  0
  189.1140  175.7430  142.6190 C   0  0  0  0  0  2  0  0  0  0  0  0
  188.7810  177.8930  137.8120 C   0  0  0  0  0  0  0  0  0  0  0  0
  189.0720  178.3030  139.1170 O   0  0  0  0  0  0  0  0  0  0  0  0
  187.4770  178.3260  135.8570 N   0  0  0  0  0  0  0  0  0  0  0  0
  192.4310  176.8490  138.4830 C   0  0  0  0  0  0  0  0  0  0  0  0
  190.7410  175.6120  141.1150 C   0  0  0  0  0  2  0  0  0  0  0  0
  189.2060  177.3770  140.1850 C   0  0  1  0  0  3  0  0  0  0  0  0
  188.5960  176.2170  136.0590 C   0  0  0  0  0  0  0  0  0  0  0  0
  187.7500  177.0930  135.3670 C   0  0  0  0  0  3  0  0  0  0  0  0
  187.9550  178.7290  137.0590 C   0  0  0  0  0  3  0  0  0  0  0  0
  190.4880  175.9480  142.4520 O   0  0  0  0  0  0  0  0  0  0  0  0
  192.8600  176.2750  137.1880 C   0  0  2  0  0  3  0  0  0  0  0  0
  191.1010  176.5590  138.8840 N   0  0  0  0  0  0  0  0  0  0  0  0
  191.5180  175.1580  136.6720 S   0  0  0  0  0  0  0  0  0  0  0  0
  188.2400  177.6840  143.9320 C   0  0  0  0  0  0  0  0  0  0  0  0
  189.9310  178.2400  145.6560 C   0  0  0  0  0  3  0  0  0  0  0  0
  187.1540  177.4090  144.6610 C   0  0  0  0  0  3  0  0  0  0  0  0
  189.2490  178.6860  144.4070 C   0  0  0  0  0  2  0  0  0  0  0  0
  189.3000  178.0250  146.8160 C   0  0  0  0  0  0  0  0  0  0  0  0
  187.8290  178.1490  146.9660 C   0  0  0  0  0  3  0  0  0  0  0  0
  186.9020  177.8820  146.0360 C   0  0  0  0  0  3  0  0  0  0  0  0
  189.6590  177.9750  149.1600 O   0  0  0  0  0  0  0  0  0  0  0  0
  191.3840  177.0730  147.8740 N   0  0  0  0  0  2  0  0  0  0  0  0
  190.1020  177.6990  148.0110 C   0  0  0  0  0  0  0  0  0  0  0  0
  192.8980  177.9040  149.5740 C   0  0  0  0  0  1  0  0  0  0  0  0
  192.1960  176.6820  149.0170 C   0  0  0  0  0  3  0  0  0  0  0  0
  193.2350  175.6630  148.5880 C   0  0  0  0  0  1  0  0  0  0  0  0
  186.8580  173.8280  136.5130 N   0  0  0  0  0  2  0  0  0  0  0  0
  188.7860  174.8680  135.5970 N   0  0  0  0  0  2  0  0  0  0  0  0
  188.3740  172.4330  135.3520 N   0  0  0  0  0  0  0  0  0  0  0  0
  189.6070  172.2990  134.5940 C   0  0  0  0  0  1  0  0  0  0  0  0
  187.9680  173.7150  135.8580 C   0  0  0  0  0  0  0  0  0  0  0  0
  188.4180  170.0990  135.4270 O   0  0  0  0  0  1  0  0  0  0  0  0
  187.6170  171.2220  135.6420 C   0  0  0  0  0  2  0  0  0  0  0  0
  194.1140  175.4740  137.3490 C   0  0  0  0  0  3  0  0  0  0  0  0
  194.5150  175.4530  135.0380 F   0  0  0  0  0  0  0  0  0  0  0  0
  194.8740  175.1190  136.3100 C   0  0  0  0  0  0  0  0  0  0  0  0
  196.4130  173.4260  135.3580 C   0  0  0  0  0  1  0  0  0  0  0  0
  196.1110  174.3150  136.5530 C   0  0  1  0  0  3  0  0  0  0  0  0
  197.7620  175.9690  136.0070 O   0  0  0  0  0  0  0  0  0  0  0  0
  197.7800  175.2180  138.1710 O   0  0  0  0  0  1  0  0  0  0  0  0
  197.2700  175.2040  136.8800 C   0  0  0  0  0  0  0  0  0  0  0  0
  1  8  1  0  0  0  0
  1  2  1  0  0  0  0
  2 20  1  6  0  0  0
  2 19  1  0  0  0  0
  3  7  1  0  0  0  0
  3 21  1  1  0  0  0
  4 12  1  1  0  0  0
  5  3  1  0  0  0  0
  8  9  1  0  0  0  0
  9 13  1  0  0  0  0
 10 16  1  0  0  0  0
 11 19  1  0  0  0  0
 11  6  2  0  0  0  0
 12 17  1  0  0  0  0
 13  4  1  0  0  0  0
 13  5  1  1  0  0  0
 14  1  2  0  0  0  0
 15 10  2  0  0  0  0
 15 14  1  0  0  0  0
 16  8  2  0  0  0  0
 17  7  1  0  0  0  0
 18 41  1  1  0  0  0
 18 11  1  0  0  0  0
 19  4  1  0  0  0  0
 20 18  1  0  0  0  0
 21 24  1  0  0  0  0
 21 23  2  0  0  0  0
 22 25  2  0  0  0  0
 23 27  1  0  0  0  0
 24 22  1  0  0  0  0
 25 26  1  0  0  0  0
 25 30  1  0  0  0  0
 27 26  2  0  0  0  0
 29 30  1  0  0  0  0
 29 32  1  0  0  0  0
 30 28  2  0  0  0  0
 32 31  1  0  0  0  0
 33 32  1  0  0  0  0
 35 38  1  0  0  0  0
 35 14  1  0  0  0  0
 36 40  1  0  0  0  0
 36 38  1  0  0  0  0
 37 36  1  0  0  0  0
 38 34  2  0  0  0  0
 39 40  1  0  0  0  0
 42 43  1  0  0  0  0
 43 45  1  0  0  0  0
 43 41  2  0  0  0  0
 45 44  1  6  0  0  0
 45 48  1  0  0  0  0
 46 48  2  0  0  0  0
 48 47  1  0  0  0  0
M  END
>  <MODEL>
3

>  <REMARK>
 VINA RESULT:      -6.0      3.054      4.171
  Name = 
  8 active torsions:
  status: ('A' for Active; 'I' for Inactive)
    1  A    between atoms: C_1  and  C_6
    2  A    between atoms: N_17  and  C_30
    3  A    between atoms: N_22  and  C_40
    4  A    between atoms: C_24  and  C_38
    5  A    between atoms: C_25  and  N_31
    6  A    between atoms: C_26  and  C_32
    7  A    between atoms: C_35  and  C_47
    8  A    between atoms: C_44  and  C_47
                            x       y       z     vdW  Elec       q    Type
                         _______ _______ _______ _____ _____    ______ ____

>  <TORSDO>
F 8

$$$$
