=
 OpenBabel11042410283D

 35 39  0  0  1  0  0  0  0  0999 V2000
  183.3320  178.8100  140.6170 N   0  0  0  0  0  0  0  0  0  0  0  0
  181.1010  178.4440  139.5780 C   0  0  0  0  0  0  0  0  0  0  0  0
  180.4650  176.2120  138.8730 C   0  0  0  0  0  0  0  0  0  0  0  0
  181.6940  175.7170  139.3150 C   0  0  0  0  0  3  0  0  0  0  0  0
  180.1740  177.5720  138.9970 C   0  0  0  0  0  3  0  0  0  0  0  0
  182.6280  176.5810  139.8900 C   0  0  0  0  0  3  0  0  0  0  0  0
  182.3410  177.9450  140.0360 C   0  0  0  0  0  0  0  0  0  0  0  0
  179.4710  175.2930  138.2590 C   0  0  0  0  0  1  0  0  0  0  0  0
  180.7760  179.8990  139.6250 C   0  0  0  0  0  2  0  0  0  0  0  0
  180.1910  180.2140  140.8520 O   0  0  0  0  0  1  0  0  0  0  0  0
  184.2670  178.6810  144.7660 C   0  0  0  0  0  0  0  0  0  0  0  0
  183.6560  178.7600  142.0230 C   0  0  0  0  0  0  0  0  0  0  0  0
  182.6460  178.9170  142.9840 C   0  0  0  0  0  3  0  0  0  0  0  0
  185.2850  178.5350  143.8190 C   0  0  0  0  0  3  0  0  0  0  0  0
  182.9460  178.8730  144.3470 C   0  0  0  0  0  3  0  0  0  0  0  0
  184.9820  178.5790  142.4550 C   0  0  0  0  0  3  0  0  0  0  0  0
  184.5810  178.6000  146.2180 C   0  0  0  0  0  2  0  0  0  0  0  0
  185.9460  179.2040  146.4840 C   0  0  0  0  0  2  0  0  0  0  0  0
  186.6210  178.4410  147.4420 O   0  0  0  0  0  0  0  0  0  0  0  0
  188.4670  176.9710  147.5600 N   0  0  0  0  0  2  0  0  0  0  0  0
  187.4110  177.5410  146.7160 C   0  0  1  0  0  0  0  0  0  0  0  0
  186.7770  176.5630  145.9640 F   0  0  0  0  0  0  0  0  0  0  0  0
  188.8070  177.9170  146.4800 C   0  0  2  0  0  3  0  0  0  0  0  0
  190.3660  178.0530  144.5670 C   0  0  0  0  0  2  0  0  0  0  0  0
  188.9720  177.8410  144.0160 C   0  0  0  0  0  2  0  0  0  0  0  0
  189.3900  177.1580  145.3030 C   0  0  0  0  0  3  0  0  0  0  0  0
  184.0850  179.6370  139.7670 N   0  0  0  0  0  2  0  0  0  0  0  0
  184.5210  178.8260  138.6380 C   0  0  0  0  0  2  0  0  0  0  0  0
  185.9020  178.2560  138.9160 C   0  0  0  0  0  2  0  0  0  0  0  0
  186.4650  177.5830  137.6750 C   0  0  0  0  0  2  0  0  0  0  0  0
  187.9850  177.5150  137.7370 C   0  0  2  0  0  3  0  0  0  0  0  0
  189.0590  179.3620  138.0250 N   0  0  0  0  0  2  0  0  0  0  0  0
  189.5750  177.6130  139.6410 C   0  0  0  0  0  1  0  0  0  0  0  0
  188.4760  178.3490  138.8960 C   0  0  2  0  0  3  0  0  0  0  0  0
  188.6000  178.5960  136.8750 C   0  0  0  0  0  2  0  0  0  0  0  0
  1 12  1  0  0  0  0
  2  9  1  0  0  0  0
  2  7  1  0  0  0  0
  3  5  1  0  0  0  0
  3  4  2  0  0  0  0
  4  6  1  0  0  0  0
  5  2  2  0  0  0  0
  6  7  2  0  0  0  0
  7  1  1  0  0  0  0
  8  3  1  0  0  0  0
  9 10  1  0  0  0  0
 11 17  1  0  0  0  0
 12 16  2  0  0  0  0
 12 13  1  0  0  0  0
 13 15  2  0  0  0  0
 14 11  2  0  0  0  0
 15 11  1  0  0  0  0
 16 14  1  0  0  0  0
 17 18  1  0  0  0  0
 18 19  1  0  0  0  0
 21 22  1  6  0  0  0
 21 19  1  0  0  0  0
 21 20  1  0  0  0  0
 23 26  1  6  0  0  0
 23 21  1  0  0  0  0
 23 20  1  0  0  0  0
 24 26  1  0  0  0  0
 25 24  1  0  0  0  0
 25 26  1  0  0  0  0
 27  1  1  0  0  0  0
 28 29  1  0  0  0  0
 28 27  1  0  0  0  0
 30 29  1  0  0  0  0
 31 30  1  1  0  0  0
 31 34  1  0  0  0  0
 32 34  1  0  0  0  0
 34 33  1  6  0  0  0
 35 31  1  0  0  0  0
 35 32  1  0  0  0  0
M  END
>  <MODEL>
1

>  <REMARK>
 VINA RESULT:      -7.6      0.000      0.000
  Name = 
  13 active torsions:
  status: ('A' for Active; 'I' for Inactive)
    1  A    between atoms: C_1  and  C_20
    2  A    between atoms: C_3  and  C_8
    3  A    between atoms: C_3  and  C_28
    4  A    between atoms: C_4  and  C_7
    5  A    between atoms: N_5  and  C_11
    6  A    between atoms: N_5  and  N_31
    7  A    between atoms: C_11  and  C_30
    8  A    between atoms: C_15  and  O_17
    9  A    between atoms: O_17  and  C_28
   10  A    between atoms: C_20  and  C_30
   11  A    between atoms: C_21  and  N_31
   12  A    between atoms: C_23  and  C_29
   13  A    between atoms: N_31  and  C_32
                            x       y       z     vdW  Elec       q    Type
                         _______ _______ _______ _____ _____    ______ ____

>  <TORSDO>
F 13

$$$$
=
 OpenBabel11042410283D

 35 39  0  0  1  0  0  0  0  0999 V2000
  183.9780  178.6960  140.7870 N   0  0  0  0  0  0  0  0  0  0  0  0
  181.7650  178.7320  139.6490 C   0  0  0  0  0  0  0  0  0  0  0  0
  180.7690  176.6480  138.9070 C   0  0  0  0  0  0  0  0  0  0  0  0
  181.8680  175.9420  139.4010 C   0  0  0  0  0  3  0  0  0  0  0  0
  180.7230  178.0390  139.0240 C   0  0  0  0  0  3  0  0  0  0  0  0
  182.9170  176.6270  140.0200 C   0  0  0  0  0  3  0  0  0  0  0  0
  182.8740  178.0200  140.1590 C   0  0  0  0  0  0  0  0  0  0  0  0
  179.6540  175.9210  138.2460 C   0  0  0  0  0  1  0  0  0  0  0  0
  181.7050  180.2230  139.6880 C   0  0  0  0  0  2  0  0  0  0  0  0
  182.0640  180.7440  138.4450 O   0  0  0  0  0  1  0  0  0  0  0  0
  184.6380  178.4940  144.9850 C   0  0  0  0  0  0  0  0  0  0  0  0
  184.1960  178.6350  142.2120 C   0  0  0  0  0  0  0  0  0  0  0  0
  185.4410  178.2310  142.7180 C   0  0  0  0  0  3  0  0  0  0  0  0
  183.3890  178.8870  144.4960 C   0  0  0  0  0  3  0  0  0  0  0  0
  185.6640  178.1650  144.0940 C   0  0  0  0  0  3  0  0  0  0  0  0
  183.1680  178.9520  143.1180 C   0  0  0  0  0  3  0  0  0  0  0  0
  184.8870  178.4580  146.4520 C   0  0  0  0  0  2  0  0  0  0  0  0
  186.3280  178.8290  146.7400 C   0  0  0  0  0  2  0  0  0  0  0  0
  186.7940  178.0970  147.8360 O   0  0  0  0  0  0  0  0  0  0  0  0
  189.1450  178.2610  147.6710 N   0  0  0  0  0  2  0  0  0  0  0  0
  187.9540  177.4520  147.3900 C   0  0  1  0  0  0  0  0  0  0  0  0
  188.1480  176.1240  147.7410 F   0  0  0  0  0  0  0  0  0  0  0  0
  188.6830  178.0760  146.2820 C   0  0  2  0  0  3  0  0  0  0  0  0
  190.2200  177.7350  144.3770 C   0  0  0  0  0  2  0  0  0  0  0  0
  189.0340  176.8150  144.1870 C   0  0  0  0  0  2  0  0  0  0  0  0
  189.5770  177.0720  145.5780 C   0  0  0  0  0  3  0  0  0  0  0  0
  184.9320  179.3270  139.9720 N   0  0  0  0  0  2  0  0  0  0  0  0
  184.9490  178.6280  138.6940 C   0  0  0  0  0  2  0  0  0  0  0  0
  186.3630  178.1780  138.3710 C   0  0  0  0  0  2  0  0  0  0  0  0
  187.2340  178.2080  139.6150 C   0  0  0  0  0  2  0  0  0  0  0  0
  188.7080  178.3070  139.2440 C   0  0  2  0  0  3  0  0  0  0  0  0
  189.9530  176.5880  139.6180 N   0  0  0  0  0  2  0  0  0  0  0  0
  190.0010  177.4090  137.3250 C   0  0  0  0  0  1  0  0  0  0  0  0
  189.1240  177.0540  138.5130 C   0  0  2  0  0  3  0  0  0  0  0  0
  189.5740  177.7790  140.3660 C   0  0  0  0  0  2  0  0  0  0  0  0
  1 12  1  0  0  0  0
  2  9  1  0  0  0  0
  2  7  1  0  0  0  0
  3  5  1  0  0  0  0
  3  4  2  0  0  0  0
  4  6  1  0  0  0  0
  5  2  2  0  0  0  0
  6  7  2  0  0  0  0
  7  1  1  0  0  0  0
  8  3  1  0  0  0  0
 10  9  1  0  0  0  0
 11 17  1  0  0  0  0
 12 13  2  0  0  0  0
 12 16  1  0  0  0  0
 13 15  1  0  0  0  0
 14 11  1  0  0  0  0
 15 11  2  0  0  0  0
 16 14  2  0  0  0  0
 17 18  1  0  0  0  0
 18 19  1  0  0  0  0
 21 20  1  0  0  0  0
 21 22  1  1  0  0  0
 21 19  1  0  0  0  0
 23 26  1  6  0  0  0
 23 21  1  0  0  0  0
 23 20  1  0  0  0  0
 24 26  1  0  0  0  0
 25 24  1  0  0  0  0
 25 26  1  0  0  0  0
 27  1  1  0  0  0  0
 28 27  1  0  0  0  0
 29 28  1  0  0  0  0
 29 30  1  0  0  0  0
 31 30  1  1  0  0  0
 31 35  1  0  0  0  0
 32 35  1  0  0  0  0
 34 33  1  6  0  0  0
 34 31  1  0  0  0  0
 34 32  1  0  0  0  0
M  END
>  <MODEL>
2

>  <REMARK>
 VINA RESULT:      -7.5      1.150      1.612
  Name = 
  13 active torsions:
  status: ('A' for Active; 'I' for Inactive)
    1  A    between atoms: C_1  and  C_20
    2  A    between atoms: C_3  and  C_8
    3  A    between atoms: C_3  and  C_28
    4  A    between atoms: C_4  and  C_7
    5  A    between atoms: N_5  and  C_11
    6  A    between atoms: N_5  and  N_31
    7  A    between atoms: C_11  and  C_30
    8  A    between atoms: C_15  and  O_17
    9  A    between atoms: O_17  and  C_28
   10  A    between atoms: C_20  and  C_30
   11  A    between atoms: C_21  and  N_31
   12  A    between atoms: C_23  and  C_29
   13  A    between atoms: N_31  and  C_32
                            x       y       z     vdW  Elec       q    Type
                         _______ _______ _______ _____ _____    ______ ____

>  <TORSDO>
F 13

$$$$
=
 OpenBabel11042410283D

 35 39  0  0  1  0  0  0  0  0999 V2000
  184.1150  178.6990  141.4080 N   0  0  0  0  0  0  0  0  0  0  0  0
  181.7220  178.4250  140.7800 C   0  0  0  0  0  0  0  0  0  0  0  0
  181.0360  176.4740  139.5120 C   0  0  0  0  0  0  0  0  0  0  0  0
  182.3540  176.0100  139.5050 C   0  0  0  0  0  3  0  0  0  0  0  0
  180.7250  177.6810  140.1410 C   0  0  0  0  0  3  0  0  0  0  0  0
  183.3580  176.7500  140.1340 C   0  0  0  0  0  3  0  0  0  0  0  0
  183.0540  177.9530  140.7840 C   0  0  0  0  0  0  0  0  0  0  0  0
  179.9680  175.6890  138.8410 C   0  0  0  0  0  1  0  0  0  0  0  0
  181.3550  179.7420  141.3770 C   0  0  0  0  0  2  0  0  0  0  0  0
  180.1050  180.1440  140.9050 O   0  0  0  0  0  1  0  0  0  0  0  0
  184.9380  178.3580  145.5690 C   0  0  0  0  0  0  0  0  0  0  0  0
  184.3900  178.5920  142.8210 C   0  0  0  0  0  0  0  0  0  0  0  0
  185.5290  177.9030  143.2660 C   0  0  0  0  0  3  0  0  0  0  0  0
  183.7940  179.0380  145.1390 C   0  0  0  0  0  3  0  0  0  0  0  0
  185.8050  177.7900  144.6300 C   0  0  0  0  0  3  0  0  0  0  0  0
  183.5190  179.1500  143.7740 C   0  0  0  0  0  3  0  0  0  0  0  0
  185.2510  178.2680  147.0210 C   0  0  0  0  0  2  0  0  0  0  0  0
  186.7090  178.6120  147.2550 C   0  0  0  0  0  2  0  0  0  0  0  0
  187.4200  177.4530  147.5800 O   0  0  0  0  0  0  0  0  0  0  0  0
  189.0590  178.2360  146.0690 N   0  0  0  0  0  2  0  0  0  0  0  0
  188.7720  177.7900  147.4370 C   0  0  1  0  0  0  0  0  0  0  0  0
  189.3460  178.6320  148.3780 F   0  0  0  0  0  0  0  0  0  0  0  0
  189.5820  176.9450  146.5560 C   0  0  2  0  0  3  0  0  0  0  0  0
  191.8380  176.0760  146.0460 C   0  0  0  0  0  2  0  0  0  0  0  0
  191.5510  175.7950  147.5040 C   0  0  0  0  0  2  0  0  0  0  0  0
  191.0600  177.0800  146.8700 C   0  0  0  0  0  3  0  0  0  0  0  0
  184.9760  179.4530  140.5950 N   0  0  0  0  0  2  0  0  0  0  0  0
  186.0850  178.5900  140.2100 C   0  0  0  0  0  2  0  0  0  0  0  0
  187.3420  179.0020  140.9560 C   0  0  0  0  0  2  0  0  0  0  0  0
  188.3590  177.8730  140.9610 C   0  0  0  0  0  2  0  0  0  0  0  0
  189.0200  177.7430  142.3270 C   0  0  2  0  0  3  0  0  0  0  0  0
  190.2520  176.0110  142.6830 N   0  0  0  0  0  2  0  0  0  0  0  0
  191.3460  178.1490  143.0920 C   0  0  0  0  0  1  0  0  0  0  0  0
  190.4660  177.3500  142.1480 C   0  0  2  0  0  3  0  0  0  0  0  0
  188.8460  176.3420  142.8690 C   0  0  0  0  0  2  0  0  0  0  0  0
  1 12  1  0  0  0  0
  2  7  1  0  0  0  0
  2  9  1  0  0  0  0
  3  5  1  0  0  0  0
  4  3  2  0  0  0  0
  4  6  1  0  0  0  0
  5  2  2  0  0  0  0
  6  7  2  0  0  0  0
  7  1  1  0  0  0  0
  8  3  1  0  0  0  0
 10  9  1  0  0  0  0
 11 17  1  0  0  0  0
 12 13  2  0  0  0  0
 12 16  1  0  0  0  0
 13 15  1  0  0  0  0
 14 11  1  0  0  0  0
 15 11  2  0  0  0  0
 16 14  2  0  0  0  0
 17 18  1  0  0  0  0
 18 19  1  0  0  0  0
 20 23  1  0  0  0  0
 20 21  1  0  0  0  0
 21 19  1  0  0  0  0
 21 22  1  1  0  0  0
 23 26  1  1  0  0  0
 23 21  1  0  0  0  0
 24 26  1  0  0  0  0
 24 25  1  0  0  0  0
 26 25  1  0  0  0  0
 27  1  1  0  0  0  0
 28 27  1  0  0  0  0
 28 29  1  0  0  0  0
 29 30  1  0  0  0  0
 31 30  1  6  0  0  0
 31 35  1  0  0  0  0
 32 35  1  0  0  0  0
 34 31  1  0  0  0  0
 34 32  1  0  0  0  0
 34 33  1  1  0  0  0
M  END
>  <MODEL>
3

>  <REMARK>
 VINA RESULT:      -7.4      1.897      2.744
  Name = 
  13 active torsions:
  status: ('A' for Active; 'I' for Inactive)
    1  A    between atoms: C_1  and  C_20
    2  A    between atoms: C_3  and  C_8
    3  A    between atoms: C_3  and  C_28
    4  A    between atoms: C_4  and  C_7
    5  A    between atoms: N_5  and  C_11
    6  A    between atoms: N_5  and  N_31
    7  A    between atoms: C_11  and  C_30
    8  A    between atoms: C_15  and  O_17
    9  A    between atoms: O_17  and  C_28
   10  A    between atoms: C_20  and  C_30
   11  A    between atoms: C_21  and  N_31
   12  A    between atoms: C_23  and  C_29
   13  A    between atoms: N_31  and  C_32
                            x       y       z     vdW  Elec       q    Type
                         _______ _______ _______ _____ _____    ______ ____

>  <TORSDO>
F 13

$$$$
=
 OpenBabel11042410283D

 35 39  0  0  1  0  0  0  0  0999 V2000
  189.7680  177.6400  140.7080 N   0  0  0  0  0  0  0  0  0  0  0  0
  191.6520  176.9330  139.2440 C   0  0  0  0  0  0  0  0  0  0  0  0
  191.1870  175.6690  137.2260 C   0  0  0  0  0  0  0  0  0  0  0  0
  189.8190  175.7140  137.5080 C   0  0  0  0  0  3  0  0  0  0  0  0
  192.0990  176.2690  138.0960 C   0  0  0  0  0  3  0  0  0  0  0  0
  189.3640  176.3680  138.6560 C   0  0  0  0  0  3  0  0  0  0  0  0
  190.2690  176.9890  139.5270 C   0  0  0  0  0  0  0  0  0  0  0  0
  191.6720  174.9720  136.0070 C   0  0  0  0  0  1  0  0  0  0  0  0
  192.6680  177.4980  140.1800 C   0  0  0  0  0  2  0  0  0  0  0  0
  193.9510  177.2400  139.6980 O   0  0  0  0  0  1  0  0  0  0  0  0
  191.2000  176.6490  144.5900 C   0  0  0  0  0  0  0  0  0  0  0  0
  190.2610  177.3110  142.0240 C   0  0  0  0  0  0  0  0  0  0  0  0
  190.2010  175.9870  142.4870 C   0  0  0  0  0  3  0  0  0  0  0  0
  191.2560  177.9740  144.1450 C   0  0  0  0  0  3  0  0  0  0  0  0
  190.6720  175.6560  143.7600 C   0  0  0  0  0  3  0  0  0  0  0  0
  190.7840  178.3030  142.8720 C   0  0  0  0  0  3  0  0  0  0  0  0
  191.7340  176.2900  145.9320 C   0  0  0  0  0  2  0  0  0  0  0  0
  190.9510  177.0150  147.0090 C   0  0  0  0  0  2  0  0  0  0  0  0
  189.6320  176.5520  147.0250 O   0  0  0  0  0  0  0  0  0  0  0  0
  188.5100  178.1700  148.3310 N   0  0  0  0  0  2  0  0  0  0  0  0
  188.8310  177.6990  146.9790 C   0  0  1  0  0  0  0  0  0  0  0  0
  189.2220  178.7450  146.1560 F   0  0  0  0  0  0  0  0  0  0  0  0
  187.4600  177.5780  147.4800 C   0  0  2  0  0  3  0  0  0  0  0  0
  185.1360  178.1960  146.9070 C   0  0  0  0  0  2  0  0  0  0  0  0
  185.9480  178.2060  145.6310 C   0  0  0  0  0  2  0  0  0  0  0  0
  186.5730  178.6780  146.9270 C   0  0  0  0  0  3  0  0  0  0  0  0
  188.8660  178.7060  140.5580 N   0  0  0  0  0  2  0  0  0  0  0  0
  187.5230  178.1750  140.7450 C   0  0  0  0  0  2  0  0  0  0  0  0
  186.9830  178.6010  142.0990 C   0  0  0  0  0  2  0  0  0  0  0  0
  185.6170  179.2520  141.9540 C   0  0  0  0  0  2  0  0  0  0  0  0
  184.5120  178.2050  141.9660 C   0  0  2  0  0  3  0  0  0  0  0  0
  182.4740  178.8980  141.8620 N   0  0  0  0  0  2  0  0  0  0  0  0
  183.0910  177.2700  140.1580 C   0  0  0  0  0  1  0  0  0  0  0  0
  183.5010  178.5330  140.8940 C   0  0  2  0  0  3  0  0  0  0  0  0
  183.4170  178.6010  142.9310 C   0  0  0  0  0  2  0  0  0  0  0  0
  1 12  1  0  0  0  0
  2  7  1  0  0  0  0
  2  9  1  0  0  0  0
  3  4  2  0  0  0  0
  3  5  1  0  0  0  0
  4  6  1  0  0  0  0
  5  2  2  0  0  0  0
  6  7  2  0  0  0  0
  7  1  1  0  0  0  0
  8  3  1  0  0  0  0
 10  9  1  0  0  0  0
 11 17  1  0  0  0  0
 12 13  2  0  0  0  0
 12 16  1  0  0  0  0
 13 15  1  0  0  0  0
 14 11  1  0  0  0  0
 15 11  2  0  0  0  0
 16 14  2  0  0  0  0
 17 18  1  0  0  0  0
 18 19  1  0  0  0  0
 21 22  1  6  0  0  0
 21 19  1  0  0  0  0
 21 23  1  0  0  0  0
 21 20  1  0  0  0  0
 23 26  1  6  0  0  0
 23 20  1  0  0  0  0
 24 26  1  0  0  0  0
 25 24  1  0  0  0  0
 25 26  1  0  0  0  0
 27  1  1  0  0  0  0
 27 28  1  0  0  0  0
 28 29  1  0  0  0  0
 30 29  1  0  0  0  0
 31 30  1  6  0  0  0
 31 35  1  0  0  0  0
 32 35  1  0  0  0  0
 34 33  1  1  0  0  0
 34 32  1  0  0  0  0
 34 31  1  0  0  0  0
M  END
>  <MODEL>
4

>  <REMARK>
 VINA RESULT:      -7.4      2.985      7.319
  Name = 
  13 active torsions:
  status: ('A' for Active; 'I' for Inactive)
    1  A    between atoms: C_1  and  C_20
    2  A    between atoms: C_3  and  C_8
    3  A    between atoms: C_3  and  C_28
    4  A    between atoms: C_4  and  C_7
    5  A    between atoms: N_5  and  C_11
    6  A    between atoms: N_5  and  N_31
    7  A    between atoms: C_11  and  C_30
    8  A    between atoms: C_15  and  O_17
    9  A    between atoms: O_17  and  C_28
   10  A    between atoms: C_20  and  C_30
   11  A    between atoms: C_21  and  N_31
   12  A    between atoms: C_23  and  C_29
   13  A    between atoms: N_31  and  C_32
                            x       y       z     vdW  Elec       q    Type
                         _______ _______ _______ _____ _____    ______ ____

>  <TORSDO>
F 13

$$$$
=
 OpenBabel11042410283D

 35 39  0  0  1  0  0  0  0  0999 V2000
  189.1930  177.8970  141.1520 N   0  0  0  0  0  0  0  0  0  0  0  0
  189.0230  177.2990  138.7420 C   0  0  0  0  0  0  0  0  0  0  0  0
  190.9980  176.5350  137.5590 C   0  0  0  0  0  0  0  0  0  0  0  0
  191.7540  176.6670  138.7260 C   0  0  0  0  0  3  0  0  0  0  0  0
  189.6390  176.8580  137.5660 C   0  0  0  0  0  3  0  0  0  0  0  0
  191.1480  177.1140  139.9030 C   0  0  0  0  0  3  0  0  0  0  0  0
  189.7820  177.4240  139.9280 C   0  0  0  0  0  0  0  0  0  0  0  0
  191.6420  176.0620  136.3060 C   0  0  0  0  0  1  0  0  0  0  0  0
  187.5860  177.7000  138.6850 C   0  0  0  0  0  2  0  0  0  0  0  0
  187.4320  178.7850  137.8220 O   0  0  0  0  0  1  0  0  0  0  0  0
  190.9620  177.1050  144.9390 C   0  0  0  0  0  0  0  0  0  0  0  0
  189.7870  177.6210  142.4380 C   0  0  0  0  0  0  0  0  0  0  0  0
  190.3200  178.6680  143.2060 C   0  0  0  0  0  3  0  0  0  0  0  0
  190.4450  176.0520  144.1790 C   0  0  0  0  0  3  0  0  0  0  0  0
  190.9000  178.4140  144.4510 C   0  0  0  0  0  3  0  0  0  0  0  0
  189.8650  176.3080  142.9340 C   0  0  0  0  0  3  0  0  0  0  0  0
  191.5490  176.8400  146.2810 C   0  0  0  0  0  2  0  0  0  0  0  0
  190.4420  176.6840  147.3050 C   0  0  0  0  0  2  0  0  0  0  0  0
  190.0600  177.9420  147.7810 O   0  0  0  0  0  0  0  0  0  0  0  0
  188.1650  176.5440  147.5960 N   0  0  0  0  0  2  0  0  0  0  0  0
  188.6750  177.8650  147.9760 C   0  0  1  0  0  0  0  0  0  0  0  0
  188.1560  178.2810  149.1930 F   0  0  0  0  0  0  0  0  0  0  0  0
  187.8380  177.7290  146.7810 C   0  0  2  0  0  3  0  0  0  0  0  0
  185.5560  177.8640  145.8430 C   0  0  0  0  0  2  0  0  0  0  0  0
  186.0340  179.2750  146.1040 C   0  0  0  0  0  2  0  0  0  0  0  0
  186.4100  178.1600  147.0590 C   0  0  0  0  0  3  0  0  0  0  0  0
  188.0800  178.7510  141.0770 N   0  0  0  0  0  2  0  0  0  0  0  0
  187.1000  178.2820  142.0480 C   0  0  0  0  0  2  0  0  0  0  0  0
  185.8430  179.1290  141.9620 C   0  0  0  0  0  2  0  0  0  0  0  0
  184.6010  178.2660  142.1100 C   0  0  0  0  0  2  0  0  0  0  0  0
  183.5530  178.6400  141.0710 C   0  0  2  0  0  3  0  0  0  0  0  0
  183.8370  177.9210  139.0590 N   0  0  0  0  0  2  0  0  0  0  0  0
  181.6880  177.3530  140.0570 C   0  0  0  0  0  1  0  0  0  0  0  0
  183.1910  177.4160  140.2640 C   0  0  2  0  0  3  0  0  0  0  0  0
  184.2150  179.1180  139.7980 C   0  0  0  0  0  2  0  0  0  0  0  0
  1 12  1  0  0  0  0
  2  7  1  0  0  0  0
  3  5  1  0  0  0  0
  3  4  2  0  0  0  0
  4  6  1  0  0  0  0
  5  2  2  0  0  0  0
  6  7  2  0  0  0  0
  7  1  1  0  0  0  0
  8  3  1  0  0  0  0
  9  2  1  0  0  0  0
 10  9  1  0  0  0  0
 11 17  1  0  0  0  0
 12 16  2  0  0  0  0
 12 13  1  0  0  0  0
 13 15  2  0  0  0  0
 14 11  2  0  0  0  0
 15 11  1  0  0  0  0
 16 14  1  0  0  0  0
 17 18  1  0  0  0  0
 18 19  1  0  0  0  0
 19 21  1  0  0  0  0
 20 21  1  0  0  0  0
 21 22  1  1  0  0  0
 23 26  1  1  0  0  0
 23 20  1  0  0  0  0
 23 21  1  0  0  0  0
 24 25  1  0  0  0  0
 24 26  1  0  0  0  0
 25 26  1  0  0  0  0
 27  1  1  0  0  0  0
 27 28  1  0  0  0  0
 29 28  1  0  0  0  0
 29 30  1  0  0  0  0
 31 30  1  1  0  0  0
 32 35  1  0  0  0  0
 32 34  1  0  0  0  0
 34 33  1  6  0  0  0
 34 31  1  0  0  0  0
 35 31  1  0  0  0  0
M  END
>  <MODEL>
5

>  <REMARK>
 VINA RESULT:      -7.4      2.379      6.532
  Name = 
  13 active torsions:
  status: ('A' for Active; 'I' for Inactive)
    1  A    between atoms: C_1  and  C_20
    2  A    between atoms: C_3  and  C_8
    3  A    between atoms: C_3  and  C_28
    4  A    between atoms: C_4  and  C_7
    5  A    between atoms: N_5  and  C_11
    6  A    between atoms: N_5  and  N_31
    7  A    between atoms: C_11  and  C_30
    8  A    between atoms: C_15  and  O_17
    9  A    between atoms: O_17  and  C_28
   10  A    between atoms: C_20  and  C_30
   11  A    between atoms: C_21  and  N_31
   12  A    between atoms: C_23  and  C_29
   13  A    between atoms: N_31  and  C_32
                            x       y       z     vdW  Elec       q    Type
                         _______ _______ _______ _____ _____    ______ ____

>  <TORSDO>
F 13

$$$$
=
 OpenBabel11042410283D

 35 39  0  0  1  0  0  0  0  0999 V2000
  183.0350  178.7050  140.0750 N   0  0  0  0  0  0  0  0  0  0  0  0
  184.2270  177.4930  138.2570 C   0  0  0  0  0  0  0  0  0  0  0  0
  183.6130  175.2020  137.7470 C   0  0  0  0  0  0  0  0  0  0  0  0
  182.6410  175.2340  138.7490 C   0  0  0  0  0  3  0  0  0  0  0  0
  184.4080  176.3250  137.5090 C   0  0  0  0  0  3  0  0  0  0  0  0
  182.4580  176.3940  139.5080 C   0  0  0  0  0  3  0  0  0  0  0  0
  183.2370  177.5330  139.2650 C   0  0  0  0  0  0  0  0  0  0  0  0
  183.8100  173.9690  136.9420 C   0  0  0  0  0  1  0  0  0  0  0  0
  185.1460  178.6430  138.0150 C   0  0  0  0  0  2  0  0  0  0  0  0
  186.1960  178.6120  138.9330 O   0  0  0  0  0  1  0  0  0  0  0  0
  183.9160  178.7080  144.2370 C   0  0  0  0  0  0  0  0  0  0  0  0
  183.3270  178.7120  141.4880 C   0  0  0  0  0  0  0  0  0  0  0  0
  184.6320  178.4590  141.9390 C   0  0  0  0  0  3  0  0  0  0  0  0
  182.6090  178.9500  143.8020 C   0  0  0  0  0  3  0  0  0  0  0  0
  184.9270  178.4610  143.3040 C   0  0  0  0  0  3  0  0  0  0  0  0
  182.3160  178.9480  142.4370 C   0  0  0  0  0  3  0  0  0  0  0  0
  184.2380  178.7440  145.6900 C   0  0  0  0  0  2  0  0  0  0  0  0
  185.6760  179.1840  145.8880 C   0  0  0  0  0  2  0  0  0  0  0  0
  186.2500  178.4590  146.9360 O   0  0  0  0  0  0  0  0  0  0  0  0
  188.0920  177.0240  147.2970 N   0  0  0  0  0  2  0  0  0  0  0  0
  187.1220  177.5480  146.3280 C   0  0  1  0  0  0  0  0  0  0  0  0
  186.5810  176.5340  145.5510 F   0  0  0  0  0  0  0  0  0  0  0  0
  188.5300  177.9370  146.2240 C   0  0  2  0  0  3  0  0  0  0  0  0
  190.4150  177.9530  144.6260 C   0  0  0  0  0  2  0  0  0  0  0  0
  189.1310  177.8950  143.8290 C   0  0  0  0  0  2  0  0  0  0  0  0
  189.2410  177.1470  145.1410 C   0  0  0  0  0  3  0  0  0  0  0  0
  182.6590  179.9020  139.4440 N   0  0  0  0  0  2  0  0  0  0  0  0
  181.3040  179.7250  138.9380 C   0  0  0  0  0  2  0  0  0  0  0  0
  181.1210  180.5290  137.6620 C   0  0  0  0  0  2  0  0  0  0  0  0
  181.3450  182.0100  137.9220 C   0  0  0  0  0  2  0  0  0  0  0  0
  180.4010  182.8580  137.0810 C   0  0  2  0  0  3  0  0  0  0  0  0
  180.0550  184.8910  137.7070 N   0  0  0  0  0  2  0  0  0  0  0  0
  180.8180  184.6430  135.4070 C   0  0  0  0  0  1  0  0  0  0  0  0
  181.0200  184.2150  136.8500 C   0  0  2  0  0  3  0  0  0  0  0  0
  179.4260  183.6030  137.9670 C   0  0  0  0  0  2  0  0  0  0  0  0
  1 12  1  0  0  0  0
  2  7  1  0  0  0  0
  3  4  2  0  0  0  0
  4  6  1  0  0  0  0
  5  3  1  0  0  0  0
  5  2  2  0  0  0  0
  7  6  2  0  0  0  0
  7  1  1  0  0  0  0
  8  3  1  0  0  0  0
  9  2  1  0  0  0  0
  9 10  1  0  0  0  0
 11 17  1  0  0  0  0
 12 13  2  0  0  0  0
 12 16  1  0  0  0  0
 13 15  1  0  0  0  0
 14 11  1  0  0  0  0
 15 11  2  0  0  0  0
 16 14  2  0  0  0  0
 17 18  1  0  0  0  0
 18 19  1  0  0  0  0
 21 22  1  6  0  0  0
 21 19  1  0  0  0  0
 21 20  1  0  0  0  0
 23 26  1  6  0  0  0
 23 21  1  0  0  0  0
 23 20  1  0  0  0  0
 24 26  1  0  0  0  0
 25 24  1  0  0  0  0
 25 26  1  0  0  0  0
 27  1  1  0  0  0  0
 28 27  1  0  0  0  0
 29 30  1  0  0  0  0
 29 28  1  0  0  0  0
 31 30  1  1  0  0  0
 31 35  1  0  0  0  0
 32 35  1  0  0  0  0
 34 33  1  6  0  0  0
 34 31  1  0  0  0  0
 34 32  1  0  0  0  0
M  END
>  <MODEL>
6

>  <REMARK>
 VINA RESULT:      -7.2      2.631      4.786
  Name = 
  13 active torsions:
  status: ('A' for Active; 'I' for Inactive)
    1  A    between atoms: C_1  and  C_20
    2  A    between atoms: C_3  and  C_8
    3  A    between atoms: C_3  and  C_28
    4  A    between atoms: C_4  and  C_7
    5  A    between atoms: N_5  and  C_11
    6  A    between atoms: N_5  and  N_31
    7  A    between atoms: C_11  and  C_30
    8  A    between atoms: C_15  and  O_17
    9  A    between atoms: O_17  and  C_28
   10  A    between atoms: C_20  and  C_30
   11  A    between atoms: C_21  and  N_31
   12  A    between atoms: C_23  and  C_29
   13  A    between atoms: N_31  and  C_32
                            x       y       z     vdW  Elec       q    Type
                         _______ _______ _______ _____ _____    ______ ____

>  <TORSDO>
F 13

$$$$
=
 OpenBabel11042410283D

 35 39  0  0  1  0  0  0  0  0999 V2000
  187.6460  178.3240  141.5930 N   0  0  0  0  0  0  0  0  0  0  0  0
  185.1760  178.6300  141.5420 C   0  0  0  0  0  0  0  0  0  0  0  0
  183.9290  178.6280  143.6230 C   0  0  0  0  0  0  0  0  0  0  0  0
  185.1130  178.4330  144.3380 C   0  0  0  0  0  3  0  0  0  0  0  0
  183.9610  178.7180  142.2290 C   0  0  0  0  0  3  0  0  0  0  0  0
  186.3310  178.3370  143.6590 C   0  0  0  0  0  3  0  0  0  0  0  0
  186.3780  178.4440  142.2630 C   0  0  0  0  0  0  0  0  0  0  0  0
  182.6340  178.7280  144.3440 C   0  0  0  0  0  1  0  0  0  0  0  0
  185.1530  178.6610  140.0500 C   0  0  0  0  0  2  0  0  0  0  0  0
  184.4950  179.8100  139.6110 O   0  0  0  0  0  1  0  0  0  0  0  0
  190.9110  176.2610  143.3770 C   0  0  0  0  0  0  0  0  0  0  0  0
  188.7590  177.6290  142.1930 C   0  0  0  0  0  0  0  0  0  0  0  0
  188.6130  176.3000  142.6190 C   0  0  0  0  0  3  0  0  0  0  0  0
  191.0670  177.5890  142.9680 C   0  0  0  0  0  3  0  0  0  0  0  0
  189.6820  175.6170  143.2030 C   0  0  0  0  0  3  0  0  0  0  0  0
  189.9960  178.2700  142.3830 C   0  0  0  0  0  3  0  0  0  0  0  0
  192.0600  175.5220  143.9680 C   0  0  0  0  0  2  0  0  0  0  0  0
  191.6720  174.9640  145.3230 C   0  0  0  0  0  2  0  0  0  0  0  0
  192.4030  175.6100  146.3250 O   0  0  0  0  0  0  0  0  0  0  0  0
  191.6790  176.9980  148.0950 N   0  0  0  0  0  2  0  0  0  0  0  0
  191.6640  176.7550  146.6480 C   0  0  1  0  0  0  0  0  0  0  0  0
  191.9050  177.9200  145.9350 F   0  0  0  0  0  0  0  0  0  0  0  0
  190.4380  176.5620  147.4270 C   0  0  2  0  0  3  0  0  0  0  0  0
  188.0750  177.2820  147.5090 C   0  0  0  0  0  2  0  0  0  0  0  0
  188.5780  177.5000  146.0990 C   0  0  0  0  0  2  0  0  0  0  0  0
  189.4990  177.7450  147.2760 C   0  0  0  0  0  3  0  0  0  0  0  0
  187.7560  178.7920  140.2730 N   0  0  0  0  0  2  0  0  0  0  0  0
  188.3120  177.7110  139.4700 C   0  0  0  0  0  2  0  0  0  0  0  0
  189.4800  178.2270  138.6480 C   0  0  0  0  0  2  0  0  0  0  0  0
  190.7100  177.3590  138.8560 C   0  0  0  0  0  2  0  0  0  0  0  0
  191.0180  176.5440  137.6070 C   0  0  2  0  0  3  0  0  0  0  0  0
  192.4720  174.9620  137.7770 N   0  0  0  0  0  2  0  0  0  0  0  0
  190.3100  174.2760  136.8880 C   0  0  0  0  0  1  0  0  0  0  0  0
  191.0310  175.0760  137.9590 C   0  0  2  0  0  3  0  0  0  0  0  0
  192.5120  176.3780  137.4370 C   0  0  0  0  0  2  0  0  0  0  0  0
  1 12  1  0  0  0  0
  1  7  1  0  0  0  0
  2  5  2  0  0  0  0
  2  7  1  0  0  0  0
  3  4  2  0  0  0  0
  3  8  1  0  0  0  0
  5  3  1  0  0  0  0
  6  4  1  0  0  0  0
  7  6  2  0  0  0  0
  9  2  1  0  0  0  0
 10  9  1  0  0  0  0
 11 17  1  0  0  0  0
 12 16  2  0  0  0  0
 12 13  1  0  0  0  0
 13 15  2  0  0  0  0
 14 11  2  0  0  0  0
 15 11  1  0  0  0  0
 16 14  1  0  0  0  0
 17 18  1  0  0  0  0
 18 19  1  0  0  0  0
 19 21  1  0  0  0  0
 21 22  1  6  0  0  0
 21 23  1  0  0  0  0
 21 20  1  0  0  0  0
 23 26  1  6  0  0  0
 23 20  1  0  0  0  0
 25 26  1  0  0  0  0
 25 24  1  0  0  0  0
 26 24  1  0  0  0  0
 27  1  1  0  0  0  0
 28 27  1  0  0  0  0
 29 30  1  0  0  0  0
 29 28  1  0  0  0  0
 31 34  1  0  0  0  0
 31 30  1  1  0  0  0
 32 34  1  0  0  0  0
 34 33  1  6  0  0  0
 35 31  1  0  0  0  0
 35 32  1  0  0  0  0
M  END
>  <MODEL>
7

>  <REMARK>
 VINA RESULT:      -7.2      3.220      5.228
  Name = 
  13 active torsions:
  status: ('A' for Active; 'I' for Inactive)
    1  A    between atoms: C_1  and  C_20
    2  A    between atoms: C_3  and  C_8
    3  A    between atoms: C_3  and  C_28
    4  A    between atoms: C_4  and  C_7
    5  A    between atoms: N_5  and  C_11
    6  A    between atoms: N_5  and  N_31
    7  A    between atoms: C_11  and  C_30
    8  A    between atoms: C_15  and  O_17
    9  A    between atoms: O_17  and  C_28
   10  A    between atoms: C_20  and  C_30
   11  A    between atoms: C_21  and  N_31
   12  A    between atoms: C_23  and  C_29
   13  A    between atoms: N_31  and  C_32
                            x       y       z     vdW  Elec       q    Type
                         _______ _______ _______ _____ _____    ______ ____

>  <TORSDO>
F 13

$$$$
=
 OpenBabel11042410283D

 35 39  0  0  1  0  0  0  0  0999 V2000
  183.6690  178.8080  140.8830 N   0  0  0  0  0  0  0  0  0  0  0  0
  181.3440  178.6040  140.0190 C   0  0  0  0  0  0  0  0  0  0  0  0
  180.5670  176.4660  139.1750 C   0  0  0  0  0  0  0  0  0  0  0  0
  181.8110  175.8970  139.4590 C   0  0  0  0  0  3  0  0  0  0  0  0
  180.3390  177.8170  139.4460 C   0  0  0  0  0  3  0  0  0  0  0  0
  182.8230  176.6770  140.0230 C   0  0  0  0  0  3  0  0  0  0  0  0
  182.6000  178.0290  140.3170 C   0  0  0  0  0  0  0  0  0  0  0  0
  179.4910  175.6380  138.5720 C   0  0  0  0  0  1  0  0  0  0  0  0
  181.0780  180.0570  140.2260 C   0  0  0  0  0  2  0  0  0  0  0  0
  180.3060  180.2380  141.3740 O   0  0  0  0  0  1  0  0  0  0  0  0
  184.7330  178.5070  144.9910 C   0  0  0  0  0  0  0  0  0  0  0  0
  184.0360  178.6980  142.2740 C   0  0  0  0  0  0  0  0  0  0  0  0
  183.1000  179.0030  143.2750 C   0  0  0  0  0  3  0  0  0  0  0  0
  185.6780  178.2120  144.0040 C   0  0  0  0  0  3  0  0  0  0  0  0
  183.4430  178.9040  144.6250 C   0  0  0  0  0  3  0  0  0  0  0  0
  185.3330  178.3110  142.6540 C   0  0  0  0  0  3  0  0  0  0  0  0
  185.0880  178.3680  146.4300 C   0  0  0  0  0  2  0  0  0  0  0  0
  186.5690  178.6280  146.6230 C   0  0  0  0  0  2  0  0  0  0  0  0
  187.1520  177.5540  147.3010 O   0  0  0  0  0  0  0  0  0  0  0  0
  189.0140  178.2500  146.0230 N   0  0  0  0  0  2  0  0  0  0  0  0
  188.5230  177.8350  147.3420 C   0  0  1  0  0  0  0  0  0  0  0  0
  188.9970  178.6680  148.3460 F   0  0  0  0  0  0  0  0  0  0  0  0
  189.4110  176.9470  146.5880 C   0  0  2  0  0  3  0  0  0  0  0  0
  191.7660  176.3780  146.0980 C   0  0  0  0  0  2  0  0  0  0  0  0
  191.3570  175.6270  147.3460 C   0  0  0  0  0  2  0  0  0  0  0  0
  190.8370  177.0290  147.1020 C   0  0  0  0  0  3  0  0  0  0  0  0
  184.4490  179.6020  140.0260 N   0  0  0  0  0  2  0  0  0  0  0  0
  184.6000  178.8770  138.7710 C   0  0  0  0  0  2  0  0  0  0  0  0
  185.9830  178.2560  138.6980 C   0  0  0  0  0  2  0  0  0  0  0  0
  186.1480  177.4580  137.4150 C   0  0  0  0  0  2  0  0  0  0  0  0
  184.9390  176.5650  137.1720 C   0  0  2  0  0  3  0  0  0  0  0  0
  184.9850  175.2640  135.4540 N   0  0  0  0  0  2  0  0  0  0  0  0
  184.5530  174.1460  137.5750 C   0  0  0  0  0  1  0  0  0  0  0  0
  185.4070  175.1680  136.8450 C   0  0  2  0  0  3  0  0  0  0  0  0
  184.5230  176.6200  135.7180 C   0  0  0  0  0  2  0  0  0  0  0  0
  1 12  1  0  0  0  0
  2  9  1  0  0  0  0
  2  7  1  0  0  0  0
  3  5  1  0  0  0  0
  3  4  2  0  0  0  0
  4  6  1  0  0  0  0
  5  2  2  0  0  0  0
  6  7  2  0  0  0  0
  7  1  1  0  0  0  0
  8  3  1  0  0  0  0
  9 10  1  0  0  0  0
 11 17  1  0  0  0  0
 12 16  2  0  0  0  0
 12 13  1  0  0  0  0
 13 15  2  0  0  0  0
 14 11  2  0  0  0  0
 15 11  1  0  0  0  0
 16 14  1  0  0  0  0
 17 18  1  0  0  0  0
 18 19  1  0  0  0  0
 19 21  1  0  0  0  0
 20 23  1  0  0  0  0
 20 21  1  0  0  0  0
 21 22  1  1  0  0  0
 23 26  1  1  0  0  0
 23 21  1  0  0  0  0
 24 26  1  0  0  0  0
 24 25  1  0  0  0  0
 26 25  1  0  0  0  0
 27  1  1  0  0  0  0
 28 27  1  0  0  0  0
 29 28  1  0  0  0  0
 30 29  1  0  0  0  0
 31 30  1  6  0  0  0
 32 35  1  0  0  0  0
 32 34  1  0  0  0  0
 34 31  1  0  0  0  0
 34 33  1  1  0  0  0
 35 31  1  0  0  0  0
M  END
>  <MODEL>
8

>  <REMARK>
 VINA RESULT:      -7.2      1.871      2.394
  Name = 
  13 active torsions:
  status: ('A' for Active; 'I' for Inactive)
    1  A    between atoms: C_1  and  C_20
    2  A    between atoms: C_3  and  C_8
    3  A    between atoms: C_3  and  C_28
    4  A    between atoms: C_4  and  C_7
    5  A    between atoms: N_5  and  C_11
    6  A    between atoms: N_5  and  N_31
    7  A    between atoms: C_11  and  C_30
    8  A    between atoms: C_15  and  O_17
    9  A    between atoms: O_17  and  C_28
   10  A    between atoms: C_20  and  C_30
   11  A    between atoms: C_21  and  N_31
   12  A    between atoms: C_23  and  C_29
   13  A    between atoms: N_31  and  C_32
                            x       y       z     vdW  Elec       q    Type
                         _______ _______ _______ _____ _____    ______ ____

>  <TORSDO>
F 13

$$$$
=
 OpenBabel11042410283D

 35 39  0  0  1  0  0  0  0  0999 V2000
  187.5700  178.3170  141.5160 N   0  0  0  0  0  0  0  0  0  0  0  0
  185.0990  178.6170  141.5050 C   0  0  0  0  0  0  0  0  0  0  0  0
  183.8880  178.6250  143.6070 C   0  0  0  0  0  0  0  0  0  0  0  0
  185.0850  178.4380  144.3020 C   0  0  0  0  0  3  0  0  0  0  0  0
  183.8960  178.7070  142.2130 C   0  0  0  0  0  3  0  0  0  0  0  0
  186.2910  178.3400  143.6030 C   0  0  0  0  0  3  0  0  0  0  0  0
  186.3130  178.4380  142.2060 C   0  0  0  0  0  0  0  0  0  0  0  0
  182.6050  178.7270  144.3500 C   0  0  0  0  0  1  0  0  0  0  0  0
  185.0500  178.6390  140.0140 C   0  0  0  0  0  2  0  0  0  0  0  0
  184.5260  179.8550  139.5750 O   0  0  0  0  0  1  0  0  0  0  0  0
  190.8880  176.3200  143.2780 C   0  0  0  0  0  0  0  0  0  0  0  0
  188.7010  177.6450  142.1080 C   0  0  0  0  0  0  0  0  0  0  0  0
  188.5850  176.3120  142.5310 C   0  0  0  0  0  3  0  0  0  0  0  0
  191.0130  177.6520  142.8710 C   0  0  0  0  0  3  0  0  0  0  0  0
  189.6720  175.6510  143.1080 C   0  0  0  0  0  3  0  0  0  0  0  0
  189.9250  178.3110  142.2930 C   0  0  0  0  0  3  0  0  0  0  0  0
  192.0550  175.6040  143.8600 C   0  0  0  0  0  2  0  0  0  0  0  0
  191.6720  174.9940  145.1940 C   0  0  0  0  0  2  0  0  0  0  0  0
  192.3900  175.6150  146.2200 O   0  0  0  0  0  0  0  0  0  0  0  0
  191.6820  176.9890  148.0070 N   0  0  0  0  0  2  0  0  0  0  0  0
  191.6500  176.7550  146.5600 C   0  0  1  0  0  0  0  0  0  0  0  0
  191.8760  177.9250  145.8490 F   0  0  0  0  0  0  0  0  0  0  0  0
  190.4350  176.5510  147.3520 C   0  0  2  0  0  3  0  0  0  0  0  0
  188.0660  177.2510  147.4320 C   0  0  0  0  0  2  0  0  0  0  0  0
  188.5780  177.5030  146.0310 C   0  0  0  0  0  2  0  0  0  0  0  0
  189.4880  177.7290  147.2200 C   0  0  0  0  0  3  0  0  0  0  0  0
  187.6520  178.7600  140.1850 N   0  0  0  0  0  2  0  0  0  0  0  0
  188.5320  177.8440  139.4710 C   0  0  0  0  0  2  0  0  0  0  0  0
  189.1790  178.5600  138.2980 C   0  0  0  0  0  2  0  0  0  0  0  0
  188.9520  177.7920  137.0070 C   0  0  0  0  0  2  0  0  0  0  0  0
  187.4960  177.8810  136.5710 C   0  0  2  0  0  3  0  0  0  0  0  0
  186.8300  176.5350  135.0240 N   0  0  0  0  0  2  0  0  0  0  0  0
  185.5210  176.4650  137.0770 C   0  0  0  0  0  1  0  0  0  0  0  0
  186.9160  176.4910  136.4780 C   0  0  2  0  0  3  0  0  0  0  0  0
  187.3940  177.8780  135.0610 C   0  0  0  0  0  2  0  0  0  0  0  0
  1 12  1  0  0  0  0
  1  7  1  0  0  0  0
  2  7  2  0  0  0  0
  2  5  1  0  0  0  0
  3  4  1  0  0  0  0
  3  8  1  0  0  0  0
  5  3  2  0  0  0  0
  6  4  2  0  0  0  0
  7  6  1  0  0  0  0
  9  2  1  0  0  0  0
 10  9  1  0  0  0  0
 11 17  1  0  0  0  0
 12 16  2  0  0  0  0
 12 13  1  0  0  0  0
 13 15  2  0  0  0  0
 14 11  2  0  0  0  0
 15 11  1  0  0  0  0
 16 14  1  0  0  0  0
 17 18  1  0  0  0  0
 18 19  1  0  0  0  0
 19 21  1  0  0  0  0
 21 22  1  6  0  0  0
 21 23  1  0  0  0  0
 21 20  1  0  0  0  0
 23 26  1  6  0  0  0
 23 20  1  0  0  0  0
 25 26  1  0  0  0  0
 25 24  1  0  0  0  0
 26 24  1  0  0  0  0
 27  1  1  0  0  0  0
 28 27  1  0  0  0  0
 29 28  1  0  0  0  0
 30 29  1  0  0  0  0
 31 30  1  6  0  0  0
 32 35  1  0  0  0  0
 32 34  1  0  0  0  0
 34 31  1  0  0  0  0
 34 33  1  1  0  0  0
 35 31  1  0  0  0  0
M  END
>  <MODEL>
9

>  <REMARK>
 VINA RESULT:      -7.1      3.117      5.069
  Name = 
  13 active torsions:
  status: ('A' for Active; 'I' for Inactive)
    1  A    between atoms: C_1  and  C_20
    2  A    between atoms: C_3  and  C_8
    3  A    between atoms: C_3  and  C_28
    4  A    between atoms: C_4  and  C_7
    5  A    between atoms: N_5  and  C_11
    6  A    between atoms: N_5  and  N_31
    7  A    between atoms: C_11  and  C_30
    8  A    between atoms: C_15  and  O_17
    9  A    between atoms: O_17  and  C_28
   10  A    between atoms: C_20  and  C_30
   11  A    between atoms: C_21  and  N_31
   12  A    between atoms: C_23  and  C_29
   13  A    between atoms: N_31  and  C_32
                            x       y       z     vdW  Elec       q    Type
                         _______ _______ _______ _____ _____    ______ ____

>  <TORSDO>
F 13

$$$$
