=
 OpenBabel11032419333D

 31 35  0  0  1  0  0  0  0  0999 V2000
  184.4220  178.1320  142.3370 C   0  0  1  0  0  3  0  0  0  0  0  0
  184.4630  177.4930  138.8500 C   0  0  2  0  0  3  0  0  0  0  0  0
  185.7780  178.5200  141.9230 C   0  0  2  0  0  0  0  0  0  0  0  0
  182.4500  179.2330  141.2290 C   0  0  0  0  0  2  0  0  0  0  0  0
  179.3770  180.6360  142.2440 N   0  0  0  0  0  0  0  0  0  0  0  0
  180.9820  175.8770  139.0310 C   0  0  2  0  0  3  0  0  0  0  0  0
  181.9190  177.8810  137.8830 C   0  0  0  0  0  0  0  0  0  0  0  0
  181.2470  179.0220  143.4430 C   0  0  0  0  0  2  0  0  0  0  0  0
  184.4450  178.5900  139.9010 C   0  0  2  0  0  3  0  0  0  0  0  0
  184.9610  179.4070  142.6370 O   0  0  0  0  0  0  0  0  0  0  0  0
  179.9360  176.3580  140.0340 C   0  0  0  0  0  2  0  0  0  0  0  0
  180.9460  176.7510  137.7660 C   0  0  1  0  0  3  0  0  0  0  0  0
  185.8500  178.7980  140.4420 C   0  0  0  0  0  2  0  0  0  0  0  0
  181.0280  180.3230  138.1050 C   0  0  0  0  0  3  0  0  0  0  0  0
  180.2980  179.7670  142.4940 C   0  0  0  0  0  0  0  0  0  0  0  0
  180.6840  177.4830  141.7020 O   0  0  0  0  0  0  0  0  0  0  0  0
  184.6410  178.0340  137.6850 O   0  0  0  0  0  0  0  0  0  0  0  0
  181.4790  179.1060  137.9800 C   0  0  0  0  0  0  0  0  0  0  0  0
  183.3220  177.6180  137.9320 N   0  0  0  0  0  0  0  0  0  0  0  0
  183.5570  178.1990  141.0790 C   0  0  1  0  0  3  0  0  0  0  0  0
  181.2860  178.7010  142.0540 C   0  0  1  0  0  0  0  0  0  0  0  0
  187.1400  177.8690  142.8560 Cl  0  0  0  0  0  0  0  0  0  0  0  0
  181.2320  175.9700  136.4890 C   0  0  0  0  0  1  0  0  0  0  0  0
  180.2240  177.6490  140.4770 O   0  0  0  0  0  0  0  0  0  0  0  0
  181.9280  181.4540  138.3350 C   0  0  0  0  0  0  0  0  0  0  0  0
  181.4950  182.7610  138.1390 O   0  0  0  0  0  0  0  0  0  0  0  0
  183.1050  181.2410  138.7210 O   0  0  0  0  0  1  0  0  0  0  0  0
  178.9310  182.1000  140.3730 C   0  0  0  0  0  1  0  0  0  0  0  0
  178.9330  180.8100  140.9560 O   0  0  0  0  0  0  0  0  0  0  0  0
  180.7250  174.5340  138.7360 O   0  0  0  0  0  0  0  0  0  0  0  0
  179.6760  174.1730  139.5840 C   0  0  0  0  0  1  0  0  0  0  0  0
  1 10  1  1  0  0  0
  2 17  1  6  0  0  0
  2  9  1  0  0  0  0
  3  1  1  0  0  0  0
  3 10  1  0  0  0  0
  3 22  1  1  0  0  0
  5 15  2  0  0  0  0
  6 30  1  6  0  0  0
  6 11  1  0  0  0  0
  7 19  1  0  0  0  0
  7 18  2  0  0  0  0
  9 13  1  1  0  0  0
  9 20  1  0  0  0  0
 11 24  1  0  0  0  0
 12 23  1  6  0  0  0
 12  7  1  0  0  0  0
 12  6  1  0  0  0  0
 13  3  1  0  0  0  0
 14 25  1  0  0  0  0
 15  8  1  0  0  0  0
 16 21  1  0  0  0  0
 17 19  1  0  0  0  0
 18 14  2  0  0  0  0
 19  2  1  0  0  0  0
 20  4  1  1  0  0  0
 20  1  1  0  0  0  0
 21  4  1  6  0  0  0
 21 15  1  0  0  0  0
 21  8  1  0  0  0  0
 24 16  1  0  0  0  0
 25 27  1  0  0  0  0
 26 25  2  0  0  0  0
 28 29  1  0  0  0  0
 29  5  1  0  0  0  0
 30 31  1  0  0  0  0
M  END
>  <MODEL>
1

>  <REMARK>
 VINA RESULT:      -5.8      0.000      0.000
  Name = 
  3 active torsions:
  status: ('A' for Active; 'I' for Inactive)
    1  A    between atoms: N_5  and  O_22
    2  A    between atoms: C_6  and  O_19
    3  A    between atoms: C_8  and  C_17
                            x       y       z     vdW  Elec       q    Type
                         _______ _______ _______ _____ _____    ______ ____

>  <TORSDO>
F 3

$$$$
=
 OpenBabel11032419333D

 31 35  0  0  1  0  0  0  0  0999 V2000
  184.8130  178.1150  140.6130 C   0  0  1  0  0  3  0  0  0  0  0  0
  183.6330  177.1810  137.4020 C   0  0  2  0  0  3  0  0  0  0  0  0
  185.9170  178.4770  139.7110 C   0  0  2  0  0  0  0  0  0  0  0  0
  182.5360  179.1020  140.2030 C   0  0  0  0  0  2  0  0  0  0  0  0
  179.9750  180.5640  142.1400 N   0  0  0  0  0  0  0  0  0  0  0  0
  180.5090  175.5600  138.9430 C   0  0  2  0  0  3  0  0  0  0  0  0
  180.8990  177.4660  137.3850 C   0  0  0  0  0  0  0  0  0  0  0  0
  182.2100  179.0730  142.7100 C   0  0  0  0  0  2  0  0  0  0  0  0
  183.9490  178.3640  138.3030 C   0  0  2  0  0  3  0  0  0  0  0  0
  185.3750  179.4160  140.6000 O   0  0  0  0  0  0  0  0  0  0  0  0
  179.8710  176.1170  140.2130 C   0  0  0  0  0  2  0  0  0  0  0  0
  179.9910  176.3230  137.7110 C   0  0  1  0  0  3  0  0  0  0  0  0
  185.4460  178.6280  138.2860 C   0  0  0  0  0  2  0  0  0  0  0  0
  180.0530  179.9110  137.7220 C   0  0  0  0  0  3  0  0  0  0  0  0
  180.9570  179.7270  142.1100 C   0  0  0  0  0  0  0  0  0  0  0  0
  181.1210  177.3860  141.4110 O   0  0  0  0  0  0  0  0  0  0  0  0
  183.3630  177.6220  136.2130 O   0  0  0  0  0  0  0  0  0  0  0  0
  180.4760  178.6910  137.5380 C   0  0  0  0  0  0  0  0  0  0  0  0
  182.2360  177.2190  136.9480 N   0  0  0  0  0  0  0  0  0  0  0  0
  183.5540  178.0680  139.7460 C   0  0  1  0  0  3  0  0  0  0  0  0
  181.7630  178.6340  141.4290 C   0  0  1  0  0  0  0  0  0  0  0  0
  187.5450  177.9180  140.1420 Cl  0  0  0  0  0  0  0  0  0  0  0  0
  179.8330  175.4380  136.4810 C   0  0  0  0  0  1  0  0  0  0  0  0
  180.2490  177.4430  140.4230 O   0  0  0  0  0  0  0  0  0  0  0  0
  180.9330  181.0640  137.5260 C   0  0  0  0  0  0  0  0  0  0  0  0
  181.7690  181.5050  138.5460 O   0  0  0  0  0  1  0  0  0  0  0  0
  180.9380  181.6590  136.4180 O   0  0  0  0  0  0  0  0  0  0  0  0
  178.9320  181.8310  140.3660 C   0  0  0  0  0  1  0  0  0  0  0  0
  179.0950  180.6240  141.0870 O   0  0  0  0  0  0  0  0  0  0  0  0
  180.2130  174.1950  138.8640 O   0  0  0  0  0  0  0  0  0  0  0  0
  179.2380  173.9800  139.8400 C   0  0  0  0  0  1  0  0  0  0  0  0
  1 10  1  1  0  0  0
  2 17  1  6  0  0  0
  2  9  1  0  0  0  0
  3 22  1  1  0  0  0
  3 10  1  0  0  0  0
  3  1  1  0  0  0  0
  6 30  1  6  0  0  0
  6 11  1  0  0  0  0
  7 18  2  0  0  0  0
  7 12  1  0  0  0  0
  9 13  1  1  0  0  0
  9 20  1  0  0  0  0
 11 24  1  0  0  0  0
 12 23  1  6  0  0  0
 12  6  1  0  0  0  0
 13  3  1  0  0  0  0
 15  5  2  0  0  0  0
 15  8  1  0  0  0  0
 16 21  1  0  0  0  0
 17 19  1  0  0  0  0
 18 14  2  0  0  0  0
 19  7  1  0  0  0  0
 19  2  1  0  0  0  0
 20  4  1  1  0  0  0
 20  1  1  0  0  0  0
 21  4  1  6  0  0  0
 21 15  1  0  0  0  0
 21  8  1  0  0  0  0
 24 16  1  0  0  0  0
 25 14  1  0  0  0  0
 25 26  1  0  0  0  0
 27 25  2  0  0  0  0
 28 29  1  0  0  0  0
 29  5  1  0  0  0  0
 30 31  1  0  0  0  0
M  END
>  <MODEL>
2

>  <REMARK>
 VINA RESULT:      -4.6      1.231      1.453
  Name = 
  3 active torsions:
  status: ('A' for Active; 'I' for Inactive)
    1  A    between atoms: N_5  and  O_22
    2  A    between atoms: C_6  and  O_19
    3  A    between atoms: C_8  and  C_17
                            x       y       z     vdW  Elec       q    Type
                         _______ _______ _______ _____ _____    ______ ____

>  <TORSDO>
F 3

$$$$
=
 OpenBabel11032419333D

 31 35  0  0  1  0  0  0  0  0999 V2000
  184.4660  179.1750  142.7710 C   0  0  1  0  0  3  0  0  0  0  0  0
  180.9620  179.5370  142.3670 C   0  0  2  0  0  3  0  0  0  0  0  0
  183.9090  178.6520  144.0260 C   0  0  2  0  0  0  0  0  0  0  0  0
  183.7320  178.1490  140.5950 C   0  0  0  0  0  2  0  0  0  0  0  0
  185.2680  177.0720  137.6070 N   0  0  0  0  0  0  0  0  0  0  0  0
  181.4650  181.4280  139.0600 C   0  0  2  0  0  3  0  0  0  0  0  0
  180.3820  179.2730  139.6920 C   0  0  0  0  0  0  0  0  0  0  0  0
  186.0600  178.6230  139.7300 C   0  0  0  0  0  2  0  0  0  0  0  0
  182.0990  178.5290  142.4230 C   0  0  2  0  0  3  0  0  0  0  0  0
  184.8010  177.8890  143.2600 O   0  0  0  0  0  0  0  0  0  0  0  0
  182.6360  181.1090  138.1350 C   0  0  0  0  0  2  0  0  0  0  0  0
  180.2970  180.4630  138.7900 C   0  0  1  0  0  3  0  0  0  0  0  0
  182.4620  178.2550  143.8720 C   0  0  0  0  0  2  0  0  0  0  0  0
  180.9340  176.9330  138.6800 C   0  0  0  0  0  3  0  0  0  0  0  0
  185.3150  177.8830  138.6090 C   0  0  0  0  0  0  0  0  0  0  0  0
  184.2820  180.0620  139.0320 O   0  0  0  0  0  0  0  0  0  0  0  0
  179.8360  178.8950  142.3440 O   0  0  0  0  0  0  0  0  0  0  0  0
  180.6440  178.0980  139.1890 C   0  0  0  0  0  0  0  0  0  0  0  0
  180.2200  179.4300  141.1030 N   0  0  0  0  0  0  0  0  0  0  0  0
  183.3450  179.0780  141.7360 C   0  0  1  0  0  3  0  0  0  0  0  0
  184.6550  178.8320  139.5950 C   0  0  1  0  0  0  0  0  0  0  0  0
  184.5910  179.2650  145.5460 Cl  0  0  0  0  0  0  0  0  0  0  0  0
  178.9310  181.1190  138.9460 C   0  0  0  0  0  1  0  0  0  0  0  0
  183.1490  179.8380  138.3960 O   0  0  0  0  0  0  0  0  0  0  0  0
  181.1390  175.7570  139.5260 C   0  0  0  0  0  0  0  0  0  0  0  0
  180.0880  175.2110  140.2560 O   0  0  0  0  0  1  0  0  0  0  0  0
  182.2780  175.2280  139.5880 O   0  0  0  0  0  0  0  0  0  0  0  0
  183.8530  175.6070  136.3040 C   0  0  0  0  0  1  0  0  0  0  0  0
  184.0710  176.8340  136.9760 O   0  0  0  0  0  0  0  0  0  0  0  0
  181.0900  182.7590  138.8540 O   0  0  0  0  0  0  0  0  0  0  0  0
  181.5450  183.0670  137.5700 C   0  0  0  0  0  1  0  0  0  0  0  0
  1 10  1  6  0  0  0
  1  3  1  0  0  0  0
  2 17  1  1  0  0  0
  2  9  1  0  0  0  0
  3 22  1  1  0  0  0
  5 15  2  0  0  0  0
  6 30  1  6  0  0  0
  7 19  1  0  0  0  0
  9 13  1  1  0  0  0
 10  3  1  0  0  0  0
 11 24  1  0  0  0  0
 11  6  1  0  0  0  0
 12 23  1  1  0  0  0
 12  6  1  0  0  0  0
 12  7  1  0  0  0  0
 13  3  1  0  0  0  0
 14 18  2  0  0  0  0
 14 25  1  0  0  0  0
 15 21  1  0  0  0  0
 15  8  1  0  0  0  0
 16 21  1  0  0  0  0
 18  7  2  0  0  0  0
 19 17  1  0  0  0  0
 19  2  1  0  0  0  0
 20  4  1  6  0  0  0
 20  9  1  0  0  0  0
 20  1  1  0  0  0  0
 21  8  1  1  0  0  0
 21  4  1  0  0  0  0
 24 16  1  0  0  0  0
 25 27  2  0  0  0  0
 25 26  1  0  0  0  0
 28 29  1  0  0  0  0
 29  5  1  0  0  0  0
 31 30  1  0  0  0  0
M  END
>  <MODEL>
3

>  <REMARK>
 VINA RESULT:      -4.3      1.637      5.529
  Name = 
  3 active torsions:
  status: ('A' for Active; 'I' for Inactive)
    1  A    between atoms: N_5  and  O_22
    2  A    between atoms: C_6  and  O_19
    3  A    between atoms: C_8  and  C_17
                            x       y       z     vdW  Elec       q    Type
                         _______ _______ _______ _____ _____    ______ ____

>  <TORSDO>
F 3

$$$$
=
 OpenBabel11032419333D

 31 35  0  0  1  0  0  0  0  0999 V2000
  180.6630  176.1840  140.4230 C   0  0  1  0  0  3  0  0  0  0  0  0
  179.4850  176.5110  137.0940 C   0  0  2  0  0  3  0  0  0  0  0  0
  180.0770  174.8700  140.1240 C   0  0  2  0  0  0  0  0  0  0  0  0
  182.4920  177.0650  138.9370 C   0  0  0  0  0  2  0  0  0  0  0  0
  185.6140  178.6530  139.3580 N   0  0  0  0  0  0  0  0  0  0  0  0
  180.3420  180.2560  137.0820 C   0  0  2  0  0  3  0  0  0  0  0  0
  181.1270  178.2810  135.7800 C   0  0  0  0  0  0  0  0  0  0  0  0
  183.4630  178.1660  140.9950 C   0  0  0  0  0  2  0  0  0  0  0  0
  180.5490  175.8650  137.9670 C   0  0  2  0  0  3  0  0  0  0  0  0
  181.3910  174.9810  140.5990 O   0  0  0  0  0  0  0  0  0  0  0  0
  181.5300  180.8000  137.8700 C   0  0  0  0  0  2  0  0  0  0  0  0
  180.8070  179.7400  135.7100 C   0  0  1  0  0  3  0  0  0  0  0  0
  179.9720  174.6300  138.6390 C   0  0  0  0  0  2  0  0  0  0  0  0
  183.6050  177.5000  135.5390 C   0  0  0  0  0  3  0  0  0  0  0  0
  184.4330  178.4550  139.8410 C   0  0  0  0  0  0  0  0  0  0  0  0
  182.2730  179.5360  139.4380 O   0  0  0  0  0  0  0  0  0  0  0  0
  179.5810  176.0300  135.8950 O   0  0  0  0  0  0  0  0  0  0  0  0
  182.3630  177.8840  135.6460 C   0  0  0  0  0  0  0  0  0  0  0  0
  180.0930  177.3310  136.0370 N   0  0  0  0  0  0  0  0  0  0  0  0
  180.9960  176.8180  139.0720 C   0  0  1  0  0  3  0  0  0  0  0  0
  182.9280  178.3200  139.6820 C   0  0  1  0  0  0  0  0  0  0  0  0
  178.9310  174.1960  141.3000 Cl  0  0  0  0  0  0  0  0  0  0  0  0
  179.7870  179.9790  134.6030 C   0  0  0  0  0  1  0  0  0  0  0  0
  182.4470  179.7890  138.1550 O   0  0  0  0  0  0  0  0  0  0  0  0
  183.9910  176.0990  135.7110 C   0  0  0  0  0  0  0  0  0  0  0  0
  185.3230  175.7100  135.6170 O   0  0  0  0  0  0  0  0  0  0  0  0
  183.1080  175.2380  135.9550 O   0  0  0  0  0  1  0  0  0  0  0  0
  186.8480  178.2930  137.3110 C   0  0  0  0  0  1  0  0  0  0  0  0
  185.7720  178.8880  138.0140 O   0  0  0  0  0  0  0  0  0  0  0  0
  179.3940  181.2770  136.9540 O   0  0  0  0  0  0  0  0  0  0  0  0
  180.0600  182.4390  137.3470 C   0  0  0  0  0  1  0  0  0  0  0  0
  1 10  1  1  0  0  0
  2 17  1  6  0  0  0
  2  9  1  0  0  0  0
  3  1  1  0  0  0  0
  3 10  1  0  0  0  0
  3 22  1  1  0  0  0
  5 15  2  0  0  0  0
  6 30  1  6  0  0  0
  6 11  1  0  0  0  0
  7 19  1  0  0  0  0
  9 13  1  1  0  0  0
  9 20  1  0  0  0  0
 11 24  1  0  0  0  0
 12 23  1  6  0  0  0
 12  7  1  0  0  0  0
 12  6  1  0  0  0  0
 13  3  1  0  0  0  0
 14 18  2  0  0  0  0
 14 25  1  0  0  0  0
 15  8  1  0  0  0  0
 16 21  1  0  0  0  0
 17 19  1  0  0  0  0
 18  7  2  0  0  0  0
 19  2  1  0  0  0  0
 20  4  1  1  0  0  0
 20  1  1  0  0  0  0
 21  4  1  6  0  0  0
 21 15  1  0  0  0  0
 21  8  1  0  0  0  0
 24 16  1  0  0  0  0
 25 27  1  0  0  0  0
 26 25  2  0  0  0  0
 28 29  1  0  0  0  0
 29  5  1  0  0  0  0
 30 31  1  0  0  0  0
M  END
>  <MODEL>
4

>  <REMARK>
 VINA RESULT:      -4.0      3.000      5.784
  Name = 
  3 active torsions:
  status: ('A' for Active; 'I' for Inactive)
    1  A    between atoms: N_5  and  O_22
    2  A    between atoms: C_6  and  O_19
    3  A    between atoms: C_8  and  C_17
                            x       y       z     vdW  Elec       q    Type
                         _______ _______ _______ _____ _____    ______ ____

>  <TORSDO>
F 3

$$$$
=
 OpenBabel11032419333D

 31 35  0  0  1  0  0  0  0  0999 V2000
  185.1490  177.3400  138.4310 C   0  0  1  0  0  3  0  0  0  0  0  0
  183.2960  175.9190  135.7630 C   0  0  2  0  0  3  0  0  0  0  0  0
  186.0310  177.4950  137.2660 C   0  0  2  0  0  0  0  0  0  0  0  0
  182.8410  178.3370  138.3480 C   0  0  0  0  0  2  0  0  0  0  0  0
  180.7670  180.2170  140.4970 N   0  0  0  0  0  0  0  0  0  0  0  0
  180.5740  174.7200  138.1960 C   0  0  2  0  0  3  0  0  0  0  0  0
  180.6240  176.3110  136.2780 C   0  0  0  0  0  0  0  0  0  0  0  0
  183.0670  178.7530  140.8320 C   0  0  0  0  0  2  0  0  0  0  0  0
  183.8050  177.2250  136.3520 C   0  0  2  0  0  3  0  0  0  0  0  0
  185.6990  178.5940  138.0690 O   0  0  0  0  0  0  0  0  0  0  0  0
  180.2300  175.5130  139.4540 C   0  0  0  0  0  2  0  0  0  0  0  0
  179.8050  175.2800  136.9880 C   0  0  1  0  0  3  0  0  0  0  0  0
  185.2630  177.4180  135.9700 C   0  0  0  0  0  2  0  0  0  0  0  0
  179.8810  178.8110  136.3500 C   0  0  0  0  0  3  0  0  0  0  0  0
  181.7160  179.3460  140.4060 C   0  0  0  0  0  0  0  0  0  0  0  0
  181.7160  176.9150  140.1140 O   0  0  0  0  0  0  0  0  0  0  0  0
  182.7760  176.1590  134.6000 O   0  0  0  0  0  0  0  0  0  0  0  0
  180.2500  177.5610  136.2990 C   0  0  0  0  0  0  0  0  0  0  0  0
  181.8340  175.9360  135.6180 N   0  0  0  0  0  0  0  0  0  0  0  0
  183.7310  177.1980  137.8750 C   0  0  1  0  0  3  0  0  0  0  0  0
  182.3500  178.1190  139.7740 C   0  0  1  0  0  0  0  0  0  0  0  0
  187.7120  176.9500  137.4310 Cl  0  0  0  0  0  0  0  0  0  0  0  0
  179.3800  174.2040  135.9960 C   0  0  0  0  0  1  0  0  0  0  0  0
  180.6500  176.8380  139.3410 O   0  0  0  0  0  0  0  0  0  0  0  0
  180.7020  179.8750  135.7700 C   0  0  0  0  0  0  0  0  0  0  0  0
  180.9680  181.0390  136.4840 O   0  0  0  0  0  1  0  0  0  0  0  0
  181.1780  179.7320  134.6160 O   0  0  0  0  0  0  0  0  0  0  0  0
  178.9340  181.2920  139.3460 C   0  0  0  0  0  1  0  0  0  0  0  0
  179.6800  180.1310  139.6620 O   0  0  0  0  0  0  0  0  0  0  0  0
  180.2640  173.3750  138.4240 O   0  0  0  0  0  0  0  0  0  0  0  0
  179.3970  173.3860  139.5190 C   0  0  0  0  0  1  0  0  0  0  0  0
  1 10  1  1  0  0  0
  2 17  1  6  0  0  0
  2  9  1  0  0  0  0
  3 22  1  1  0  0  0
  3 10  1  0  0  0  0
  3  1  1  0  0  0  0
  6 30  1  1  0  0  0
  6 11  1  0  0  0  0
  7 18  2  0  0  0  0
  7 12  1  0  0  0  0
  9 13  1  1  0  0  0
  9 20  1  0  0  0  0
 12 23  1  6  0  0  0
 12  6  1  0  0  0  0
 13  3  1  0  0  0  0
 15  5  2  0  0  0  0
 15  8  1  0  0  0  0
 17 19  1  0  0  0  0
 18 14  2  0  0  0  0
 19  2  1  0  0  0  0
 19  7  1  0  0  0  0
 20  4  1  1  0  0  0
 20  1  1  0  0  0  0
 21  4  1  6  0  0  0
 21 16  1  0  0  0  0
 21 15  1  0  0  0  0
 21  8  1  0  0  0  0
 24 11  1  0  0  0  0
 24 16  1  0  0  0  0
 25 14  1  0  0  0  0
 25 26  1  0  0  0  0
 27 25  2  0  0  0  0
 28 29  1  0  0  0  0
 29  5  1  0  0  0  0
 30 31  1  0  0  0  0
M  END
>  <MODEL>
5

>  <REMARK>
 VINA RESULT:      -3.9      2.311      3.136
  Name = 
  3 active torsions:
  status: ('A' for Active; 'I' for Inactive)
    1  A    between atoms: N_5  and  O_22
    2  A    between atoms: C_6  and  O_19
    3  A    between atoms: C_8  and  C_17
                            x       y       z     vdW  Elec       q    Type
                         _______ _______ _______ _____ _____    ______ ____

>  <TORSDO>
F 3

$$$$
=
 OpenBabel11032419333D

 31 35  0  0  1  0  0  0  0  0999 V2000
  183.0010  177.3320  140.9440 C   0  0  1  0  0  3  0  0  0  0  0  0
  185.3210  177.9580  138.3360 C   0  0  2  0  0  3  0  0  0  0  0  0
  183.5750  178.6410  141.2880 C   0  0  2  0  0  0  0  0  0  0  0  0
  181.8910  177.0410  138.7060 C   0  0  0  0  0  2  0  0  0  0  0  0
  178.9310  175.5730  137.4700 N   0  0  0  0  0  0  0  0  0  0  0  0
  184.7560  174.4440  136.8920 C   0  0  2  0  0  3  0  0  0  0  0  0
  184.3760  176.7590  136.0510 C   0  0  0  0  0  0  0  0  0  0  0  0
  180.3100  175.4260  139.8400 C   0  0  0  0  0  2  0  0  0  0  0  0
  183.9760  178.3690  138.9150 C   0  0  2  0  0  3  0  0  0  0  0  0
  182.1870  178.4630  141.1970 O   0  0  0  0  0  0  0  0  0  0  0  0
  183.3980  173.7530  136.9930 C   0  0  0  0  0  2  0  0  0  0  0  0
  184.7890  175.3740  135.6670 C   0  0  1  0  0  3  0  0  0  0  0  0
  184.1950  179.3110  140.0870 C   0  0  0  0  0  2  0  0  0  0  0  0
  182.1110  177.7110  135.1740 C   0  0  0  0  0  3  0  0  0  0  0  0
  179.8430  175.5510  138.3830 C   0  0  0  0  0  0  0  0  0  0  0  0
  182.0630  174.5250  138.4860 O   0  0  0  0  0  0  0  0  0  0  0  0
  185.6360  178.7830  137.3870 O   0  0  0  0  0  0  0  0  0  0  0  0
  183.2500  177.2450  135.6030 C   0  0  0  0  0  0  0  0  0  0  0  0
  185.1880  177.5300  136.9370 N   0  0  0  0  0  0  0  0  0  0  0  0
  183.2180  177.1540  139.4410 C   0  0  1  0  0  3  0  0  0  0  0  0
  181.2920  175.6460  138.8290 C   0  0  1  0  0  0  0  0  0  0  0  0
  184.1750  178.8660  142.9430 Cl  0  0  0  0  0  0  0  0  0  0  0  0
  186.1520  175.4230  134.9880 C   0  0  0  0  0  1  0  0  0  0  0  0
  182.3810  174.6810  137.2160 O   0  0  0  0  0  0  0  0  0  0  0  0
  181.6040  179.0140  135.6060 C   0  0  0  0  0  0  0  0  0  0  0  0
  181.1690  179.9540  134.6770 O   0  0  0  0  0  0  0  0  0  0  0  0
  181.5530  179.2840  136.8330 O   0  0  0  0  0  1  0  0  0  0  0  0
  179.4250  174.6520  135.2900 C   0  0  0  0  0  1  0  0  0  0  0  0
  179.2830  175.7630  136.1560 O   0  0  0  0  0  0  0  0  0  0  0  0
  185.7470  173.4590  136.8160 O   0  0  0  0  0  0  0  0  0  0  0  0
  185.0490  172.2530  136.7180 C   0  0  0  0  0  1  0  0  0  0  0  0
  1 10  1  6  0  0  0
  1  3  1  0  0  0  0
  2 17  1  6  0  0  0
  2  9  1  0  0  0  0
  3 22  1  1  0  0  0
  5 15  2  0  0  0  0
  6 30  1  6  0  0  0
  6 11  1  0  0  0  0
  7 19  1  0  0  0  0
  9 20  1  0  0  0  0
  9 13  1  1  0  0  0
 10  3  1  0  0  0  0
 11 24  1  0  0  0  0
 12 23  1  1  0  0  0
 12  7  1  0  0  0  0
 12  6  1  0  0  0  0
 13  3  1  0  0  0  0
 14 18  2  0  0  0  0
 14 25  1  0  0  0  0
 15 21  1  0  0  0  0
 15  8  1  0  0  0  0
 16 21  1  0  0  0  0
 18  7  2  0  0  0  0
 19 17  1  0  0  0  0
 19  2  1  0  0  0  0
 20  4  1  6  0  0  0
 20  1  1  0  0  0  0
 21  4  1  6  0  0  0
 21  8  1  0  0  0  0
 24 16  1  0  0  0  0
 25 27  1  0  0  0  0
 26 25  2  0  0  0  0
 28 29  1  0  0  0  0
 29  5  1  0  0  0  0
 31 30  1  0  0  0  0
M  END
>  <MODEL>
6

>  <REMARK>
 VINA RESULT:      -3.8      2.801      4.447
  Name = 
  3 active torsions:
  status: ('A' for Active; 'I' for Inactive)
    1  A    between atoms: N_5  and  O_22
    2  A    between atoms: C_6  and  O_19
    3  A    between atoms: C_8  and  C_17
                            x       y       z     vdW  Elec       q    Type
                         _______ _______ _______ _____ _____    ______ ____

>  <TORSDO>
F 3

$$$$
=
 OpenBabel11032419333D

 31 35  0  0  1  0  0  0  0  0999 V2000
  185.4270  177.5020  136.5040 C   0  0  1  0  0  3  0  0  0  0  0  0
  183.7750  179.6590  138.7830 C   0  0  2  0  0  3  0  0  0  0  0  0
  186.3520  177.5880  137.6430 C   0  0  2  0  0  0  0  0  0  0  0  0
  183.0750  176.7060  136.9050 C   0  0  0  0  0  2  0  0  0  0  0  0
  180.8090  174.4840  135.3630 N   0  0  0  0  0  0  0  0  0  0  0  0
  181.0150  180.3820  136.2110 C   0  0  2  0  0  3  0  0  0  0  0  0
  181.0660  179.3200  138.4650 C   0  0  0  0  0  0  0  0  0  0  0  0
  183.1660  175.6700  134.6000 C   0  0  0  0  0  2  0  0  0  0  0  0
  184.1860  178.2180  138.5270 C   0  0  2  0  0  3  0  0  0  0  0  0
  185.9250  176.3460  137.1530 O   0  0  0  0  0  0  0  0  0  0  0  0
  180.5720  179.3240  135.2040 C   0  0  0  0  0  2  0  0  0  0  0  0
  180.2720  180.1910  137.5440 C   0  0  1  0  0  3  0  0  0  0  0  0
  185.6480  178.0340  138.9010 C   0  0  0  0  0  2  0  0  0  0  0  0
  180.1880  176.9330  139.0470 C   0  0  0  0  0  3  0  0  0  0  0  0
  181.8060  175.2880  135.2020 C   0  0  0  0  0  0  0  0  0  0  0  0
  181.9490  177.7100  134.8730 O   0  0  0  0  0  0  0  0  0  0  0  0
  183.2970  179.7490  139.9850 O   0  0  0  0  0  0  0  0  0  0  0  0
  180.6240  178.1310  138.7700 C   0  0  0  0  0  0  0  0  0  0  0  0
  182.3220  179.7700  138.9730 N   0  0  0  0  0  0  0  0  0  0  0  0
  184.0460  177.8680  137.0490 C   0  0  1  0  0  3  0  0  0  0  0  0
  182.5330  176.5910  135.4870 C   0  0  1  0  0  0  0  0  0  0  0  0
  188.0500  177.9660  137.2950 Cl  0  0  0  0  0  0  0  0  0  0  0  0
  179.9500  181.5050  138.2450 C   0  0  0  0  0  1  0  0  0  0  0  0
  180.9250  178.0450  135.6350 O   0  0  0  0  0  0  0  0  0  0  0  0
  180.9750  175.9970  139.8510 C   0  0  0  0  0  0  0  0  0  0  0  0
  182.2830  176.2980  140.2170 O   0  0  0  0  0  0  0  0  0  0  0  0
  180.4600  174.9120  140.2210 O   0  0  0  0  0  1  0  0  0  0  0  0
  179.0600  173.8550  136.9080 C   0  0  0  0  0  1  0  0  0  0  0  0
  179.7660  174.8440  136.1820 O   0  0  0  0  0  0  0  0  0  0  0  0
  180.7670  181.6440  135.6610 O   0  0  0  0  0  0  0  0  0  0  0  0
  179.8710  181.4120  134.6150 C   0  0  0  0  0  1  0  0  0  0  0  0
  1 20  1  0  0  0  0
  1 10  1  1  0  0  0
  1  3  1  0  0  0  0
  2 19  1  0  0  0  0
  2 17  1  1  0  0  0
  3 22  1  6  0  0  0
  3 13  1  0  0  0  0
  5 29  1  0  0  0  0
  6 30  1  6  0  0  0
  6 12  1  0  0  0  0
  7 18  2  0  0  0  0
  7 19  1  0  0  0  0
  8 15  1  0  0  0  0
  9  2  1  0  0  0  0
  9 13  1  6  0  0  0
 10  3  1  0  0  0  0
 11 24  1  0  0  0  0
 11  6  1  0  0  0  0
 12 23  1  1  0  0  0
 12  7  1  0  0  0  0
 14 25  1  0  0  0  0
 15  5  2  0  0  0  0
 15 21  1  0  0  0  0
 16 21  1  0  0  0  0
 16 24  1  0  0  0  0
 18 14  2  0  0  0  0
 19 17  1  0  0  0  0
 20  4  1  1  0  0  0
 20  9  1  0  0  0  0
 21  8  1  6  0  0  0
 21  4  1  0  0  0  0
 25 26  2  0  0  0  0
 25 27  1  0  0  0  0
 29 28  1  0  0  0  0
 31 30  1  0  0  0  0
M  END
>  <MODEL>
7

>  <REMARK>
 VINA RESULT:      -3.7      2.782      5.972
  Name = 
  3 active torsions:
  status: ('A' for Active; 'I' for Inactive)
    1  A    between atoms: N_5  and  O_22
    2  A    between atoms: C_6  and  O_19
    3  A    between atoms: C_8  and  C_17
                            x       y       z     vdW  Elec       q    Type
                         _______ _______ _______ _____ _____    ______ ____

>  <TORSDO>
F 3

$$$$
=
 OpenBabel11032419333D

 31 35  0  0  1  0  0  0  0  0999 V2000
  180.2230  175.3070  138.8640 C   0  0  1  0  0  3  0  0  0  0  0  0
  182.7480  176.9450  140.7380 C   0  0  2  0  0  3  0  0  0  0  0  0
  179.7170  175.2740  140.2440 C   0  0  2  0  0  0  0  0  0  0  0  0
  180.7710  177.5310  137.8240 C   0  0  0  0  0  2  0  0  0  0  0  0
  180.2200  179.1350  134.7300 N   0  0  0  0  0  0  0  0  0  0  0  0
  185.0210  177.1350  137.6460 C   0  0  2  0  0  3  0  0  0  0  0  0
  183.9270  178.8250  139.1150 C   0  0  0  0  0  0  0  0  0  0  0  0
  180.0230  176.5440  135.6190 C   0  0  0  0  0  2  0  0  0  0  0  0
  181.3330  177.0770  140.1970 C   0  0  2  0  0  3  0  0  0  0  0  0
  178.9330  175.7870  139.2010 O   0  0  0  0  0  0  0  0  0  0  0  0
  184.4390  177.2880  136.2430 C   0  0  0  0  0  2  0  0  0  0  0  0
  185.1540  178.5120  138.3180 C   0  0  1  0  0  3  0  0  0  0  0  0
  180.3730  176.3260  141.1030 C   0  0  0  0  0  2  0  0  0  0  0  0
  182.3380  180.7360  138.3230 C   0  0  0  0  0  3  0  0  0  0  0  0
  180.3790  178.0120  135.3470 C   0  0  0  0  0  0  0  0  0  0  0  0
  182.3710  176.7570  136.0210 O   0  0  0  0  0  0  0  0  0  0  0  0
  182.9880  177.9450  141.5260 O   0  0  0  0  0  0  0  0  0  0  0  0
  183.1360  179.7890  138.7310 C   0  0  0  0  0  0  0  0  0  0  0  0
  183.6010  178.0450  140.2660 N   0  0  0  0  0  0  0  0  0  0  0  0
  181.2250  176.4610  138.8060 C   0  0  1  0  0  3  0  0  0  0  0  0
  181.0700  177.1410  136.3820 C   0  0  1  0  0  0  0  0  0  0  0  0
  179.1590  173.7120  140.8760 Cl  0  0  0  0  0  0  0  0  0  0  0  0
  186.3810  178.6240  139.2150 C   0  0  0  0  0  1  0  0  0  0  0  0
  183.1410  177.7940  136.2910 O   0  0  0  0  0  0  0  0  0  0  0  0
  181.0690  181.0120  138.9980 C   0  0  0  0  0  0  0  0  0  0  0  0
  180.7430  180.3750  140.1900 O   0  0  0  0  0  1  0  0  0  0  0  0
  180.2680  181.8420  138.4970 O   0  0  0  0  0  0  0  0  0  0  0  0
  180.5190  181.5270  134.9090 C   0  0  0  0  0  1  0  0  0  0  0  0
  181.0160  180.2080  135.0480 O   0  0  0  0  0  0  0  0  0  0  0  0
  186.2590  176.4920  137.5410 O   0  0  0  0  0  0  0  0  0  0  0  0
  186.2900  175.9780  136.2430 C   0  0  0  0  0  1  0  0  0  0  0  0
  1 10  1  6  0  0  0
  1  3  1  0  0  0  0
  2 17  1  1  0  0  0
  3 22  1  1  0  0  0
  3 13  1  0  0  0  0
  5 29  1  0  0  0  0
  5 15  2  0  0  0  0
  6 30  1  6  0  0  0
  6 12  1  0  0  0  0
  7 19  1  0  0  0  0
  9  2  1  0  0  0  0
  9 13  1  1  0  0  0
 10  3  1  0  0  0  0
 11 24  1  0  0  0  0
 11  6  1  0  0  0  0
 12  7  1  0  0  0  0
 12 23  1  1  0  0  0
 14 18  2  0  0  0  0
 14 25  1  0  0  0  0
 15  8  1  0  0  0  0
 15 21  1  0  0  0  0
 16 24  1  0  0  0  0
 16 21  1  0  0  0  0
 18  7  2  0  0  0  0
 19  2  1  0  0  0  0
 19 17  1  0  0  0  0
 20  4  1  6  0  0  0
 20  1  1  0  0  0  0
 20  9  1  0  0  0  0
 21  8  1  6  0  0  0
 21  4  1  0  0  0  0
 25 26  1  0  0  0  0
 27 25  2  0  0  0  0
 28 29  1  0  0  0  0
 31 30  1  0  0  0  0
M  END
>  <MODEL>
8

>  <REMARK>
 VINA RESULT:      -3.6      2.797      5.502
  Name = 
  3 active torsions:
  status: ('A' for Active; 'I' for Inactive)
    1  A    between atoms: N_5  and  O_22
    2  A    between atoms: C_6  and  O_19
    3  A    between atoms: C_8  and  C_17
                            x       y       z     vdW  Elec       q    Type
                         _______ _______ _______ _____ _____    ______ ____

>  <TORSDO>
F 3

$$$$
=
 OpenBabel11032419333D

 31 35  0  0  1  0  0  0  0  0999 V2000
  184.5820  178.7320  142.0590 C   0  0  1  0  0  3  0  0  0  0  0  0
  181.3750  180.1810  142.4900 C   0  0  2  0  0  3  0  0  0  0  0  0
  184.3100  178.5680  143.4950 C   0  0  2  0  0  0  0  0  0  0  0  0
  182.9610  177.7640  140.3970 C   0  0  0  0  0  2  0  0  0  0  0  0
  183.1430  175.9070  137.4020 N   0  0  0  0  0  0  0  0  0  0  0  0
  181.3610  181.4100  138.8500 C   0  0  2  0  0  3  0  0  0  0  0  0
  179.9590  179.8210  140.1620 C   0  0  0  0  0  0  0  0  0  0  0  0
  184.9490  177.3420  138.8930 C   0  0  0  0  0  2  0  0  0  0  0  0
  182.1400  178.8680  142.4610 C   0  0  2  0  0  3  0  0  0  0  0  0
  184.6720  177.4720  142.7000 O   0  0  0  0  0  0  0  0  0  0  0  0
  182.0540  180.6190  137.7440 C   0  0  0  0  0  2  0  0  0  0  0  0
  179.9440  180.8610  139.0870 C   0  0  1  0  0  3  0  0  0  0  0  0
  182.8350  178.6560  143.7960 C   0  0  0  0  0  2  0  0  0  0  0  0
  179.4890  177.3300  139.5430 C   0  0  0  0  0  3  0  0  0  0  0  0
  183.7210  176.7660  138.1730 C   0  0  0  0  0  0  0  0  0  0  0  0
  183.5270  179.1980  138.3890 O   0  0  0  0  0  0  0  0  0  0  0  0
  180.1620  179.9480  142.8850 O   0  0  0  0  0  0  0  0  0  0  0  0
  179.7110  178.5760  139.8600 C   0  0  0  0  0  0  0  0  0  0  0  0
  180.2850  180.1810  141.5050 N   0  0  0  0  0  0  0  0  0  0  0  0
  183.2200  178.8930  141.3840 C   0  0  1  0  0  3  0  0  0  0  0  0
  183.6900  177.9860  139.0780 C   0  0  1  0  0  0  0  0  0  0  0  0
  185.5670  179.0910  144.6330 Cl  0  0  0  0  0  0  0  0  0  0  0  0
  178.9340  181.9440  139.4470 C   0  0  0  0  0  1  0  0  0  0  0  0
  182.2390  179.2890  138.1200 O   0  0  0  0  0  0  0  0  0  0  0  0
  179.6000  176.2570  140.5310 C   0  0  0  0  0  0  0  0  0  0  0  0
  179.8110  174.9410  140.1340 O   0  0  0  0  0  0  0  0  0  0  0  0
  179.5130  176.5290  141.7560 O   0  0  0  0  0  1  0  0  0  0  0  0
  181.1390  175.0240  136.3800 C   0  0  0  0  0  1  0  0  0  0  0  0
  181.7950  176.0080  137.1580 O   0  0  0  0  0  0  0  0  0  0  0  0
  181.3340  182.7580  138.4780 O   0  0  0  0  0  0  0  0  0  0  0  0
  181.0420  182.7490  137.1130 C   0  0  0  0  0  1  0  0  0  0  0  0
  1 10  1  6  0  0  0
  1  3  1  0  0  0  0
  2 17  1  1  0  0  0
  3 13  1  0  0  0  0
  3 22  1  1  0  0  0
  5 15  2  0  0  0  0
  6 30  1  6  0  0  0
  6 12  1  0  0  0  0
  7 19  1  0  0  0  0
  9  2  1  0  0  0  0
  9 13  1  1  0  0  0
 10  3  1  0  0  0  0
 11 24  1  0  0  0  0
 11  6  1  0  0  0  0
 12 23  1  1  0  0  0
 12  7  1  0  0  0  0
 14 18  2  0  0  0  0
 14 25  1  0  0  0  0
 15  8  1  0  0  0  0
 15 21  1  0  0  0  0
 16 21  1  0  0  0  0
 18  7  2  0  0  0  0
 19  2  1  0  0  0  0
 19 17  1  0  0  0  0
 20  4  1  6  0  0  0
 20  1  1  0  0  0  0
 20  9  1  0  0  0  0
 21  8  1  1  0  0  0
 21  4  1  0  0  0  0
 24 16  1  0  0  0  0
 25 27  1  0  0  0  0
 26 25  2  0  0  0  0
 28 29  1  0  0  0  0
 29  5  1  0  0  0  0
 31 30  1  0  0  0  0
M  END
>  <MODEL>
9

>  <REMARK>
 VINA RESULT:      -3.5      1.580      5.461
  Name = 
  3 active torsions:
  status: ('A' for Active; 'I' for Inactive)
    1  A    between atoms: N_5  and  O_22
    2  A    between atoms: C_6  and  O_19
    3  A    between atoms: C_8  and  C_17
                            x       y       z     vdW  Elec       q    Type
                         _______ _______ _______ _____ _____    ______ ____

>  <TORSDO>
F 3

$$$$
