=
 OpenBabel11032421073D

 54 62  0  0  1  0  0  0  0  0999 V2000
  187.7540  177.4360  148.5350 N   0  0  0  0  0  1  0  0  0  0  0  0
  186.7720  178.0670  146.2330 C   0  0  0  0  0  3  0  0  0  0  0  0
  189.0090  177.6160  142.6030 C   0  0  0  0  0  0  0  0  0  0  0  0
  191.1660  176.7750  142.0120 C   0  0  2  0  0  3  0  0  0  0  0  0
  190.2330  176.7240  147.0100 C   0  0  0  0  0  1  0  0  0  0  0  0
  189.9070  177.3470  141.5450 N   0  0  0  0  0  2  0  0  0  0  0  0
  189.5150  177.3330  143.8930 N   0  0  0  0  0  0  0  0  0  0  0  0
  188.6800  177.5180  145.0370 C   0  0  0  0  0  0  0  0  0  0  0  0
  188.9660  177.2630  146.4350 C   0  0  0  0  0  0  0  0  0  0  0  0
  187.4470  177.9690  144.8990 C   0  0  0  0  0  0  0  0  0  0  0  0
  186.9060  178.2860  143.5910 N   0  0  0  0  0  0  0  0  0  0  0  0
  187.8770  177.5760  147.1230 C   0  0  2  0  0  3  0  0  0  0  0  0
  187.7590  178.0870  142.4320 C   0  0  0  0  0  0  0  0  0  0  0  0
  191.1780  176.7570  143.8630 S   0  0  0  0  0  0  0  0  0  0  0  0
  187.2560  178.3750  141.0500 C   0  0  0  0  0  1  0  0  0  0  0  0
  185.5610  178.7550  143.3810 C   0  0  0  0  0  3  0  0  0  0  0  0
  184.5580  177.9830  142.9770 C   0  0  0  0  0  3  0  0  0  0  0  0
  183.1990  178.5530  142.7710 C   0  0  0  0  0  2  0  0  0  0  0  0
  183.0940  179.1720  141.3840 C   0  0  0  0  0  2  0  0  0  0  0  0
  182.7190  177.5940  139.3830 C   0  0  1  0  0  0  0  0  0  0  0  0
  182.0410  178.8140  139.1550 O   0  0  0  0  0  0  0  0  0  0  0  0
  182.1320  178.3860  140.4980 C   0  0  2  0  0  0  0  0  0  0  0  0
  181.4780  173.7520  137.4010 C   0  0  0  0  0  2  0  0  0  0  0  0
  182.5770  174.6310  137.5060 O   0  0  0  0  0  0  0  0  0  0  0  0
  180.1320  174.3460  137.8640 C   0  0  1  0  0  3  0  0  0  0  0  0
  181.9800  176.4770  138.7990 N   0  0  0  0  0  0  0  0  0  0  0  0
  179.9720  175.8060  137.5630 C   0  0  0  0  0  3  0  0  0  0  0  0
  179.0400  173.5990  137.2640 N   0  0  0  0  0  1  0  0  0  0  0  0
  182.5920  175.1510  138.8090 C   0  0  0  0  0  2  0  0  0  0  0  0
  180.7960  176.7530  138.0290 C   0  0  0  0  0  3  0  0  0  0  0  0
  184.0750  177.7210  139.0390 O   0  0  0  0  0  0  0  0  0  0  0  0
  184.1030  178.2600  137.7490 C   0  0  0  0  0  1  0  0  0  0  0  0
  180.9330  177.8780  141.0300 O   0  0  0  0  0  0  0  0  0  0  0  0
  179.9960  178.9210  141.0190 C   0  0  0  0  0  2  0  0  0  0  0  0
  179.6530  179.8600  143.2660 C   0  0  0  0  0  2  0  0  0  0  0  0
  179.2850  178.9820  142.3340 C   0  0  0  0  0  3  0  0  0  0  0  0
  192.3220  177.6010  141.4800 C   0  0  0  0  0  2  0  0  0  0  0  0
  192.2680  177.6520  140.0320 N   0  0  0  0  0  2  0  0  0  0  0  0
  193.3140  176.7730  139.5410 C   0  0  0  0  0  2  0  0  0  0  0  0
  193.1120  176.5140  138.0600 C   0  0  0  0  0  2  0  0  0  0  0  0
  191.9170  175.6040  137.8350 C   0  0  1  0  0  3  0  0  0  0  0  0
  189.5850  175.7380  136.9900 C   0  0  1  0  0  0  0  0  0  0  0  0
  191.0080  176.2050  136.7760 C   0  0  1  0  0  3  0  0  0  0  0  0
  190.0120  177.1470  137.4160 C   0  0  2  0  0  3  0  0  0  0  0  0
  187.3350  176.1970  136.2730 C   0  0  0  0  0  2  0  0  0  0  0  0
  187.5460  176.8890  137.6090 C   0  0  0  0  0  2  0  0  0  0  0  0
  188.7220  175.8870  135.7550 C   0  0  0  0  0  2  0  0  0  0  0  0
  188.8940  176.4270  138.1420 C   0  0  1  0  0  3  0  0  0  0  0  0
  192.3750  174.2960  137.3980 N   0  0  0  0  0  2  0  0  0  0  0  0
  193.7650  174.3780  137.2470 N   0  0  0  0  0  2  0  0  0  0  0  0
  194.2520  173.0190  137.0430 C   0  0  2  0  0  3  0  0  0  0  0  0
  195.2770  172.5990  138.1000 C   0  0  1  0  0  3  0  0  0  0  0  0
  195.7330  173.0470  136.7290 C   0  0  0  0  0  2  0  0  0  0  0  0
  195.5410  173.6550  139.0690 N   0  0  0  0  0  1  0  0  0  0  0  0
  2 12  1  0  0  0  0
  3  7  1  0  0  0  0
  4 37  1  1  0  0  0
  4 14  1  0  0  0  0
  6  4  1  0  0  0  0
  6  3  1  0  0  0  0
  7  8  1  0  0  0  0
  8  9  2  0  0  0  0
  9  5  1  0  0  0  0
  9 12  1  0  0  0  0
 10  8  1  0  0  0  0
 10  2  2  0  0  0  0
 11 10  1  0  0  0  0
 12  1  1  6  0  0  0
 13  3  2  0  0  0  0
 13 11  1  0  0  0  0
 14  7  1  0  0  0  0
 15 13  1  0  0  0  0
 16 11  1  0  0  0  0
 17 16  2  0  0  0  0
 18 17  1  0  0  0  0
 19 18  1  0  0  0  0
 20 31  1  6  0  0  0
 20 22  1  0  0  0  0
 21 20  1  0  0  0  0
 21 22  1  0  0  0  0
 22 33  1  0  0  0  0
 22 19  1  1  0  0  0
 23 24  1  0  0  0  0
 23 25  1  0  0  0  0
 24 29  1  0  0  0  0
 25 28  1  6  0  0  0
 26 29  1  0  0  0  0
 26 20  1  0  0  0  0
 27 25  1  0  0  0  0
 27 30  2  0  0  0  0
 30 26  1  0  0  0  0
 32 31  1  0  0  0  0
 34 33  1  0  0  0  0
 34 36  1  0  0  0  0
 36 35  2  0  0  0  0
 38 37  1  0  0  0  0
 39 38  1  0  0  0  0
 40 39  1  0  0  0  0
 41 40  1  6  0  0  0
 42 47  1  6  0  0  0
 42 44  1  0  0  0  0
 42 48  1  0  0  0  0
 43 42  1  0  0  0  0
 43 44  1  0  0  0  0
 43 41  1  1  0  0  0
 44 48  1  0  0  0  0
 45 46  1  0  0  0  0
 46 48  1  0  0  0  0
 47 45  1  0  0  0  0
 49 41  1  0  0  0  0
 50 49  1  0  0  0  0
 51 50  1  0  0  0  0
 51 52  1  0  0  0  0
 52 54  1  0  0  0  0
 53 51  1  0  0  0  0
 53 52  1  0  0  0  0
M  END
>  <MODEL>
1

>  <REMARK>
 VINA RESULT:      -6.8      0.000      0.000
  Name = 
  18 active torsions:
  status: ('A' for Active; 'I' for Inactive)
    1  A    between atoms: C_3  and  N_17
    2  A    between atoms: C_3  and  O_33
    3  A    between atoms: C_5  and  O_36
    4  A    between atoms: C_5  and  C_47
    5  A    between atoms: C_7  and  C_46
    6  A    between atoms: C_7  and  C_48
    7  A    between atoms: C_9  and  C_48
    8  A    between atoms: C_10  and  N_32
    9  A    between atoms: C_12  and  C_22
   10  A    between atoms: C_12  and  N_26
   11  A    between atoms: C_15  and  N_40
   12  A    between atoms: C_16  and  C_25
   13  A    between atoms: C_16  and  C_44
   14  A    between atoms: N_26  and  C_46
   15  A    between atoms: N_32  and  N_38
   16  A    between atoms: O_36  and  C_45
   17  A    between atoms: N_38  and  C_48
   18  A    between atoms: C_44  and  C_45
                            x       y       z     vdW  Elec       q    Type
                         _______ _______ _______ _____ _____    ______ ____

>  <TORSDO>
F 18

$$$$
=
 OpenBabel11032421073D

 54 62  0  0  1  0  0  0  0  0999 V2000
  189.8020  176.8410  147.2420 N   0  0  0  0  0  1  0  0  0  0  0  0
  189.3770  176.9830  144.7000 C   0  0  0  0  0  3  0  0  0  0  0  0
  185.7200  178.5330  143.0860 C   0  0  0  0  0  0  0  0  0  0  0  0
  183.7240  179.4930  143.9800 C   0  0  2  0  0  3  0  0  0  0  0  0
  187.0410  177.9700  147.5200 C   0  0  0  0  0  1  0  0  0  0  0  0
  184.4670  179.1130  142.7830 N   0  0  0  0  0  2  0  0  0  0  0  0
  185.9850  178.3870  144.4670 N   0  0  0  0  0  0  0  0  0  0  0  0
  187.2410  177.8600  144.8960 C   0  0  0  0  0  0  0  0  0  0  0  0
  187.7430  177.6560  146.2410 C   0  0  0  0  0  0  0  0  0  0  0  0
  188.1480  177.4890  144.0110 C   0  0  0  0  0  0  0  0  0  0  0  0
  187.8990  177.6100  142.5870 N   0  0  0  0  0  0  0  0  0  0  0  0
  188.9650  177.1540  146.1330 C   0  0  2  0  0  3  0  0  0  0  0  0
  186.6220  178.1550  142.1590 C   0  0  0  0  0  0  0  0  0  0  0  0
  184.6480  178.9250  145.4790 S   0  0  0  0  0  0  0  0  0  0  0  0
  186.3080  178.3250  140.7040 C   0  0  0  0  0  1  0  0  0  0  0  0
  188.8610  177.2460  141.5800 C   0  0  0  0  0  3  0  0  0  0  0  0
  189.0530  177.9270  140.4550 C   0  0  0  0  0  3  0  0  0  0  0  0
  190.0620  177.4730  139.4580 C   0  0  0  0  0  2  0  0  0  0  0  0
  189.7650  178.0830  138.0950 C   0  0  0  0  0  2  0  0  0  0  0  0
  189.7540  176.0080  136.5700 C   0  0  1  0  0  0  0  0  0  0  0  0
  189.3150  177.1350  135.8370 O   0  0  0  0  0  0  0  0  0  0  0  0
  188.9890  177.1120  137.2100 C   0  0  2  0  0  0  0  0  0  0  0  0
  186.9750  173.0350  134.6570 C   0  0  0  0  0  2  0  0  0  0  0  0
  187.0350  174.3870  135.0550 O   0  0  0  0  0  0  0  0  0  0  0  0
  188.0650  172.1330  135.2730 C   0  0  1  0  0  3  0  0  0  0  0  0
  189.0700  174.8000  136.1160 N   0  0  0  0  0  0  0  0  0  0  0  0
  188.4380  172.5000  136.6780 C   0  0  0  0  0  3  0  0  0  0  0  0
  187.6330  170.7480  135.2250 N   0  0  0  0  0  1  0  0  0  0  0  0
  188.3450  174.8410  134.8470 C   0  0  0  0  0  2  0  0  0  0  0  0
  188.9270  173.6960  137.0280 C   0  0  0  0  0  3  0  0  0  0  0  0
  191.1580  175.9770  136.6170 O   0  0  0  0  0  0  0  0  0  0  0  0
  191.5940  175.9800  135.2880 C   0  0  0  0  0  1  0  0  0  0  0  0
  187.6390  176.8280  137.4840 O   0  0  0  0  0  0  0  0  0  0  0  0
  186.9100  178.0060  137.2600 C   0  0  0  0  0  2  0  0  0  0  0  0
  185.2010  177.0950  135.7450 C   0  0  0  0  0  2  0  0  0  0  0  0
  185.4960  177.6720  136.9090 C   0  0  0  0  0  3  0  0  0  0  0  0
  182.3430  178.8650  143.9360 C   0  0  0  0  0  2  0  0  0  0  0  0
  181.3630  179.8530  143.5300 N   0  0  0  0  0  2  0  0  0  0  0  0
  180.4340  179.1830  142.6370 C   0  0  0  0  0  2  0  0  0  0  0  0
  181.1990  178.2790  141.6890 C   0  0  0  0  0  2  0  0  0  0  0  0
  180.9170  178.6570  140.2460 C   0  0  1  0  0  3  0  0  0  0  0  0
  181.6420  177.0340  138.5100 C   0  0  1  0  0  0  0  0  0  0  0  0
  180.5270  177.4170  139.4580 C   0  0  1  0  0  3  0  0  0  0  0  0
  181.4370  176.2620  139.8190 C   0  0  2  0  0  3  0  0  0  0  0  0
  182.3530  175.2320  137.0850 C   0  0  0  0  0  2  0  0  0  0  0  0
  183.1230  175.1210  138.3900 C   0  0  0  0  0  2  0  0  0  0  0  0
  181.1780  176.1360  137.3840 C   0  0  0  0  0  2  0  0  0  0  0  0
  182.8140  176.3730  139.1960 C   0  0  1  0  0  3  0  0  0  0  0  0
  179.8340  179.6240  140.1970 N   0  0  0  0  0  2  0  0  0  0  0  0
  179.8610  180.2050  138.9230 N   0  0  0  0  0  2  0  0  0  0  0  0
  180.5380  181.4900  139.0540 C   0  0  2  0  0  3  0  0  0  0  0  0
  180.8820  182.1120  137.6990 C   0  0  1  0  0  3  0  0  0  0  0  0
  181.9430  181.3890  138.4990 C   0  0  0  0  0  2  0  0  0  0  0  0
  180.4620  181.2780  136.5800 N   0  0  0  0  0  1  0  0  0  0  0  0
  2 12  1  0  0  0  0
  3  7  1  0  0  0  0
  4 37  1  6  0  0  0
  4 14  1  0  0  0  0
  6  3  1  0  0  0  0
  6  4  1  0  0  0  0
  7  8  1  0  0  0  0
  7 14  1  0  0  0  0
  8  9  2  0  0  0  0
  9  5  1  0  0  0  0
 10  2  2  0  0  0  0
 10  8  1  0  0  0  0
 11 10  1  0  0  0  0
 12  9  1  0  0  0  0
 12  1  1  6  0  0  0
 13 11  1  0  0  0  0
 13  3  2  0  0  0  0
 15 13  1  0  0  0  0
 16 11  1  0  0  0  0
 17 16  2  0  0  0  0
 18 17  1  0  0  0  0
 19 18  1  0  0  0  0
 20 31  1  1  0  0  0
 20 22  1  0  0  0  0
 21 20  1  0  0  0  0
 21 22  1  0  0  0  0
 22 33  1  0  0  0  0
 22 19  1  1  0  0  0
 23 24  1  0  0  0  0
 23 25  1  0  0  0  0
 25 28  1  1  0  0  0
 25 27  1  0  0  0  0
 26 20  1  0  0  0  0
 26 30  1  0  0  0  0
 27 30  2  0  0  0  0
 29 24  1  0  0  0  0
 29 26  1  0  0  0  0
 32 31  1  0  0  0  0
 34 33  1  0  0  0  0
 35 36  2  0  0  0  0
 36 34  1  0  0  0  0
 38 37  1  0  0  0  0
 39 38  1  0  0  0  0
 40 39  1  0  0  0  0
 41 40  1  1  0  0  0
 42 47  1  6  0  0  0
 42 48  1  0  0  0  0
 42 43  1  0  0  0  0
 42 44  1  0  0  0  0
 43 44  1  0  0  0  0
 43 41  1  1  0  0  0
 45 47  1  0  0  0  0
 45 46  1  0  0  0  0
 46 48  1  0  0  0  0
 48 44  1  0  0  0  0
 49 41  1  0  0  0  0
 50 51  1  0  0  0  0
 50 49  1  0  0  0  0
 52 53  1  0  0  0  0
 52 51  1  0  0  0  0
 53 51  1  0  0  0  0
 54 52  1  0  0  0  0
M  END
>  <MODEL>
2

>  <REMARK>
 VINA RESULT:      -6.8      3.207      8.757
  Name = 
  18 active torsions:
  status: ('A' for Active; 'I' for Inactive)
    1  A    between atoms: C_3  and  N_17
    2  A    between atoms: C_3  and  O_33
    3  A    between atoms: C_5  and  O_36
    4  A    between atoms: C_5  and  C_47
    5  A    between atoms: C_7  and  C_46
    6  A    between atoms: C_7  and  C_48
    7  A    between atoms: C_9  and  C_48
    8  A    between atoms: C_10  and  N_32
    9  A    between atoms: C_12  and  C_22
   10  A    between atoms: C_12  and  N_26
   11  A    between atoms: C_15  and  N_40
   12  A    between atoms: C_16  and  C_25
   13  A    between atoms: C_16  and  C_44
   14  A    between atoms: N_26  and  C_46
   15  A    between atoms: N_32  and  N_38
   16  A    between atoms: O_36  and  C_45
   17  A    between atoms: N_38  and  C_48
   18  A    between atoms: C_44  and  C_45
                            x       y       z     vdW  Elec       q    Type
                         _______ _______ _______ _____ _____    ______ ____

>  <TORSDO>
F 18

$$$$
=
 OpenBabel11032421073D

 54 62  0  0  1  0  0  0  0  0999 V2000
  190.5590  176.7400  146.9630 N   0  0  0  0  0  1  0  0  0  0  0  0
  190.5740  177.0690  144.4030 C   0  0  0  0  0  3  0  0  0  0  0  0
  187.0900  178.3420  142.2500 C   0  0  0  0  0  0  0  0  0  0  0  0
  184.8620  178.9820  142.8230 C   0  0  2  0  0  3  0  0  0  0  0  0
  187.6700  177.5190  146.8010 C   0  0  0  0  0  1  0  0  0  0  0  0
  185.8470  178.8020  141.7620 N   0  0  0  0  0  2  0  0  0  0  0  0
  187.1240  178.0980  143.6430 N   0  0  0  0  0  0  0  0  0  0  0  0
  188.3420  177.6780  144.2590 C   0  0  0  0  0  0  0  0  0  0  0  0
  188.6210  177.4070  145.6560 C   0  0  0  0  0  0  0  0  0  0  0  0
  189.4300  177.4960  143.5340 C   0  0  0  0  0  0  0  0  0  0  0  0
  189.4230  177.7200  142.1020 N   0  0  0  0  0  0  0  0  0  0  0  0
  189.8970  177.0580  145.7420 C   0  0  2  0  0  3  0  0  0  0  0  0
  188.1820  178.1560  141.4830 C   0  0  0  0  0  0  0  0  0  0  0  0
  185.5730  178.3840  144.4230 S   0  0  0  0  0  0  0  0  0  0  0  0
  188.1110  178.4240  140.0110 C   0  0  0  0  0  1  0  0  0  0  0  0
  190.5860  177.5630  141.2680 C   0  0  0  0  0  3  0  0  0  0  0  0
  190.6300  176.7860  140.1900 C   0  0  0  0  0  3  0  0  0  0  0  0
  191.8810  176.6700  139.3910 C   0  0  0  0  0  2  0  0  0  0  0  0
  191.5500  176.5940  137.9070 C   0  0  0  0  0  2  0  0  0  0  0  0
  193.4290  175.1590  136.8850 C   0  0  1  0  0  0  0  0  0  0  0  0
  192.3820  175.3070  135.9440 O   0  0  0  0  0  0  0  0  0  0  0  0
  192.0050  175.2680  137.3040 C   0  0  2  0  0  0  0  0  0  0  0  0
  194.4550  170.9020  135.8620 C   0  0  0  0  0  2  0  0  0  0  0  0
  193.3510  171.7740  135.9600 O   0  0  0  0  0  0  0  0  0  0  0  0
  195.7330  171.3990  136.5690 C   0  0  1  0  0  3  0  0  0  0  0  0
  194.0620  173.8500  136.7500 N   0  0  0  0  0  0  0  0  0  0  0  0
  195.4750  172.1640  137.8320 C   0  0  0  0  0  3  0  0  0  0  0  0
  196.6040  170.2710  136.8470 N   0  0  0  0  0  1  0  0  0  0  0  0
  193.7710  173.0510  135.5610 C   0  0  0  0  0  2  0  0  0  0  0  0
  194.7500  173.2890  137.8820 C   0  0  0  0  0  3  0  0  0  0  0  0
  194.2650  176.2880  136.8600 O   0  0  0  0  0  0  0  0  0  0  0  0
  194.7510  176.3870  135.5530 C   0  0  0  0  0  1  0  0  0  0  0  0
  191.4040  174.0630  137.7080 O   0  0  0  0  0  0  0  0  0  0  0  0
  190.4810  173.7020  136.7150 C   0  0  0  0  0  2  0  0  0  0  0  0
  188.4040  175.0050  136.9000 C   0  0  0  0  0  2  0  0  0  0  0  0
  189.0870  173.9050  137.2150 C   0  0  0  0  0  3  0  0  0  0  0  0
  183.6020  178.2090  142.4770 C   0  0  0  0  0  2  0  0  0  0  0  0
  182.4320  179.0040  142.7960 N   0  0  0  0  0  2  0  0  0  0  0  0
  181.4290  178.6950  141.7920 C   0  0  0  0  0  2  0  0  0  0  0  0
  182.0470  178.7740  140.4090 C   0  0  0  0  0  2  0  0  0  0  0  0
  180.9690  178.7740  139.3410 C   0  0  1  0  0  3  0  0  0  0  0  0
  180.6020  180.5700  137.6650 C   0  0  1  0  0  0  0  0  0  0  0  0
  181.5010  179.4240  138.0750 C   0  0  1  0  0  3  0  0  0  0  0  0
  181.9390  180.8440  138.3630 C   0  0  2  0  0  3  0  0  0  0  0  0
  180.5320  182.4550  136.1710 C   0  0  0  0  0  2  0  0  0  0  0  0
  180.9340  182.9670  137.5440 C   0  0  0  0  0  2  0  0  0  0  0  0
  180.7680  180.9610  136.2120 C   0  0  0  0  0  2  0  0  0  0  0  0
  180.7790  181.8060  138.5150 C   0  0  1  0  0  3  0  0  0  0  0  0
  180.5670  177.4070  139.0530 N   0  0  0  0  0  2  0  0  0  0  0  0
  181.3670  176.9600  137.9940 N   0  0  0  0  0  2  0  0  0  0  0  0
  181.7610  175.5910  138.3050 C   0  0  2  0  0  3  0  0  0  0  0  0
  183.2790  175.3950  138.2710 C   0  0  1  0  0  3  0  0  0  0  0  0
  182.4250  174.9610  137.0990 C   0  0  0  0  0  2  0  0  0  0  0  0
  183.9900  176.6200  137.9270 N   0  0  0  0  0  1  0  0  0  0  0  0
  2 12  1  0  0  0  0
  3  7  1  0  0  0  0
  4 37  1  6  0  0  0
  4 14  1  0  0  0  0
  6  3  1  0  0  0  0
  6  4  1  0  0  0  0
  7  8  1  0  0  0  0
  7 14  1  0  0  0  0
  8  9  2  0  0  0  0
  9 12  1  0  0  0  0
  9  5  1  0  0  0  0
 10  8  1  0  0  0  0
 10  2  2  0  0  0  0
 11 10  1  0  0  0  0
 12  1  1  1  0  0  0
 13 11  1  0  0  0  0
 13  3  2  0  0  0  0
 15 13  1  0  0  0  0
 16 11  1  0  0  0  0
 17 16  2  0  0  0  0
 18 17  1  0  0  0  0
 19 18  1  0  0  0  0
 20 31  1  1  0  0  0
 20 22  1  0  0  0  0
 21 20  1  0  0  0  0
 21 22  1  0  0  0  0
 22 33  1  0  0  0  0
 22 19  1  1  0  0  0
 23 24  1  0  0  0  0
 23 25  1  0  0  0  0
 25 28  1  1  0  0  0
 25 27  1  0  0  0  0
 26 20  1  0  0  0  0
 26 30  1  0  0  0  0
 27 30  2  0  0  0  0
 29 24  1  0  0  0  0
 29 26  1  0  0  0  0
 32 31  1  0  0  0  0
 34 36  1  0  0  0  0
 34 33  1  0  0  0  0
 35 36  2  0  0  0  0
 37 38  1  0  0  0  0
 39 38  1  0  0  0  0
 40 39  1  0  0  0  0
 41 40  1  1  0  0  0
 42 47  1  6  0  0  0
 42 43  1  0  0  0  0
 42 44  1  0  0  0  0
 42 48  1  0  0  0  0
 43 44  1  0  0  0  0
 43 41  1  1  0  0  0
 44 48  1  0  0  0  0
 45 47  1  0  0  0  0
 45 46  1  0  0  0  0
 46 48  1  0  0  0  0
 49 41  1  0  0  0  0
 50 51  1  0  0  0  0
 50 49  1  0  0  0  0
 52 51  1  0  0  0  0
 53 52  1  0  0  0  0
 53 51  1  0  0  0  0
 54 52  1  0  0  0  0
M  END
>  <MODEL>
3

>  <REMARK>
 VINA RESULT:      -6.7      3.563     10.037
  Name = 
  18 active torsions:
  status: ('A' for Active; 'I' for Inactive)
    1  A    between atoms: C_3  and  N_17
    2  A    between atoms: C_3  and  O_33
    3  A    between atoms: C_5  and  O_36
    4  A    between atoms: C_5  and  C_47
    5  A    between atoms: C_7  and  C_46
    6  A    between atoms: C_7  and  C_48
    7  A    between atoms: C_9  and  C_48
    8  A    between atoms: C_10  and  N_32
    9  A    between atoms: C_12  and  C_22
   10  A    between atoms: C_12  and  N_26
   11  A    between atoms: C_15  and  N_40
   12  A    between atoms: C_16  and  C_25
   13  A    between atoms: C_16  and  C_44
   14  A    between atoms: N_26  and  C_46
   15  A    between atoms: N_32  and  N_38
   16  A    between atoms: O_36  and  C_45
   17  A    between atoms: N_38  and  C_48
   18  A    between atoms: C_44  and  C_45
                            x       y       z     vdW  Elec       q    Type
                         _______ _______ _______ _____ _____    ______ ____

>  <TORSDO>
F 18

$$$$
=
 OpenBabel11032421073D

 54 62  0  0  1  0  0  0  0  0999 V2000
  179.5410  179.3730  139.7920 N   0  0  0  0  0  1  0  0  0  0  0  0
  182.0590  179.0550  139.3180 C   0  0  0  0  0  3  0  0  0  0  0  0
  184.9170  178.5110  142.4670 C   0  0  0  0  0  0  0  0  0  0  0  0
  184.8300  178.3270  144.8470 C   0  0  2  0  0  3  0  0  0  0  0  0
  180.3110  179.1870  142.6820 C   0  0  0  0  0  1  0  0  0  0  0  0
  185.6640  178.3100  143.6500 N   0  0  0  0  0  2  0  0  0  0  0  0
  183.5370  178.7390  142.6730 N   0  0  0  0  0  0  0  0  0  0  0  0
  182.6720  178.9050  141.5480 C   0  0  0  0  0  0  0  0  0  0  0  0
  181.2370  179.1110  141.5140 C   0  0  0  0  0  0  0  0  0  0  0  0
  183.1550  178.8680  140.3210 C   0  0  1  0  0  3  0  0  0  0  0  0
  184.5690  178.6540  140.0790 N   0  0  0  0  0  0  0  0  0  0  0  0
  180.8820  179.1970  140.2400 C   0  0  0  0  0  0  0  0  0  0  0  0
  185.4420  178.4770  141.2270 C   0  0  0  0  0  0  0  0  0  0  0  0
  183.0950  178.7660  144.3760 S   0  0  0  0  0  0  0  0  0  0  0  0
  186.9090  178.2330  141.0470 C   0  0  0  0  0  1  0  0  0  0  0  0
  185.1460  178.5780  138.7610 C   0  0  0  0  0  3  0  0  0  0  0  0
  185.1340  177.4840  138.0070 C   0  0  0  0  0  3  0  0  0  0  0  0
  185.7680  177.4870  136.6590 C   0  0  0  0  0  2  0  0  0  0  0  0
  186.0560  176.0610  136.2110 C   0  0  0  0  0  2  0  0  0  0  0  0
  188.5740  176.0500  136.7510 C   0  0  1  0  0  0  0  0  0  0  0  0
  188.2970  177.0720  135.8130 O   0  0  0  0  0  0  0  0  0  0  0  0
  187.4980  175.9110  135.7340 C   0  0  2  0  0  0  0  0  0  0  0  0
  192.4290  173.7460  136.9810 C   0  0  0  0  0  2  0  0  0  0  0  0
  191.3750  174.2090  137.7950 O   0  0  0  0  0  0  0  0  0  0  0  0
  192.5200  174.4200  135.5960 C   0  0  1  0  0  3  0  0  0  0  0  0
  189.8970  175.4770  136.5120 N   0  0  0  0  0  0  0  0  0  0  0  0
  192.1370  175.8700  135.5980 C   0  0  0  0  0  3  0  0  0  0  0  0
  193.8630  174.2670  135.0680 N   0  0  0  0  0  1  0  0  0  0  0  0
  190.1910  174.1490  137.0460 C   0  0  0  0  0  2  0  0  0  0  0  0
  190.9340  176.3190  135.9780 C   0  0  0  0  0  3  0  0  0  0  0  0
  188.2880  176.4960  138.0530 O   0  0  0  0  0  0  0  0  0  0  0  0
  189.4350  177.1610  138.4990 C   0  0  0  0  0  1  0  0  0  0  0  0
  187.8010  175.0680  134.6490 O   0  0  0  0  0  0  0  0  0  0  0  0
  186.8030  174.0840  134.5940 C   0  0  0  0  0  2  0  0  0  0  0  0
  186.4790  171.8750  135.6240 C   0  0  0  0  0  2  0  0  0  0  0  0
  187.3190  172.8010  135.1630 C   0  0  0  0  0  3  0  0  0  0  0  0
  185.3860  179.3370  145.8340 C   0  0  0  0  0  2  0  0  0  0  0  0
  185.5310  178.7240  147.1400 N   0  0  0  0  0  2  0  0  0  0  0  0
  186.9560  178.5820  147.3810 C   0  0  0  0  0  2  0  0  0  0  0  0
  187.4730  177.3420  146.6760 C   0  0  0  0  0  2  0  0  0  0  0  0
  188.9520  177.4820  146.3630 C   0  0  1  0  0  3  0  0  0  0  0  0
  190.1660  177.4870  144.1960 C   0  0  1  0  0  0  0  0  0  0  0  0
  189.1290  178.2000  145.0360 C   0  0  1  0  0  3  0  0  0  0  0  0
  188.6730  177.3120  143.8980 C   0  0  2  0  0  3  0  0  0  0  0  0
  191.0370  177.4170  141.9550 C   0  0  0  0  0  2  0  0  0  0  0  0
  190.0470  176.2750  142.1020 C   0  0  0  0  0  2  0  0  0  0  0  0
  190.7420  178.3590  143.1010 C   0  0  0  0  0  2  0  0  0  0  0  0
  189.6590  176.2090  143.5720 C   0  0  1  0  0  3  0  0  0  0  0  0
  189.6040  178.2410  147.4170 N   0  0  0  0  0  2  0  0  0  0  0  0
  190.4700  177.3620  148.0790 N   0  0  0  0  0  2  0  0  0  0  0  0
  190.7050  176.2380  147.1810 C   0  0  2  0  0  3  0  0  0  0  0  0
  192.0350  175.5330  147.4590 C   0  0  1  0  0  3  0  0  0  0  0  0
  191.9170  176.5180  146.3160 C   0  0  0  0  0  2  0  0  0  0  0  0
  192.7720  176.1480  148.5560 N   0  0  0  0  0  1  0  0  0  0  0  0
  1 12  1  0  0  0  0
  2 12  2  0  0  0  0
  3  7  1  0  0  0  0
  3  6  1  0  0  0  0
  4 37  1  1  0  0  0
  6  4  1  0  0  0  0
  7 14  1  0  0  0  0
  8  7  1  0  0  0  0
  9  8  2  0  0  0  0
  9  5  1  0  0  0  0
 10  2  1  6  0  0  0
 10  8  1  0  0  0  0
 11 10  1  0  0  0  0
 11 13  1  0  0  0  0
 12  9  1  0  0  0  0
 13  3  2  0  0  0  0
 14  4  1  0  0  0  0
 15 13  1  0  0  0  0
 16 11  1  0  0  0  0
 17 16  2  0  0  0  0
 18 17  1  0  0  0  0
 19 18  1  0  0  0  0
 20 31  1  1  0  0  0
 21 20  1  0  0  0  0
 22 21  1  0  0  0  0
 22 19  1  1  0  0  0
 22 20  1  0  0  0  0
 23 24  1  0  0  0  0
 25 28  1  1  0  0  0
 25 27  1  0  0  0  0
 25 23  1  0  0  0  0
 26 20  1  0  0  0  0
 26 29  1  0  0  0  0
 27 30  2  0  0  0  0
 29 24  1  0  0  0  0
 30 26  1  0  0  0  0
 31 32  1  0  0  0  0
 33 22  1  0  0  0  0
 34 33  1  0  0  0  0
 34 36  1  0  0  0  0
 36 35  2  0  0  0  0
 37 38  1  0  0  0  0
 38 39  1  0  0  0  0
 40 39  1  0  0  0  0
 41 40  1  1  0  0  0
 41 49  1  0  0  0  0
 42 47  1  6  0  0  0
 42 43  1  0  0  0  0
 43 41  1  1  0  0  0
 44 42  1  0  0  0  0
 44 43  1  0  0  0  0
 45 46  1  0  0  0  0
 45 47  1  0  0  0  0
 46 48  1  0  0  0  0
 48 44  1  0  0  0  0
 48 42  1  0  0  0  0
 49 50  1  0  0  0  0
 51 52  1  0  0  0  0
 51 50  1  0  0  0  0
 52 54  1  0  0  0  0
 53 51  1  0  0  0  0
 53 52  1  0  0  0  0
M  END
>  <MODEL>
4

>  <REMARK>
 VINA RESULT:      -6.7      3.236      8.830
  Name = 
  18 active torsions:
  status: ('A' for Active; 'I' for Inactive)
    1  A    between atoms: C_3  and  N_17
    2  A    between atoms: C_3  and  O_33
    3  A    between atoms: C_5  and  O_36
    4  A    between atoms: C_5  and  C_47
    5  A    between atoms: C_7  and  C_46
    6  A    between atoms: C_7  and  C_48
    7  A    between atoms: C_9  and  C_48
    8  A    between atoms: C_10  and  N_32
    9  A    between atoms: C_12  and  C_22
   10  A    between atoms: C_12  and  N_26
   11  A    between atoms: C_15  and  N_40
   12  A    between atoms: C_16  and  C_25
   13  A    between atoms: C_16  and  C_44
   14  A    between atoms: N_26  and  C_46
   15  A    between atoms: N_32  and  N_38
   16  A    between atoms: O_36  and  C_45
   17  A    between atoms: N_38  and  C_48
   18  A    between atoms: C_44  and  C_45
                            x       y       z     vdW  Elec       q    Type
                         _______ _______ _______ _____ _____    ______ ____

>  <TORSDO>
F 18

$$$$
=
 OpenBabel11032421073D

 54 62  0  0  1  0  0  0  0  0999 V2000
  190.5710  176.7150  147.3670 N   0  0  0  0  0  1  0  0  0  0  0  0
  190.0660  177.0990  144.8640 C   0  0  0  0  0  3  0  0  0  0  0  0
  186.2850  178.5980  143.5080 C   0  0  0  0  0  0  0  0  0  0  0  0
  184.2650  179.3420  144.5440 C   0  0  2  0  0  3  0  0  0  0  0  0
  187.7610  177.6480  147.8250 C   0  0  0  0  0  1  0  0  0  0  0  0
  184.9940  179.1330  143.2980 N   0  0  0  0  0  2  0  0  0  0  0  0
  186.5970  178.3230  144.8600 N   0  0  0  0  0  0  0  0  0  0  0  0
  187.8920  177.8270  145.2010 C   0  0  0  0  0  0  0  0  0  0  0  0
  188.4420  177.5110  146.5050 C   0  0  0  0  0  0  0  0  0  0  0  0
  188.7920  177.6040  144.2610 C   0  0  0  0  0  0  0  0  0  0  0  0
  188.4960  177.8590  142.8650 N   0  0  0  0  0  0  0  0  0  0  0  0
  189.6860  177.0940  146.3170 C   0  0  2  0  0  3  0  0  0  0  0  0
  187.1790  178.3720  142.5260 C   0  0  0  0  0  0  0  0  0  0  0  0
  185.2620  178.6730  145.9530 S   0  0  0  0  0  0  0  0  0  0  0  0
  186.8150  178.6760  141.1050 C   0  0  0  0  0  1  0  0  0  0  0  0
  189.4470  177.6600  141.8030 C   0  0  0  0  0  3  0  0  0  0  0  0
  189.1720  177.0290  140.6660 C   0  0  0  0  0  3  0  0  0  0  0  0
  190.2210  176.8530  139.6240 C   0  0  0  0  0  2  0  0  0  0  0  0
  189.8370  177.6090  138.3590 C   0  0  0  0  0  2  0  0  0  0  0  0
  189.4870  175.7180  136.6460 C   0  0  1  0  0  0  0  0  0  0  0  0
  189.0430  176.9430  136.0950 O   0  0  0  0  0  0  0  0  0  0  0  0
  188.8890  176.7880  137.4900 C   0  0  2  0  0  0  0  0  0  0  0  0
  186.2420  173.1360  134.9070 C   0  0  0  0  0  2  0  0  0  0  0  0
  186.4470  174.4100  135.4770 O   0  0  0  0  0  0  0  0  0  0  0  0
  187.3800  172.1260  135.1600 C   0  0  1  0  0  3  0  0  0  0  0  0
  188.6660  174.6100  136.1650 N   0  0  0  0  0  0  0  0  0  0  0  0
  188.0340  172.2660  136.5020 C   0  0  0  0  0  3  0  0  0  0  0  0
  186.8750  170.7740  134.9980 N   0  0  0  0  0  1  0  0  0  0  0  0
  187.7150  174.8600  135.0840 C   0  0  0  0  0  2  0  0  0  0  0  0
  188.6420  173.3830  136.9180 C   0  0  0  0  0  3  0  0  0  0  0  0
  190.8800  175.6000  136.5060 O   0  0  0  0  0  0  0  0  0  0  0  0
  191.1620  175.8720  135.1630 C   0  0  0  0  0  1  0  0  0  0  0  0
  187.5660  176.5560  137.9070 O   0  0  0  0  0  0  0  0  0  0  0  0
  186.8130  177.6870  137.5610 C   0  0  0  0  0  2  0  0  0  0  0  0
  184.4810  178.0950  138.2250 C   0  0  0  0  0  2  0  0  0  0  0  0
  185.3570  177.3490  137.5530 C   0  0  0  0  0  3  0  0  0  0  0  0
  182.9210  178.6430  144.4650 C   0  0  0  0  0  2  0  0  0  0  0  0
  181.9900  179.4490  143.6980 N   0  0  0  0  0  2  0  0  0  0  0  0
  181.1410  178.5270  142.9640 C   0  0  0  0  0  2  0  0  0  0  0  0
  180.0360  179.2950  142.2650 C   0  0  0  0  0  2  0  0  0  0  0  0
  179.5740  178.5550  141.0230 C   0  0  1  0  0  3  0  0  0  0  0  0
  180.1360  179.3830  138.7490 C   0  0  1  0  0  0  0  0  0  0  0  0
  180.6510  178.6260  139.9540 C   0  0  1  0  0  3  0  0  0  0  0  0
  181.0860  180.0610  139.7440 C   0  0  2  0  0  3  0  0  0  0  0  0
  180.9020  180.3970  136.7060 C   0  0  0  0  0  2  0  0  0  0  0  0
  180.7520  181.4980  137.7420 C   0  0  0  0  0  2  0  0  0  0  0  0
  180.9320  179.1040  137.4920 C   0  0  0  0  0  2  0  0  0  0  0  0
  180.0810  180.8780  138.9580 C   0  0  1  0  0  3  0  0  0  0  0  0
  179.3070  177.1660  141.3530 N   0  0  0  0  0  2  0  0  0  0  0  0
  179.2230  176.4660  140.1430 N   0  0  0  0  0  2  0  0  0  0  0  0
  179.5240  175.0700  140.4350 C   0  0  2  0  0  3  0  0  0  0  0  0
  180.4240  174.4290  139.3760 C   0  0  1  0  0  3  0  0  0  0  0  0
  178.9310  174.1810  139.3630 C   0  0  0  0  0  2  0  0  0  0  0  0
  180.7720  175.3560  138.3070 N   0  0  0  0  0  1  0  0  0  0  0  0
  2 12  1  0  0  0  0
  3  7  1  0  0  0  0
  4 37  1  6  0  0  0
  4 14  1  0  0  0  0
  6  3  1  0  0  0  0
  6  4  1  0  0  0  0
  7  8  1  0  0  0  0
  7 14  1  0  0  0  0
  8  9  2  0  0  0  0
  9  5  1  0  0  0  0
 10  2  2  0  0  0  0
 10  8  1  0  0  0  0
 11 10  1  0  0  0  0
 12  9  1  0  0  0  0
 12  1  1  1  0  0  0
 13 11  1  0  0  0  0
 13  3  2  0  0  0  0
 15 13  1  0  0  0  0
 16 11  1  0  0  0  0
 17 16  2  0  0  0  0
 18 17  1  0  0  0  0
 19 18  1  0  0  0  0
 20 31  1  1  0  0  0
 20 22  1  0  0  0  0
 21 20  1  0  0  0  0
 21 22  1  0  0  0  0
 22 33  1  0  0  0  0
 22 19  1  1  0  0  0
 23 25  1  0  0  0  0
 23 24  1  0  0  0  0
 25 28  1  1  0  0  0
 25 27  1  0  0  0  0
 26 20  1  0  0  0  0
 26 30  1  0  0  0  0
 27 30  2  0  0  0  0
 29 24  1  0  0  0  0
 29 26  1  0  0  0  0
 32 31  1  0  0  0  0
 34 33  1  0  0  0  0
 36 34  1  0  0  0  0
 36 35  2  0  0  0  0
 38 37  1  0  0  0  0
 39 38  1  0  0  0  0
 40 39  1  0  0  0  0
 41 49  1  0  0  0  0
 41 40  1  1  0  0  0
 42 47  1  6  0  0  0
 42 48  1  0  0  0  0
 42 44  1  0  0  0  0
 42 43  1  0  0  0  0
 43 41  1  1  0  0  0
 44 43  1  0  0  0  0
 45 47  1  0  0  0  0
 45 46  1  0  0  0  0
 46 48  1  0  0  0  0
 48 44  1  0  0  0  0
 50 51  1  0  0  0  0
 50 49  1  0  0  0  0
 52 51  1  0  0  0  0
 53 52  1  0  0  0  0
 53 51  1  0  0  0  0
 54 52  1  0  0  0  0
M  END
>  <MODEL>
5

>  <REMARK>
 VINA RESULT:      -6.5      3.084      8.697
  Name = 
  18 active torsions:
  status: ('A' for Active; 'I' for Inactive)
    1  A    between atoms: C_3  and  N_17
    2  A    between atoms: C_3  and  O_33
    3  A    between atoms: C_5  and  O_36
    4  A    between atoms: C_5  and  C_47
    5  A    between atoms: C_7  and  C_46
    6  A    between atoms: C_7  and  C_48
    7  A    between atoms: C_9  and  C_48
    8  A    between atoms: C_10  and  N_32
    9  A    between atoms: C_12  and  C_22
   10  A    between atoms: C_12  and  N_26
   11  A    between atoms: C_15  and  N_40
   12  A    between atoms: C_16  and  C_25
   13  A    between atoms: C_16  and  C_44
   14  A    between atoms: N_26  and  C_46
   15  A    between atoms: N_32  and  N_38
   16  A    between atoms: O_36  and  C_45
   17  A    between atoms: N_38  and  C_48
   18  A    between atoms: C_44  and  C_45
                            x       y       z     vdW  Elec       q    Type
                         _______ _______ _______ _____ _____    ______ ____

>  <TORSDO>
F 18

$$$$
=
 OpenBabel11032421073D

 54 62  0  0  1  0  0  0  0  0999 V2000
  187.5560  177.5160  147.2740 N   0  0  0  0  0  1  0  0  0  0  0  0
  186.7710  178.1020  144.8860 C   0  0  0  0  0  3  0  0  0  0  0  0
  189.3190  177.6220  141.4700 C   0  0  0  0  0  0  0  0  0  0  0  0
  191.5260  176.7960  141.0820 C   0  0  2  0  0  3  0  0  0  0  0  0
  190.1650  176.8100  145.9810 C   0  0  0  0  0  1  0  0  0  0  0  0
  190.3080  177.3470  140.4990 N   0  0  0  0  0  2  0  0  0  0  0  0
  189.7140  177.3640  142.8040 N   0  0  0  0  0  0  0  0  0  0  0  0
  188.7800  177.5560  143.8680 C   0  0  0  0  0  0  0  0  0  0  0  0
  188.9470  177.3260  145.2900 C   0  0  0  0  0  0  0  0  0  0  0  0
  187.5600  177.9920  143.6180 C   0  0  0  0  0  0  0  0  0  0  0  0
  187.1310  178.2820  142.2630 N   0  0  0  0  0  0  0  0  0  0  0  0
  187.7990  177.6360  145.8760 C   0  0  2  0  0  3  0  0  0  0  0  0
  188.0830  178.0760  141.1840 C   0  0  0  0  0  0  0  0  0  0  0  0
  191.3780  176.8060  142.9270 S   0  0  0  0  0  0  0  0  0  0  0  0
  187.6990  178.3380  139.7600 C   0  0  0  0  0  1  0  0  0  0  0  0
  185.8050  178.7330  141.9300 C   0  0  0  0  0  3  0  0  0  0  0  0
  184.7200  177.9680  141.9990 C   0  0  0  0  0  3  0  0  0  0  0  0
  183.3860  178.5120  141.6220 C   0  0  0  0  0  2  0  0  0  0  0  0
  182.6560  177.5280  140.7180 C   0  0  0  0  0  2  0  0  0  0  0  0
  181.0060  179.0720  139.4830 C   0  0  1  0  0  0  0  0  0  0  0  0
  180.9580  177.7780  138.9130 O   0  0  0  0  0  0  0  0  0  0  0  0
  182.2070  178.1960  139.4210 C   0  0  2  0  0  0  0  0  0  0  0  0
  179.8160  182.7550  137.1920 C   0  0  0  0  0  2  0  0  0  0  0  0
  179.4850  182.0280  138.3540 O   0  0  0  0  0  0  0  0  0  0  0  0
  180.6680  181.9780  136.1670 C   0  0  1  0  0  3  0  0  0  0  0  0
  180.7810  180.0920  138.4610 N   0  0  0  0  0  0  0  0  0  0  0  0
  180.3450  180.5160  136.0870 C   0  0  0  0  0  3  0  0  0  0  0  0
  180.5250  182.5860  134.8560 N   0  0  0  0  0  1  0  0  0  0  0  0
  180.6680  181.4880  138.8790 C   0  0  0  0  0  2  0  0  0  0  0  0
  180.4420  179.6770  137.1260 C   0  0  0  0  0  3  0  0  0  0  0  0
  180.2050  179.1250  140.6360 O   0  0  0  0  0  0  0  0  0  0  0  0
  178.9930  178.5130  140.2990 C   0  0  0  0  0  1  0  0  0  0  0  0
  183.1510  178.5390  138.4370 O   0  0  0  0  0  0  0  0  0  0  0  0
  183.8750  177.3780  138.1290 C   0  0  0  0  0  2  0  0  0  0  0  0
  185.9790  176.8480  136.9720 C   0  0  0  0  0  2  0  0  0  0  0  0
  184.9720  177.6990  137.1660 C   0  0  0  0  0  3  0  0  0  0  0  0
  192.7160  177.6270  140.6390 C   0  0  0  0  0  2  0  0  0  0  0  0
  193.5280  176.8690  139.7070 N   0  0  0  0  0  2  0  0  0  0  0  0
  192.7550  176.7400  138.4850 C   0  0  0  0  0  2  0  0  0  0  0  0
  193.5950  176.0640  137.4170 C   0  0  0  0  0  2  0  0  0  0  0  0
  193.3420  174.5680  137.4050 C   0  0  1  0  0  3  0  0  0  0  0  0
  191.3240  173.4680  136.4610 C   0  0  1  0  0  0  0  0  0  0  0  0
  192.6150  174.1820  136.1270 C   0  0  1  0  0  3  0  0  0  0  0  0
  191.3070  174.9370  136.0220 C   0  0  2  0  0  3  0  0  0  0  0  0
  189.2800  172.7180  135.4390 C   0  0  0  0  0  2  0  0  0  0  0  0
  188.9910  174.0360  136.1370 C   0  0  0  0  0  2  0  0  0  0  0  0
  190.7850  172.6500  135.3070 C   0  0  0  0  0  2  0  0  0  0  0  0
  190.2320  174.3950  136.9410 C   0  0  1  0  0  3  0  0  0  0  0  0
  194.6070  173.8570  137.4780 N   0  0  0  0  0  2  0  0  0  0  0  0
  195.4980  174.6790  138.1790 N   0  0  0  0  0  2  0  0  0  0  0  0
  196.7720  173.9730  138.2400 C   0  0  2  0  0  3  0  0  0  0  0  0
  197.8390  174.6090  137.3450 C   0  0  1  0  0  3  0  0  0  0  0  0
  197.0920  173.3750  136.8860 C   0  0  0  0  0  2  0  0  0  0  0  0
  197.3400  175.7750  136.6270 N   0  0  0  0  0  1  0  0  0  0  0  0
  2 12  1  0  0  0  0
  3  7  1  0  0  0  0
  4 37  1  1  0  0  0
  4 14  1  0  0  0  0
  6  4  1  0  0  0  0
  6  3  1  0  0  0  0
  7 14  1  0  0  0  0
  7  8  1  0  0  0  0
  8  9  2  0  0  0  0
  9 12  1  0  0  0  0
  9  5  1  0  0  0  0
 10  8  1  0  0  0  0
 10  2  2  0  0  0  0
 11 10  1  0  0  0  0
 12  1  1  6  0  0  0
 13  3  2  0  0  0  0
 13 11  1  0  0  0  0
 15 13  1  0  0  0  0
 16 17  2  0  0  0  0
 16 11  1  0  0  0  0
 18 17  1  0  0  0  0
 19 18  1  0  0  0  0
 20 31  1  1  0  0  0
 21 22  1  0  0  0  0
 21 20  1  0  0  0  0
 22 20  1  0  0  0  0
 22 19  1  1  0  0  0
 23 24  1  0  0  0  0
 24 29  1  0  0  0  0
 25 28  1  6  0  0  0
 25 23  1  0  0  0  0
 26 29  1  0  0  0  0
 26 20  1  0  0  0  0
 27 25  1  0  0  0  0
 27 30  2  0  0  0  0
 30 26  1  0  0  0  0
 32 31  1  0  0  0  0
 33 22  1  0  0  0  0
 34 33  1  0  0  0  0
 35 36  2  0  0  0  0
 36 34  1  0  0  0  0
 38 37  1  0  0  0  0
 39 38  1  0  0  0  0
 40 39  1  0  0  0  0
 41 40  1  6  0  0  0
 41 49  1  0  0  0  0
 42 47  1  6  0  0  0
 42 48  1  0  0  0  0
 43 42  1  0  0  0  0
 43 41  1  1  0  0  0
 44 43  1  0  0  0  0
 44 42  1  0  0  0  0
 44 48  1  0  0  0  0
 45 46  1  0  0  0  0
 46 48  1  0  0  0  0
 47 45  1  0  0  0  0
 49 50  1  0  0  0  0
 50 51  1  0  0  0  0
 52 51  1  0  0  0  0
 53 52  1  0  0  0  0
 53 51  1  0  0  0  0
 54 52  1  0  0  0  0
M  END
>  <MODEL>
6

>  <REMARK>
 VINA RESULT:      -6.5      2.375      3.844
  Name = 
  18 active torsions:
  status: ('A' for Active; 'I' for Inactive)
    1  A    between atoms: C_3  and  N_17
    2  A    between atoms: C_3  and  O_33
    3  A    between atoms: C_5  and  O_36
    4  A    between atoms: C_5  and  C_47
    5  A    between atoms: C_7  and  C_46
    6  A    between atoms: C_7  and  C_48
    7  A    between atoms: C_9  and  C_48
    8  A    between atoms: C_10  and  N_32
    9  A    between atoms: C_12  and  C_22
   10  A    between atoms: C_12  and  N_26
   11  A    between atoms: C_15  and  N_40
   12  A    between atoms: C_16  and  C_25
   13  A    between atoms: C_16  and  C_44
   14  A    between atoms: N_26  and  C_46
   15  A    between atoms: N_32  and  N_38
   16  A    between atoms: O_36  and  C_45
   17  A    between atoms: N_38  and  C_48
   18  A    between atoms: C_44  and  C_45
                            x       y       z     vdW  Elec       q    Type
                         _______ _______ _______ _____ _____    ______ ____

>  <TORSDO>
F 18

$$$$
=
 OpenBabel11032421073D

 54 62  0  0  1  0  0  0  0  0999 V2000
  188.0140  177.5250  149.0280 N   0  0  0  0  0  1  0  0  0  0  0  0
  186.6670  178.1440  146.9150 C   0  0  0  0  0  3  0  0  0  0  0  0
  188.2530  177.6090  142.9670 C   0  0  0  0  0  0  0  0  0  0  0  0
  190.2660  176.7250  142.0340 C   0  0  2  0  0  3  0  0  0  0  0  0
  190.1890  176.7520  147.1180 C   0  0  0  0  0  1  0  0  0  0  0  0
  188.9550  177.3120  141.7770 N   0  0  0  0  0  2  0  0  0  0  0  0
  188.9650  177.3340  144.1570 N   0  0  0  0  0  0  0  0  0  0  0  0
  188.3370  177.5470  145.4230 C   0  0  0  0  0  0  0  0  0  0  0  0
  188.8510  177.3050  146.7570 C   0  0  0  0  0  0  0  0  0  0  0  0
  187.1060  178.0180  145.4880 C   0  0  0  0  0  0  0  0  0  0  0  0
  186.3570  178.3270  144.2850 N   0  0  0  0  0  0  0  0  0  0  0  0
  187.8990  177.6450  147.6130 C   0  0  2  0  0  3  0  0  0  0  0  0
  186.9980  178.0990  143.0020 C   0  0  0  0  0  0  0  0  0  0  0  0
  190.5900  176.7290  143.8570 S   0  0  0  0  0  0  0  0  0  0  0  0
  186.2740  178.3790  141.7210 C   0  0  0  0  0  1  0  0  0  0  0  0
  185.0030  178.8170  144.2980 C   0  0  0  0  0  3  0  0  0  0  0  0
  184.0330  178.3430  143.5210 C   0  0  0  0  0  3  0  0  0  0  0  0
  182.6610  178.9180  143.5880 C   0  0  0  0  0  2  0  0  0  0  0  0
  182.3780  179.7460  142.3420 C   0  0  0  0  0  2  0  0  0  0  0  0
  181.9370  178.5330  140.1130 C   0  0  1  0  0  0  0  0  0  0  0  0
  181.1220  179.6860  140.1930 O   0  0  0  0  0  0  0  0  0  0  0  0
  181.4040  179.0310  141.4110 C   0  0  2  0  0  0  0  0  0  0  0  0
  178.9500  175.9610  137.9480 C   0  0  0  0  0  2  0  0  0  0  0  0
  179.0200  177.0410  138.8520 O   0  0  0  0  0  0  0  0  0  0  0  0
  180.2600  175.1590  137.8000 C   0  0  1  0  0  3  0  0  0  0  0  0
  181.2490  177.4650  139.3920 N   0  0  0  0  0  0  0  0  0  0  0  0
  181.0530  175.0440  139.0670 C   0  0  0  0  0  3  0  0  0  0  0  0
  179.9620  173.8340  137.2840 N   0  0  0  0  0  1  0  0  0  0  0  0
  180.1370  177.8180  138.5120 C   0  0  0  0  0  2  0  0  0  0  0  0
  181.5220  176.0980  139.7460 C   0  0  0  0  0  3  0  0  0  0  0  0
  183.2270  178.8810  139.6790 O   0  0  0  0  0  0  0  0  0  0  0  0
  183.0790  179.4010  138.3890 C   0  0  0  0  0  1  0  0  0  0  0  0
  180.3280  178.2960  141.9400 O   0  0  0  0  0  0  0  0  0  0  0  0
  179.2350  179.1690  142.0410 C   0  0  0  0  0  2  0  0  0  0  0  0
  179.2880  178.6290  144.4390 C   0  0  0  0  0  2  0  0  0  0  0  0
  178.9720  179.4930  143.4760 C   0  0  0  0  0  3  0  0  0  0  0  0
  191.3280  177.5240  141.3030 C   0  0  0  0  0  2  0  0  0  0  0  0
  190.9810  177.6380  139.8990 N   0  0  0  0  0  2  0  0  0  0  0  0
  191.8400  176.7160  139.1780 C   0  0  0  0  0  2  0  0  0  0  0  0
  191.0130  175.9060  138.1970 C   0  0  0  0  0  2  0  0  0  0  0  0
  191.7650  175.7130  136.8940 C   0  0  1  0  0  3  0  0  0  0  0  0
  193.6100  174.3030  136.0120 C   0  0  1  0  0  0  0  0  0  0  0  0
  192.3430  174.3090  136.8380 C   0  0  1  0  0  3  0  0  0  0  0  0
  193.6820  174.2670  137.5430 C   0  0  2  0  0  3  0  0  0  0  0  0
  195.4970  172.9070  135.4860 C   0  0  0  0  0  2  0  0  0  0  0  0
  195.9350  173.8920  136.5570 C   0  0  0  0  0  2  0  0  0  0  0  0
  193.9850  172.9230  135.5150 C   0  0  0  0  0  2  0  0  0  0  0  0
  194.8000  174.8910  136.7330 C   0  0  1  0  0  3  0  0  0  0  0  0
  190.8610  175.9120  135.7740 N   0  0  0  0  0  2  0  0  0  0  0  0
  189.5990  176.1930  136.3110 N   0  0  0  0  0  2  0  0  0  0  0  0
  188.6120  175.6200  135.4040 C   0  0  2  0  0  3  0  0  0  0  0  0
  187.1810  175.7580  135.9310 C   0  0  1  0  0  3  0  0  0  0  0  0
  187.9230  174.4470  136.0690 C   0  0  0  0  0  2  0  0  0  0  0  0
  187.1270  176.4250  137.2250 N   0  0  0  0  0  1  0  0  0  0  0  0
  2 12  1  0  0  0  0
  3 13  2  0  0  0  0
  3  7  1  0  0  0  0
  4 37  1  6  0  0  0
  4 14  1  0  0  0  0
  6  4  1  0  0  0  0
  6  3  1  0  0  0  0
  7  8  1  0  0  0  0
  8 10  1  0  0  0  0
  8  9  2  0  0  0  0
  9  5  1  0  0  0  0
  9 12  1  0  0  0  0
 10  2  2  0  0  0  0
 11 16  1  0  0  0  0
 11 10  1  0  0  0  0
 12  1  1  6  0  0  0
 13 11  1  0  0  0  0
 14  7  1  0  0  0  0
 15 13  1  0  0  0  0
 17 18  1  0  0  0  0
 17 16  2  0  0  0  0
 19 18  1  0  0  0  0
 20 31  1  6  0  0  0
 20 21  1  0  0  0  0
 20 22  1  0  0  0  0
 21 22  1  0  0  0  0
 22 33  1  0  0  0  0
 22 19  1  1  0  0  0
 23 24  1  0  0  0  0
 25 28  1  1  0  0  0
 25 23  1  0  0  0  0
 25 27  1  0  0  0  0
 26 30  1  0  0  0  0
 26 20  1  0  0  0  0
 27 30  2  0  0  0  0
 29 24  1  0  0  0  0
 29 26  1  0  0  0  0
 32 31  1  0  0  0  0
 33 34  1  0  0  0  0
 34 36  1  0  0  0  0
 36 35  2  0  0  0  0
 38 37  1  0  0  0  0
 39 38  1  0  0  0  0
 40 39  1  0  0  0  0
 41 40  1  1  0  0  0
 42 47  1  6  0  0  0
 42 48  1  0  0  0  0
 42 43  1  0  0  0  0
 42 44  1  0  0  0  0
 43 41  1  1  0  0  0
 43 44  1  0  0  0  0
 45 47  1  0  0  0  0
 45 46  1  0  0  0  0
 46 48  1  0  0  0  0
 48 44  1  0  0  0  0
 49 50  1  0  0  0  0
 49 41  1  0  0  0  0
 51 52  1  0  0  0  0
 51 53  1  0  0  0  0
 51 50  1  0  0  0  0
 52 53  1  0  0  0  0
 52 54  1  0  0  0  0
M  END
>  <MODEL>
7

>  <REMARK>
 VINA RESULT:      -6.2      1.661      3.538
  Name = 
  18 active torsions:
  status: ('A' for Active; 'I' for Inactive)
    1  A    between atoms: C_3  and  N_17
    2  A    between atoms: C_3  and  O_33
    3  A    between atoms: C_5  and  O_36
    4  A    between atoms: C_5  and  C_47
    5  A    between atoms: C_7  and  C_46
    6  A    between atoms: C_7  and  C_48
    7  A    between atoms: C_9  and  C_48
    8  A    between atoms: C_10  and  N_32
    9  A    between atoms: C_12  and  C_22
   10  A    between atoms: C_12  and  N_26
   11  A    between atoms: C_15  and  N_40
   12  A    between atoms: C_16  and  C_25
   13  A    between atoms: C_16  and  C_44
   14  A    between atoms: N_26  and  C_46
   15  A    between atoms: N_32  and  N_38
   16  A    between atoms: O_36  and  C_45
   17  A    between atoms: N_38  and  C_48
   18  A    between atoms: C_44  and  C_45
                            x       y       z     vdW  Elec       q    Type
                         _______ _______ _______ _____ _____    ______ ____

>  <TORSDO>
F 18

$$$$
=
 OpenBabel11032421073D

 54 62  0  0  1  0  0  0  0  0999 V2000
  189.7620  176.8700  146.2840 N   0  0  0  0  0  1  0  0  0  0  0  0
  190.3030  177.1620  143.7770 C   0  0  0  0  0  3  0  0  0  0  0  0
  187.3260  178.3490  140.9290 C   0  0  0  0  0  0  0  0  0  0  0  0
  185.0190  178.9630  141.0170 C   0  0  2  0  0  3  0  0  0  0  0  0
  186.9600  177.6020  145.5140 C   0  0  0  0  0  1  0  0  0  0  0  0
  186.2040  178.7830  140.1850 N   0  0  0  0  0  2  0  0  0  0  0  0
  187.0730  178.1260  142.3020 N   0  0  0  0  0  0  0  0  0  0  0  0
  188.1420  177.7350  143.1640 C   0  0  0  0  0  0  0  0  0  0  0  0
  188.1280  177.4880  144.5930 C   0  0  0  0  0  0  0  0  0  0  0  0
  189.3590  177.5590  142.6840 C   0  0  0  0  0  0  0  0  0  0  0  0
  189.6450  177.7620  141.2770 N   0  0  0  0  0  0  0  0  0  0  0  0
  189.3630  177.1600  144.9480 C   0  0  2  0  0  3  0  0  0  0  0  0
  188.5550  178.1690  140.4070 C   0  0  0  0  0  0  0  0  0  0  0  0
  185.3900  178.4000  142.7400 S   0  0  0  0  0  0  0  0  0  0  0  0
  188.7860  178.4150  138.9480 C   0  0  0  0  0  1  0  0  0  0  0  0
  190.9580  177.6110  140.7050 C   0  0  0  0  0  3  0  0  0  0  0  0
  191.2250  176.8530  139.6460 C   0  0  0  0  0  3  0  0  0  0  0  0
  192.6170  176.7410  139.1270 C   0  0  0  0  0  2  0  0  0  0  0  0
  192.6100  176.7460  137.6040 C   0  0  0  0  0  2  0  0  0  0  0  0
  194.4070  175.2470  136.5290 C   0  0  1  0  0  0  0  0  0  0  0  0
  193.2950  175.3480  135.6600 O   0  0  0  0  0  0  0  0  0  0  0  0
  193.0180  175.3860  137.0440 C   0  0  2  0  0  0  0  0  0  0  0  0
  195.4000  170.9660  135.5730 C   0  0  0  0  0  2  0  0  0  0  0  0
  194.3050  171.8520  135.6410 O   0  0  0  0  0  0  0  0  0  0  0  0
  196.6710  171.4560  136.2970 C   0  0  1  0  0  3  0  0  0  0  0  0
  195.0270  173.9290  136.4200 N   0  0  0  0  0  0  0  0  0  0  0  0
  196.4000  172.2390  137.5470 C   0  0  0  0  0  3  0  0  0  0  0  0
  197.5230  170.3210  136.6040 N   0  0  0  0  0  1  0  0  0  0  0  0
  194.7480  173.1190  135.2350 C   0  0  0  0  0  2  0  0  0  0  0  0
  195.6880  173.3730  137.5710 C   0  0  0  0  0  3  0  0  0  0  0  0
  195.2410  176.3680  136.3810 O   0  0  0  0  0  0  0  0  0  0  0  0
  195.5260  176.4660  135.0150 C   0  0  0  0  0  1  0  0  0  0  0  0
  192.4460  174.2080  137.5570 O   0  0  0  0  0  0  0  0  0  0  0  0
  191.1410  174.1230  137.0510 C   0  0  0  0  0  2  0  0  0  0  0  0
  190.2600  173.0930  135.0000 C   0  0  0  0  0  2  0  0  0  0  0  0
  191.0450  172.9970  136.0720 C   0  0  0  0  0  3  0  0  0  0  0  0
  183.8680  178.1660  140.4320 C   0  0  0  0  0  2  0  0  0  0  0  0
  183.3460  178.8400  139.2590 N   0  0  0  0  0  2  0  0  0  0  0  0
  182.9650  177.8050  138.3140 C   0  0  0  0  0  2  0  0  0  0  0  0
  183.8990  177.8370  137.1180 C   0  0  0  0  0  2  0  0  0  0  0  0
  184.2910  176.4290  136.7100 C   0  0  1  0  0  3  0  0  0  0  0  0
  183.4040  174.1480  136.2800 C   0  0  1  0  0  0  0  0  0  0  0  0
  183.1190  175.4860  136.9260 C   0  0  1  0  0  3  0  0  0  0  0  0
  183.5390  174.3220  137.7970 C   0  0  2  0  0  3  0  0  0  0  0  0
  182.5770  171.8910  136.2040 C   0  0  0  0  0  2  0  0  0  0  0  0
  183.7460  171.9230  137.1740 C   0  0  0  0  0  2  0  0  0  0  0  0
  182.1530  173.3330  136.0330 C   0  0  0  0  0  2  0  0  0  0  0  0
  184.3810  173.3010  137.0600 C   0  0  1  0  0  3  0  0  0  0  0  0
  184.6730  176.4150  135.3070 N   0  0  0  0  0  2  0  0  0  0  0  0
  186.0560  176.2010  135.2610 N   0  0  0  0  0  2  0  0  0  0  0  0
  186.6470  177.3680  134.6170 C   0  0  2  0  0  3  0  0  0  0  0  0
  188.1570  177.4630  134.8460 C   0  0  1  0  0  3  0  0  0  0  0  0
  187.2050  178.3070  135.6650 C   0  0  0  0  0  2  0  0  0  0  0  0
  188.6660  176.3700  135.6640 N   0  0  0  0  0  1  0  0  0  0  0  0
  2 12  1  0  0  0  0
  3  7  1  0  0  0  0
  4 37  1  6  0  0  0
  4 14  1  0  0  0  0
  6  3  1  0  0  0  0
  6  4  1  0  0  0  0
  7 14  1  0  0  0  0
  7  8  1  0  0  0  0
  8  9  2  0  0  0  0
  9 12  1  0  0  0  0
  9  5  1  0  0  0  0
 10  8  1  0  0  0  0
 10  2  2  0  0  0  0
 11 10  1  0  0  0  0
 12  1  1  1  0  0  0
 13  3  2  0  0  0  0
 13 11  1  0  0  0  0
 15 13  1  0  0  0  0
 16 11  1  0  0  0  0
 17 16  2  0  0  0  0
 18 17  1  0  0  0  0
 19 18  1  0  0  0  0
 20 31  1  1  0  0  0
 20 22  1  0  0  0  0
 21 20  1  0  0  0  0
 21 22  1  0  0  0  0
 22 33  1  0  0  0  0
 22 19  1  1  0  0  0
 23 24  1  0  0  0  0
 23 25  1  0  0  0  0
 25 28  1  1  0  0  0
 25 27  1  0  0  0  0
 26 20  1  0  0  0  0
 26 30  1  0  0  0  0
 27 30  2  0  0  0  0
 29 24  1  0  0  0  0
 29 26  1  0  0  0  0
 32 31  1  0  0  0  0
 34 33  1  0  0  0  0
 35 36  2  0  0  0  0
 36 34  1  0  0  0  0
 38 37  1  0  0  0  0
 39 38  1  0  0  0  0
 40 39  1  0  0  0  0
 41 40  1  6  0  0  0
 42 47  1  6  0  0  0
 42 43  1  0  0  0  0
 42 48  1  0  0  0  0
 42 44  1  0  0  0  0
 43 41  1  6  0  0  0
 43 44  1  0  0  0  0
 45 46  1  0  0  0  0
 47 45  1  0  0  0  0
 48 46  1  0  0  0  0
 48 44  1  0  0  0  0
 49 41  1  0  0  0  0
 50 49  1  0  0  0  0
 51 52  1  0  0  0  0
 51 50  1  0  0  0  0
 51 53  1  0  0  0  0
 52 54  1  0  0  0  0
 52 53  1  0  0  0  0
M  END
>  <MODEL>
8

>  <REMARK>
 VINA RESULT:      -6.2      3.819      9.664
  Name = 
  18 active torsions:
  status: ('A' for Active; 'I' for Inactive)
    1  A    between atoms: C_3  and  N_17
    2  A    between atoms: C_3  and  O_33
    3  A    between atoms: C_5  and  O_36
    4  A    between atoms: C_5  and  C_47
    5  A    between atoms: C_7  and  C_46
    6  A    between atoms: C_7  and  C_48
    7  A    between atoms: C_9  and  C_48
    8  A    between atoms: C_10  and  N_32
    9  A    between atoms: C_12  and  C_22
   10  A    between atoms: C_12  and  N_26
   11  A    between atoms: C_15  and  N_40
   12  A    between atoms: C_16  and  C_25
   13  A    between atoms: C_16  and  C_44
   14  A    between atoms: N_26  and  C_46
   15  A    between atoms: N_32  and  N_38
   16  A    between atoms: O_36  and  C_45
   17  A    between atoms: N_38  and  C_48
   18  A    between atoms: C_44  and  C_45
                            x       y       z     vdW  Elec       q    Type
                         _______ _______ _______ _____ _____    ______ ____

>  <TORSDO>
F 18

$$$$
=
 OpenBabel11032421073D

 54 62  0  0  1  0  0  0  0  0999 V2000
  189.7820  176.8520  147.1710 N   0  0  0  0  0  1  0  0  0  0  0  0
  189.9390  177.1140  144.6080 C   0  0  0  0  0  3  0  0  0  0  0  0
  186.6170  178.4480  142.2470 C   0  0  0  0  0  0  0  0  0  0  0  0
  184.3860  179.1780  142.6880 C   0  0  2  0  0  3  0  0  0  0  0  0
  186.9350  177.7250  146.8400 C   0  0  0  0  0  1  0  0  0  0  0  0
  185.4170  178.9370  141.6840 N   0  0  0  0  0  2  0  0  0  0  0  0
  186.5710  178.2390  143.6450 N   0  0  0  0  0  0  0  0  0  0  0  0
  187.7410  177.7950  144.3340 C   0  0  0  0  0  0  0  0  0  0  0  0
  187.9380  177.5500  145.7490 C   0  0  0  0  0  0  0  0  0  0  0  0
  188.8570  177.5570  143.6710 C   0  0  0  0  0  0  0  0  0  0  0  0
  188.9310  177.7440  142.2350 N   0  0  0  0  0  0  0  0  0  0  0  0
  189.1950  177.1610  145.9100 C   0  0  2  0  0  3  0  0  0  0  0  0
  187.7400  178.2050  141.5420 C   0  0  0  0  0  0  0  0  0  0  0  0
  184.9930  178.5980  144.3370 S   0  0  0  0  0  0  0  0  0  0  0  0
  187.7520  178.4380  140.0630 C   0  0  0  0  0  1  0  0  0  0  0  0
  190.1290  177.5260  141.4670 C   0  0  0  0  0  3  0  0  0  0  0  0
  190.1540  176.9200  140.2840 C   0  0  0  0  0  3  0  0  0  0  0  0
  191.4420  176.7230  139.5620 C   0  0  0  0  0  2  0  0  0  0  0  0
  191.2260  176.8520  138.0600 C   0  0  0  0  0  2  0  0  0  0  0  0
  193.0710  175.5420  136.8300 C   0  0  1  0  0  0  0  0  0  0  0  0
  191.9770  175.7500  135.9570 O   0  0  0  0  0  0  0  0  0  0  0  0
  191.6690  175.5900  137.3260 C   0  0  2  0  0  0  0  0  0  0  0  0
  194.1130  171.4150  135.3790 C   0  0  0  0  0  2  0  0  0  0  0  0
  193.0020  172.2590  135.5910 O   0  0  0  0  0  0  0  0  0  0  0  0
  195.4060  171.8610  136.0920 C   0  0  1  0  0  3  0  0  0  0  0  0
  193.7140  174.2610  136.5530 N   0  0  0  0  0  0  0  0  0  0  0  0
  195.1770  172.5000  137.4290 C   0  0  0  0  0  3  0  0  0  0  0  0
  196.2970  170.7240  136.2380 N   0  0  0  0  0  1  0  0  0  0  0  0
  193.3970  173.5730  135.3030 C   0  0  0  0  0  2  0  0  0  0  0  0
  194.4430  173.6050  137.6070 C   0  0  0  0  0  3  0  0  0  0  0  0
  193.8900  176.6840  136.8600 O   0  0  0  0  0  0  0  0  0  0  0  0
  194.6820  176.6270  135.7090 C   0  0  0  0  0  1  0  0  0  0  0  0
  191.1050  174.3440  137.6550 O   0  0  0  0  0  0  0  0  0  0  0  0
  189.7650  174.3700  137.2410 C   0  0  0  0  0  2  0  0  0  0  0  0
  188.2860  172.6220  136.3440 C   0  0  0  0  0  2  0  0  0  0  0  0
  189.4840  173.2050  136.3470 C   0  0  0  0  0  3  0  0  0  0  0  0
  183.1200  178.4390  142.2960 C   0  0  0  0  0  2  0  0  0  0  0  0
  182.8450  178.6420  140.8870 N   0  0  0  0  0  2  0  0  0  0  0  0
  181.8710  177.6370  140.5000 C   0  0  0  0  0  2  0  0  0  0  0  0
  181.0230  178.1600  139.3560 C   0  0  0  0  0  2  0  0  0  0  0  0
  181.8880  178.4780  138.1500 C   0  0  1  0  0  3  0  0  0  0  0  0
  183.6580  177.4700  136.7280 C   0  0  1  0  0  0  0  0  0  0  0  0
  182.4170  177.1880  137.5450 C   0  0  1  0  0  3  0  0  0  0  0  0
  183.7730  176.8560  138.1280 C   0  0  2  0  0  3  0  0  0  0  0  0
  185.4810  176.3400  135.6390 C   0  0  0  0  0  2  0  0  0  0  0  0
  185.9830  176.8380  136.9850 C   0  0  0  0  0  2  0  0  0  0  0  0
  183.9720  176.3750  135.7320 C   0  0  0  0  0  2  0  0  0  0  0  0
  184.8880  177.7170  137.5690 C   0  0  1  0  0  3  0  0  0  0  0  0
  181.1010  179.1930  137.1590 N   0  0  0  0  0  2  0  0  0  0  0  0
  181.0700  180.5360  137.5530 N   0  0  0  0  0  2  0  0  0  0  0  0
  180.8250  181.3270  136.3530 C   0  0  2  0  0  3  0  0  0  0  0  0
  180.1220  182.6520  136.6570 C   0  0  1  0  0  3  0  0  0  0  0  0
  179.3340  181.4730  136.1300 C   0  0  0  0  0  2  0  0  0  0  0  0
  179.8490  182.8240  138.0780 N   0  0  0  0  0  1  0  0  0  0  0  0
  2 12  1  0  0  0  0
  3  7  1  0  0  0  0
  4 37  1  6  0  0  0
  4 14  1  0  0  0  0
  6  3  1  0  0  0  0
  6  4  1  0  0  0  0
  7  8  1  0  0  0  0
  7 14  1  0  0  0  0
  8  9  2  0  0  0  0
  9 12  1  0  0  0  0
  9  5  1  0  0  0  0
 10  8  1  0  0  0  0
 10  2  2  0  0  0  0
 11 10  1  0  0  0  0
 12  1  1  1  0  0  0
 13 11  1  0  0  0  0
 13  3  2  0  0  0  0
 15 13  1  0  0  0  0
 16 11  1  0  0  0  0
 17 16  2  0  0  0  0
 18 17  1  0  0  0  0
 19 18  1  0  0  0  0
 20 31  1  1  0  0  0
 20 22  1  0  0  0  0
 21 20  1  0  0  0  0
 21 22  1  0  0  0  0
 22 33  1  0  0  0  0
 22 19  1  1  0  0  0
 23 24  1  0  0  0  0
 23 25  1  0  0  0  0
 25 28  1  1  0  0  0
 25 27  1  0  0  0  0
 26 20  1  0  0  0  0
 26 30  1  0  0  0  0
 27 30  2  0  0  0  0
 29 24  1  0  0  0  0
 29 26  1  0  0  0  0
 32 31  1  0  0  0  0
 34 33  1  0  0  0  0
 35 36  2  0  0  0  0
 36 34  1  0  0  0  0
 38 37  1  0  0  0  0
 39 38  1  0  0  0  0
 40 39  1  0  0  0  0
 41 40  1  1  0  0  0
 42 47  1  6  0  0  0
 42 43  1  0  0  0  0
 42 48  1  0  0  0  0
 42 44  1  0  0  0  0
 43 44  1  0  0  0  0
 43 41  1  1  0  0  0
 45 47  1  0  0  0  0
 45 46  1  0  0  0  0
 46 48  1  0  0  0  0
 48 44  1  0  0  0  0
 49 50  1  0  0  0  0
 49 41  1  0  0  0  0
 51 52  1  0  0  0  0
 51 50  1  0  0  0  0
 52 54  1  0  0  0  0
 53 51  1  0  0  0  0
 53 52  1  0  0  0  0
M  END
>  <MODEL>
9

>  <REMARK>
 VINA RESULT:      -6.2      3.585     10.104
  Name = 
  18 active torsions:
  status: ('A' for Active; 'I' for Inactive)
    1  A    between atoms: C_3  and  N_17
    2  A    between atoms: C_3  and  O_33
    3  A    between atoms: C_5  and  O_36
    4  A    between atoms: C_5  and  C_47
    5  A    between atoms: C_7  and  C_46
    6  A    between atoms: C_7  and  C_48
    7  A    between atoms: C_9  and  C_48
    8  A    between atoms: C_10  and  N_32
    9  A    between atoms: C_12  and  C_22
   10  A    between atoms: C_12  and  N_26
   11  A    between atoms: C_15  and  N_40
   12  A    between atoms: C_16  and  C_25
   13  A    between atoms: C_16  and  C_44
   14  A    between atoms: N_26  and  C_46
   15  A    between atoms: N_32  and  N_38
   16  A    between atoms: O_36  and  C_45
   17  A    between atoms: N_38  and  C_48
   18  A    between atoms: C_44  and  C_45
                            x       y       z     vdW  Elec       q    Type
                         _______ _______ _______ _____ _____    ______ ____

>  <TORSDO>
F 18

$$$$
