=
 OpenBabel11042410113D

 32 35  0  0  1  0  0  0  0  0999 V2000
  190.7050  178.3270  144.2420 C   0  0  0  0  0  2  0  0  0  0  0  0
  190.5240  176.0820  138.7310 C   0  0  0  0  0  3  0  0  0  0  0  0
  190.5890  176.1970  141.1260 O   0  0  0  0  0  0  0  0  0  0  0  0
  188.9580  178.1040  142.2720 C   0  0  0  0  0  2  0  0  0  0  0  0
  190.1760  176.5960  137.4770 C   0  0  0  0  0  0  0  0  0  0  0  0
  189.0950  178.4710  138.5690 C   0  0  0  0  0  3  0  0  0  0  0  0
  189.4700  177.8020  137.4030 C   0  0  0  0  0  3  0  0  0  0  0  0
  189.4220  177.9520  139.8260 C   0  0  0  0  0  0  0  0  0  0  0  0
  191.3860  178.2760  141.9120 O   0  0  0  0  0  0  0  0  0  0  0  0
  191.2450  176.8960  142.1940 C   0  0  1  0  0  3  0  0  0  0  0  0
  190.1770  176.7570  139.9070 C   0  0  0  0  0  0  0  0  0  0  0  0
  190.3710  177.9150  142.8180 C   0  0  1  0  0  0  0  0  0  0  0  0
  188.9630  178.6430  140.9540 O   0  0  0  0  0  0  0  0  0  0  0  0
  189.6950  174.9480  135.6850 O   0  0  0  0  0  0  0  0  0  0  0  0
  191.6740  176.0940  135.7050 O   0  0  0  0  0  1  0  0  0  0  0  0
  190.5590  175.8770  136.2520 C   0  0  0  0  0  0  0  0  0  0  0  0
  190.1720  177.3110  145.2530 C   0  0  1  0  0  3  0  0  0  0  0  0
  191.2960  176.4490  145.8060 C   0  0  0  0  0  2  0  0  0  0  0  0
  191.0990  176.2070  147.2920 C   0  0  0  0  0  2  0  0  0  0  0  0
  192.4150  176.2310  147.9850 C   0  0  0  0  0  0  0  0  0  0  0  0
  193.2690  175.3400  147.7330 O   0  0  0  0  0  0  0  0  0  0  0  0
  192.6810  177.2210  148.9270 O   0  0  0  0  0  0  0  0  0  0  0  0
  193.8070  177.1920  149.6510 O   0  0  0  0  0  1  0  0  0  0  0  0
  189.3700  177.9760  146.3780 C   0  0  0  0  0  2  0  0  0  0  0  0
  185.1520  178.4500  145.6940 C   0  0  0  0  0  0  0  0  0  0  0  0
  185.8580  177.4250  144.8460 C   0  0  0  0  0  2  0  0  0  0  0  0
  187.3530  177.5200  145.0210 C   0  0  0  0  0  3  0  0  0  0  0  0
  186.9790  178.2470  147.3560 C   0  0  0  0  0  2  0  0  0  0  0  0
  187.8810  177.8860  146.2020 C   0  0  0  0  0  0  0  0  0  0  0  0
  185.6770  178.8320  146.8690 C   0  0  0  0  0  3  0  0  0  0  0  0
  183.8370  178.9950  145.2480 C   0  0  0  0  0  2  0  0  0  0  0  0
  183.7780  179.0200  143.8670 F   0  0  0  0  0  0  0  0  0  0  0  0
  2 11  1  0  0  0  0
  4 12  1  0  0  0  0
  5  2  2  0  0  0  0
  6  8  1  0  0  0  0
  7  5  1  0  0  0  0
  7  6  2  0  0  0  0
  8 11  2  0  0  0  0
  8 13  1  0  0  0  0
  9 10  1  0  0  0  0
  9 12  1  0  0  0  0
 10  3  1  6  0  0  0
 10 12  1  0  0  0  0
 11  3  1  0  0  0  0
 12  1  1  1  0  0  0
 13  4  1  0  0  0  0
 14 16  2  0  0  0  0
 15 16  1  0  0  0  0
 16  5  1  0  0  0  0
 17  1  1  6  0  0  0
 17 18  1  0  0  0  0
 17 24  1  0  0  0  0
 18 19  1  0  0  0  0
 19 20  1  0  0  0  0
 20 22  1  0  0  0  0
 21 20  2  0  0  0  0
 22 23  1  0  0  0  0
 25 30  2  0  0  0  0
 26 27  1  0  0  0  0
 26 25  1  0  0  0  0
 27 29  2  0  0  0  0
 29 24  1  0  0  0  0
 29 28  1  0  0  0  0
 30 28  1  0  0  0  0
 31 25  1  0  0  0  0
 32 31  1  0  0  0  0
M  END
>  <MODEL>
1

>  <REMARK>
 VINA RESULT:      -8.7      0.000      0.000
  Name = 
  10 active torsions:
  status: ('A' for Active; 'I' for Inactive)
    1  A    between atoms: O_2  and  C_12
    2  A    between atoms: C_4  and  C_5
    3  A    between atoms: C_4  and  C_30
    4  A    between atoms: C_5  and  C_8
    5  A    between atoms: C_5  and  C_15
    6  A    between atoms: C_7  and  C_25
    7  A    between atoms: C_8  and  C_32
    8  A    between atoms: C_12  and  C_32
    9  A    between atoms: C_13  and  C_22
   10  A    between atoms: C_15  and  C_19
                            x       y       z     vdW  Elec       q    Type
                         _______ _______ _______ _____ _____    ______ ____

>  <TORSDO>
F 10

$$$$
=
 OpenBabel11042410113D

 32 35  0  0  1  0  0  0  0  0999 V2000
  188.2700  178.7570  140.8780 C   0  0  0  0  0  2  0  0  0  0  0  0
  182.4540  178.6010  142.1420 C   0  0  0  0  0  3  0  0  0  0  0  0
  184.5450  178.1650  141.0500 O   0  0  0  0  0  0  0  0  0  0  0  0
  186.6910  177.7120  142.7210 C   0  0  0  0  0  2  0  0  0  0  0  0
  181.6910  178.9120  143.2730 C   0  0  0  0  0  0  0  0  0  0  0  0
  183.7090  178.8850  144.6160 C   0  0  0  0  0  3  0  0  0  0  0  0
  182.3280  179.0650  144.5090 C   0  0  0  0  0  3  0  0  0  0  0  0
  184.4740  178.5540  143.4940 C   0  0  0  0  0  0  0  0  0  0  0  0
  186.1780  179.8020  141.5300 O   0  0  0  0  0  0  0  0  0  0  0  0
  185.7310  178.8350  140.5980 C   0  0  1  0  0  3  0  0  0  0  0  0
  183.8420  178.4440  142.2310 C   0  0  0  0  0  0  0  0  0  0  0  0
  186.8880  178.5880  141.4870 C   0  0  1  0  0  0  0  0  0  0  0  0
  185.8440  178.3280  143.6840 O   0  0  0  0  0  0  0  0  0  0  0  0
  179.6860  180.3570  143.0470 O   0  0  0  0  0  0  0  0  0  0  0  0
  179.4700  178.0820  143.1530 O   0  0  0  0  0  1  0  0  0  0  0  0
  180.2340  179.0840  143.1560 C   0  0  0  0  0  0  0  0  0  0  0  0
  189.2440  177.7070  141.4130 C   0  0  1  0  0  3  0  0  0  0  0  0
  189.9410  176.9790  140.2740 C   0  0  0  0  0  2  0  0  0  0  0  0
  189.0640  176.9650  139.0350 C   0  0  0  0  0  2  0  0  0  0  0  0
  189.8420  177.4470  137.8620 C   0  0  0  0  0  0  0  0  0  0  0  0
  190.9750  176.9530  137.6190 O   0  0  0  0  0  0  0  0  0  0  0  0
  189.3250  178.4610  137.0610 O   0  0  0  0  0  0  0  0  0  0  0  0
  188.9930  179.6480  137.5860 O   0  0  0  0  0  1  0  0  0  0  0  0
  190.2550  178.3020  142.4010 C   0  0  0  0  0  2  0  0  0  0  0  0
  191.1620  176.5570  146.2240 C   0  0  0  0  0  0  0  0  0  0  0  0
  189.8540  177.2980  146.1180 C   0  0  0  0  0  2  0  0  0  0  0  0
  189.7650  178.0460  144.8110 C   0  0  0  0  0  3  0  0  0  0  0  0
  191.1320  176.2710  143.7620 C   0  0  0  0  0  2  0  0  0  0  0  0
  190.3470  177.5580  143.7020 C   0  0  0  0  0  0  0  0  0  0  0  0
  191.7570  176.0760  145.1210 C   0  0  0  0  0  3  0  0  0  0  0  0
  191.7610  176.3110  147.5670 C   0  0  0  0  0  2  0  0  0  0  0  0
  192.9470  175.6120  147.4350 F   0  0  0  0  0  0  0  0  0  0  0  0
  1 17  1  0  0  0  0
  2 11  2  0  0  0  0
  2  5  1  0  0  0  0
  3 11  1  0  0  0  0
  4 13  1  0  0  0  0
  5  7  2  0  0  0  0
  7  6  1  0  0  0  0
  8 13  1  0  0  0  0
  8  6  2  0  0  0  0
 10  3  1  1  0  0  0
 10 12  1  0  0  0  0
 10  9  1  0  0  0  0
 11  8  1  0  0  0  0
 12  1  1  6  0  0  0
 12  9  1  0  0  0  0
 12  4  1  0  0  0  0
 14 16  2  0  0  0  0
 15 16  1  0  0  0  0
 16  5  1  0  0  0  0
 17 18  1  6  0  0  0
 17 24  1  0  0  0  0
 19 18  1  0  0  0  0
 20 19  1  0  0  0  0
 21 20  2  0  0  0  0
 22 23  1  0  0  0  0
 22 20  1  0  0  0  0
 24 29  1  0  0  0  0
 25 31  1  0  0  0  0
 26 25  1  0  0  0  0
 27 26  1  0  0  0  0
 28 30  1  0  0  0  0
 29 28  1  0  0  0  0
 29 27  2  0  0  0  0
 30 25  2  0  0  0  0
 32 31  1  0  0  0  0
M  END
>  <MODEL>
2

>  <REMARK>
 VINA RESULT:      -8.7      3.882      8.284
  Name = 
  10 active torsions:
  status: ('A' for Active; 'I' for Inactive)
    1  A    between atoms: O_2  and  C_12
    2  A    between atoms: C_4  and  C_5
    3  A    between atoms: C_4  and  C_30
    4  A    between atoms: C_5  and  C_8
    5  A    between atoms: C_5  and  C_15
    6  A    between atoms: C_7  and  C_25
    7  A    between atoms: C_8  and  C_32
    8  A    between atoms: C_12  and  C_32
    9  A    between atoms: C_13  and  C_22
   10  A    between atoms: C_15  and  C_19
                            x       y       z     vdW  Elec       q    Type
                         _______ _______ _______ _____ _____    ______ ____

>  <TORSDO>
F 10

$$$$
=
 OpenBabel11042410113D

 32 35  0  0  1  0  0  0  0  0999 V2000
  189.6640  178.2950  145.3350 C   0  0  0  0  0  2  0  0  0  0  0  0
  191.9020  176.7720  140.0320 C   0  0  0  0  0  3  0  0  0  0  0  0
  191.6260  176.9330  142.4090 O   0  0  0  0  0  0  0  0  0  0  0  0
  189.0350  176.6960  143.3260 C   0  0  0  0  0  2  0  0  0  0  0  0
  191.3990  176.7550  138.7270 C   0  0  0  0  0  0  0  0  0  0  0  0
  189.1510  176.9510  139.6140 C   0  0  0  0  0  3  0  0  0  0  0  0
  190.0180  176.8580  138.5230 C   0  0  0  0  0  3  0  0  0  0  0  0
  189.6460  176.9480  140.9210 C   0  0  0  0  0  0  0  0  0  0  0  0
  190.3040  178.7840  143.0440 O   0  0  0  0  0  0  0  0  0  0  0  0
  191.3280  177.8890  143.4370 C   0  0  1  0  0  3  0  0  0  0  0  0
  191.0460  176.8910  141.1320 C   0  0  0  0  0  0  0  0  0  0  0  0
  189.9420  177.7610  143.9390 C   0  0  1  0  0  0  0  0  0  0  0  0
  188.7170  176.9820  141.9690 O   0  0  0  0  0  0  0  0  0  0  0  0
  191.8450  176.2130  136.3460 O   0  0  0  0  0  0  0  0  0  0  0  0
  193.5370  176.9250  137.7100 O   0  0  0  0  0  1  0  0  0  0  0  0
  192.3160  176.6400  137.5820 C   0  0  0  0  0  0  0  0  0  0  0  0
  188.6840  177.3960  146.0880 C   0  0  1  0  0  3  0  0  0  0  0  0
  189.4010  176.5680  147.1420 C   0  0  0  0  0  2  0  0  0  0  0  0
  190.7540  177.1770  147.4680 C   0  0  0  0  0  2  0  0  0  0  0  0
  191.8290  176.1830  147.2090 C   0  0  0  0  0  0  0  0  0  0  0  0
  192.4990  175.7230  148.1710 O   0  0  0  0  0  0  0  0  0  0  0  0
  192.1060  175.7910  145.9020 O   0  0  0  0  0  0  0  0  0  0  0  0
  192.4130  174.5180  145.6190 O   0  0  0  0  0  1  0  0  0  0  0  0
  187.5180  178.1860  146.6930 C   0  0  0  0  0  2  0  0  0  0  0  0
  183.9430  178.8250  144.3910 C   0  0  0  0  0  0  0  0  0  0  0  0
  185.0600  178.0820  143.7040 C   0  0  0  0  0  2  0  0  0  0  0  0
  186.3220  178.1270  144.5290 C   0  0  0  0  0  3  0  0  0  0  0  0
  184.9230  178.1640  146.5700 C   0  0  0  0  0  2  0  0  0  0  0  0
  186.2610  178.1460  145.8720 C   0  0  0  0  0  0  0  0  0  0  0  0
  183.8800  178.8600  145.7320 C   0  0  0  0  0  3  0  0  0  0  0  0
  182.8760  179.4700  143.5740 C   0  0  0  0  0  2  0  0  0  0  0  0
  182.4440  178.6020  142.5890 F   0  0  0  0  0  0  0  0  0  0  0  0
  2 11  1  0  0  0  0
  4 12  1  0  0  0  0
  5  2  2  0  0  0  0
  6  8  1  0  0  0  0
  7  5  1  0  0  0  0
  7  6  2  0  0  0  0
  8 11  2  0  0  0  0
  8 13  1  0  0  0  0
  9 10  1  0  0  0  0
  9 12  1  0  0  0  0
 10  3  1  6  0  0  0
 10 12  1  0  0  0  0
 11  3  1  0  0  0  0
 12  1  1  1  0  0  0
 13  4  1  0  0  0  0
 14 16  2  0  0  0  0
 16 15  1  0  0  0  0
 16  5  1  0  0  0  0
 17  1  1  1  0  0  0
 17 24  1  0  0  0  0
 17 18  1  0  0  0  0
 18 19  1  0  0  0  0
 20 19  1  0  0  0  0
 20 21  2  0  0  0  0
 22 20  1  0  0  0  0
 23 22  1  0  0  0  0
 25 30  2  0  0  0  0
 26 25  1  0  0  0  0
 26 27  1  0  0  0  0
 27 29  2  0  0  0  0
 29 28  1  0  0  0  0
 29 24  1  0  0  0  0
 30 28  1  0  0  0  0
 31 25  1  0  0  0  0
 32 31  1  0  0  0  0
M  END
>  <MODEL>
3

>  <REMARK>
 VINA RESULT:      -8.6      1.463      2.060
  Name = 
  10 active torsions:
  status: ('A' for Active; 'I' for Inactive)
    1  A    between atoms: O_2  and  C_12
    2  A    between atoms: C_4  and  C_5
    3  A    between atoms: C_4  and  C_30
    4  A    between atoms: C_5  and  C_8
    5  A    between atoms: C_5  and  C_15
    6  A    between atoms: C_7  and  C_25
    7  A    between atoms: C_8  and  C_32
    8  A    between atoms: C_12  and  C_32
    9  A    between atoms: C_13  and  C_22
   10  A    between atoms: C_15  and  C_19
                            x       y       z     vdW  Elec       q    Type
                         _______ _______ _______ _____ _____    ______ ____

>  <TORSDO>
F 10

$$$$
=
 OpenBabel11042410113D

 32 35  0  0  1  0  0  0  0  0999 V2000
  188.0550  178.7150  141.0610 C   0  0  0  0  0  2  0  0  0  0  0  0
  182.1530  178.6840  141.8470 C   0  0  0  0  0  3  0  0  0  0  0  0
  184.3160  178.2010  140.9290 O   0  0  0  0  0  0  0  0  0  0  0  0
  186.3090  177.7080  142.7710 C   0  0  0  0  0  2  0  0  0  0  0  0
  181.3070  179.0130  142.9120 C   0  0  0  0  0  0  0  0  0  0  0  0
  183.2080  178.9480  144.4150 C   0  0  0  0  0  3  0  0  0  0  0  0
  181.8450  179.1570  144.1960 C   0  0  0  0  0  3  0  0  0  0  0  0
  184.0550  178.5980  143.3600 C   0  0  0  0  0  0  0  0  0  0  0  0
  185.9390  179.8050  141.5390 O   0  0  0  0  0  0  0  0  0  0  0  0
  185.5490  178.8450  140.5750 C   0  0  1  0  0  3  0  0  0  0  0  0
  183.5250  178.4980  142.0490 C   0  0  0  0  0  0  0  0  0  0  0  0
  186.6240  178.5760  141.5550 C   0  0  1  0  0  0  0  0  0  0  0  0
  185.3990  178.3440  143.6610 O   0  0  0  0  0  0  0  0  0  0  0  0
  179.3680  180.4930  142.4540 O   0  0  0  0  0  0  0  0  0  0  0  0
  179.0770  178.2350  142.6750 O   0  0  0  0  0  1  0  0  0  0  0  0
  179.8690  179.2150  142.6770 C   0  0  0  0  0  0  0  0  0  0  0  0
  188.9550  177.6330  141.6580 C   0  0  1  0  0  3  0  0  0  0  0  0
  189.5250  176.7360  140.5700 C   0  0  0  0  0  2  0  0  0  0  0  0
  190.5720  177.4810  139.7610 C   0  0  0  0  0  2  0  0  0  0  0  0
  191.3470  176.5180  138.9340 C   0  0  0  0  0  0  0  0  0  0  0  0
  192.5490  176.7650  138.6490 O   0  0  0  0  0  0  0  0  0  0  0  0
  190.7300  175.3650  138.4560 O   0  0  0  0  0  0  0  0  0  0  0  0
  191.4520  174.3720  137.9220 O   0  0  0  0  0  1  0  0  0  0  0  0
  190.0650  178.2210  142.5380 C   0  0  0  0  0  2  0  0  0  0  0  0
  191.0850  176.7340  146.4410 C   0  0  0  0  0  0  0  0  0  0  0  0
  189.6790  177.2460  146.2650 C   0  0  0  0  0  2  0  0  0  0  0  0
  189.5230  177.9410  144.9350 C   0  0  0  0  0  3  0  0  0  0  0  0
  191.2050  176.3930  143.9890 C   0  0  0  0  0  2  0  0  0  0  0  0
  190.2230  177.5320  143.8630 C   0  0  0  0  0  0  0  0  0  0  0  0
  191.7970  176.3330  145.3750 C   0  0  0  0  0  3  0  0  0  0  0  0
  191.6600  176.6190  147.8120 C   0  0  0  0  0  2  0  0  0  0  0  0
  192.0650  175.3180  148.0480 F   0  0  0  0  0  0  0  0  0  0  0  0
  1 17  1  0  0  0  0
  2 11  2  0  0  0  0
  2  5  1  0  0  0  0
  3 11  1  0  0  0  0
  4 13  1  0  0  0  0
  5  7  2  0  0  0  0
  7  6  1  0  0  0  0
  8 13  1  0  0  0  0
  8  6  2  0  0  0  0
  9 12  1  0  0  0  0
 10  3  1  1  0  0  0
 10  9  1  0  0  0  0
 10 12  1  0  0  0  0
 11  8  1  0  0  0  0
 12  1  1  6  0  0  0
 12  4  1  0  0  0  0
 14 16  2  0  0  0  0
 15 16  1  0  0  0  0
 16  5  1  0  0  0  0
 17 18  1  6  0  0  0
 17 24  1  0  0  0  0
 19 18  1  0  0  0  0
 20 19  1  0  0  0  0
 21 20  2  0  0  0  0
 22 20  1  0  0  0  0
 23 22  1  0  0  0  0
 24 29  1  0  0  0  0
 25 31  1  0  0  0  0
 26 25  1  0  0  0  0
 27 26  1  0  0  0  0
 28 30  1  0  0  0  0
 29 28  1  0  0  0  0
 29 27  2  0  0  0  0
 30 25  2  0  0  0  0
 31 32  1  0  0  0  0
M  END
>  <MODEL>
4

>  <REMARK>
 VINA RESULT:      -8.6      3.955      8.072
  Name = 
  10 active torsions:
  status: ('A' for Active; 'I' for Inactive)
    1  A    between atoms: O_2  and  C_12
    2  A    between atoms: C_4  and  C_5
    3  A    between atoms: C_4  and  C_30
    4  A    between atoms: C_5  and  C_8
    5  A    between atoms: C_5  and  C_15
    6  A    between atoms: C_7  and  C_25
    7  A    between atoms: C_8  and  C_32
    8  A    between atoms: C_12  and  C_32
    9  A    between atoms: C_13  and  C_22
   10  A    between atoms: C_15  and  C_19
                            x       y       z     vdW  Elec       q    Type
                         _______ _______ _______ _____ _____    ______ ____

>  <TORSDO>
F 10

$$$$
=
 OpenBabel11042410113D

 32 35  0  0  1  0  0  0  0  0999 V2000
  189.9340  178.2080  143.1880 C   0  0  0  0  0  2  0  0  0  0  0  0
  188.4640  177.6070  137.4500 C   0  0  0  0  0  3  0  0  0  0  0  0
  188.9760  178.6280  139.5590 O   0  0  0  0  0  0  0  0  0  0  0  0
  191.1170  177.5440  140.9190 C   0  0  0  0  0  2  0  0  0  0  0  0
  188.5920  176.5790  136.5100 C   0  0  0  0  0  0  0  0  0  0  0  0
  190.1880  175.4770  137.9650 C   0  0  0  0  0  3  0  0  0  0  0  0
  189.4500  175.5060  136.7810 C   0  0  0  0  0  3  0  0  0  0  0  0
  190.0810  176.5120  138.8990 C   0  0  0  0  0  0  0  0  0  0  0  0
  188.7340  177.1330  141.3720 O   0  0  0  0  0  0  0  0  0  0  0  0
  188.7080  178.4880  140.9630 C   0  0  1  0  0  3  0  0  0  0  0  0
  189.1800  177.5770  138.6520 C   0  0  0  0  0  0  0  0  0  0  0  0
  189.8570  177.9150  141.6990 C   0  0  1  0  0  0  0  0  0  0  0  0
  190.8960  176.4500  140.0360 O   0  0  0  0  0  0  0  0  0  0  0  0
  187.3130  177.8290  134.7910 O   0  0  0  0  0  1  0  0  0  0  0  0
  187.6190  175.5710  134.5940 O   0  0  0  0  0  0  0  0  0  0  0  0
  187.8230  176.6230  135.2570 C   0  0  0  0  0  0  0  0  0  0  0  0
  189.4330  177.0230  144.0130 C   0  0  1  0  0  3  0  0  0  0  0  0
  190.5730  176.0770  144.3590 C   0  0  0  0  0  2  0  0  0  0  0  0
  191.6710  176.8170  145.1040 C   0  0  0  0  0  2  0  0  0  0  0  0
  191.9090  176.1690  146.4210 C   0  0  0  0  0  0  0  0  0  0  0  0
  192.4300  175.0230  146.4680 O   0  0  0  0  0  0  0  0  0  0  0  0
  191.5270  176.8220  147.5900 O   0  0  0  0  0  0  0  0  0  0  0  0
  192.4300  177.1270  148.5300 O   0  0  0  0  0  1  0  0  0  0  0  0
  188.6740  177.4690  145.2690 C   0  0  0  0  0  2  0  0  0  0  0  0
  184.6210  178.7680  144.6600 C   0  0  0  0  0  0  0  0  0  0  0  0
  185.2070  177.8780  143.5960 C   0  0  0  0  0  2  0  0  0  0  0  0
  186.6870  177.6850  143.8120 C   0  0  0  0  0  3  0  0  0  0  0  0
  186.3030  177.8780  146.2480 C   0  0  0  0  0  2  0  0  0  0  0  0
  187.2010  177.6650  145.0540 C   0  0  0  0  0  0  0  0  0  0  0  0
  185.1340  178.7650  145.9010 C   0  0  0  0  0  3  0  0  0  0  0  0
  183.4310  179.6090  144.3440 C   0  0  0  0  0  2  0  0  0  0  0  0
  182.2730  178.9500  144.7130 F   0  0  0  0  0  0  0  0  0  0  0  0
  2 11  1  0  0  0  0
  4 12  1  0  0  0  0
  5  7  1  0  0  0  0
  5  2  2  0  0  0  0
  6  8  1  0  0  0  0
  7  6  2  0  0  0  0
  8 13  1  0  0  0  0
  9 12  1  0  0  0  0
 10  3  1  6  0  0  0
 10  9  1  0  0  0  0
 10 12  1  0  0  0  0
 11  8  2  0  0  0  0
 11  3  1  0  0  0  0
 12  1  1  1  0  0  0
 13  4  1  0  0  0  0
 14 16  1  0  0  0  0
 15 16  2  0  0  0  0
 16  5  1  0  0  0  0
 17  1  1  1  0  0  0
 17 18  1  0  0  0  0
 17 24  1  0  0  0  0
 18 19  1  0  0  0  0
 19 20  1  0  0  0  0
 20 21  2  0  0  0  0
 20 22  1  0  0  0  0
 22 23  1  0  0  0  0
 25 30  2  0  0  0  0
 26 27  1  0  0  0  0
 26 25  1  0  0  0  0
 27 29  2  0  0  0  0
 29 24  1  0  0  0  0
 29 28  1  0  0  0  0
 30 28  1  0  0  0  0
 31 25  1  0  0  0  0
 31 32  1  0  0  0  0
M  END
>  <MODEL>
5

>  <REMARK>
 VINA RESULT:      -8.2      1.519      2.267
  Name = 
  10 active torsions:
  status: ('A' for Active; 'I' for Inactive)
    1  A    between atoms: O_2  and  C_12
    2  A    between atoms: C_4  and  C_5
    3  A    between atoms: C_4  and  C_30
    4  A    between atoms: C_5  and  C_8
    5  A    between atoms: C_5  and  C_15
    6  A    between atoms: C_7  and  C_25
    7  A    between atoms: C_8  and  C_32
    8  A    between atoms: C_12  and  C_32
    9  A    between atoms: C_13  and  C_22
   10  A    between atoms: C_15  and  C_19
                            x       y       z     vdW  Elec       q    Type
                         _______ _______ _______ _____ _____    ______ ____

>  <TORSDO>
F 10

$$$$
=
 OpenBabel11042410113D

 32 35  0  0  1  0  0  0  0  0999 V2000
  188.5120  177.3480  145.2950 C   0  0  0  0  0  2  0  0  0  0  0  0
  182.9700  179.2000  144.1530 C   0  0  0  0  0  3  0  0  0  0  0  0
  185.1550  179.0690  145.1350 O   0  0  0  0  0  0  0  0  0  0  0  0
  187.2290  178.6280  143.3720 C   0  0  0  0  0  2  0  0  0  0  0  0
  182.0810  179.0240  143.0870 C   0  0  0  0  0  0  0  0  0  0  0  0
  183.9200  178.2590  141.7060 C   0  0  0  0  0  3  0  0  0  0  0  0
  182.5620  178.5390  141.8660 C   0  0  0  0  0  3  0  0  0  0  0  0
  184.8180  178.4520  142.7600 C   0  0  0  0  0  0  0  0  0  0  0  0
  186.1620  176.9560  144.8260 O   0  0  0  0  0  0  0  0  0  0  0  0
  186.0970  178.1120  145.6400 C   0  0  1  0  0  3  0  0  0  0  0  0
  184.3300  178.8980  144.0130 C   0  0  0  0  0  0  0  0  0  0  0  0
  187.2170  177.8780  144.7010 C   0  0  1  0  0  0  0  0  0  0  0  0
  186.1750  178.2090  142.5130 O   0  0  0  0  0  0  0  0  0  0  0  0
  179.7810  178.3780  143.7580 O   0  0  0  0  0  1  0  0  0  0  0  0
  180.2070  180.4760  142.9520 O   0  0  0  0  0  0  0  0  0  0  0  0
  180.6530  179.3370  143.2580 C   0  0  0  0  0  0  0  0  0  0  0  0
  189.6980  177.6160  144.3690 C   0  0  1  0  0  3  0  0  0  0  0  0
  190.9490  177.9510  145.1660 C   0  0  0  0  0  2  0  0  0  0  0  0
  191.6830  176.6820  145.5630 C   0  0  0  0  0  2  0  0  0  0  0  0
  191.6710  176.5350  147.0420 C   0  0  0  0  0  0  0  0  0  0  0  0
  190.7320  177.0430  147.7120 O   0  0  0  0  0  0  0  0  0  0  0  0
  192.7120  175.8650  147.6780 O   0  0  0  0  0  0  0  0  0  0  0  0
  193.1820  176.2910  148.8580 O   0  0  0  0  0  1  0  0  0  0  0  0
  189.9480  176.4590  143.3940 C   0  0  0  0  0  2  0  0  0  0  0  0
  190.9880  177.0130  139.2590 C   0  0  0  0  0  0  0  0  0  0  0  0
  189.5380  177.2090  139.6190 C   0  0  0  0  0  2  0  0  0  0  0  0
  189.2710  176.7660  141.0360 C   0  0  0  0  0  3  0  0  0  0  0  0
  191.5730  177.4520  141.6280 C   0  0  0  0  0  2  0  0  0  0  0  0
  190.2160  176.8960  141.9830 C   0  0  0  0  0  0  0  0  0  0  0  0
  191.9390  177.1290  140.2000 C   0  0  0  0  0  3  0  0  0  0  0  0
  191.3660  176.7470  137.8420 C   0  0  0  0  0  2  0  0  0  0  0  0
  190.3290  177.1060  137.0000 F   0  0  0  0  0  0  0  0  0  0  0  0
  3 10  1  0  0  0  0
  4 12  1  0  0  0  0
  5 16  1  0  0  0  0
  5  2  2  0  0  0  0
  6  7  2  0  0  0  0
  6  8  1  0  0  0  0
  7  5  1  0  0  0  0
  8 11  2  0  0  0  0
 10  9  1  6  0  0  0
 11  2  1  0  0  0  0
 11  3  1  0  0  0  0
 12  9  1  0  0  0  0
 12  1  1  1  0  0  0
 12 10  1  0  0  0  0
 13  8  1  0  0  0  0
 13  4  1  0  0  0  0
 15 16  2  0  0  0  0
 16 14  1  0  0  0  0
 17 24  1  1  0  0  0
 17 18  1  0  0  0  0
 17  1  1  0  0  0  0
 18 19  1  0  0  0  0
 19 20  1  0  0  0  0
 20 22  1  0  0  0  0
 20 21  2  0  0  0  0
 22 23  1  0  0  0  0
 25 26  1  0  0  0  0
 25 30  2  0  0  0  0
 26 27  1  0  0  0  0
 27 29  2  0  0  0  0
 28 29  1  0  0  0  0
 29 24  1  0  0  0  0
 30 28  1  0  0  0  0
 31 25  1  0  0  0  0
 32 31  1  0  0  0  0
M  END
>  <MODEL>
6

>  <REMARK>
 VINA RESULT:      -8.1      3.651      7.165
  Name = 
  10 active torsions:
  status: ('A' for Active; 'I' for Inactive)
    1  A    between atoms: O_2  and  C_12
    2  A    between atoms: C_4  and  C_5
    3  A    between atoms: C_4  and  C_30
    4  A    between atoms: C_5  and  C_8
    5  A    between atoms: C_5  and  C_15
    6  A    between atoms: C_7  and  C_25
    7  A    between atoms: C_8  and  C_32
    8  A    between atoms: C_12  and  C_32
    9  A    between atoms: C_13  and  C_22
   10  A    between atoms: C_15  and  C_19
                            x       y       z     vdW  Elec       q    Type
                         _______ _______ _______ _____ _____    ______ ____

>  <TORSDO>
F 10

$$$$
=
 OpenBabel11042410113D

 32 35  0  0  1  0  0  0  0  0999 V2000
  188.2850  178.2110  144.5500 C   0  0  0  0  0  2  0  0  0  0  0  0
  191.1170  176.4400  139.6210 C   0  0  0  0  0  3  0  0  0  0  0  0
  190.2090  176.4160  141.8410 O   0  0  0  0  0  0  0  0  0  0  0  0
  187.6620  177.4440  142.0980 C   0  0  0  0  0  2  0  0  0  0  0  0
  191.1050  176.8540  138.2850 C   0  0  0  0  0  0  0  0  0  0  0  0
  189.0530  178.0740  138.7030 C   0  0  0  0  0  3  0  0  0  0  0  0
  190.0730  177.6850  137.8330 C   0  0  0  0  0  3  0  0  0  0  0  0
  189.0470  177.6470  140.0340 C   0  0  0  0  0  0  0  0  0  0  0  0
  189.7670  178.5850  142.6640 O   0  0  0  0  0  0  0  0  0  0  0  0
  190.0780  177.2470  143.0040 C   0  0  1  0  0  3  0  0  0  0  0  0
  190.1130  176.8450  140.5090 C   0  0  0  0  0  0  0  0  0  0  0  0
  188.7110  177.7940  143.1520 C   0  0  1  0  0  0  0  0  0  0  0  0
  187.9610  178.0250  140.8340 O   0  0  0  0  0  0  0  0  0  0  0  0
  193.5020  176.7320  137.6520 O   0  0  0  0  0  1  0  0  0  0  0  0
  191.9020  175.7810  136.3230 O   0  0  0  0  0  0  0  0  0  0  0  0
  192.1750  176.4270  137.3700 C   0  0  0  0  0  0  0  0  0  0  0  0
  186.8230  177.8510  144.8150 C   0  0  1  0  0  3  0  0  0  0  0  0
  186.6650  177.1650  146.1630 C   0  0  0  0  0  2  0  0  0  0  0  0
  186.9420  178.1420  147.2930 C   0  0  0  0  0  2  0  0  0  0  0  0
  188.0910  177.6590  148.1040 C   0  0  0  0  0  0  0  0  0  0  0  0
  188.3580  178.2170  149.2020 O   0  0  0  0  0  0  0  0  0  0  0  0
  188.8800  176.6140  147.6310 O   0  0  0  0  0  0  0  0  0  0  0  0
  190.1480  176.8290  147.2580 O   0  0  0  0  0  1  0  0  0  0  0  0
  185.8940  179.0650  144.6910 C   0  0  0  0  0  2  0  0  0  0  0  0
  182.0640  178.9750  142.7380 C   0  0  0  0  0  0  0  0  0  0  0  0
  183.2400  178.4880  141.9320 C   0  0  0  0  0  2  0  0  0  0  0  0
  184.5380  178.7840  142.6420 C   0  0  0  0  0  3  0  0  0  0  0  0
  183.3590  178.5060  144.7990 C   0  0  0  0  0  2  0  0  0  0  0  0
  184.6010  178.7740  143.9850 C   0  0  0  0  0  0  0  0  0  0  0  0
  182.1210  178.9800  144.0800 C   0  0  0  0  0  3  0  0  0  0  0  0
  180.8160  179.3950  142.0400 C   0  0  0  0  0  2  0  0  0  0  0  0
  180.2500  180.4750  142.6910 F   0  0  0  0  0  0  0  0  0  0  0  0
  2 11  1  0  0  0  0
  4 12  1  0  0  0  0
  5  2  2  0  0  0  0
  6  8  1  0  0  0  0
  7  5  1  0  0  0  0
  7  6  2  0  0  0  0
  8 11  2  0  0  0  0
  8 13  1  0  0  0  0
  9 10  1  0  0  0  0
  9 12  1  0  0  0  0
 10  3  1  6  0  0  0
 10 12  1  0  0  0  0
 11  3  1  0  0  0  0
 12  1  1  1  0  0  0
 13  4  1  0  0  0  0
 15 16  2  0  0  0  0
 16 14  1  0  0  0  0
 16  5  1  0  0  0  0
 17  1  1  1  0  0  0
 17 18  1  0  0  0  0
 18 19  1  0  0  0  0
 19 20  1  0  0  0  0
 20 21  2  0  0  0  0
 22 20  1  0  0  0  0
 23 22  1  0  0  0  0
 24 17  1  0  0  0  0
 25 30  2  0  0  0  0
 26 27  1  0  0  0  0
 26 25  1  0  0  0  0
 27 29  2  0  0  0  0
 29 24  1  0  0  0  0
 29 28  1  0  0  0  0
 30 28  1  0  0  0  0
 31 32  1  0  0  0  0
 31 25  1  0  0  0  0
M  END
>  <MODEL>
7

>  <REMARK>
 VINA RESULT:      -8.0      2.161      3.323
  Name = 
  10 active torsions:
  status: ('A' for Active; 'I' for Inactive)
    1  A    between atoms: O_2  and  C_12
    2  A    between atoms: C_4  and  C_5
    3  A    between atoms: C_4  and  C_30
    4  A    between atoms: C_5  and  C_8
    5  A    between atoms: C_5  and  C_15
    6  A    between atoms: C_7  and  C_25
    7  A    between atoms: C_8  and  C_32
    8  A    between atoms: C_12  and  C_32
    9  A    between atoms: C_13  and  C_22
   10  A    between atoms: C_15  and  C_19
                            x       y       z     vdW  Elec       q    Type
                         _______ _______ _______ _____ _____    ______ ____

>  <TORSDO>
F 10

$$$$
=
 OpenBabel11042410113D

 32 35  0  0  1  0  0  0  0  0999 V2000
  189.1240  178.2770  139.1960 C   0  0  0  0  0  2  0  0  0  0  0  0
  187.6400  177.5230  144.9120 C   0  0  0  0  0  3  0  0  0  0  0  0
  187.5340  177.4410  142.5170 O   0  0  0  0  0  0  0  0  0  0  0  0
  189.8900  176.7890  141.2410 C   0  0  0  0  0  2  0  0  0  0  0  0
  188.3490  177.5530  146.1180 C   0  0  0  0  0  0  0  0  0  0  0  0
  190.4250  177.3760  144.8780 C   0  0  0  0  0  3  0  0  0  0  0  0
  189.7470  177.4910  146.0940 C   0  0  0  0  0  3  0  0  0  0  0  0
  189.7220  177.3250  143.6710 C   0  0  0  0  0  0  0  0  0  0  0  0
  188.9360  179.0420  141.4920 O   0  0  0  0  0  0  0  0  0  0  0  0
  187.7640  178.2590  141.3600 C   0  0  1  0  0  3  0  0  0  0  0  0
  188.3090  177.4340  143.6860 C   0  0  0  0  0  0  0  0  0  0  0  0
  189.0230  177.9070  140.6660 C   0  0  1  0  0  0  0  0  0  0  0  0
  190.4610  177.1470  142.4950 O   0  0  0  0  0  0  0  0  0  0  0  0
  188.1420  177.0630  148.5420 O   0  0  0  0  0  1  0  0  0  0  0  0
  186.5370  178.2870  147.4660 O   0  0  0  0  0  0  0  0  0  0  0  0
  187.6280  177.6580  147.3960 C   0  0  0  0  0  0  0  0  0  0  0  0
  189.0320  177.0390  138.3040 C   0  0  1  0  0  3  0  0  0  0  0  0
  187.6400  176.8960  137.7100 C   0  0  0  0  0  2  0  0  0  0  0  0
  186.9790  178.2570  137.5680 C   0  0  0  0  0  2  0  0  0  0  0  0
  185.6160  178.2180  138.1630 C   0  0  0  0  0  0  0  0  0  0  0  0
  184.7380  177.4660  137.6630 O   0  0  0  0  0  0  0  0  0  0  0  0
  185.3130  179.0360  139.2480 O   0  0  0  0  0  0  0  0  0  0  0  0
  184.5480  180.1240  139.0930 O   0  0  0  0  0  1  0  0  0  0  0  0
  190.1110  177.0270  137.2140 C   0  0  0  0  0  2  0  0  0  0  0  0
  193.2960  174.1410  137.0890 C   0  0  0  0  0  0  0  0  0  0  0  0
  193.5190  175.3500  137.9600 C   0  0  0  0  0  2  0  0  0  0  0  0
  192.4400  176.3790  137.7380 C   0  0  0  0  0  3  0  0  0  0  0  0
  190.8550  174.5390  137.2650 C   0  0  0  0  0  2  0  0  0  0  0  0
  191.1860  176.0020  137.4310 C   0  0  0  0  0  0  0  0  0  0  0  0
  192.0480  173.7620  136.7660 C   0  0  0  0  0  3  0  0  0  0  0  0
  194.4640  173.3340  136.6350 C   0  0  0  0  0  2  0  0  0  0  0  0
  195.6050  173.7330  137.3070 F   0  0  0  0  0  0  0  0  0  0  0  0
  2  5  1  0  0  0  0
  3 11  1  0  0  0  0
  4 13  1  0  0  0  0
  5 16  1  0  0  0  0
  6  7  1  0  0  0  0
  7  5  2  0  0  0  0
  8 11  1  0  0  0  0
  8  6  2  0  0  0  0
 10  9  1  1  0  0  0
 10  3  1  0  0  0  0
 11  2  2  0  0  0  0
 12  1  1  6  0  0  0
 12  4  1  0  0  0  0
 12 10  1  0  0  0  0
 12  9  1  0  0  0  0
 13  8  1  0  0  0  0
 16 15  2  0  0  0  0
 16 14  1  0  0  0  0
 17 24  1  6  0  0  0
 17  1  1  0  0  0  0
 18 17  1  0  0  0  0
 19 18  1  0  0  0  0
 19 20  1  0  0  0  0
 20 22  1  0  0  0  0
 21 20  2  0  0  0  0
 23 22  1  0  0  0  0
 24 29  1  0  0  0  0
 25 26  1  0  0  0  0
 27 26  1  0  0  0  0
 28 29  1  0  0  0  0
 29 27  2  0  0  0  0
 30 25  2  0  0  0  0
 30 28  1  0  0  0  0
 31 25  1  0  0  0  0
 31 32  1  0  0  0  0
M  END
>  <MODEL>
8

>  <REMARK>
 VINA RESULT:      -7.8      3.770      9.713
  Name = 
  10 active torsions:
  status: ('A' for Active; 'I' for Inactive)
    1  A    between atoms: O_2  and  C_12
    2  A    between atoms: C_4  and  C_5
    3  A    between atoms: C_4  and  C_30
    4  A    between atoms: C_5  and  C_8
    5  A    between atoms: C_5  and  C_15
    6  A    between atoms: C_7  and  C_25
    7  A    between atoms: C_8  and  C_32
    8  A    between atoms: C_12  and  C_32
    9  A    between atoms: C_13  and  C_22
   10  A    between atoms: C_15  and  C_19
                            x       y       z     vdW  Elec       q    Type
                         _______ _______ _______ _____ _____    ______ ____

>  <TORSDO>
F 10

$$$$
=
 OpenBabel11042410113D

 32 35  0  0  1  0  0  0  0  0999 V2000
  190.9290  176.8640  138.9790 C   0  0  0  0  0  2  0  0  0  0  0  0
  189.9730  177.7460  144.7900 C   0  0  0  0  0  3  0  0  0  0  0  0
  190.9180  177.9550  142.5950 O   0  0  0  0  0  0  0  0  0  0  0  0
  189.1050  178.0030  140.5160 C   0  0  0  0  0  2  0  0  0  0  0  0
  188.9090  177.4760  145.6570 C   0  0  0  0  0  0  0  0  0  0  0  0
  187.4600  177.1400  143.7430 C   0  0  0  0  0  3  0  0  0  0  0  0
  187.6540  177.1600  145.1250 C   0  0  0  0  0  3  0  0  0  0  0  0
  188.5140  177.4290  142.8710 C   0  0  0  0  0  0  0  0  0  0  0  0
  190.4650  176.0810  141.2310 O   0  0  0  0  0  0  0  0  0  0  0  0
  191.3510  177.1560  141.4840 C   0  0  1  0  0  3  0  0  0  0  0  0
  189.7980  177.7040  143.4010 C   0  0  0  0  0  0  0  0  0  0  0  0
  190.3850  177.1850  140.3620 C   0  0  1  0  0  0  0  0  0  0  0  0
  188.2350  177.4520  141.4980 O   0  0  0  0  0  0  0  0  0  0  0  0
  190.2920  177.0200  147.6670 O   0  0  0  0  0  0  0  0  0  0  0  0
  188.2320  177.9940  147.8730 O   0  0  0  0  0  1  0  0  0  0  0  0
  189.1160  177.5140  147.1130 C   0  0  0  0  0  0  0  0  0  0  0  0
  189.8010  176.5270  138.0050 C   0  0  1  0  0  3  0  0  0  0  0  0
  189.8010  177.4790  136.8190 C   0  0  0  0  0  2  0  0  0  0  0  0
  189.0410  178.7500  137.1570 C   0  0  0  0  0  2  0  0  0  0  0  0
  187.6310  178.6280  136.7010 C   0  0  0  0  0  0  0  0  0  0  0  0
  187.3840  178.2060  135.5400 O   0  0  0  0  0  0  0  0  0  0  0  0
  186.5950  179.0100  137.5500 O   0  0  0  0  0  0  0  0  0  0  0  0
  186.3010  178.2880  138.6390 O   0  0  0  0  0  1  0  0  0  0  0  0
  189.8440  175.0630  137.5480 C   0  0  0  0  0  2  0  0  0  0  0  0
  185.9680  173.2310  137.2280 C   0  0  0  0  0  0  0  0  0  0  0  0
  186.0500  174.6940  136.8770 C   0  0  0  0  0  2  0  0  0  0  0  0
  187.3980  175.2610  137.2480 C   0  0  0  0  0  3  0  0  0  0  0  0
  188.3990  173.0480  136.7760 C   0  0  0  0  0  2  0  0  0  0  0  0
  188.5020  174.4970  137.1830 C   0  0  0  0  0  0  0  0  0  0  0  0
  187.0680  172.4620  137.1780 C   0  0  0  0  0  3  0  0  0  0  0  0
  184.6490  172.6290  137.5730 C   0  0  0  0  0  2  0  0  0  0  0  0
  184.3080  171.6680  136.6390 F   0  0  0  0  0  0  0  0  0  0  0  0
  2  5  1  0  0  0  0
  3 11  1  0  0  0  0
  4 13  1  0  0  0  0
  5 16  1  0  0  0  0
  6  7  1  0  0  0  0
  7  5  2  0  0  0  0
  8 11  1  0  0  0  0
  8  6  2  0  0  0  0
 10  9  1  1  0  0  0
 10  3  1  0  0  0  0
 11  2  2  0  0  0  0
 12  1  1  6  0  0  0
 12  4  1  0  0  0  0
 12  9  1  0  0  0  0
 12 10  1  0  0  0  0
 13  8  1  0  0  0  0
 16 14  2  0  0  0  0
 16 15  1  0  0  0  0
 17 18  1  6  0  0  0
 17  1  1  0  0  0  0
 18 19  1  0  0  0  0
 20 19  1  0  0  0  0
 20 22  1  0  0  0  0
 21 20  2  0  0  0  0
 22 23  1  0  0  0  0
 24 17  1  0  0  0  0
 25 31  1  0  0  0  0
 26 25  1  0  0  0  0
 26 27  1  0  0  0  0
 28 30  1  0  0  0  0
 28 29  1  0  0  0  0
 29 27  2  0  0  0  0
 29 24  1  0  0  0  0
 30 25  2  0  0  0  0
 32 31  1  0  0  0  0
M  END
>  <MODEL>
9

>  <REMARK>
 VINA RESULT:      -7.7      3.319      8.949
  Name = 
  10 active torsions:
  status: ('A' for Active; 'I' for Inactive)
    1  A    between atoms: O_2  and  C_12
    2  A    between atoms: C_4  and  C_5
    3  A    between atoms: C_4  and  C_30
    4  A    between atoms: C_5  and  C_8
    5  A    between atoms: C_5  and  C_15
    6  A    between atoms: C_7  and  C_25
    7  A    between atoms: C_8  and  C_32
    8  A    between atoms: C_12  and  C_32
    9  A    between atoms: C_13  and  C_22
   10  A    between atoms: C_15  and  C_19
                            x       y       z     vdW  Elec       q    Type
                         _______ _______ _______ _____ _____    ______ ____

>  <TORSDO>
F 10

$$$$
