=
 OpenBabel11042413113D

 32 36  0  0  1  0  0  0  0  0999 V2000
  185.7790  178.5510  141.1350 N   0  0  0  0  0  0  0  0  0  0  0  0
  180.3740  177.5410  140.8360 N   0  0  0  0  0  1  0  0  0  0  0  0
  188.2600  178.7280  138.3100 C   0  0  0  0  0  0  0  0  0  0  0  0
  184.5000  178.4320  140.8950 C   0  0  0  0  0  0  0  0  0  0  0  0
  188.3870  177.3940  142.2770 C   0  0  2  0  0  3  0  0  0  0  0  0
  181.7640  177.8520  140.8180 C   0  0  0  0  0  0  0  0  0  0  0  0
  189.7910  177.2400  142.4260 O   0  0  0  0  0  0  0  0  0  0  0  0
  188.1870  178.2480  141.0490 C   0  0  2  0  0  3  0  0  0  0  0  0
  189.4190  178.4650  139.0520 O   0  0  0  0  0  0  0  0  0  0  0  0
  183.6230  178.8130  141.9350 C   0  0  0  0  0  0  0  0  0  0  0  0
  186.9380  178.4150  138.9310 C   0  0  0  0  0  0  0  0  0  0  0  0
  188.3480  179.1980  137.1450 O   0  0  0  0  0  0  0  0  0  0  0  0
  190.3730  177.6050  141.1860 C   0  0  0  0  0  2  0  0  0  0  0  0
  183.9380  177.8570  139.7190 C   0  0  0  0  0  0  0  0  0  0  0  0
  186.8890  178.1770  140.3590 N   0  0  0  0  0  0  0  0  0  0  0  0
  182.5650  177.5000  139.7270 C   0  0  0  0  0  0  0  0  0  0  0  0
  189.2470  177.6600  140.2030 C   0  0  1  0  0  3  0  0  0  0  0  0
  182.3040  178.5140  141.8680 N   0  0  0  0  0  0  0  0  0  0  0  0
  181.9270  176.7900  138.5640 C   0  0  0  0  0  1  0  0  0  0  0  0
  184.5690  177.7560  138.5390 C   0  0  0  0  0  3  0  0  0  0  0  0
  185.9100  178.1670  138.1380 C   0  0  0  0  0  3  0  0  0  0  0  0
  187.7920  178.0570  143.5210 C   0  0  2  0  0  3  0  0  0  0  0  0
  188.4010  177.6180  144.8660 C   0  0  1  0  0  3  0  0  0  0  0  0
  187.1140  176.9980  144.3660 C   0  0  0  0  0  2  0  0  0  0  0  0
  190.6120  176.8030  145.3930 N   0  0  0  0  0  0  0  0  0  0  0  0
  189.4980  176.6110  144.7640 C   0  0  0  0  0  3  0  0  0  0  0  0
  192.0700  175.4190  144.1890 O   0  0  0  0  0  0  0  0  0  0  0  0
  191.7030  175.8850  145.3040 C   0  0  0  0  0  0  0  0  0  0  0  0
  192.4050  175.4570  146.5460 C   0  0  0  0  0  2  0  0  0  0  0  0
  191.8550  176.2240  147.7380 C   0  0  0  0  0  1  0  0  0  0  0  0
  184.4990  180.0740  144.0920 C   0  0  0  0  0  3  0  0  0  0  0  0
  184.1020  179.5020  143.1090 C   0  0  0  0  0  0  0  0  0  0  0  0
  3 11  1  0  0  0  0
  3  9  1  0  0  0  0
  4  1  2  0  0  0  0
  4 10  1  0  0  0  0
  5  7  1  1  0  0  0
  5 22  1  0  0  0  0
  6  2  1  0  0  0  0
  6 18  1  0  0  0  0
  8 15  1  6  0  0  0
  8  5  1  0  0  0  0
  9 17  1  0  0  0  0
 10 32  1  0  0  0  0
 11 15  1  0  0  0  0
 12  3  2  0  0  0  0
 13  7  1  0  0  0  0
 14 16  1  0  0  0  0
 14  4  1  0  0  0  0
 15  1  1  0  0  0  0
 16  6  2  0  0  0  0
 17  8  1  0  0  0  0
 17 13  1  1  0  0  0
 18 10  2  0  0  0  0
 19 16  1  0  0  0  0
 20 14  2  0  0  0  0
 21 20  1  0  0  0  0
 21 11  2  0  0  0  0
 22 24  1  1  0  0  0
 22 23  1  0  0  0  0
 23 26  1  6  0  0  0
 24 23  1  0  0  0  0
 26 25  2  0  0  0  0
 27 28  2  0  0  0  0
 28 25  1  0  0  0  0
 28 29  1  0  0  0  0
 29 30  1  0  0  0  0
 32 31  3  0  0  0  0
M  END
>  <MODEL>
1

>  <REMARK>
 VINA RESULT:      -7.6      0.000      0.000
  Name = 
  5 active torsions:
  status: ('A' for Active; 'I' for Inactive)
    1  A    between atoms: C_4  and  C_6
    2  A    between atoms: C_9  and  C_30
    3  A    between atoms: C_10  and  C_26
    4  A    between atoms: N_11  and  C_30
    5  A    between atoms: C_14  and  C_29
                            x       y       z     vdW  Elec       q    Type
                         _______ _______ _______ _____ _____    ______ ____

>  <TORSDO>
F 5

$$$$
=
 OpenBabel11042413113D

 32 36  0  0  1  0  0  0  0  0999 V2000
  185.2640  178.0300  138.4170 N   0  0  0  0  0  0  0  0  0  0  0  0
  181.3280  175.3470  135.6540 N   0  0  0  0  0  1  0  0  0  0  0  0
  188.9860  177.8710  137.8820 C   0  0  0  0  0  0  0  0  0  0  0  0
  184.4440  177.4350  137.5920 C   0  0  0  0  0  0  0  0  0  0  0  0
  186.4950  178.2820  141.2220 C   0  0  2  0  0  3  0  0  0  0  0  0
  182.4020  176.0450  136.2770 C   0  0  0  0  0  0  0  0  0  0  0  0
  187.4660  178.6450  142.1930 O   0  0  0  0  0  0  0  0  0  0  0  0
  187.1500  178.4870  139.8780 C   0  0  2  0  0  3  0  0  0  0  0  0
  189.3850  178.2910  139.1580 O   0  0  0  0  0  0  0  0  0  0  0  0
  183.1070  177.8920  137.5880 C   0  0  0  0  0  0  0  0  0  0  0  0
  187.5730  177.4250  137.6950 C   0  0  0  0  0  0  0  0  0  0  0  0
  189.8140  177.8560  136.9330 O   0  0  0  0  0  0  0  0  0  0  0  0
  188.7170  178.6660  141.5270 C   0  0  0  0  0  2  0  0  0  0  0  0
  184.7700  176.3060  136.7860 C   0  0  0  0  0  0  0  0  0  0  0  0
  186.6080  177.7540  138.7220 N   0  0  0  0  0  0  0  0  0  0  0  0
  183.7150  175.5700  136.1900 C   0  0  0  0  0  0  0  0  0  0  0  0
  188.4970  177.9820  140.2160 C   0  0  1  0  0  3  0  0  0  0  0  0
  182.1420  177.1940  136.9450 N   0  0  0  0  0  0  0  0  0  0  0  0
  183.9730  174.3060  135.4160 C   0  0  0  0  0  1  0  0  0  0  0  0
  186.0140  175.9610  136.4190 C   0  0  0  0  0  3  0  0  0  0  0  0
  187.3010  176.5820  136.7130 C   0  0  0  0  0  3  0  0  0  0  0  0
  185.2440  179.1510  141.3720 C   0  0  2  0  0  3  0  0  0  0  0  0
  184.6120  179.1720  142.7760 C   0  0  1  0  0  3  0  0  0  0  0  0
  184.0630  178.2610  141.6990 C   0  0  0  0  0  2  0  0  0  0  0  0
  185.5830  178.8440  144.9630 N   0  0  0  0  0  0  0  0  0  0  0  0
  185.3190  178.3450  143.7990 C   0  0  0  0  0  3  0  0  0  0  0  0
  186.0270  178.2720  147.1910 O   0  0  0  0  0  0  0  0  0  0  0  0
  186.2820  178.1050  145.9660 C   0  0  0  0  0  0  0  0  0  0  0  0
  187.3390  177.1370  145.5600 C   0  0  0  0  0  2  0  0  0  0  0  0
  188.6830  177.8450  145.4840 C   0  0  0  0  0  1  0  0  0  0  0  0
  182.3930  180.0940  138.8750 C   0  0  0  0  0  3  0  0  0  0  0  0
  182.7200  179.0930  138.2900 C   0  0  0  0  0  0  0  0  0  0  0  0
  1 15  1  0  0  0  0
  2  6  1  0  0  0  0
  3  9  1  0  0  0  0
  4  1  2  0  0  0  0
  5 22  1  0  0  0  0
  5  7  1  1  0  0  0
  6 18  1  0  0  0  0
  8 15  1  6  0  0  0
  8 17  1  0  0  0  0
  8  5  1  0  0  0  0
  9 17  1  0  0  0  0
 10  4  1  0  0  0  0
 10 32  1  0  0  0  0
 11  3  1  0  0  0  0
 11 15  1  0  0  0  0
 12  3  2  0  0  0  0
 13  7  1  0  0  0  0
 14  4  1  0  0  0  0
 16  6  2  0  0  0  0
 16 14  1  0  0  0  0
 17 13  1  1  0  0  0
 18 10  2  0  0  0  0
 19 16  1  0  0  0  0
 20 21  1  0  0  0  0
 20 14  2  0  0  0  0
 21 11  2  0  0  0  0
 22 24  1  6  0  0  0
 22 23  1  0  0  0  0
 23 26  1  1  0  0  0
 24 23  1  0  0  0  0
 25 28  1  0  0  0  0
 26 25  2  0  0  0  0
 28 27  2  0  0  0  0
 29 28  1  0  0  0  0
 30 29  1  0  0  0  0
 32 31  3  0  0  0  0
M  END
>  <MODEL>
2

>  <REMARK>
 VINA RESULT:      -7.4      2.642      4.012
  Name = 
  5 active torsions:
  status: ('A' for Active; 'I' for Inactive)
    1  A    between atoms: C_4  and  C_6
    2  A    between atoms: C_9  and  C_30
    3  A    between atoms: C_10  and  C_26
    4  A    between atoms: N_11  and  C_30
    5  A    between atoms: C_14  and  C_29
                            x       y       z     vdW  Elec       q    Type
                         _______ _______ _______ _____ _____    ______ ____

>  <TORSDO>
F 5

$$$$
=
 OpenBabel11042413113D

 32 36  0  0  1  0  0  0  0  0999 V2000
  189.4100  176.0000  137.6300 N   0  0  0  0  0  0  0  0  0  0  0  0
  185.2060  172.6850  136.3420 N   0  0  0  0  0  1  0  0  0  0  0  0
  193.0450  175.5760  136.7510 C   0  0  0  0  0  0  0  0  0  0  0  0
  188.5060  175.1950  137.1400 C   0  0  0  0  0  0  0  0  0  0  0  0
  190.9590  177.0990  140.0470 C   0  0  2  0  0  3  0  0  0  0  0  0
  186.3380  173.5150  136.5810 C   0  0  0  0  0  0  0  0  0  0  0  0
  192.0340  177.7260  140.7330 O   0  0  0  0  0  0  0  0  0  0  0  0
  191.4500  176.8470  138.6420 C   0  0  2  0  0  3  0  0  0  0  0  0
  193.5860  176.3700  137.7710 O   0  0  0  0  0  0  0  0  0  0  0  0
  187.1730  175.6640  137.1430 C   0  0  0  0  0  0  0  0  0  0  0  0
  191.6250  175.1330  136.8800 C   0  0  0  0  0  0  0  0  0  0  0  0
  193.7560  175.2370  135.7680 O   0  0  0  0  0  0  0  0  0  0  0  0
  193.1980  177.4990  139.9570 C   0  0  0  0  0  2  0  0  0  0  0  0
  188.7470  173.8600  136.7040 C   0  0  0  0  0  0  0  0  0  0  0  0
  190.7830  175.7990  137.8520 N   0  0  0  0  0  0  0  0  0  0  0  0
  187.6370  173.0010  136.5000 C   0  0  0  0  0  0  0  0  0  0  0  0
  192.8330  176.4400  138.9670 C   0  0  1  0  0  3  0  0  0  0  0  0
  186.1460  174.8240  136.8710 N   0  0  0  0  0  0  0  0  0  0  0  0
  187.8160  171.5500  136.1470 C   0  0  0  0  0  1  0  0  0  0  0  0
  189.9430  173.3820  136.3270 C   0  0  0  0  0  3  0  0  0  0  0  0
  191.2480  174.0290  136.2570 C   0  0  0  0  0  3  0  0  0  0  0  0
  189.7260  178.0040  140.0540 C   0  0  2  0  0  3  0  0  0  0  0  0
  189.1330  178.3120  141.4410 C   0  0  1  0  0  3  0  0  0  0  0  0
  188.5420  177.2190  140.5780 C   0  0  0  0  0  2  0  0  0  0  0  0
  189.6830  178.1450  143.7870 N   0  0  0  0  0  0  0  0  0  0  0  0
  189.8560  177.6890  142.5890 C   0  0  0  0  0  3  0  0  0  0  0  0
  191.6300  177.4920  144.9130 O   0  0  0  0  0  0  0  0  0  0  0  0
  190.3730  177.6030  144.9140 C   0  0  0  0  0  0  0  0  0  0  0  0
  189.5950  177.1460  146.1000 C   0  0  0  0  0  2  0  0  0  0  0  0
  188.1360  177.5410  145.9420 C   0  0  0  0  0  1  0  0  0  0  0  0
  186.5930  178.1790  137.7350 C   0  0  0  0  0  3  0  0  0  0  0  0
  186.8580  177.0360  137.4630 C   0  0  0  0  0  0  0  0  0  0  0  0
  1 15  1  0  0  0  0
  2  6  1  0  0  0  0
  3 11  1  0  0  0  0
  3  9  1  0  0  0  0
  4 10  1  0  0  0  0
  4  1  2  0  0  0  0
  5 22  1  0  0  0  0
  5  7  1  1  0  0  0
  6 18  1  0  0  0  0
  8 15  1  1  0  0  0
  8 17  1  0  0  0  0
  8  5  1  0  0  0  0
  9 17  1  0  0  0  0
 10 32  1  0  0  0  0
 11 15  1  0  0  0  0
 12  3  2  0  0  0  0
 13  7  1  0  0  0  0
 14  4  1  0  0  0  0
 16  6  2  0  0  0  0
 16 14  1  0  0  0  0
 17 13  1  1  0  0  0
 18 10  2  0  0  0  0
 19 16  1  0  0  0  0
 20 14  2  0  0  0  0
 21 20  1  0  0  0  0
 21 11  2  0  0  0  0
 22 24  1  6  0  0  0
 22 23  1  0  0  0  0
 23 26  1  1  0  0  0
 24 23  1  0  0  0  0
 25 28  1  0  0  0  0
 26 25  2  0  0  0  0
 27 28  2  0  0  0  0
 28 29  1  0  0  0  0
 30 29  1  0  0  0  0
 32 31  3  0  0  0  0
M  END
>  <MODEL>
3

>  <REMARK>
 VINA RESULT:      -7.3      4.041      5.573
  Name = 
  5 active torsions:
  status: ('A' for Active; 'I' for Inactive)
    1  A    between atoms: C_4  and  C_6
    2  A    between atoms: C_9  and  C_30
    3  A    between atoms: C_10  and  C_26
    4  A    between atoms: N_11  and  C_30
    5  A    between atoms: C_14  and  C_29
                            x       y       z     vdW  Elec       q    Type
                         _______ _______ _______ _____ _____    ______ ____

>  <TORSDO>
F 5

$$$$
=
 OpenBabel11042413113D

 32 36  0  0  1  0  0  0  0  0999 V2000
  186.8000  177.6090  141.8010 N   0  0  0  0  0  0  0  0  0  0  0  0
  183.0950  179.3820  145.4680 N   0  0  0  0  0  1  0  0  0  0  0  0
  190.0820  175.8930  142.4710 C   0  0  0  0  0  0  0  0  0  0  0  0
  185.9630  177.8530  142.7730 C   0  0  0  0  0  0  0  0  0  0  0  0
  188.7060  178.6280  139.6150 C   0  0  2  0  0  3  0  0  0  0  0  0
  184.0760  178.8430  144.5870 C   0  0  0  0  0  0  0  0  0  0  0  0
  189.7890  178.5700  138.6970 O   0  0  0  0  0  0  0  0  0  0  0  0
  188.8420  177.4120  140.4990 C   0  0  2  0  0  3  0  0  0  0  0  0
  190.7190  176.2100  141.2640 O   0  0  0  0  0  0  0  0  0  0  0  0
  184.6170  178.0760  142.4080 C   0  0  0  0  0  0  0  0  0  0  0  0
  188.8550  176.6570  142.8450 C   0  0  0  0  0  0  0  0  0  0  0  0
  190.5560  174.9960  143.2190 O   0  0  0  0  0  0  0  0  0  0  0  0
  190.7250  177.6490  139.2310 C   0  0  0  0  0  2  0  0  0  0  0  0
  186.3230  178.0130  144.1430 C   0  0  0  0  0  0  0  0  0  0  0  0
  188.1950  177.4400  141.8210 N   0  0  0  0  0  0  0  0  0  0  0  0
  185.3780  178.5870  145.0310 C   0  0  0  0  0  0  0  0  0  0  0  0
  190.3120  177.4190  140.6500 C   0  0  1  0  0  3  0  0  0  0  0  0
  183.7290  178.5590  143.3100 N   0  0  0  0  0  0  0  0  0  0  0  0
  185.7230  178.8870  146.4640 C   0  0  0  0  0  1  0  0  0  0  0  0
  187.4420  177.5270  144.7020 C   0  0  0  0  0  3  0  0  0  0  0  0
  188.5380  176.7560  144.1250 C   0  0  0  0  0  3  0  0  0  0  0  0
  187.3730  178.6250  138.8630 C   0  0  2  0  0  3  0  0  0  0  0  0
  187.1160  177.4000  137.9670 C   0  0  1  0  0  3  0  0  0  0  0  0
  187.6480  178.6870  137.3750 C   0  0  0  0  0  2  0  0  0  0  0  0
  188.1410  175.3660  137.1640 N   0  0  0  0  0  0  0  0  0  0  0  0
  188.2040  176.3780  137.9680 C   0  0  0  0  0  3  0  0  0  0  0  0
  190.2810  174.5470  137.6500 O   0  0  0  0  0  0  0  0  0  0  0  0
  189.1410  174.3460  137.1470 C   0  0  0  0  0  0  0  0  0  0  0  0
  188.8400  173.0340  136.5090 C   0  0  0  0  0  2  0  0  0  0  0  0
  187.4370  172.5880  136.8880 C   0  0  0  0  0  1  0  0  0  0  0  0
  183.7620  177.6170  139.9440 C   0  0  0  0  0  3  0  0  0  0  0  0
  184.1500  177.8280  141.0650 C   0  0  0  0  0  0  0  0  0  0  0  0
  1 15  1  0  0  0  0
  1  4  2  0  0  0  0
  3 11  1  0  0  0  0
  3 12  2  0  0  0  0
  4 14  1  0  0  0  0
  5  7  1  6  0  0  0
  5  8  1  0  0  0  0
  6 16  2  0  0  0  0
  6  2  1  0  0  0  0
  7 13  1  0  0  0  0
  8 17  1  0  0  0  0
  8 15  1  1  0  0  0
  9  3  1  0  0  0  0
 10  4  1  0  0  0  0
 10 18  2  0  0  0  0
 11 21  2  0  0  0  0
 14 20  2  0  0  0  0
 14 16  1  0  0  0  0
 15 11  1  0  0  0  0
 16 19  1  0  0  0  0
 17 13  1  6  0  0  0
 17  9  1  0  0  0  0
 18  6  1  0  0  0  0
 21 20  1  0  0  0  0
 22 24  1  6  0  0  0
 22  5  1  0  0  0  0
 23 26  1  1  0  0  0
 23 22  1  0  0  0  0
 24 23  1  0  0  0  0
 25 26  2  0  0  0  0
 28 25  1  0  0  0  0
 28 27  2  0  0  0  0
 29 30  1  0  0  0  0
 29 28  1  0  0  0  0
 31 32  3  0  0  0  0
 32 10  1  0  0  0  0
M  END
>  <MODEL>
4

>  <REMARK>
 VINA RESULT:      -7.3      2.530      5.940
  Name = 
  5 active torsions:
  status: ('A' for Active; 'I' for Inactive)
    1  A    between atoms: C_4  and  C_6
    2  A    between atoms: C_9  and  C_30
    3  A    between atoms: C_10  and  C_26
    4  A    between atoms: N_11  and  C_30
    5  A    between atoms: C_14  and  C_29
                            x       y       z     vdW  Elec       q    Type
                         _______ _______ _______ _____ _____    ______ ____

>  <TORSDO>
F 5

$$$$
=
 OpenBabel11042413113D

 32 36  0  0  1  0  0  0  0  0999 V2000
  188.3920  178.3740  142.4600 N   0  0  0  0  0  0  0  0  0  0  0  0
  188.4670  177.0620  147.8070 N   0  0  0  0  0  1  0  0  0  0  0  0
  185.4000  179.1160  140.3010 C   0  0  0  0  0  0  0  0  0  0  0  0
  188.2610  178.2070  143.7490 C   0  0  0  0  0  0  0  0  0  0  0  0
  189.0930  177.2400  139.6900 C   0  0  2  0  0  3  0  0  0  0  0  0
  188.3630  177.4630  146.4450 C   0  0  0  0  0  0  0  0  0  0  0  0
  189.0810  177.1600  138.2720 O   0  0  0  0  0  0  0  0  0  0  0  0
  188.0300  178.2460  140.0610 C   0  0  2  0  0  3  0  0  0  0  0  0
  185.9790  178.8270  139.0580 O   0  0  0  0  0  0  0  0  0  0  0  0
  189.4260  178.3760  144.5300 C   0  0  0  0  0  0  0  0  0  0  0  0
  186.0920  178.6320  141.5330 C   0  0  0  0  0  0  0  0  0  0  0  0
  184.3140  179.7530  140.3600 O   0  0  0  0  0  0  0  0  0  0  0  0
  187.8600  177.7360  137.8430 C   0  0  0  0  0  2  0  0  0  0  0  0
  187.0720  177.7700  144.4010 C   0  0  0  0  0  0  0  0  0  0  0  0
  187.4660  178.1900  141.4190 N   0  0  0  0  0  0  0  0  0  0  0  0
  187.1590  177.3250  145.7450 C   0  0  0  0  0  0  0  0  0  0  0  0
  187.0090  177.8560  139.0670 C   0  0  1  0  0  3  0  0  0  0  0  0
  189.4420  178.0030  145.8320 N   0  0  0  0  0  0  0  0  0  0  0  0
  185.9700  176.7480  146.4640 C   0  0  0  0  0  1  0  0  0  0  0  0
  185.8350  177.8810  143.8930 C   0  0  0  0  0  3  0  0  0  0  0  0
  185.3730  178.4320  142.6240 C   0  0  0  0  0  3  0  0  0  0  0  0
  190.4730  177.6770  140.1850 C   0  0  2  0  0  3  0  0  0  0  0  0
  191.6570  176.8170  139.7050 C   0  0  1  0  0  3  0  0  0  0  0  0
  191.0460  176.5900  141.0710 C   0  0  0  0  0  2  0  0  0  0  0  0
  192.1600  175.1960  137.9870 N   0  0  0  0  0  0  0  0  0  0  0  0
  191.2890  175.6790  138.8110 C   0  0  0  0  0  3  0  0  0  0  0  0
  190.6750  173.6680  137.0130 O   0  0  0  0  0  0  0  0  0  0  0  0
  191.8490  174.1270  137.0910 C   0  0  0  0  0  0  0  0  0  0  0  0
  192.9280  173.5350  136.2530 C   0  0  0  0  0  2  0  0  0  0  0  0
  194.2750  173.7460  136.9240 C   0  0  0  0  0  1  0  0  0  0  0  0
  191.6490  179.3780  143.4990 C   0  0  0  0  0  3  0  0  0  0  0  0
  190.6380  178.9200  143.9670 C   0  0  0  0  0  0  0  0  0  0  0  0
  1  4  2  0  0  0  0
  3 12  2  0  0  0  0
  3 11  1  0  0  0  0
  4 14  1  0  0  0  0
  4 10  1  0  0  0  0
  5  7  1  6  0  0  0
  5  8  1  0  0  0  0
  5 22  1  0  0  0  0
  6  2  1  0  0  0  0
  8 15  1  1  0  0  0
  9 17  1  0  0  0  0
  9  3  1  0  0  0  0
 10 18  2  0  0  0  0
 11 21  2  0  0  0  0
 13  7  1  0  0  0  0
 14 16  1  0  0  0  0
 15 11  1  0  0  0  0
 15  1  1  0  0  0  0
 16  6  2  0  0  0  0
 16 19  1  0  0  0  0
 17 13  1  6  0  0  0
 17  8  1  0  0  0  0
 18  6  1  0  0  0  0
 20 14  2  0  0  0  0
 21 20  1  0  0  0  0
 22 24  1  1  0  0  0
 23 26  1  6  0  0  0
 23 22  1  0  0  0  0
 23 24  1  0  0  0  0
 25 26  2  0  0  0  0
 27 28  2  0  0  0  0
 28 25  1  0  0  0  0
 29 30  1  0  0  0  0
 29 28  1  0  0  0  0
 31 32  3  0  0  0  0
 32 10  1  0  0  0  0
M  END
>  <MODEL>
5

>  <REMARK>
 VINA RESULT:      -7.2      3.140      6.375
  Name = 
  5 active torsions:
  status: ('A' for Active; 'I' for Inactive)
    1  A    between atoms: C_4  and  C_6
    2  A    between atoms: C_9  and  C_30
    3  A    between atoms: C_10  and  C_26
    4  A    between atoms: N_11  and  C_30
    5  A    between atoms: C_14  and  C_29
                            x       y       z     vdW  Elec       q    Type
                         _______ _______ _______ _____ _____    ______ ____

>  <TORSDO>
F 5

$$$$
=
 OpenBabel11042413113D

 32 36  0  0  1  0  0  0  0  0999 V2000
  183.3420  178.3810  141.1180 N   0  0  0  0  0  0  0  0  0  0  0  0
  188.3090  177.8170  143.4270 N   0  0  0  0  0  1  0  0  0  0  0  0
  180.1310  179.4510  142.7650 C   0  0  0  0  0  0  0  0  0  0  0  0
  184.4730  178.4210  141.7690 C   0  0  0  0  0  0  0  0  0  0  0  0
  181.1370  176.7600  139.7180 C   0  0  2  0  0  3  0  0  0  0  0  0
  187.0060  178.0440  142.8980 C   0  0  0  0  0  0  0  0  0  0  0  0
  179.8390  176.4940  139.2060 O   0  0  0  0  0  0  0  0  0  0  0  0
  181.0080  178.0120  140.5530 C   0  0  2  0  0  3  0  0  0  0  0  0
  179.2410  178.8790  141.8470 O   0  0  0  0  0  0  0  0  0  0  0  0
  185.6520  178.4400  140.9910 C   0  0  0  0  0  0  0  0  0  0  0  0
  181.5550  178.9990  142.7430 C   0  0  0  0  0  0  0  0  0  0  0  0
  179.7230  180.3080  143.5930 O   0  0  0  0  0  0  0  0  0  0  0  0
  178.9310  177.2560  139.9830 C   0  0  0  0  0  2  0  0  0  0  0  0
  184.6050  178.3420  143.1860 C   0  0  0  0  0  0  0  0  0  0  0  0
  182.0230  178.2610  141.5890 N   0  0  0  0  0  0  0  0  0  0  0  0
  185.8850  178.0740  143.7350 C   0  0  0  0  0  0  0  0  0  0  0  0
  179.7010  177.7200  141.1780 C   0  0  1  0  0  3  0  0  0  0  0  0
  186.8620  178.2510  141.5680 N   0  0  0  0  0  0  0  0  0  0  0  0
  186.0830  177.8680  145.2120 C   0  0  0  0  0  1  0  0  0  0  0  0
  183.6360  178.6460  144.0630 C   0  0  0  0  0  3  0  0  0  0  0  0
  182.2690  179.1080  143.8500 C   0  0  0  0  0  3  0  0  0  0  0  0
  182.1300  176.9540  138.5710 C   0  0  2  0  0  3  0  0  0  0  0  0
  182.2790  175.7600  137.6100 C   0  0  1  0  0  3  0  0  0  0  0  0
  183.2690  175.9700  138.7350 C   0  0  0  0  0  2  0  0  0  0  0  0
  180.8290  173.9350  136.9790 N   0  0  0  0  0  0  0  0  0  0  0  0
  181.4210  174.5810  137.9300 C   0  0  0  0  0  3  0  0  0  0  0  0
  179.0170  172.9100  138.0520 O   0  0  0  0  0  0  0  0  0  0  0  0
  179.9740  172.8190  137.2350 C   0  0  0  0  0  0  0  0  0  0  0  0
  180.2290  171.5260  136.5410 C   0  0  0  0  0  2  0  0  0  0  0  0
  181.7100  171.3950  136.2240 C   0  0  0  0  0  1  0  0  0  0  0  0
  185.5730  178.7890  138.3670 C   0  0  0  0  0  3  0  0  0  0  0  0
  185.6060  178.6300  139.5600 C   0  0  0  0  0  0  0  0  0  0  0  0
  1 15  1  0  0  0  0
  1  4  2  0  0  0  0
  3 12  2  0  0  0  0
  4 14  1  0  0  0  0
  5  7  1  6  0  0  0
  5  8  1  0  0  0  0
  6  2  1  0  0  0  0
  6 16  2  0  0  0  0
  7 13  1  0  0  0  0
  8 17  1  0  0  0  0
  8 15  1  1  0  0  0
  9  3  1  0  0  0  0
 10 18  2  0  0  0  0
 10  4  1  0  0  0  0
 11  3  1  0  0  0  0
 11 21  2  0  0  0  0
 14 16  1  0  0  0  0
 14 20  2  0  0  0  0
 15 11  1  0  0  0  0
 16 19  1  0  0  0  0
 17 13  1  6  0  0  0
 17  9  1  0  0  0  0
 18  6  1  0  0  0  0
 21 20  1  0  0  0  0
 22 24  1  1  0  0  0
 22  5  1  0  0  0  0
 23 26  1  1  0  0  0
 23 22  1  0  0  0  0
 23 24  1  0  0  0  0
 25 28  1  0  0  0  0
 25 26  2  0  0  0  0
 28 27  2  0  0  0  0
 29 28  1  0  0  0  0
 30 29  1  0  0  0  0
 31 32  3  0  0  0  0
 32 10  1  0  0  0  0
M  END
>  <MODEL>
6

>  <REMARK>
 VINA RESULT:      -7.0      4.624      9.077
  Name = 
  5 active torsions:
  status: ('A' for Active; 'I' for Inactive)
    1  A    between atoms: C_4  and  C_6
    2  A    between atoms: C_9  and  C_30
    3  A    between atoms: C_10  and  C_26
    4  A    between atoms: N_11  and  C_30
    5  A    between atoms: C_14  and  C_29
                            x       y       z     vdW  Elec       q    Type
                         _______ _______ _______ _____ _____    ______ ____

>  <TORSDO>
F 5

$$$$
=
 OpenBabel11042413113D

 32 36  0  0  1  0  0  0  0  0999 V2000
  186.0430  178.3340  139.5880 N   0  0  0  0  0  0  0  0  0  0  0  0
  189.2130  177.6020  144.0310 N   0  0  0  0  0  1  0  0  0  0  0  0
  182.4260  179.3650  139.4700 C   0  0  0  0  0  0  0  0  0  0  0  0
  186.7010  178.3300  140.7160 C   0  0  0  0  0  0  0  0  0  0  0  0
  184.8450  176.8070  137.2050 C   0  0  2  0  0  3  0  0  0  0  0  0
  188.3430  177.8700  142.9350 C   0  0  0  0  0  0  0  0  0  0  0  0
  183.9770  176.5810  136.1030 O   0  0  0  0  0  0  0  0  0  0  0  0
  184.3040  178.0200  137.9220 C   0  0  2  0  0  3  0  0  0  0  0  0
  182.1160  178.8480  138.2050 O   0  0  0  0  0  0  0  0  0  0  0  0
  188.1100  178.3710  140.6280 C   0  0  0  0  0  0  0  0  0  0  0  0
  183.6780  178.8980  140.1370 C   0  0  0  0  0  0  0  0  0  0  0  0
  181.6490  180.1880  140.0250 O   0  0  0  0  0  0  0  0  0  0  0  0
  182.7940  177.3170  136.3610 C   0  0  0  0  0  2  0  0  0  0  0  0
  186.1130  178.1830  142.0060 C   0  0  0  0  0  0  0  0  0  0  0  0
  184.6670  178.2080  139.3360 N   0  0  0  0  0  0  0  0  0  0  0  0
  186.9540  177.8750  143.1050 C   0  0  0  0  0  0  0  0  0  0  0  0
  182.8630  177.7150  137.8010 C   0  0  1  0  0  3  0  0  0  0  0  0
  188.8760  178.1400  141.7210 N   0  0  0  0  0  0  0  0  0  0  0  0
  186.3950  177.5980  144.4740 C   0  0  0  0  0  1  0  0  0  0  0  0
  184.8320  178.4590  142.2990 C   0  0  0  0  0  3  0  0  0  0  0  0
  183.7460  178.9460  141.4570 C   0  0  0  0  0  3  0  0  0  0  0  0
  186.2750  177.0410  136.7130 C   0  0  2  0  0  3  0  0  0  0  0  0
  186.9380  175.8490  135.9980 C   0  0  1  0  0  3  0  0  0  0  0  0
  187.2110  176.1170  137.4630 C   0  0  0  0  0  2  0  0  0  0  0  0
  186.3680  173.5700  136.5610 N   0  0  0  0  0  0  0  0  0  0  0  0
  186.0830  174.6310  135.8770 C   0  0  0  0  0  3  0  0  0  0  0  0
  185.9790  171.4180  135.7220 O   0  0  0  0  0  0  0  0  0  0  0  0
  185.5990  172.3710  136.4580 C   0  0  0  0  0  0  0  0  0  0  0  0
  184.3230  172.2500  137.2170 C   0  0  0  0  0  2  0  0  0  0  0  0
  183.4300  171.2100  136.5590 C   0  0  0  0  0  1  0  0  0  0  0  0
  189.3420  178.8410  138.3310 C   0  0  0  0  0  3  0  0  0  0  0  0
  188.7790  178.6270  139.3750 C   0  0  0  0  0  0  0  0  0  0  0  0
  1  4  2  0  0  0  0
  3 12  2  0  0  0  0
  3 11  1  0  0  0  0
  4 14  1  0  0  0  0
  5  7  1  6  0  0  0
  5  8  1  0  0  0  0
  6 16  2  0  0  0  0
  6  2  1  0  0  0  0
  7 13  1  0  0  0  0
  8 15  1  1  0  0  0
  9  3  1  0  0  0  0
 10  4  1  0  0  0  0
 10 18  2  0  0  0  0
 11 21  2  0  0  0  0
 14 20  2  0  0  0  0
 14 16  1  0  0  0  0
 15  1  1  0  0  0  0
 15 11  1  0  0  0  0
 16 19  1  0  0  0  0
 17 13  1  6  0  0  0
 17  8  1  0  0  0  0
 17  9  1  0  0  0  0
 18  6  1  0  0  0  0
 21 20  1  0  0  0  0
 22  5  1  0  0  0  0
 22 24  1  1  0  0  0
 23 26  1  1  0  0  0
 23 22  1  0  0  0  0
 23 24  1  0  0  0  0
 26 25  2  0  0  0  0
 27 28  2  0  0  0  0
 28 25  1  0  0  0  0
 28 29  1  0  0  0  0
 30 29  1  0  0  0  0
 31 32  3  0  0  0  0
 32 10  1  0  0  0  0
M  END
>  <MODEL>
7

>  <REMARK>
 VINA RESULT:      -7.0      3.762      7.661
  Name = 
  5 active torsions:
  status: ('A' for Active; 'I' for Inactive)
    1  A    between atoms: C_4  and  C_6
    2  A    between atoms: C_9  and  C_30
    3  A    between atoms: C_10  and  C_26
    4  A    between atoms: N_11  and  C_30
    5  A    between atoms: C_14  and  C_29
                            x       y       z     vdW  Elec       q    Type
                         _______ _______ _______ _____ _____    ______ ____

>  <TORSDO>
F 5

$$$$
=
 OpenBabel11042413113D

 32 36  0  0  1  0  0  0  0  0999 V2000
  188.2180  177.4100  139.1470 N   0  0  0  0  0  0  0  0  0  0  0  0
  186.1260  174.4440  135.0060 N   0  0  0  0  0  1  0  0  0  0  0  0
  191.7550  177.4190  140.4320 C   0  0  0  0  0  0  0  0  0  0  0  0
  187.9000  176.7470  138.0670 C   0  0  0  0  0  0  0  0  0  0  0  0
  187.9730  177.8160  142.1840 C   0  0  2  0  0  3  0  0  0  0  0  0
  186.7590  175.2150  136.0230 C   0  0  0  0  0  0  0  0  0  0  0  0
  188.3610  178.2600  143.4770 O   0  0  0  0  0  0  0  0  0  0  0  0
  189.1780  178.0090  141.2960 C   0  0  2  0  0  3  0  0  0  0  0  0
  191.4930  177.9010  141.7210 O   0  0  0  0  0  0  0  0  0  0  0  0
  186.7110  177.1370  137.4120 C   0  0  0  0  0  0  0  0  0  0  0  0
  190.6100  176.8970  139.6270 C   0  0  0  0  0  0  0  0  0  0  0  0
  192.9330  177.4140  139.9850 O   0  0  0  0  0  0  0  0  0  0  0  0
  189.7770  178.3210  143.4770 C   0  0  0  0  0  2  0  0  0  0  0  0
  188.6000  175.6100  137.5690 C   0  0  0  0  0  0  0  0  0  0  0  0
  189.2660  177.2120  140.0620 N   0  0  0  0  0  0  0  0  0  0  0  0
  187.9710  174.8030  136.5870 C   0  0  0  0  0  0  0  0  0  0  0  0
  190.2200  177.5840  142.2540 C   0  0  1  0  0  3  0  0  0  0  0  0
  186.1830  176.3700  136.4280 N   0  0  0  0  0  0  0  0  0  0  0  0
  188.5990  173.5280  136.0940 C   0  0  0  0  0  1  0  0  0  0  0  0
  189.8790  175.3160  137.8480 C   0  0  0  0  0  3  0  0  0  0  0  0
  190.8570  176.0100  138.6790 C   0  0  0  0  0  3  0  0  0  0  0  0
  186.7750  178.6260  141.6830 C   0  0  2  0  0  3  0  0  0  0  0  0
  185.6440  178.8440  142.7050 C   0  0  1  0  0  3  0  0  0  0  0  0
  185.5490  177.7380  141.6760 C   0  0  0  0  0  2  0  0  0  0  0  0
  185.6530  178.9310  145.1190 N   0  0  0  0  0  0  0  0  0  0  0  0
  185.8820  178.2400  144.0490 C   0  0  0  0  0  3  0  0  0  0  0  0
  185.0250  178.5190  147.3370 O   0  0  0  0  0  0  0  0  0  0  0  0
  185.8920  178.4090  146.4270 C   0  0  0  0  0  0  0  0  0  0  0  0
  187.1910  177.7430  146.7250 C   0  0  0  0  0  2  0  0  0  0  0  0
  187.7190  178.2220  148.0670 C   0  0  0  0  0  1  0  0  0  0  0  0
  185.4120  179.3410  138.0960 C   0  0  0  0  0  3  0  0  0  0  0  0
  186.0050  178.3400  137.7850 C   0  0  0  0  0  0  0  0  0  0  0  0
  1 15  1  0  0  0  0
  2  6  1  0  0  0  0
  3  9  1  0  0  0  0
  4  1  2  0  0  0  0
  5  7  1  1  0  0  0
  6 18  1  0  0  0  0
  6 16  2  0  0  0  0
  8 15  1  6  0  0  0
  8  5  1  0  0  0  0
  8 17  1  0  0  0  0
  9 17  1  0  0  0  0
 10 32  1  0  0  0  0
 10  4  1  0  0  0  0
 11 15  1  0  0  0  0
 11  3  1  0  0  0  0
 12  3  2  0  0  0  0
 13  7  1  0  0  0  0
 14 20  2  0  0  0  0
 14  4  1  0  0  0  0
 16 14  1  0  0  0  0
 17 13  1  1  0  0  0
 18 10  2  0  0  0  0
 19 16  1  0  0  0  0
 20 21  1  0  0  0  0
 21 11  2  0  0  0  0
 22 24  1  6  0  0  0
 22  5  1  0  0  0  0
 22 23  1  0  0  0  0
 23 26  1  1  0  0  0
 24 23  1  0  0  0  0
 25 28  1  0  0  0  0
 26 25  2  0  0  0  0
 28 29  1  0  0  0  0
 28 27  2  0  0  0  0
 29 30  1  0  0  0  0
 32 31  3  0  0  0  0
M  END
>  <MODEL>
8

>  <REMARK>
 VINA RESULT:      -6.9      3.204      5.189
  Name = 
  5 active torsions:
  status: ('A' for Active; 'I' for Inactive)
    1  A    between atoms: C_4  and  C_6
    2  A    between atoms: C_9  and  C_30
    3  A    between atoms: C_10  and  C_26
    4  A    between atoms: N_11  and  C_30
    5  A    between atoms: C_14  and  C_29
                            x       y       z     vdW  Elec       q    Type
                         _______ _______ _______ _____ _____    ______ ____

>  <TORSDO>
F 5

$$$$
=
 OpenBabel11042413113D

 32 36  0  0  1  0  0  0  0  0999 V2000
  188.6710  177.5260  139.8140 N   0  0  0  0  0  0  0  0  0  0  0  0
  190.9810  176.4140  144.6880 N   0  0  0  0  0  1  0  0  0  0  0  0
  185.3320  179.1290  139.1470 C   0  0  0  0  0  0  0  0  0  0  0  0
  189.1440  177.4470  141.0290 C   0  0  0  0  0  0  0  0  0  0  0  0
  187.6050  176.1480  137.2820 C   0  0  2  0  0  3  0  0  0  0  0  0
  190.3390  176.7880  143.4720 C   0  0  0  0  0  0  0  0  0  0  0  0
  186.8840  176.0350  136.0630 O   0  0  0  0  0  0  0  0  0  0  0  0
  187.1700  177.4530  137.9050 C   0  0  2  0  0  3  0  0  0  0  0  0
  185.1320  178.6340  137.8520 O   0  0  0  0  0  0  0  0  0  0  0  0
  190.5380  177.2550  141.1550 C   0  0  0  0  0  0  0  0  0  0  0  0
  186.3760  178.4830  139.9980 C   0  0  0  0  0  0  0  0  0  0  0  0
  184.6280  180.0830  139.5750 O   0  0  0  0  0  0  0  0  0  0  0  0
  185.8140  176.9610  136.1370 C   0  0  0  0  0  2  0  0  0  0  0  0
  188.3550  177.4350  142.2160 C   0  0  0  0  0  0  0  0  0  0  0  0
  187.3450  177.6200  139.3570 N   0  0  0  0  0  0  0  0  0  0  0  0
  188.9610  177.0250  143.4300 C   0  0  0  0  0  0  0  0  0  0  0  0
  185.7330  177.3840  137.5690 C   0  0  1  0  0  3  0  0  0  0  0  0
  191.0840  176.9340  142.3520 N   0  0  0  0  0  0  0  0  0  0  0  0
  188.1670  176.8820  144.7000 C   0  0  0  0  0  1  0  0  0  0  0  0
  187.1080  177.9230  142.3110 C   0  0  0  0  0  3  0  0  0  0  0  0
  186.2550  178.5570  141.3120 C   0  0  0  0  0  3  0  0  0  0  0  0
  189.1110  176.1320  137.0110 C   0  0  2  0  0  3  0  0  0  0  0  0
  189.6360  174.9070  136.2410 C   0  0  1  0  0  3  0  0  0  0  0  0
  189.7310  174.9650  137.7510 C   0  0  0  0  0  2  0  0  0  0  0  0
  188.4020  172.8610  136.5900 N   0  0  0  0  0  0  0  0  0  0  0  0
  188.5950  173.9080  135.8570 C   0  0  0  0  0  3  0  0  0  0  0  0
  187.8020  170.7020  135.9050 O   0  0  0  0  0  0  0  0  0  0  0  0
  187.4390  171.8620  136.2500 C   0  0  0  0  0  0  0  0  0  0  0  0
  185.9890  172.1990  136.2850 C   0  0  0  0  0  2  0  0  0  0  0  0
  185.6580  172.9130  137.5850 C   0  0  0  0  0  1  0  0  0  0  0  0
  192.1550  177.4500  139.0670 C   0  0  0  0  0  3  0  0  0  0  0  0
  191.4180  177.3640  140.0160 C   0  0  0  0  0  0  0  0  0  0  0  0
  1  4  2  0  0  0  0
  3 12  2  0  0  0  0
  3 11  1  0  0  0  0
  4 10  1  0  0  0  0
  4 14  1  0  0  0  0
  5  7  1  6  0  0  0
  5  8  1  0  0  0  0
  6  2  1  0  0  0  0
  7 13  1  0  0  0  0
  8 15  1  1  0  0  0
  9  3  1  0  0  0  0
 10 18  2  0  0  0  0
 11 21  2  0  0  0  0
 14 20  2  0  0  0  0
 14 16  1  0  0  0  0
 15  1  1  0  0  0  0
 15 11  1  0  0  0  0
 16  6  2  0  0  0  0
 16 19  1  0  0  0  0
 17 13  1  6  0  0  0
 17  9  1  0  0  0  0
 17  8  1  0  0  0  0
 18  6  1  0  0  0  0
 21 20  1  0  0  0  0
 22  5  1  0  0  0  0
 22 24  1  1  0  0  0
 23 26  1  1  0  0  0
 23 22  1  0  0  0  0
 23 24  1  0  0  0  0
 26 25  2  0  0  0  0
 27 28  2  0  0  0  0
 28 29  1  0  0  0  0
 28 25  1  0  0  0  0
 29 30  1  0  0  0  0
 31 32  3  0  0  0  0
 32 10  1  0  0  0  0
M  END
>  <MODEL>
9

>  <REMARK>
 VINA RESULT:      -6.9      3.541      7.574
  Name = 
  5 active torsions:
  status: ('A' for Active; 'I' for Inactive)
    1  A    between atoms: C_4  and  C_6
    2  A    between atoms: C_9  and  C_30
    3  A    between atoms: C_10  and  C_26
    4  A    between atoms: N_11  and  C_30
    5  A    between atoms: C_14  and  C_29
                            x       y       z     vdW  Elec       q    Type
                         _______ _______ _______ _____ _____    ______ ____

>  <TORSDO>
F 5

$$$$
