=
 OpenBabel11042411083D

 68 78  0  0  1  0  0  0  0  0999 V2000
  185.0660  175.7570  137.3120 C   0  0  0  0  0  3  0  0  0  0  0  0
  188.0930  178.2480  141.3170 C   0  0  0  0  0  2  0  0  0  0  0  0
  191.6860  178.3630  140.5590 C   0  0  0  0  0  3  0  0  0  0  0  0
  185.8480  178.3860  140.2510 C   0  0  2  0  0  3  0  0  0  0  0  0
  185.2710  178.4980  142.6350 F   0  0  0  0  0  0  0  0  0  0  0  0
  192.0140  175.9390  135.7640 C   0  0  0  0  0  0  0  0  0  0  0  0
  189.2070  179.0510  141.9630 C   0  0  0  0  0  2  0  0  0  0  0  0
  192.0220  176.4420  137.1360 C   0  0  0  0  0  3  0  0  0  0  0  0
  188.8040  177.0520  135.8860 C   0  0  0  0  0  0  0  0  0  0  0  0
  183.3490  177.4100  138.7640 N   0  0  0  0  0  0  0  0  0  0  0  0
  193.8670  174.4220  136.2530 C   0  0  1  0  0  3  0  0  0  0  0  0
  194.0260  172.9230  135.9330 C   0  0  2  0  0  3  0  0  0  0  0  0
  182.9990  177.3250  142.3930 F   0  0  0  0  0  0  0  0  0  0  0  0
  187.5400  176.6510  136.3480 C   0  0  0  0  0  0  0  0  0  0  0  0
  189.9550  177.5850  143.7870 N   0  0  0  0  0  0  0  0  0  0  0  0
  193.2040  173.5070  138.5440 C   0  0  0  0  0  2  0  0  0  0  0  0
  187.9760  174.4440  135.5480 N   0  0  0  0  0  2  0  0  0  0  0  0
  190.2080  178.1170  142.5610 C   0  0  0  0  0  0  0  0  0  0  0  0
  186.6840  177.5390  137.0150 C   0  0  0  0  0  3  0  0  0  0  0  0
  187.1400  175.3120  136.1650 C   0  0  0  0  0  0  0  0  0  0  0  0
  185.2030  179.0860  139.0740 C   0  0  1  0  0  3  0  0  0  0  0  0
  183.0020  177.1190  139.9900 C   0  0  0  0  0  0  0  0  0  0  0  0
  194.8190  172.2100  137.0260 C   0  0  0  0  0  2  0  0  0  0  0  0
  184.5060  178.0810  138.1690 C   0  0  1  0  0  3  0  0  0  0  0  0
  194.7250  172.7400  134.5940 C   0  0  0  0  0  1  0  0  0  0  0  0
  192.6290  176.3720  139.5000 C   0  0  0  0  0  2  0  0  0  0  0  0
  192.8050  174.9820  135.4070 N   0  0  0  0  0  0  0  0  0  0  0  0
  191.9010  176.2110  143.6660 C   0  0  0  0  0  3  0  0  0  0  0  0
  193.7210  174.7410  137.7810 C   0  0  1  0  0  0  0  0  0  0  0  0
  192.2750  177.7830  139.5580 N   0  0  0  0  0  0  0  0  0  0  0  0
  183.6920  177.5500  141.2450 C   0  0  0  0  0  0  0  0  0  0  0  0
  189.2160  178.2360  136.0670 O   0  0  0  0  0  0  0  0  0  0  0  0
  184.8870  178.1400  141.3790 C   0  0  0  0  0  0  0  0  0  0  0  0
  190.7740  176.6650  144.3630 C   0  0  0  0  0  0  0  0  0  0  0  0
  187.0740  179.1800  140.6990 C   0  0  0  0  0  2  0  0  0  0  0  0
  185.4480  177.0950  137.5160 C   0  0  0  0  0  0  0  0  0  0  0  0
  191.3470  177.7120  141.8420 C   0  0  0  0  0  0  0  0  0  0  0  0
  189.1720  174.8300  135.0980 N   0  0  0  0  0  0  0  0  0  0  0  0
  192.1880  176.7470  142.4110 C   0  0  0  0  0  3  0  0  0  0  0  0
  194.0870  172.2590  138.3730 C   0  0  0  0  0  2  0  0  0  0  0  0
  185.9100  174.8710  136.6450 C   0  0  0  0  0  3  0  0  0  0  0  0
  195.1090  175.1100  138.2980 C   0  0  0  0  0  1  0  0  0  0  0  0
  189.6150  176.1070  135.2400 C   0  0  0  0  0  0  0  0  0  0  0  0
  191.0010  176.4520  134.7970 C   0  0  0  0  0  2  0  0  0  0  0  0
  192.8060  175.9150  138.0760 C   0  0  0  0  0  0  0  0  0  0  0  0
  190.4090  176.1060  145.7060 C   0  0  2  0  0  3  0  0  0  0  0  0
  189.2590  176.8610  146.3510 C   0  0  0  0  0  1  0  0  0  0  0  0
  191.5680  176.1060  146.5890 N   0  0  0  0  0  1  0  0  0  0  0  0
  183.4760  180.2780  138.3750 C   0  0  0  0  0  1  0  0  0  0  0  0
  184.3410  180.1220  139.4600 O   0  0  0  0  0  0  0  0  0  0  0  0
  181.8440  176.3500  140.1810 O   0  0  0  0  0  0  0  0  0  0  0  0
  180.5310  176.8990  140.1120 C   0  0  0  0  0  2  0  0  0  0  0  0
  180.2370  176.0170  136.4500 C   0  0  0  0  0  0  0  0  0  0  0  0
  179.8510  177.3550  135.8780 C   0  0  0  0  0  2  0  0  0  0  0  0
  180.0830  176.9740  138.6920 C   0  0  0  0  0  0  0  0  0  0  0  0
  180.3990  175.8670  137.7680 C   0  0  0  0  0  3  0  0  0  0  0  0
  179.4430  178.0620  138.2490 C   0  0  0  0  0  3  0  0  0  0  0  0
  178.9310  178.1220  136.8340 C   0  0  0  0  0  2  0  0  0  0  0  0
  180.2650  173.5960  134.9770 C   0  0  1  0  0  3  0  0  0  0  0  0
  182.5860  173.5920  135.3270 C   0  0  0  0  0  2  0  0  0  0  0  0
  180.6330  172.5010  135.9670 C   0  0  2  0  0  3  0  0  0  0  0  0
  182.0680  172.5700  136.2250 N   0  0  1  0  0  0  0  0  0  0  0  0
  182.5890  171.3020  135.7760 C   0  0  1  0  0  3  0  0  0  0  0  0
  180.2820  171.2460  135.4280 O   0  0  0  0  0  0  0  0  0  0  0  0
  183.4430  170.7740  136.7440 O   0  0  0  0  0  1  0  0  0  0  0  0
  181.3910  170.4160  135.6220 C   0  0  0  0  0  2  0  0  0  0  0  0
  180.5400  174.9370  135.5730 N   0  0  0  0  0  0  0  0  0  0  0  0
  181.4240  174.2350  134.5940 C   0  0  2  0  0  3  0  0  0  0  0  0
  1 36  1  0  0  0  0
  2  7  1  0  0  0  0
  3 37  1  0  0  0  0
  4 35  1  1  0  0  0
  4 33  1  0  0  0  0
  6  8  1  0  0  0  0
  7 18  1  0  0  0  0
  8 45  2  0  0  0  0
  9 32  2  0  0  0  0
  9 14  1  0  0  0  0
 10 22  2  0  0  0  0
 11 27  1  6  0  0  0
 11 29  1  0  0  0  0
 12 25  1  6  0  0  0
 12 11  1  0  0  0  0
 12 23  1  0  0  0  0
 14 19  1  0  0  0  0
 15 34  1  0  0  0  0
 17 20  1  0  0  0  0
 18 15  2  0  0  0  0
 19 36  2  0  0  0  0
 20 14  2  0  0  0  0
 20 41  1  0  0  0  0
 21 50  1  1  0  0  0
 21  4  1  0  0  0  0
 22 51  1  0  0  0  0
 22 31  1  0  0  0  0
 23 40  1  0  0  0  0
 24 36  1  1  0  0  0
 24 10  1  0  0  0  0
 24 21  1  0  0  0  0
 26 30  1  0  0  0  0
 27  6  2  0  0  0  0
 28 34  2  0  0  0  0
 29 45  1  0  0  0  0
 29 42  1  1  0  0  0
 29 16  1  0  0  0  0
 30  3  2  0  0  0  0
 31 33  2  0  0  0  0
 31 13  1  0  0  0  0
 33  5  1  0  0  0  0
 34 46  1  0  0  0  0
 35  2  1  0  0  0  0
 37 39  2  0  0  0  0
 37 18  1  0  0  0  0
 38 43  2  0  0  0  0
 38 17  1  0  0  0  0
 39 28  1  0  0  0  0
 40 16  1  0  0  0  0
 41  1  2  0  0  0  0
 43  9  1  0  0  0  0
 44 43  1  0  0  0  0
 44  6  1  0  0  0  0
 45 26  1  0  0  0  0
 46 47  1  1  0  0  0
 46 48  1  0  0  0  0
 49 50  1  0  0  0  0
 52 51  1  0  0  0  0
 53 56  2  0  0  0  0
 54 53  1  0  0  0  0
 54 58  1  0  0  0  0
 55 52  1  0  0  0  0
 56 55  1  0  0  0  0
 57 55  2  0  0  0  0
 58 57  1  0  0  0  0
 59 67  1  1  0  0  0
 59 61  1  0  0  0  0
 61 64  1  6  0  0  0
 61 62  1  0  0  0  0
 62 60  1  6  0  0  0
 63 62  1  0  0  0  0
 63 65  1  1  0  0  0
 64 66  1  0  0  0  0
 66 63  1  0  0  0  0
 67 53  1  0  0  0  0
 68 59  1  0  0  0  0
 68 60  1  1  0  0  0
 68 67  1  0  0  0  0
M  END
>  <MODEL>
1

>  <REMARK>
 VINA RESULT:      -1.9      0.000      0.000
  Name = 
  6 active torsions:
  status: ('A' for Active; 'I' for Inactive)
    1  A    between atoms: C_10  and  N_57
    2  A    between atoms: C_17  and  C_25
    3  A    between atoms: C_17  and  O_30
    4  A    between atoms: C_20  and  C_54
    5  A    between atoms: O_24  and  C_35
    6  A    between atoms: O_30  and  C_36
                            x       y       z     vdW  Elec       q    Type
                         _______ _______ _______ _____ _____    ______ ____

>  <TORSDO>
F 6

$$$$
