=
 OpenBabel11032419163D

 30 33  0  0  1  0  0  0  0  0999 V2000
  189.5710  177.2600  141.3850 C   0  0  0  0  0  0  0  0  0  0  0  0
  188.3190  177.5750  141.5850 N   0  0  0  0  0  0  0  0  0  0  0  0
  187.6140  177.2220  137.2130 C   0  0  0  0  0  1  0  0  0  0  0  0
  190.2030  177.6120  140.0720 C   0  0  1  0  0  3  0  0  0  0  0  0
  189.5880  175.8200  137.8980 C   0  0  0  0  0  0  0  0  0  0  0  0
  189.2880  174.9260  137.0120 N   0  0  0  0  0  2  0  0  0  0  0  0
  191.1150  176.5030  139.6100 C   0  0  0  0  0  3  0  0  0  0  0  0
  188.5850  179.0780  139.1020 O   0  0  0  0  0  0  0  0  0  0  0  0
  188.7750  176.9900  138.0620 N   0  0  0  0  0  0  0  0  0  0  0  0
  190.8000  175.6890  138.6470 N   0  0  0  0  0  0  0  0  0  0  0  0
  189.1550  177.9550  139.0510 C   0  0  0  0  0  0  0  0  0  0  0  0
  187.4730  177.9970  145.2880 C   0  0  1  0  0  3  0  0  0  0  0  0
  188.2420  178.1220  143.9630 C   0  0  0  0  0  2  0  0  0  0  0  0
  185.2990  177.6780  146.2890 O   0  0  0  0  0  1  0  0  0  0  0  0
  186.1290  177.8680  142.6040 C   0  0  0  0  0  2  0  0  0  0  0  0
  187.5640  177.3730  142.8130 C   0  0  1  0  0  3  0  0  0  0  0  0
  186.0380  177.4690  145.1230 C   0  0  1  0  0  3  0  0  0  0  0  0
  185.3380  178.0920  143.9020 C   0  0  1  0  0  3  0  0  0  0  0  0
  185.0860  179.5890  144.0750 C   0  0  0  0  0  2  0  0  0  0  0  0
  183.6250  179.8820  144.1880 C   0  0  0  0  0  3  0  0  0  0  0  0
  182.7600  178.9670  143.9510 N   0  0  0  0  0  2  0  0  0  0  0  0
  188.2650  177.2070  146.3270 C   0  0  0  0  0  2  0  0  0  0  0  0
  189.6590  177.7750  146.5460 C   0  0  0  0  0  3  0  0  0  0  0  0
  189.9420  177.8320  148.0320 C   0  0  0  0  0  2  0  0  0  0  0  0
  190.5280  176.7180  147.1930 C   0  0  0  0  0  2  0  0  0  0  0  0
  191.4600  177.0720  143.1320 C   0  0  0  0  0  3  0  0  0  0  0  0
  191.1280  175.0060  143.6470 N   0  0  0  0  0  0  0  0  0  0  0  0
  190.2520  175.3160  142.7410 O   0  0  0  0  0  0  0  0  0  0  0  0
  191.8860  176.0590  143.9110 N   0  0  0  0  0  0  0  0  0  0  0  0
  190.4110  176.5670  142.3870 C   0  0  0  0  0  0  0  0  0  0  0  0
  1  2  2  0  0  0  0
  1 30  1  0  0  0  0
  3  9  1  0  0  0  0
  4  1  1  1  0  0  0
  5  9  1  0  0  0  0
  5 10  1  0  0  0  0
  6  5  2  0  0  0  0
  7  4  1  0  0  0  0
  9 11  1  0  0  0  0
 10  7  2  0  0  0  0
 11  8  2  0  0  0  0
 11  4  1  0  0  0  0
 12 22  1  1  0  0  0
 13 12  1  0  0  0  0
 15 16  1  0  0  0  0
 15 18  1  0  0  0  0
 16  2  1  6  0  0  0
 16 13  1  0  0  0  0
 17 12  1  0  0  0  0
 17 14  1  1  0  0  0
 18 19  1  1  0  0  0
 18 17  1  0  0  0  0
 19 20  1  0  0  0  0
 21 20  2  0  0  0  0
 22 23  1  0  0  0  0
 23 25  1  0  0  0  0
 23 24  1  0  0  0  0
 25 24  1  0  0  0  0
 26 29  1  0  0  0  0
 27 29  2  0  0  0  0
 28 27  1  0  0  0  0
 30 28  1  0  0  0  0
 30 26  2  0  0  0  0
M  END
>  <MODEL>
1

>  <REMARK>
 VINA RESULT:      -8.0      0.000      0.000
  Name = 
  7 active torsions:
  status: ('A' for Active; 'I' for Inactive)
    1  A    between atoms: C_2  and  C_22
    2  A    between atoms: C_3  and  C_4
    3  A    between atoms: C_3  and  C_28
    4  A    between atoms: C_5  and  C_22
    5  A    between atoms: C_8  and  C_10
    6  A    between atoms: C_10  and  C_29
    7  A    between atoms: C_18  and  N_21
                            x       y       z     vdW  Elec       q    Type
                         _______ _______ _______ _____ _____    ______ ____

>  <TORSDO>
F 7

$$$$
=
 OpenBabel11032419163D

 30 33  0  0  1  0  0  0  0  0999 V2000
  188.2340  178.2340  139.9200 C   0  0  0  0  0  0  0  0  0  0  0  0
  189.1350  177.9950  140.8350 N   0  0  0  0  0  0  0  0  0  0  0  0
  188.0240  174.3070  137.5180 C   0  0  0  0  0  1  0  0  0  0  0  0
  188.5910  178.0200  138.4800 C   0  0  1  0  0  3  0  0  0  0  0  0
  190.1190  175.6350  137.9400 C   0  0  0  0  0  0  0  0  0  0  0  0
  190.8450  174.5710  137.8200 N   0  0  0  0  0  2  0  0  0  0  0  0
  190.0880  178.0010  138.3030 C   0  0  0  0  0  3  0  0  0  0  0  0
  186.7070  176.7970  137.6640 O   0  0  0  0  0  0  0  0  0  0  0  0
  188.6930  175.5670  137.8170 N   0  0  0  0  0  0  0  0  0  0  0  0
  190.7580  176.9080  138.0910 N   0  0  0  0  0  0  0  0  0  0  0  0
  187.9340  176.7760  137.9490 C   0  0  0  0  0  0  0  0  0  0  0  0
  187.9870  176.8520  144.2960 C   0  0  1  0  0  3  0  0  0  0  0  0
  188.1810  176.8550  142.7710 C   0  0  0  0  0  2  0  0  0  0  0  0
  188.8980  177.5910  146.4060 O   0  0  0  0  0  1  0  0  0  0  0  0
  190.3190  178.1870  142.9520 C   0  0  0  0  0  2  0  0  0  0  0  0
  188.9470  178.0840  142.2760 C   0  0  1  0  0  3  0  0  0  0  0  0
  188.8820  177.8590  145.0360 C   0  0  1  0  0  3  0  0  0  0  0  0
  190.3090  177.8860  144.4590 C   0  0  1  0  0  3  0  0  0  0  0  0
  191.0630  176.5800  144.7060 C   0  0  0  0  0  2  0  0  0  0  0  0
  191.7960  176.6170  146.0070 C   0  0  0  0  0  3  0  0  0  0  0  0
  192.1750  175.5300  146.5700 N   0  0  0  0  0  2  0  0  0  0  0  0
  186.5150  176.9950  144.6770 C   0  0  0  0  0  2  0  0  0  0  0  0
  186.1510  178.4240  145.0480 C   0  0  0  0  0  3  0  0  0  0  0  0
  184.6570  178.6110  144.8870 C   0  0  0  0  0  2  0  0  0  0  0  0
  185.2480  178.4040  146.2640 C   0  0  0  0  0  2  0  0  0  0  0  0
  186.2910  178.9570  141.4560 C   0  0  0  0  0  3  0  0  0  0  0  0
  184.8810  179.4090  139.8890 N   0  0  0  0  0  0  0  0  0  0  0  0
  185.9710  179.0050  139.3130 O   0  0  0  0  0  0  0  0  0  0  0  0
  185.0400  179.3920  141.2040 N   0  0  0  0  0  0  0  0  0  0  0  0
  186.8660  178.7110  140.2230 C   0  0  0  0  0  0  0  0  0  0  0  0
  1 30  1  0  0  0  0
  1  2  2  0  0  0  0
  3  9  1  0  0  0  0
  4  1  1  1  0  0  0
  5 10  1  0  0  0  0
  6  5  2  0  0  0  0
  7  4  1  0  0  0  0
  8 11  2  0  0  0  0
  9  5  1  0  0  0  0
  9 11  1  0  0  0  0
 10  7  2  0  0  0  0
 11  4  1  0  0  0  0
 12 22  1  6  0  0  0
 12 17  1  0  0  0  0
 13 12  1  0  0  0  0
 15 18  1  0  0  0  0
 16  2  1  6  0  0  0
 16 13  1  0  0  0  0
 16 15  1  0  0  0  0
 17 14  1  1  0  0  0
 18 19  1  6  0  0  0
 18 17  1  0  0  0  0
 19 20  1  0  0  0  0
 20 21  2  0  0  0  0
 22 23  1  0  0  0  0
 23 25  1  0  0  0  0
 24 23  1  0  0  0  0
 24 25  1  0  0  0  0
 27 29  2  0  0  0  0
 28 27  1  0  0  0  0
 28 30  1  0  0  0  0
 29 26  1  0  0  0  0
 30 26  2  0  0  0  0
M  END
>  <MODEL>
2

>  <REMARK>
 VINA RESULT:      -7.6      2.048      4.763
  Name = 
  7 active torsions:
  status: ('A' for Active; 'I' for Inactive)
    1  A    between atoms: C_2  and  C_22
    2  A    between atoms: C_3  and  C_4
    3  A    between atoms: C_3  and  C_28
    4  A    between atoms: C_5  and  C_22
    5  A    between atoms: C_8  and  C_10
    6  A    between atoms: C_10  and  C_29
    7  A    between atoms: C_18  and  N_21
                            x       y       z     vdW  Elec       q    Type
                         _______ _______ _______ _____ _____    ______ ____

>  <TORSDO>
F 7

$$$$
=
 OpenBabel11032419163D

 30 33  0  0  1  0  0  0  0  0999 V2000
  188.2240  178.0870  140.9810 C   0  0  0  0  0  0  0  0  0  0  0  0
  186.9710  178.3340  140.7120 N   0  0  0  0  0  0  0  0  0  0  0  0
  188.1160  176.5030  136.6550 C   0  0  0  0  0  1  0  0  0  0  0  0
  189.2480  178.2880  139.9050 C   0  0  1  0  0  3  0  0  0  0  0  0
  189.8780  175.9360  138.3600 C   0  0  0  0  0  0  0  0  0  0  0  0
  190.1200  174.8110  137.7680 N   0  0  0  0  0  2  0  0  0  0  0  0
  190.4530  177.4150  140.1520 C   0  0  0  0  0  3  0  0  0  0  0  0
  187.9080  178.9500  138.0420 O   0  0  0  0  0  0  0  0  0  0  0  0
  188.8690  176.8240  137.8610 N   0  0  0  0  0  0  0  0  0  0  0  0
  190.6980  176.3420  139.4610 N   0  0  0  0  0  0  0  0  0  0  0  0
  188.6450  178.0620  138.5470 C   0  0  0  0  0  0  0  0  0  0  0  0
  184.5110  179.6110  143.3430 C   0  0  1  0  0  3  0  0  0  0  0  0
  185.7030  179.5970  142.3730 C   0  0  0  0  0  2  0  0  0  0  0  0
  182.3270  178.6910  143.8040 O   0  0  0  0  0  1  0  0  0  0  0  0
  184.5800  177.9050  140.8710 C   0  0  0  0  0  2  0  0  0  0  0  0
  185.8560  178.2590  141.6440 C   0  0  1  0  0  3  0  0  0  0  0  0
  183.5250  178.4510  143.1290 C   0  0  1  0  0  3  0  0  0  0  0  0
  183.2760  178.1810  141.6340 C   0  0  1  0  0  3  0  0  0  0  0  0
  182.5370  179.3300  140.9500 C   0  0  0  0  0  2  0  0  0  0  0  0
  182.8680  179.3940  139.4940 C   0  0  0  0  0  3  0  0  0  0  0  0
  181.9900  179.0780  138.6150 N   0  0  0  0  0  2  0  0  0  0  0  0
  184.9670  179.7250  144.7950 C   0  0  0  0  0  2  0  0  0  0  0  0
  185.1520  178.3650  145.4510 C   0  0  0  0  0  3  0  0  0  0  0  0
  186.6020  178.2040  145.8570 C   0  0  0  0  0  2  0  0  0  0  0  0
  185.5620  178.5630  146.8950 C   0  0  0  0  0  2  0  0  0  0  0  0
  188.5480  176.3650  142.8750 C   0  0  0  0  0  3  0  0  0  0  0  0
  189.6710  177.6460  144.1960 N   0  0  0  0  0  0  0  0  0  0  0  0
  189.3890  178.3450  143.1400 O   0  0  0  0  0  0  0  0  0  0  0  0
  189.1700  176.4260  144.0690 N   0  0  0  0  0  0  0  0  0  0  0  0
  188.7000  177.6130  142.3000 C   0  0  0  0  0  0  0  0  0  0  0  0
  1 30  1  0  0  0  0
  2  1  2  0  0  0  0
  3  9  1  0  0  0  0
  4  7  1  0  0  0  0
  4  1  1  1  0  0  0
  5 10  1  0  0  0  0
  6  5  2  0  0  0  0
  8 11  2  0  0  0  0
  9  5  1  0  0  0  0
  9 11  1  0  0  0  0
 10  7  2  0  0  0  0
 11  4  1  0  0  0  0
 12 22  1  1  0  0  0
 13 12  1  0  0  0  0
 15 18  1  0  0  0  0
 15 16  1  0  0  0  0
 16  2  1  6  0  0  0
 16 13  1  0  0  0  0
 17 12  1  0  0  0  0
 17 14  1  1  0  0  0
 18 19  1  6  0  0  0
 18 17  1  0  0  0  0
 20 19  1  0  0  0  0
 21 20  2  0  0  0  0
 22 23  1  0  0  0  0
 23 24  1  0  0  0  0
 23 25  1  0  0  0  0
 24 25  1  0  0  0  0
 26 29  1  0  0  0  0
 28 27  1  0  0  0  0
 29 27  2  0  0  0  0
 30 26  2  0  0  0  0
 30 28  1  0  0  0  0
M  END
>  <MODEL>
3

>  <REMARK>
 VINA RESULT:      -7.2      2.278      3.067
  Name = 
  7 active torsions:
  status: ('A' for Active; 'I' for Inactive)
    1  A    between atoms: C_2  and  C_22
    2  A    between atoms: C_3  and  C_4
    3  A    between atoms: C_3  and  C_28
    4  A    between atoms: C_5  and  C_22
    5  A    between atoms: C_8  and  C_10
    6  A    between atoms: C_10  and  C_29
    7  A    between atoms: C_18  and  N_21
                            x       y       z     vdW  Elec       q    Type
                         _______ _______ _______ _____ _____    ______ ____

>  <TORSDO>
F 7

$$$$
=
 OpenBabel11032419163D

 30 33  0  0  1  0  0  0  0  0999 V2000
  189.9210  177.6420  141.3570 C   0  0  0  0  0  0  0  0  0  0  0  0
  188.9480  178.4030  141.7810 N   0  0  0  0  0  0  0  0  0  0  0  0
  187.3240  177.3400  137.5620 C   0  0  0  0  0  1  0  0  0  0  0  0
  190.3640  177.7630  139.9300 C   0  0  1  0  0  3  0  0  0  0  0  0
  189.2400  175.8110  138.1290 C   0  0  0  0  0  0  0  0  0  0  0  0
  188.7190  174.8600  137.4250 N   0  0  0  0  0  2  0  0  0  0  0  0
  191.0810  176.5110  139.4910 C   0  0  0  0  0  3  0  0  0  0  0  0
  188.7570  179.2810  139.0230 O   0  0  0  0  0  0  0  0  0  0  0  0
  188.5790  177.0770  138.2540 N   0  0  0  0  0  0  0  0  0  0  0  0
  190.5390  175.6310  138.7020 N   0  0  0  0  0  0  0  0  0  0  0  0
  189.2020  178.1020  139.0390 C   0  0  0  0  0  0  0  0  0  0  0  0
  186.9440  177.2610  144.8280 C   0  0  1  0  0  3  0  0  0  0  0  0
  187.4920  177.2880  143.3920 C   0  0  0  0  0  2  0  0  0  0  0  0
  187.3790  177.8770  147.1210 O   0  0  0  0  0  1  0  0  0  0  0  0
  189.6100  178.4540  144.1220 C   0  0  0  0  0  2  0  0  0  0  0  0
  188.4330  178.4690  143.1400 C   0  0  1  0  0  3  0  0  0  0  0  0
  187.7050  178.1800  145.7980 C   0  0  1  0  0  3  0  0  0  0  0  0
  189.2260  178.1160  145.5710 C   0  0  1  0  0  3  0  0  0  0  0  0
  189.8120  176.7520  145.9320 C   0  0  0  0  0  2  0  0  0  0  0  0
  190.7850  176.8640  147.0610 C   0  0  0  0  0  3  0  0  0  0  0  0
  191.9860  176.4380  146.9270 N   0  0  0  0  0  2  0  0  0  0  0  0
  185.4370  177.5020  144.8600 C   0  0  0  0  0  2  0  0  0  0  0  0
  185.0750  178.9390  144.5190 C   0  0  0  0  0  3  0  0  0  0  0  0
  184.1440  178.9440  143.3250 C   0  0  0  0  0  2  0  0  0  0  0  0
  183.5860  179.1350  144.7180 C   0  0  0  0  0  2  0  0  0  0  0  0
  191.8230  176.7860  142.8740 C   0  0  0  0  0  3  0  0  0  0  0  0
  190.9810  174.8420  143.2690 N   0  0  0  0  0  0  0  0  0  0  0  0
  190.1520  175.4620  142.4870 O   0  0  0  0  0  0  0  0  0  0  0  0
  192.0190  175.6240  143.5270 N   0  0  0  0  0  0  0  0  0  0  0  0
  190.6190  176.6550  142.2100 C   0  0  0  0  0  0  0  0  0  0  0  0
  1  2  2  0  0  0  0
  1 30  1  0  0  0  0
  3  9  1  0  0  0  0
  4  1  1  1  0  0  0
  5  9  1  0  0  0  0
  5 10  1  0  0  0  0
  6  5  2  0  0  0  0
  7  4  1  0  0  0  0
  8 11  2  0  0  0  0
  9 11  1  0  0  0  0
 10  7  2  0  0  0  0
 11  4  1  0  0  0  0
 12 22  1  6  0  0  0
 12 17  1  0  0  0  0
 13 12  1  0  0  0  0
 15 18  1  0  0  0  0
 16  2  1  6  0  0  0
 16 13  1  0  0  0  0
 16 15  1  0  0  0  0
 17 14  1  1  0  0  0
 18 17  1  0  0  0  0
 18 19  1  6  0  0  0
 19 20  1  0  0  0  0
 21 20  2  0  0  0  0
 23 25  1  0  0  0  0
 23 22  1  0  0  0  0
 24 23  1  0  0  0  0
 24 25  1  0  0  0  0
 26 29  1  0  0  0  0
 27 29  2  0  0  0  0
 28 27  1  0  0  0  0
 30 28  1  0  0  0  0
 30 26  2  0  0  0  0
M  END
>  <MODEL>
4

>  <REMARK>
 VINA RESULT:      -7.1      1.471      3.681
  Name = 
  7 active torsions:
  status: ('A' for Active; 'I' for Inactive)
    1  A    between atoms: C_2  and  C_22
    2  A    between atoms: C_3  and  C_4
    3  A    between atoms: C_3  and  C_28
    4  A    between atoms: C_5  and  C_22
    5  A    between atoms: C_8  and  C_10
    6  A    between atoms: C_10  and  C_29
    7  A    between atoms: C_18  and  N_21
                            x       y       z     vdW  Elec       q    Type
                         _______ _______ _______ _____ _____    ______ ____

>  <TORSDO>
F 7

$$$$
=
 OpenBabel11032419163D

 30 33  0  0  1  0  0  0  0  0999 V2000
  184.6470  178.8860  141.4770 C   0  0  0  0  0  0  0  0  0  0  0  0
  185.9110  178.6970  141.2110 N   0  0  0  0  0  0  0  0  0  0  0  0
  183.4800  175.6020  138.4620 C   0  0  0  0  0  1  0  0  0  0  0  0
  183.6760  178.9890  140.3390 C   0  0  1  0  0  3  0  0  0  0  0  0
  184.5590  177.7970  137.8660 C   0  0  0  0  0  0  0  0  0  0  0  0
  185.0750  177.2790  136.7990 N   0  0  0  0  0  2  0  0  0  0  0  0
  184.2800  179.7670  139.1970 C   0  0  0  0  0  3  0  0  0  0  0  0
  182.3500  177.0210  140.6210 O   0  0  0  0  0  0  0  0  0  0  0  0
  183.7610  177.0020  138.7540 N   0  0  0  0  0  0  0  0  0  0  0  0
  184.6990  179.2010  138.1050 N   0  0  0  0  0  0  0  0  0  0  0  0
  183.2040  177.6250  139.9180 C   0  0  0  0  0  0  0  0  0  0  0  0
  187.9340  176.8610  143.8840 C   0  0  1  0  0  3  0  0  0  0  0  0
  186.8110  177.1540  142.8760 C   0  0  0  0  0  2  0  0  0  0  0  0
  190.2450  177.2760  144.4450 O   0  0  0  0  0  1  0  0  0  0  0  0
  188.3300  178.5950  141.4630 C   0  0  0  0  0  2  0  0  0  0  0  0
  186.9790  178.5090  142.1820 C   0  0  1  0  0  3  0  0  0  0  0  0
  189.1540  177.7850  143.7380 C   0  0  1  0  0  3  0  0  0  0  0  0
  189.5130  178.0270  142.2610 C   0  0  1  0  0  3  0  0  0  0  0  0
  190.0140  176.7610  141.5670 C   0  0  0  0  0  2  0  0  0  0  0  0
  190.2390  176.9970  140.1090 C   0  0  0  0  0  3  0  0  0  0  0  0
  190.6610  176.0490  139.3560 N   0  0  0  0  0  2  0  0  0  0  0  0
  187.4070  176.8170  145.3160 C   0  0  0  0  0  2  0  0  0  0  0  0
  187.4550  178.1790  145.9910 C   0  0  0  0  0  3  0  0  0  0  0  0
  186.3130  178.2810  146.9790 C   0  0  0  0  0  2  0  0  0  0  0  0
  187.7130  177.9880  147.4710 C   0  0  0  0  0  2  0  0  0  0  0  0
  184.5820  179.7730  143.8990 C   0  0  0  0  0  3  0  0  0  0  0  0
  182.8100  178.7120  144.5140 N   0  0  0  0  0  0  0  0  0  0  0  0
  183.0340  178.3910  143.2760 O   0  0  0  0  0  0  0  0  0  0  0  0
  183.7410  179.5580  144.9290 N   0  0  0  0  0  0  0  0  0  0  0  0
  184.1080  179.0080  142.8510 C   0  0  0  0  0  0  0  0  0  0  0  0
  1 30  1  0  0  0  0
  2  1  2  0  0  0  0
  3  9  1  0  0  0  0
  4  1  1  1  0  0  0
  5 10  1  0  0  0  0
  5  9  1  0  0  0  0
  6  5  2  0  0  0  0
  7  4  1  0  0  0  0
  9 11  1  0  0  0  0
 10  7  2  0  0  0  0
 11  4  1  0  0  0  0
 11  8  2  0  0  0  0
 12 22  1  1  0  0  0
 13 12  1  0  0  0  0
 15 16  1  0  0  0  0
 15 18  1  0  0  0  0
 16  2  1  6  0  0  0
 16 13  1  0  0  0  0
 17 12  1  0  0  0  0
 17 14  1  1  0  0  0
 18 19  1  6  0  0  0
 18 17  1  0  0  0  0
 20 19  1  0  0  0  0
 21 20  2  0  0  0  0
 22 23  1  0  0  0  0
 23 24  1  0  0  0  0
 23 25  1  0  0  0  0
 24 25  1  0  0  0  0
 26 29  1  0  0  0  0
 27 29  2  0  0  0  0
 28 27  1  0  0  0  0
 30 28  1  0  0  0  0
 30 26  2  0  0  0  0
M  END
>  <MODEL>
5

>  <REMARK>
 VINA RESULT:      -7.0      2.828      5.774
  Name = 
  7 active torsions:
  status: ('A' for Active; 'I' for Inactive)
    1  A    between atoms: C_2  and  C_22
    2  A    between atoms: C_3  and  C_4
    3  A    between atoms: C_3  and  C_28
    4  A    between atoms: C_5  and  C_22
    5  A    between atoms: C_8  and  C_10
    6  A    between atoms: C_10  and  C_29
    7  A    between atoms: C_18  and  N_21
                            x       y       z     vdW  Elec       q    Type
                         _______ _______ _______ _____ _____    ______ ____

>  <TORSDO>
F 7

$$$$
=
 OpenBabel11032419163D

 30 33  0  0  1  0  0  0  0  0999 V2000
  190.4300  176.7840  138.2710 C   0  0  0  0  0  0  0  0  0  0  0  0
  190.9650  176.6660  139.4560 N   0  0  0  0  0  0  0  0  0  0  0  0
  188.0510  175.0530  134.7240 C   0  0  0  0  0  1  0  0  0  0  0  0
  190.9420  175.9230  137.1560 C   0  0  1  0  0  3  0  0  0  0  0  0
  189.2570  173.6890  136.4610 C   0  0  0  0  0  0  0  0  0  0  0  0
  188.4530  172.6940  136.2700 N   0  0  0  0  0  2  0  0  0  0  0  0
  191.1710  174.5130  137.6390 C   0  0  0  0  0  3  0  0  0  0  0  0
  190.0340  176.9960  135.2240 O   0  0  0  0  0  0  0  0  0  0  0  0
  189.0970  174.9110  135.7290 N   0  0  0  0  0  0  0  0  0  0  0  0
  190.3780  173.5290  137.3360 N   0  0  0  0  0  0  0  0  0  0  0  0
  190.0190  175.9810  135.9710 C   0  0  0  0  0  0  0  0  0  0  0  0
  188.8410  177.3530  142.5580 C   0  0  1  0  0  3  0  0  0  0  0  0
  189.3080  176.6960  141.2490 C   0  0  0  0  0  2  0  0  0  0  0  0
  189.5430  178.5910  144.5090 O   0  0  0  0  0  1  0  0  0  0  0  0
  191.7110  177.3520  141.6680 C   0  0  0  0  0  2  0  0  0  0  0  0
  190.5540  177.3670  140.6630 C   0  0  1  0  0  3  0  0  0  0  0  0
  189.8880  178.2850  143.1910 C   0  0  1  0  0  3  0  0  0  0  0  0
  191.3050  177.6890  143.1110 C   0  0  1  0  0  3  0  0  0  0  0  0
  191.4610  176.4380  143.9730 C   0  0  0  0  0  2  0  0  0  0  0  0
  191.6720  176.7940  145.4090 C   0  0  0  0  0  3  0  0  0  0  0  0
  192.0510  175.9030  146.2490 N   0  0  0  0  0  2  0  0  0  0  0  0
  187.4830  178.0310  142.3950 C   0  0  0  0  0  2  0  0  0  0  0  0
  186.4070  177.3840  143.2530 C   0  0  0  0  0  3  0  0  0  0  0  0
  186.0760  178.3050  144.4080 C   0  0  0  0  0  2  0  0  0  0  0  0
  185.1580  178.2390  143.2080 C   0  0  0  0  0  2  0  0  0  0  0  0
  187.9710  177.5400  138.0650 C   0  0  0  0  0  3  0  0  0  0  0  0
  188.3750  179.5380  137.3650 N   0  0  0  0  0  0  0  0  0  0  0  0
  189.5230  178.9570  137.5340 O   0  0  0  0  0  0  0  0  0  0  0  0
  187.4010  178.6990  137.6810 N   0  0  0  0  0  0  0  0  0  0  0  0
  189.3360  177.7310  137.9570 C   0  0  0  0  0  0  0  0  0  0  0  0
  1  2  2  0  0  0  0
  3  9  1  0  0  0  0
  4  7  1  0  0  0  0
  4  1  1  1  0  0  0
  5 10  1  0  0  0  0
  6  5  2  0  0  0  0
  8 11  2  0  0  0  0
  9 11  1  0  0  0  0
  9  5  1  0  0  0  0
 10  7  2  0  0  0  0
 11  4  1  0  0  0  0
 12 22  1  6  0  0  0
 12 17  1  0  0  0  0
 13 12  1  0  0  0  0
 15 18  1  0  0  0  0
 16  2  1  6  0  0  0
 16 13  1  0  0  0  0
 16 15  1  0  0  0  0
 17 14  1  1  0  0  0
 18 17  1  0  0  0  0
 18 19  1  1  0  0  0
 19 20  1  0  0  0  0
 20 21  2  0  0  0  0
 22 23  1  0  0  0  0
 23 24  1  0  0  0  0
 25 23  1  0  0  0  0
 25 24  1  0  0  0  0
 27 28  1  0  0  0  0
 27 29  2  0  0  0  0
 28 30  1  0  0  0  0
 29 26  1  0  0  0  0
 30 26  2  0  0  0  0
 30  1  1  0  0  0  0
M  END
>  <MODEL>
6

>  <REMARK>
 VINA RESULT:      -6.8      2.544      5.286
  Name = 
  7 active torsions:
  status: ('A' for Active; 'I' for Inactive)
    1  A    between atoms: C_2  and  C_22
    2  A    between atoms: C_3  and  C_4
    3  A    between atoms: C_3  and  C_28
    4  A    between atoms: C_5  and  C_22
    5  A    between atoms: C_8  and  C_10
    6  A    between atoms: C_10  and  C_29
    7  A    between atoms: C_18  and  N_21
                            x       y       z     vdW  Elec       q    Type
                         _______ _______ _______ _____ _____    ______ ____

>  <TORSDO>
F 7

$$$$
=
 OpenBabel11032419163D

 30 33  0  0  1  0  0  0  0  0999 V2000
  185.0400  178.4570  141.1660 C   0  0  0  0  0  0  0  0  0  0  0  0
  186.3240  178.2240  141.2080 N   0  0  0  0  0  0  0  0  0  0  0  0
  181.4310  180.8490  139.5870 C   0  0  0  0  0  1  0  0  0  0  0  0
  184.3120  178.2700  139.8690 C   0  0  1  0  0  3  0  0  0  0  0  0
  181.4360  178.3760  140.0520 C   0  0  0  0  0  0  0  0  0  0  0  0
  180.1590  178.3890  140.2580 N   0  0  0  0  0  2  0  0  0  0  0  0
  183.4260  177.0510  139.9300 C   0  0  0  0  0  3  0  0  0  0  0  0
  184.1750  180.5050  139.0340 O   0  0  0  0  0  0  0  0  0  0  0  0
  182.1390  179.5830  139.7290 N   0  0  0  0  0  0  0  0  0  0  0  0
  182.1340  177.1260  140.0440 N   0  0  0  0  0  0  0  0  0  0  0  0
  183.5520  179.5140  139.5010 C   0  0  0  0  0  0  0  0  0  0  0  0
  187.8220  177.0390  144.5180 C   0  0  1  0  0  3  0  0  0  0  0  0
  186.9200  177.0680  143.2740 C   0  0  0  0  0  2  0  0  0  0  0  0
  189.9510  177.7180  145.4320 O   0  0  0  0  0  1  0  0  0  0  0  0
  188.6410  178.3480  141.9410 C   0  0  0  0  0  2  0  0  0  0  0  0
  187.1760  178.2890  142.3860 C   0  0  1  0  0  3  0  0  0  0  0  0
  189.0100  178.0120  144.4440 C   0  0  1  0  0  3  0  0  0  0  0  0
  189.6560  178.0180  143.0460 C   0  0  1  0  0  3  0  0  0  0  0  0
  190.3350  176.6920  142.7120 C   0  0  0  0  0  2  0  0  0  0  0  0
  190.9390  176.7230  141.3450 C   0  0  0  0  0  3  0  0  0  0  0  0
  191.9260  177.4990  141.0900 N   0  0  0  0  0  2  0  0  0  0  0  0
  187.0140  177.2080  145.8030 C   0  0  0  0  0  2  0  0  0  0  0  0
  186.1670  178.4700  145.7920 C   0  0  0  0  0  3  0  0  0  0  0  0
  184.9330  178.2460  146.6400 C   0  0  0  0  0  2  0  0  0  0  0  0
  186.0990  179.0330  147.1960 C   0  0  0  0  0  2  0  0  0  0  0  0
  183.2040  178.2570  142.9680 C   0  0  0  0  0  3  0  0  0  0  0  0
  183.6210  180.1200  143.9680 N   0  0  0  0  0  0  0  0  0  0  0  0
  184.4630  180.0210  142.9840 O   0  0  0  0  0  0  0  0  0  0  0  0
  182.8340  179.0560  143.9880 N   0  0  0  0  0  0  0  0  0  0  0  0
  184.2500  178.9020  142.3370 C   0  0  0  0  0  0  0  0  0  0  0  0
  1  2  2  0  0  0  0
  1 30  1  0  0  0  0
  3  9  1  0  0  0  0
  4  7  1  0  0  0  0
  4  1  1  1  0  0  0
  5  6  2  0  0  0  0
  7 10  2  0  0  0  0
  8 11  2  0  0  0  0
  9  5  1  0  0  0  0
 10  5  1  0  0  0  0
 11  9  1  0  0  0  0
 11  4  1  0  0  0  0
 12 22  1  1  0  0  0
 13 12  1  0  0  0  0
 15 16  1  0  0  0  0
 15 18  1  0  0  0  0
 16  2  1  6  0  0  0
 16 13  1  0  0  0  0
 17 12  1  0  0  0  0
 17 14  1  1  0  0  0
 18 19  1  6  0  0  0
 18 17  1  0  0  0  0
 20 19  1  0  0  0  0
 21 20  2  0  0  0  0
 23 22  1  0  0  0  0
 23 24  1  0  0  0  0
 23 25  1  0  0  0  0
 24 25  1  0  0  0  0
 26 29  1  0  0  0  0
 27 29  2  0  0  0  0
 28 27  1  0  0  0  0
 30 26  2  0  0  0  0
 30 28  1  0  0  0  0
M  END
>  <MODEL>
7

>  <REMARK>
 VINA RESULT:      -6.7      2.940      6.397
  Name = 
  7 active torsions:
  status: ('A' for Active; 'I' for Inactive)
    1  A    between atoms: C_2  and  C_22
    2  A    between atoms: C_3  and  C_4
    3  A    between atoms: C_3  and  C_28
    4  A    between atoms: C_5  and  C_22
    5  A    between atoms: C_8  and  C_10
    6  A    between atoms: C_10  and  C_29
    7  A    between atoms: C_18  and  N_21
                            x       y       z     vdW  Elec       q    Type
                         _______ _______ _______ _____ _____    ______ ____

>  <TORSDO>
F 7

$$$$
=
 OpenBabel11032419163D

 30 33  0  0  1  0  0  0  0  0999 V2000
  187.8660  178.1880  141.1580 C   0  0  0  0  0  0  0  0  0  0  0  0
  186.6100  178.4400  141.4120 N   0  0  0  0  0  0  0  0  0  0  0  0
  186.7610  176.2740  137.1140 C   0  0  0  0  0  1  0  0  0  0  0  0
  188.4120  178.5270  139.8030 C   0  0  1  0  0  3  0  0  0  0  0  0
  189.0580  176.2600  138.1420 C   0  0  0  0  0  0  0  0  0  0  0  0
  189.3600  175.1740  137.5060 N   0  0  0  0  0  2  0  0  0  0  0  0
  189.8040  177.9710  139.6400 C   0  0  0  0  0  3  0  0  0  0  0  0
  186.4270  178.7150  138.4860 O   0  0  0  0  0  0  0  0  0  0  0  0
  187.7600  176.8530  138.0020 N   0  0  0  0  0  0  0  0  0  0  0  0
  190.0640  176.9280  138.9090 N   0  0  0  0  0  0  0  0  0  0  0  0
  187.4780  178.0610  138.7220 C   0  0  0  0  0  0  0  0  0  0  0  0
  185.5140  179.2940  144.9720 C   0  0  1  0  0  3  0  0  0  0  0  0
  186.2410  179.4090  143.6220 C   0  0  0  0  0  2  0  0  0  0  0  0
  183.5650  178.4250  146.1010 O   0  0  0  0  0  1  0  0  0  0  0  0
  184.4230  178.1230  142.4300 C   0  0  0  0  0  2  0  0  0  0  0  0
  185.9300  178.2400  142.6830 C   0  0  1  0  0  3  0  0  0  0  0  0
  184.3780  178.2580  144.9780 C   0  0  1  0  0  3  0  0  0  0  0  0
  183.5510  178.3120  143.6810 C   0  0  1  0  0  3  0  0  0  0  0  0
  182.7660  179.6150  143.5430 C   0  0  0  0  0  2  0  0  0  0  0  0
  181.3780  179.3610  143.0510 C   0  0  0  0  0  3  0  0  0  0  0  0
  180.5540  178.6790  143.7570 N   0  0  0  0  0  2  0  0  0  0  0  0
  186.4960  179.0850  146.1230 C   0  0  0  0  0  2  0  0  0  0  0  0
  187.1560  177.7160  146.0780 C   0  0  0  0  0  3  0  0  0  0  0  0
  188.6180  177.8600  146.4450 C   0  0  0  0  0  2  0  0  0  0  0  0
  187.6290  177.3480  147.4690 C   0  0  0  0  0  2  0  0  0  0  0  0
  188.8980  176.2550  142.5200 C   0  0  0  0  0  3  0  0  0  0  0  0
  190.3710  177.4340  143.5620 N   0  0  0  0  0  0  0  0  0  0  0  0
  189.7100  178.2450  142.7950 O   0  0  0  0  0  0  0  0  0  0  0  0
  189.9000  176.2050  143.4200 N   0  0  0  0  0  0  0  0  0  0  0  0
  188.7940  177.5790  142.1380 C   0  0  0  0  0  0  0  0  0  0  0  0
  1  2  2  0  0  0  0
  1 30  1  0  0  0  0
  3  9  1  0  0  0  0
  4  1  1  1  0  0  0
  5 10  1  0  0  0  0
  6  5  2  0  0  0  0
  7  4  1  0  0  0  0
  8 11  2  0  0  0  0
  9  5  1  0  0  0  0
  9 11  1  0  0  0  0
 10  7  2  0  0  0  0
 11  4  1  0  0  0  0
 12 17  1  0  0  0  0
 12 22  1  1  0  0  0
 13 12  1  0  0  0  0
 15 16  1  0  0  0  0
 15 18  1  0  0  0  0
 16  2  1  6  0  0  0
 16 13  1  0  0  0  0
 17 14  1  1  0  0  0
 18 19  1  6  0  0  0
 18 17  1  0  0  0  0
 20 19  1  0  0  0  0
 20 21  2  0  0  0  0
 23 22  1  0  0  0  0
 23 24  1  0  0  0  0
 23 25  1  0  0  0  0
 24 25  1  0  0  0  0
 26 29  1  0  0  0  0
 28 27  1  0  0  0  0
 29 27  2  0  0  0  0
 30 26  2  0  0  0  0
 30 28  1  0  0  0  0
M  END
>  <MODEL>
8

>  <REMARK>
 VINA RESULT:      -6.5      1.637      2.097
  Name = 
  7 active torsions:
  status: ('A' for Active; 'I' for Inactive)
    1  A    between atoms: C_2  and  C_22
    2  A    between atoms: C_3  and  C_4
    3  A    between atoms: C_3  and  C_28
    4  A    between atoms: C_5  and  C_22
    5  A    between atoms: C_8  and  C_10
    6  A    between atoms: C_10  and  C_29
    7  A    between atoms: C_18  and  N_21
                            x       y       z     vdW  Elec       q    Type
                         _______ _______ _______ _____ _____    ______ ____

>  <TORSDO>
F 7

$$$$
=
 OpenBabel11032419163D

 30 33  0  0  1  0  0  0  0  0999 V2000
  183.4030  178.9060  140.3100 C   0  0  0  0  0  0  0  0  0  0  0  0
  184.0190  179.0090  141.4560 N   0  0  0  0  0  0  0  0  0  0  0  0
  178.9390  177.8580  139.8500 C   0  0  0  0  0  1  0  0  0  0  0  0
  182.2680  179.8380  140.0120 C   0  0  1  0  0  3  0  0  0  0  0  0
  180.3770  178.8810  138.0570 C   0  0  0  0  0  0  0  0  0  0  0  0
  179.6240  178.3770  137.1340 N   0  0  0  0  0  2  0  0  0  0  0  0
  182.2810  180.2420  138.5590 C   0  0  0  0  0  3  0  0  0  0  0  0
  180.6450  179.2050  141.6470 O   0  0  0  0  0  0  0  0  0  0  0  0
  180.0970  178.6420  139.4420 N   0  0  0  0  0  0  0  0  0  0  0  0
  181.4360  179.7720  137.6910 N   0  0  0  0  0  0  0  0  0  0  0  0
  180.9570  179.2300  140.4270 C   0  0  0  0  0  0  0  0  0  0  0  0
  187.7170  178.3190  142.1310 C   0  0  1  0  0  3  0  0  0  0  0  0
  186.4520  179.0500  141.6530 C   0  0  0  0  0  2  0  0  0  0  0  0
  188.5930  176.7020  143.6960 O   0  0  0  0  0  1  0  0  0  0  0  0
  185.0150  177.8810  143.3690 C   0  0  0  0  0  2  0  0  0  0  0  0
  185.1760  178.2370  141.8870 C   0  0  1  0  0  3  0  0  0  0  0  0
  187.4290  177.1190  143.0480 C   0  0  1  0  0  3  0  0  0  0  0  0
  186.3110  177.4280  144.0590 C   0  0  1  0  0  3  0  0  0  0  0  0
  186.7230  178.4880  145.0780 C   0  0  0  0  0  2  0  0  0  0  0  0
  185.5280  179.1080  145.7280 C   0  0  0  0  0  3  0  0  0  0  0  0
  185.3020  178.9290  146.9760 N   0  0  0  0  0  2  0  0  0  0  0  0
  188.6310  177.9520  140.9640 C   0  0  0  0  0  2  0  0  0  0  0  0
  187.9920  178.2460  139.6160 C   0  0  0  0  0  3  0  0  0  0  0  0
  189.0750  178.6270  138.6290 C   0  0  0  0  0  2  0  0  0  0  0  0
  188.4860  177.2340  138.6030 C   0  0  0  0  0  2  0  0  0  0  0  0
  183.1620  176.6940  139.0030 C   0  0  0  0  0  3  0  0  0  0  0  0
  184.7860  177.0320  137.6260 N   0  0  0  0  0  0  0  0  0  0  0  0
  184.7330  178.0650  138.4100 O   0  0  0  0  0  0  0  0  0  0  0  0
  183.8380  176.1700  137.9610 N   0  0  0  0  0  0  0  0  0  0  0  0
  183.7600  177.9100  139.2740 C   0  0  0  0  0  0  0  0  0  0  0  0
  1  2  2  0  0  0  0
  4  1  1  6  0  0  0
  4 11  1  0  0  0  0
  5  9  1  0  0  0  0
  6  5  2  0  0  0  0
  7  4  1  0  0  0  0
  9  3  1  0  0  0  0
  9 11  1  0  0  0  0
 10  5  1  0  0  0  0
 10  7  2  0  0  0  0
 11  8  2  0  0  0  0
 12 22  1  6  0  0  0
 12 17  1  0  0  0  0
 13 16  1  0  0  0  0
 13 12  1  0  0  0  0
 15 18  1  0  0  0  0
 16  2  1  1  0  0  0
 16 15  1  0  0  0  0
 17 14  1  1  0  0  0
 17 18  1  0  0  0  0
 18 19  1  1  0  0  0
 19 20  1  0  0  0  0
 20 21  2  0  0  0  0
 23 22  1  0  0  0  0
 24 23  1  0  0  0  0
 25 24  1  0  0  0  0
 25 23  1  0  0  0  0
 26 30  2  0  0  0  0
 27 29  2  0  0  0  0
 27 28  1  0  0  0  0
 28 30  1  0  0  0  0
 29 26  1  0  0  0  0
 30  1  1  0  0  0  0
M  END
>  <MODEL>
9

>  <REMARK>
 VINA RESULT:      -6.4      4.067      7.167
  Name = 
  7 active torsions:
  status: ('A' for Active; 'I' for Inactive)
    1  A    between atoms: C_2  and  C_22
    2  A    between atoms: C_3  and  C_4
    3  A    between atoms: C_3  and  C_28
    4  A    between atoms: C_5  and  C_22
    5  A    between atoms: C_8  and  C_10
    6  A    between atoms: C_10  and  C_29
    7  A    between atoms: C_18  and  N_21
                            x       y       z     vdW  Elec       q    Type
                         _______ _______ _______ _____ _____    ______ ____

>  <TORSDO>
F 7

$$$$
