=
 OpenBabel11042412373D

 41 44  0  0  1  0  0  0  0  0999 V2000
  190.7860  177.1400  139.8080 C   0  0  0  0  0  0  0  0  0  0  0  0
  190.9780  178.4080  143.7820 O   0  0  0  0  0  1  0  0  0  0  0  0
  192.0630  177.4900  141.8090 C   0  0  0  0  0  3  0  0  0  0  0  0
  188.3730  178.5740  142.3250 C   0  0  0  0  0  3  0  0  0  0  0  0
  188.6400  177.6140  139.6110 C   0  0  0  0  0  0  0  0  0  0  0  0
  189.6910  177.6130  140.4550 C   0  0  2  0  0  3  0  0  0  0  0  0
  187.3380  178.1290  140.0480 C   0  0  0  0  0  3  0  0  0  0  0  0
  190.9010  177.9880  142.4600 C   0  0  0  0  0  0  0  0  0  0  0  0
  189.0270  177.1330  138.4050 N   0  0  0  0  0  0  0  0  0  0  0  0
  189.6810  178.0560  141.7570 C   0  0  0  0  0  0  0  0  0  0  0  0
  192.0170  177.0600  140.4600 C   0  0  0  0  0  3  0  0  0  0  0  0
  190.3590  176.8520  138.5180 C   0  0  0  0  0  0  0  0  0  0  0  0
  187.2150  178.5930  141.3130 C   0  0  0  0  0  0  0  0  0  0  0  0
  186.9410  176.4930  137.4410 O   0  0  0  0  0  0  0  0  0  0  0  0
  188.2120  177.0380  137.1970 C   0  0  2  0  0  0  0  0  0  0  0  0
  187.8620  175.6820  136.7370 C   0  0  0  0  0  2  0  0  0  0  0  0
  188.2000  178.1900  136.2070 C   0  0  0  0  0  2  0  0  0  0  0  0
  187.5600  179.2950  136.7680 O   0  0  0  0  0  1  0  0  0  0  0  0
  191.2120  176.3050  137.4210 C   0  0  0  0  0  2  0  0  0  0  0  0
  192.5640  174.3190  137.1540 C   0  0  0  0  0  0  0  0  0  0  0  0
  193.6310  173.7690  136.6360 C   0  0  0  0  0  3  0  0  0  0  0  0
  191.5040  174.8690  137.6730 C   0  0  0  0  0  3  0  0  0  0  0  0
  194.9320  174.3630  136.7470 N   0  0  0  0  0  0  0  0  0  0  0  0
  195.7670  174.2590  138.2600 S   0  0  0  0  0  0  0  0  0  0  0  0
  195.2710  175.3430  139.1760 O   0  0  0  0  0  0  0  0  0  0  0  0
  195.5080  172.9180  138.8890 O   0  0  0  0  0  0  0  0  0  0  0  0
  198.1840  174.9740  139.2530 C   0  0  0  0  0  1  0  0  0  0  0  0
  198.0790  173.2150  137.6600 O   0  0  0  0  0  1  0  0  0  0  0  0
  197.5200  174.4470  137.9970 C   0  0  1  0  0  3  0  0  0  0  0  0
  195.5140  175.1690  135.6790 C   0  0  0  0  0  2  0  0  0  0  0  0
  194.7810  176.4950  135.5630 C   0  0  0  0  0  1  0  0  0  0  0  0
  185.8930  179.1030  141.7740 C   0  0  0  0  0  2  0  0  0  0  0  0
  185.1940  178.0680  142.6430 C   0  0  0  0  0  2  0  0  0  0  0  0
  184.7510  179.5290  144.6180 C   0  0  0  0  0  1  0  0  0  0  0  0
  186.3390  177.6020  144.8400 C   0  0  0  0  0  0  0  0  0  0  0  0
  185.4130  178.3660  144.0520 N   0  0  0  0  0  0  0  0  0  0  0  0
  186.9830  176.6520  144.3130 O   0  0  0  0  0  0  0  0  0  0  0  0
  186.5320  177.9220  146.2230 N   0  0  0  0  0  0  0  0  0  0  0  0
  187.5500  177.4940  146.8960 C   0  0  0  0  0  3  0  0  0  0  0  0
  187.6980  177.8580  148.3300 C   0  0  0  0  0  2  0  0  0  0  0  0
  189.1080  178.3490  148.5840 C   0  0  0  0  0  1  0  0  0  0  0  0
  1  6  1  0  0  0  0
  1 11  1  0  0  0  0
  3  8  1  0  0  0  0
  5  7  2  0  0  0  0
  6  5  1  6  0  0  0
  6 10  1  0  0  0  0
  7 13  1  0  0  0  0
  8  2  1  0  0  0  0
  9 12  1  0  0  0  0
  9  5  1  0  0  0  0
 10  4  1  0  0  0  0
 10  8  2  0  0  0  0
 11  3  2  0  0  0  0
 12  1  2  0  0  0  0
 13 32  1  0  0  0  0
 13  4  2  0  0  0  0
 15 17  1  6  0  0  0
 15 14  1  0  0  0  0
 15  9  1  0  0  0  0
 16 15  1  0  0  0  0
 16 14  1  0  0  0  0
 17 18  1  0  0  0  0
 19 22  1  0  0  0  0
 19 12  1  0  0  0  0
 20 22  2  0  0  0  0
 21 23  1  0  0  0  0
 21 20  2  0  0  0  0
 23 24  1  0  0  0  0
 24 26  2  0  0  0  0
 24 25  2  0  0  0  0
 28 29  1  0  0  0  0
 29 24  1  0  0  0  0
 29 27  1  1  0  0  0
 30 23  1  0  0  0  0
 31 30  1  0  0  0  0
 32 33  1  0  0  0  0
 33 36  1  0  0  0  0
 35 38  1  0  0  0  0
 36 34  1  0  0  0  0
 36 35  1  0  0  0  0
 37 35  2  0  0  0  0
 38 39  2  0  0  0  0
 39 40  1  0  0  0  0
 40 41  1  0  0  0  0
M  END
>  <MODEL>
1

>  <REMARK>
 VINA RESULT:      -7.6      0.000      0.000
  Name = 
  13 active torsions:
  status: ('A' for Active; 'I' for Inactive)
    1  A    between atoms: C_6  and  C_31
    2  A    between atoms: S_8  and  C_23
    3  A    between atoms: S_8  and  N_24
    4  A    between atoms: C_9  and  C_29
    5  A    between atoms: C_9  and  N_34
    6  A    between atoms: C_13  and  C_36
    7  A    between atoms: C_13  and  C_41
    8  A    between atoms: N_14  and  C_16
    9  A    between atoms: C_18  and  N_24
   10  A    between atoms: C_21  and  C_25
   11  A    between atoms: N_24  and  C_38
   12  A    between atoms: C_25  and  N_27
   13  A    between atoms: C_29  and  C_40
                            x       y       z     vdW  Elec       q    Type
                         _______ _______ _______ _____ _____    ______ ____

>  <TORSDO>
F 13

$$$$
=
 OpenBabel11042412373D

 41 44  0  0  1  0  0  0  0  0999 V2000
  186.0200  178.0830  138.1600 C   0  0  0  0  0  0  0  0  0  0  0  0
  185.3250  179.5280  142.0160 O   0  0  0  0  0  1  0  0  0  0  0  0
  184.5400  179.0950  139.7550 C   0  0  0  0  0  3  0  0  0  0  0  0
  188.0030  178.3780  141.3530 C   0  0  0  0  0  3  0  0  0  0  0  0
  188.0960  177.4850  138.6040 C   0  0  0  0  0  0  0  0  0  0  0  0
  186.9850  178.0540  139.1130 C   0  0  2  0  0  3  0  0  0  0  0  0
  189.2790  177.2830  139.4470 C   0  0  0  0  0  3  0  0  0  0  0  0
  185.5680  179.0450  140.7360 C   0  0  0  0  0  0  0  0  0  0  0  0
  187.8790  177.1440  137.3110 N   0  0  0  0  0  0  0  0  0  0  0  0
  186.8260  178.5020  140.4030 C   0  0  0  0  0  0  0  0  0  0  0  0
  184.7570  178.6060  138.4430 C   0  0  0  0  0  3  0  0  0  0  0  0
  186.5890  177.4990  137.0350 C   0  0  0  0  0  0  0  0  0  0  0  0
  189.2320  177.6870  140.7380 C   0  0  0  0  0  0  0  0  0  0  0  0
  190.0780  177.0210  136.3950 O   0  0  0  0  0  0  0  0  0  0  0  0
  188.8000  176.4390  136.4240 C   0  0  2  0  0  0  0  0  0  0  0  0
  189.2770  177.1760  135.2400 C   0  0  0  0  0  2  0  0  0  0  0  0
  188.8240  174.9200  136.4190 C   0  0  0  0  0  2  0  0  0  0  0  0
  189.7760  174.4540  137.3260 O   0  0  0  0  0  1  0  0  0  0  0  0
  185.9110  177.3000  135.7210 C   0  0  0  0  0  2  0  0  0  0  0  0
  184.4170  175.4560  136.1840 C   0  0  0  0  0  0  0  0  0  0  0  0
  183.3390  175.0310  136.7890 C   0  0  0  0  0  3  0  0  0  0  0  0
  185.4890  175.8810  135.5780 C   0  0  0  0  0  3  0  0  0  0  0  0
  182.0870  175.7270  136.7050 N   0  0  0  0  0  0  0  0  0  0  0  0
  180.7600  175.1650  137.6650 S   0  0  0  0  0  0  0  0  0  0  0  0
  179.4690  175.4890  136.9660 O   0  0  0  0  0  0  0  0  0  0  0  0
  180.8660  173.6770  137.8530 O   0  0  0  0  0  0  0  0  0  0  0  0
  179.9890  175.1470  140.2630 C   0  0  0  0  0  1  0  0  0  0  0  0
  182.1120  176.0590  139.7080 O   0  0  0  0  0  1  0  0  0  0  0  0
  180.7950  175.9540  139.2640 C   0  0  1  0  0  3  0  0  0  0  0  0
  181.8520  176.7960  135.7410 C   0  0  0  0  0  2  0  0  0  0  0  0
  181.8030  178.1390  136.4480 C   0  0  0  0  0  1  0  0  0  0  0  0
  190.4340  177.5040  141.6000 C   0  0  0  0  0  2  0  0  0  0  0  0
  190.2300  176.3420  142.5610 C   0  0  0  0  0  2  0  0  0  0  0  0
  191.2990  177.2100  144.6430 C   0  0  0  0  0  1  0  0  0  0  0  0
  188.8180  176.8550  144.5850 C   0  0  0  0  0  0  0  0  0  0  0  0
  190.0930  176.8360  143.9240 N   0  0  0  0  0  0  0  0  0  0  0  0
  187.7890  176.4370  143.9850 O   0  0  0  0  0  0  0  0  0  0  0  0
  188.7180  177.3470  145.9270 N   0  0  0  0  0  0  0  0  0  0  0  0
  187.5830  177.6380  146.4740 C   0  0  0  0  0  3  0  0  0  0  0  0
  187.5400  178.1450  147.8710 C   0  0  0  0  0  2  0  0  0  0  0  0
  188.9390  178.1440  148.4520 C   0  0  0  0  0  1  0  0  0  0  0  0
  1 11  1  0  0  0  0
  3  8  1  0  0  0  0
  5  6  1  0  0  0  0
  5  7  2  0  0  0  0
  6  1  1  1  0  0  0
  6 10  1  0  0  0  0
  7 13  1  0  0  0  0
  8  2  1  0  0  0  0
  9  5  1  0  0  0  0
 10  8  2  0  0  0  0
 10  4  1  0  0  0  0
 11  3  2  0  0  0  0
 12  9  1  0  0  0  0
 12  1  2  0  0  0  0
 13  4  2  0  0  0  0
 13 32  1  0  0  0  0
 14 15  1  0  0  0  0
 15 17  1  6  0  0  0
 15  9  1  0  0  0  0
 16 14  1  0  0  0  0
 16 15  1  0  0  0  0
 17 18  1  0  0  0  0
 19 12  1  0  0  0  0
 20 21  2  0  0  0  0
 22 19  1  0  0  0  0
 22 20  2  0  0  0  0
 23 21  1  0  0  0  0
 23 24  1  0  0  0  0
 24 26  2  0  0  0  0
 24 29  1  0  0  0  0
 25 24  2  0  0  0  0
 29 28  1  0  0  0  0
 29 27  1  1  0  0  0
 30 31  1  0  0  0  0
 30 23  1  0  0  0  0
 32 33  1  0  0  0  0
 33 36  1  0  0  0  0
 35 38  1  0  0  0  0
 36 35  1  0  0  0  0
 36 34  1  0  0  0  0
 37 35  2  0  0  0  0
 38 39  2  0  0  0  0
 39 40  1  0  0  0  0
 40 41  1  0  0  0  0
M  END
>  <MODEL>
2

>  <REMARK>
 VINA RESULT:      -7.2      4.444      8.298
  Name = 
  13 active torsions:
  status: ('A' for Active; 'I' for Inactive)
    1  A    between atoms: C_6  and  C_31
    2  A    between atoms: S_8  and  C_23
    3  A    between atoms: S_8  and  N_24
    4  A    between atoms: C_9  and  C_29
    5  A    between atoms: C_9  and  N_34
    6  A    between atoms: C_13  and  C_36
    7  A    between atoms: C_13  and  C_41
    8  A    between atoms: N_14  and  C_16
    9  A    between atoms: C_18  and  N_24
   10  A    between atoms: C_21  and  C_25
   11  A    between atoms: N_24  and  C_38
   12  A    between atoms: C_25  and  N_27
   13  A    between atoms: C_29  and  C_40
                            x       y       z     vdW  Elec       q    Type
                         _______ _______ _______ _____ _____    ______ ____

>  <TORSDO>
F 13

$$$$
=
 OpenBabel11042412373D

 41 44  0  0  1  0  0  0  0  0999 V2000
  190.6770  177.3100  140.6230 C   0  0  0  0  0  0  0  0  0  0  0  0
  190.1900  178.1390  144.6860 O   0  0  0  0  0  1  0  0  0  0  0  0
  191.6100  177.4760  142.8270 C   0  0  0  0  0  3  0  0  0  0  0  0
  187.8380  178.3850  142.8590 C   0  0  0  0  0  3  0  0  0  0  0  0
  188.5670  177.7370  140.1370 C   0  0  0  0  0  0  0  0  0  0  0  0
  189.4740  177.6750  141.1330 C   0  0  2  0  0  3  0  0  0  0  0  0
  187.1910  178.1610  140.4110 C   0  0  0  0  0  3  0  0  0  0  0  0
  190.3390  177.8650  143.3320 C   0  0  0  0  0  0  0  0  0  0  0  0
  189.1600  177.4040  138.9650 N   0  0  0  0  0  0  0  0  0  0  0  0
  189.2410  177.9720  142.4550 C   0  0  0  0  0  0  0  0  0  0  0  0
  191.7940  177.1950  141.4510 C   0  0  0  0  0  3  0  0  0  0  0  0
  190.4700  177.1520  139.2580 C   0  0  0  0  0  0  0  0  0  0  0  0
  186.8520  178.4800  141.6830 C   0  0  0  0  0  0  0  0  0  0  0  0
  187.2270  176.9390  137.6450 O   0  0  0  0  0  0  0  0  0  0  0  0
  188.5470  177.4170  137.6390 C   0  0  2  0  0  0  0  0  0  0  0  0
  188.2050  176.1100  137.0520 C   0  0  0  0  0  2  0  0  0  0  0  0
  188.7560  178.6150  136.7280 C   0  0  0  0  0  2  0  0  0  0  0  0
  188.9280  179.7700  137.4900 O   0  0  0  0  0  1  0  0  0  0  0  0
  191.5070  176.7550  138.2610 C   0  0  0  0  0  2  0  0  0  0  0  0
  192.5750  174.7160  137.5220 C   0  0  0  0  0  0  0  0  0  0  0  0
  193.5410  174.1580  136.8410 C   0  0  0  0  0  3  0  0  0  0  0  0
  191.6160  175.2730  138.2040 C   0  0  0  0  0  3  0  0  0  0  0  0
  194.9120  174.5540  136.9870 N   0  0  0  0  0  0  0  0  0  0  0  0
  195.7170  174.2220  138.4840 S   0  0  0  0  0  0  0  0  0  0  0  0
  195.4480  175.3410  139.4510 O   0  0  0  0  0  0  0  0  0  0  0  0
  195.2030  172.9310  139.0590 O   0  0  0  0  0  0  0  0  0  0  0  0
  197.7420  173.0830  137.0910 C   0  0  0  0  0  1  0  0  0  0  0  0
  198.0000  175.3170  137.8590 O   0  0  0  0  0  1  0  0  0  0  0  0
  197.4720  174.0740  138.2060 C   0  0  1  0  0  3  0  0  0  0  0  0
  195.6070  175.3470  135.9780 C   0  0  0  0  0  2  0  0  0  0  0  0
  194.7360  176.5090  135.5330 C   0  0  0  0  0  1  0  0  0  0  0  0
  185.4510  178.8960  141.9770 C   0  0  0  0  0  2  0  0  0  0  0  0
  184.6770  179.1190  140.6870 C   0  0  0  0  0  2  0  0  0  0  0  0
  182.5540  178.6960  141.9280 C   0  0  0  0  0  1  0  0  0  0  0  0
  182.9710  177.5120  139.7590 C   0  0  0  0  0  0  0  0  0  0  0  0
  183.3810  178.4580  140.7590 N   0  0  0  0  0  0  0  0  0  0  0  0
  183.7400  177.2390  138.7940 O   0  0  0  0  0  0  0  0  0  0  0  0
  181.6900  176.8780  139.8600 N   0  0  0  0  0  0  0  0  0  0  0  0
  181.5040  175.6400  139.5340 C   0  0  0  0  0  3  0  0  0  0  0  0
  180.1520  175.0360  139.6590 C   0  0  0  0  0  2  0  0  0  0  0  0
  179.2520  175.5810  138.5700 C   0  0  0  0  0  1  0  0  0  0  0  0
  1  6  1  0  0  0  0
  1 11  1  0  0  0  0
  3  8  1  0  0  0  0
  5  7  2  0  0  0  0
  6  5  1  6  0  0  0
  6 10  1  0  0  0  0
  7 13  1  0  0  0  0
  8  2  1  0  0  0  0
  9 12  1  0  0  0  0
  9  5  1  0  0  0  0
 10  4  1  0  0  0  0
 10  8  2  0  0  0  0
 11  3  2  0  0  0  0
 12  1  2  0  0  0  0
 13 32  1  0  0  0  0
 13  4  2  0  0  0  0
 15 17  1  6  0  0  0
 15 14  1  0  0  0  0
 15  9  1  0  0  0  0
 16 15  1  0  0  0  0
 16 14  1  0  0  0  0
 17 18  1  0  0  0  0
 19 12  1  0  0  0  0
 20 22  2  0  0  0  0
 21 23  1  0  0  0  0
 21 20  2  0  0  0  0
 22 19  1  0  0  0  0
 23 24  1  0  0  0  0
 24 26  2  0  0  0  0
 24 25  2  0  0  0  0
 28 29  1  0  0  0  0
 29 27  1  6  0  0  0
 29 24  1  0  0  0  0
 30 23  1  0  0  0  0
 31 30  1  0  0  0  0
 33 36  1  0  0  0  0
 33 32  1  0  0  0  0
 35 38  1  0  0  0  0
 35 36  1  0  0  0  0
 36 34  1  0  0  0  0
 37 35  2  0  0  0  0
 39 40  1  0  0  0  0
 39 38  2  0  0  0  0
 41 40  1  0  0  0  0
M  END
>  <MODEL>
3

>  <REMARK>
 VINA RESULT:      -7.1      2.413      3.968
  Name = 
  13 active torsions:
  status: ('A' for Active; 'I' for Inactive)
    1  A    between atoms: C_6  and  C_31
    2  A    between atoms: S_8  and  C_23
    3  A    between atoms: S_8  and  N_24
    4  A    between atoms: C_9  and  C_29
    5  A    between atoms: C_9  and  N_34
    6  A    between atoms: C_13  and  C_36
    7  A    between atoms: C_13  and  C_41
    8  A    between atoms: N_14  and  C_16
    9  A    between atoms: C_18  and  N_24
   10  A    between atoms: C_21  and  C_25
   11  A    between atoms: N_24  and  C_38
   12  A    between atoms: C_25  and  N_27
   13  A    between atoms: C_29  and  C_40
                            x       y       z     vdW  Elec       q    Type
                         _______ _______ _______ _____ _____    ______ ____

>  <TORSDO>
F 13

$$$$
=
 OpenBabel11042412373D

 41 44  0  0  1  0  0  0  0  0999 V2000
  190.5550  177.3730  140.6550 C   0  0  0  0  0  0  0  0  0  0  0  0
  190.0050  178.2890  144.6920 O   0  0  0  0  0  1  0  0  0  0  0  0
  191.4500  177.5740  142.8730 C   0  0  0  0  0  3  0  0  0  0  0  0
  187.6890  178.5250  142.8170 C   0  0  0  0  0  3  0  0  0  0  0  0
  188.4600  177.8150  140.1230 C   0  0  0  0  0  0  0  0  0  0  0  0
  189.3480  177.7630  141.1360 C   0  0  2  0  0  3  0  0  0  0  0  0
  187.0840  178.2600  140.3630 C   0  0  0  0  0  3  0  0  0  0  0  0
  190.1750  177.9860  143.3470 C   0  0  0  0  0  0  0  0  0  0  0  0
  189.0700  177.4510  138.9690 N   0  0  0  0  0  0  0  0  0  0  0  0
  189.0940  178.0880  142.4480 C   0  0  0  0  0  0  0  0  0  0  0  0
  191.6560  177.2630  141.5060 C   0  0  0  0  0  3  0  0  0  0  0  0
  190.3710  177.1910  139.2910 C   0  0  0  0  0  0  0  0  0  0  0  0
  186.7250  178.6070  141.6220 C   0  0  0  0  0  0  0  0  0  0  0  0
  187.1360  177.0430  137.6320 O   0  0  0  0  0  0  0  0  0  0  0  0
  188.4810  177.4450  137.6310 C   0  0  2  0  0  0  0  0  0  0  0  0
  188.0760  176.1360  137.0900 C   0  0  0  0  0  2  0  0  0  0  0  0
  188.7730  178.5910  136.6770 C   0  0  0  0  0  2  0  0  0  0  0  0
  188.9300  179.7790  137.3930 O   0  0  0  0  0  1  0  0  0  0  0  0
  191.4220  176.7620  138.3200 C   0  0  0  0  0  2  0  0  0  0  0  0
  192.4500  174.6970  137.5980 C   0  0  0  0  0  0  0  0  0  0  0  0
  193.3830  174.1140  136.8930 C   0  0  0  0  0  3  0  0  0  0  0  0
  191.5230  175.2790  138.3050 C   0  0  0  0  0  3  0  0  0  0  0  0
  194.7610  174.5080  136.9670 N   0  0  0  0  0  0  0  0  0  0  0  0
  195.6270  174.2290  138.4400 S   0  0  0  0  0  0  0  0  0  0  0  0
  195.3660  175.3640  139.3920 O   0  0  0  0  0  0  0  0  0  0  0  0
  195.1640  172.9410  139.0620 O   0  0  0  0  0  0  0  0  0  0  0  0
  197.6250  173.1190  136.9860 C   0  0  0  0  0  1  0  0  0  0  0  0
  197.8630  175.3640  137.7250 O   0  0  0  0  0  1  0  0  0  0  0  0
  197.3740  174.1140  138.1010 C   0  0  1  0  0  3  0  0  0  0  0  0
  195.4150  175.2590  135.9000 C   0  0  0  0  0  2  0  0  0  0  0  0
  194.6610  176.5480  135.6280 C   0  0  0  0  0  1  0  0  0  0  0  0
  185.3250  179.0450  141.8820 C   0  0  0  0  0  2  0  0  0  0  0  0
  184.3360  178.0380  141.3140 C   0  0  0  0  0  2  0  0  0  0  0  0
  181.9980  178.8680  141.5900 C   0  0  0  0  0  1  0  0  0  0  0  0
  183.1630  179.1700  139.3910 C   0  0  0  0  0  0  0  0  0  0  0  0
  183.1810  178.7290  140.7580 N   0  0  0  0  0  0  0  0  0  0  0  0
  184.1610  178.9590  138.6470 O   0  0  0  0  0  0  0  0  0  0  0  0
  182.0100  179.8450  138.8740 N   0  0  0  0  0  0  0  0  0  0  0  0
  182.0100  181.1130  138.6150 C   0  0  0  0  0  3  0  0  0  0  0  0
  180.7840  181.7600  138.0800 C   0  0  0  0  0  2  0  0  0  0  0  0
  179.5930  181.3680  138.9300 C   0  0  0  0  0  1  0  0  0  0  0  0
  1  6  1  0  0  0  0
  1 11  1  0  0  0  0
  3  8  1  0  0  0  0
  5  7  2  0  0  0  0
  6  5  1  6  0  0  0
  6 10  1  0  0  0  0
  7 13  1  0  0  0  0
  8  2  1  0  0  0  0
  9 12  1  0  0  0  0
  9  5  1  0  0  0  0
 10  4  1  0  0  0  0
 10  8  2  0  0  0  0
 11  3  2  0  0  0  0
 12  1  2  0  0  0  0
 13 32  1  0  0  0  0
 13  4  2  0  0  0  0
 15 17  1  6  0  0  0
 15 14  1  0  0  0  0
 15  9  1  0  0  0  0
 16 15  1  0  0  0  0
 16 14  1  0  0  0  0
 17 18  1  0  0  0  0
 19 12  1  0  0  0  0
 20 22  2  0  0  0  0
 21 23  1  0  0  0  0
 21 20  2  0  0  0  0
 22 19  1  0  0  0  0
 23 24  1  0  0  0  0
 24 26  2  0  0  0  0
 24 25  2  0  0  0  0
 28 29  1  0  0  0  0
 29 27  1  6  0  0  0
 29 24  1  0  0  0  0
 30 23  1  0  0  0  0
 31 30  1  0  0  0  0
 33 32  1  0  0  0  0
 35 36  1  0  0  0  0
 36 33  1  0  0  0  0
 36 34  1  0  0  0  0
 37 35  2  0  0  0  0
 38 35  1  0  0  0  0
 39 38  2  0  0  0  0
 40 39  1  0  0  0  0
 40 41  1  0  0  0  0
M  END
>  <MODEL>
4

>  <REMARK>
 VINA RESULT:      -7.1      2.478      4.152
  Name = 
  13 active torsions:
  status: ('A' for Active; 'I' for Inactive)
    1  A    between atoms: C_6  and  C_31
    2  A    between atoms: S_8  and  C_23
    3  A    between atoms: S_8  and  N_24
    4  A    between atoms: C_9  and  C_29
    5  A    between atoms: C_9  and  N_34
    6  A    between atoms: C_13  and  C_36
    7  A    between atoms: C_13  and  C_41
    8  A    between atoms: N_14  and  C_16
    9  A    between atoms: C_18  and  N_24
   10  A    between atoms: C_21  and  C_25
   11  A    between atoms: N_24  and  C_38
   12  A    between atoms: C_25  and  N_27
   13  A    between atoms: C_29  and  C_40
                            x       y       z     vdW  Elec       q    Type
                         _______ _______ _______ _____ _____    ______ ____

>  <TORSDO>
F 13

$$$$
=
 OpenBabel11042412373D

 41 44  0  0  1  0  0  0  0  0999 V2000
  189.1730  177.4090  138.9480 C   0  0  0  0  0  0  0  0  0  0  0  0
  185.4970  178.2730  137.1660 O   0  0  0  0  0  1  0  0  0  0  0  0
  187.7910  177.4900  136.9880 C   0  0  0  0  0  3  0  0  0  0  0  0
  185.8270  178.7080  140.1050 C   0  0  0  0  0  3  0  0  0  0  0  0
  188.4950  177.9970  140.9640 C   0  0  0  0  0  0  0  0  0  0  0  0
  188.1310  177.8940  139.6700 C   0  0  2  0  0  3  0  0  0  0  0  0
  187.5310  178.4500  141.9720 C   0  0  0  0  0  3  0  0  0  0  0  0
  186.7150  177.9900  137.7700 C   0  0  0  0  0  0  0  0  0  0  0  0
  189.7800  177.5910  141.1060 N   0  0  0  0  0  0  0  0  0  0  0  0
  186.8920  178.1920  139.1540 C   0  0  0  0  0  0  0  0  0  0  0  0
  189.0440  177.1870  137.5760 C   0  0  0  0  0  3  0  0  0  0  0  0
  190.2000  177.2120  139.8630 C   0  0  0  0  0  0  0  0  0  0  0  0
  186.2780  178.7690  141.5740 C   0  0  0  0  0  0  0  0  0  0  0  0
  190.0900  178.3800  143.3360 O   0  0  0  0  0  0  0  0  0  0  0  0
  190.5300  177.4770  142.3550 C   0  0  2  0  0  0  0  0  0  0  0  0
  191.3480  178.6390  142.7460 C   0  0  0  0  0  2  0  0  0  0  0  0
  190.8720  176.1030  142.9030 C   0  0  0  0  0  2  0  0  0  0  0  0
  189.7540  175.2710  142.8380 O   0  0  0  0  0  1  0  0  0  0  0  0
  191.5590  176.6840  139.5450 C   0  0  0  0  0  2  0  0  0  0  0  0
  192.8700  176.2300  137.5650 C   0  0  0  0  0  0  0  0  0  0  0  0
  193.9260  175.6620  137.0440 C   0  0  0  0  0  3  0  0  0  0  0  0
  191.8160  176.7920  138.0840 C   0  0  0  0  0  3  0  0  0  0  0  0
  194.2720  174.2950  137.3100 N   0  0  0  0  0  0  0  0  0  0  0  0
  195.5800  173.9660  138.3950 S   0  0  0  0  0  0  0  0  0  0  0  0
  195.6400  175.0420  139.4430 O   0  0  0  0  0  0  0  0  0  0  0  0
  195.3620  172.6340  139.0600 O   0  0  0  0  0  0  0  0  0  0  0  0
  197.1420  175.0100  136.4430 C   0  0  0  0  0  1  0  0  0  0  0  0
  198.1850  174.0930  138.3710 O   0  0  0  0  0  1  0  0  0  0  0  0
  197.1170  173.9160  137.4920 C   0  0  1  0  0  3  0  0  0  0  0  0
  193.6580  173.1820  136.5930 C   0  0  0  0  0  2  0  0  0  0  0  0
  194.4590  172.8560  135.3450 C   0  0  0  0  0  1  0  0  0  0  0  0
  185.2940  179.2470  142.5860 C   0  0  0  0  0  2  0  0  0  0  0  0
  184.8950  178.1150  143.5210 C   0  0  0  0  0  2  0  0  0  0  0  0
  185.2150  179.3260  145.6790 C   0  0  0  0  0  1  0  0  0  0  0  0
  186.7060  177.3910  145.1170 C   0  0  0  0  0  0  0  0  0  0  0  0
  185.5960  178.2420  144.7910 N   0  0  0  0  0  0  0  0  0  0  0  0
  187.0920  176.5130  144.2960 O   0  0  0  0  0  0  0  0  0  0  0  0
  187.3750  177.5430  146.3750 N   0  0  0  0  0  0  0  0  0  0  0  0
  188.6570  177.4200  146.4960 C   0  0  0  0  0  3  0  0  0  0  0  0
  189.2970  177.5880  147.8270 C   0  0  0  0  0  2  0  0  0  0  0  0
  188.2910  178.1640  148.8020 C   0  0  0  0  0  1  0  0  0  0  0  0
  1 12  2  0  0  0  0
  2  8  1  0  0  0  0
  3 11  2  0  0  0  0
  3  8  1  0  0  0  0
  4 13  2  0  0  0  0
  5  9  1  0  0  0  0
  5  7  2  0  0  0  0
  6  1  1  1  0  0  0
  6  5  1  0  0  0  0
  8 10  2  0  0  0  0
  9 15  1  0  0  0  0
 10  6  1  0  0  0  0
 10  4  1  0  0  0  0
 11  1  1  0  0  0  0
 12  9  1  0  0  0  0
 13  7  1  0  0  0  0
 13 32  1  0  0  0  0
 15 16  1  0  0  0  0
 15 17  1  1  0  0  0
 15 14  1  0  0  0  0
 16 14  1  0  0  0  0
 18 17  1  0  0  0  0
 19 12  1  0  0  0  0
 20 22  2  0  0  0  0
 21 23  1  0  0  0  0
 21 20  2  0  0  0  0
 22 19  1  0  0  0  0
 23 24  1  0  0  0  0
 24 26  2  0  0  0  0
 24 25  2  0  0  0  0
 29 27  1  6  0  0  0
 29 28  1  0  0  0  0
 29 24  1  0  0  0  0
 30 23  1  0  0  0  0
 31 30  1  0  0  0  0
 32 33  1  0  0  0  0
 33 36  1  0  0  0  0
 35 38  1  0  0  0  0
 36 35  1  0  0  0  0
 36 34  1  0  0  0  0
 37 35  2  0  0  0  0
 38 39  2  0  0  0  0
 39 40  1  0  0  0  0
 40 41  1  0  0  0  0
M  END
>  <MODEL>
5

>  <REMARK>
 VINA RESULT:      -7.1      1.305      3.607
  Name = 
  13 active torsions:
  status: ('A' for Active; 'I' for Inactive)
    1  A    between atoms: C_6  and  C_31
    2  A    between atoms: S_8  and  C_23
    3  A    between atoms: S_8  and  N_24
    4  A    between atoms: C_9  and  C_29
    5  A    between atoms: C_9  and  N_34
    6  A    between atoms: C_13  and  C_36
    7  A    between atoms: C_13  and  C_41
    8  A    between atoms: N_14  and  C_16
    9  A    between atoms: C_18  and  N_24
   10  A    between atoms: C_21  and  C_25
   11  A    between atoms: N_24  and  C_38
   12  A    between atoms: C_25  and  N_27
   13  A    between atoms: C_29  and  C_40
                            x       y       z     vdW  Elec       q    Type
                         _______ _______ _______ _____ _____    ______ ____

>  <TORSDO>
F 13

$$$$
=
 OpenBabel11042412373D

 41 44  0  0  1  0  0  0  0  0999 V2000
  188.0690  177.8810  139.8430 C   0  0  0  0  0  0  0  0  0  0  0  0
  187.0600  177.3900  135.8200 O   0  0  0  0  0  1  0  0  0  0  0  0
  186.5260  178.2300  138.0390 C   0  0  0  0  0  3  0  0  0  0  0  0
  189.6590  176.2970  136.8130 C   0  0  0  0  0  2  0  0  0  0  0  0
  190.0010  176.8350  139.6330 C   0  0  0  0  0  0  0  0  0  0  0  0
  188.8880  177.2260  138.9810 C   0  0  0  0  0  0  0  0  0  0  0  0
  191.0790  176.1470  138.9150 C   0  0  0  0  0  3  0  0  0  0  0  0
  187.4070  177.5460  137.1570 C   0  0  0  0  0  0  0  0  0  0  0  0
  189.9230  177.2180  140.9300 N   0  0  0  0  0  0  0  0  0  0  0  0
  188.6270  177.0350  137.6440 C   0  0  0  0  0  0  0  0  0  0  0  0
  186.8540  178.4090  139.4050 C   0  0  0  0  0  3  0  0  0  0  0  0
  188.7350  177.8780  141.0620 C   0  0  0  0  0  0  0  0  0  0  0  0
  190.9270  175.9080  137.5920 C   0  0  0  0  0  0  0  0  0  0  0  0
  191.4520  178.2800  142.4230 O   0  0  0  0  0  0  0  0  0  0  0  0
  190.9510  177.0540  141.9560 C   0  0  2  0  0  0  0  0  0  0  0  0
  192.3110  177.5040  141.6100 C   0  0  0  0  0  2  0  0  0  0  0  0
  190.7610  176.0170  143.0500 C   0  0  0  0  0  2  0  0  0  0  0  0
  189.6720  175.1990  142.7480 O   0  0  0  0  0  1  0  0  0  0  0  0
  188.2320  178.4870  142.3290 C   0  0  0  0  0  2  0  0  0  0  0  0
  186.8610  177.4310  144.0170 C   0  0  0  0  0  0  0  0  0  0  0  0
  186.7250  177.0760  145.2670 C   0  0  0  0  0  3  0  0  0  0  0  0
  186.9960  177.7890  142.7720 C   0  0  0  0  0  3  0  0  0  0  0  0
  186.9630  177.9830  146.3530 N   0  0  0  0  0  0  0  0  0  0  0  0
  188.3200  177.6990  147.3900 S   0  0  0  0  0  0  0  0  0  0  0  0
  188.6930  178.9800  148.0830 O   0  0  0  0  0  0  0  0  0  0  0  0
  187.9620  176.6620  148.4190 O   0  0  0  0  0  0  0  0  0  0  0  0
  190.2990  178.2420  145.6210 C   0  0  0  0  0  1  0  0  0  0  0  0
  190.6730  176.5810  147.2790 O   0  0  0  0  0  1  0  0  0  0  0  0
  189.7010  177.1070  146.4290 C   0  0  1  0  0  3  0  0  0  0  0  0
  186.0270  179.0490  146.6990 C   0  0  0  0  0  2  0  0  0  0  0  0
  184.6090  178.6360  146.3460 C   0  0  0  0  0  1  0  0  0  0  0  0
  192.0080  175.1940  136.8550 C   0  0  0  0  0  2  0  0  0  0  0  0
  193.0610  174.6740  137.8220 C   0  0  0  0  0  2  0  0  0  0  0  0
  194.5060  175.8180  136.1390 C   0  0  0  0  0  1  0  0  0  0  0  0
  195.5690  174.4670  137.9640 C   0  0  0  0  0  0  0  0  0  0  0  0
  194.3930  175.0080  137.3400 N   0  0  0  0  0  0  0  0  0  0  0  0
  195.4570  173.6860  138.9490 O   0  0  0  0  0  0  0  0  0  0  0  0
  196.8660  174.8150  137.4640 N   0  0  0  0  0  0  0  0  0  0  0  0
  197.8090  173.9410  137.3230 C   0  0  0  0  0  3  0  0  0  0  0  0
  199.1360  174.3600  136.8000 C   0  0  0  0  0  2  0  0  0  0  0  0
  199.0040  174.7490  135.3420 C   0  0  0  0  0  1  0  0  0  0  0  0
  1 12  2  0  0  0  0
  2  8  1  0  0  0  0
  3 11  2  0  0  0  0
  4 13  1  0  0  0  0
  4 10  1  0  0  0  0
  5  9  1  0  0  0  0
  6  5  2  0  0  0  0
  6  1  1  0  0  0  0
  7  5  1  0  0  0  0
  8 10  2  0  0  0  0
  8  3  1  0  0  0  0
  9 12  1  0  0  0  0
  9 15  1  0  0  0  0
 10  6  1  0  0  0  0
 11  1  1  0  0  0  0
 12 19  1  0  0  0  0
 13  7  2  0  0  0  0
 15 14  1  0  0  0  0
 15 17  1  1  0  0  0
 16 15  1  0  0  0  0
 16 14  1  0  0  0  0
 18 17  1  0  0  0  0
 19 22  1  0  0  0  0
 20 21  2  0  0  0  0
 21 23  1  0  0  0  0
 22 20  2  0  0  0  0
 23 30  1  0  0  0  0
 23 24  1  0  0  0  0
 24 25  2  0  0  0  0
 24 26  2  0  0  0  0
 29 27  1  1  0  0  0
 29 28  1  0  0  0  0
 29 24  1  0  0  0  0
 31 30  1  0  0  0  0
 32 13  1  0  0  0  0
 32 33  1  0  0  0  0
 34 36  1  0  0  0  0
 35 37  2  0  0  0  0
 36 33  1  0  0  0  0
 36 35  1  0  0  0  0
 38 35  1  0  0  0  0
 39 38  2  0  0  0  0
 40 39  1  0  0  0  0
 41 40  1  0  0  0  0
M  END
>  <MODEL>
6

>  <REMARK>
 VINA RESULT:      -7.1      2.729      9.975
  Name = 
  13 active torsions:
  status: ('A' for Active; 'I' for Inactive)
    1  A    between atoms: C_6  and  C_31
    2  A    between atoms: S_8  and  C_23
    3  A    between atoms: S_8  and  N_24
    4  A    between atoms: C_9  and  C_29
    5  A    between atoms: C_9  and  N_34
    6  A    between atoms: C_13  and  C_36
    7  A    between atoms: C_13  and  C_41
    8  A    between atoms: N_14  and  C_16
    9  A    between atoms: C_18  and  N_24
   10  A    between atoms: C_21  and  C_25
   11  A    between atoms: N_24  and  C_38
   12  A    between atoms: C_25  and  N_27
   13  A    between atoms: C_29  and  C_40
                            x       y       z     vdW  Elec       q    Type
                         _______ _______ _______ _____ _____    ______ ____

>  <TORSDO>
F 13

$$$$
=
 OpenBabel11042412373D

 41 44  0  0  1  0  0  0  0  0999 V2000
  187.2230  178.0110  141.9770 C   0  0  0  0  0  0  0  0  0  0  0  0
  183.6040  178.8830  143.8700 O   0  0  0  0  0  1  0  0  0  0  0  0
  185.9480  178.2510  143.9960 C   0  0  0  0  0  3  0  0  0  0  0  0
  183.7520  179.0040  140.8870 C   0  0  0  0  0  2  0  0  0  0  0  0
  186.4090  178.3440  139.9540 C   0  0  0  0  0  0  0  0  0  0  0  0
  186.1120  178.3350  141.2690 C   0  0  0  0  0  0  0  0  0  0  0  0
  185.3910  178.7150  138.9650 C   0  0  0  0  0  3  0  0  0  0  0  0
  184.8020  178.5940  143.2290 C   0  0  0  0  0  0  0  0  0  0  0  0
  187.7120  178.0170  139.7820 N   0  0  0  0  0  0  0  0  0  0  0  0
  184.8910  178.6420  141.8220 C   0  0  0  0  0  0  0  0  0  0  0  0
  187.1850  177.9560  143.3710 C   0  0  0  0  0  3  0  0  0  0  0  0
  188.2250  177.8240  141.0330 C   0  0  0  0  0  0  0  0  0  0  0  0
  184.1510  179.0390  139.4020 C   0  0  0  0  0  0  0  0  0  0  0  0
  189.8170  178.2520  138.6840 O   0  0  0  0  0  0  0  0  0  0  0  0
  188.4480  177.9850  138.5200 C   0  0  2  0  0  0  0  0  0  0  0  0
  189.0380  179.2550  138.0640 C   0  0  0  0  0  2  0  0  0  0  0  0
  188.1590  176.8880  137.5100 C   0  0  0  0  0  2  0  0  0  0  0  0
  188.6770  175.6740  137.9630 O   0  0  0  0  0  1  0  0  0  0  0  0
  189.6410  177.4550  141.3280 C   0  0  0  0  0  2  0  0  0  0  0  0
  190.5440  176.0870  143.1050 C   0  0  0  0  0  0  0  0  0  0  0  0
  191.4070  175.9680  144.0800 C   0  0  0  0  0  3  0  0  0  0  0  0
  189.6810  176.2070  142.1360 C   0  0  0  0  0  3  0  0  0  0  0  0
  191.5770  176.9800  145.0820 N   0  0  0  0  0  0  0  0  0  0  0  0
  191.2900  176.5650  146.7390 S   0  0  0  0  0  0  0  0  0  0  0  0
  191.7510  175.1560  146.9840 O   0  0  0  0  0  0  0  0  0  0  0  0
  192.0540  177.5020  147.6340 O   0  0  0  0  0  0  0  0  0  0  0  0
  189.3050  177.8770  148.0330 C   0  0  0  0  0  1  0  0  0  0  0  0
  188.8360  176.8920  145.9220 O   0  0  0  0  0  1  0  0  0  0  0  0
  189.5510  176.7050  147.1040 C   0  0  1  0  0  3  0  0  0  0  0  0
  191.8430  178.3750  144.7440 C   0  0  0  0  0  2  0  0  0  0  0  0
  190.5560  179.0700  144.3350 C   0  0  0  0  0  1  0  0  0  0  0  0
  183.1030  179.4010  138.4060 C   0  0  0  0  0  2  0  0  0  0  0  0
  182.0020  178.3510  138.3830 C   0  0  0  0  0  2  0  0  0  0  0  0
  182.7020  177.2170  136.2730 C   0  0  0  0  0  1  0  0  0  0  0  0
  182.5950  175.9020  138.4030 C   0  0  0  0  0  0  0  0  0  0  0  0
  182.4690  177.1500  137.7050 N   0  0  0  0  0  0  0  0  0  0  0  0
  182.2970  175.8310  139.6290 O   0  0  0  0  0  0  0  0  0  0  0  0
  183.0560  174.7380  137.7070 N   0  0  0  0  0  0  0  0  0  0  0  0
  184.1940  174.1810  137.9690 C   0  0  0  0  0  3  0  0  0  0  0  0
  184.6200  172.9740  137.2130 C   0  0  0  0  0  2  0  0  0  0  0  0
  186.1330  172.9090  137.1760 C   0  0  0  0  0  1  0  0  0  0  0  0
  1 11  1  0  0  0  0
  4 10  1  0  0  0  0
  5  6  2  0  0  0  0
  6 10  1  0  0  0  0
  6  1  1  0  0  0  0
  7 13  2  0  0  0  0
  7  5  1  0  0  0  0
  8  2  1  0  0  0  0
  8  3  1  0  0  0  0
  9  5  1  0  0  0  0
  9 12  1  0  0  0  0
 10  8  2  0  0  0  0
 11  3  2  0  0  0  0
 12 19  1  0  0  0  0
 12  1  2  0  0  0  0
 13  4  1  0  0  0  0
 15 17  1  6  0  0  0
 15 14  1  0  0  0  0
 15  9  1  0  0  0  0
 16 15  1  0  0  0  0
 16 14  1  0  0  0  0
 17 18  1  0  0  0  0
 19 22  1  0  0  0  0
 20 21  2  0  0  0  0
 21 23  1  0  0  0  0
 22 20  2  0  0  0  0
 23 24  1  0  0  0  0
 24 25  2  0  0  0  0
 24 29  1  0  0  0  0
 24 26  2  0  0  0  0
 28 29  1  0  0  0  0
 29 27  1  1  0  0  0
 30 23  1  0  0  0  0
 31 30  1  0  0  0  0
 32 13  1  0  0  0  0
 33 32  1  0  0  0  0
 34 36  1  0  0  0  0
 35 37  2  0  0  0  0
 36 33  1  0  0  0  0
 36 35  1  0  0  0  0
 38 39  2  0  0  0  0
 38 35  1  0  0  0  0
 40 39  1  0  0  0  0
 41 40  1  0  0  0  0
M  END
>  <MODEL>
7

>  <REMARK>
 VINA RESULT:      -6.9      4.533      7.572
  Name = 
  13 active torsions:
  status: ('A' for Active; 'I' for Inactive)
    1  A    between atoms: C_6  and  C_31
    2  A    between atoms: S_8  and  C_23
    3  A    between atoms: S_8  and  N_24
    4  A    between atoms: C_9  and  C_29
    5  A    between atoms: C_9  and  N_34
    6  A    between atoms: C_13  and  C_36
    7  A    between atoms: C_13  and  C_41
    8  A    between atoms: N_14  and  C_16
    9  A    between atoms: C_18  and  N_24
   10  A    between atoms: C_21  and  C_25
   11  A    between atoms: N_24  and  C_38
   12  A    between atoms: C_25  and  N_27
   13  A    between atoms: C_29  and  C_40
                            x       y       z     vdW  Elec       q    Type
                         _______ _______ _______ _____ _____    ______ ____

>  <TORSDO>
F 13

$$$$
=
 OpenBabel11042412373D

 41 44  0  0  1  0  0  0  0  0999 V2000
  185.8970  178.5860  141.5690 C   0  0  0  0  0  0  0  0  0  0  0  0
  181.8820  179.1740  142.5550 O   0  0  0  0  0  1  0  0  0  0  0  0
  184.2130  178.9990  143.2270 C   0  0  0  0  0  3  0  0  0  0  0  0
  182.6270  178.7180  139.6970 C   0  0  0  0  0  2  0  0  0  0  0  0
  185.4820  178.3590  139.4140 C   0  0  0  0  0  0  0  0  0  0  0  0
  184.9240  178.5620  140.6240 C   0  0  0  0  0  0  0  0  0  0  0  0
  184.6500  178.3410  138.2060 C   0  0  0  0  0  3  0  0  0  0  0  0
  183.2150  178.9760  142.2150 C   0  0  0  0  0  0  0  0  0  0  0  0
  186.8250  178.2370  139.5500 N   0  0  0  0  0  0  0  0  0  0  0  0
  183.5850  178.7560  140.8730 C   0  0  0  0  0  0  0  0  0  0  0  0
  185.5800  178.8060  142.9100 C   0  0  0  0  0  3  0  0  0  0  0  0
  187.0880  178.3910  140.8810 C   0  0  0  0  0  0  0  0  0  0  0  0
  183.3160  178.5240  138.3360 C   0  0  0  0  0  0  0  0  0  0  0  0
  188.6880  179.1690  138.3870 O   0  0  0  0  0  0  0  0  0  0  0  0
  187.8030  178.0820  138.4770 C   0  0  2  0  0  0  0  0  0  0  0  0
  187.7230  179.0410  137.3610 C   0  0  0  0  0  2  0  0  0  0  0  0
  188.4710  176.7350  138.2590 C   0  0  0  0  0  2  0  0  0  0  0  0
  189.8200  176.8090  138.6070 O   0  0  0  0  0  1  0  0  0  0  0  0
  188.4490  178.3420  141.4940 C   0  0  0  0  0  2  0  0  0  0  0  0
  189.1070  176.8920  143.3130 C   0  0  0  0  0  0  0  0  0  0  0  0
  189.5200  176.7870  144.5490 C   0  0  0  0  0  3  0  0  0  0  0  0
  188.6910  176.9980  142.0840 C   0  0  0  0  0  3  0  0  0  0  0  0
  188.8860  177.4810  145.6330 N   0  0  0  0  0  0  0  0  0  0  0  0
  189.5160  177.2750  147.2320 S   0  0  0  0  0  0  0  0  0  0  0  0
  189.1690  178.4790  148.0620 O   0  0  0  0  0  0  0  0  0  0  0  0
  188.9130  176.0480  147.8590 O   0  0  0  0  0  0  0  0  0  0  0  0
  191.6590  175.6230  147.3720 C   0  0  0  0  0  1  0  0  0  0  0  0
  191.7590  177.5030  145.9220 O   0  0  0  0  0  1  0  0  0  0  0  0
  191.2870  177.0780  147.1630 C   0  0  1  0  0  3  0  0  0  0  0  0
  187.6510  178.2370  145.4570 C   0  0  0  0  0  2  0  0  0  0  0  0
  186.4900  177.5030  146.1040 C   0  0  0  0  0  1  0  0  0  0  0  0
  182.4580  178.4910  137.1180 C   0  0  0  0  0  2  0  0  0  0  0  0
  181.4330  177.3710  137.2160 C   0  0  0  0  0  2  0  0  0  0  0  0
  182.4100  176.1120  135.2950 C   0  0  0  0  0  1  0  0  0  0  0  0
  182.0250  174.9350  137.4740 C   0  0  0  0  0  0  0  0  0  0  0  0
  181.9890  176.1350  136.6850 N   0  0  0  0  0  0  0  0  0  0  0  0
  181.5670  174.9390  138.6510 O   0  0  0  0  0  0  0  0  0  0  0  0
  182.5780  173.7340  136.9210 N   0  0  0  0  0  0  0  0  0  0  0  0
  183.7580  173.3090  137.2340 C   0  0  0  0  0  3  0  0  0  0  0  0
  184.2800  172.0560  136.6280 C   0  0  0  0  0  2  0  0  0  0  0  0
  183.1880  171.0070  136.6170 C   0  0  0  0  0  1  0  0  0  0  0  0
  1 11  1  0  0  0  0
  4 10  1  0  0  0  0
  5  9  1  0  0  0  0
  5  6  2  0  0  0  0
  6 10  1  0  0  0  0
  6  1  1  0  0  0  0
  7 13  2  0  0  0  0
  7  5  1  0  0  0  0
  8  2  1  0  0  0  0
  8  3  1  0  0  0  0
  9 12  1  0  0  0  0
 10  8  2  0  0  0  0
 11  3  2  0  0  0  0
 12 19  1  0  0  0  0
 12  1  2  0  0  0  0
 13  4  1  0  0  0  0
 14 15  1  0  0  0  0
 15 17  1  6  0  0  0
 15  9  1  0  0  0  0
 16 14  1  0  0  0  0
 16 15  1  0  0  0  0
 17 18  1  0  0  0  0
 19 22  1  0  0  0  0
 20 21  2  0  0  0  0
 21 23  1  0  0  0  0
 22 20  2  0  0  0  0
 23 24  1  0  0  0  0
 24 26  2  0  0  0  0
 24 25  2  0  0  0  0
 28 29  1  0  0  0  0
 29 24  1  0  0  0  0
 29 27  1  6  0  0  0
 30 23  1  0  0  0  0
 30 31  1  0  0  0  0
 32 33  1  0  0  0  0
 32 13  1  0  0  0  0
 34 36  1  0  0  0  0
 35 37  2  0  0  0  0
 36 33  1  0  0  0  0
 36 35  1  0  0  0  0
 38 39  2  0  0  0  0
 38 35  1  0  0  0  0
 40 39  1  0  0  0  0
 41 40  1  0  0  0  0
M  END
>  <MODEL>
8

>  <REMARK>
 VINA RESULT:      -6.7      4.682      8.553
  Name = 
  13 active torsions:
  status: ('A' for Active; 'I' for Inactive)
    1  A    between atoms: C_6  and  C_31
    2  A    between atoms: S_8  and  C_23
    3  A    between atoms: S_8  and  N_24
    4  A    between atoms: C_9  and  C_29
    5  A    between atoms: C_9  and  N_34
    6  A    between atoms: C_13  and  C_36
    7  A    between atoms: C_13  and  C_41
    8  A    between atoms: N_14  and  C_16
    9  A    between atoms: C_18  and  N_24
   10  A    between atoms: C_21  and  C_25
   11  A    between atoms: N_24  and  C_38
   12  A    between atoms: C_25  and  N_27
   13  A    between atoms: C_29  and  C_40
                            x       y       z     vdW  Elec       q    Type
                         _______ _______ _______ _____ _____    ______ ____

>  <TORSDO>
F 13

$$$$
=
 OpenBabel11042412373D

 41 44  0  0  1  0  0  0  0  0999 V2000
  187.1450  175.0760  136.0810 C   0  0  0  0  0  0  0  0  0  0  0  0
  183.2280  173.7600  135.4760 O   0  0  0  0  0  1  0  0  0  0  0  0
  185.6190  173.4890  135.1260 C   0  0  0  0  0  3  0  0  0  0  0  0
  183.7010  176.2220  137.1040 C   0  0  0  0  0  3  0  0  0  0  0  0
  186.5260  176.8080  137.3000 C   0  0  0  0  0  0  0  0  0  0  0  0
  186.0840  175.7470  136.5950 C   0  0  2  0  0  3  0  0  0  0  0  0
  185.5790  177.6760  138.0070 C   0  0  0  0  0  3  0  0  0  0  0  0
  184.5270  174.2080  135.6830 C   0  0  0  0  0  0  0  0  0  0  0  0
  187.8790  176.8520  137.2490 N   0  0  0  0  0  0  0  0  0  0  0  0
  184.7700  175.3690  136.4460 C   0  0  0  0  0  0  0  0  0  0  0  0
  186.9550  173.9190  135.3240 C   0  0  0  0  0  3  0  0  0  0  0  0
  188.2680  175.7740  136.5070 C   0  0  0  0  0  0  0  0  0  0  0  0
  184.2570  177.3940  137.9280 C   0  0  0  0  0  0  0  0  0  0  0  0
  188.1900  179.0830  138.0350 O   0  0  0  0  0  0  0  0  0  0  0  0
  188.7510  177.7990  137.9390 C   0  0  2  0  0  0  0  0  0  0  0  0
  189.2740  178.9230  137.1420 C   0  0  0  0  0  2  0  0  0  0  0  0
  189.4910  177.3630  139.1930 C   0  0  0  0  0  2  0  0  0  0  0  0
  188.6830  177.5560  140.3140 O   0  0  0  0  0  1  0  0  0  0  0  0
  189.6840  175.4170  136.1950 C   0  0  0  0  0  2  0  0  0  0  0  0
  191.3970  174.0030  137.1490 C   0  0  0  0  0  0  0  0  0  0  0  0
  192.6670  173.7020  137.2230 C   0  0  0  0  0  3  0  0  0  0  0  0
  190.1330  174.3070  137.0770 C   0  0  0  0  0  3  0  0  0  0  0  0
  193.6800  174.6930  137.4490 N   0  0  0  0  0  0  0  0  0  0  0  0
  195.1890  174.1960  138.1380 S   0  0  0  0  0  0  0  0  0  0  0  0
  195.5640  175.1400  139.2460 O   0  0  0  0  0  0  0  0  0  0  0  0
  195.0580  172.8040  138.6920 O   0  0  0  0  0  0  0  0  0  0  0  0
  195.8550  173.8730  135.5320 C   0  0  0  0  0  1  0  0  0  0  0  0
  197.0570  175.4590  136.8290 O   0  0  0  0  0  1  0  0  0  0  0  0
  196.4560  174.2020  136.8830 C   0  0  1  0  0  3  0  0  0  0  0  0
  193.4340  176.1170  137.2510 C   0  0  0  0  0  2  0  0  0  0  0  0
  192.9490  176.7500  138.5440 C   0  0  0  0  0  1  0  0  0  0  0  0
  183.2840  178.2790  138.6280 C   0  0  0  0  0  2  0  0  0  0  0  0
  184.0130  179.2930  139.4990 C   0  0  0  0  0  2  0  0  0  0  0  0
  182.8740  178.3460  141.5080 C   0  0  0  0  0  1  0  0  0  0  0  0
  185.3190  178.8850  141.6150 C   0  0  0  0  0  0  0  0  0  0  0  0
  184.0940  178.8090  140.8700 N   0  0  0  0  0  0  0  0  0  0  0  0
  186.3520  179.3790  141.0830 O   0  0  0  0  0  0  0  0  0  0  0  0
  185.3650  178.4020  142.9630 N   0  0  0  0  0  0  0  0  0  0  0  0
  186.4370  177.8940  143.4790 C   0  0  0  0  0  3  0  0  0  0  0  0
  186.4260  177.4090  144.8840 C   0  0  0  0  0  2  0  0  0  0  0  0
  187.6780  177.8800  145.5930 C   0  0  0  0  0  1  0  0  0  0  0  0
  1 12  2  0  0  0  0
  2  8  1  0  0  0  0
  3 11  2  0  0  0  0
  3  8  1  0  0  0  0
  4 13  2  0  0  0  0
  5  7  2  0  0  0  0
  6  1  1  1  0  0  0
  6  5  1  0  0  0  0
  8 10  2  0  0  0  0
  9  5  1  0  0  0  0
  9 15  1  0  0  0  0
 10  6  1  0  0  0  0
 10  4  1  0  0  0  0
 11  1  1  0  0  0  0
 12  9  1  0  0  0  0
 13  7  1  0  0  0  0
 13 32  1  0  0  0  0
 15 14  1  0  0  0  0
 15 17  1  1  0  0  0
 16 15  1  0  0  0  0
 16 14  1  0  0  0  0
 17 18  1  0  0  0  0
 19 12  1  0  0  0  0
 19 22  1  0  0  0  0
 20 21  2  0  0  0  0
 21 23  1  0  0  0  0
 22 20  2  0  0  0  0
 23 24  1  0  0  0  0
 24 26  2  0  0  0  0
 24 25  2  0  0  0  0
 28 29  1  0  0  0  0
 29 27  1  6  0  0  0
 29 24  1  0  0  0  0
 30 23  1  0  0  0  0
 30 31  1  0  0  0  0
 32 33  1  0  0  0  0
 33 36  1  0  0  0  0
 35 38  1  0  0  0  0
 36 34  1  0  0  0  0
 36 35  1  0  0  0  0
 37 35  2  0  0  0  0
 38 39  2  0  0  0  0
 39 40  1  0  0  0  0
 40 41  1  0  0  0  0
M  END
>  <MODEL>
9

>  <REMARK>
 VINA RESULT:      -6.6      2.398      4.675
  Name = 
  13 active torsions:
  status: ('A' for Active; 'I' for Inactive)
    1  A    between atoms: C_6  and  C_31
    2  A    between atoms: S_8  and  C_23
    3  A    between atoms: S_8  and  N_24
    4  A    between atoms: C_9  and  C_29
    5  A    between atoms: C_9  and  N_34
    6  A    between atoms: C_13  and  C_36
    7  A    between atoms: C_13  and  C_41
    8  A    between atoms: N_14  and  C_16
    9  A    between atoms: C_18  and  N_24
   10  A    between atoms: C_21  and  C_25
   11  A    between atoms: N_24  and  C_38
   12  A    between atoms: C_25  and  N_27
   13  A    between atoms: C_29  and  C_40
                            x       y       z     vdW  Elec       q    Type
                         _______ _______ _______ _____ _____    ______ ____

>  <TORSDO>
F 13

$$$$
