=
 OpenBabel11042410153D

 65 73  0  0  1  0  0  0  0  0999 V2000
  183.8620  177.8450  138.8890 C   0  0  1  0  0  3  0  0  0  0  0  0
  188.4490  177.8060  137.1990 C   0  0  0  0  0  2  0  0  0  0  0  0
  187.3820  178.4390  138.0270 C   0  0  0  0  0  0  0  0  0  0  0  0
  184.0900  178.9400  139.9460 C   0  0  1  0  0  3  0  0  0  0  0  0
  185.7520  178.4360  143.8400 C   0  0  2  0  0  3  0  0  0  0  0  0
  188.8340  177.3570  142.1700 O   0  0  0  0  0  0  0  0  0  0  0  0
  187.4450  177.3080  142.3330 C   0  0  0  0  0  0  0  0  0  0  0  0
  190.1330  178.5550  140.5040 C   0  0  0  0  0  2  0  0  0  0  0  0
  184.7300  178.4760  141.2640 C   0  0  1  0  0  3  0  0  0  0  0  0
  189.5250  178.5770  141.9070 C   0  0  2  0  0  3  0  0  0  0  0  0
  186.0070  179.0650  141.4370 O   0  0  0  0  0  0  0  0  0  0  0  0
  186.8600  176.1950  142.2800 O   0  0  0  0  0  0  0  0  0  0  0  0
  186.6510  178.5550  142.5960 C   0  0  1  0  0  3  0  0  0  0  0  0
  184.4870  179.2810  143.6700 C   0  0  0  0  0  2  0  0  0  0  0  0
  185.1000  177.2020  138.3100 C   0  0  0  0  0  3  0  0  0  0  0  0
  186.2280  177.8410  138.1350 C   0  0  0  0  0  0  0  0  0  0  0  0
  184.7190  180.0650  139.4000 O   0  0  0  0  0  1  0  0  0  0  0  0
  187.9660  178.9670  139.2750 C   0  0  0  0  0  2  0  0  0  0  0  0
  189.1210  178.0250  139.5020 C   0  0  1  0  0  3  0  0  0  0  0  0
  189.6700  177.7450  138.1150 C   0  0  1  0  0  3  0  0  0  0  0  0
  183.7630  178.8610  142.3960 C   0  0  0  0  0  2  0  0  0  0  0  0
  186.5100  178.7300  145.0690 N   0  0  2  0  0  0  0  0  0  0  0  0
  189.2470  176.2240  145.3210 C   0  0  0  0  0  2  0  0  0  0  0  0
  187.2650  177.5440  145.4920 C   0  0  2  0  0  3  0  0  0  0  0  0
  188.1540  177.9060  146.6490 C   0  0  2  0  0  3  0  0  0  0  0  0
  189.0830  176.7150  146.7630 C   0  0  2  0  0  3  0  0  0  0  0  0
  188.2450  177.0020  144.4740 C   0  0  0  0  0  2  0  0  0  0  0  0
  185.5820  179.0670  146.1660 C   0  0  0  0  0  2  0  0  0  0  0  0
  186.3380  179.3680  147.4720 C   0  0  0  0  0  2  0  0  0  0  0  0
  188.1030  178.6260  149.0500 C   0  0  0  0  0  1  0  0  0  0  0  0
  187.2670  178.2100  147.8530 C   0  0  2  0  0  3  0  0  0  0  0  0
  190.4280  177.1500  147.3210 C   0  0  0  0  0  2  0  0  0  0  0  0
  191.7710  176.2300  146.5110 S   0  0  0  0  0  1  0  0  0  0  0  0
  190.3090  176.3950  138.0440 C   0  0  0  0  0  0  0  0  0  0  0  0
  191.8490  173.9600  137.6440 O   0  0  0  0  0  0  0  0  0  0  0  0
  192.4030  175.0740  137.4530 C   0  0  0  0  0  0  0  0  0  0  0  0
  189.6390  175.3610  138.3140 O   0  0  0  0  0  0  0  0  0  0  0  0
  191.6800  176.2980  137.6450 N   0  0  0  0  0  2  0  0  0  0  0  0
  196.5060  176.0740  135.8630 O   0  0  0  0  0  0  0  0  0  0  0  0
  193.8330  175.1100  137.0030 C   0  0  2  0  0  3  0  0  0  0  0  0
  195.2310  175.9870  135.2450 C   0  0  2  0  0  3  0  0  0  0  0  0
  196.6760  174.0680  137.1730 C   0  0  0  0  0  2  0  0  0  0  0  0
  195.4590  173.1390  136.9530 C   0  0  2  0  0  0  0  0  0  0  0  0
  194.1500  176.3740  136.2320 C   0  0  0  0  0  2  0  0  0  0  0  0
  196.3890  174.0650  134.6610 C   0  0  2  0  0  3  0  0  0  0  0  0
  194.9660  174.5390  134.8800 C   0  0  1  0  0  3  0  0  0  0  0  0
  194.3400  173.9100  136.1650 C   0  0  2  0  0  0  0  0  0  0  0  0
  194.9680  172.5930  138.2860 C   0  0  0  0  0  1  0  0  0  0  0  0
  196.5080  172.5300  134.7420 C   0  0  0  0  0  2  0  0  0  0  0  0
  195.9730  171.9870  136.0810 C   0  0  0  0  0  2  0  0  0  0  0  0
  197.0560  174.7740  135.8400 C   0  0  1  0  0  3  0  0  0  0  0  0
  193.2160  172.9640  135.7290 C   0  0  0  0  0  1  0  0  0  0  0  0
  183.2510  175.6430  139.5260 O   0  0  0  0  0  0  0  0  0  0  0  0
  182.8960  176.8070  139.3880 C   0  0  0  0  0  0  0  0  0  0  0  0
  180.7250  176.0910  140.0000 O   0  0  0  0  0  1  0  0  0  0  0  0
  181.5190  177.2250  139.8060 C   0  0  2  0  0  3  0  0  0  0  0  0
  180.8780  178.1180  138.7550 C   0  0  0  0  0  2  0  0  0  0  0  0
  179.9130  179.1100  139.3990 C   0  0  1  0  0  3  0  0  0  0  0  0
  180.3700  179.4290  140.6800 O   0  0  0  0  0  1  0  0  0  0  0  0
  180.1960  180.1090  137.2390 O   0  0  0  0  0  1  0  0  0  0  0  0
  179.8030  180.3800  138.5530 C   0  0  2  0  0  3  0  0  0  0  0  0
  181.8320  181.6210  138.2990 O   0  0  0  0  0  1  0  0  0  0  0  0
  180.6970  181.4850  139.1010 C   0  0  0  0  0  2  0  0  0  0  0  0
  190.6020  178.7810  142.9200 C   0  0  0  0  0  3  0  0  0  0  0  0
  191.6900  178.2520  142.7750 O   0  0  0  0  0  0  0  0  0  0  0  0
  1 54  1  1  0  0  0
  1  4  1  0  0  0  0
  2  3  1  0  0  0  0
  2 20  1  0  0  0  0
  3 16  2  0  0  0  0
  3 18  1  0  0  0  0
  4 17  1  6  0  0  0
  4  9  1  0  0  0  0
  5 14  1  6  0  0  0
  5 22  1  0  0  0  0
  6  7  1  0  0  0  0
  7 13  1  0  0  0  0
  8 10  1  0  0  0  0
  9 11  1  0  0  0  0
  9 21  1  1  0  0  0
 10  6  1  0  0  0  0
 10 64  1  1  0  0  0
 12  7  2  0  0  0  0
 13 11  1  6  0  0  0
 13  5  1  0  0  0  0
 15  1  1  0  0  0  0
 16 15  2  0  0  0  0
 19 18  1  6  0  0  0
 19  8  1  0  0  0  0
 20 34  1  1  0  0  0
 20 19  1  0  0  0  0
 21 14  1  0  0  0  0
 22 24  1  0  0  0  0
 22 28  1  1  0  0  0
 23 26  1  0  0  0  0
 24 27  1  6  0  0  0
 24 25  1  0  0  0  0
 25 26  1  0  0  0  0
 25 31  1  0  0  0  0
 26 32  1  0  0  0  0
 27 23  1  0  0  0  0
 28 29  1  0  0  0  0
 29 31  1  0  0  0  0
 31 30  1  0  0  0  0
 33 32  1  0  0  0  0
 34 37  2  0  0  0  0
 36 35  2  0  0  0  0
 36 38  1  0  0  0  0
 38 34  1  0  0  0  0
 40 36  1  0  0  0  0
 41 39  1  0  0  0  0
 41 44  1  0  0  0  0
 43 42  1  0  0  0  0
 43 48  1  0  0  0  0
 44 40  1  0  0  0  0
 45 49  1  0  0  0  0
 45 46  1  0  0  0  0
 45 51  1  0  0  0  0
 46 41  1  0  0  0  0
 46 47  1  0  0  0  0
 47 43  1  0  0  0  0
 47 40  1  0  0  0  0
 49 50  1  0  0  0  0
 50 43  1  0  0  0  0
 51 39  1  0  0  0  0
 51 42  1  0  0  0  0
 52 47  1  0  0  0  0
 54 53  2  0  0  0  0
 54 56  1  0  0  0  0
 56 55  1  0  0  0  0
 57 58  1  0  0  0  0
 57 56  1  0  0  0  0
 58 59  1  0  0  0  0
 60 61  1  0  0  0  0
 61 63  1  0  0  0  0
 61 58  1  0  0  0  0
 62 63  1  0  0  0  0
 65 64  2  0  0  0  0
M  END
>  <MODEL>
1

>  <REMARK>
 VINA RESULT:      -6.3      0.000      0.000
  Name = 
  11 active torsions:
  status: ('A' for Active; 'I' for Inactive)
    1  A    between atoms: N_2  and  C_17
    2  A    between atoms: C_3  and  C_35
    3  A    between atoms: C_6  and  C_9
    4  A    between atoms: C_9  and  C_52
    5  A    between atoms: C_10  and  C_58
    6  A    between atoms: C_15  and  C_28
    7  A    between atoms: C_29  and  C_32
    8  A    between atoms: C_40  and  C_53
    9  A    between atoms: C_43  and  C_53
   10  A    between atoms: C_43  and  C_65
   11  A    between atoms: C_52  and  C_65
                            x       y       z     vdW  Elec       q    Type
                         _______ _______ _______ _____ _____    ______ ____

>  <TORSDO>
F 11

$$$$
=
 OpenBabel11042410153D

 65 73  0  0  1  0  0  0  0  0999 V2000
  183.8800  177.8510  138.9120 C   0  0  1  0  0  3  0  0  0  0  0  0
  188.4620  177.8140  137.2090 C   0  0  0  0  0  2  0  0  0  0  0  0
  187.3970  178.4460  138.0420 C   0  0  0  0  0  0  0  0  0  0  0  0
  184.1110  178.9430  139.9720 C   0  0  1  0  0  3  0  0  0  0  0  0
  185.7850  178.4300  143.8590 C   0  0  2  0  0  3  0  0  0  0  0  0
  188.8610  177.3540  142.1780 O   0  0  0  0  0  0  0  0  0  0  0  0
  187.4730  177.3050  142.3450 C   0  0  0  0  0  0  0  0  0  0  0  0
  190.1560  178.5560  140.5110 C   0  0  0  0  0  2  0  0  0  0  0  0
  184.7560  178.4760  141.2860 C   0  0  1  0  0  3  0  0  0  0  0  0
  189.5520  178.5750  141.9150 C   0  0  2  0  0  3  0  0  0  0  0  0
  186.0330  179.0640  141.4570 O   0  0  0  0  0  0  0  0  0  0  0  0
  186.8870  176.1920  142.2910 O   0  0  0  0  0  0  0  0  0  0  0  0
  186.6800  178.5520  142.6130 C   0  0  1  0  0  3  0  0  0  0  0  0
  184.5200  179.2750  143.6950 C   0  0  0  0  0  2  0  0  0  0  0  0
  185.1160  177.2090  138.3290 C   0  0  0  0  0  3  0  0  0  0  0  0
  186.2440  177.8480  138.1510 C   0  0  0  0  0  0  0  0  0  0  0  0
  184.7390  180.0690  139.4260 O   0  0  0  0  0  1  0  0  0  0  0  0
  187.9860  178.9710  139.2890 C   0  0  0  0  0  2  0  0  0  0  0  0
  189.1410  178.0280  139.5100 C   0  0  1  0  0  3  0  0  0  0  0  0
  189.6860  177.7510  138.1210 C   0  0  1  0  0  3  0  0  0  0  0  0
  183.7920  178.8590  142.4220 C   0  0  0  0  0  2  0  0  0  0  0  0
  186.5460  178.7210  145.0870 N   0  0  2  0  0  0  0  0  0  0  0  0
  189.2490  176.1790  145.3540 C   0  0  0  0  0  2  0  0  0  0  0  0
  187.2850  177.5270  145.5170 C   0  0  2  0  0  3  0  0  0  0  0  0
  188.1790  177.8840  146.6720 C   0  0  2  0  0  3  0  0  0  0  0  0
  189.0910  176.6810  146.7930 C   0  0  2  0  0  3  0  0  0  0  0  0
  188.2580  176.9660  144.5030 C   0  0  0  0  0  2  0  0  0  0  0  0
  185.6220  179.0780  146.1810 C   0  0  0  0  0  2  0  0  0  0  0  0
  186.3820  179.3760  147.4860 C   0  0  0  0  0  2  0  0  0  0  0  0
  188.1360  178.6190  149.0680 C   0  0  0  0  0  1  0  0  0  0  0  0
  187.2950  178.2080  147.8740 C   0  0  2  0  0  3  0  0  0  0  0  0
  190.4420  177.1010  147.3500 C   0  0  0  0  0  2  0  0  0  0  0  0
  191.7810  176.3260  146.3960 S   0  0  0  0  0  1  0  0  0  0  0  0
  190.3240  176.4010  138.0460 C   0  0  0  0  0  0  0  0  0  0  0  0
  191.8640  173.9670  137.6370 O   0  0  0  0  0  0  0  0  0  0  0  0
  192.4190  175.0820  137.4530 C   0  0  0  0  0  0  0  0  0  0  0  0
  189.6530  175.3660  138.3090 O   0  0  0  0  0  0  0  0  0  0  0  0
  191.6960  176.3060  137.6490 N   0  0  0  0  0  2  0  0  0  0  0  0
  196.5240  176.0850  135.8700 O   0  0  0  0  0  0  0  0  0  0  0  0
  193.8510  175.1200  137.0070 C   0  0  2  0  0  3  0  0  0  0  0  0
  195.2500  175.9920  135.2490 C   0  0  2  0  0  3  0  0  0  0  0  0
  196.6950  174.0840  137.1880 C   0  0  0  0  0  2  0  0  0  0  0  0
  195.4800  173.1520  136.9690 C   0  0  2  0  0  0  0  0  0  0  0  0
  194.1670  176.3810  136.2310 C   0  0  0  0  0  2  0  0  0  0  0  0
  196.4150  174.0710  134.6760 C   0  0  2  0  0  3  0  0  0  0  0  0
  194.9900  174.5430  134.8890 C   0  0  1  0  0  3  0  0  0  0  0  0
  194.3630  173.9170  136.1750 C   0  0  2  0  0  0  0  0  0  0  0  0
  194.9870  172.6110  138.3030 C   0  0  0  0  0  1  0  0  0  0  0  0
  196.5370  172.5360  134.7630 C   0  0  0  0  0  2  0  0  0  0  0  0
  195.9990  171.9980  136.1030 C   0  0  0  0  0  2  0  0  0  0  0  0
  197.0770  174.7860  135.8530 C   0  0  1  0  0  3  0  0  0  0  0  0
  193.2410  172.9670  135.7400 C   0  0  0  0  0  1  0  0  0  0  0  0
  183.2350  175.6300  139.4430 O   0  0  0  0  0  0  0  0  0  0  0  0
  182.9150  176.8110  139.4120 C   0  0  0  0  0  0  0  0  0  0  0  0
  180.9390  176.1440  140.5290 O   0  0  0  0  0  1  0  0  0  0  0  0
  181.5900  177.2430  139.9620 C   0  0  2  0  0  3  0  0  0  0  0  0
  180.7160  177.8420  138.8700 C   0  0  0  0  0  2  0  0  0  0  0  0
  180.2990  176.7750  137.8620 C   0  0  1  0  0  3  0  0  0  0  0  0
  178.9310  176.5240  137.9980 O   0  0  0  0  0  1  0  0  0  0  0  0
  179.6470  176.7200  135.5560 O   0  0  0  0  0  1  0  0  0  0  0  0
  180.6040  177.2350  136.4350 C   0  0  2  0  0  3  0  0  0  0  0  0
  182.6640  177.7950  135.3570 O   0  0  0  0  0  1  0  0  0  0  0  0
  181.9760  176.7530  135.9830 C   0  0  0  0  0  2  0  0  0  0  0  0
  190.6320  178.7760  142.9260 C   0  0  0  0  0  3  0  0  0  0  0  0
  191.5490  177.9790  143.0120 O   0  0  0  0  0  0  0  0  0  0  0  0
  1 54  1  1  0  0  0
  1  4  1  0  0  0  0
  2  3  1  0  0  0  0
  2 20  1  0  0  0  0
  3 16  2  0  0  0  0
  3 18  1  0  0  0  0
  4 17  1  6  0  0  0
  4  9  1  0  0  0  0
  5 14  1  6  0  0  0
  5 22  1  0  0  0  0
  6  7  1  0  0  0  0
  7 13  1  0  0  0  0
  8 10  1  0  0  0  0
  9 11  1  0  0  0  0
  9 21  1  1  0  0  0
 10  6  1  0  0  0  0
 10 64  1  1  0  0  0
 12  7  2  0  0  0  0
 13 11  1  6  0  0  0
 13  5  1  0  0  0  0
 15  1  1  0  0  0  0
 16 15  2  0  0  0  0
 19 18  1  6  0  0  0
 19  8  1  0  0  0  0
 20 34  1  1  0  0  0
 20 19  1  0  0  0  0
 21 14  1  0  0  0  0
 22 24  1  0  0  0  0
 22 28  1  1  0  0  0
 23 26  1  0  0  0  0
 24 27  1  6  0  0  0
 24 25  1  0  0  0  0
 25 26  1  0  0  0  0
 25 31  1  0  0  0  0
 26 32  1  0  0  0  0
 27 23  1  0  0  0  0
 28 29  1  0  0  0  0
 29 31  1  0  0  0  0
 31 30  1  0  0  0  0
 33 32  1  0  0  0  0
 34 37  2  0  0  0  0
 36 35  2  0  0  0  0
 36 38  1  0  0  0  0
 38 34  1  0  0  0  0
 40 36  1  0  0  0  0
 41 39  1  0  0  0  0
 41 44  1  0  0  0  0
 43 42  1  0  0  0  0
 43 48  1  0  0  0  0
 44 40  1  0  0  0  0
 45 49  1  0  0  0  0
 45 46  1  0  0  0  0
 45 51  1  0  0  0  0
 46 41  1  0  0  0  0
 46 47  1  0  0  0  0
 47 43  1  0  0  0  0
 47 40  1  0  0  0  0
 49 50  1  0  0  0  0
 50 43  1  0  0  0  0
 51 39  1  0  0  0  0
 51 42  1  0  0  0  0
 52 47  1  0  0  0  0
 54 53  2  0  0  0  0
 54 56  1  0  0  0  0
 56 55  1  0  0  0  0
 57 56  1  0  0  0  0
 58 59  1  0  0  0  0
 58 57  1  0  0  0  0
 60 61  1  0  0  0  0
 61 58  1  0  0  0  0
 62 63  1  0  0  0  0
 63 61  1  0  0  0  0
 64 65  2  0  0  0  0
M  END
>  <MODEL>
2

>  <REMARK>
 VINA RESULT:      -5.9      0.975      1.323
  Name = 
  11 active torsions:
  status: ('A' for Active; 'I' for Inactive)
    1  A    between atoms: N_2  and  C_17
    2  A    between atoms: C_3  and  C_35
    3  A    between atoms: C_6  and  C_9
    4  A    between atoms: C_9  and  C_52
    5  A    between atoms: C_10  and  C_58
    6  A    between atoms: C_15  and  C_28
    7  A    between atoms: C_29  and  C_32
    8  A    between atoms: C_40  and  C_53
    9  A    between atoms: C_43  and  C_53
   10  A    between atoms: C_43  and  C_65
   11  A    between atoms: C_52  and  C_65
                            x       y       z     vdW  Elec       q    Type
                         _______ _______ _______ _____ _____    ______ ____

>  <TORSDO>
F 11

$$$$
=
 OpenBabel11042410153D

 65 73  0  0  1  0  0  0  0  0999 V2000
  188.4430  177.6080  137.1920 C   0  0  1  0  0  3  0  0  0  0  0  0
  186.3550  179.5800  141.1470 C   0  0  0  0  0  2  0  0  0  0  0  0
  186.3250  179.2700  139.6890 C   0  0  0  0  0  0  0  0  0  0  0  0
  187.2020  177.7110  136.2870 C   0  0  1  0  0  3  0  0  0  0  0  0
  183.8960  175.0220  136.1530 C   0  0  2  0  0  3  0  0  0  0  0  0
  183.2430  175.9610  139.6370 O   0  0  0  0  0  0  0  0  0  0  0  0
  184.1120  175.5570  138.6170 C   0  0  0  0  0  0  0  0  0  0  0  0
  182.8890  178.1850  140.5480 C   0  0  0  0  0  2  0  0  0  0  0  0
  186.1490  176.6070  136.4660 C   0  0  1  0  0  3  0  0  0  0  0  0
  182.4410  177.1360  139.5290 C   0  0  2  0  0  3  0  0  0  0  0  0
  184.9340  177.1460  136.9570 O   0  0  0  0  0  0  0  0  0  0  0  0
  184.9930  174.6930  138.8680 O   0  0  0  0  0  0  0  0  0  0  0  0
  183.9920  176.1180  137.2290 C   0  0  1  0  0  3  0  0  0  0  0  0
  184.5240  175.5030  134.8420 C   0  0  0  0  0  2  0  0  0  0  0  0
  188.2090  177.7740  138.6740 C   0  0  0  0  0  3  0  0  0  0  0  0
  187.2880  178.5570  139.1750 C   0  0  0  0  0  0  0  0  0  0  0  0
  186.6530  178.9990  136.3070 O   0  0  0  0  0  1  0  0  0  0  0  0
  184.9520  178.9080  139.2840 C   0  0  0  0  0  2  0  0  0  0  0  0
  184.4050  178.2990  140.5500 C   0  0  1  0  0  3  0  0  0  0  0  0
  184.9870  179.1430  141.6690 C   0  0  1  0  0  3  0  0  0  0  0  0
  185.9640  175.9330  135.0950 C   0  0  0  0  0  2  0  0  0  0  0  0
  182.5120  174.5380  136.0130 N   0  0  2  0  0  0  0  0  0  0  0  0
  182.4970  170.9240  136.8920 C   0  0  0  0  0  2  0  0  0  0  0  0
  182.5000  173.0780  135.8620 C   0  0  2  0  0  3  0  0  0  0  0  0
  181.0800  172.5860  135.8830 C   0  0  2  0  0  3  0  0  0  0  0  0
  181.2310  171.0870  136.0450 C   0  0  2  0  0  3  0  0  0  0  0  0
  183.1390  172.3040  136.9940 C   0  0  0  0  0  2  0  0  0  0  0  0
  181.8990  175.1060  134.7960 C   0  0  0  0  0  2  0  0  0  0  0  0
  180.4530  174.6110  134.6100 C   0  0  0  0  0  2  0  0  0  0  0  0
  178.9310  172.6520  134.5940 C   0  0  0  0  0  1  0  0  0  0  0  0
  180.3870  173.0800  134.6150 C   0  0  2  0  0  3  0  0  0  0  0  0
  180.0320  170.5160  136.7840 C   0  0  0  0  0  2  0  0  0  0  0  0
  179.0690  171.8560  137.5460 S   0  0  0  0  0  1  0  0  0  0  0  0
  185.1370  178.3500  142.9280 C   0  0  0  0  0  0  0  0  0  0  0  0
  185.8360  176.7180  145.2320 O   0  0  0  0  0  0  0  0  0  0  0  0
  186.7550  177.2280  144.5400 C   0  0  0  0  0  0  0  0  0  0  0  0
  184.1160  177.9440  143.5480 O   0  0  0  0  0  0  0  0  0  0  0  0
  186.4530  178.0440  143.3990 N   0  0  0  0  0  2  0  0  0  0  0  0
  190.7250  176.4610  146.5450 O   0  0  0  0  0  0  0  0  0  0  0  0
  188.1830  176.9590  144.9130 C   0  0  2  0  0  3  0  0  0  0  0  0
  189.8530  177.5820  146.5360 C   0  0  2  0  0  3  0  0  0  0  0  0
  190.9160  175.8300  144.2360 C   0  0  0  0  0  2  0  0  0  0  0  0
  190.1690  176.8210  143.3110 C   0  0  2  0  0  0  0  0  0  0  0  0
  188.4180  177.1200  146.4000 C   0  0  0  0  0  2  0  0  0  0  0  0
  191.6150  178.0940  145.1190 C   0  0  2  0  0  3  0  0  0  0  0  0
  190.1450  178.4130  145.3030 C   0  0  1  0  0  3  0  0  0  0  0  0
  189.2720  177.7770  144.1750 C   0  0  2  0  0  0  0  0  0  0  0  0
  189.3750  176.0600  142.2590 C   0  0  0  0  0  1  0  0  0  0  0  0
  192.1010  178.3990  143.6870 C   0  0  0  0  0  2  0  0  0  0  0  0
  191.2640  177.6530  142.6310 C   0  0  0  0  0  2  0  0  0  0  0  0
  191.5680  176.5960  145.4210 C   0  0  1  0  0  3  0  0  0  0  0  0
  188.6940  178.9150  143.3250 C   0  0  0  0  0  1  0  0  0  0  0  0
  188.8820  175.2860  137.4070 O   0  0  0  0  0  0  0  0  0  0  0  0
  189.2170  176.3510  136.9030 C   0  0  0  0  0  0  0  0  0  0  0  0
  189.8550  176.1340  134.6350 O   0  0  0  0  0  1  0  0  0  0  0  0
  190.3450  176.3930  135.9180 C   0  0  2  0  0  3  0  0  0  0  0  0
  191.4120  175.3670  136.2680 C   0  0  0  0  0  2  0  0  0  0  0  0
  192.5180  175.9980  137.1100 C   0  0  1  0  0  3  0  0  0  0  0  0
  192.1670  175.9230  138.4600 O   0  0  0  0  0  1  0  0  0  0  0  0
  194.0790  175.1470  135.5030 O   0  0  0  0  0  1  0  0  0  0  0  0
  193.8480  175.2800  136.8760 C   0  0  2  0  0  3  0  0  0  0  0  0
  194.9860  173.7080  138.2730 O   0  0  0  0  0  1  0  0  0  0  0  0
  193.8400  173.8890  137.4960 C   0  0  0  0  0  2  0  0  0  0  0  0
  181.0060  176.7940  139.7560 C   0  0  0  0  0  3  0  0  0  0  0  0
  180.3250  177.4690  140.5100 O   0  0  0  0  0  0  0  0  0  0  0  0
  1 54  1  1  0  0  0
  1 15  1  0  0  0  0
  2 20  1  0  0  0  0
  3  2  1  0  0  0  0
  4 17  1  1  0  0  0
  4  9  1  0  0  0  0
  4  1  1  0  0  0  0
  5 14  1  6  0  0  0
  5 13  1  0  0  0  0
  7 12  2  0  0  0  0
  7  6  1  0  0  0  0
  8 19  1  0  0  0  0
  9 21  1  6  0  0  0
  9 11  1  0  0  0  0
 10  6  1  0  0  0  0
 10 64  1  1  0  0  0
 10  8  1  0  0  0  0
 13 11  1  6  0  0  0
 13  7  1  0  0  0  0
 14 21  1  0  0  0  0
 15 16  2  0  0  0  0
 16  3  2  0  0  0  0
 18  3  1  0  0  0  0
 19 18  1  6  0  0  0
 19 20  1  0  0  0  0
 20 34  1  1  0  0  0
 22 28  1  6  0  0  0
 22  5  1  0  0  0  0
 23 27  1  0  0  0  0
 24 25  1  0  0  0  0
 24 22  1  0  0  0  0
 24 27  1  1  0  0  0
 25 26  1  0  0  0  0
 26 32  1  0  0  0  0
 26 23  1  0  0  0  0
 29 31  1  0  0  0  0
 29 28  1  0  0  0  0
 30 31  1  0  0  0  0
 31 25  1  0  0  0  0
 32 33  1  0  0  0  0
 34 38  1  0  0  0  0
 34 37  2  0  0  0  0
 36 40  1  0  0  0  0
 36 35  2  0  0  0  0
 38 36  1  0  0  0  0
 40 44  1  0  0  0  0
 41 39  1  0  0  0  0
 42 51  1  0  0  0  0
 43 47  1  0  0  0  0
 43 42  1  0  0  0  0
 44 41  1  0  0  0  0
 45 46  1  0  0  0  0
 45 51  1  0  0  0  0
 46 41  1  0  0  0  0
 47 40  1  0  0  0  0
 47 46  1  0  0  0  0
 48 43  1  0  0  0  0
 49 45  1  0  0  0  0
 50 43  1  0  0  0  0
 50 49  1  0  0  0  0
 51 39  1  0  0  0  0
 52 47  1  0  0  0  0
 54 53  2  0  0  0  0
 55 56  1  0  0  0  0
 56 57  1  0  0  0  0
 56 54  1  0  0  0  0
 57 58  1  0  0  0  0
 58 59  1  0  0  0  0
 60 61  1  0  0  0  0
 61 58  1  0  0  0  0
 61 63  1  0  0  0  0
 63 62  1  0  0  0  0
 64 65  2  0  0  0  0
M  END
>  <MODEL>
3

>  <REMARK>
 VINA RESULT:      -5.9      3.847     10.370
  Name = 
  11 active torsions:
  status: ('A' for Active; 'I' for Inactive)
    1  A    between atoms: N_2  and  C_17
    2  A    between atoms: C_3  and  C_35
    3  A    between atoms: C_6  and  C_9
    4  A    between atoms: C_9  and  C_52
    5  A    between atoms: C_10  and  C_58
    6  A    between atoms: C_15  and  C_28
    7  A    between atoms: C_29  and  C_32
    8  A    between atoms: C_40  and  C_53
    9  A    between atoms: C_43  and  C_53
   10  A    between atoms: C_43  and  C_65
   11  A    between atoms: C_52  and  C_65
                            x       y       z     vdW  Elec       q    Type
                         _______ _______ _______ _____ _____    ______ ____

>  <TORSDO>
F 11

$$$$
=
 OpenBabel11042410153D

 65 73  0  0  1  0  0  0  0  0999 V2000
  190.1110  177.4840  142.7600 C   0  0  1  0  0  3  0  0  0  0  0  0
  186.6760  178.5130  139.4380 C   0  0  0  0  0  2  0  0  0  0  0  0
  188.0810  178.6330  139.9240 C   0  0  0  0  0  0  0  0  0  0  0  0
  191.2990  177.9960  141.9260 C   0  0  1  0  0  3  0  0  0  0  0  0
  193.3530  175.9010  138.8320 C   0  0  2  0  0  3  0  0  0  0  0  0
  190.1780  175.8980  136.9970 O   0  0  0  0  0  0  0  0  0  0  0  0
  190.9200  175.6890  138.1640 C   0  0  0  0  0  0  0  0  0  0  0  0
  188.7980  177.8010  136.3860 C   0  0  0  0  0  2  0  0  0  0  0  0
  191.8320  177.0310  140.8560 C   0  0  1  0  0  3  0  0  0  0  0  0
  190.1790  177.1480  136.3100 C   0  0  2  0  0  3  0  0  0  0  0  0
  191.6340  177.5620  139.5570 O   0  0  0  0  0  0  0  0  0  0  0  0
  190.6700  174.6830  138.8790 O   0  0  0  0  0  0  0  0  0  0  0  0
  192.0230  176.6280  138.5590 C   0  0  1  0  0  3  0  0  0  0  0  0
  194.1620  176.6470  139.8960 C   0  0  0  0  0  2  0  0  0  0  0  0
  188.8180  177.2540  142.0150 C   0  0  0  0  0  3  0  0  0  0  0  0
  188.4370  177.9760  140.9920 C   0  0  0  0  0  0  0  0  0  0  0  0
  191.0670  179.2850  141.4320 O   0  0  0  0  0  1  0  0  0  0  0  0
  189.0110  178.5790  138.7790 C   0  0  0  0  0  2  0  0  0  0  0  0
  188.2550  177.7150  137.8030 C   0  0  1  0  0  3  0  0  0  0  0  0
  186.8030  178.1270  137.9650 C   0  0  1  0  0  3  0  0  0  0  0  0
  193.3230  176.8000  141.1590 C   0  0  0  0  0  2  0  0  0  0  0  0
  194.0890  175.6590  137.5790 N   0  0  2  0  0  0  0  0  0  0  0  0
  196.0590  172.5350  138.0270 C   0  0  0  0  0  2  0  0  0  0  0  0
  195.2260  174.7640  137.8270 C   0  0  2  0  0  3  0  0  0  0  0  0
  195.8680  174.3990  136.5180 C   0  0  2  0  0  3  0  0  0  0  0  0
  196.7870  173.2520  136.8850 C   0  0  2  0  0  3  0  0  0  0  0  0
  194.8740  173.4150  138.4140 C   0  0  0  0  0  2  0  0  0  0  0  0
  194.6380  176.9270  137.0630 C   0  0  0  0  0  2  0  0  0  0  0  0
  195.4270  176.7110  135.7580 C   0  0  0  0  0  2  0  0  0  0  0  0
  197.1530  175.3630  134.5940 C   0  0  0  0  0  1  0  0  0  0  0  0
  196.5210  175.6530  135.9420 C   0  0  2  0  0  3  0  0  0  0  0  0
  196.9530  172.3130  135.7020 C   0  0  0  0  0  2  0  0  0  0  0  0
  196.0730  170.7530  136.0110 S   0  0  0  0  0  1  0  0  0  0  0  0
  185.8770  177.0000  137.6390 C   0  0  0  0  0  0  0  0  0  0  0  0
  183.8040  174.9860  137.3030 O   0  0  0  0  0  0  0  0  0  0  0  0
  183.4960  176.1090  137.7810 C   0  0  0  0  0  0  0  0  0  0  0  0
  186.3220  175.9440  137.1110 O   0  0  0  0  0  0  0  0  0  0  0  0
  184.4880  177.1310  137.9580 N   0  0  0  0  0  2  0  0  0  0  0  0
  179.0160  176.2740  138.2980 O   0  0  0  0  0  0  0  0  0  0  0  0
  182.0740  176.3660  138.1830 C   0  0  2  0  0  3  0  0  0  0  0  0
  179.8770  176.6650  137.2380 C   0  0  2  0  0  3  0  0  0  0  0  0
  180.0350  177.1970  140.2680 C   0  0  0  0  0  2  0  0  0  0  0  0
  181.2710  178.0600  139.9200 C   0  0  2  0  0  0  0  0  0  0  0  0
  181.0920  175.7640  137.2000 C   0  0  0  0  0  2  0  0  0  0  0  0
  179.2350  178.6080  138.3280 C   0  0  2  0  0  3  0  0  0  0  0  0
  180.3970  178.0600  137.5240 C   0  0  1  0  0  3  0  0  0  0  0  0
  181.6610  177.8410  138.4150 C   0  0  2  0  0  0  0  0  0  0  0  0
  182.4140  177.7480  140.8750 C   0  0  0  0  0  1  0  0  0  0  0  0
  179.6410  179.8330  139.1730 C   0  0  0  0  0  2  0  0  0  0  0  0
  180.8230  179.5140  140.1070 C   0  0  0  0  0  2  0  0  0  0  0  0
  178.9370  177.3740  139.1800 C   0  0  1  0  0  3  0  0  0  0  0  0
  182.7330  178.8420  137.9690 C   0  0  0  0  0  1  0  0  0  0  0  0
  190.3700  175.1480  143.0870 O   0  0  0  0  0  0  0  0  0  0  0  0
  190.4980  176.2700  143.5590 C   0  0  0  0  0  0  0  0  0  0  0  0
  192.2190  175.5800  145.0290 O   0  0  0  0  0  1  0  0  0  0  0  0
  191.1310  176.4490  144.9050 C   0  0  2  0  0  3  0  0  0  0  0  0
  190.1320  176.1710  146.0190 C   0  0  0  0  0  2  0  0  0  0  0  0
  189.0110  177.2050  146.0140 C   0  0  1  0  0  3  0  0  0  0  0  0
  188.0860  176.8760  145.0190 O   0  0  0  0  0  1  0  0  0  0  0  0
  186.9600  177.5450  147.2060 O   0  0  0  0  0  1  0  0  0  0  0  0
  188.3170  177.2530  147.3760 C   0  0  2  0  0  3  0  0  0  0  0  0
  188.3050  178.3150  149.5190 O   0  0  0  0  0  1  0  0  0  0  0  0
  188.9280  178.3250  148.2690 C   0  0  0  0  0  2  0  0  0  0  0  0
  190.5610  176.9440  134.8820 C   0  0  0  0  0  3  0  0  0  0  0  0
  191.6240  176.4180  134.5990 O   0  0  0  0  0  0  0  0  0  0  0  0
  1 54  1  6  0  0  0
  2  3  1  0  0  0  0
  3 16  2  0  0  0  0
  4 17  1  6  0  0  0
  4  1  1  0  0  0  0
  5 14  1  1  0  0  0
  6  7  1  0  0  0  0
  7 12  2  0  0  0  0
  9 21  1  1  0  0  0
  9  4  1  0  0  0  0
 10 64  1  6  0  0  0
 10  8  1  0  0  0  0
 10  6  1  0  0  0  0
 11  9  1  0  0  0  0
 13  7  1  1  0  0  0
 13  5  1  0  0  0  0
 13 11  1  0  0  0  0
 14 21  1  0  0  0  0
 15  1  1  0  0  0  0
 16 15  2  0  0  0  0
 18  3  1  0  0  0  0
 19  8  1  6  0  0  0
 19 20  1  0  0  0  0
 19 18  1  0  0  0  0
 20 34  1  1  0  0  0
 20  2  1  0  0  0  0
 22 28  1  1  0  0  0
 22 24  1  0  0  0  0
 22  5  1  0  0  0  0
 23 27  1  0  0  0  0
 24 27  1  6  0  0  0
 25 26  1  0  0  0  0
 25 24  1  0  0  0  0
 26 23  1  0  0  0  0
 29 31  1  0  0  0  0
 29 28  1  0  0  0  0
 30 31  1  0  0  0  0
 31 25  1  0  0  0  0
 32 33  1  0  0  0  0
 32 26  1  0  0  0  0
 34 38  1  0  0  0  0
 35 36  2  0  0  0  0
 36 38  1  0  0  0  0
 36 40  1  0  0  0  0
 37 34  2  0  0  0  0
 39 51  1  0  0  0  0
 40 47  1  0  0  0  0
 41 46  1  0  0  0  0
 41 39  1  0  0  0  0
 43 50  1  0  0  0  0
 43 42  1  0  0  0  0
 43 48  1  0  0  0  0
 44 41  1  0  0  0  0
 44 40  1  0  0  0  0
 45 49  1  0  0  0  0
 45 51  1  0  0  0  0
 46 45  1  0  0  0  0
 46 47  1  0  0  0  0
 47 43  1  0  0  0  0
 49 50  1  0  0  0  0
 51 42  1  0  0  0  0
 52 47  1  0  0  0  0
 53 54  2  0  0  0  0
 54 56  1  0  0  0  0
 56 55  1  0  0  0  0
 56 57  1  0  0  0  0
 58 57  1  0  0  0  0
 58 61  1  0  0  0  0
 59 58  1  0  0  0  0
 60 61  1  0  0  0  0
 61 63  1  0  0  0  0
 63 62  1  0  0  0  0
 65 64  2  0  0  0  0
M  END
>  <MODEL>
4

>  <REMARK>
 VINA RESULT:      -5.5      2.914     11.219
  Name = 
  11 active torsions:
  status: ('A' for Active; 'I' for Inactive)
    1  A    between atoms: N_2  and  C_17
    2  A    between atoms: C_3  and  C_35
    3  A    between atoms: C_6  and  C_9
    4  A    between atoms: C_9  and  C_52
    5  A    between atoms: C_10  and  C_58
    6  A    between atoms: C_15  and  C_28
    7  A    between atoms: C_29  and  C_32
    8  A    between atoms: C_40  and  C_53
    9  A    between atoms: C_43  and  C_53
   10  A    between atoms: C_43  and  C_65
   11  A    between atoms: C_52  and  C_65
                            x       y       z     vdW  Elec       q    Type
                         _______ _______ _______ _____ _____    ______ ____

>  <TORSDO>
F 11

$$$$
=
 OpenBabel11042410153D

 65 73  0  0  1  0  0  0  0  0999 V2000
  189.8580  178.0130  144.5100 C   0  0  1  0  0  3  0  0  0  0  0  0
  185.6460  179.3090  142.3950 C   0  0  0  0  0  2  0  0  0  0  0  0
  187.1340  179.3810  142.4620 C   0  0  0  0  0  0  0  0  0  0  0  0
  190.7710  178.5730  143.4050 C   0  0  1  0  0  3  0  0  0  0  0  0
  191.7880  176.6870  139.7190 C   0  0  2  0  0  3  0  0  0  0  0  0
  188.2220  176.8430  138.8810 O   0  0  0  0  0  0  0  0  0  0  0  0
  189.2610  176.5450  139.7690 C   0  0  0  0  0  0  0  0  0  0  0  0
  186.7810  178.7980  138.8210 C   0  0  0  0  0  2  0  0  0  0  0  0
  190.9460  177.6830  142.1660 C   0  0  1  0  0  3  0  0  0  0  0  0
  188.0620  178.1400  138.3070 C   0  0  2  0  0  3  0  0  0  0  0  0
  190.4000  178.3070  141.0170 O   0  0  0  0  0  0  0  0  0  0  0  0
  189.1980  175.4930  140.4580 O   0  0  0  0  0  0  0  0  0  0  0  0
  190.4580  177.4430  139.8900 C   0  0  1  0  0  3  0  0  0  0  0  0
  192.8900  177.3470  140.5520 C   0  0  0  0  0  2  0  0  0  0  0  0
  188.3990  177.8490  144.1560 C   0  0  0  0  0  3  0  0  0  0  0  0
  187.7620  178.6460  143.3370 C   0  0  0  0  0  0  0  0  0  0  0  0
  190.4450  179.8970  143.0850 O   0  0  0  0  0  1  0  0  0  0  0  0
  187.6950  179.4010  141.0970 C   0  0  0  0  0  2  0  0  0  0  0  0
  186.6650  178.6150  140.3260 C   0  0  1  0  0  3  0  0  0  0  0  0
  185.3330  179.0280  140.9260 C   0  0  1  0  0  3  0  0  0  0  0  0
  192.4540  177.4170  142.0100 C   0  0  0  0  0  2  0  0  0  0  0  0
  192.1260  176.5280  138.2940 N   0  0  2  0  0  0  0  0  0  0  0  0
  190.5220  173.3880  137.1090 C   0  0  0  0  0  2  0  0  0  0  0  0
  191.9610  175.1260  137.8900 C   0  0  2  0  0  3  0  0  0  0  0  0
  192.1520  175.0110  136.4030 C   0  0  2  0  0  3  0  0  0  0  0  0
  191.6440  173.6180  136.0920 C   0  0  2  0  0  3  0  0  0  0  0  0
  190.5760  174.5520  138.0940 C   0  0  0  0  0  2  0  0  0  0  0  0
  193.5410  176.8810  138.0680 C   0  0  0  0  0  2  0  0  0  0  0  0
  193.9350  176.7140  136.5900 C   0  0  0  0  0  2  0  0  0  0  0  0
  193.8710  175.2430  134.5940 C   0  0  0  0  0  1  0  0  0  0  0  0
  193.6170  175.3010  136.0890 C   0  0  2  0  0  3  0  0  0  0  0  0
  191.0860  173.5660  134.6800 C   0  0  0  0  0  2  0  0  0  0  0  0
  189.3130  173.1700  134.7200 S   0  0  0  0  0  1  0  0  0  0  0  0
  184.3200  177.9350  140.8070 C   0  0  0  0  0  0  0  0  0  0  0  0
  182.2430  175.9930  140.1910 O   0  0  0  0  0  0  0  0  0  0  0  0
  182.7670  176.6490  139.2540 C   0  0  0  0  0  0  0  0  0  0  0  0
  183.9210  177.3250  141.8370 O   0  0  0  0  0  0  0  0  0  0  0  0
  183.7980  177.6130  139.5140 N   0  0  0  0  0  2  0  0  0  0  0  0
  180.4690  176.0950  135.4100 O   0  0  0  0  0  0  0  0  0  0  0  0
  182.2870  176.4260  137.8500 C   0  0  2  0  0  3  0  0  0  0  0  0
  180.5200  175.3460  136.6160 C   0  0  2  0  0  3  0  0  0  0  0  0
  182.7710  176.5010  134.8570 C   0  0  0  0  0  2  0  0  0  0  0  0
  183.7270  175.7840  135.8390 C   0  0  2  0  0  0  0  0  0  0  0  0
  180.7830  176.2690  137.7860 C   0  0  0  0  0  2  0  0  0  0  0  0
  181.7780  174.1840  135.0530 C   0  0  2  0  0  3  0  0  0  0  0  0
  181.7050  174.4030  136.5510 C   0  0  1  0  0  3  0  0  0  0  0  0
  182.9150  175.2440  137.0700 C   0  0  2  0  0  0  0  0  0  0  0  0
  184.8580  176.7180  136.2450 C   0  0  0  0  0  1  0  0  0  0  0  0
  183.1580  173.6560  134.6100 C   0  0  0  0  0  2  0  0  0  0  0  0
  184.2960  174.5910  135.0610 C   0  0  0  0  0  2  0  0  0  0  0  0
  181.5170  175.6180  134.5940 C   0  0  1  0  0  3  0  0  0  0  0  0
  183.7800  174.3350  137.9500 C   0  0  0  0  0  1  0  0  0  0  0  0
  190.3890  175.7020  144.4380 O   0  0  0  0  0  0  0  0  0  0  0  0
  190.4220  176.7420  145.0830 C   0  0  0  0  0  0  0  0  0  0  0  0
  191.3710  175.4730  146.8400 O   0  0  0  0  0  1  0  0  0  0  0  0
  191.1120  176.7780  146.4120 C   0  0  2  0  0  3  0  0  0  0  0  0
  190.2580  177.4900  147.4500 C   0  0  0  0  0  2  0  0  0  0  0  0
  188.8080  177.0180  147.3790 C   0  0  1  0  0  3  0  0  0  0  0  0
  188.6370  175.9300  148.2390 O   0  0  0  0  0  1  0  0  0  0  0  0
  187.5810  178.0830  149.1400 O   0  0  0  0  0  1  0  0  0  0  0  0
  187.8540  178.1480  147.7710 C   0  0  2  0  0  3  0  0  0  0  0  0
  185.8830  179.2770  147.0240 O   0  0  0  0  0  1  0  0  0  0  0  0
  186.5360  178.0420  147.0150 C   0  0  0  0  0  2  0  0  0  0  0  0
  188.0130  178.0350  136.8190 C   0  0  0  0  0  3  0  0  0  0  0  0
  188.7980  177.3150  136.2280 O   0  0  0  0  0  0  0  0  0  0  0  0
  1 54  1  6  0  0  0
  2  3  1  0  0  0  0
  3 16  2  0  0  0  0
  4 17  1  6  0  0  0
  4  1  1  0  0  0  0
  5 13  1  0  0  0  0
  5 14  1  1  0  0  0
  6  7  1  0  0  0  0
  7 12  2  0  0  0  0
  9 21  1  6  0  0  0
  9  4  1  0  0  0  0
 10 64  1  6  0  0  0
 10  8  1  0  0  0  0
 10  6  1  0  0  0  0
 11  9  1  0  0  0  0
 13  7  1  1  0  0  0
 13 11  1  0  0  0  0
 14 21  1  0  0  0  0
 15  1  1  0  0  0  0
 16 15  2  0  0  0  0
 18  3  1  0  0  0  0
 19  8  1  6  0  0  0
 19 20  1  0  0  0  0
 19 18  1  0  0  0  0
 20 34  1  1  0  0  0
 20  2  1  0  0  0  0
 22 28  1  1  0  0  0
 22  5  1  0  0  0  0
 23 27  1  0  0  0  0
 24 27  1  6  0  0  0
 24 22  1  0  0  0  0
 25 24  1  0  0  0  0
 26 25  1  0  0  0  0
 26 23  1  0  0  0  0
 29 28  1  0  0  0  0
 30 31  1  0  0  0  0
 31 25  1  0  0  0  0
 31 29  1  0  0  0  0
 32 33  1  0  0  0  0
 32 26  1  0  0  0  0
 34 37  2  0  0  0  0
 36 38  1  0  0  0  0
 36 35  2  0  0  0  0
 38 34  1  0  0  0  0
 39 41  1  0  0  0  0
 40 36  1  0  0  0  0
 41 44  1  0  0  0  0
 42 43  1  0  0  0  0
 43 48  1  0  0  0  0
 43 47  1  0  0  0  0
 44 40  1  0  0  0  0
 45 46  1  0  0  0  0
 46 41  1  0  0  0  0
 46 47  1  0  0  0  0
 47 40  1  0  0  0  0
 47 52  1  0  0  0  0
 49 45  1  0  0  0  0
 49 50  1  0  0  0  0
 50 43  1  0  0  0  0
 51 42  1  0  0  0  0
 51 45  1  0  0  0  0
 51 39  1  0  0  0  0
 53 54  2  0  0  0  0
 54 56  1  0  0  0  0
 56 55  1  0  0  0  0
 56 57  1  0  0  0  0
 58 57  1  0  0  0  0
 58 61  1  0  0  0  0
 58 59  1  0  0  0  0
 61 60  1  0  0  0  0
 63 62  1  0  0  0  0
 63 61  1  0  0  0  0
 65 64  2  0  0  0  0
M  END
>  <MODEL>
5

>  <REMARK>
 VINA RESULT:      -5.0      3.204     10.178
  Name = 
  11 active torsions:
  status: ('A' for Active; 'I' for Inactive)
    1  A    between atoms: N_2  and  C_17
    2  A    between atoms: C_3  and  C_35
    3  A    between atoms: C_6  and  C_9
    4  A    between atoms: C_9  and  C_52
    5  A    between atoms: C_10  and  C_58
    6  A    between atoms: C_15  and  C_28
    7  A    between atoms: C_29  and  C_32
    8  A    between atoms: C_40  and  C_53
    9  A    between atoms: C_43  and  C_53
   10  A    between atoms: C_43  and  C_65
   11  A    between atoms: C_52  and  C_65
                            x       y       z     vdW  Elec       q    Type
                         _______ _______ _______ _____ _____    ______ ____

>  <TORSDO>
F 11

$$$$
=
 OpenBabel11042410153D

 65 73  0  0  1  0  0  0  0  0999 V2000
  188.4420  177.7660  137.1800 C   0  0  1  0  0  3  0  0  0  0  0  0
  186.3890  179.6430  141.1990 C   0  0  0  0  0  2  0  0  0  0  0  0
  186.3440  179.3640  139.7350 C   0  0  0  0  0  0  0  0  0  0  0  0
  187.1910  177.8820  136.2910 C   0  0  1  0  0  3  0  0  0  0  0  0
  183.8960  175.1810  136.1360 C   0  0  2  0  0  3  0  0  0  0  0  0
  183.2770  176.0430  139.6460 O   0  0  0  0  0  0  0  0  0  0  0  0
  184.1360  175.6650  138.6090 C   0  0  0  0  0  0  0  0  0  0  0  0
  182.9230  178.2450  140.6080 C   0  0  0  0  0  2  0  0  0  0  0  0
  186.1440  176.7700  136.4580 C   0  0  1  0  0  3  0  0  0  0  0  0
  182.4680  177.2160  139.5720 C   0  0  2  0  0  3  0  0  0  0  0  0
  184.9320  177.2920  136.9740 O   0  0  0  0  0  0  0  0  0  0  0  0
  185.0230  174.7990  138.8320 O   0  0  0  0  0  0  0  0  0  0  0  0
  183.9990  176.2540  137.2350 C   0  0  1  0  0  3  0  0  0  0  0  0
  184.5070  175.6920  134.8290 C   0  0  0  0  0  2  0  0  0  0  0  0
  188.2230  177.8980  138.6680 C   0  0  0  0  0  3  0  0  0  0  0  0
  187.3050  178.6670  139.1950 C   0  0  0  0  0  0  0  0  0  0  0  0
  186.6360  179.1660  136.3450 O   0  0  0  0  0  1  0  0  0  0  0  0
  184.9690  179.0040  139.3380 C   0  0  0  0  0  2  0  0  0  0  0  0
  184.4380  178.3660  140.5960 C   0  0  1  0  0  3  0  0  0  0  0  0
  185.0290  179.1890  141.7270 C   0  0  1  0  0  3  0  0  0  0  0  0
  185.9470  176.1240  135.0760 C   0  0  0  0  0  2  0  0  0  0  0  0
  182.5110  174.6940  136.0010 N   0  0  2  0  0  0  0  0  0  0  0  0
  182.5070  171.0820  136.8920 C   0  0  0  0  0  2  0  0  0  0  0  0
  182.5030  173.2330  135.8550 C   0  0  2  0  0  3  0  0  0  0  0  0
  181.0840  172.7380  135.8810 C   0  0  2  0  0  3  0  0  0  0  0  0
  181.2380  171.2400  136.0480 C   0  0  2  0  0  3  0  0  0  0  0  0
  183.1460  172.4640  136.9890 C   0  0  0  0  0  2  0  0  0  0  0  0
  181.8950  175.2560  134.7840 C   0  0  0  0  0  2  0  0  0  0  0  0
  180.4500  174.7570  134.6030 C   0  0  0  0  0  2  0  0  0  0  0  0
  178.9320  172.7950  134.5970 C   0  0  0  0  0  1  0  0  0  0  0  0
  180.3870  173.2260  134.6140 C   0  0  2  0  0  3  0  0  0  0  0  0
  180.0420  170.6690  136.7920 C   0  0  0  0  0  2  0  0  0  0  0  0
  179.3140  171.9340  137.8740 S   0  0  0  0  0  1  0  0  0  0  0  0
  185.1960  178.3700  142.9660 C   0  0  0  0  0  0  0  0  0  0  0  0
  185.9310  176.7000  145.2320 O   0  0  0  0  0  0  0  0  0  0  0  0
  186.8390  177.2450  144.5520 C   0  0  0  0  0  0  0  0  0  0  0  0
  184.1850  177.9280  143.5770 O   0  0  0  0  0  0  0  0  0  0  0  0
  186.5190  178.0810  143.4310 N   0  0  0  0  0  2  0  0  0  0  0  0
  190.8420  176.6150  146.5380 O   0  0  0  0  0  0  0  0  0  0  0  0
  188.2720  176.9980  144.9180 C   0  0  2  0  0  3  0  0  0  0  0  0
  189.9750  177.7370  146.4570 C   0  0  2  0  0  3  0  0  0  0  0  0
  190.9870  175.8040  144.2820 C   0  0  0  0  0  2  0  0  0  0  0  0
  190.2270  176.7240  143.2960 C   0  0  2  0  0  0  0  0  0  0  0  0
  188.5360  177.2740  146.3840 C   0  0  0  0  0  2  0  0  0  0  0  0
  191.7120  178.1260  144.9720 C   0  0  2  0  0  3  0  0  0  0  0  0
  190.2470  178.4670  145.1570 C   0  0  1  0  0  3  0  0  0  0  0  0
  189.3500  177.7500  144.0990 C   0  0  2  0  0  0  0  0  0  0  0  0
  189.4100  175.8880  142.3220 C   0  0  0  0  0  1  0  0  0  0  0  0
  192.1720  178.3150  143.5120 C   0  0  0  0  0  2  0  0  0  0  0  0
  191.3130  177.4940  142.5330 C   0  0  0  0  0  2  0  0  0  0  0  0
  191.6650  176.6570  145.3920 C   0  0  1  0  0  3  0  0  0  0  0  0
  188.7620  178.8210  143.1730 C   0  0  0  0  0  1  0  0  0  0  0  0
  189.6690  176.3420  135.7320 O   0  0  0  0  0  0  0  0  0  0  0  0
  189.2180  176.5190  136.8560 C   0  0  0  0  0  0  0  0  0  0  0  0
  190.3460  176.1330  138.9000 O   0  0  0  0  0  1  0  0  0  0  0  0
  189.5170  175.5360  137.9470 C   0  0  2  0  0  3  0  0  0  0  0  0
  190.1990  174.2950  137.3900 C   0  0  0  0  0  2  0  0  0  0  0  0
  189.6870  173.9760  135.9880 C   0  0  1  0  0  3  0  0  0  0  0  0
  190.7710  173.6710  135.1610 O   0  0  0  0  0  1  0  0  0  0  0  0
  188.4400  172.3650  134.7250 O   0  0  0  0  0  1  0  0  0  0  0  0
  188.7130  172.7970  136.0270 C   0  0  2  0  0  3  0  0  0  0  0  0
  186.3980  172.2810  136.3340 O   0  0  0  0  0  1  0  0  0  0  0  0
  187.3970  173.1900  136.6860 C   0  0  0  0  0  2  0  0  0  0  0  0
  181.0370  176.8630  139.8080 C   0  0  0  0  0  3  0  0  0  0  0  0
  180.2470  176.8470  138.8800 O   0  0  0  0  0  0  0  0  0  0  0  0
  1 54  1  1  0  0  0
  1 15  1  0  0  0  0
  2 20  1  0  0  0  0
  3  2  1  0  0  0  0
  4 17  1  1  0  0  0
  4  9  1  0  0  0  0
  4  1  1  0  0  0  0
  5 14  1  6  0  0  0
  5 13  1  0  0  0  0
  7 12  2  0  0  0  0
  7  6  1  0  0  0  0
  9 21  1  6  0  0  0
  9 11  1  0  0  0  0
 10  6  1  0  0  0  0
 10 64  1  1  0  0  0
 10  8  1  0  0  0  0
 13 11  1  6  0  0  0
 13  7  1  0  0  0  0
 14 21  1  0  0  0  0
 15 16  2  0  0  0  0
 16  3  2  0  0  0  0
 18  3  1  0  0  0  0
 19 18  1  6  0  0  0
 19  8  1  0  0  0  0
 19 20  1  0  0  0  0
 20 34  1  1  0  0  0
 22 28  1  6  0  0  0
 22  5  1  0  0  0  0
 23 27  1  0  0  0  0
 24 25  1  0  0  0  0
 24 22  1  0  0  0  0
 24 27  1  1  0  0  0
 25 26  1  0  0  0  0
 26 32  1  0  0  0  0
 26 23  1  0  0  0  0
 29 31  1  0  0  0  0
 29 28  1  0  0  0  0
 30 31  1  0  0  0  0
 31 25  1  0  0  0  0
 32 33  1  0  0  0  0
 34 38  1  0  0  0  0
 34 37  2  0  0  0  0
 36 40  1  0  0  0  0
 36 35  2  0  0  0  0
 38 36  1  0  0  0  0
 40 44  1  0  0  0  0
 41 39  1  0  0  0  0
 42 51  1  0  0  0  0
 43 47  1  0  0  0  0
 43 42  1  0  0  0  0
 44 41  1  0  0  0  0
 45 46  1  0  0  0  0
 45 51  1  0  0  0  0
 46 41  1  0  0  0  0
 47 40  1  0  0  0  0
 47 46  1  0  0  0  0
 48 43  1  0  0  0  0
 49 45  1  0  0  0  0
 50 43  1  0  0  0  0
 50 49  1  0  0  0  0
 51 39  1  0  0  0  0
 52 47  1  0  0  0  0
 53 54  2  0  0  0  0
 54 56  1  0  0  0  0
 56 55  1  0  0  0  0
 57 56  1  0  0  0  0
 58 61  1  0  0  0  0
 58 57  1  0  0  0  0
 59 58  1  0  0  0  0
 60 61  1  0  0  0  0
 61 63  1  0  0  0  0
 62 63  1  0  0  0  0
 65 64  2  0  0  0  0
M  END
>  <MODEL>
6

>  <REMARK>
 VINA RESULT:      -4.7      3.958      9.966
  Name = 
  11 active torsions:
  status: ('A' for Active; 'I' for Inactive)
    1  A    between atoms: N_2  and  C_17
    2  A    between atoms: C_3  and  C_35
    3  A    between atoms: C_6  and  C_9
    4  A    between atoms: C_9  and  C_52
    5  A    between atoms: C_10  and  C_58
    6  A    between atoms: C_15  and  C_28
    7  A    between atoms: C_29  and  C_32
    8  A    between atoms: C_40  and  C_53
    9  A    between atoms: C_43  and  C_53
   10  A    between atoms: C_43  and  C_65
   11  A    between atoms: C_52  and  C_65
                            x       y       z     vdW  Elec       q    Type
                         _______ _______ _______ _____ _____    ______ ____

>  <TORSDO>
F 11

$$$$
=
 OpenBabel11042410153D

 65 73  0  0  1  0  0  0  0  0999 V2000
  189.7500  177.9930  144.5180 C   0  0  1  0  0  3  0  0  0  0  0  0
  185.5220  179.2090  142.3870 C   0  0  0  0  0  2  0  0  0  0  0  0
  187.0080  179.3180  142.4670 C   0  0  0  0  0  0  0  0  0  0  0  0
  190.6570  178.5920  143.4290 C   0  0  1  0  0  3  0  0  0  0  0  0
  191.7520  176.7840  139.7260 C   0  0  2  0  0  3  0  0  0  0  0  0
  188.1890  176.8600  138.8610 O   0  0  0  0  0  0  0  0  0  0  0  0
  189.2290  176.5760  139.7520 C   0  0  0  0  0  0  0  0  0  0  0  0
  186.6980  178.7770  138.8160 C   0  0  0  0  0  2  0  0  0  0  0  0
  190.8650  177.7230  142.1780 C   0  0  1  0  0  3  0  0  0  0  0  0
  188.0000  178.1590  138.3030 C   0  0  2  0  0  3  0  0  0  0  0  0
  190.3110  178.3490  141.0340 O   0  0  0  0  0  0  0  0  0  0  0  0
  189.1870  175.5130  140.4260 O   0  0  0  0  0  0  0  0  0  0  0  0
  190.4010  177.5030  139.8960 C   0  0  1  0  0  3  0  0  0  0  0  0
  192.8300  177.4610  140.5760 C   0  0  0  0  0  2  0  0  0  0  0  0
  188.2980  177.7960  144.1500 C   0  0  0  0  0  3  0  0  0  0  0  0
  187.6480  178.5880  143.3370 C   0  0  0  0  0  0  0  0  0  0  0  0
  190.2990  179.9110  143.1240 O   0  0  0  0  0  1  0  0  0  0  0  0
  187.5780  179.3710  141.1070 C   0  0  0  0  0  2  0  0  0  0  0  0
  186.5750  178.5700  140.3170 C   0  0  1  0  0  3  0  0  0  0  0  0
  185.2290  178.9400  140.9110 C   0  0  1  0  0  3  0  0  0  0  0  0
  192.3800  177.4990  142.0320 C   0  0  0  0  0  2  0  0  0  0  0  0
  192.1050  176.6540  138.3010 N   0  0  2  0  0  0  0  0  0  0  0  0
  190.5350  173.5250  137.0430 C   0  0  0  0  0  2  0  0  0  0  0  0
  191.9530  175.2580  137.8700 C   0  0  2  0  0  3  0  0  0  0  0  0
  192.1600  175.1720  136.3830 C   0  0  2  0  0  3  0  0  0  0  0  0
  191.6660  173.7810  136.0410 C   0  0  2  0  0  3  0  0  0  0  0  0
  190.5710  174.6700  138.0500 C   0  0  0  0  0  2  0  0  0  0  0  0
  193.5200  177.0210  138.0960 C   0  0  0  0  0  2  0  0  0  0  0  0
  193.9290  176.8840  136.6190 C   0  0  0  0  0  2  0  0  0  0  0  0
  193.8950  175.4490  134.5950 C   0  0  0  0  0  1  0  0  0  0  0  0
  193.6270  175.4780  136.0890 C   0  0  2  0  0  3  0  0  0  0  0  0
  191.1220  173.7510  134.6230 C   0  0  0  0  0  2  0  0  0  0  0  0
  189.4090  174.3600  134.5950 S   0  0  0  0  0  1  0  0  0  0  0  0
  184.2450  177.8230  140.7690 C   0  0  0  0  0  0  0  0  0  0  0  0
  182.2650  175.8040  140.0870 O   0  0  0  0  0  0  0  0  0  0  0  0
  182.8760  176.4010  139.1620 C   0  0  0  0  0  0  0  0  0  0  0  0
  183.7480  177.2810  141.7940 O   0  0  0  0  0  0  0  0  0  0  0  0
  183.8640  177.3990  139.4570 N   0  0  0  0  0  2  0  0  0  0  0  0
  182.6130  175.9720  134.6780 O   0  0  0  0  0  0  0  0  0  0  0  0
  182.5480  176.0680  137.7370 C   0  0  2  0  0  3  0  0  0  0  0  0
  182.4230  177.0760  135.5510 C   0  0  2  0  0  3  0  0  0  0  0  0
  181.3480  174.1920  135.6790 C   0  0  0  0  0  2  0  0  0  0  0  0
  180.5650  174.6780  136.9220 C   0  0  2  0  0  0  0  0  0  0  0  0
  183.3170  176.9350  136.7640 C   0  0  0  0  0  2  0  0  0  0  0  0
  180.3130  176.3650  134.9050 C   0  0  2  0  0  3  0  0  0  0  0  0
  181.0000  177.0430  136.0730 C   0  0  1  0  0  3  0  0  0  0  0  0
  181.0550  176.1140  137.3270 C   0  0  2  0  0  0  0  0  0  0  0  0
  180.7000  173.6700  138.0530 C   0  0  0  0  0  1  0  0  0  0  0  0
  178.9550  175.7530  135.3050 C   0  0  0  0  0  2  0  0  0  0  0  0
  179.1000  174.7640  136.4770 C   0  0  0  0  0  2  0  0  0  0  0  0
  181.3700  175.3060  134.5940 C   0  0  1  0  0  3  0  0  0  0  0  0
  180.1540  176.7230  138.4070 C   0  0  0  0  0  1  0  0  0  0  0  0
  190.3530  175.7010  144.4130 O   0  0  0  0  0  0  0  0  0  0  0  0
  190.3420  176.7290  145.0780 C   0  0  0  0  0  0  0  0  0  0  0  0
  191.2770  175.4550  146.8400 O   0  0  0  0  0  1  0  0  0  0  0  0
  191.0070  176.7610  146.4210 C   0  0  2  0  0  3  0  0  0  0  0  0
  190.1230  177.4500  147.4500 C   0  0  0  0  0  2  0  0  0  0  0  0
  188.6580  177.0720  147.2490 C   0  0  1  0  0  3  0  0  0  0  0  0
  188.3010  176.1030  148.1890 O   0  0  0  0  0  1  0  0  0  0  0  0
  187.7010  178.6820  148.7440 O   0  0  0  0  0  1  0  0  0  0  0  0
  187.7600  178.3010  147.4000 C   0  0  2  0  0  3  0  0  0  0  0  0
  185.4360  178.8300  147.5970 O   0  0  0  0  0  1  0  0  0  0  0  0
  186.3430  178.0090  146.9230 C   0  0  0  0  0  2  0  0  0  0  0  0
  187.9650  178.0740  136.8140 C   0  0  0  0  0  3  0  0  0  0  0  0
  188.0450  176.9920  136.2580 O   0  0  0  0  0  0  0  0  0  0  0  0
  1 54  1  6  0  0  0
  2  3  1  0  0  0  0
  3 16  2  0  0  0  0
  4 17  1  6  0  0  0
  4  1  1  0  0  0  0
  5 13  1  0  0  0  0
  5 14  1  1  0  0  0
  6  7  1  0  0  0  0
  7 12  2  0  0  0  0
  9 21  1  6  0  0  0
  9  4  1  0  0  0  0
 10 64  1  6  0  0  0
 10  8  1  0  0  0  0
 10  6  1  0  0  0  0
 11  9  1  0  0  0  0
 13  7  1  1  0  0  0
 13 11  1  0  0  0  0
 14 21  1  0  0  0  0
 15  1  1  0  0  0  0
 16 15  2  0  0  0  0
 18  3  1  0  0  0  0
 19  8  1  6  0  0  0
 19 20  1  0  0  0  0
 19 18  1  0  0  0  0
 20 34  1  1  0  0  0
 20  2  1  0  0  0  0
 22 28  1  1  0  0  0
 22  5  1  0  0  0  0
 23 27  1  0  0  0  0
 24 27  1  6  0  0  0
 24 22  1  0  0  0  0
 25 24  1  0  0  0  0
 26 25  1  0  0  0  0
 26 23  1  0  0  0  0
 29 28  1  0  0  0  0
 30 31  1  0  0  0  0
 31 25  1  0  0  0  0
 31 29  1  0  0  0  0
 32 26  1  0  0  0  0
 33 32  1  0  0  0  0
 34 37  2  0  0  0  0
 36 38  1  0  0  0  0
 36 35  2  0  0  0  0
 38 34  1  0  0  0  0
 39 41  1  0  0  0  0
 40 36  1  0  0  0  0
 41 46  1  0  0  0  0
 41 44  1  0  0  0  0
 42 43  1  0  0  0  0
 43 47  1  0  0  0  0
 43 48  1  0  0  0  0
 44 40  1  0  0  0  0
 45 49  1  0  0  0  0
 45 46  1  0  0  0  0
 46 47  1  0  0  0  0
 47 40  1  0  0  0  0
 47 52  1  0  0  0  0
 49 50  1  0  0  0  0
 50 43  1  0  0  0  0
 51 39  1  0  0  0  0
 51 45  1  0  0  0  0
 51 42  1  0  0  0  0
 53 54  2  0  0  0  0
 54 56  1  0  0  0  0
 56 55  1  0  0  0  0
 56 57  1  0  0  0  0
 58 61  1  0  0  0  0
 58 57  1  0  0  0  0
 58 59  1  0  0  0  0
 61 60  1  0  0  0  0
 63 61  1  0  0  0  0
 63 62  1  0  0  0  0
 65 64  2  0  0  0  0
M  END
>  <MODEL>
7

>  <REMARK>
 VINA RESULT:      -4.3      3.198     10.525
  Name = 
  11 active torsions:
  status: ('A' for Active; 'I' for Inactive)
    1  A    between atoms: N_2  and  C_17
    2  A    between atoms: C_3  and  C_35
    3  A    between atoms: C_6  and  C_9
    4  A    between atoms: C_9  and  C_52
    5  A    between atoms: C_10  and  C_58
    6  A    between atoms: C_15  and  C_28
    7  A    between atoms: C_29  and  C_32
    8  A    between atoms: C_40  and  C_53
    9  A    between atoms: C_43  and  C_53
   10  A    between atoms: C_43  and  C_65
   11  A    between atoms: C_52  and  C_65
                            x       y       z     vdW  Elec       q    Type
                         _______ _______ _______ _____ _____    ______ ____

>  <TORSDO>
F 11

$$$$
=
 OpenBabel11042410153D

 65 73  0  0  1  0  0  0  0  0999 V2000
  188.1600  177.8270  141.9650 C   0  0  1  0  0  3  0  0  0  0  0  0
  185.7700  178.4270  137.7440 C   0  0  0  0  0  2  0  0  0  0  0  0
  186.9760  178.6590  138.5910 C   0  0  0  0  0  0  0  0  0  0  0  0
  189.5170  178.3450  141.4570 C   0  0  1  0  0  3  0  0  0  0  0  0
  192.4310  176.1580  139.2430 C   0  0  2  0  0  3  0  0  0  0  0  0
  189.9060  175.8470  136.6030 O   0  0  0  0  0  0  0  0  0  0  0  0
  190.2950  175.7630  137.9440 C   0  0  0  0  0  0  0  0  0  0  0  0
  188.6900  177.6230  135.4750 C   0  0  0  0  0  2  0  0  0  0  0  0
  190.3630  177.3400  140.6620 C   0  0  1  0  0  3  0  0  0  0  0  0
  190.0580  177.0440  135.8420 C   0  0  2  0  0  3  0  0  0  0  0  0
  190.5220  177.7660  139.3200 O   0  0  0  0  0  0  0  0  0  0  0  0
  189.8880  174.7970  138.6420 O   0  0  0  0  0  0  0  0  0  0  0  0
  191.2090  176.7880  138.5510 C   0  0  1  0  0  3  0  0  0  0  0  0
  192.8810  177.0200  140.4250 C   0  0  0  0  0  2  0  0  0  0  0  0
  187.1380  177.4730  140.9110 C   0  0  0  0  0  3  0  0  0  0  0  0
  187.0380  178.1000  139.7670 C   0  0  0  0  0  0  0  0  0  0  0  0
  189.3900  179.5820  140.8130 O   0  0  0  0  0  1  0  0  0  0  0  0
  188.1920  178.5770  137.7600 C   0  0  0  0  0  2  0  0  0  0  0  0
  187.7720  177.6050  136.6870 C   0  0  1  0  0  3  0  0  0  0  0  0
  186.3210  177.9460  136.4020 C   0  0  1  0  0  3  0  0  0  0  0  0
  191.7150  177.2140  141.3870 C   0  0  0  0  0  2  0  0  0  0  0  0
  193.4990  175.8700  138.2700 N   0  0  2  0  0  0  0  0  0  0  0  0
  192.5740  172.7350  136.4930 C   0  0  0  0  0  2  0  0  0  0  0  0
  193.4680  174.4510  137.8920 C   0  0  2  0  0  3  0  0  0  0  0  0
  194.4530  174.2090  136.7830 C   0  0  2  0  0  3  0  0  0  0  0  0
  194.0900  172.8250  136.2870 C   0  0  2  0  0  3  0  0  0  0  0  0
  192.1650  173.9680  137.2930 C   0  0  0  0  0  2  0  0  0  0  0  0
  194.8190  176.1290  138.8770 C   0  0  0  0  0  2  0  0  0  0  0  0
  195.9620  175.8250  137.8910 C   0  0  0  0  0  2  0  0  0  0  0  0
  196.9060  174.2070  136.2660 C   0  0  0  0  0  1  0  0  0  0  0  0
  195.8590  174.3960  137.3480 C   0  0  2  0  0  3  0  0  0  0  0  0
  194.4240  172.6920  134.8110 C   0  0  0  0  0  2  0  0  0  0  0  0
  195.9780  171.7730  134.6000 S   0  0  0  0  0  1  0  0  0  0  0  0
  185.5640  176.7480  135.9260 C   0  0  0  0  0  0  0  0  0  0  0  0
  183.9210  174.4040  135.4060 O   0  0  0  0  0  0  0  0  0  0  0  0
  183.6120  175.1710  136.3560 C   0  0  0  0  0  0  0  0  0  0  0  0
  185.9660  176.0990  134.9210 O   0  0  0  0  0  0  0  0  0  0  0  0
  184.3930  176.3400  136.6410 N   0  0  0  0  0  2  0  0  0  0  0  0
  179.9830  173.3990  138.3690 O   0  0  0  0  0  0  0  0  0  0  0  0
  182.4200  174.8390  137.2030 C   0  0  2  0  0  3  0  0  0  0  0  0
  180.2130  173.8800  137.0530 C   0  0  2  0  0  3  0  0  0  0  0  0
  180.8740  175.1110  139.7980 C   0  0  0  0  0  2  0  0  0  0  0  0
  181.3630  176.3340  138.9860 C   0  0  2  0  0  0  0  0  0  0  0  0
  181.6570  173.6490  136.6630 C   0  0  0  0  0  2  0  0  0  0  0  0
  178.9930  175.5130  138.1570 C   0  0  2  0  0  3  0  0  0  0  0  0
  180.0130  175.3830  137.0430 C   0  0  1  0  0  3  0  0  0  0  0  0
  181.3970  175.9750  137.4580 C   0  0  2  0  0  0  0  0  0  0  0  0
  182.7120  176.8050  139.5090 C   0  0  0  0  0  1  0  0  0  0  0  0
  178.9310  176.9470  138.7230 C   0  0  0  0  0  2  0  0  0  0  0  0
  180.3100  177.4260  139.2130 C   0  0  0  0  0  2  0  0  0  0  0  0
  179.5960  174.5140  139.1440 C   0  0  1  0  0  3  0  0  0  0  0  0
  181.6560  177.2190  136.6010 C   0  0  0  0  0  1  0  0  0  0  0  0
  189.1120  175.7750  142.6830 O   0  0  0  0  0  0  0  0  0  0  0  0
  188.3460  176.6960  142.9390 C   0  0  0  0  0  0  0  0  0  0  0  0
  186.3290  177.1390  144.0940 O   0  0  0  0  0  1  0  0  0  0  0  0
  187.6600  176.7520  144.2700 C   0  0  2  0  0  3  0  0  0  0  0  0
  188.3540  177.7350  145.2000 C   0  0  0  0  0  2  0  0  0  0  0  0
  188.1570  177.3350  146.6600 C   0  0  1  0  0  3  0  0  0  0  0  0
  189.3120  176.6990  147.1210 O   0  0  0  0  0  1  0  0  0  0  0  0
  188.1230  178.2790  148.8620 O   0  0  0  0  0  1  0  0  0  0  0  0
  187.8600  178.5650  147.5190 C   0  0  2  0  0  3  0  0  0  0  0  0
  185.6070  177.8680  147.1250 O   0  0  0  0  0  1  0  0  0  0  0  0
  186.4010  178.9840  147.3970 C   0  0  0  0  0  2  0  0  0  0  0  0
  190.8350  176.7630  134.5990 C   0  0  0  0  0  3  0  0  0  0  0  0
  192.0110  176.4500  134.6670 O   0  0  0  0  0  0  0  0  0  0  0  0
  1 54  1  6  0  0  0
  2  3  1  0  0  0  0
  3 16  2  0  0  0  0
  4 17  1  6  0  0  0
  4  1  1  0  0  0  0
  5 14  1  1  0  0  0
  6  7  1  0  0  0  0
  7 12  2  0  0  0  0
  8 10  1  0  0  0  0
  9 21  1  1  0  0  0
  9  4  1  0  0  0  0
 10 64  1  6  0  0  0
 10  6  1  0  0  0  0
 11  9  1  0  0  0  0
 13  7  1  1  0  0  0
 13  5  1  0  0  0  0
 13 11  1  0  0  0  0
 14 21  1  0  0  0  0
 15  1  1  0  0  0  0
 16 15  2  0  0  0  0
 18  3  1  0  0  0  0
 19  8  1  6  0  0  0
 19 18  1  0  0  0  0
 20 34  1  1  0  0  0
 20 19  1  0  0  0  0
 20  2  1  0  0  0  0
 22 28  1  1  0  0  0
 22  5  1  0  0  0  0
 23 27  1  0  0  0  0
 24 27  1  6  0  0  0
 24 22  1  0  0  0  0
 25 31  1  0  0  0  0
 25 24  1  0  0  0  0
 26 23  1  0  0  0  0
 26 25  1  0  0  0  0
 29 28  1  0  0  0  0
 30 31  1  0  0  0  0
 31 29  1  0  0  0  0
 32 26  1  0  0  0  0
 33 32  1  0  0  0  0
 34 38  1  0  0  0  0
 35 36  2  0  0  0  0
 36 38  1  0  0  0  0
 36 40  1  0  0  0  0
 37 34  2  0  0  0  0
 39 51  1  0  0  0  0
 40 47  1  0  0  0  0
 41 39  1  0  0  0  0
 43 50  1  0  0  0  0
 43 48  1  0  0  0  0
 43 42  1  0  0  0  0
 44 41  1  0  0  0  0
 44 40  1  0  0  0  0
 45 49  1  0  0  0  0
 45 51  1  0  0  0  0
 46 41  1  0  0  0  0
 46 47  1  0  0  0  0
 46 45  1  0  0  0  0
 47 43  1  0  0  0  0
 49 50  1  0  0  0  0
 51 42  1  0  0  0  0
 52 47  1  0  0  0  0
 53 54  2  0  0  0  0
 54 56  1  0  0  0  0
 55 56  1  0  0  0  0
 56 57  1  0  0  0  0
 57 58  1  0  0  0  0
 58 59  1  0  0  0  0
 58 61  1  0  0  0  0
 61 60  1  0  0  0  0
 62 63  1  0  0  0  0
 63 61  1  0  0  0  0
 64 65  2  0  0  0  0
M  END
>  <MODEL>
8

>  <REMARK>
 VINA RESULT:      -4.2      3.242     10.561
  Name = 
  11 active torsions:
  status: ('A' for Active; 'I' for Inactive)
    1  A    between atoms: N_2  and  C_17
    2  A    between atoms: C_3  and  C_35
    3  A    between atoms: C_6  and  C_9
    4  A    between atoms: C_9  and  C_52
    5  A    between atoms: C_10  and  C_58
    6  A    between atoms: C_15  and  C_28
    7  A    between atoms: C_29  and  C_32
    8  A    between atoms: C_40  and  C_53
    9  A    between atoms: C_43  and  C_53
   10  A    between atoms: C_43  and  C_65
   11  A    between atoms: C_52  and  C_65
                            x       y       z     vdW  Elec       q    Type
                         _______ _______ _______ _____ _____    ______ ____

>  <TORSDO>
F 11

$$$$
=
 OpenBabel11042410153D

 65 73  0  0  1  0  0  0  0  0999 V2000
  188.6200  178.2590  141.8260 C   0  0  1  0  0  3  0  0  0  0  0  0
  185.9180  178.0390  137.7590 C   0  0  0  0  0  2  0  0  0  0  0  0
  187.1740  178.4410  138.4560 C   0  0  0  0  0  0  0  0  0  0  0  0
  189.9220  178.6970  141.1310 C   0  0  1  0  0  3  0  0  0  0  0  0
  192.7330  176.1860  139.1370 C   0  0  2  0  0  3  0  0  0  0  0  0
  190.0350  175.3580  136.7950 O   0  0  0  0  0  0  0  0  0  0  0  0
  190.5210  175.5270  138.0960 C   0  0  0  0  0  0  0  0  0  0  0  0
  188.6910  176.8790  135.4590 C   0  0  0  0  0  2  0  0  0  0  0  0
  190.7380  177.5750  140.4700 C   0  0  1  0  0  3  0  0  0  0  0  0
  190.0970  176.3980  135.8200 C   0  0  2  0  0  3  0  0  0  0  0  0
  190.7880  177.7510  139.0650 O   0  0  0  0  0  0  0  0  0  0  0  0
  190.1930  174.6990  138.9860 O   0  0  0  0  0  0  0  0  0  0  0  0
  191.4460  176.6600  138.4370 C   0  0  1  0  0  3  0  0  0  0  0  0
  193.2410  177.2570  140.1050 C   0  0  0  0  0  2  0  0  0  0  0  0
  187.5370  177.7030  140.9340 C   0  0  0  0  0  3  0  0  0  0  0  0
  187.3370  178.1070  139.7060 C   0  0  0  0  0  0  0  0  0  0  0  0
  189.7140  179.7920  140.2840 O   0  0  0  0  0  1  0  0  0  0  0  0
  188.3300  178.2270  137.5640 C   0  0  0  0  0  2  0  0  0  0  0  0
  187.8630  177.0690  136.7200 C   0  0  1  0  0  3  0  0  0  0  0  0
  186.3860  177.3290  136.4890 C   0  0  1  0  0  3  0  0  0  0  0  0
  192.1410  177.6050  141.1010 C   0  0  0  0  0  2  0  0  0  0  0  0
  193.7360  175.7410  138.1540 N   0  0  2  0  0  0  0  0  0  0  0  0
  196.9020  175.1030  140.0000 C   0  0  0  0  0  2  0  0  0  0  0  0
  195.0890  175.9370  138.6900 C   0  0  2  0  0  3  0  0  0  0  0  0
  196.0910  175.3330  137.7470 C   0  0  2  0  0  3  0  0  0  0  0  0
  197.3710  175.3180  138.5570 C   0  0  2  0  0  3  0  0  0  0  0  0
  195.3810  175.2230  139.9910 C   0  0  0  0  0  2  0  0  0  0  0  0
  193.6330  176.5520  136.9250 C   0  0  0  0  0  2  0  0  0  0  0  0
  194.6770  176.1240  135.8780 C   0  0  0  0  0  2  0  0  0  0  0  0
  197.0570  175.5750  135.4460 C   0  0  0  0  0  1  0  0  0  0  0  0
  196.0930  176.1590  136.4630 C   0  0  2  0  0  3  0  0  0  0  0  0
  198.2560  174.1640  138.1190 C   0  0  0  0  0  2  0  0  0  0  0  0
  197.2390  172.7170  137.6980 S   0  0  0  0  0  1  0  0  0  0  0  0
  185.6310  176.0530  136.2960 C   0  0  0  0  0  0  0  0  0  0  0  0
  183.9100  173.7080  136.2560 O   0  0  0  0  0  0  0  0  0  0  0  0
  183.4850  174.7710  136.7780 C   0  0  0  0  0  0  0  0  0  0  0  0
  186.1710  175.0780  135.7050 O   0  0  0  0  0  0  0  0  0  0  0  0
  184.3000  175.9520  136.8130 N   0  0  0  0  0  2  0  0  0  0  0  0
  179.1830  174.1340  137.9800 O   0  0  0  0  0  0  0  0  0  0  0  0
  182.1130  174.7890  137.3830 C   0  0  2  0  0  3  0  0  0  0  0  0
  179.7880  174.5880  136.7780 C   0  0  2  0  0  3  0  0  0  0  0  0
  180.2680  175.3960  139.7120 C   0  0  0  0  0  2  0  0  0  0  0  0
  181.2450  176.4430  139.1270 C   0  0  2  0  0  0  0  0  0  0  0  0
  181.1400  173.9320  136.6010 C   0  0  0  0  0  2  0  0  0  0  0  0
  178.9350  176.4610  137.8460 C   0  0  2  0  0  3  0  0  0  0  0  0
  180.0560  176.0750  136.9020 C   0  0  1  0  0  3  0  0  0  0  0  0
  181.4520  176.1750  137.5940 C   0  0  2  0  0  0  0  0  0  0  0  0
  182.5510  176.4340  139.9070 C   0  0  0  0  0  1  0  0  0  0  0  0
  179.2050  177.8070  138.5470 C   0  0  0  0  0  2  0  0  0  0  0  0
  180.5480  177.7980  139.3010 C   0  0  0  0  0  2  0  0  0  0  0  0
  179.0130  175.2700  138.8010 C   0  0  1  0  0  3  0  0  0  0  0  0
  182.2290  177.3170  136.9300 C   0  0  0  0  0  1  0  0  0  0  0  0
  188.9100  176.1160  142.8020 O   0  0  0  0  0  0  0  0  0  0  0  0
  188.9090  177.3290  142.9720 C   0  0  0  0  0  0  0  0  0  0  0  0
  190.6480  177.6730  144.5390 O   0  0  0  0  0  1  0  0  0  0  0  0
  189.2890  177.8990  144.3040 C   0  0  2  0  0  3  0  0  0  0  0  0
  188.4700  177.2680  145.4210 C   0  0  0  0  0  2  0  0  0  0  0  0
  187.8720  178.3390  146.3290 C   0  0  1  0  0  3  0  0  0  0  0  0
  186.5880  178.6580  145.8790 O   0  0  0  0  0  1  0  0  0  0  0  0
  186.8740  178.5960  148.4920 O   0  0  0  0  0  1  0  0  0  0  0  0
  187.8100  177.8450  147.7750 C   0  0  2  0  0  3  0  0  0  0  0  0
  190.1270  177.2530  147.7670 O   0  0  0  0  0  1  0  0  0  0  0  0
  189.1620  177.9830  148.4630 C   0  0  0  0  0  2  0  0  0  0  0  0
  190.7910  175.9060  134.5940 C   0  0  0  0  0  3  0  0  0  0  0  0
  191.5040  174.9180  134.6460 O   0  0  0  0  0  0  0  0  0  0  0  0
  1 54  1  1  0  0  0
  2  3  1  0  0  0  0
  3 16  2  0  0  0  0
  4 17  1  6  0  0  0
  4  1  1  0  0  0  0
  5 14  1  6  0  0  0
  6  7  1  0  0  0  0
  7 12  2  0  0  0  0
  8 10  1  0  0  0  0
  9 21  1  1  0  0  0
  9  4  1  0  0  0  0
 10 64  1  6  0  0  0
 10  6  1  0  0  0  0
 11  9  1  0  0  0  0
 13  7  1  1  0  0  0
 13 11  1  0  0  0  0
 13  5  1  0  0  0  0
 14 21  1  0  0  0  0
 15  1  1  0  0  0  0
 16 15  2  0  0  0  0
 18  3  1  0  0  0  0
 19  8  1  6  0  0  0
 19 18  1  0  0  0  0
 20 34  1  1  0  0  0
 20 19  1  0  0  0  0
 20  2  1  0  0  0  0
 22 28  1  6  0  0  0
 22 24  1  0  0  0  0
 22  5  1  0  0  0  0
 24 27  1  1  0  0  0
 25 26  1  0  0  0  0
 25 24  1  0  0  0  0
 26 23  1  0  0  0  0
 27 23  1  0  0  0  0
 29 31  1  0  0  0  0
 29 28  1  0  0  0  0
 30 31  1  0  0  0  0
 31 25  1  0  0  0  0
 32 26  1  0  0  0  0
 33 32  1  0  0  0  0
 34 38  1  0  0  0  0
 35 36  2  0  0  0  0
 36 38  1  0  0  0  0
 36 40  1  0  0  0  0
 37 34  2  0  0  0  0
 39 51  1  0  0  0  0
 40 47  1  0  0  0  0
 41 46  1  0  0  0  0
 41 39  1  0  0  0  0
 43 50  1  0  0  0  0
 43 42  1  0  0  0  0
 43 48  1  0  0  0  0
 44 41  1  0  0  0  0
 44 40  1  0  0  0  0
 45 49  1  0  0  0  0
 45 51  1  0  0  0  0
 46 47  1  0  0  0  0
 46 45  1  0  0  0  0
 47 43  1  0  0  0  0
 49 50  1  0  0  0  0
 51 42  1  0  0  0  0
 52 47  1  0  0  0  0
 53 54  2  0  0  0  0
 54 56  1  0  0  0  0
 56 55  1  0  0  0  0
 56 57  1  0  0  0  0
 57 58  1  0  0  0  0
 58 61  1  0  0  0  0
 59 58  1  0  0  0  0
 61 63  1  0  0  0  0
 61 60  1  0  0  0  0
 62 63  1  0  0  0  0
 64 65  2  0  0  0  0
M  END
>  <MODEL>
9

>  <REMARK>
 VINA RESULT:      -4.1      3.194     10.718
  Name = 
  11 active torsions:
  status: ('A' for Active; 'I' for Inactive)
    1  A    between atoms: N_2  and  C_17
    2  A    between atoms: C_3  and  C_35
    3  A    between atoms: C_6  and  C_9
    4  A    between atoms: C_9  and  C_52
    5  A    between atoms: C_10  and  C_58
    6  A    between atoms: C_15  and  C_28
    7  A    between atoms: C_29  and  C_32
    8  A    between atoms: C_40  and  C_53
    9  A    between atoms: C_43  and  C_53
   10  A    between atoms: C_43  and  C_65
   11  A    between atoms: C_52  and  C_65
                            x       y       z     vdW  Elec       q    Type
                         _______ _______ _______ _____ _____    ______ ____

>  <TORSDO>
F 11

$$$$
