=
 OpenBabel11042411533D

 35 38  0  0  1  0  0  0  0  0999 V2000
  180.0300  177.4730  141.3500 C   0  0  0  0  0  3  0  0  0  0  0  0
  181.7080  179.0130  142.2450 C   0  0  2  0  0  3  0  0  0  0  0  0
  181.0460  178.9710  143.5530 C   0  0  0  0  0  3  0  0  0  0  0  0
  182.1030  178.1910  140.1060 C   0  0  0  0  0  2  0  0  0  0  0  0
  183.2520  178.5170  140.6920 C   0  0  0  0  0  0  0  0  0  0  0  0
  179.5570  177.3400  142.5610 N   0  0  0  0  0  0  0  0  0  0  0  0
  179.9850  178.1640  143.6690 C   0  0  0  0  0  3  0  0  0  0  0  0
  180.9800  178.5920  141.0130 C   0  0  1  0  0  3  0  0  0  0  0  0
  183.0160  179.0290  142.0400 C   0  0  0  0  0  0  0  0  0  0  0  0
  185.5670  178.2270  144.7990 C   0  0  2  0  0  3  0  0  0  0  0  0
  185.3420  177.9800  143.0370 S   0  0  0  0  0  0  0  0  0  0  0  0
  184.5620  178.8410  145.4050 C   0  0  0  0  0  2  0  0  0  0  0  0
  183.4430  179.2120  144.5020 C   0  0  0  0  0  2  0  0  0  0  0  0
  184.0470  179.2540  143.1030 C   0  0  2  0  0  3  0  0  0  0  0  0
  187.9350  177.4620  144.7470 C   0  0  0  0  0  3  0  0  0  0  0  0
  186.8250  177.8790  145.4900 C   0  0  0  0  0  0  0  0  0  0  0  0
  188.1410  177.6640  147.5260 C   0  0  0  0  0  0  0  0  0  0  0  0
  186.9370  177.9770  146.8850 C   0  0  0  0  0  3  0  0  0  0  0  0
  188.2250  177.7620  148.9100 O   0  0  0  0  0  1  0  0  0  0  0  0
  189.1410  177.1540  145.3840 C   0  0  0  0  0  3  0  0  0  0  0  0
  189.2530  177.2580  146.7770 C   0  0  0  0  0  0  0  0  0  0  0  0
  190.4820  176.9420  147.4400 N   0  0  0  0  0  2  0  0  0  0  0  0
  191.6500  176.4270  146.7380 C   0  0  0  0  0  2  0  0  0  0  0  0
  192.5290  175.6650  147.7090 C   0  0  0  0  0  1  0  0  0  0  0  0
  184.5470  178.2550  140.1450 N   0  0  0  0  0  2  0  0  0  0  0  0
  184.9810  178.8070  138.8750 C   0  0  0  0  0  2  0  0  0  0  0  0
  185.5540  177.7000  138.0130 C   0  0  0  0  0  2  0  0  0  0  0  0
  186.6240  178.2720  137.1090 C   0  0  0  0  0  2  0  0  0  0  0  0
  188.2920  177.2220  138.6800 N   0  0  0  0  0  2  0  0  0  0  0  0
  187.9280  178.3050  137.8220 C   0  0  0  0  0  0  0  0  0  0  0  0
  188.6890  179.3000  137.6830 O   0  0  0  0  0  0  0  0  0  0  0  0
  189.5880  177.1470  139.3430 C   0  0  0  0  0  2  0  0  0  0  0  0
  189.4370  177.4120  140.8050 C   0  0  0  0  0  0  0  0  0  0  0  0
  188.5350  178.2250  141.2160 N   0  0  0  0  0  2  0  0  0  0  0  0
  190.2230  176.6230  141.7890 C   0  0  0  0  0  1  0  0  0  0  0  0
  1  6  2  0  0  0  0
  2  3  1  1  0  0  0
  3  7  2  0  0  0  0
  4  5  1  0  0  0  0
  5  9  2  0  0  0  0
  6  7  1  0  0  0  0
  8  4  1  6  0  0  0
  8  1  1  0  0  0  0
  8  2  1  0  0  0  0
  9  2  1  0  0  0  0
 10 12  1  0  0  0  0
 10 16  1  6  0  0  0
 11 14  1  0  0  0  0
 11 10  1  0  0  0  0
 13 12  1  0  0  0  0
 14  9  1  6  0  0  0
 14 13  1  0  0  0  0
 15 20  2  0  0  0  0
 15 16  1  0  0  0  0
 16 18  2  0  0  0  0
 17 19  1  0  0  0  0
 18 17  1  0  0  0  0
 20 21  1  0  0  0  0
 21 22  1  0  0  0  0
 21 17  2  0  0  0  0
 23 22  1  0  0  0  0
 23 24  1  0  0  0  0
 25  5  1  0  0  0  0
 26 25  1  0  0  0  0
 27 26  1  0  0  0  0
 28 30  1  0  0  0  0
 28 27  1  0  0  0  0
 29 32  1  0  0  0  0
 30 29  1  0  0  0  0
 31 30  2  0  0  0  0
 32 33  1  0  0  0  0
 33 34  2  0  0  0  0
 33 35  1  0  0  0  0
M  END
>  <MODEL>
1

>  <REMARK>
 VINA RESULT:      -8.9      0.000      0.000
  Name = 
  11 active torsions:
  status: ('A' for Active; 'I' for Inactive)
    1  A    between atoms: C_3  and  C_8
    2  A    between atoms: C_4  and  N_9
    3  A    between atoms: N_6  and  C_26
    4  A    between atoms: C_7  and  C_30
    5  A    between atoms: N_9  and  C_25
    6  A    between atoms: C_12  and  C_17
    7  A    between atoms: C_12  and  N_19
    8  A    between atoms: C_14  and  C_26
    9  A    between atoms: C_17  and  C_30
   10  A    between atoms: N_19  and  C_27
   11  A    between atoms: C_32  and  C_35
                            x       y       z     vdW  Elec       q    Type
                         _______ _______ _______ _____ _____    ______ ____

>  <TORSDO>
F 11

$$$$
=
 OpenBabel11042411533D

 35 38  0  0  1  0  0  0  0  0999 V2000
  190.1700  176.8500  147.6850 C   0  0  0  0  0  3  0  0  0  0  0  0
  189.7980  177.5900  145.3810 C   0  0  2  0  0  3  0  0  0  0  0  0
  191.0680  176.9740  144.9810 C   0  0  0  0  0  3  0  0  0  0  0  0
  188.0260  177.8880  146.8570 C   0  0  0  0  0  2  0  0  0  0  0  0
  187.5720  177.7750  145.6110 C   0  0  0  0  0  0  0  0  0  0  0  0
  191.2150  176.1860  147.2660 N   0  0  0  0  0  0  0  0  0  0  0  0
  191.7480  176.3170  145.9290 C   0  0  0  0  0  3  0  0  0  0  0  0
  189.5240  177.8960  146.8160 C   0  0  1  0  0  3  0  0  0  0  0  0
  188.6780  177.5810  144.6760 C   0  0  0  0  0  0  0  0  0  0  0  0
  189.4440  177.4050  140.9150 C   0  0  2  0  0  3  0  0  0  0  0  0
  190.2170  177.0060  142.4840 S   0  0  0  0  0  0  0  0  0  0  0  0
  188.2500  177.9700  141.0130 C   0  0  0  0  0  2  0  0  0  0  0  0
  187.7800  178.1590  142.4090 C   0  0  0  0  0  2  0  0  0  0  0  0
  188.5720  177.1580  143.2430 C   0  0  2  0  0  3  0  0  0  0  0  0
  189.2140  176.7210  138.5320 C   0  0  0  0  0  3  0  0  0  0  0  0
  190.0420  177.0220  139.6200 C   0  0  0  0  0  0  0  0  0  0  0  0
  191.9880  176.6260  138.2130 C   0  0  0  0  0  0  0  0  0  0  0  0
  191.4330  176.9710  139.4500 C   0  0  0  0  0  3  0  0  0  0  0  0
  193.3690  176.5750  138.0720 O   0  0  0  0  0  1  0  0  0  0  0  0
  189.7650  176.3830  137.2920 C   0  0  0  0  0  3  0  0  0  0  0  0
  191.1550  176.3370  137.1240 C   0  0  0  0  0  0  0  0  0  0  0  0
  191.7300  175.9880  135.8600 N   0  0  0  0  0  2  0  0  0  0  0  0
  191.3320  174.8050  135.1100 C   0  0  0  0  0  2  0  0  0  0  0  0
  191.9030  173.5680  135.7740 C   0  0  0  0  0  1  0  0  0  0  0  0
  186.1910  177.6950  145.2530 N   0  0  0  0  0  2  0  0  0  0  0  0
  185.1360  178.2270  146.0950 C   0  0  0  0  0  2  0  0  0  0  0  0
  183.9990  178.7270  145.2270 C   0  0  0  0  0  2  0  0  0  0  0  0
  184.5670  179.4630  144.0330 C   0  0  0  0  0  2  0  0  0  0  0  0
  184.6250  178.7050  141.6300 N   0  0  0  0  0  2  0  0  0  0  0  0
  183.8650  179.0390  142.7930 C   0  0  0  0  0  0  0  0  0  0  0  0
  182.6060  179.0010  142.7720 O   0  0  0  0  0  0  0  0  0  0  0  0
  184.0100  178.2000  140.4090 C   0  0  0  0  0  2  0  0  0  0  0  0
  184.5380  178.9380  139.2220 C   0  0  0  0  0  0  0  0  0  0  0  0
  184.2710  180.1830  139.0750 N   0  0  0  0  0  2  0  0  0  0  0  0
  185.4920  178.2740  138.2970 C   0  0  0  0  0  1  0  0  0  0  0  0
  2  3  1  1  0  0  0
  2  8  1  0  0  0  0
  3  7  2  0  0  0  0
  5  4  1  0  0  0  0
  6  1  2  0  0  0  0
  7  6  1  0  0  0  0
  8  4  1  6  0  0  0
  8  1  1  0  0  0  0
  9  2  1  0  0  0  0
  9  5  2  0  0  0  0
 10 16  1  6  0  0  0
 10 12  1  0  0  0  0
 10 11  1  0  0  0  0
 11 14  1  0  0  0  0
 12 13  1  0  0  0  0
 13 14  1  0  0  0  0
 14  9  1  1  0  0  0
 15 16  1  0  0  0  0
 17 18  1  0  0  0  0
 18 16  2  0  0  0  0
 19 17  1  0  0  0  0
 20 15  2  0  0  0  0
 21 20  1  0  0  0  0
 21 17  2  0  0  0  0
 22 21  1  0  0  0  0
 23 24  1  0  0  0  0
 23 22  1  0  0  0  0
 25  5  1  0  0  0  0
 25 26  1  0  0  0  0
 27 26  1  0  0  0  0
 28 27  1  0  0  0  0
 29 30  1  0  0  0  0
 30 28  1  0  0  0  0
 31 30  2  0  0  0  0
 32 29  1  0  0  0  0
 33 32  1  0  0  0  0
 34 33  2  0  0  0  0
 35 33  1  0  0  0  0
M  END
>  <MODEL>
2

>  <REMARK>
 VINA RESULT:      -8.7      2.827      8.430
  Name = 
  11 active torsions:
  status: ('A' for Active; 'I' for Inactive)
    1  A    between atoms: C_3  and  C_8
    2  A    between atoms: C_4  and  N_9
    3  A    between atoms: N_6  and  C_26
    4  A    between atoms: C_7  and  C_30
    5  A    between atoms: N_9  and  C_25
    6  A    between atoms: C_12  and  C_17
    7  A    between atoms: C_12  and  N_19
    8  A    between atoms: C_14  and  C_26
    9  A    between atoms: C_17  and  C_30
   10  A    between atoms: N_19  and  C_27
   11  A    between atoms: C_32  and  C_35
                            x       y       z     vdW  Elec       q    Type
                         _______ _______ _______ _____ _____    ______ ____

>  <TORSDO>
F 11

$$$$
=
 OpenBabel11042411533D

 35 38  0  0  1  0  0  0  0  0999 V2000
  189.8850  176.8940  147.4380 C   0  0  0  0  0  3  0  0  0  0  0  0
  189.8000  177.5420  145.0790 C   0  0  2  0  0  3  0  0  0  0  0  0
  191.1400  176.9800  144.8790 C   0  0  0  0  0  3  0  0  0  0  0  0
  187.8300  177.7950  146.2880 C   0  0  0  0  0  2  0  0  0  0  0  0
  187.5580  177.6210  144.9970 C   0  0  0  0  0  0  0  0  0  0  0  0
  191.0070  176.2710  147.1900 N   0  0  0  0  0  0  0  0  0  0  0  0
  191.7130  176.3880  145.9340 C   0  0  0  0  0  3  0  0  0  0  0  0
  189.3170  177.8780  146.4500 C   0  0  1  0  0  3  0  0  0  0  0  0
  188.7890  177.4550  144.2290 C   0  0  0  0  0  0  0  0  0  0  0  0
  190.0890  177.1840  140.6230 C   0  0  2  0  0  3  0  0  0  0  0  0
  190.6410  176.8630  142.2990 S   0  0  0  0  0  0  0  0  0  0  0  0
  188.8770  177.7110  140.5300 C   0  0  0  0  0  2  0  0  0  0  0  0
  188.2080  177.9280  141.8380 C   0  0  0  0  0  2  0  0  0  0  0  0
  188.9010  176.9830  142.8120 C   0  0  2  0  0  3  0  0  0  0  0  0
  192.2550  177.0290  139.4050 C   0  0  0  0  0  3  0  0  0  0  0  0
  190.8770  176.7810  139.4410 C   0  0  0  0  0  0  0  0  0  0  0  0
  191.0360  175.7370  137.2480 C   0  0  0  0  0  0  0  0  0  0  0  0
  190.2750  176.1330  138.3530 C   0  0  0  0  0  3  0  0  0  0  0  0
  190.4140  175.1040  136.1790 O   0  0  0  0  0  1  0  0  0  0  0  0
  193.0200  176.6300  138.3050 C   0  0  0  0  0  3  0  0  0  0  0  0
  192.4160  175.9780  137.2220 C   0  0  0  0  0  0  0  0  0  0  0  0
  193.1890  175.5680  136.0880 N   0  0  0  0  0  2  0  0  0  0  0  0
  194.2770  174.6040  136.1800 C   0  0  0  0  0  2  0  0  0  0  0  0
  193.7140  173.2300  136.4810 C   0  0  0  0  0  1  0  0  0  0  0  0
  186.2440  177.4590  144.4570 N   0  0  0  0  0  2  0  0  0  0  0  0
  185.2870  178.5490  144.3980 C   0  0  0  0  0  2  0  0  0  0  0  0
  184.4440  178.4140  143.1460 C   0  0  0  0  0  2  0  0  0  0  0  0
  185.0630  179.2330  142.0340 C   0  0  0  0  0  2  0  0  0  0  0  0
  185.4980  178.9390  139.5690 N   0  0  0  0  0  2  0  0  0  0  0  0
  184.6880  178.6630  140.7140 C   0  0  0  0  0  0  0  0  0  0  0  0
  183.6460  177.9630  140.6110 O   0  0  0  0  0  0  0  0  0  0  0  0
  185.2400  178.3450  138.2630 C   0  0  0  0  0  2  0  0  0  0  0  0
  186.5290  178.0090  137.5860 C   0  0  0  0  0  0  0  0  0  0  0  0
  187.4090  178.9220  137.4010 N   0  0  0  0  0  2  0  0  0  0  0  0
  186.8540  176.5950  137.2670 C   0  0  0  0  0  1  0  0  0  0  0  0
  2  3  1  1  0  0  0
  2  8  1  0  0  0  0
  3  7  2  0  0  0  0
  5  4  1  0  0  0  0
  6  1  2  0  0  0  0
  7  6  1  0  0  0  0
  8  4  1  6  0  0  0
  8  1  1  0  0  0  0
  9  5  2  0  0  0  0
  9  2  1  0  0  0  0
 10 16  1  6  0  0  0
 10 11  1  0  0  0  0
 11 14  1  0  0  0  0
 12 10  1  0  0  0  0
 12 13  1  0  0  0  0
 13 14  1  0  0  0  0
 14  9  1  1  0  0  0
 15 16  1  0  0  0  0
 17 18  1  0  0  0  0
 18 16  2  0  0  0  0
 19 17  1  0  0  0  0
 20 15  2  0  0  0  0
 21 17  2  0  0  0  0
 21 20  1  0  0  0  0
 22 23  1  0  0  0  0
 22 21  1  0  0  0  0
 23 24  1  0  0  0  0
 25  5  1  0  0  0  0
 26 25  1  0  0  0  0
 27 26  1  0  0  0  0
 28 27  1  0  0  0  0
 29 30  1  0  0  0  0
 30 28  1  0  0  0  0
 31 30  2  0  0  0  0
 32 29  1  0  0  0  0
 33 32  1  0  0  0  0
 34 33  2  0  0  0  0
 35 33  1  0  0  0  0
M  END
>  <MODEL>
3

>  <REMARK>
 VINA RESULT:      -8.6      3.047      8.185
  Name = 
  11 active torsions:
  status: ('A' for Active; 'I' for Inactive)
    1  A    between atoms: C_3  and  C_8
    2  A    between atoms: C_4  and  N_9
    3  A    between atoms: N_6  and  C_26
    4  A    between atoms: C_7  and  C_30
    5  A    between atoms: N_9  and  C_25
    6  A    between atoms: C_12  and  C_17
    7  A    between atoms: C_12  and  N_19
    8  A    between atoms: C_14  and  C_26
    9  A    between atoms: C_17  and  C_30
   10  A    between atoms: N_19  and  C_27
   11  A    between atoms: C_32  and  C_35
                            x       y       z     vdW  Elec       q    Type
                         _______ _______ _______ _____ _____    ______ ____

>  <TORSDO>
F 11

$$$$
=
 OpenBabel11042411533D

 35 38  0  0  1  0  0  0  0  0999 V2000
  190.2180  176.8370  147.3510 C   0  0  0  0  0  3  0  0  0  0  0  0
  189.6240  177.6610  145.1240 C   0  0  2  0  0  3  0  0  0  0  0  0
  190.8980  177.1580  144.6000 C   0  0  0  0  0  3  0  0  0  0  0  0
  187.9520  177.7590  146.7380 C   0  0  0  0  0  2  0  0  0  0  0  0
  187.4140  177.6760  145.5240 C   0  0  0  0  0  0  0  0  0  0  0  0
  191.2700  176.2700  146.8220 N   0  0  0  0  0  0  0  0  0  0  0  0
  191.6900  176.5050  145.4590 C   0  0  0  0  0  3  0  0  0  0  0  0
  189.4390  177.8760  146.5890 C   0  0  1  0  0  3  0  0  0  0  0  0
  188.4560  177.6080  144.5020 C   0  0  0  0  0  0  0  0  0  0  0  0
  189.1170  177.4700  140.7190 C   0  0  2  0  0  3  0  0  0  0  0  0
  189.8690  176.9290  142.2550 S   0  0  0  0  0  0  0  0  0  0  0  0
  188.0010  178.1700  140.8650 C   0  0  0  0  0  2  0  0  0  0  0  0
  187.5870  178.3660  142.2770 C   0  0  0  0  0  2  0  0  0  0  0  0
  188.2700  177.2500  143.0600 C   0  0  2  0  0  3  0  0  0  0  0  0
  190.9780  176.6760  139.2690 C   0  0  0  0  0  3  0  0  0  0  0  0
  189.6380  177.0630  139.3990 C   0  0  0  0  0  0  0  0  0  0  0  0
  189.3110  176.6310  137.0260 C   0  0  0  0  0  0  0  0  0  0  0  0
  188.8100  177.0380  138.2680 C   0  0  0  0  0  3  0  0  0  0  0  0
  188.4710  176.6220  135.9190 O   0  0  0  0  0  1  0  0  0  0  0  0
  191.4800  176.2630  138.0310 C   0  0  0  0  0  3  0  0  0  0  0  0
  190.6490  176.2330  136.9030 C   0  0  0  0  0  0  0  0  0  0  0  0
  191.1540  175.8160  135.6300 N   0  0  0  0  0  2  0  0  0  0  0  0
  191.5750  174.4490  135.3560 C   0  0  0  0  0  2  0  0  0  0  0  0
  190.3550  173.5750  135.1480 C   0  0  0  0  0  1  0  0  0  0  0  0
  186.0170  177.5150  145.2620 N   0  0  0  0  0  2  0  0  0  0  0  0
  185.0500  178.5630  145.5310 C   0  0  0  0  0  2  0  0  0  0  0  0
  184.6050  179.1870  144.2230 C   0  0  0  0  0  2  0  0  0  0  0  0
  183.1070  179.0280  144.0760 C   0  0  0  0  0  2  0  0  0  0  0  0
  183.7760  178.2670  141.7680 N   0  0  0  0  0  2  0  0  0  0  0  0
  182.7630  178.7390  142.6590 C   0  0  0  0  0  0  0  0  0  0  0  0
  181.5880  178.9380  142.2500 O   0  0  0  0  0  0  0  0  0  0  0  0
  183.4930  177.8820  140.3920 C   0  0  0  0  0  2  0  0  0  0  0  0
  184.3990  178.6130  139.4550 C   0  0  0  0  0  0  0  0  0  0  0  0
  184.8250  179.7820  139.7620 N   0  0  0  0  0  2  0  0  0  0  0  0
  184.9290  177.9280  138.2470 C   0  0  0  0  0  1  0  0  0  0  0  0
  2  3  1  1  0  0  0
  2  8  1  0  0  0  0
  3  7  2  0  0  0  0
  5  4  1  0  0  0  0
  6  1  2  0  0  0  0
  7  6  1  0  0  0  0
  8  4  1  6  0  0  0
  8  1  1  0  0  0  0
  9  2  1  0  0  0  0
  9  5  2  0  0  0  0
 10 16  1  6  0  0  0
 10 12  1  0  0  0  0
 10 11  1  0  0  0  0
 11 14  1  0  0  0  0
 12 13  1  0  0  0  0
 13 14  1  0  0  0  0
 14  9  1  1  0  0  0
 15 16  1  0  0  0  0
 17 18  1  0  0  0  0
 18 16  2  0  0  0  0
 19 17  1  0  0  0  0
 20 15  2  0  0  0  0
 21 17  2  0  0  0  0
 21 20  1  0  0  0  0
 22 21  1  0  0  0  0
 23 22  1  0  0  0  0
 24 23  1  0  0  0  0
 25  5  1  0  0  0  0
 25 26  1  0  0  0  0
 27 26  1  0  0  0  0
 28 27  1  0  0  0  0
 29 30  1  0  0  0  0
 30 28  1  0  0  0  0
 31 30  2  0  0  0  0
 32 29  1  0  0  0  0
 33 34  2  0  0  0  0
 33 32  1  0  0  0  0
 35 33  1  0  0  0  0
M  END
>  <MODEL>
4

>  <REMARK>
 VINA RESULT:      -8.5      2.731      8.469
  Name = 
  11 active torsions:
  status: ('A' for Active; 'I' for Inactive)
    1  A    between atoms: C_3  and  C_8
    2  A    between atoms: C_4  and  N_9
    3  A    between atoms: N_6  and  C_26
    4  A    between atoms: C_7  and  C_30
    5  A    between atoms: N_9  and  C_25
    6  A    between atoms: C_12  and  C_17
    7  A    between atoms: C_12  and  N_19
    8  A    between atoms: C_14  and  C_26
    9  A    between atoms: C_17  and  C_30
   10  A    between atoms: N_19  and  C_27
   11  A    between atoms: C_32  and  C_35
                            x       y       z     vdW  Elec       q    Type
                         _______ _______ _______ _____ _____    ______ ____

>  <TORSDO>
F 11

$$$$
=
 OpenBabel11042411533D

 35 38  0  0  1  0  0  0  0  0999 V2000
  190.1280  176.9010  147.6000 C   0  0  0  0  0  3  0  0  0  0  0  0
  189.7970  177.6300  145.2870 C   0  0  2  0  0  3  0  0  0  0  0  0
  191.0840  177.0310  144.9170 C   0  0  0  0  0  3  0  0  0  0  0  0
  187.9890  177.9070  146.7230 C   0  0  0  0  0  2  0  0  0  0  0  0
  187.5640  177.7860  145.4680 C   0  0  0  0  0  0  0  0  0  0  0  0
  191.1900  176.2500  147.2060 N   0  0  0  0  0  0  0  0  0  0  0  0
  191.7510  176.3860  145.8810 C   0  0  0  0  0  3  0  0  0  0  0  0
  189.4870  177.9360  146.7140 C   0  0  1  0  0  3  0  0  0  0  0  0
  188.6930  177.6060  144.5580 C   0  0  0  0  0  0  0  0  0  0  0  0
  189.5880  177.3830  140.8270 C   0  0  2  0  0  3  0  0  0  0  0  0
  190.2890  176.9670  142.4250 S   0  0  0  0  0  0  0  0  0  0  0  0
  188.4100  177.9890  140.8800 C   0  0  0  0  0  2  0  0  0  0  0  0
  187.8980  178.2010  142.2570 C   0  0  0  0  0  2  0  0  0  0  0  0
  188.6240  177.1790  143.1240 C   0  0  2  0  0  3  0  0  0  0  0  0
  189.4190  176.6500  138.4540 C   0  0  0  0  0  3  0  0  0  0  0  0
  190.2190  176.9730  139.5570 C   0  0  0  0  0  0  0  0  0  0  0  0
  192.2000  176.5470  138.2090 C   0  0  0  0  0  0  0  0  0  0  0  0
  191.6140  176.9180  139.4240 C   0  0  0  0  0  3  0  0  0  0  0  0
  193.5850  176.4930  138.1060 O   0  0  0  0  0  1  0  0  0  0  0  0
  190.0010  176.2860  137.2360 C   0  0  0  0  0  3  0  0  0  0  0  0
  191.3950  176.2360  137.1050 C   0  0  0  0  0  0  0  0  0  0  0  0
  192.0030  175.8610  135.8640 N   0  0  0  0  0  2  0  0  0  0  0  0
  192.4380  174.5020  135.5760 C   0  0  0  0  0  2  0  0  0  0  0  0
  193.5930  174.5360  134.5940 C   0  0  0  0  0  1  0  0  0  0  0  0
  186.1920  177.6860  145.0780 N   0  0  0  0  0  2  0  0  0  0  0  0
  185.1150  178.2430  145.8760 C   0  0  0  0  0  2  0  0  0  0  0  0
  184.1520  178.9900  144.9740 C   0  0  0  0  0  2  0  0  0  0  0  0
  184.6030  178.8510  143.5360 C   0  0  0  0  0  2  0  0  0  0  0  0
  182.1130  178.9620  143.1630 N   0  0  0  0  0  2  0  0  0  0  0  0
  183.4220  178.7190  142.6440 C   0  0  0  0  0  0  0  0  0  0  0  0
  183.5830  178.3690  141.4440 O   0  0  0  0  0  0  0  0  0  0  0  0
  180.9190  178.9350  142.3280 C   0  0  0  0  0  2  0  0  0  0  0  0
  179.8810  179.8560  142.8810 C   0  0  0  0  0  0  0  0  0  0  0  0
  179.5970  180.9430  142.2620 N   0  0  0  0  0  2  0  0  0  0  0  0
  179.0720  179.4450  144.0570 C   0  0  0  0  0  1  0  0  0  0  0  0
  2  3  1  1  0  0  0
  2  8  1  0  0  0  0
  3  7  2  0  0  0  0
  5  4  1  0  0  0  0
  6  1  2  0  0  0  0
  7  6  1  0  0  0  0
  8  4  1  6  0  0  0
  8  1  1  0  0  0  0
  9  2  1  0  0  0  0
  9  5  2  0  0  0  0
 10 16  1  6  0  0  0
 10 12  1  0  0  0  0
 10 11  1  0  0  0  0
 11 14  1  0  0  0  0
 12 13  1  0  0  0  0
 13 14  1  0  0  0  0
 14  9  1  1  0  0  0
 15 16  1  0  0  0  0
 17 18  1  0  0  0  0
 18 16  2  0  0  0  0
 19 17  1  0  0  0  0
 20 15  2  0  0  0  0
 21 20  1  0  0  0  0
 21 17  2  0  0  0  0
 22 21  1  0  0  0  0
 23 22  1  0  0  0  0
 24 23  1  0  0  0  0
 25  5  1  0  0  0  0
 25 26  1  0  0  0  0
 27 26  1  0  0  0  0
 28 27  1  0  0  0  0
 30 29  1  0  0  0  0
 30 28  1  0  0  0  0
 31 30  2  0  0  0  0
 32 33  1  0  0  0  0
 32 29  1  0  0  0  0
 33 35  1  0  0  0  0
 34 33  2  0  0  0  0
M  END
>  <MODEL>
5

>  <REMARK>
 VINA RESULT:      -8.3      2.917      8.951
  Name = 
  11 active torsions:
  status: ('A' for Active; 'I' for Inactive)
    1  A    between atoms: C_3  and  C_8
    2  A    between atoms: C_4  and  N_9
    3  A    between atoms: N_6  and  C_26
    4  A    between atoms: C_7  and  C_30
    5  A    between atoms: N_9  and  C_25
    6  A    between atoms: C_12  and  C_17
    7  A    between atoms: C_12  and  N_19
    8  A    between atoms: C_14  and  C_26
    9  A    between atoms: C_17  and  C_30
   10  A    between atoms: N_19  and  C_27
   11  A    between atoms: C_32  and  C_35
                            x       y       z     vdW  Elec       q    Type
                         _______ _______ _______ _____ _____    ______ ____

>  <TORSDO>
F 11

$$$$
=
 OpenBabel11042411533D

 35 38  0  0  1  0  0  0  0  0999 V2000
  179.7360  179.8850  136.7070 C   0  0  0  0  0  3  0  0  0  0  0  0
  181.5820  180.3210  138.2540 C   0  0  2  0  0  3  0  0  0  0  0  0
  180.8000  181.3900  138.8820 C   0  0  0  0  0  3  0  0  0  0  0  0
  181.7880  178.4340  136.9100 C   0  0  0  0  0  2  0  0  0  0  0  0
  182.4860  178.2770  138.0320 C   0  0  0  0  0  0  0  0  0  0  0  0
  179.0130  180.7370  137.3850 N   0  0  0  0  0  0  0  0  0  0  0  0
  179.5590  181.5860  138.4200 C   0  0  0  0  0  3  0  0  0  0  0  0
  181.2290  179.8240  136.8920 C   0  0  1  0  0  3  0  0  0  0  0  0
  182.3580  179.4550  138.8870 C   0  0  0  0  0  0  0  0  0  0  0  0
  183.9360  178.4970  142.2570 C   0  0  2  0  0  3  0  0  0  0  0  0
  184.4360  178.8860  140.5790 S   0  0  0  0  0  0  0  0  0  0  0  0
  182.6260  178.4860  142.4560 C   0  0  0  0  0  2  0  0  0  0  0  0
  181.8250  178.8050  141.2480 C   0  0  0  0  0  2  0  0  0  0  0  0
  182.7690  179.5650  140.3230 C   0  0  2  0  0  3  0  0  0  0  0  0
  186.1280  177.6730  143.1030 C   0  0  0  0  0  3  0  0  0  0  0  0
  184.9120  178.3220  143.3520 C   0  0  0  0  0  0  0  0  0  0  0  0
  185.5950  178.6570  145.6630 C   0  0  0  0  0  0  0  0  0  0  0  0
  184.6530  178.8110  144.6400 C   0  0  0  0  0  3  0  0  0  0  0  0
  185.3110  179.1450  146.9330 O   0  0  0  0  0  1  0  0  0  0  0  0
  187.0730  177.5230  144.1210 C   0  0  0  0  0  3  0  0  0  0  0  0
  186.8150  178.0180  145.4070 C   0  0  0  0  0  0  0  0  0  0  0  0
  187.7750  177.8660  146.4580 N   0  0  0  0  0  2  0  0  0  0  0  0
  189.2110  177.8450  146.2210 C   0  0  0  0  0  2  0  0  0  0  0  0
  189.8530  176.7850  147.0930 C   0  0  0  0  0  1  0  0  0  0  0  0
  183.1390  177.0660  138.4220 N   0  0  0  0  0  2  0  0  0  0  0  0
  183.4770  176.0230  137.4700 C   0  0  0  0  0  2  0  0  0  0  0  0
  184.9810  175.9680  137.2940 C   0  0  0  0  0  2  0  0  0  0  0  0
  185.4350  177.1630  136.4830 C   0  0  0  0  0  2  0  0  0  0  0  0
  187.3190  178.5930  137.3530 N   0  0  0  0  0  2  0  0  0  0  0  0
  186.8870  177.4000  136.6970 C   0  0  0  0  0  0  0  0  0  0  0  0
  187.7250  176.5590  136.2730 O   0  0  0  0  0  0  0  0  0  0  0  0
  188.7170  178.8520  137.6730 C   0  0  0  0  0  2  0  0  0  0  0  0
  189.0470  178.3100  139.0260 C   0  0  0  0  0  0  0  0  0  0  0  0
  188.2970  178.5940  140.0260 N   0  0  0  0  0  2  0  0  0  0  0  0
  190.1460  177.3240  139.1850 C   0  0  0  0  0  1  0  0  0  0  0  0
  1  6  2  0  0  0  0
  2  3  1  1  0  0  0
  2  9  1  0  0  0  0
  4  5  1  0  0  0  0
  5 25  1  0  0  0  0
  5  9  2  0  0  0  0
  6  7  1  0  0  0  0
  7  3  2  0  0  0  0
  8  1  1  1  0  0  0
  8  4  1  0  0  0  0
  8  2  1  0  0  0  0
 10 12  1  0  0  0  0
 10 16  1  1  0  0  0
 11 10  1  0  0  0  0
 13 12  1  0  0  0  0
 14  9  1  6  0  0  0
 14 11  1  0  0  0  0
 14 13  1  0  0  0  0
 15 16  2  0  0  0  0
 15 20  1  0  0  0  0
 16 18  1  0  0  0  0
 17 19  1  0  0  0  0
 18 17  2  0  0  0  0
 20 21  2  0  0  0  0
 21 17  1  0  0  0  0
 21 22  1  0  0  0  0
 23 22  1  0  0  0  0
 23 24  1  0  0  0  0
 26 25  1  0  0  0  0
 27 26  1  0  0  0  0
 28 30  1  0  0  0  0
 28 27  1  0  0  0  0
 29 32  1  0  0  0  0
 30 29  1  0  0  0  0
 31 30  2  0  0  0  0
 32 33  1  0  0  0  0
 33 35  1  0  0  0  0
 33 34  2  0  0  0  0
M  END
>  <MODEL>
6

>  <REMARK>
 VINA RESULT:      -7.8      2.473      3.400
  Name = 
  11 active torsions:
  status: ('A' for Active; 'I' for Inactive)
    1  A    between atoms: C_3  and  C_8
    2  A    between atoms: C_4  and  N_9
    3  A    between atoms: N_6  and  C_26
    4  A    between atoms: C_7  and  C_30
    5  A    between atoms: N_9  and  C_25
    6  A    between atoms: C_12  and  C_17
    7  A    between atoms: C_12  and  N_19
    8  A    between atoms: C_14  and  C_26
    9  A    between atoms: C_17  and  C_30
   10  A    between atoms: N_19  and  C_27
   11  A    between atoms: C_32  and  C_35
                            x       y       z     vdW  Elec       q    Type
                         _______ _______ _______ _____ _____    ______ ____

>  <TORSDO>
F 11

$$$$
=
 OpenBabel11042411533D

 35 38  0  0  1  0  0  0  0  0999 V2000
  187.4760  177.4770  147.9620 C   0  0  0  0  0  3  0  0  0  0  0  0
  188.1180  178.0480  145.6700 C   0  0  2  0  0  3  0  0  0  0  0  0
  189.4110  177.3850  145.8690 C   0  0  0  0  0  3  0  0  0  0  0  0
  185.9110  178.4830  146.2600 C   0  0  0  0  0  2  0  0  0  0  0  0
  186.0050  178.2840  144.9470 C   0  0  0  0  0  0  0  0  0  0  0  0
  188.5700  176.7680  148.0540 N   0  0  0  0  0  0  0  0  0  0  0  0
  189.6110  176.7900  147.0520 C   0  0  0  0  0  3  0  0  0  0  0  0
  187.2920  178.4650  146.8400 C   0  0  1  0  0  3  0  0  0  0  0  0
  187.3870  178.0040  144.5670 C   0  0  0  0  0  0  0  0  0  0  0  0
  189.4850  177.7010  141.3610 C   0  0  2  0  0  3  0  0  0  0  0  0
  189.6750  177.5280  143.1360 S   0  0  0  0  0  0  0  0  0  0  0  0
  188.2780  178.0820  140.9680 C   0  0  0  0  0  2  0  0  0  0  0  0
  187.3140  178.2880  142.0780 C   0  0  0  0  0  2  0  0  0  0  0  0
  187.8610  177.4770  143.2470 C   0  0  2  0  0  3  0  0  0  0  0  0
  190.2200  176.8560  139.1380 C   0  0  0  0  0  3  0  0  0  0  0  0
  190.5540  177.3290  140.4130 C   0  0  0  0  0  0  0  0  0  0  0  0
  192.9110  177.1240  139.8420 C   0  0  0  0  0  0  0  0  0  0  0  0
  191.9070  177.4600  140.7570 C   0  0  0  0  0  3  0  0  0  0  0  0
  194.2440  177.2550  140.2110 O   0  0  0  0  0  1  0  0  0  0  0  0
  191.2210  176.5260  138.2190 C   0  0  0  0  0  3  0  0  0  0  0  0
  192.5720  176.6610  138.5630 C   0  0  0  0  0  0  0  0  0  0  0  0
  193.6050  176.3220  137.6320 N   0  0  0  0  0  2  0  0  0  0  0  0
  193.9080  174.9500  137.2520 C   0  0  0  0  0  2  0  0  0  0  0  0
  195.1920  174.5090  137.9250 C   0  0  0  0  0  1  0  0  0  0  0  0
  184.8910  178.1990  144.0550 N   0  0  0  0  0  2  0  0  0  0  0  0
  183.7360  179.0700  144.1670 C   0  0  0  0  0  2  0  0  0  0  0  0
  182.6670  178.6210  143.1910 C   0  0  0  0  0  2  0  0  0  0  0  0
  181.3430  179.2420  143.5770 C   0  0  0  0  0  2  0  0  0  0  0  0
  180.5510  178.7250  141.2410 N   0  0  0  0  0  2  0  0  0  0  0  0
  180.5820  179.6170  142.3560 C   0  0  0  0  0  0  0  0  0  0  0  0
  179.9930  180.7300  142.3060 O   0  0  0  0  0  0  0  0  0  0  0  0
  179.7580  178.9870  140.0470 C   0  0  0  0  0  2  0  0  0  0  0  0
  180.6490  179.3470  138.9030 C   0  0  0  0  0  0  0  0  0  0  0  0
  180.1390  179.6180  137.7580 N   0  0  0  0  0  2  0  0  0  0  0  0
  182.1050  179.5400  139.1270 C   0  0  0  0  0  1  0  0  0  0  0  0
  1  6  2  0  0  0  0
  2  3  1  1  0  0  0
  2  8  1  0  0  0  0
  3  7  2  0  0  0  0
  5  4  1  0  0  0  0
  7  6  1  0  0  0  0
  8  4  1  6  0  0  0
  8  1  1  0  0  0  0
  9  5  2  0  0  0  0
  9  2  1  0  0  0  0
 10 16  1  6  0  0  0
 10 11  1  0  0  0  0
 11 14  1  0  0  0  0
 12 10  1  0  0  0  0
 12 13  1  0  0  0  0
 13 14  1  0  0  0  0
 14  9  1  1  0  0  0
 15 16  1  0  0  0  0
 16 18  2  0  0  0  0
 17 19  1  0  0  0  0
 17 18  1  0  0  0  0
 20 21  1  0  0  0  0
 20 15  2  0  0  0  0
 21 17  2  0  0  0  0
 22 21  1  0  0  0  0
 23 22  1  0  0  0  0
 23 24  1  0  0  0  0
 25 26  1  0  0  0  0
 25  5  1  0  0  0  0
 27 28  1  0  0  0  0
 27 26  1  0  0  0  0
 29 30  1  0  0  0  0
 30 28  1  0  0  0  0
 31 30  2  0  0  0  0
 32 29  1  0  0  0  0
 33 35  1  0  0  0  0
 33 32  1  0  0  0  0
 34 33  2  0  0  0  0
M  END
>  <MODEL>
7

>  <REMARK>
 VINA RESULT:      -7.7      3.259      8.054
  Name = 
  11 active torsions:
  status: ('A' for Active; 'I' for Inactive)
    1  A    between atoms: C_3  and  C_8
    2  A    between atoms: C_4  and  N_9
    3  A    between atoms: N_6  and  C_26
    4  A    between atoms: C_7  and  C_30
    5  A    between atoms: N_9  and  C_25
    6  A    between atoms: C_12  and  C_17
    7  A    between atoms: C_12  and  N_19
    8  A    between atoms: C_14  and  C_26
    9  A    between atoms: C_17  and  C_30
   10  A    between atoms: N_19  and  C_27
   11  A    between atoms: C_32  and  C_35
                            x       y       z     vdW  Elec       q    Type
                         _______ _______ _______ _____ _____    ______ ____

>  <TORSDO>
F 11

$$$$
=
 OpenBabel11042411533D

 35 38  0  0  1  0  0  0  0  0999 V2000
  187.3830  177.6120  147.9290 C   0  0  0  0  0  3  0  0  0  0  0  0
  187.6840  178.2100  145.5740 C   0  0  2  0  0  3  0  0  0  0  0  0
  189.0230  177.6110  145.5960 C   0  0  0  0  0  3  0  0  0  0  0  0
  185.5570  178.5360  146.4560 C   0  0  0  0  0  2  0  0  0  0  0  0
  185.4840  178.3400  145.1420 C   0  0  0  0  0  0  0  0  0  0  0  0
  188.5130  176.9570  147.8710 N   0  0  0  0  0  0  0  0  0  0  0  0
  189.4080  177.0290  146.7380 C   0  0  0  0  0  3  0  0  0  0  0  0
  187.0030  178.5870  146.8470 C   0  0  1  0  0  3  0  0  0  0  0  0
  186.8150  178.1280  144.5790 C   0  0  0  0  0  0  0  0  0  0  0  0
  188.5410  177.8670  141.1550 C   0  0  2  0  0  3  0  0  0  0  0  0
  188.9250  177.6560  142.8950 S   0  0  0  0  0  0  0  0  0  0  0  0
  187.3040  178.2690  140.9050 C   0  0  0  0  0  2  0  0  0  0  0  0
  186.4710  178.4620  142.1190 C   0  0  0  0  0  2  0  0  0  0  0  0
  187.1330  177.6220  143.2050 C   0  0  2  0  0  3  0  0  0  0  0  0
  190.7240  176.9210  140.4200 C   0  0  0  0  0  3  0  0  0  0  0  0
  189.4940  177.5030  140.0880 C   0  0  0  0  0  0  0  0  0  0  0  0
  190.0890  177.3460  137.7330 C   0  0  0  0  0  0  0  0  0  0  0  0
  189.1850  177.7130  138.7360 C   0  0  0  0  0  3  0  0  0  0  0  0
  189.7610  177.5720  136.4010 O   0  0  0  0  0  1  0  0  0  0  0  0
  191.6260  176.5470  139.4200 C   0  0  0  0  0  3  0  0  0  0  0  0
  191.3130  176.7530  138.0700 C   0  0  0  0  0  0  0  0  0  0  0  0
  192.2310  176.3780  137.0380 N   0  0  0  0  0  2  0  0  0  0  0  0
  193.4680  175.6570  137.3030 C   0  0  0  0  0  2  0  0  0  0  0  0
  193.6330  174.5430  136.2900 C   0  0  0  0  0  1  0  0  0  0  0  0
  184.2660  178.1980  144.4070 N   0  0  0  0  0  2  0  0  0  0  0  0
  183.2390  179.2230  144.3970 C   0  0  0  0  0  2  0  0  0  0  0  0
  181.9030  178.5970  144.0550 C   0  0  0  0  0  2  0  0  0  0  0  0
  181.2760  179.3490  142.9010 C   0  0  0  0  0  2  0  0  0  0  0  0
  182.5080  178.9500  140.7390 N   0  0  0  0  0  2  0  0  0  0  0  0
  181.4580  178.5870  141.6380 C   0  0  0  0  0  0  0  0  0  0  0  0
  180.6690  177.6450  141.3600 O   0  0  0  0  0  0  0  0  0  0  0  0
  182.7990  178.1950  139.5270 C   0  0  0  0  0  2  0  0  0  0  0  0
  183.9840  178.7780  138.8280 C   0  0  0  0  0  0  0  0  0  0  0  0
  184.5570  179.8210  139.3050 N   0  0  0  0  0  2  0  0  0  0  0  0
  184.5920  178.0650  137.6740 C   0  0  0  0  0  1  0  0  0  0  0  0
  2  3  1  1  0  0  0
  2  8  1  0  0  0  0
  3  7  2  0  0  0  0
  5  4  1  0  0  0  0
  6  1  2  0  0  0  0
  7  6  1  0  0  0  0
  8  4  1  6  0  0  0
  8  1  1  0  0  0  0
  9  5  2  0  0  0  0
  9  2  1  0  0  0  0
 10 16  1  6  0  0  0
 10 11  1  0  0  0  0
 11 14  1  0  0  0  0
 12 10  1  0  0  0  0
 12 13  1  0  0  0  0
 13 14  1  0  0  0  0
 14  9  1  1  0  0  0
 16 15  1  0  0  0  0
 17 21  2  0  0  0  0
 17 18  1  0  0  0  0
 18 16  2  0  0  0  0
 19 17  1  0  0  0  0
 20 15  2  0  0  0  0
 21 20  1  0  0  0  0
 22 23  1  0  0  0  0
 22 21  1  0  0  0  0
 24 23  1  0  0  0  0
 25  5  1  0  0  0  0
 26 25  1  0  0  0  0
 27 26  1  0  0  0  0
 28 27  1  0  0  0  0
 29 30  1  0  0  0  0
 30 28  1  0  0  0  0
 31 30  2  0  0  0  0
 32 29  1  0  0  0  0
 33 34  2  0  0  0  0
 33 32  1  0  0  0  0
 35 33  1  0  0  0  0
M  END
>  <MODEL>
8

>  <REMARK>
 VINA RESULT:      -7.7      2.661      7.625
  Name = 
  11 active torsions:
  status: ('A' for Active; 'I' for Inactive)
    1  A    between atoms: C_3  and  C_8
    2  A    between atoms: C_4  and  N_9
    3  A    between atoms: N_6  and  C_26
    4  A    between atoms: C_7  and  C_30
    5  A    between atoms: N_9  and  C_25
    6  A    between atoms: C_12  and  C_17
    7  A    between atoms: C_12  and  N_19
    8  A    between atoms: C_14  and  C_26
    9  A    between atoms: C_17  and  C_30
   10  A    between atoms: N_19  and  C_27
   11  A    between atoms: C_32  and  C_35
                            x       y       z     vdW  Elec       q    Type
                         _______ _______ _______ _____ _____    ______ ____

>  <TORSDO>
F 11

$$$$
=
 OpenBabel11042411533D

 35 38  0  0  1  0  0  0  0  0999 V2000
  189.8270  176.9120  147.3420 C   0  0  0  0  0  3  0  0  0  0  0  0
  189.6600  177.6260  145.0070 C   0  0  2  0  0  3  0  0  0  0  0  0
  191.0480  177.2080  144.7830 C   0  0  0  0  0  3  0  0  0  0  0  0
  187.6830  177.6380  146.2320 C   0  0  0  0  0  2  0  0  0  0  0  0
  187.4200  177.4810  144.9370 C   0  0  0  0  0  0  0  0  0  0  0  0
  191.0040  176.4150  147.0690 N   0  0  0  0  0  0  0  0  0  0  0  0
  191.6850  176.6430  145.8150 C   0  0  0  0  0  3  0  0  0  0  0  0
  189.1550  177.8660  146.3910 C   0  0  1  0  0  3  0  0  0  0  0  0
  188.6560  177.4650  144.1590 C   0  0  0  0  0  0  0  0  0  0  0  0
  190.1310  177.2420  140.6180 C   0  0  2  0  0  3  0  0  0  0  0  0
  190.5510  176.7850  142.3010 S   0  0  0  0  0  0  0  0  0  0  0  0
  188.9830  177.8910  140.4900 C   0  0  0  0  0  2  0  0  0  0  0  0
  188.2640  178.1100  141.7690 C   0  0  0  0  0  2  0  0  0  0  0  0
  188.8040  177.0540  142.7260 C   0  0  2  0  0  3  0  0  0  0  0  0
  192.3200  177.0770  139.4440 C   0  0  0  0  0  3  0  0  0  0  0  0
  190.9440  176.8190  139.4590 C   0  0  0  0  0  0  0  0  0  0  0  0
  191.1510  175.7310  137.2920 C   0  0  0  0  0  0  0  0  0  0  0  0
  190.3660  176.1440  138.3750 C   0  0  0  0  0  3  0  0  0  0  0  0
  190.5530  175.0710  136.2260 O   0  0  0  0  0  1  0  0  0  0  0  0
  193.1080  176.6610  138.3670 C   0  0  0  0  0  3  0  0  0  0  0  0
  192.5300  175.9820  137.2860 C   0  0  0  0  0  0  0  0  0  0  0  0
  193.3260  175.5540  136.1760 N   0  0  0  0  0  2  0  0  0  0  0  0
  194.3910  174.5680  136.3000 C   0  0  0  0  0  2  0  0  0  0  0  0
  195.7350  175.2540  136.1610 C   0  0  0  0  0  1  0  0  0  0  0  0
  186.1250  177.2050  144.3980 N   0  0  0  0  0  2  0  0  0  0  0  0
  185.2820  178.2410  143.8300 C   0  0  0  0  0  2  0  0  0  0  0  0
  184.2460  178.6660  144.8510 C   0  0  0  0  0  2  0  0  0  0  0  0
  183.3460  179.7200  144.2430 C   0  0  0  0  0  2  0  0  0  0  0  0
  182.1360  179.0080  142.1490 N   0  0  0  0  0  2  0  0  0  0  0  0
  182.1850  179.0740  143.5760 C   0  0  0  0  0  0  0  0  0  0  0  0
  181.2430  178.6130  144.2730 O   0  0  0  0  0  0  0  0  0  0  0  0
  181.0750  178.3160  141.4300 C   0  0  0  0  0  2  0  0  0  0  0  0
  180.5550  179.1750  140.3240 C   0  0  0  0  0  0  0  0  0  0  0  0
  180.4330  178.6900  139.1440 N   0  0  0  0  0  2  0  0  0  0  0  0
  180.0350  180.5350  140.6200 C   0  0  0  0  0  1  0  0  0  0  0  0
  2  3  1  1  0  0  0
  2  8  1  0  0  0  0
  3  7  2  0  0  0  0
  5  4  1  0  0  0  0
  6  1  2  0  0  0  0
  7  6  1  0  0  0  0
  8  4  1  6  0  0  0
  8  1  1  0  0  0  0
  9  5  2  0  0  0  0
  9  2  1  0  0  0  0
 10 16  1  6  0  0  0
 10 11  1  0  0  0  0
 11 14  1  0  0  0  0
 12 10  1  0  0  0  0
 12 13  1  0  0  0  0
 13 14  1  0  0  0  0
 14  9  1  1  0  0  0
 15 16  1  0  0  0  0
 17 18  1  0  0  0  0
 18 16  2  0  0  0  0
 19 17  1  0  0  0  0
 20 15  2  0  0  0  0
 21 17  2  0  0  0  0
 21 20  1  0  0  0  0
 22 23  1  0  0  0  0
 22 21  1  0  0  0  0
 24 23  1  0  0  0  0
 25  5  1  0  0  0  0
 26 25  1  0  0  0  0
 26 27  1  0  0  0  0
 28 27  1  0  0  0  0
 29 30  1  0  0  0  0
 30 28  1  0  0  0  0
 30 31  2  0  0  0  0
 32 29  1  0  0  0  0
 33 35  1  0  0  0  0
 33 32  1  0  0  0  0
 34 33  2  0  0  0  0
M  END
>  <MODEL>
9

>  <REMARK>
 VINA RESULT:      -7.6      3.223      8.940
  Name = 
  11 active torsions:
  status: ('A' for Active; 'I' for Inactive)
    1  A    between atoms: C_3  and  C_8
    2  A    between atoms: C_4  and  N_9
    3  A    between atoms: N_6  and  C_26
    4  A    between atoms: C_7  and  C_30
    5  A    between atoms: N_9  and  C_25
    6  A    between atoms: C_12  and  C_17
    7  A    between atoms: C_12  and  N_19
    8  A    between atoms: C_14  and  C_26
    9  A    between atoms: C_17  and  C_30
   10  A    between atoms: N_19  and  C_27
   11  A    between atoms: C_32  and  C_35
                            x       y       z     vdW  Elec       q    Type
                         _______ _______ _______ _____ _____    ______ ____

>  <TORSDO>
F 11

$$$$
