=
 OpenBabel11032420353D

 27 30  0  0  1  0  0  0  0  0999 V2000
  190.5310  176.9580  145.6950 C   0  0  1  0  0  0  0  0  0  0  0  0
  189.9700  177.7290  146.8840 C   0  0  0  0  0  2  0  0  0  0  0  0
  187.5800  177.5320  143.3090 C   0  0  0  0  0  3  0  0  0  0  0  0
  191.9310  177.0540  145.5960 O   0  0  0  0  0  0  0  0  0  0  0  0
  185.5470  178.2560  147.3210 Cl  0  0  0  0  0  0  0  0  0  0  0  0
  186.2310  177.8780  143.3750 C   0  0  0  0  0  3  0  0  0  0  0  0
  188.4900  177.4050  147.0200 C   0  0  0  0  0  2  0  0  0  0  0  0
  185.6290  178.1030  144.6120 C   0  0  0  0  0  3  0  0  0  0  0  0
  187.7320  177.6340  145.7370 C   0  0  0  0  0  0  0  0  0  0  0  0
  186.3680  177.9790  145.7910 C   0  0  0  0  0  0  0  0  0  0  0  0
  191.4100  175.7740  145.8860 C   0  0  1  0  0  3  0  0  0  0  0  0
  188.3440  177.4110  144.4760 C   0  0  0  0  0  0  0  0  0  0  0  0
  189.8120  177.0630  144.3450 C   0  0  1  0  0  3  0  0  0  0  0  0
  191.6790  175.4390  147.3440 C   0  0  0  0  0  2  0  0  0  0  0  0
  193.1800  176.0060  149.0300 C   0  0  0  0  0  1  0  0  0  0  0  0
  193.0880  175.6280  147.6320 N   0  0  0  0  0  2  0  0  0  0  0  0
  190.5100  177.9500  143.4050 N   0  0  0  0  0  0  0  0  0  0  0  0
  192.0880  177.5030  141.5430 C   0  0  0  0  0  3  0  0  0  0  0  0
  193.6520  177.0690  139.7230 N   0  0  0  0  0  1  0  0  0  0  0  0
  189.9870  177.0440  139.8010 C   0  0  0  0  0  0  0  0  0  0  0  0
  189.7170  177.3710  141.1310 C   0  0  0  0  0  3  0  0  0  0  0  0
  192.3200  177.1740  140.2070 C   0  0  0  0  0  0  0  0  0  0  0  0
  191.2730  176.9520  139.3690 N   0  0  0  0  0  0  0  0  0  0  0  0
  190.7750  177.6060  142.0240 C   0  0  0  0  0  0  0  0  0  0  0  0
  188.6680  176.7530  138.6880 Cl  0  0  0  0  0  0  0  0  0  0  0  0
  190.9380  179.1850  143.9220 C   0  0  0  0  0  0  0  0  0  0  0  0
  191.3050  180.2460  144.3650 C   0  0  0  0  0  3  0  0  0  0  0  0
  1 11  1  0  0  0  0
  1  2  1  1  0  0  0
  2  7  1  0  0  0  0
  3  6  2  0  0  0  0
  3 12  1  0  0  0  0
  4  1  1  0  0  0  0
  4 11  1  0  0  0  0
  6  8  1  0  0  0  0
  8 10  2  0  0  0  0
  9 10  1  0  0  0  0
  9  7  1  0  0  0  0
 10  5  1  0  0  0  0
 11 14  1  1  0  0  0
 12  9  2  0  0  0  0
 13 17  1  6  0  0  0
 13 12  1  0  0  0  0
 13  1  1  0  0  0  0
 14 16  1  0  0  0  0
 16 15  1  0  0  0  0
 17 26  1  0  0  0  0
 18 24  1  0  0  0  0
 19 22  1  0  0  0  0
 20 21  1  0  0  0  0
 21 24  2  0  0  0  0
 22 18  2  0  0  0  0
 23 20  2  0  0  0  0
 23 22  1  0  0  0  0
 24 17  1  0  0  0  0
 25 20  1  0  0  0  0
 26 27  3  0  0  0  0
M  END
>  <MODEL>
1

>  <REMARK>
 VINA RESULT:      -7.8      0.000      0.000
  Name = 
  5 active torsions:
  status: ('A' for Active; 'I' for Inactive)
    1  A    between atoms: C_13  and  N_27
    2  A    between atoms: C_18  and  N_27
    3  A    between atoms: N_21  and  C_25
    4  A    between atoms: C_23  and  C_25
    5  A    between atoms: C_26  and  N_27
                            x       y       z     vdW  Elec       q    Type
                         _______ _______ _______ _____ _____    ______ ____

>  <TORSDO>
F 5

$$$$
=
 OpenBabel11032420353D

 27 30  0  0  1  0  0  0  0  0999 V2000
  190.4090  177.0240  145.6890 C   0  0  1  0  0  0  0  0  0  0  0  0
  189.8560  177.8090  146.8720 C   0  0  0  0  0  2  0  0  0  0  0  0
  187.4280  177.5410  143.3270 C   0  0  0  0  0  3  0  0  0  0  0  0
  191.8080  177.1290  145.5720 O   0  0  0  0  0  0  0  0  0  0  0  0
  185.4340  178.3110  147.3500 Cl  0  0  0  0  0  0  0  0  0  0  0  0
  186.0770  177.8780  143.4030 C   0  0  0  0  0  3  0  0  0  0  0  0
  188.3800  177.4760  147.0300 C   0  0  0  0  0  2  0  0  0  0  0  0
  185.4870  178.1180  144.6430 C   0  0  0  0  0  3  0  0  0  0  0  0
  187.6060  177.6810  145.7520 C   0  0  0  0  0  0  0  0  0  0  0  0
  186.2400  178.0170  145.8160 C   0  0  0  0  0  0  0  0  0  0  0  0
  191.2990  175.8490  145.8870 C   0  0  1  0  0  3  0  0  0  0  0  0
  188.2060  177.4430  144.4880 C   0  0  0  0  0  0  0  0  0  0  0  0
  189.6750  177.1030  144.3450 C   0  0  1  0  0  3  0  0  0  0  0  0
  191.5860  175.5390  147.3470 C   0  0  0  0  0  2  0  0  0  0  0  0
  193.1780  176.0030  148.9820 C   0  0  0  0  0  1  0  0  0  0  0  0
  193.0140  175.6270  147.5890 N   0  0  0  0  0  2  0  0  0  0  0  0
  190.3560  177.9820  143.3850 N   0  0  0  0  0  0  0  0  0  0  0  0
  189.4220  177.5430  141.1280 C   0  0  0  0  0  3  0  0  0  0  0  0
  188.4870  177.1120  138.9170 N   0  0  0  0  0  1  0  0  0  0  0  0
  191.9580  177.1290  140.0990 C   0  0  0  0  0  0  0  0  0  0  0  0
  191.8080  177.4450  141.4510 C   0  0  0  0  0  3  0  0  0  0  0  0
  189.6090  177.2260  139.7820 C   0  0  0  0  0  0  0  0  0  0  0  0
  190.8640  177.0270  139.2980 N   0  0  0  0  0  0  0  0  0  0  0  0
  190.5260  177.6580  141.9840 C   0  0  0  0  0  0  0  0  0  0  0  0
  193.5550  176.8630  139.4360 Cl  0  0  0  0  0  0  0  0  0  0  0  0
  190.8660  179.1850  143.9000 C   0  0  0  0  0  0  0  0  0  0  0  0
  191.3050  180.2180  144.3430 C   0  0  0  0  0  3  0  0  0  0  0  0
  1 11  1  0  0  0  0
  1  2  1  1  0  0  0
  2  7  1  0  0  0  0
  3  6  2  0  0  0  0
  3 12  1  0  0  0  0
  4  1  1  0  0  0  0
  4 11  1  0  0  0  0
  6  8  1  0  0  0  0
  8 10  2  0  0  0  0
  9 10  1  0  0  0  0
  9  7  1  0  0  0  0
 10  5  1  0  0  0  0
 11 14  1  1  0  0  0
 12  9  2  0  0  0  0
 13 17  1  6  0  0  0
 13 12  1  0  0  0  0
 13  1  1  0  0  0  0
 14 16  1  0  0  0  0
 16 15  1  0  0  0  0
 17 26  1  0  0  0  0
 18 24  1  0  0  0  0
 19 22  1  0  0  0  0
 20 21  1  0  0  0  0
 21 24  2  0  0  0  0
 22 18  2  0  0  0  0
 23 22  1  0  0  0  0
 23 20  2  0  0  0  0
 24 17  1  0  0  0  0
 25 20  1  0  0  0  0
 26 27  3  0  0  0  0
M  END
>  <MODEL>
2

>  <REMARK>
 VINA RESULT:      -7.5      1.114      1.674
  Name = 
  5 active torsions:
  status: ('A' for Active; 'I' for Inactive)
    1  A    between atoms: C_13  and  N_27
    2  A    between atoms: C_18  and  N_27
    3  A    between atoms: N_21  and  C_25
    4  A    between atoms: C_23  and  C_25
    5  A    between atoms: C_26  and  N_27
                            x       y       z     vdW  Elec       q    Type
                         _______ _______ _______ _____ _____    ______ ____

>  <TORSDO>
F 5

$$$$
=
 OpenBabel11032420353D

 27 30  0  0  1  0  0  0  0  0999 V2000
  190.9650  176.4610  144.8180 C   0  0  1  0  0  0  0  0  0  0  0  0
  191.2340  177.0180  146.2100 C   0  0  0  0  0  2  0  0  0  0  0  0
  187.3350  177.6660  144.5040 C   0  0  0  0  0  3  0  0  0  0  0  0
  192.1040  176.4900  143.9910 O   0  0  0  0  0  0  0  0  0  0  0  0
  187.8310  177.7170  149.0320 Cl  0  0  0  0  0  0  0  0  0  0  0  0
  186.2910  178.0730  145.3340 C   0  0  0  0  0  3  0  0  0  0  0  0
  190.0130  176.7640  147.0800 C   0  0  0  0  0  2  0  0  0  0  0  0
  186.4650  178.0890  146.7170 C   0  0  0  0  0  3  0  0  0  0  0  0
  188.7440  177.2840  146.4540 C   0  0  0  0  0  0  0  0  0  0  0  0
  187.6800  177.6940  147.2810 C   0  0  0  0  0  0  0  0  0  0  0  0
  191.6180  175.2110  144.3450 C   0  0  1  0  0  3  0  0  0  0  0  0
  188.5660  177.2740  145.0460 C   0  0  0  0  0  0  0  0  0  0  0  0
  189.6750  176.8690  144.0980 C   0  0  1  0  0  3  0  0  0  0  0  0
  192.5520  174.5840  145.3670 C   0  0  0  0  0  2  0  0  0  0  0  0
  191.7180  172.5300  144.6540 C   0  0  0  0  0  1  0  0  0  0  0  0
  192.9440  173.2610  144.9180 N   0  0  0  0  0  2  0  0  0  0  0  0
  189.9090  177.8790  143.0570 N   0  0  0  0  0  0  0  0  0  0  0  0
  188.4010  178.2200  141.1160 C   0  0  0  0  0  3  0  0  0  0  0  0
  186.9060  178.5620  139.2190 N   0  0  0  0  0  1  0  0  0  0  0  0
  190.0880  176.7590  139.4790 C   0  0  0  0  0  0  0  0  0  0  0  0
  190.4230  176.9440  140.8210 C   0  0  0  0  0  3  0  0  0  0  0  0
  188.0970  178.0160  139.7700 C   0  0  0  0  0  0  0  0  0  0  0  0
  188.9410  177.2950  138.9830 N   0  0  0  0  0  0  0  0  0  0  0  0
  189.5760  177.6830  141.6610 C   0  0  0  0  0  0  0  0  0  0  0  0
  191.1440  175.8360  138.4330 Cl  0  0  0  0  0  0  0  0  0  0  0  0
  190.5040  179.0790  143.4810 C   0  0  0  0  0  0  0  0  0  0  0  0
  191.0160  180.1100  143.8440 C   0  0  0  0  0  3  0  0  0  0  0  0
  1  2  1  1  0  0  0
  2  7  1  0  0  0  0
  3 12  2  0  0  0  0
  3  6  1  0  0  0  0
  4 11  1  0  0  0  0
  4  1  1  0  0  0  0
  6  8  2  0  0  0  0
  8 10  1  0  0  0  0
  9  7  1  0  0  0  0
  9 10  2  0  0  0  0
 10  5  1  0  0  0  0
 11  1  1  0  0  0  0
 11 14  1  1  0  0  0
 12  9  1  0  0  0  0
 13 17  1  6  0  0  0
 13  1  1  0  0  0  0
 13 12  1  0  0  0  0
 15 16  1  0  0  0  0
 16 14  1  0  0  0  0
 17 26  1  0  0  0  0
 18 24  1  0  0  0  0
 19 22  1  0  0  0  0
 20 21  1  0  0  0  0
 21 24  2  0  0  0  0
 22 18  2  0  0  0  0
 23 20  2  0  0  0  0
 23 22  1  0  0  0  0
 24 17  1  0  0  0  0
 25 20  1  0  0  0  0
 26 27  3  0  0  0  0
M  END
>  <MODEL>
3

>  <REMARK>
 VINA RESULT:      -6.9      1.910      2.629
  Name = 
  5 active torsions:
  status: ('A' for Active; 'I' for Inactive)
    1  A    between atoms: C_13  and  N_27
    2  A    between atoms: C_18  and  N_27
    3  A    between atoms: N_21  and  C_25
    4  A    between atoms: C_23  and  C_25
    5  A    between atoms: C_26  and  N_27
                            x       y       z     vdW  Elec       q    Type
                         _______ _______ _______ _____ _____    ______ ____

>  <TORSDO>
F 5

$$$$
=
 OpenBabel11032420353D

 27 30  0  0  1  0  0  0  0  0999 V2000
  188.3100  175.8050  136.9340 C   0  0  1  0  0  0  0  0  0  0  0  0
  188.8170  175.9530  135.5050 C   0  0  0  0  0  2  0  0  0  0  0  0
  191.6340  176.5420  138.7070 C   0  0  0  0  0  3  0  0  0  0  0  0
  186.9790  176.2350  137.0860 O   0  0  0  0  0  0  0  0  0  0  0  0
  193.1510  175.3060  134.5940 Cl  0  0  0  0  0  0  0  0  0  0  0  0
  192.9980  176.5360  138.4200 C   0  0  0  0  0  3  0  0  0  0  0  0
  190.1810  175.2860  135.4010 C   0  0  0  0  0  2  0  0  0  0  0  0
  193.4420  176.1620  137.1520 C   0  0  0  0  0  3  0  0  0  0  0  0
  191.1470  175.7910  136.4420 C   0  0  0  0  0  0  0  0  0  0  0  0
  192.5280  175.7860  136.1650 C   0  0  0  0  0  0  0  0  0  0  0  0
  187.2180  174.8550  137.2740 C   0  0  1  0  0  3  0  0  0  0  0  0
  190.6970  176.1780  137.7310 C   0  0  0  0  0  0  0  0  0  0  0  0
  189.2270  176.2300  138.0880 C   0  0  1  0  0  3  0  0  0  0  0  0
  186.6830  174.0850  136.0780 C   0  0  0  0  0  2  0  0  0  0  0  0
  185.4360  172.9790  137.7050 C   0  0  0  0  0  1  0  0  0  0  0  0
  185.3590  173.5740  136.3830 N   0  0  0  0  0  2  0  0  0  0  0  0
  188.8410  177.5270  138.6610 N   0  0  0  0  0  0  0  0  0  0  0  0
  187.2200  178.4790  140.2810 C   0  0  0  0  0  3  0  0  0  0  0  0
  185.6210  179.4250  141.8610 N   0  0  0  0  0  1  0  0  0  0  0  0
  188.5120  177.2330  142.3890 C   0  0  0  0  0  0  0  0  0  0  0  0
  188.9950  177.0630  141.0900 C   0  0  0  0  0  3  0  0  0  0  0  0
  186.7650  178.6250  141.5920 C   0  0  0  0  0  0  0  0  0  0  0  0
  187.4140  178.0030  142.6120 N   0  0  0  0  0  0  0  0  0  0  0  0
  188.3480  177.6900  140.0130 C   0  0  0  0  0  0  0  0  0  0  0  0
  189.3190  176.4520  143.7300 Cl  0  0  0  0  0  0  0  0  0  0  0  0
  188.9620  178.6400  137.8120 C   0  0  0  0  0  0  0  0  0  0  0  0
  189.0640  179.5960  137.0830 C   0  0  0  0  0  3  0  0  0  0  0  0
  1  2  1  6  0  0  0
  1  4  1  0  0  0  0
  1 11  1  0  0  0  0
  1 13  1  0  0  0  0
  4 11  1  0  0  0  0
  5 10  1  0  0  0  0
  6  3  1  0  0  0  0
  7  2  1  0  0  0  0
  7  9  1  0  0  0  0
  8  6  2  0  0  0  0
  9 12  1  0  0  0  0
 10  9  2  0  0  0  0
 10  8  1  0  0  0  0
 11 14  1  6  0  0  0
 12 13  1  0  0  0  0
 12  3  2  0  0  0  0
 13 17  1  6  0  0  0
 14 16  1  0  0  0  0
 16 15  1  0  0  0  0
 17 24  1  0  0  0  0
 18 22  1  0  0  0  0
 20 23  1  0  0  0  0
 20 25  1  0  0  0  0
 21 20  2  0  0  0  0
 22 19  1  0  0  0  0
 22 23  2  0  0  0  0
 24 18  2  0  0  0  0
 24 21  1  0  0  0  0
 26 17  1  0  0  0  0
 27 26  3  0  0  0  0
M  END
>  <MODEL>
4

>  <REMARK>
 VINA RESULT:      -6.4      4.527      9.054
  Name = 
  5 active torsions:
  status: ('A' for Active; 'I' for Inactive)
    1  A    between atoms: C_13  and  N_27
    2  A    between atoms: C_18  and  N_27
    3  A    between atoms: N_21  and  C_25
    4  A    between atoms: C_23  and  C_25
    5  A    between atoms: C_26  and  N_27
                            x       y       z     vdW  Elec       q    Type
                         _______ _______ _______ _____ _____    ______ ____

>  <TORSDO>
F 5

$$$$
=
 OpenBabel11032420353D

 27 30  0  0  1  0  0  0  0  0999 V2000
  186.4220  177.4180  137.3980 C   0  0  1  0  0  0  0  0  0  0  0  0
  185.4910  177.3930  136.1930 C   0  0  0  0  0  2  0  0  0  0  0  0
  187.8800  173.8950  136.9590 C   0  0  0  0  0  3  0  0  0  0  0  0
  186.9540  178.6970  137.6490 O   0  0  0  0  0  0  0  0  0  0  0  0
  184.0080  173.4840  134.5950 Cl  0  0  0  0  0  0  0  0  0  0  0  0
  187.5550  172.6990  136.3210 C   0  0  0  0  0  3  0  0  0  0  0  0
  184.8200  176.0300  136.1240 C   0  0  0  0  0  2  0  0  0  0  0  0
  186.3690  172.5950  135.5950 C   0  0  0  0  0  3  0  0  0  0  0  0
  185.8170  174.8980  136.1430 C   0  0  0  0  0  0  0  0  0  0  0  0
  185.4970  173.6830  135.5070 C   0  0  0  0  0  0  0  0  0  0  0  0
  186.0760  178.1800  138.6280 C   0  0  1  0  0  3  0  0  0  0  0  0
  187.0280  175.0030  136.8760 C   0  0  0  0  0  0  0  0  0  0  0  0
  187.4440  176.2870  137.5630 C   0  0  1  0  0  3  0  0  0  0  0  0
  184.7440  178.9060  138.5430 C   0  0  0  0  0  2  0  0  0  0  0  0
  185.1580  179.0020  140.8330 C   0  0  0  0  0  1  0  0  0  0  0  0
  184.5650  179.7290  139.7250 N   0  0  0  0  0  2  0  0  0  0  0  0
  188.8030  176.7000  137.1880 N   0  0  0  0  0  0  0  0  0  0  0  0
  191.2200  176.6380  137.7470 C   0  0  0  0  0  3  0  0  0  0  0  0
  193.5990  176.5690  138.2810 N   0  0  0  0  0  1  0  0  0  0  0  0
  190.6830  177.3050  140.3790 C   0  0  0  0  0  0  0  0  0  0  0  0
  189.6280  177.1770  139.4740 C   0  0  0  0  0  3  0  0  0  0  0  0
  192.2490  176.7740  138.6790 C   0  0  0  0  0  0  0  0  0  0  0  0
  191.9630  177.1030  139.9670 N   0  0  0  0  0  0  0  0  0  0  0  0
  189.8880  176.8400  138.1360 C   0  0  0  0  0  0  0  0  0  0  0  0
  190.3580  177.7250  142.0460 Cl  0  0  0  0  0  0  0  0  0  0  0  0
  189.0120  176.9770  135.8260 C   0  0  0  0  0  0  0  0  0  0  0  0
  189.1910  177.2170  134.6570 C   0  0  0  0  0  3  0  0  0  0  0  0
  1  2  1  6  0  0  0
  1 13  1  0  0  0  0
  1  4  1  0  0  0  0
  1 11  1  0  0  0  0
  4 11  1  0  0  0  0
  5 10  1  0  0  0  0
  6  3  2  0  0  0  0
  7  9  1  0  0  0  0
  7  2  1  0  0  0  0
  8  6  1  0  0  0  0
  9 12  2  0  0  0  0
 10  8  2  0  0  0  0
 10  9  1  0  0  0  0
 11 14  1  6  0  0  0
 12  3  1  0  0  0  0
 12 13  1  0  0  0  0
 13 17  1  6  0  0  0
 14 16  1  0  0  0  0
 16 15  1  0  0  0  0
 17 24  1  0  0  0  0
 18 24  2  0  0  0  0
 18 22  1  0  0  0  0
 19 22  1  0  0  0  0
 20 25  1  0  0  0  0
 21 20  2  0  0  0  0
 22 23  2  0  0  0  0
 23 20  1  0  0  0  0
 24 21  1  0  0  0  0
 26 17  1  0  0  0  0
 27 26  3  0  0  0  0
M  END
>  <MODEL>
5

>  <REMARK>
 VINA RESULT:      -6.4      5.144      8.652
  Name = 
  5 active torsions:
  status: ('A' for Active; 'I' for Inactive)
    1  A    between atoms: C_13  and  N_27
    2  A    between atoms: C_18  and  N_27
    3  A    between atoms: N_21  and  C_25
    4  A    between atoms: C_23  and  C_25
    5  A    between atoms: C_26  and  N_27
                            x       y       z     vdW  Elec       q    Type
                         _______ _______ _______ _____ _____    ______ ____

>  <TORSDO>
F 5

$$$$
=
 OpenBabel11032420353D

 27 30  0  0  1  0  0  0  0  0999 V2000
  182.2060  176.9660  138.7850 C   0  0  1  0  0  0  0  0  0  0  0  0
  180.9320  176.7610  137.9760 C   0  0  0  0  0  2  0  0  0  0  0  0
  182.1250  180.8030  138.8540 C   0  0  0  0  0  3  0  0  0  0  0  0
  182.4150  175.9530  139.7390 O   0  0  0  0  0  0  0  0  0  0  0  0
  179.4780  179.9890  135.2370 Cl  0  0  0  0  0  0  0  0  0  0  0  0
  181.5430  181.8520  138.1430 C   0  0  0  0  0  3  0  0  0  0  0  0
  180.8980  177.7860  136.8520 C   0  0  0  0  0  2  0  0  0  0  0  0
  180.7300  181.5810  137.0430 C   0  0  0  0  0  3  0  0  0  0  0  0
  181.0750  179.1960  137.3560 C   0  0  0  0  0  0  0  0  0  0  0  0
  180.4960  180.2630  136.6430 C   0  0  0  0  0  0  0  0  0  0  0  0
  183.3500  176.0210  138.6810 C   0  0  1  0  0  3  0  0  0  0  0  0
  181.8980  179.4730  138.4780 C   0  0  0  0  0  0  0  0  0  0  0  0
  182.5300  178.3720  139.3040 C   0  0  1  0  0  3  0  0  0  0  0  0
  183.1060  174.8690  137.7200 C   0  0  0  0  0  2  0  0  0  0  0  0
  184.7370  173.2080  137.6910 C   0  0  0  0  0  1  0  0  0  0  0  0
  184.3600  174.4800  137.1020 N   0  0  0  0  0  2  0  0  0  0  0  0
  182.2440  178.5210  140.7370 N   0  0  0  0  0  0  0  0  0  0  0  0
  182.9440  178.8140  143.1000 C   0  0  0  0  0  3  0  0  0  0  0  0
  183.6150  179.1080  145.4260 N   0  0  0  0  0  1  0  0  0  0  0  0
  185.5980  178.4270  142.4190 C   0  0  0  0  0  0  0  0  0  0  0  0
  184.6190  178.3740  141.4240 C   0  0  0  0  0  3  0  0  0  0  0  0
  183.9480  178.8600  144.0670 C   0  0  0  0  0  0  0  0  0  0  0  0
  185.2460  178.6660  143.7100 N   0  0  0  0  0  0  0  0  0  0  0  0
  183.2690  178.5680  141.7580 C   0  0  0  0  0  0  0  0  0  0  0  0
  187.2800  178.1850  142.0010 Cl  0  0  0  0  0  0  0  0  0  0  0  0
  180.8860  178.6030  141.0920 C   0  0  0  0  0  0  0  0  0  0  0  0
  179.7210  178.6740  141.3950 C   0  0  0  0  0  3  0  0  0  0  0  0
  1  2  1  6  0  0  0
  1 13  1  0  0  0  0
  1  4  1  0  0  0  0
  5 10  1  0  0  0  0
  6  3  2  0  0  0  0
  7  9  1  0  0  0  0
  7  2  1  0  0  0  0
  8  6  1  0  0  0  0
  9 12  2  0  0  0  0
 10  8  2  0  0  0  0
 10  9  1  0  0  0  0
 11 14  1  6  0  0  0
 11  1  1  0  0  0  0
 11  4  1  0  0  0  0
 12  3  1  0  0  0  0
 12 13  1  0  0  0  0
 13 17  1  1  0  0  0
 16 15  1  0  0  0  0
 16 14  1  0  0  0  0
 17 26  1  0  0  0  0
 17 24  1  0  0  0  0
 18 22  1  0  0  0  0
 20 23  1  0  0  0  0
 21 24  1  0  0  0  0
 21 20  2  0  0  0  0
 22 19  1  0  0  0  0
 23 22  2  0  0  0  0
 24 18  2  0  0  0  0
 25 20  1  0  0  0  0
 26 27  3  0  0  0  0
M  END
>  <MODEL>
6

>  <REMARK>
 VINA RESULT:      -6.4      6.928     10.331
  Name = 
  5 active torsions:
  status: ('A' for Active; 'I' for Inactive)
    1  A    between atoms: C_13  and  N_27
    2  A    between atoms: C_18  and  N_27
    3  A    between atoms: N_21  and  C_25
    4  A    between atoms: C_23  and  C_25
    5  A    between atoms: C_26  and  N_27
                            x       y       z     vdW  Elec       q    Type
                         _______ _______ _______ _____ _____    ______ ____

>  <TORSDO>
F 5

$$$$
=
 OpenBabel11032420353D

 27 30  0  0  1  0  0  0  0  0999 V2000
  181.6070  179.4150  139.0660 C   0  0  1  0  0  0  0  0  0  0  0  0
  180.3040  179.0860  139.7830 C   0  0  0  0  0  2  0  0  0  0  0  0
  183.9810  178.5700  141.9610 C   0  0  0  0  0  3  0  0  0  0  0  0
  181.5610  179.1190  137.6910 O   0  0  0  0  0  0  0  0  0  0  0  0
  180.1050  179.2640  144.2510 Cl  0  0  0  0  0  0  0  0  0  0  0  0
  183.9340  178.4300  143.3470 C   0  0  0  0  0  3  0  0  0  0  0  0
  180.3830  179.6190  141.2060 C   0  0  0  0  0  2  0  0  0  0  0  0
  182.7370  178.6380  144.0290 C   0  0  0  0  0  3  0  0  0  0  0  0
  181.6130  179.1360  141.9320 C   0  0  0  0  0  0  0  0  0  0  0  0
  181.5790  178.9940  143.3330 C   0  0  0  0  0  0  0  0  0  0  0  0
  181.6750  180.4850  138.0350 C   0  0  1  0  0  3  0  0  0  0  0  0
  182.8320  178.9170  141.2390 C   0  0  0  0  0  0  0  0  0  0  0  0
  182.9330  179.0270  139.7320 C   0  0  1  0  0  3  0  0  0  0  0  0
  180.3460  181.1780  137.7850 C   0  0  0  0  0  2  0  0  0  0  0  0
  180.4310  181.9300  135.5830 C   0  0  0  0  0  1  0  0  0  0  0  0
  180.5600  182.3560  136.9640 N   0  0  0  0  0  2  0  0  0  0  0  0
  183.5340  177.8310  139.1290 N   0  0  0  0  0  0  0  0  0  0  0  0
  185.9780  178.2300  138.9620 C   0  0  0  0  0  3  0  0  0  0  0  0
  188.3790  178.6310  138.8140 N   0  0  0  0  0  1  0  0  0  0  0  0
  185.9660  177.5210  136.2860 C   0  0  0  0  0  0  0  0  0  0  0  0
  184.7720  177.4930  137.0100 C   0  0  0  0  0  3  0  0  0  0  0  0
  187.1520  178.2460  138.2080 C   0  0  0  0  0  0  0  0  0  0  0  0
  187.1230  177.8930  136.8950 N   0  0  0  0  0  0  0  0  0  0  0  0
  184.7660  177.8510  138.3680 C   0  0  0  0  0  0  0  0  0  0  0  0
  185.9730  177.0760  134.5940 Cl  0  0  0  0  0  0  0  0  0  0  0  0
  182.8360  176.6260  139.3130 C   0  0  0  0  0  0  0  0  0  0  0  0
  182.2360  175.5910  139.4730 C   0  0  0  0  0  3  0  0  0  0  0  0
  1 13  1  0  0  0  0
  1  2  1  1  0  0  0
  2  7  1  0  0  0  0
  3  6  1  0  0  0  0
  4 11  1  0  0  0  0
  4  1  1  0  0  0  0
  6  8  2  0  0  0  0
  7  9  1  0  0  0  0
  9 10  2  0  0  0  0
 10  8  1  0  0  0  0
 10  5  1  0  0  0  0
 11 14  1  1  0  0  0
 11  1  1  0  0  0  0
 12  9  1  0  0  0  0
 12  3  2  0  0  0  0
 13 17  1  6  0  0  0
 13 12  1  0  0  0  0
 15 16  1  0  0  0  0
 16 14  1  0  0  0  0
 17 26  1  0  0  0  0
 20 23  2  0  0  0  0
 20 21  1  0  0  0  0
 21 24  2  0  0  0  0
 22 19  1  0  0  0  0
 22 18  2  0  0  0  0
 23 22  1  0  0  0  0
 24 18  1  0  0  0  0
 24 17  1  0  0  0  0
 25 20  1  0  0  0  0
 26 27  3  0  0  0  0
M  END
>  <MODEL>
7

>  <REMARK>
 VINA RESULT:      -6.1      6.601      9.649
  Name = 
  5 active torsions:
  status: ('A' for Active; 'I' for Inactive)
    1  A    between atoms: C_13  and  N_27
    2  A    between atoms: C_18  and  N_27
    3  A    between atoms: N_21  and  C_25
    4  A    between atoms: C_23  and  C_25
    5  A    between atoms: C_26  and  N_27
                            x       y       z     vdW  Elec       q    Type
                         _______ _______ _______ _____ _____    ______ ____

>  <TORSDO>
F 5

$$$$
=
 OpenBabel11032420353D

 27 30  0  0  1  0  0  0  0  0999 V2000
  187.4060  177.8950  142.9330 C   0  0  1  0  0  0  0  0  0  0  0  0
  186.5940  177.2070  144.0240 C   0  0  0  0  0  2  0  0  0  0  0  0
  190.8040  177.7870  144.7140 C   0  0  0  0  0  3  0  0  0  0  0  0
  186.9440  177.5920  141.6390 O   0  0  0  0  0  0  0  0  0  0  0  0
  187.9960  177.3420  148.2730 Cl  0  0  0  0  0  0  0  0  0  0  0  0
  191.3050  177.6450  146.0070 C   0  0  0  0  0  3  0  0  0  0  0  0
  187.0390  177.7470  145.3750 C   0  0  0  0  0  2  0  0  0  0  0  0
  190.4300  177.5020  147.0820 C   0  0  0  0  0  3  0  0  0  0  0  0
  188.5300  177.6430  145.5720 C   0  0  0  0  0  0  0  0  0  0  0  0
  189.0480  177.5050  146.8750 C   0  0  0  0  0  0  0  0  0  0  0  0
  186.8010  178.9340  142.0580 C   0  0  1  0  0  3  0  0  0  0  0  0
  189.4240  177.7830  144.4790 C   0  0  0  0  0  0  0  0  0  0  0  0
  188.9340  177.9100  143.0510 C   0  0  1  0  0  3  0  0  0  0  0  0
  185.3370  179.2130  142.3600 C   0  0  0  0  0  2  0  0  0  0  0  0
  183.5680  178.3650  141.1060 C   0  0  0  0  0  1  0  0  0  0  0  0
  184.6080  179.3770  141.1160 N   0  0  0  0  0  2  0  0  0  0  0  0
  189.5750  176.9360  142.1580 N   0  0  0  0  0  0  0  0  0  0  0  0
  189.1320  178.1560  140.0430 C   0  0  0  0  0  3  0  0  0  0  0  0
  188.6810  179.3620  137.9710 N   0  0  0  0  0  1  0  0  0  0  0  0
  191.1170  176.7330  138.7420 C   0  0  0  0  0  0  0  0  0  0  0  0
  190.8600  176.4770  140.0900 C   0  0  0  0  0  3  0  0  0  0  0  0
  189.4160  178.3850  138.6960 C   0  0  0  0  0  0  0  0  0  0  0  0
  190.3960  177.6750  138.0770 N   0  0  0  0  0  0  0  0  0  0  0  0
  189.8550  177.1930  140.7610 C   0  0  0  0  0  0  0  0  0  0  0  0
  192.3680  175.8390  137.9070 Cl  0  0  0  0  0  0  0  0  0  0  0  0
  189.9030  175.6940  142.7290 C   0  0  0  0  0  0  0  0  0  0  0  0
  190.1860  174.6290  143.2180 C   0  0  0  0  0  3  0  0  0  0  0  0
  1 13  1  0  0  0  0
  1  2  1  1  0  0  0
  2  7  1  0  0  0  0
  3  6  1  0  0  0  0
  4 11  1  0  0  0  0
  4  1  1  0  0  0  0
  6  8  2  0  0  0  0
  7  9  1  0  0  0  0
  9 10  2  0  0  0  0
 10  8  1  0  0  0  0
 10  5  1  0  0  0  0
 11 14  1  1  0  0  0
 11  1  1  0  0  0  0
 12  3  2  0  0  0  0
 12  9  1  0  0  0  0
 13 17  1  6  0  0  0
 13 12  1  0  0  0  0
 15 16  1  0  0  0  0
 16 14  1  0  0  0  0
 17 26  1  0  0  0  0
 18 24  1  0  0  0  0
 19 22  1  0  0  0  0
 20 21  1  0  0  0  0
 21 24  2  0  0  0  0
 22 18  2  0  0  0  0
 23 22  1  0  0  0  0
 23 20  2  0  0  0  0
 24 17  1  0  0  0  0
 25 20  1  0  0  0  0
 26 27  3  0  0  0  0
M  END
>  <MODEL>
8

>  <REMARK>
 VINA RESULT:      -6.1      2.578      5.198
  Name = 
  5 active torsions:
  status: ('A' for Active; 'I' for Inactive)
    1  A    between atoms: C_13  and  N_27
    2  A    between atoms: C_18  and  N_27
    3  A    between atoms: N_21  and  C_25
    4  A    between atoms: C_23  and  C_25
    5  A    between atoms: C_26  and  N_27
                            x       y       z     vdW  Elec       q    Type
                         _______ _______ _______ _____ _____    ______ ____

>  <TORSDO>
F 5

$$$$
=
 OpenBabel11032420353D

 27 30  0  0  1  0  0  0  0  0999 V2000
  181.8520  179.1210  140.2500 C   0  0  1  0  0  0  0  0  0  0  0  0
  181.1590  178.7370  141.5510 C   0  0  0  0  0  2  0  0  0  0  0  0
  185.4380  178.3090  141.3520 C   0  0  0  0  0  3  0  0  0  0  0  0
  181.0680  178.8470  139.1130 O   0  0  0  0  0  0  0  0  0  0  0  0
  183.4300  178.8350  145.4070 Cl  0  0  0  0  0  0  0  0  0  0  0  0
  186.1580  178.1440  142.5340 C   0  0  0  0  0  3  0  0  0  0  0  0
  181.9920  179.2490  142.7160 C   0  0  0  0  0  2  0  0  0  0  0  0
  185.5240  178.3010  143.7650 C   0  0  0  0  0  3  0  0  0  0  0  0
  183.4280  178.7950  142.6370 C   0  0  0  0  0  0  0  0  0  0  0  0
  184.1670  178.6300  143.8250 C   0  0  0  0  0  0  0  0  0  0  0  0
  181.3250  180.2090  139.3840 C   0  0  1  0  0  3  0  0  0  0  0  0
  184.0750  178.6280  141.3860 C   0  0  0  0  0  0  0  0  0  0  0  0
  183.3330  178.7670  140.0720 C   0  0  1  0  0  3  0  0  0  0  0  0
  180.0630  180.8620  139.9220 C   0  0  0  0  0  2  0  0  0  0  0  0
  180.7220  182.0900  138.0560 C   0  0  0  0  0  1  0  0  0  0  0  0
  179.7640  182.0520  139.1460 N   0  0  0  0  0  2  0  0  0  0  0  0
  183.5300  177.6010  139.2000 N   0  0  0  0  0  0  0  0  0  0  0  0
  184.1350  176.9160  136.8930 C   0  0  0  0  0  3  0  0  0  0  0  0
  184.7150  176.2320  134.6250 N   0  0  0  0  0  1  0  0  0  0  0  0
  186.5790  178.2000  137.0940 C   0  0  0  0  0  0  0  0  0  0  0  0
  185.6960  178.2300  138.1750 C   0  0  0  0  0  3  0  0  0  0  0  0
  185.0410  176.9070  135.8320 C   0  0  0  0  0  0  0  0  0  0  0  0
  186.2360  177.5450  135.9520 N   0  0  0  0  0  0  0  0  0  0  0  0
  184.4530  177.5820  138.0850 C   0  0  0  0  0  0  0  0  0  0  0  0
  188.1270  179.0070  137.2080 Cl  0  0  0  0  0  0  0  0  0  0  0  0
  182.7490  176.4700  139.4920 C   0  0  0  0  0  0  0  0  0  0  0  0
  182.0780  175.5000  139.7430 C   0  0  0  0  0  3  0  0  0  0  0  0
  1  2  1  1  0  0  0
  2  7  1  0  0  0  0
  3 12  2  0  0  0  0
  3  6  1  0  0  0  0
  4 11  1  0  0  0  0
  4  1  1  0  0  0  0
  6  8  2  0  0  0  0
  8 10  1  0  0  0  0
  9  7  1  0  0  0  0
  9 10  2  0  0  0  0
 10  5  1  0  0  0  0
 11 14  1  1  0  0  0
 11  1  1  0  0  0  0
 12  9  1  0  0  0  0
 13 17  1  1  0  0  0
 13  1  1  0  0  0  0
 13 12  1  0  0  0  0
 15 16  1  0  0  0  0
 16 14  1  0  0  0  0
 17 26  1  0  0  0  0
 18 24  1  0  0  0  0
 19 22  1  0  0  0  0
 20 25  1  0  0  0  0
 20 21  1  0  0  0  0
 22 23  1  0  0  0  0
 22 18  2  0  0  0  0
 23 20  2  0  0  0  0
 24 21  2  0  0  0  0
 24 17  1  0  0  0  0
 26 27  3  0  0  0  0
M  END
>  <MODEL>
9

>  <REMARK>
 VINA RESULT:      -6.0      6.200      9.191
  Name = 
  5 active torsions:
  status: ('A' for Active; 'I' for Inactive)
    1  A    between atoms: C_13  and  N_27
    2  A    between atoms: C_18  and  N_27
    3  A    between atoms: N_21  and  C_25
    4  A    between atoms: C_23  and  C_25
    5  A    between atoms: C_26  and  N_27
                            x       y       z     vdW  Elec       q    Type
                         _______ _______ _______ _____ _____    ______ ____

>  <TORSDO>
F 5

$$$$
