=
 OpenBabel11032420333D

 53 59  0  0  1  0  0  0  0  0999 V2000
  184.0650  178.7550  139.9020 C   0  0  2  0  0  3  0  0  0  0  0  0
  182.7040  179.3740  139.7090 C   0  0  0  0  0  0  0  0  0  0  0  0
  180.1750  180.4460  139.2830 C   0  0  0  0  0  3  0  0  0  0  0  0
  182.5250  180.3700  138.7380 C   0  0  0  0  0  3  0  0  0  0  0  0
  181.6250  178.9270  140.4150 N   0  0  0  0  0  0  0  0  0  0  0  0
  181.2550  180.9200  138.5280 C   0  0  0  0  0  0  0  0  0  0  0  0
  180.3810  179.4390  140.2270 C   0  0  0  0  0  3  0  0  0  0  0  0
  180.0980  181.9210  136.4820 C   0  0  1  0  0  3  0  0  0  0  0  0
  181.0180  184.0070  136.4930 C   0  0  0  0  0  3  0  0  0  0  0  0
  181.6590  183.2620  137.6380 C   0  0  0  0  0  3  0  0  0  0  0  0
  181.0660  181.9610  137.5560 N   0  0  0  0  0  0  0  0  0  0  0  0
  179.9860  183.2170  135.9360 O   0  0  0  0  0  0  0  0  0  0  0  0
  180.5470  180.9980  135.4520 N   0  0  0  0  0  2  0  0  0  0  0  0
  179.4890  180.0110  135.2700 C   0  0  0  0  0  2  0  0  0  0  0  0
  180.3920  177.5280  137.2250 N   0  0  0  0  0  0  0  0  0  0  0  0
  180.2320  176.1570  137.6750 C   0  0  0  0  0  1  0  0  0  0  0  0
  179.4270  177.7470  136.2240 N   0  0  0  0  0  2  0  0  0  0  0  0
  181.6560  177.6160  136.6180 N   0  0  0  0  0  2  0  0  0  0  0  0
  181.5160  178.5890  135.5550 C   0  0  0  0  0  2  0  0  0  0  0  0
  180.0560  178.5940  135.2280 C   0  0  2  0  0  3  0  0  0  0  0  0
  184.7760  179.2650  141.1550 C   0  0  0  0  0  2  0  0  0  0  0  0
  185.9090  178.3690  143.2070 C   0  0  0  0  0  2  0  0  0  0  0  0
  184.6730  178.2670  142.2990 C   0  0  1  0  0  3  0  0  0  0  0  0
  185.4300  178.7510  144.6070 C   0  0  1  0  0  3  0  0  0  0  0  0
  183.1820  179.2470  145.3440 O   0  0  0  0  0  0  0  0  0  0  0  0
  183.9700  178.8910  144.4280 C   0  0  0  0  0  0  0  0  0  0  0  0
  183.5270  178.5990  143.1220 N   0  0  0  0  0  2  0  0  0  0  0  0
  185.7430  177.6200  145.5710 C   0  0  0  0  0  2  0  0  0  0  0  0
  187.0390  177.0430  145.2480 N   0  0  0  0  0  2  0  0  0  0  0  0
  188.0250  177.6770  146.1050 C   0  0  1  0  0  3  0  0  0  0  0  0
  188.3190  176.8350  147.1810 O   0  0  0  0  0  1  0  0  0  0  0  0
  190.5110  177.3070  145.9300 C   0  0  0  0  0  2  0  0  0  0  0  0
  189.2910  177.9980  145.3080 C   0  0  1  0  0  3  0  0  0  0  0  0
  191.7060  175.6880  144.4320 C   0  0  0  0  0  1  0  0  0  0  0  0
  191.6730  178.1180  143.8010 C   0  0  0  0  0  2  0  0  0  0  0  0
  191.6820  177.1110  144.9550 C   0  0  1  0  0  3  0  0  0  0  0  0
  189.1460  177.6470  143.8310 C   0  0  0  0  0  2  0  0  0  0  0  0
  190.3430  178.1660  143.0280 C   0  0  2  0  0  3  0  0  0  0  0  0
  191.7930  177.4310  141.2800 O   0  0  0  0  0  1  0  0  0  0  0  0
  190.4710  177.4040  141.7210 C   0  0  0  0  0  2  0  0  0  0  0  0
  184.9060  179.0090  138.7400 N   0  0  0  0  0  2  0  0  0  0  0  0
  185.2850  177.4170  137.0410 C   0  0  0  0  0  2  0  0  0  0  0  0
  186.6670  177.9620  137.2820 C   0  0  1  0  0  0  0  0  0  0  0  0
  187.0670  178.0770  138.7260 C   0  0  0  0  0  2  0  0  0  0  0  0
  185.6290  177.7840  138.4490 C   0  0  1  0  0  0  0  0  0  0  0  0
  187.5210  176.7950  136.8450 C   0  0  0  0  0  2  0  0  0  0  0  0
  188.6060  177.2750  135.8960 C   0  0  0  0  0  2  0  0  0  0  0  0
  189.9340  177.3690  136.6240 C   0  0  0  0  0  2  0  0  0  0  0  0
  190.8040  176.3810  136.1540 O   0  0  0  0  0  0  0  0  0  0  0  0
  191.5320  175.7290  137.5420 P   0  0  0  0  0  0  0  0  0  0  0  0
  192.6590  176.6390  137.9840 O   0  0  0  0  0  1  0  0  0  0  0  0
  190.3910  175.6080  138.7870 O   0  0  0  0  0  1  0  0  0  0  0  0
  192.1600  174.1960  137.2010 O   0  0  0  0  0  0  0  0  0  0  0  0
  1 21  1  1  0  0  0
  2  1  1  0  0  0  0
  2  5  1  0  0  0  0
  3  7  1  0  0  0  0
  4  2  2  0  0  0  0
  6  4  1  0  0  0  0
  6  3  2  0  0  0  0
  7  5  2  0  0  0  0
  8 13  1  6  0  0  0
  8 11  1  0  0  0  0
  9 10  2  0  0  0  0
 11 10  1  0  0  0  0
 11  6  1  0  0  0  0
 12  8  1  0  0  0  0
 12  9  1  0  0  0  0
 14 13  1  0  0  0  0
 15 16  1  0  0  0  0
 17 15  1  0  0  0  0
 18 15  1  0  0  0  0
 19 18  1  0  0  0  0
 20 14  1  1  0  0  0
 20 19  1  0  0  0  0
 20 17  1  0  0  0  0
 22 24  1  0  0  0  0
 23 21  1  6  0  0  0
 23 27  1  0  0  0  0
 23 22  1  0  0  0  0
 24 28  1  1  0  0  0
 26 24  1  0  0  0  0
 26 25  2  0  0  0  0
 27 26  1  0  0  0  0
 29 28  1  0  0  0  0
 29 30  1  0  0  0  0
 30 31  1  1  0  0  0
 33 32  1  0  0  0  0
 33 30  1  1  0  0  0
 35 36  1  0  0  0  0
 36 34  1  6  0  0  0
 36 32  1  0  0  0  0
 37 33  1  0  0  0  0
 38 40  1  6  0  0  0
 38 35  1  0  0  0  0
 38 37  1  0  0  0  0
 39 40  1  0  0  0  0
 41  1  1  0  0  0  0
 42 43  1  0  0  0  0
 42 45  1  0  0  0  0
 43 46  1  1  0  0  0
 43 45  1  0  0  0  0
 43 44  1  0  0  0  0
 45 44  1  0  0  0  0
 45 41  1  1  0  0  0
 47 48  1  0  0  0  0
 47 46  1  0  0  0  0
 49 48  1  0  0  0  0
 49 50  1  0  0  0  0
 50 51  1  0  0  0  0
 50 52  1  0  0  0  0
 53 50  2  0  0  0  0
M  END
>  <MODEL>
1

>  <REMARK>
 VINA RESULT:      -7.4      0.000      0.000
  Name = 
  19 active torsions:
  status: ('A' for Active; 'I' for Inactive)
    1  A    between atoms: C_1  and  C_19
    2  A    between atoms: C_2  and  C_40
    3  A    between atoms: C_2  and  C_45
    4  A    between atoms: C_7  and  C_11
    5  A    between atoms: C_8  and  N_16
    6  A    between atoms: C_11  and  N_48
    7  A    between atoms: O_15  and  P_21
    8  A    between atoms: O_15  and  C_22
    9  A    between atoms: N_16  and  C_53
   10  A    between atoms: C_17  and  C_52
   11  A    between atoms: C_19  and  N_25
   12  A    between atoms: C_19  and  C_52
   13  A    between atoms: C_22  and  C_45
   14  A    between atoms: N_25  and  C_47
   15  A    between atoms: N_29  and  C_30
   16  A    between atoms: C_32  and  C_49
   17  A    between atoms: C_35  and  C_44
   18  A    between atoms: C_46  and  C_53
   19  A    between atoms: N_48  and  C_49
                            x       y       z     vdW  Elec       q    Type
                         _______ _______ _______ _____ _____    ______ ____

>  <TORSDO>
F 19

$$$$
=
 OpenBabel11032420333D

 53 59  0  0  1  0  0  0  0  0999 V2000
  188.6810  175.9490  137.0830 C   0  0  2  0  0  3  0  0  0  0  0  0
  187.4090  175.1400  137.1020 C   0  0  0  0  0  0  0  0  0  0  0  0
  185.0740  173.6320  137.0370 C   0  0  0  0  0  3  0  0  0  0  0  0
  186.1800  175.7700  136.8620 C   0  0  0  0  0  3  0  0  0  0  0  0
  187.4430  173.7860  137.2760 N   0  0  0  0  0  0  0  0  0  0  0  0
  185.0010  175.0170  136.8380 C   0  0  0  0  0  0  0  0  0  0  0  0
  186.3150  173.0300  137.2530 C   0  0  0  0  0  3  0  0  0  0  0  0
  183.4830  177.0700  136.7970 C   0  0  1  0  0  3  0  0  0  0  0  0
  181.6120  176.1560  135.8680 C   0  0  0  0  0  3  0  0  0  0  0  0
  182.6020  175.0270  136.0090 C   0  0  0  0  0  3  0  0  0  0  0  0
  183.7330  175.6570  136.6220 N   0  0  0  0  0  0  0  0  0  0  0  0
  182.2390  177.3790  136.2070 O   0  0  0  0  0  0  0  0  0  0  0  0
  183.4370  177.3880  138.2160 N   0  0  0  0  0  2  0  0  0  0  0  0
  184.3310  178.5200  138.4300 C   0  0  0  0  0  2  0  0  0  0  0  0
  184.6620  178.6490  141.6980 N   0  0  0  0  0  0  0  0  0  0  0  0
  185.1090  179.3430  142.8920 C   0  0  0  0  0  1  0  0  0  0  0  0
  184.9960  179.4640  140.5990 N   0  0  0  0  0  2  0  0  0  0  0  0
  183.2600  178.5820  141.7620 N   0  0  0  0  0  2  0  0  0  0  0  0
  182.7990  178.6580  140.3920 C   0  0  0  0  0  2  0  0  0  0  0  0
  183.9070  179.3360  139.6490 C   0  0  2  0  0  3  0  0  0  0  0  0
  188.4380  177.4270  136.7820 C   0  0  0  0  0  2  0  0  0  0  0  0
  187.9110  177.7780  139.2100 C   0  0  0  0  0  2  0  0  0  0  0  0
  188.7070  178.2960  138.0020 C   0  0  1  0  0  3  0  0  0  0  0  0
  188.9100  177.3980  140.3020 C   0  0  1  0  0  3  0  0  0  0  0  0
  191.3250  177.4440  140.2120 O   0  0  0  0  0  0  0  0  0  0  0  0
  190.2140  177.6690  139.6620 C   0  0  0  0  0  0  0  0  0  0  0  0
  190.1090  178.1990  138.3600 N   0  0  0  0  0  2  0  0  0  0  0  0
  188.7080  178.3030  141.5050 C   0  0  0  0  0  2  0  0  0  0  0  0
  188.1770  177.5290  142.6170 N   0  0  0  0  0  2  0  0  0  0  0  0
  189.2370  177.3970  143.6030 C   0  0  1  0  0  3  0  0  0  0  0  0
  189.9680  178.5860  143.6620 O   0  0  0  0  0  1  0  0  0  0  0  0
  189.7460  177.0210  146.0410 C   0  0  0  0  0  2  0  0  0  0  0  0
  188.6470  177.0570  144.9720 C   0  0  1  0  0  3  0  0  0  0  0  0
  189.4650  178.6540  147.9240 C   0  0  0  0  0  1  0  0  0  0  0  0
  187.7590  176.8330  147.6410 C   0  0  0  0  0  2  0  0  0  0  0  0
  189.2310  177.2250  147.4740 C   0  0  1  0  0  3  0  0  0  0  0  0
  187.5190  178.0060  145.3660 C   0  0  0  0  0  2  0  0  0  0  0  0
  186.8160  177.5170  146.6370 C   0  0  2  0  0  3  0  0  0  0  0  0
  184.9900  179.0520  146.5340 O   0  0  0  0  0  1  0  0  0  0  0  0
  186.0840  178.6660  147.3070 C   0  0  0  0  0  2  0  0  0  0  0  0
  189.6090  175.4090  136.0990 N   0  0  0  0  0  2  0  0  0  0  0  0
  191.0220  173.5620  135.6990 C   0  0  0  0  0  2  0  0  0  0  0  0
  191.9470  174.5280  136.3870 C   0  0  1  0  0  0  0  0  0  0  0  0
  191.3900  175.1790  137.6220 C   0  0  0  0  0  2  0  0  0  0  0  0
  190.4270  174.4150  136.7730 C   0  0  1  0  0  0  0  0  0  0  0  0
  192.9540  173.5820  137.0000 C   0  0  0  0  0  2  0  0  0  0  0  0
  194.3570  174.1360  136.8230 C   0  0  0  0  0  2  0  0  0  0  0  0
  195.2340  173.7230  137.9920 C   0  0  0  0  0  2  0  0  0  0  0  0
  195.8610  174.8480  138.5360 O   0  0  0  0  0  0  0  0  0  0  0  0
  197.4560  174.7930  137.9590 P   0  0  0  0  0  0  0  0  0  0  0  0
  197.5390  175.5630  136.6580 O   0  0  0  0  0  0  0  0  0  0  0  0
  198.5020  175.4950  139.0910 O   0  0  0  0  0  1  0  0  0  0  0  0
  197.9180  173.1890  137.6830 O   0  0  0  0  0  1  0  0  0  0  0  0
  1 21  1  6  0  0  0
  1  2  1  0  0  0  0
  2  5  1  0  0  0  0
  3  7  1  0  0  0  0
  4  2  2  0  0  0  0
  6  4  1  0  0  0  0
  6  3  2  0  0  0  0
  7  5  2  0  0  0  0
  8 13  1  1  0  0  0
  9 10  2  0  0  0  0
  9 12  1  0  0  0  0
 10 11  1  0  0  0  0
 11  8  1  0  0  0  0
 11  6  1  0  0  0  0
 12  8  1  0  0  0  0
 13 14  1  0  0  0  0
 15 18  1  0  0  0  0
 15 16  1  0  0  0  0
 17 15  1  0  0  0  0
 19 18  1  0  0  0  0
 20 14  1  6  0  0  0
 20 19  1  0  0  0  0
 20 17  1  0  0  0  0
 22 24  1  0  0  0  0
 23 21  1  6  0  0  0
 23 27  1  0  0  0  0
 23 22  1  0  0  0  0
 24 28  1  1  0  0  0
 26 25  2  0  0  0  0
 26 24  1  0  0  0  0
 27 26  1  0  0  0  0
 28 29  1  0  0  0  0
 29 30  1  0  0  0  0
 30 31  1  1  0  0  0
 32 36  1  0  0  0  0
 33 30  1  6  0  0  0
 33 37  1  0  0  0  0
 33 32  1  0  0  0  0
 36 35  1  0  0  0  0
 36 34  1  6  0  0  0
 37 38  1  0  0  0  0
 38 40  1  1  0  0  0
 38 35  1  0  0  0  0
 39 40  1  0  0  0  0
 41  1  1  0  0  0  0
 42 43  1  0  0  0  0
 42 45  1  0  0  0  0
 43 45  1  0  0  0  0
 43 46  1  1  0  0  0
 43 44  1  0  0  0  0
 45 41  1  6  0  0  0
 45 44  1  0  0  0  0
 47 46  1  0  0  0  0
 47 48  1  0  0  0  0
 48 49  1  0  0  0  0
 50 49  1  0  0  0  0
 50 52  1  0  0  0  0
 51 50  2  0  0  0  0
 53 50  1  0  0  0  0
M  END
>  <MODEL>
2

>  <REMARK>
 VINA RESULT:      -7.0      3.336      6.340
  Name = 
  19 active torsions:
  status: ('A' for Active; 'I' for Inactive)
    1  A    between atoms: C_1  and  C_19
    2  A    between atoms: C_2  and  C_40
    3  A    between atoms: C_2  and  C_45
    4  A    between atoms: C_7  and  C_11
    5  A    between atoms: C_8  and  N_16
    6  A    between atoms: C_11  and  N_48
    7  A    between atoms: O_15  and  P_21
    8  A    between atoms: O_15  and  C_22
    9  A    between atoms: N_16  and  C_53
   10  A    between atoms: C_17  and  C_52
   11  A    between atoms: C_19  and  N_25
   12  A    between atoms: C_19  and  C_52
   13  A    between atoms: C_22  and  C_45
   14  A    between atoms: N_25  and  C_47
   15  A    between atoms: N_29  and  C_30
   16  A    between atoms: C_32  and  C_49
   17  A    between atoms: C_35  and  C_44
   18  A    between atoms: C_46  and  C_53
   19  A    between atoms: N_48  and  C_49
                            x       y       z     vdW  Elec       q    Type
                         _______ _______ _______ _____ _____    ______ ____

>  <TORSDO>
F 19

$$$$
=
 OpenBabel11032420333D

 53 59  0  0  1  0  0  0  0  0999 V2000
  188.2370  178.4930  140.6390 C   0  0  2  0  0  3  0  0  0  0  0  0
  188.5870  178.2390  139.1940 C   0  0  0  0  0  0  0  0  0  0  0  0
  189.1330  177.7760  136.5080 C   0  0  0  0  0  3  0  0  0  0  0  0
  188.6300  176.9250  138.7100 C   0  0  0  0  0  3  0  0  0  0  0  0
  188.7890  179.2770  138.3310 N   0  0  0  0  0  0  0  0  0  0  0  0
  188.9140  176.6860  137.3600 C   0  0  0  0  0  0  0  0  0  0  0  0
  189.0620  179.0750  137.0150 C   0  0  0  0  0  3  0  0  0  0  0  0
  190.0390  174.4010  137.1790 C   0  0  1  0  0  3  0  0  0  0  0  0
  188.4450  173.2710  136.0050 C   0  0  0  0  0  3  0  0  0  0  0  0
  187.9360  174.6830  136.1470 C   0  0  0  0  0  3  0  0  0  0  0  0
  188.9890  175.3410  136.8600 N   0  0  0  0  0  0  0  0  0  0  0  0
  189.6260  173.1150  136.7690 O   0  0  0  0  0  0  0  0  0  0  0  0
  191.2570  174.7660  136.4720 N   0  0  0  0  0  2  0  0  0  0  0  0
  192.3770  174.2750  137.2650 C   0  0  0  0  0  2  0  0  0  0  0  0
  194.7130  175.9320  135.6520 N   0  0  0  0  0  0  0  0  0  0  0  0
  195.2540  177.1840  135.1560 C   0  0  0  0  0  1  0  0  0  0  0  0
  193.5040  176.2380  136.3090 N   0  0  0  0  0  2  0  0  0  0  0  0
  195.6090  175.4530  136.6220 N   0  0  0  0  0  2  0  0  0  0  0  0
  194.7980  174.7630  137.6020 C   0  0  0  0  0  2  0  0  0  0  0  0
  193.4330  175.3600  137.4620 C   0  0  2  0  0  3  0  0  0  0  0  0
  188.1230  177.2070  141.4550 C   0  0  0  0  0  2  0  0  0  0  0  0
  189.6370  176.0510  143.0900 C   0  0  0  0  0  2  0  0  0  0  0  0
  188.8390  177.3300  142.7930 C   0  0  1  0  0  3  0  0  0  0  0  0
  191.1100  176.4370  143.2160 C   0  0  1  0  0  3  0  0  0  0  0  0
  192.1280  178.6070  142.9040 O   0  0  0  0  0  0  0  0  0  0  0  0
  191.0930  177.8900  142.9450 C   0  0  0  0  0  0  0  0  0  0  0  0
  189.8020  178.4110  142.7220 N   0  0  0  0  0  2  0  0  0  0  0  0
  191.5820  176.1640  144.6340 C   0  0  0  0  0  2  0  0  0  0  0  0
  191.1140  177.2210  145.5180 N   0  0  0  0  0  2  0  0  0  0  0  0
  190.7720  176.6060  146.7900 C   0  0  1  0  0  3  0  0  0  0  0  0
  191.5140  177.2040  147.8110 O   0  0  0  0  0  1  0  0  0  0  0  0
  189.0260  177.4870  148.3760 C   0  0  0  0  0  2  0  0  0  0  0  0
  189.2730  176.7440  147.0580 C   0  0  1  0  0  3  0  0  0  0  0  0
  187.7280  179.6250  148.1770 C   0  0  0  0  0  1  0  0  0  0  0  0
  186.5950  177.4650  147.5800 C   0  0  0  0  0  2  0  0  0  0  0  0
  187.6380  178.1410  148.4750 C   0  0  1  0  0  3  0  0  0  0  0  0
  188.5380  177.4110  145.8980 C   0  0  0  0  0  2  0  0  0  0  0  0
  187.0220  177.3480  146.1060 C   0  0  2  0  0  3  0  0  0  0  0  0
  185.1140  178.7620  145.8590 O   0  0  0  0  0  1  0  0  0  0  0  0
  186.3330  178.4170  145.2770 C   0  0  0  0  0  2  0  0  0  0  0  0
  186.9850  179.2310  140.7340 N   0  0  0  0  0  2  0  0  0  0  0  0
  185.0320  178.5110  141.8450 C   0  0  0  0  0  2  0  0  0  0  0  0
  184.4960  178.9500  140.5090 C   0  0  1  0  0  0  0  0  0  0  0  0
  185.2700  178.4600  139.3170 C   0  0  0  0  0  2  0  0  0  0  0  0
  185.9040  178.2640  140.6560 C   0  0  1  0  0  0  0  0  0  0  0  0
  183.2500  178.1010  140.4020 C   0  0  0  0  0  2  0  0  0  0  0  0
  182.1660  178.8680  139.6650 C   0  0  0  0  0  2  0  0  0  0  0  0
  181.2330  179.5380  140.6580 C   0  0  0  0  0  2  0  0  0  0  0  0
  180.5420  178.5680  141.3900 O   0  0  0  0  0  0  0  0  0  0  0  0
  180.4980  179.1570  142.9810 P   0  0  0  0  0  0  0  0  0  0  0  0
  180.1050  180.6190  142.9580 O   0  0  0  0  0  0  0  0  0  0  0  0
  179.3610  178.2880  143.8860 O   0  0  0  0  0  1  0  0  0  0  0  0
  182.0230  179.0060  143.6980 O   0  0  0  0  0  1  0  0  0  0  0  0
  1 41  1  0  0  0  0
  1 21  1  1  0  0  0
  2  1  1  0  0  0  0
  3  7  2  0  0  0  0
  3  6  1  0  0  0  0
  4  2  1  0  0  0  0
  5  2  2  0  0  0  0
  6  4  2  0  0  0  0
  7  5  1  0  0  0  0
  8 13  1  6  0  0  0
  9 10  2  0  0  0  0
  9 12  1  0  0  0  0
 10 11  1  0  0  0  0
 11  8  1  0  0  0  0
 11  6  1  0  0  0  0
 12  8  1  0  0  0  0
 13 14  1  0  0  0  0
 15 17  1  0  0  0  0
 15 18  1  0  0  0  0
 16 15  1  0  0  0  0
 17 20  1  0  0  0  0
 18 19  1  0  0  0  0
 20 14  1  6  0  0  0
 20 19  1  0  0  0  0
 22 24  1  0  0  0  0
 23 21  1  6  0  0  0
 23 22  1  0  0  0  0
 24 28  1  1  0  0  0
 25 26  2  0  0  0  0
 26 24  1  0  0  0  0
 27 23  1  0  0  0  0
 27 26  1  0  0  0  0
 28 29  1  0  0  0  0
 29 30  1  0  0  0  0
 30 31  1  1  0  0  0
 32 36  1  0  0  0  0
 33 30  1  6  0  0  0
 33 32  1  0  0  0  0
 35 36  1  0  0  0  0
 36 34  1  6  0  0  0
 37 38  1  0  0  0  0
 37 33  1  0  0  0  0
 38 40  1  6  0  0  0
 38 35  1  0  0  0  0
 40 39  1  0  0  0  0
 43 46  1  6  0  0  0
 43 45  1  0  0  0  0
 43 42  1  0  0  0  0
 44 43  1  0  0  0  0
 44 45  1  0  0  0  0
 45 41  1  1  0  0  0
 45 42  1  0  0  0  0
 47 46  1  0  0  0  0
 47 48  1  0  0  0  0
 48 49  1  0  0  0  0
 49 50  1  0  0  0  0
 50 53  1  0  0  0  0
 50 52  1  0  0  0  0
 51 50  2  0  0  0  0
M  END
>  <MODEL>
3

>  <REMARK>
 VINA RESULT:      -6.8      4.197      9.131
  Name = 
  19 active torsions:
  status: ('A' for Active; 'I' for Inactive)
    1  A    between atoms: C_1  and  C_19
    2  A    between atoms: C_2  and  C_40
    3  A    between atoms: C_2  and  C_45
    4  A    between atoms: C_7  and  C_11
    5  A    between atoms: C_8  and  N_16
    6  A    between atoms: C_11  and  N_48
    7  A    between atoms: O_15  and  P_21
    8  A    between atoms: O_15  and  C_22
    9  A    between atoms: N_16  and  C_53
   10  A    between atoms: C_17  and  C_52
   11  A    between atoms: C_19  and  N_25
   12  A    between atoms: C_19  and  C_52
   13  A    between atoms: C_22  and  C_45
   14  A    between atoms: N_25  and  C_47
   15  A    between atoms: N_29  and  C_30
   16  A    between atoms: C_32  and  C_49
   17  A    between atoms: C_35  and  C_44
   18  A    between atoms: C_46  and  C_53
   19  A    between atoms: N_48  and  C_49
                            x       y       z     vdW  Elec       q    Type
                         _______ _______ _______ _____ _____    ______ ____

>  <TORSDO>
F 19

$$$$
=
 OpenBabel11032420333D

 53 59  0  0  1  0  0  0  0  0999 V2000
  187.8700  176.5710  137.3310 C   0  0  2  0  0  3  0  0  0  0  0  0
  186.4360  176.1070  137.2820 C   0  0  0  0  0  0  0  0  0  0  0  0
  183.7960  175.2580  137.0920 C   0  0  0  0  0  3  0  0  0  0  0  0
  185.4000  177.0500  137.2950 C   0  0  0  0  0  3  0  0  0  0  0  0
  186.1330  174.7820  137.1510 N   0  0  0  0  0  0  0  0  0  0  0  0
  184.0680  176.6270  137.2090 C   0  0  0  0  0  0  0  0  0  0  0  0
  184.8500  174.3440  137.0620 C   0  0  0  0  0  3  0  0  0  0  0  0
  182.8180  178.5770  138.2860 C   0  0  1  0  0  3  0  0  0  0  0  0
  181.2870  179.0100  136.6530 C   0  0  0  0  0  3  0  0  0  0  0  0
  182.0820  177.8210  136.1740 C   0  0  0  0  0  3  0  0  0  0  0  0
  182.9970  177.5840  137.2500 N   0  0  0  0  0  0  0  0  0  0  0  0
  181.8650  179.5180  137.8400 O   0  0  0  0  0  0  0  0  0  0  0  0
  182.3360  177.9380  139.5000 N   0  0  0  0  0  2  0  0  0  0  0  0
  182.2650  178.9700  140.5270 C   0  0  0  0  0  2  0  0  0  0  0  0
  180.3710  178.3090  143.1320 N   0  0  0  0  0  0  0  0  0  0  0  0
  179.5400  178.7630  144.2320 C   0  0  0  0  0  1  0  0  0  0  0  0
  180.8310  179.4600  142.4620 N   0  0  0  0  0  2  0  0  0  0  0  0
  179.5340  177.6120  142.2450 N   0  0  0  0  0  2  0  0  0  0  0  0
  180.0700  177.8560  140.9220 C   0  0  0  0  0  2  0  0  0  0  0  0
  180.8390  179.1340  141.0480 C   0  0  2  0  0  3  0  0  0  0  0  0
  188.0010  178.0930  137.3200 C   0  0  0  0  0  2  0  0  0  0  0  0
  187.9800  177.9510  139.8250 C   0  0  0  0  0  2  0  0  0  0  0  0
  188.6400  178.6060  138.6020 C   0  0  1  0  0  3  0  0  0  0  0  0
  189.0600  177.1830  140.5850 C   0  0  1  0  0  3  0  0  0  0  0  0
  191.3860  176.8840  139.9990 O   0  0  0  0  0  0  0  0  0  0  0  0
  190.2620  177.3940  139.7510 C   0  0  0  0  0  0  0  0  0  0  0  0
  190.0370  178.2190  138.6300 N   0  0  0  0  0  2  0  0  0  0  0  0
  189.2490  177.8060  141.9580 C   0  0  0  0  0  2  0  0  0  0  0  0
  189.5700  176.7700  142.9270 N   0  0  0  0  0  2  0  0  0  0  0  0
  190.0170  177.4310  144.1410 C   0  0  1  0  0  3  0  0  0  0  0  0
  190.0600  178.8120  143.9310 O   0  0  0  0  0  1  0  0  0  0  0  0
  189.8770  176.9360  146.6070 C   0  0  0  0  0  2  0  0  0  0  0  0
  189.0830  177.0900  145.3040 C   0  0  1  0  0  3  0  0  0  0  0  0
  189.2430  178.5210  148.4440 C   0  0  0  0  0  1  0  0  0  0  0  0
  187.5470  176.8460  147.6580 C   0  0  0  0  0  2  0  0  0  0  0  0
  189.0360  177.1300  147.8780 C   0  0  1  0  0  3  0  0  0  0  0  0
  187.9570  178.1080  145.4570 C   0  0  0  0  0  2  0  0  0  0  0  0
  186.9290  177.6320  146.4890 C   0  0  2  0  0  3  0  0  0  0  0  0
  184.8100  178.7290  146.5730 O   0  0  0  0  0  1  0  0  0  0  0  0
  186.1300  178.8100  147.0160 C   0  0  0  0  0  2  0  0  0  0  0  0
  188.6180  176.0200  136.2090 N   0  0  0  0  0  2  0  0  0  0  0  0
  189.3270  173.7750  136.0550 C   0  0  0  0  0  2  0  0  0  0  0  0
  190.5650  174.5290  135.6510 C   0  0  1  0  0  0  0  0  0  0  0  0
  190.9250  175.6890  136.5370 C   0  0  0  0  0  2  0  0  0  0  0  0
  189.5790  175.0750  136.7480 C   0  0  1  0  0  0  0  0  0  0  0  0
  191.6440  173.5410  136.0290 C   0  0  0  0  0  2  0  0  0  0  0  0
  192.8620  173.7440  135.1440 C   0  0  0  0  0  2  0  0  0  0  0  0
  194.0840  174.0400  135.9950 C   0  0  0  0  0  2  0  0  0  0  0  0
  193.7890  173.8160  137.3430 O   0  0  0  0  0  0  0  0  0  0  0  0
  195.2710  173.9650  138.1560 P   0  0  0  0  0  0  0  0  0  0  0  0
  195.4930  172.7350  139.0100 O   0  0  0  0  0  1  0  0  0  0  0  0
  196.5320  174.1000  137.0340 O   0  0  0  0  0  0  0  0  0  0  0  0
  195.2530  175.3330  139.1510 O   0  0  0  0  0  1  0  0  0  0  0  0
  1 21  1  6  0  0  0
  2  4  1  0  0  0  0
  2  1  1  0  0  0  0
  3  6  1  0  0  0  0
  5  2  2  0  0  0  0
  6 11  1  0  0  0  0
  6  4  2  0  0  0  0
  7  3  2  0  0  0  0
  7  5  1  0  0  0  0
  8 13  1  1  0  0  0
  9 12  1  0  0  0  0
 10  9  2  0  0  0  0
 10 11  1  0  0  0  0
 11  8  1  0  0  0  0
 12  8  1  0  0  0  0
 13 14  1  0  0  0  0
 15 16  1  0  0  0  0
 17 15  1  0  0  0  0
 18 15  1  0  0  0  0
 19 20  1  0  0  0  0
 19 18  1  0  0  0  0
 20 14  1  1  0  0  0
 20 17  1  0  0  0  0
 22 24  1  0  0  0  0
 23 21  1  6  0  0  0
 23 27  1  0  0  0  0
 23 22  1  0  0  0  0
 24 28  1  1  0  0  0
 26 25  2  0  0  0  0
 26 24  1  0  0  0  0
 27 26  1  0  0  0  0
 28 29  1  0  0  0  0
 29 30  1  0  0  0  0
 30 31  1  6  0  0  0
 32 36  1  0  0  0  0
 33 30  1  6  0  0  0
 33 37  1  0  0  0  0
 33 32  1  0  0  0  0
 35 36  1  0  0  0  0
 36 34  1  6  0  0  0
 37 38  1  0  0  0  0
 38 40  1  1  0  0  0
 38 35  1  0  0  0  0
 39 40  1  0  0  0  0
 41  1  1  0  0  0  0
 42 45  1  0  0  0  0
 43 46  1  1  0  0  0
 43 42  1  0  0  0  0
 43 44  1  0  0  0  0
 43 45  1  0  0  0  0
 44 45  1  0  0  0  0
 45 41  1  6  0  0  0
 47 48  1  0  0  0  0
 47 46  1  0  0  0  0
 48 49  1  0  0  0  0
 49 50  1  0  0  0  0
 50 51  1  0  0  0  0
 50 53  1  0  0  0  0
 52 50  2  0  0  0  0
M  END
>  <MODEL>
4

>  <REMARK>
 VINA RESULT:      -6.7      2.793      5.581
  Name = 
  19 active torsions:
  status: ('A' for Active; 'I' for Inactive)
    1  A    between atoms: C_1  and  C_19
    2  A    between atoms: C_2  and  C_40
    3  A    between atoms: C_2  and  C_45
    4  A    between atoms: C_7  and  C_11
    5  A    between atoms: C_8  and  N_16
    6  A    between atoms: C_11  and  N_48
    7  A    between atoms: O_15  and  P_21
    8  A    between atoms: O_15  and  C_22
    9  A    between atoms: N_16  and  C_53
   10  A    between atoms: C_17  and  C_52
   11  A    between atoms: C_19  and  N_25
   12  A    between atoms: C_19  and  C_52
   13  A    between atoms: C_22  and  C_45
   14  A    between atoms: N_25  and  C_47
   15  A    between atoms: N_29  and  C_30
   16  A    between atoms: C_32  and  C_49
   17  A    between atoms: C_35  and  C_44
   18  A    between atoms: C_46  and  C_53
   19  A    between atoms: N_48  and  C_49
                            x       y       z     vdW  Elec       q    Type
                         _______ _______ _______ _____ _____    ______ ____

>  <TORSDO>
F 19

$$$$
=
 OpenBabel11032420333D

 53 59  0  0  1  0  0  0  0  0999 V2000
  186.7150  177.9260  138.9350 C   0  0  2  0  0  3  0  0  0  0  0  0
  185.9140  177.6470  137.6880 C   0  0  0  0  0  0  0  0  0  0  0  0
  184.4260  177.2320  135.3770 C   0  0  0  0  0  3  0  0  0  0  0  0
  184.5220  177.5040  137.7730 C   0  0  0  0  0  3  0  0  0  0  0  0
  186.5160  177.6060  136.4640 N   0  0  0  0  0  0  0  0  0  0  0  0
  183.7700  177.2850  136.6140 C   0  0  0  0  0  0  0  0  0  0  0  0
  185.8100  177.3990  135.3220 C   0  0  0  0  0  3  0  0  0  0  0  0
  181.3850  177.7560  135.8290 C   0  0  1  0  0  3  0  0  0  0  0  0
  180.2490  176.2390  137.0960 C   0  0  0  0  0  3  0  0  0  0  0  0
  181.6970  176.1150  137.4960 C   0  0  0  0  0  3  0  0  0  0  0  0
  182.3460  177.1080  136.6930 N   0  0  0  0  0  0  0  0  0  0  0  0
  180.1380  177.1170  135.9920 O   0  0  0  0  0  0  0  0  0  0  0  0
  181.2630  179.1580  136.1960 N   0  0  0  0  0  2  0  0  0  0  0  0
  179.9440  179.3320  136.7910 C   0  0  0  0  0  2  0  0  0  0  0  0
  180.7130  182.4940  137.2510 N   0  0  0  0  0  0  0  0  0  0  0  0
  180.3180  183.8490  137.5900 C   0  0  0  0  0  1  0  0  0  0  0  0
  179.5510  181.7010  137.3130 N   0  0  0  0  0  2  0  0  0  0  0  0
  181.5790  182.0530  138.2660 N   0  0  0  0  0  2  0  0  0  0  0  0
  181.3410  180.6310  138.3960 C   0  0  0  0  0  2  0  0  0  0  0  0
  179.9590  180.4210  137.8620 C   0  0  2  0  0  3  0  0  0  0  0  0
  188.0450  177.1750  138.9650 C   0  0  0  0  0  2  0  0  0  0  0  0
  189.3720  177.3360  141.0880 C   0  0  0  0  0  2  0  0  0  0  0  0
  189.1130  177.9620  139.7090 C   0  0  1  0  0  3  0  0  0  0  0  0
  190.8390  176.9100  141.1410 C   0  0  1  0  0  3  0  0  0  0  0  0
  192.5040  177.0350  139.3940 O   0  0  0  0  0  0  0  0  0  0  0  0
  191.3330  177.2650  139.7940 C   0  0  0  0  0  0  0  0  0  0  0  0
  190.3630  177.8820  138.9780 N   0  0  0  0  0  2  0  0  0  0  0  0
  191.5600  177.7200  142.2040 C   0  0  0  0  0  2  0  0  0  0  0  0
  191.6460  176.9490  143.4350 N   0  0  0  0  0  2  0  0  0  0  0  0
  191.3380  177.8470  144.5350 C   0  0  1  0  0  3  0  0  0  0  0  0
  191.0480  179.1180  144.0310 O   0  0  0  0  0  1  0  0  0  0  0  0
  190.5540  177.1270  146.8180 C   0  0  0  0  0  2  0  0  0  0  0  0
  190.1600  177.3060  145.3460 C   0  0  1  0  0  3  0  0  0  0  0  0
  189.2100  178.4670  148.4580 C   0  0  0  0  0  1  0  0  0  0  0  0
  188.0520  176.6890  147.1170 C   0  0  0  0  0  2  0  0  0  0  0  0
  189.3610  177.1160  147.7870 C   0  0  1  0  0  3  0  0  0  0  0  0
  188.9140  178.1760  145.2060 C   0  0  0  0  0  2  0  0  0  0  0  0
  187.7030  177.5010  145.8580 C   0  0  2  0  0  3  0  0  0  0  0  0
  185.4260  177.8990  146.4570 O   0  0  0  0  0  1  0  0  0  0  0  0
  186.6370  178.5330  146.1800 C   0  0  0  0  0  2  0  0  0  0  0  0
  185.9430  177.5780  140.1200 N   0  0  0  0  0  2  0  0  0  0  0  0
  184.5710  179.3390  140.8840 C   0  0  0  0  0  2  0  0  0  0  0  0
  184.8920  178.6080  142.1590 C   0  0  1  0  0  0  0  0  0  0  0  0
  186.3390  178.2450  142.3420 C   0  0  0  0  0  2  0  0  0  0  0  0
  185.9370  178.7400  140.9910 C   0  0  1  0  0  0  0  0  0  0  0  0
  184.7500  179.7180  143.1750 C   0  0  0  0  0  2  0  0  0  0  0  0
  183.6340  179.3850  144.1500 C   0  0  0  0  0  2  0  0  0  0  0  0
  182.4670  178.7520  143.4130 C   0  0  0  0  0  2  0  0  0  0  0  0
  181.5800  179.7450  142.9860 O   0  0  0  0  0  0  0  0  0  0  0  0
  180.4370  178.9400  142.0260 P   0  0  0  0  0  0  0  0  0  0  0  0
  179.5120  179.9600  141.3970 O   0  0  0  0  0  1  0  0  0  0  0  0
  181.2210  178.0700  140.8030 O   0  0  0  0  0  0  0  0  0  0  0  0
  179.5250  177.8780  142.9770 O   0  0  0  0  0  1  0  0  0  0  0  0
  1 21  1  6  0  0  0
  1 41  1  0  0  0  0
  2  4  1  0  0  0  0
  2  1  1  0  0  0  0
  3  6  1  0  0  0  0
  5  2  2  0  0  0  0
  6 11  1  0  0  0  0
  6  4  2  0  0  0  0
  7  3  2  0  0  0  0
  7  5  1  0  0  0  0
  8 12  1  0  0  0  0
  8 13  1  1  0  0  0
  8 11  1  0  0  0  0
  9 10  2  0  0  0  0
 11 10  1  0  0  0  0
 12  9  1  0  0  0  0
 13 14  1  0  0  0  0
 15 17  1  0  0  0  0
 15 16  1  0  0  0  0
 15 18  1  0  0  0  0
 17 20  1  0  0  0  0
 18 19  1  0  0  0  0
 20 14  1  6  0  0  0
 20 19  1  0  0  0  0
 22 24  1  0  0  0  0
 23 21  1  6  0  0  0
 23 22  1  0  0  0  0
 24 28  1  1  0  0  0
 25 26  2  0  0  0  0
 26 24  1  0  0  0  0
 27 23  1  0  0  0  0
 27 26  1  0  0  0  0
 28 29  1  0  0  0  0
 29 30  1  0  0  0  0
 30 31  1  6  0  0  0
 32 36  1  0  0  0  0
 33 30  1  6  0  0  0
 33 32  1  0  0  0  0
 35 36  1  0  0  0  0
 36 34  1  6  0  0  0
 37 33  1  0  0  0  0
 37 38  1  0  0  0  0
 38 40  1  1  0  0  0
 38 35  1  0  0  0  0
 40 39  1  0  0  0  0
 42 45  1  0  0  0  0
 42 43  1  0  0  0  0
 43 44  1  0  0  0  0
 43 46  1  1  0  0  0
 45 41  1  6  0  0  0
 45 43  1  0  0  0  0
 45 44  1  0  0  0  0
 46 47  1  0  0  0  0
 48 47  1  0  0  0  0
 49 48  1  0  0  0  0
 50 53  1  0  0  0  0
 50 49  1  0  0  0  0
 51 50  1  0  0  0  0
 52 50  2  0  0  0  0
M  END
>  <MODEL>
5

>  <REMARK>
 VINA RESULT:      -6.6      2.879      6.663
  Name = 
  19 active torsions:
  status: ('A' for Active; 'I' for Inactive)
    1  A    between atoms: C_1  and  C_19
    2  A    between atoms: C_2  and  C_40
    3  A    between atoms: C_2  and  C_45
    4  A    between atoms: C_7  and  C_11
    5  A    between atoms: C_8  and  N_16
    6  A    between atoms: C_11  and  N_48
    7  A    between atoms: O_15  and  P_21
    8  A    between atoms: O_15  and  C_22
    9  A    between atoms: N_16  and  C_53
   10  A    between atoms: C_17  and  C_52
   11  A    between atoms: C_19  and  N_25
   12  A    between atoms: C_19  and  C_52
   13  A    between atoms: C_22  and  C_45
   14  A    between atoms: N_25  and  C_47
   15  A    between atoms: N_29  and  C_30
   16  A    between atoms: C_32  and  C_49
   17  A    between atoms: C_35  and  C_44
   18  A    between atoms: C_46  and  C_53
   19  A    between atoms: N_48  and  C_49
                            x       y       z     vdW  Elec       q    Type
                         _______ _______ _______ _____ _____    ______ ____

>  <TORSDO>
F 19

$$$$
=
 OpenBabel11032420333D

 53 59  0  0  1  0  0  0  0  0999 V2000
  185.3420  178.2690  141.7520 C   0  0  2  0  0  3  0  0  0  0  0  0
  185.2680  178.3910  143.2530 C   0  0  0  0  0  0  0  0  0  0  0  0
  185.1600  178.7110  146.0120 C   0  0  0  0  0  3  0  0  0  0  0  0
  186.4010  178.1150  144.0290 C   0  0  0  0  0  3  0  0  0  0  0  0
  184.1320  178.8380  143.8630 N   0  0  0  0  0  0  0  0  0  0  0  0
  186.3490  178.2650  145.4200 C   0  0  0  0  0  0  0  0  0  0  0  0
  184.0540  178.9970  145.2100 C   0  0  0  0  0  3  0  0  0  0  0  0
  188.8700  178.1180  145.8060 C   0  0  1  0  0  3  0  0  0  0  0  0
  188.8970  177.5770  148.0200 C   0  0  0  0  0  3  0  0  0  0  0  0
  187.4430  177.6460  147.6250 C   0  0  0  0  0  3  0  0  0  0  0  0
  187.4970  177.9570  146.2280 N   0  0  0  0  0  0  0  0  0  0  0  0
  189.7000  178.0180  146.9420 O   0  0  0  0  0  0  0  0  0  0  0  0
  189.2170  177.0720  144.8570 N   0  0  0  0  0  2  0  0  0  0  0  0
  190.6590  176.8740  144.9480 C   0  0  0  0  0  2  0  0  0  0  0  0
  191.0830  177.3510  141.7230 N   0  0  0  0  0  0  0  0  0  0  0  0
  191.9600  177.4770  140.5740 C   0  0  0  0  0  1  0  0  0  0  0  0
  191.9050  177.1380  142.8470 N   0  0  0  0  0  2  0  0  0  0  0  0
  190.3210  176.1860  141.5330 N   0  0  0  0  0  2  0  0  0  0  0  0
  190.0930  175.6440  142.8550 C   0  0  0  0  0  2  0  0  0  0  0  0
  191.2030  176.1930  143.6940 C   0  0  2  0  0  3  0  0  0  0  0  0
  186.5940  178.9190  141.1660 C   0  0  0  0  0  2  0  0  0  0  0  0
  186.3810  177.8000  138.9300 C   0  0  0  0  0  2  0  0  0  0  0  0
  187.2790  178.0050  140.1600 C   0  0  1  0  0  3  0  0  0  0  0  0
  187.1370  178.3210  137.7070 C   0  0  1  0  0  3  0  0  0  0  0  0
  189.2990  179.3980  137.6230 O   0  0  0  0  0  0  0  0  0  0  0  0
  188.3950  178.8320  138.2920 C   0  0  0  0  0  0  0  0  0  0  0  0
  188.4930  178.6390  139.6850 N   0  0  0  0  0  2  0  0  0  0  0  0
  187.4190  177.1660  136.7620 C   0  0  0  0  0  2  0  0  0  0  0  0
  188.3560  176.2410  137.3820 N   0  0  0  0  0  2  0  0  0  0  0  0
  189.3140  175.8420  136.3650 C   0  0  1  0  0  3  0  0  0  0  0  0
  189.3850  176.8300  135.3790 O   0  0  0  0  0  1  0  0  0  0  0  0
  190.9620  174.1050  137.1470 C   0  0  0  0  0  2  0  0  0  0  0  0
  190.6870  175.6060  136.9950 C   0  0  1  0  0  3  0  0  0  0  0  0
  192.9730  173.2510  135.9150 C   0  0  0  0  0  1  0  0  0  0  0  0
  193.3090  174.9080  137.7710 C   0  0  0  0  0  2  0  0  0  0  0  0
  192.4530  173.7500  137.2490 C   0  0  1  0  0  3  0  0  0  0  0  0
  191.8040  176.2990  136.2190 C   0  0  0  0  0  2  0  0  0  0  0  0
  193.1290  176.2180  136.9840 C   0  0  2  0  0  3  0  0  0  0  0  0
  195.3950  175.6770  136.4630 O   0  0  0  0  0  1  0  0  0  0  0  0
  194.2970  176.4210  136.0350 C   0  0  0  0  0  2  0  0  0  0  0  0
  184.1640  178.8660  141.1370 N   0  0  0  0  0  2  0  0  0  0  0  0
  181.8450  178.7200  141.5470 C   0  0  0  0  0  2  0  0  0  0  0  0
  181.9650  178.1140  140.1760 C   0  0  1  0  0  0  0  0  0  0  0  0
  183.0710  177.1090  140.0150 C   0  0  0  0  0  2  0  0  0  0  0  0
  183.0740  177.9150  141.2730 C   0  0  1  0  0  0  0  0  0  0  0  0
  180.7560  177.2070  140.1510 C   0  0  0  0  0  2  0  0  0  0  0  0
  180.0470  177.3300  138.8130 C   0  0  0  0  0  2  0  0  0  0  0  0
  179.3740  176.0170  138.4560 C   0  0  0  0  0  2  0  0  0  0  0  0
  180.1050  174.9490  138.9860 O   0  0  0  0  0  0  0  0  0  0  0  0
  180.5570  174.0090  137.6470 P   0  0  0  0  0  0  0  0  0  0  0  0
  179.8120  174.4990  136.4240 O   0  0  0  0  0  0  0  0  0  0  0  0
  182.2230  174.1510  137.3800 O   0  0  0  0  0  1  0  0  0  0  0  0
  180.1660  172.3860  137.9200 O   0  0  0  0  0  1  0  0  0  0  0  0
  1 21  1  6  0  0  0
  1  2  1  0  0  0  0
  2  5  2  0  0  0  0
  2  4  1  0  0  0  0
  4  6  2  0  0  0  0
  5  7  1  0  0  0  0
  6  3  1  0  0  0  0
  6 11  1  0  0  0  0
  7  3  2  0  0  0  0
  8 13  1  6  0  0  0
  8 11  1  0  0  0  0
  8 12  1  0  0  0  0
 10  9  2  0  0  0  0
 11 10  1  0  0  0  0
 12  9  1  0  0  0  0
 13 14  1  0  0  0  0
 15 17  1  0  0  0  0
 16 15  1  0  0  0  0
 17 20  1  0  0  0  0
 18 15  1  0  0  0  0
 18 19  1  0  0  0  0
 19 20  1  0  0  0  0
 20 14  1  1  0  0  0
 22 23  1  0  0  0  0
 23 21  1  1  0  0  0
 24 28  1  6  0  0  0
 24 26  1  0  0  0  0
 24 22  1  0  0  0  0
 25 26  2  0  0  0  0
 26 27  1  0  0  0  0
 27 23  1  0  0  0  0
 28 29  1  0  0  0  0
 30 31  1  6  0  0  0
 30 29  1  0  0  0  0
 32 36  1  0  0  0  0
 33 30  1  6  0  0  0
 33 32  1  0  0  0  0
 36 34  1  6  0  0  0
 36 35  1  0  0  0  0
 37 38  1  0  0  0  0
 37 33  1  0  0  0  0
 38 40  1  6  0  0  0
 38 35  1  0  0  0  0
 40 39  1  0  0  0  0
 41  1  1  0  0  0  0
 43 46  1  1  0  0  0
 43 45  1  0  0  0  0
 43 42  1  0  0  0  0
 44 43  1  0  0  0  0
 44 45  1  0  0  0  0
 45 41  1  6  0  0  0
 45 42  1  0  0  0  0
 47 46  1  0  0  0  0
 48 47  1  0  0  0  0
 48 49  1  0  0  0  0
 50 53  1  0  0  0  0
 50 49  1  0  0  0  0
 51 50  2  0  0  0  0
 52 50  1  0  0  0  0
M  END
>  <MODEL>
6

>  <REMARK>
 VINA RESULT:      -6.6      3.856      9.508
  Name = 
  19 active torsions:
  status: ('A' for Active; 'I' for Inactive)
    1  A    between atoms: C_1  and  C_19
    2  A    between atoms: C_2  and  C_40
    3  A    between atoms: C_2  and  C_45
    4  A    between atoms: C_7  and  C_11
    5  A    between atoms: C_8  and  N_16
    6  A    between atoms: C_11  and  N_48
    7  A    between atoms: O_15  and  P_21
    8  A    between atoms: O_15  and  C_22
    9  A    between atoms: N_16  and  C_53
   10  A    between atoms: C_17  and  C_52
   11  A    between atoms: C_19  and  N_25
   12  A    between atoms: C_19  and  C_52
   13  A    between atoms: C_22  and  C_45
   14  A    between atoms: N_25  and  C_47
   15  A    between atoms: N_29  and  C_30
   16  A    between atoms: C_32  and  C_49
   17  A    between atoms: C_35  and  C_44
   18  A    between atoms: C_46  and  C_53
   19  A    between atoms: N_48  and  C_49
                            x       y       z     vdW  Elec       q    Type
                         _______ _______ _______ _____ _____    ______ ____

>  <TORSDO>
F 19

$$$$
=
 OpenBabel11032420333D

 53 59  0  0  1  0  0  0  0  0999 V2000
  187.4030  178.2750  141.9010 C   0  0  2  0  0  3  0  0  0  0  0  0
  186.0300  178.4560  142.4990 C   0  0  0  0  0  0  0  0  0  0  0  0
  183.4960  178.6900  143.6140 C   0  0  0  0  0  3  0  0  0  0  0  0
  184.8990  178.3800  141.6750 C   0  0  0  0  0  3  0  0  0  0  0  0
  185.8690  178.6200  143.8440 N   0  0  0  0  0  0  0  0  0  0  0  0
  183.6210  178.5070  142.2310 C   0  0  0  0  0  0  0  0  0  0  0  0
  184.6410  178.7410  144.4110 C   0  0  0  0  0  3  0  0  0  0  0  0
  182.1670  177.4100  140.4400 C   0  0  1  0  0  3  0  0  0  0  0  0
  180.3330  178.7600  140.5440 C   0  0  0  0  0  3  0  0  0  0  0  0
  181.3240  179.3270  141.5290 C   0  0  0  0  0  3  0  0  0  0  0  0
  182.4550  178.4590  141.3920 N   0  0  0  0  0  0  0  0  0  0  0  0
  180.8200  177.5320  140.0370 O   0  0  0  0  0  0  0  0  0  0  0  0
  183.0340  177.5490  139.2810 N   0  0  0  0  0  2  0  0  0  0  0  0
  183.2030  176.2180  138.7100 C   0  0  0  0  0  2  0  0  0  0  0  0
  185.9800  175.5900  137.0680 N   0  0  0  0  0  0  0  0  0  0  0  0
  186.6940  174.8660  136.0320 C   0  0  0  0  0  1  0  0  0  0  0  0
  184.6480  175.1320  137.0460 N   0  0  0  0  0  2  0  0  0  0  0  0
  185.9660  176.9430  136.6880 N   0  0  0  0  0  2  0  0  0  0  0  0
  184.7130  177.4770  137.1780 C   0  0  0  0  0  2  0  0  0  0  0  0
  183.8130  176.2880  137.3130 C   0  0  2  0  0  3  0  0  0  0  0  0
  187.3790  178.1850  140.3760 C   0  0  0  0  0  2  0  0  0  0  0  0
  189.0210  176.7340  139.1530 C   0  0  0  0  0  2  0  0  0  0  0  0
  188.7850  178.1080  139.7990 C   0  0  1  0  0  3  0  0  0  0  0  0
  189.3300  176.9590  137.6730 C   0  0  1  0  0  3  0  0  0  0  0  0
  189.3500  179.0380  136.4420 O   0  0  0  0  0  0  0  0  0  0  0  0
  189.2140  178.4260  137.5340 C   0  0  0  0  0  0  0  0  0  0  0  0
  188.9230  179.0900  138.7420 N   0  0  0  0  0  2  0  0  0  0  0  0
  190.7500  176.5060  137.3820 C   0  0  0  0  0  2  0  0  0  0  0  0
  191.0710  175.3430  138.1950 N   0  0  0  0  0  2  0  0  0  0  0  0
  191.3780  174.2490  137.2900 C   0  0  1  0  0  3  0  0  0  0  0  0
  190.4830  174.2670  136.2170 O   0  0  0  0  0  1  0  0  0  0  0  0
  193.7340  174.8910  137.9050 C   0  0  0  0  0  2  0  0  0  0  0  0
  192.8200  174.3600  136.7940 C   0  0  1  0  0  3  0  0  0  0  0  0
  195.6020  173.3600  138.5810 C   0  0  0  0  0  1  0  0  0  0  0  0
  195.5880  174.2880  136.2490 C   0  0  0  0  0  2  0  0  0  0  0  0
  195.2190  174.5420  137.7130 C   0  0  1  0  0  3  0  0  0  0  0  0
  193.3400  173.0410  136.2300 C   0  0  0  0  0  2  0  0  0  0  0  0
  194.7020  173.2360  135.5580 C   0  0  2  0  0  3  0  0  0  0  0  0
  196.8160  172.1290  135.4670 O   0  0  0  0  0  1  0  0  0  0  0  0
  195.4390  171.9110  135.4680 C   0  0  0  0  0  2  0  0  0  0  0  0
  188.0350  177.0790  142.4400 N   0  0  0  0  0  2  0  0  0  0  0  0
  189.3190  178.2550  144.0320 C   0  0  0  0  0  2  0  0  0  0  0  0
  189.8290  176.8480  144.1870 C   0  0  1  0  0  0  0  0  0  0  0  0
  190.1420  176.1350  142.9010 C   0  0  0  0  0  2  0  0  0  0  0  0
  189.4010  177.4280  142.7890 C   0  0  1  0  0  0  0  0  0  0  0  0
  191.2230  177.0990  144.7150 C   0  0  0  0  0  2  0  0  0  0  0  0
  191.4410  176.3080  145.9920 C   0  0  0  0  0  2  0  0  0  0  0  0
  190.7290  176.9800  147.1520 C   0  0  0  0  0  2  0  0  0  0  0  0
  189.5550  176.2830  147.4560 O   0  0  0  0  0  0  0  0  0  0  0  0
  188.3910  177.4800  147.7620 P   0  0  0  0  0  0  0  0  0  0  0  0
  189.0500  178.8420  147.6860 O   0  0  0  0  0  1  0  0  0  0  0  0
  187.1570  177.3920  146.6070 O   0  0  0  0  0  0  0  0  0  0  0  0
  187.7350  177.2690  149.3070 O   0  0  0  0  0  1  0  0  0  0  0  0
  1 21  1  6  0  0  0
  1 41  1  0  0  0  0
  1  2  1  0  0  0  0
  2  5  1  0  0  0  0
  3  7  1  0  0  0  0
  4  6  1  0  0  0  0
  4  2  2  0  0  0  0
  5  7  2  0  0  0  0
  6  3  2  0  0  0  0
  8 13  1  6  0  0  0
  8 11  1  0  0  0  0
  9 10  2  0  0  0  0
 11 10  1  0  0  0  0
 11  6  1  0  0  0  0
 12  8  1  0  0  0  0
 12  9  1  0  0  0  0
 14 13  1  0  0  0  0
 16 15  1  0  0  0  0
 17 15  1  0  0  0  0
 17 20  1  0  0  0  0
 18 15  1  0  0  0  0
 18 19  1  0  0  0  0
 19 20  1  0  0  0  0
 20 14  1  1  0  0  0
 22 23  1  0  0  0  0
 23 21  1  6  0  0  0
 24 28  1  1  0  0  0
 24 22  1  0  0  0  0
 25 26  2  0  0  0  0
 26 24  1  0  0  0  0
 26 27  1  0  0  0  0
 27 23  1  0  0  0  0
 28 29  1  0  0  0  0
 30 31  1  6  0  0  0
 30 29  1  0  0  0  0
 33 30  1  1  0  0  0
 33 32  1  0  0  0  0
 35 36  1  0  0  0  0
 36 32  1  0  0  0  0
 36 34  1  1  0  0  0
 37 33  1  0  0  0  0
 38 40  1  1  0  0  0
 38 37  1  0  0  0  0
 38 35  1  0  0  0  0
 39 40  1  0  0  0  0
 42 43  1  0  0  0  0
 43 46  1  6  0  0  0
 44 43  1  0  0  0  0
 45 41  1  6  0  0  0
 45 44  1  0  0  0  0
 45 42  1  0  0  0  0
 45 43  1  0  0  0  0
 46 47  1  0  0  0  0
 47 48  1  0  0  0  0
 48 49  1  0  0  0  0
 49 50  1  0  0  0  0
 50 53  1  0  0  0  0
 51 50  1  0  0  0  0
 52 50  2  0  0  0  0
M  END
>  <MODEL>
7

>  <REMARK>
 VINA RESULT:      -6.5      3.677      7.857
  Name = 
  19 active torsions:
  status: ('A' for Active; 'I' for Inactive)
    1  A    between atoms: C_1  and  C_19
    2  A    between atoms: C_2  and  C_40
    3  A    between atoms: C_2  and  C_45
    4  A    between atoms: C_7  and  C_11
    5  A    between atoms: C_8  and  N_16
    6  A    between atoms: C_11  and  N_48
    7  A    between atoms: O_15  and  P_21
    8  A    between atoms: O_15  and  C_22
    9  A    between atoms: N_16  and  C_53
   10  A    between atoms: C_17  and  C_52
   11  A    between atoms: C_19  and  N_25
   12  A    between atoms: C_19  and  C_52
   13  A    between atoms: C_22  and  C_45
   14  A    between atoms: N_25  and  C_47
   15  A    between atoms: N_29  and  C_30
   16  A    between atoms: C_32  and  C_49
   17  A    between atoms: C_35  and  C_44
   18  A    between atoms: C_46  and  C_53
   19  A    between atoms: N_48  and  C_49
                            x       y       z     vdW  Elec       q    Type
                         _______ _______ _______ _____ _____    ______ ____

>  <TORSDO>
F 19

$$$$
=
 OpenBabel11032420333D

 53 59  0  0  1  0  0  0  0  0999 V2000
  185.8130  178.5210  139.1640 C   0  0  2  0  0  3  0  0  0  0  0  0
  186.4190  178.0930  137.8510 C   0  0  0  0  0  0  0  0  0  0  0  0
  187.4510  177.3340  135.3840 C   0  0  0  0  0  3  0  0  0  0  0  0
  186.1930  176.7950  137.3720 C   0  0  0  0  0  3  0  0  0  0  0  0
  187.1230  178.9760  137.0850 N   0  0  0  0  0  0  0  0  0  0  0  0
  186.7190  176.4050  136.1350 C   0  0  0  0  0  0  0  0  0  0  0  0
  187.6410  178.6260  135.8790 C   0  0  0  0  0  3  0  0  0  0  0  0
  187.2100  173.8990  136.1410 C   0  0  1  0  0  3  0  0  0  0  0  0
  185.5970  173.1800  134.7000 C   0  0  0  0  0  3  0  0  0  0  0  0
  185.4660  174.6810  134.7580 C   0  0  0  0  0  3  0  0  0  0  0  0
  186.5180  175.0690  135.6480 N   0  0  0  0  0  0  0  0  0  0  0  0
  186.5450  172.7520  135.6580 O   0  0  0  0  0  0  0  0  0  0  0  0
  188.5830  173.9020  135.6610 N   0  0  0  0  0  2  0  0  0  0  0  0
  189.4470  173.9340  136.8350 C   0  0  0  0  0  2  0  0  0  0  0  0
  192.2870  175.4440  137.5100 N   0  0  0  0  0  0  0  0  0  0  0  0
  193.6590  175.3930  137.9820 C   0  0  0  0  0  1  0  0  0  0  0  0
  191.7750  174.1340  137.5950 N   0  0  0  0  0  2  0  0  0  0  0  0
  192.3340  175.7900  136.1490 N   0  0  0  0  0  2  0  0  0  0  0  0
  191.2170  175.1080  135.5310 C   0  0  0  0  0  2  0  0  0  0  0  0
  190.9210  173.9540  136.4360 C   0  0  2  0  0  3  0  0  0  0  0  0
  186.4880  177.8680  140.3690 C   0  0  0  0  0  2  0  0  0  0  0  0
  188.2370  178.3090  142.1140 C   0  0  0  0  0  2  0  0  0  0  0  0
  187.8610  178.4690  140.6320 C   0  0  1  0  0  3  0  0  0  0  0  0
  189.5140  177.4730  142.1860 C   0  0  1  0  0  3  0  0  0  0  0  0
  190.7360  176.4360  140.3760 O   0  0  0  0  0  0  0  0  0  0  0  0
  189.7810  177.1590  140.7660 C   0  0  0  0  0  0  0  0  0  0  0  0
  188.8570  177.7380  139.8730 N   0  0  0  0  0  2  0  0  0  0  0  0
  190.6360  178.3170  142.7660 C   0  0  0  0  0  2  0  0  0  0  0  0
  190.4730  178.4260  144.2080 N   0  0  0  0  0  2  0  0  0  0  0  0
  190.4580  177.0780  144.7490 C   0  0  1  0  0  3  0  0  0  0  0  0
  191.6810  176.8110  145.3690 O   0  0  0  0  0  1  0  0  0  0  0  0
  189.8300  176.8240  147.1750 C   0  0  0  0  0  2  0  0  0  0  0  0
  189.3030  176.9180  145.7380 C   0  0  1  0  0  3  0  0  0  0  0  0
  189.0230  178.6160  148.7340 C   0  0  0  0  0  1  0  0  0  0  0  0
  187.3510  177.0090  147.7740 C   0  0  0  0  0  2  0  0  0  0  0  0
  188.7950  177.1990  148.2470 C   0  0  1  0  0  3  0  0  0  0  0  0
  188.2650  178.0280  145.5990 C   0  0  0  0  0  2  0  0  0  0  0  0
  187.0290  177.7290  146.4520 C   0  0  2  0  0  3  0  0  0  0  0  0
  184.8880  178.7540  146.7090 O   0  0  0  0  0  1  0  0  0  0  0  0
  186.2590  179.0070  146.7290 C   0  0  0  0  0  2  0  0  0  0  0  0
  184.3900  178.2120  139.1890 N   0  0  0  0  0  2  0  0  0  0  0  0
  183.4980  180.2940  138.5300 C   0  0  0  0  0  2  0  0  0  0  0  0
  182.2810  179.5750  139.0460 C   0  0  1  0  0  0  0  0  0  0  0  0
  182.4620  178.8770  140.3650 C   0  0  0  0  0  2  0  0  0  0  0  0
  183.6990  179.3840  139.6990 C   0  0  1  0  0  0  0  0  0  0  0  0
  181.4090  180.7370  139.4610 C   0  0  0  0  0  2  0  0  0  0  0  0
  180.1270  180.7380  138.6460 C   0  0  0  0  0  2  0  0  0  0  0  0
  179.8640  182.1240  138.0870 C   0  0  0  0  0  2  0  0  0  0  0  0
  180.7720  182.4040  137.0620 O   0  0  0  0  0  0  0  0  0  0  0  0
  180.8370  184.0970  136.9710 P   0  0  0  0  0  0  0  0  0  0  0  0
  180.7210  184.5200  135.5220 O   0  0  0  0  0  0  0  0  0  0  0  0
  179.5570  184.7700  137.8530 O   0  0  0  0  0  1  0  0  0  0  0  0
  182.3070  184.6560  137.5950 O   0  0  0  0  0  1  0  0  0  0  0  0
  1 41  1  0  0  0  0
  1 21  1  1  0  0  0
  2  1  1  0  0  0  0
  3  7  2  0  0  0  0
  3  6  1  0  0  0  0
  4  2  1  0  0  0  0
  5  2  2  0  0  0  0
  6  4  2  0  0  0  0
  7  5  1  0  0  0  0
  8 13  1  6  0  0  0
  9 10  2  0  0  0  0
  9 12  1  0  0  0  0
 10 11  1  0  0  0  0
 11  6  1  0  0  0  0
 11  8  1  0  0  0  0
 12  8  1  0  0  0  0
 13 14  1  0  0  0  0
 15 17  1  0  0  0  0
 15 16  1  0  0  0  0
 18 15  1  0  0  0  0
 19 18  1  0  0  0  0
 19 20  1  0  0  0  0
 20 14  1  1  0  0  0
 20 17  1  0  0  0  0
 22 24  1  0  0  0  0
 23 21  1  1  0  0  0
 23 22  1  0  0  0  0
 24 28  1  6  0  0  0
 25 26  2  0  0  0  0
 26 24  1  0  0  0  0
 27 23  1  0  0  0  0
 27 26  1  0  0  0  0
 28 29  1  0  0  0  0
 29 30  1  0  0  0  0
 30 31  1  1  0  0  0
 32 36  1  0  0  0  0
 33 30  1  6  0  0  0
 33 32  1  0  0  0  0
 35 36  1  0  0  0  0
 36 34  1  6  0  0  0
 37 33  1  0  0  0  0
 37 38  1  0  0  0  0
 38 40  1  1  0  0  0
 38 35  1  0  0  0  0
 39 40  1  0  0  0  0
 42 43  1  0  0  0  0
 42 45  1  0  0  0  0
 43 46  1  1  0  0  0
 43 45  1  0  0  0  0
 43 44  1  0  0  0  0
 45 41  1  6  0  0  0
 45 44  1  0  0  0  0
 47 46  1  0  0  0  0
 48 47  1  0  0  0  0
 49 48  1  0  0  0  0
 50 49  1  0  0  0  0
 50 53  1  0  0  0  0
 50 52  1  0  0  0  0
 51 50  2  0  0  0  0
M  END
>  <MODEL>
8

>  <REMARK>
 VINA RESULT:      -6.4      3.751      8.502
  Name = 
  19 active torsions:
  status: ('A' for Active; 'I' for Inactive)
    1  A    between atoms: C_1  and  C_19
    2  A    between atoms: C_2  and  C_40
    3  A    between atoms: C_2  and  C_45
    4  A    between atoms: C_7  and  C_11
    5  A    between atoms: C_8  and  N_16
    6  A    between atoms: C_11  and  N_48
    7  A    between atoms: O_15  and  P_21
    8  A    between atoms: O_15  and  C_22
    9  A    between atoms: N_16  and  C_53
   10  A    between atoms: C_17  and  C_52
   11  A    between atoms: C_19  and  N_25
   12  A    between atoms: C_19  and  C_52
   13  A    between atoms: C_22  and  C_45
   14  A    between atoms: N_25  and  C_47
   15  A    between atoms: N_29  and  C_30
   16  A    between atoms: C_32  and  C_49
   17  A    between atoms: C_35  and  C_44
   18  A    between atoms: C_46  and  C_53
   19  A    between atoms: N_48  and  C_49
                            x       y       z     vdW  Elec       q    Type
                         _______ _______ _______ _____ _____    ______ ____

>  <TORSDO>
F 19

$$$$
=
 OpenBabel11032420333D

 53 59  0  0  1  0  0  0  0  0999 V2000
  187.1200  178.5100  138.1470 C   0  0  2  0  0  3  0  0  0  0  0  0
  187.5640  177.6630  136.9800 C   0  0  0  0  0  0  0  0  0  0  0  0
  188.2900  176.1120  134.7910 C   0  0  0  0  0  3  0  0  0  0  0  0
  187.3980  176.2730  137.0280 C   0  0  0  0  0  3  0  0  0  0  0  0
  188.0580  178.2400  135.8460 N   0  0  0  0  0  0  0  0  0  0  0  0
  187.7710  175.4860  135.9320 C   0  0  0  0  0  0  0  0  0  0  0  0
  188.4240  177.5010  134.7660 C   0  0  0  0  0  3  0  0  0  0  0  0
  188.4870  173.1710  136.7400 C   0  0  1  0  0  3  0  0  0  0  0  0
  186.7720  171.9190  135.9100 C   0  0  0  0  0  3  0  0  0  0  0  0
  186.5120  173.3340  135.4580 C   0  0  0  0  0  3  0  0  0  0  0  0
  187.6320  174.0570  135.9820 N   0  0  0  0  0  0  0  0  0  0  0  0
  187.8730  171.9020  136.7980 O   0  0  0  0  0  0  0  0  0  0  0  0
  189.7790  173.0550  136.0820 N   0  0  0  0  0  2  0  0  0  0  0  0
  190.7340  173.8180  136.8760 C   0  0  0  0  0  2  0  0  0  0  0  0
  193.7970  172.6580  136.6020 N   0  0  0  0  0  0  0  0  0  0  0  0
  194.8430  172.0390  135.8080 C   0  0  0  0  0  1  0  0  0  0  0  0
  192.6660  172.7750  135.7720 N   0  0  0  0  0  2  0  0  0  0  0  0
  194.2310  173.9590  136.9080 N   0  0  0  0  0  2  0  0  0  0  0  0
  193.0350  174.7730  136.9510 C   0  0  0  0  0  2  0  0  0  0  0  0
  192.0370  174.0380  136.1120 C   0  0  2  0  0  3  0  0  0  0  0  0
  187.3610  177.8340  139.4960 C   0  0  0  0  0  2  0  0  0  0  0  0
  188.8690  177.6180  141.4900 C   0  0  0  0  0  2  0  0  0  0  0  0
  188.6280  178.3510  140.1610 C   0  0  1  0  0  3  0  0  0  0  0  0
  190.2150  176.9020  141.3920 C   0  0  1  0  0  3  0  0  0  0  0  0
  191.7160  176.7750  139.5010 O   0  0  0  0  0  0  0  0  0  0  0  0
  190.6550  177.2170  140.0160 C   0  0  0  0  0  0  0  0  0  0  0  0
  189.7670  178.0570  139.3140 N   0  0  0  0  0  2  0  0  0  0  0  0
  191.1760  177.4960  142.4070 C   0  0  0  0  0  2  0  0  0  0  0  0
  190.4290  178.0240  143.5390 N   0  0  0  0  0  2  0  0  0  0  0  0
  190.6700  177.1440  144.6700 C   0  0  1  0  0  3  0  0  0  0  0  0
  191.6520  177.7010  145.4930 O   0  0  0  0  0  1  0  0  0  0  0  0
  189.6500  176.8850  146.9580 C   0  0  0  0  0  2  0  0  0  0  0  0
  189.3740  176.9180  145.4500 C   0  0  1  0  0  3  0  0  0  0  0  0
  188.4650  178.6390  148.3040 C   0  0  0  0  0  1  0  0  0  0  0  0
  187.0970  176.9020  147.1160 C   0  0  0  0  0  2  0  0  0  0  0  0
  188.4210  177.2020  147.8250 C   0  0  1  0  0  3  0  0  0  0  0  0
  188.3050  177.9490  145.1030 C   0  0  0  0  0  2  0  0  0  0  0  0
  186.9620  177.5760  145.7390 C   0  0  2  0  0  3  0  0  0  0  0  0
  185.1610  178.6430  146.8870 O   0  0  0  0  0  1  0  0  0  0  0  0
  186.0710  178.8000  145.8430 C   0  0  0  0  0  2  0  0  0  0  0  0
  185.7070  178.8390  138.0240 N   0  0  0  0  0  2  0  0  0  0  0  0
  184.5220  179.3380  140.0020 C   0  0  0  0  0  2  0  0  0  0  0  0
  183.4920  178.6000  139.1910 C   0  0  1  0  0  0  0  0  0  0  0  0
  183.9750  177.3320  138.5450 C   0  0  0  0  0  2  0  0  0  0  0  0
  185.0170  178.2200  139.1420 C   0  0  1  0  0  0  0  0  0  0  0  0
  182.6090  178.0400  140.2820 C   0  0  0  0  0  2  0  0  0  0  0  0
  181.1490  178.2800  139.9380 C   0  0  0  0  0  2  0  0  0  0  0  0
  180.8830  179.7680  139.7950 C   0  0  0  0  0  2  0  0  0  0  0  0
  179.8030  179.9760  138.9320 O   0  0  0  0  0  0  0  0  0  0  0  0
  180.3820  181.0330  137.7380 P   0  0  0  0  0  0  0  0  0  0  0  0
  181.3950  181.9730  138.3580 O   0  0  0  0  0  1  0  0  0  0  0  0
  181.1250  180.1510  136.4990 O   0  0  0  0  0  0  0  0  0  0  0  0
  179.1060  181.9410  137.0970 O   0  0  0  0  0  1  0  0  0  0  0  0
  1 21  1  1  0  0  0
  2  4  1  0  0  0  0
  2  1  1  0  0  0  0
  3  6  1  0  0  0  0
  5  2  2  0  0  0  0
  6 11  1  0  0  0  0
  6  4  2  0  0  0  0
  7  3  2  0  0  0  0
  7  5  1  0  0  0  0
  8 13  1  6  0  0  0
  8 12  1  0  0  0  0
  9 12  1  0  0  0  0
 10  9  2  0  0  0  0
 10 11  1  0  0  0  0
 11  8  1  0  0  0  0
 13 14  1  0  0  0  0
 15 18  1  0  0  0  0
 16 15  1  0  0  0  0
 17 20  1  0  0  0  0
 17 15  1  0  0  0  0
 18 19  1  0  0  0  0
 20 14  1  1  0  0  0
 20 19  1  0  0  0  0
 23 21  1  6  0  0  0
 23 22  1  0  0  0  0
 24 22  1  0  0  0  0
 24 28  1  1  0  0  0
 25 26  2  0  0  0  0
 26 24  1  0  0  0  0
 27 26  1  0  0  0  0
 27 23  1  0  0  0  0
 28 29  1  0  0  0  0
 29 30  1  0  0  0  0
 30 31  1  1  0  0  0
 32 36  1  0  0  0  0
 33 30  1  6  0  0  0
 33 32  1  0  0  0  0
 35 36  1  0  0  0  0
 36 34  1  6  0  0  0
 37 33  1  0  0  0  0
 37 38  1  0  0  0  0
 38 40  1  1  0  0  0
 38 35  1  0  0  0  0
 40 39  1  0  0  0  0
 41  1  1  0  0  0  0
 43 42  1  0  0  0  0
 43 46  1  1  0  0  0
 44 45  1  0  0  0  0
 44 43  1  0  0  0  0
 45 41  1  6  0  0  0
 45 43  1  0  0  0  0
 45 42  1  0  0  0  0
 47 46  1  0  0  0  0
 48 47  1  0  0  0  0
 49 48  1  0  0  0  0
 50 51  1  0  0  0  0
 50 49  1  0  0  0  0
 52 50  2  0  0  0  0
 53 50  1  0  0  0  0
M  END
>  <MODEL>
9

>  <REMARK>
 VINA RESULT:      -6.4      4.260      8.993
  Name = 
  19 active torsions:
  status: ('A' for Active; 'I' for Inactive)
    1  A    between atoms: C_1  and  C_19
    2  A    between atoms: C_2  and  C_40
    3  A    between atoms: C_2  and  C_45
    4  A    between atoms: C_7  and  C_11
    5  A    between atoms: C_8  and  N_16
    6  A    between atoms: C_11  and  N_48
    7  A    between atoms: O_15  and  P_21
    8  A    between atoms: O_15  and  C_22
    9  A    between atoms: N_16  and  C_53
   10  A    between atoms: C_17  and  C_52
   11  A    between atoms: C_19  and  N_25
   12  A    between atoms: C_19  and  C_52
   13  A    between atoms: C_22  and  C_45
   14  A    between atoms: N_25  and  C_47
   15  A    between atoms: N_29  and  C_30
   16  A    between atoms: C_32  and  C_49
   17  A    between atoms: C_35  and  C_44
   18  A    between atoms: C_46  and  C_53
   19  A    between atoms: N_48  and  C_49
                            x       y       z     vdW  Elec       q    Type
                         _______ _______ _______ _____ _____    ______ ____

>  <TORSDO>
F 19

$$$$
