=
 OpenBabel11032420143D

 28 31  0  0  1  0  0  0  0  0999 V2000
  188.2410  177.3090  143.0500 C   0  0  1  0  0  0  0  0  0  0  0  0
  188.2570  175.9390  142.7680 O   0  0  0  0  0  1  0  0  0  0  0  0
  185.8710  177.9220  142.5480 N   0  0  0  0  0  0  0  0  0  0  0  0
  186.8310  177.6980  143.4900 C   0  0  0  0  0  0  0  0  0  0  0  0
  183.6620  178.5280  141.8820 C   0  0  0  0  0  3  0  0  0  0  0  0
  184.2690  178.5170  144.2320 C   0  0  0  0  0  0  0  0  0  0  0  0
  182.0570  179.1230  143.5500 N   0  0  0  0  0  0  0  0  0  0  0  0
  182.3750  178.9340  142.2410 C   0  0  0  0  0  3  0  0  0  0  0  0
  186.5250  177.9030  144.8450 C   0  0  0  0  0  3  0  0  0  0  0  0
  184.6140  178.3170  142.8800 C   0  0  0  0  0  0  0  0  0  0  0  0
  184.9510  178.5080  146.6710 C   0  0  0  0  0  1  0  0  0  0  0  0
  185.2430  178.3060  145.2210 C   0  0  0  0  0  0  0  0  0  0  0  0
  182.9660  178.9260  144.5430 C   0  0  0  0  0  3  0  0  0  0  0  0
  192.1920  179.5890  144.3510 C   0  0  0  0  0  1  0  0  0  0  0  0
  191.3110  178.4580  143.8480 C   0  0  2  0  0  3  0  0  0  0  0  0
  190.2620  176.4420  144.3510 C   0  0  0  0  0  2  0  0  0  0  0  0
  189.9520  178.7910  143.9760 O   0  0  0  0  0  0  0  0  0  0  0  0
  191.5640  177.1440  144.5560 C   0  0  2  0  0  3  0  0  0  0  0  0
  189.2600  177.5770  144.1810 C   0  0  1  0  0  3  0  0  0  0  0  0
  191.7560  177.3420  145.9280 O   0  0  0  0  0  1  0  0  0  0  0  0
  188.7280  178.0440  141.7710 C   0  0  2  0  0  3  0  0  0  0  0  0
  188.0020  178.6880  139.5960 O   0  0  0  0  0  1  0  0  0  0  0  0
  188.0160  177.6200  140.4970 C   0  0  1  0  0  3  0  0  0  0  0  0
  189.4420  177.1380  140.7790 C   0  0  1  0  0  3  0  0  0  0  0  0
  190.3990  177.8860  140.0650 O   0  0  0  0  0  0  0  0  0  0  0  0
  191.3860  176.8460  138.2270 O   0  0  0  0  0  1  0  0  0  0  0  0
  191.4140  177.0120  139.6170 C   0  0  1  0  0  3  0  0  0  0  0  0
  192.7990  177.4320  140.0920 C   0  0  0  0  0  1  0  0  0  0  0  0
  1  2  1  6  0  0  0
  1  4  1  0  0  0  0
  3 10  2  0  0  0  0
  3  4  1  0  0  0  0
  4  9  2  0  0  0  0
  5  8  2  0  0  0  0
  5 10  1  0  0  0  0
  6 13  1  0  0  0  0
  6 12  2  0  0  0  0
  7 13  2  0  0  0  0
  8  7  1  0  0  0  0
  9 12  1  0  0  0  0
 10  6  1  0  0  0  0
 12 11  1  0  0  0  0
 15 17  1  0  0  0  0
 15 14  1  1  0  0  0
 15 18  1  0  0  0  0
 16 18  1  0  0  0  0
 17 19  1  0  0  0  0
 18 20  1  1  0  0  0
 19  1  1  6  0  0  0
 19 16  1  0  0  0  0
 21  1  1  1  0  0  0
 23 22  1  6  0  0  0
 23 24  1  0  0  0  0
 23 21  1  0  0  0  0
 24 25  1  6  0  0  0
 24 21  1  0  0  0  0
 26 27  1  0  0  0  0
 27 25  1  0  0  0  0
 27 28  1  6  0  0  0
M  END
>  <MODEL>
1

>  <REMARK>
 VINA RESULT:      -8.4      0.000      0.000
  Name = 
  5 active torsions:
  status: ('A' for Active; 'I' for Inactive)
    1  A    between atoms: C_2  and  C_8
    2  A    between atoms: C_5  and  O_12
    3  A    between atoms: C_6  and  C_8
    4  A    between atoms: C_8  and  C_22
    5  A    between atoms: O_12  and  C_18
                            x       y       z     vdW  Elec       q    Type
                         _______ _______ _______ _____ _____    ______ ____

>  <TORSDO>
F 5

$$$$
=
 OpenBabel11032420143D

 28 31  0  0  1  0  0  0  0  0999 V2000
  187.9790  177.7190  142.5450 C   0  0  1  0  0  0  0  0  0  0  0  0
  187.3710  176.5050  142.2090 O   0  0  0  0  0  1  0  0  0  0  0  0
  189.8020  177.1050  144.1400 N   0  0  0  0  0  0  0  0  0  0  0  0
  188.5460  177.6040  143.9580 C   0  0  0  0  0  0  0  0  0  0  0  0
  191.6290  176.4280  145.5150 C   0  0  0  0  0  3  0  0  0  0  0  0
  189.5880  177.2700  146.5240 C   0  0  0  0  0  0  0  0  0  0  0  0
  191.4290  176.5860  147.8920 N   0  0  0  0  0  0  0  0  0  0  0  0
  192.1630  176.2590  146.7940 C   0  0  0  0  0  3  0  0  0  0  0  0
  187.7670  177.9320  145.0800 C   0  0  0  0  0  3  0  0  0  0  0  0
  190.3370  176.9360  145.3770 C   0  0  0  0  0  0  0  0  0  0  0  0
  187.4350  178.1390  147.5340 C   0  0  0  0  0  1  0  0  0  0  0  0
  188.2870  177.7740  146.3650 C   0  0  0  0  0  0  0  0  0  0  0  0
  190.1660  177.0830  147.7860 C   0  0  0  0  0  3  0  0  0  0  0  0
  189.0750  178.6730  138.0290 C   0  0  0  0  0  1  0  0  0  0  0  0
  188.8400  177.8510  139.2860 C   0  0  2  0  0  3  0  0  0  0  0  0
  189.8090  176.7140  141.0710 C   0  0  0  0  0  2  0  0  0  0  0  0
  188.6250  178.6880  140.3940 O   0  0  0  0  0  0  0  0  0  0  0  0
  189.9790  176.9030  139.6000 C   0  0  2  0  0  3  0  0  0  0  0  0
  189.1070  177.9880  141.5230 C   0  0  1  0  0  3  0  0  0  0  0  0
  191.2170  177.5100  139.3650 O   0  0  0  0  0  1  0  0  0  0  0  0
  186.9010  178.8270  142.3850 C   0  0  2  0  0  3  0  0  0  0  0  0
  184.8490  179.5850  143.3250 O   0  0  0  0  0  1  0  0  0  0  0  0
  185.5250  178.4390  142.8980 C   0  0  1  0  0  3  0  0  0  0  0  0
  185.8040  178.4760  141.3920 C   0  0  1  0  0  3  0  0  0  0  0  0
  185.3140  179.6550  140.7980 O   0  0  0  0  0  0  0  0  0  0  0  0
  184.0520  180.4290  138.9980 O   0  0  0  0  0  1  0  0  0  0  0  0
  184.5010  179.3030  139.6970 C   0  0  1  0  0  3  0  0  0  0  0  0
  185.1800  178.3110  138.7620 C   0  0  0  0  0  1  0  0  0  0  0  0
  1  2  1  6  0  0  0
  1  4  1  0  0  0  0
  3 10  1  0  0  0  0
  4  3  2  0  0  0  0
  4  9  1  0  0  0  0
  5  8  1  0  0  0  0
  6 13  2  0  0  0  0
  8  7  2  0  0  0  0
  9 12  2  0  0  0  0
 10  5  2  0  0  0  0
 10  6  1  0  0  0  0
 12  6  1  0  0  0  0
 12 11  1  0  0  0  0
 13  7  1  0  0  0  0
 15 14  1  6  0  0  0
 15 18  1  0  0  0  0
 15 17  1  0  0  0  0
 16 19  1  0  0  0  0
 17 19  1  0  0  0  0
 18 20  1  1  0  0  0
 18 16  1  0  0  0  0
 19  1  1  1  0  0  0
 21  1  1  1  0  0  0
 21 23  1  0  0  0  0
 23 22  1  6  0  0  0
 24 25  1  6  0  0  0
 24 21  1  0  0  0  0
 24 23  1  0  0  0  0
 26 27  1  0  0  0  0
 27 28  1  6  0  0  0
 27 25  1  0  0  0  0
M  END
>  <MODEL>
2

>  <REMARK>
 VINA RESULT:      -7.8      2.780      5.830
  Name = 
  5 active torsions:
  status: ('A' for Active; 'I' for Inactive)
    1  A    between atoms: C_2  and  C_8
    2  A    between atoms: C_5  and  O_12
    3  A    between atoms: C_6  and  C_8
    4  A    between atoms: C_8  and  C_22
    5  A    between atoms: O_12  and  C_18
                            x       y       z     vdW  Elec       q    Type
                         _______ _______ _______ _____ _____    ______ ____

>  <TORSDO>
F 5

$$$$
=
 OpenBabel11032420143D

 28 31  0  0  1  0  0  0  0  0999 V2000
  187.5600  177.5580  143.6740 C   0  0  1  0  0  0  0  0  0  0  0  0
  187.6750  176.1640  143.7020 O   0  0  0  0  0  1  0  0  0  0  0  0
  185.8010  177.9950  141.9540 N   0  0  0  0  0  0  0  0  0  0  0  0
  186.1320  177.9200  143.2750 C   0  0  0  0  0  0  0  0  0  0  0  0
  184.2640  178.4160  140.1800 C   0  0  0  0  0  3  0  0  0  0  0  0
  183.5650  178.6830  142.4890 C   0  0  0  0  0  0  0  0  0  0  0  0
  182.0330  179.1030  140.6990 N   0  0  0  0  0  0  0  0  0  0  0  0
  182.9820  178.7920  139.7740 C   0  0  0  0  0  3  0  0  0  0  0  0
  185.1710  178.2510  144.2440 C   0  0  0  0  0  3  0  0  0  0  0  0
  184.5580  178.3590  141.5420 C   0  0  0  0  0  0  0  0  0  0  0  0
  182.8860  178.9650  144.9120 C   0  0  0  0  0  1  0  0  0  0  0  0
  183.8830  178.6260  143.8560 C   0  0  0  0  0  0  0  0  0  0  0  0
  182.2940  179.0560  142.0340 C   0  0  0  0  0  3  0  0  0  0  0  0
  190.4070  177.2520  147.4560 C   0  0  0  0  0  1  0  0  0  0  0  0
  189.1920  177.0110  146.5750 C   0  0  2  0  0  3  0  0  0  0  0  0
  186.9620  177.5320  146.1580 C   0  0  0  0  0  2  0  0  0  0  0  0
  189.2300  177.8370  145.4390 O   0  0  0  0  0  0  0  0  0  0  0  0
  187.8780  177.2300  147.2970 C   0  0  2  0  0  3  0  0  0  0  0  0
  187.8870  178.0940  145.0860 C   0  0  1  0  0  3  0  0  0  0  0  0
  187.9440  178.3510  148.1310 O   0  0  0  0  0  1  0  0  0  0  0  0
  188.6430  178.0840  142.6910 C   0  0  2  0  0  3  0  0  0  0  0  0
  189.0660  178.3840  140.3660 O   0  0  0  0  0  1  0  0  0  0  0  0
  188.5770  177.4690  141.3020 C   0  0  1  0  0  3  0  0  0  0  0  0
  189.6660  177.0330  142.2880 C   0  0  1  0  0  3  0  0  0  0  0  0
  190.8990  177.6580  142.0160 O   0  0  0  0  0  0  0  0  0  0  0  0
  191.8720  178.3470  144.0190 O   0  0  0  0  0  1  0  0  0  0  0  0
  191.8060  177.3390  143.0510 C   0  0  1  0  0  3  0  0  0  0  0  0
  191.5160  175.9850  143.6860 C   0  0  0  0  0  1  0  0  0  0  0  0
  1  2  1  1  0  0  0
  3  4  1  0  0  0  0
  4  1  1  0  0  0  0
  4  9  2  0  0  0  0
  5 10  1  0  0  0  0
  6 12  2  0  0  0  0
  7 13  2  0  0  0  0
  8  5  2  0  0  0  0
  8  7  1  0  0  0  0
 10  3  2  0  0  0  0
 10  6  1  0  0  0  0
 12  9  1  0  0  0  0
 12 11  1  0  0  0  0
 13  6  1  0  0  0  0
 15 18  1  0  0  0  0
 15 14  1  1  0  0  0
 16 18  1  0  0  0  0
 17 15  1  0  0  0  0
 18 20  1  1  0  0  0
 19  1  1  6  0  0  0
 19 17  1  0  0  0  0
 19 16  1  0  0  0  0
 21  1  1  1  0  0  0
 23 22  1  6  0  0  0
 23 24  1  0  0  0  0
 23 21  1  0  0  0  0
 24 25  1  6  0  0  0
 24 21  1  0  0  0  0
 25 27  1  0  0  0  0
 27 28  1  1  0  0  0
 27 26  1  0  0  0  0
M  END
>  <MODEL>
3

>  <REMARK>
 VINA RESULT:      -7.7      1.809      2.786
  Name = 
  5 active torsions:
  status: ('A' for Active; 'I' for Inactive)
    1  A    between atoms: C_2  and  C_8
    2  A    between atoms: C_5  and  O_12
    3  A    between atoms: C_6  and  C_8
    4  A    between atoms: C_8  and  C_22
    5  A    between atoms: O_12  and  C_18
                            x       y       z     vdW  Elec       q    Type
                         _______ _______ _______ _____ _____    ______ ____

>  <TORSDO>
F 5

$$$$
=
 OpenBabel11032420143D

 28 31  0  0  1  0  0  0  0  0999 V2000
  188.3800  177.4870  143.8380 C   0  0  1  0  0  0  0  0  0  0  0  0
  188.1670  176.1260  144.0840 O   0  0  0  0  0  1  0  0  0  0  0  0
  186.7150  178.2660  142.1450 N   0  0  0  0  0  0  0  0  0  0  0  0
  187.9680  177.7900  142.4000 C   0  0  0  0  0  0  0  0  0  0  0  0
  184.9910  179.0000  140.6700 C   0  0  0  0  0  3  0  0  0  0  0  0
  187.1250  178.2580  139.7810 C   0  0  0  0  0  0  0  0  0  0  0  0
  185.3870  178.9960  138.3120 N   0  0  0  0  0  0  0  0  0  0  0  0
  184.5590  179.2410  139.3640 C   0  0  0  0  0  3  0  0  0  0  0  0
  188.8300  177.5170  141.3260 C   0  0  0  0  0  3  0  0  0  0  0  0
  186.2790  178.5070  140.8810 C   0  0  0  0  0  0  0  0  0  0  0  0
  189.3610  177.4610  138.8980 C   0  0  0  0  0  1  0  0  0  0  0  0
  188.4160  177.7560  140.0150 C   0  0  0  0  0  0  0  0  0  0  0  0
  186.6470  178.5150  138.4900 C   0  0  0  0  0  3  0  0  0  0  0  0
  187.5570  178.5500  148.3880 C   0  0  0  0  0  1  0  0  0  0  0  0
  187.4040  177.8520  147.0470 C   0  0  2  0  0  3  0  0  0  0  0  0
  186.1580  177.6580  145.0890 C   0  0  0  0  0  2  0  0  0  0  0  0
  188.1900  178.4790  146.0660 O   0  0  0  0  0  0  0  0  0  0  0  0
  185.9690  177.7950  146.5640 C   0  0  2  0  0  3  0  0  0  0  0  0
  187.5190  178.2940  144.8360 C   0  0  1  0  0  3  0  0  0  0  0  0
  185.3050  179.0000  146.8210 O   0  0  0  0  0  1  0  0  0  0  0  0
  189.8760  177.7760  144.1400 C   0  0  2  0  0  3  0  0  0  0  0  0
  192.0550  177.5010  143.2170 O   0  0  0  0  0  1  0  0  0  0  0  0
  190.8470  176.8360  143.4450 C   0  0  1  0  0  3  0  0  0  0  0  0
  190.5620  176.6800  144.9420 C   0  0  1  0  0  3  0  0  0  0  0  0
  191.5830  177.2450  145.7310 O   0  0  0  0  0  0  0  0  0  0  0  0
  190.1510  176.3600  147.3440 O   0  0  0  0  0  1  0  0  0  0  0  0
  191.4630  176.7500  147.0490 C   0  0  1  0  0  3  0  0  0  0  0  0
  192.4490  175.6280  147.3460 C   0  0  0  0  0  1  0  0  0  0  0  0
  1  2  1  1  0  0  0
  3  4  1  0  0  0  0
  4  1  1  0  0  0  0
  5 10  1  0  0  0  0
  6 12  2  0  0  0  0
  6 10  1  0  0  0  0
  7 13  2  0  0  0  0
  7  8  1  0  0  0  0
  8  5  2  0  0  0  0
  9  4  2  0  0  0  0
 10  3  2  0  0  0  0
 11 12  1  0  0  0  0
 12  9  1  0  0  0  0
 13  6  1  0  0  0  0
 15 14  1  1  0  0  0
 16 18  1  0  0  0  0
 17 15  1  0  0  0  0
 18 20  1  6  0  0  0
 18 15  1  0  0  0  0
 19  1  1  6  0  0  0
 19 16  1  0  0  0  0
 19 17  1  0  0  0  0
 21  1  1  6  0  0  0
 21 24  1  0  0  0  0
 23 22  1  1  0  0  0
 23 21  1  0  0  0  0
 23 24  1  0  0  0  0
 24 25  1  1  0  0  0
 25 27  1  0  0  0  0
 27 26  1  0  0  0  0
 27 28  1  6  0  0  0
M  END
>  <MODEL>
4

>  <REMARK>
 VINA RESULT:      -7.6      2.496      5.219
  Name = 
  5 active torsions:
  status: ('A' for Active; 'I' for Inactive)
    1  A    between atoms: C_2  and  C_8
    2  A    between atoms: C_5  and  O_12
    3  A    between atoms: C_6  and  C_8
    4  A    between atoms: C_8  and  C_22
    5  A    between atoms: O_12  and  C_18
                            x       y       z     vdW  Elec       q    Type
                         _______ _______ _______ _____ _____    ______ ____

>  <TORSDO>
F 5

$$$$
=
 OpenBabel11032420143D

 28 31  0  0  1  0  0  0  0  0999 V2000
  185.0560  178.6980  143.4480 C   0  0  1  0  0  0  0  0  0  0  0  0
  185.4620  180.0310  143.5790 O   0  0  0  0  0  1  0  0  0  0  0  0
  183.4250  178.6440  141.5550 N   0  0  0  0  0  0  0  0  0  0  0  0
  183.6300  178.6770  142.9030 C   0  0  0  0  0  0  0  0  0  0  0  0
  182.0190  178.6290  139.6290 C   0  0  0  0  0  3  0  0  0  0  0  0
  181.0460  178.7470  141.8500 C   0  0  0  0  0  0  0  0  0  0  0  0
  179.6470  178.7330  139.9090 N   0  0  0  0  0  0  0  0  0  0  0  0
  180.7310  178.6600  139.0900 C   0  0  0  0  0  3  0  0  0  0  0  0
  182.5230  178.7680  143.7630 C   0  0  0  0  0  3  0  0  0  0  0  0
  182.1790  178.6720  141.0140 C   0  0  0  0  0  0  0  0  0  0  0  0
  180.0770  178.8860  144.1850 C   0  0  0  0  0  1  0  0  0  0  0  0
  181.2290  178.7960  143.2410 C   0  0  0  0  0  0  0  0  0  0  0  0
  179.7750  178.7760  141.2630 C   0  0  0  0  0  3  0  0  0  0  0  0
  189.1690  176.3910  142.9410 C   0  0  0  0  0  1  0  0  0  0  0  0
  188.1880  177.5510  142.9440 C   0  0  2  0  0  3  0  0  0  0  0  0
  186.8660  178.9790  141.6660 C   0  0  0  0  0  2  0  0  0  0  0  0
  186.8750  177.0930  143.1480 O   0  0  0  0  0  0  0  0  0  0  0  0
  188.2290  178.3710  141.6700 C   0  0  2  0  0  3  0  0  0  0  0  0
  186.0250  177.9960  142.4720 C   0  0  1  0  0  3  0  0  0  0  0  0
  188.3570  177.5460  140.5470 O   0  0  0  0  0  1  0  0  0  0  0  0
  185.2070  178.0370  144.8460 C   0  0  2  0  0  3  0  0  0  0  0  0
  184.5140  178.2810  147.1120 O   0  0  0  0  0  1  0  0  0  0  0  0
  185.0070  178.9900  146.0130 C   0  0  1  0  0  3  0  0  0  0  0  0
  186.4150  178.5270  145.6280 C   0  0  1  0  0  3  0  0  0  0  0  0
  186.8780  177.4980  146.4710 O   0  0  0  0  0  0  0  0  0  0  0  0
  188.0070  177.9380  148.4620 O   0  0  0  0  0  1  0  0  0  0  0  0
  188.0910  177.9100  147.0650 C   0  0  1  0  0  3  0  0  0  0  0  0
  189.2810  177.0790  146.6030 C   0  0  0  0  0  1  0  0  0  0  0  0
  1  2  1  1  0  0  0
  3  4  1  0  0  0  0
  4  1  1  0  0  0  0
  4  9  2  0  0  0  0
  5 10  1  0  0  0  0
  6 12  2  0  0  0  0
  7 13  2  0  0  0  0
  8  5  2  0  0  0  0
  8  7  1  0  0  0  0
 10  3  2  0  0  0  0
 10  6  1  0  0  0  0
 12  9  1  0  0  0  0
 12 11  1  0  0  0  0
 13  6  1  0  0  0  0
 15 14  1  6  0  0  0
 15 17  1  0  0  0  0
 16 18  1  0  0  0  0
 16 19  1  0  0  0  0
 18 20  1  6  0  0  0
 18 15  1  0  0  0  0
 19 17  1  0  0  0  0
 19  1  1  1  0  0  0
 21  1  1  6  0  0  0
 21 24  1  0  0  0  0
 21 23  1  0  0  0  0
 23 22  1  1  0  0  0
 24 23  1  0  0  0  0
 24 25  1  1  0  0  0
 25 27  1  0  0  0  0
 27 28  1  1  0  0  0
 27 26  1  0  0  0  0
M  END
>  <MODEL>
5

>  <REMARK>
 VINA RESULT:      -7.5      2.656      5.401
  Name = 
  5 active torsions:
  status: ('A' for Active; 'I' for Inactive)
    1  A    between atoms: C_2  and  C_8
    2  A    between atoms: C_5  and  O_12
    3  A    between atoms: C_6  and  C_8
    4  A    between atoms: C_8  and  C_22
    5  A    between atoms: O_12  and  C_18
                            x       y       z     vdW  Elec       q    Type
                         _______ _______ _______ _____ _____    ______ ____

>  <TORSDO>
F 5

$$$$
=
 OpenBabel11032420143D

 28 31  0  0  1  0  0  0  0  0999 V2000
  188.3750  177.4400  143.8290 C   0  0  1  0  0  0  0  0  0  0  0  0
  188.1560  176.0840  144.0930 O   0  0  0  0  0  1  0  0  0  0  0  0
  188.8930  177.5820  141.3890 N   0  0  0  0  0  0  0  0  0  0  0  0
  187.9720  177.7250  142.3840 C   0  0  0  0  0  0  0  0  0  0  0  0
  189.5760  177.7000  139.1070 C   0  0  0  0  0  3  0  0  0  0  0  0
  187.3210  178.3360  139.7410 C   0  0  0  0  0  0  0  0  0  0  0  0
  188.0190  178.4510  137.4550 N   0  0  0  0  0  0  0  0  0  0  0  0
  189.2610  177.9990  137.7800 C   0  0  0  0  0  3  0  0  0  0  0  0
  186.6900  178.2040  142.0710 C   0  0  0  0  0  3  0  0  0  0  0  0
  188.6030  177.8670  140.0930 C   0  0  0  0  0  0  0  0  0  0  0  0
  184.9840  179.0050  140.4510 C   0  0  0  0  0  1  0  0  0  0  0  0
  186.3570  178.5040  140.7490 C   0  0  0  0  0  0  0  0  0  0  0  0
  187.0520  178.6240  138.3970 C   0  0  0  0  0  3  0  0  0  0  0  0
  187.5660  178.6140  148.3540 C   0  0  0  0  0  1  0  0  0  0  0  0
  187.4120  177.8790  147.0330 C   0  0  2  0  0  3  0  0  0  0  0  0
  186.1580  177.6220  145.0880 C   0  0  0  0  0  2  0  0  0  0  0  0
  188.1870  178.4880  146.0310 O   0  0  0  0  0  0  0  0  0  0  0  0
  185.9750  177.7960  146.5590 C   0  0  2  0  0  3  0  0  0  0  0  0
  187.5120  178.2640  144.8110 C   0  0  1  0  0  3  0  0  0  0  0  0
  185.3010  179.0000  146.7890 O   0  0  0  0  0  1  0  0  0  0  0  0
  189.8710  177.7270  144.1360 C   0  0  2  0  0  3  0  0  0  0  0  0
  192.0520  177.4410  143.2250 O   0  0  0  0  0  1  0  0  0  0  0  0
  190.8420  176.7800  143.4520 C   0  0  1  0  0  3  0  0  0  0  0  0
  190.5500  176.6360  144.9490 C   0  0  1  0  0  3  0  0  0  0  0  0
  191.5690  177.2040  145.7380 O   0  0  0  0  0  0  0  0  0  0  0  0
  190.1230  176.3250  147.3410 O   0  0  0  0  0  1  0  0  0  0  0  0
  191.4330  176.7300  147.0620 C   0  0  1  0  0  3  0  0  0  0  0  0
  192.4310  175.6290  147.3950 C   0  0  0  0  0  1  0  0  0  0  0  0
  1  2  1  1  0  0  0
  3  4  1  0  0  0  0
  4  1  1  0  0  0  0
  5 10  1  0  0  0  0
  6 10  1  0  0  0  0
  6 12  2  0  0  0  0
  7  8  1  0  0  0  0
  7 13  2  0  0  0  0
  8  5  2  0  0  0  0
  9  4  2  0  0  0  0
 10  3  2  0  0  0  0
 11 12  1  0  0  0  0
 12  9  1  0  0  0  0
 13  6  1  0  0  0  0
 15 14  1  1  0  0  0
 16 18  1  0  0  0  0
 17 15  1  0  0  0  0
 18 20  1  6  0  0  0
 18 15  1  0  0  0  0
 19  1  1  6  0  0  0
 19 16  1  0  0  0  0
 19 17  1  0  0  0  0
 21  1  1  6  0  0  0
 21 24  1  0  0  0  0
 23 22  1  1  0  0  0
 23 21  1  0  0  0  0
 23 24  1  0  0  0  0
 24 25  1  1  0  0  0
 25 27  1  0  0  0  0
 27 26  1  0  0  0  0
 27 28  1  6  0  0  0
M  END
>  <MODEL>
6

>  <REMARK>
 VINA RESULT:      -7.5      2.764      5.532
  Name = 
  5 active torsions:
  status: ('A' for Active; 'I' for Inactive)
    1  A    between atoms: C_2  and  C_8
    2  A    between atoms: C_5  and  O_12
    3  A    between atoms: C_6  and  C_8
    4  A    between atoms: C_8  and  C_22
    5  A    between atoms: O_12  and  C_18
                            x       y       z     vdW  Elec       q    Type
                         _______ _______ _______ _____ _____    ______ ____

>  <TORSDO>
F 5

$$$$
=
 OpenBabel11032420143D

 28 31  0  0  1  0  0  0  0  0999 V2000
  188.0910  178.2490  141.8700 C   0  0  1  0  0  0  0  0  0  0  0  0
  188.1590  179.6370  142.0290 O   0  0  0  0  0  1  0  0  0  0  0  0
  187.5980  178.3140  139.4210 N   0  0  0  0  0  0  0  0  0  0  0  0
  188.4320  177.9090  140.4210 C   0  0  0  0  0  0  0  0  0  0  0  0
  186.9500  178.4410  137.1300 C   0  0  0  0  0  3  0  0  0  0  0  0
  188.9490  177.2200  137.7670 C   0  0  0  0  0  0  0  0  0  0  0  0
  188.2870  177.3550  135.4710 N   0  0  0  0  0  0  0  0  0  0  0  0
  187.2000  178.1070  135.7970 C   0  0  0  0  0  3  0  0  0  0  0  0
  189.5500  177.1190  140.1060 C   0  0  0  0  0  3  0  0  0  0  0  0
  187.8270  177.9990  138.1200 C   0  0  0  0  0  0  0  0  0  0  0  0
  191.0170  175.9450  138.4800 C   0  0  0  0  0  1  0  0  0  0  0  0
  189.8170  176.7790  138.7790 C   0  0  0  0  0  0  0  0  0  0  0  0
  189.1580  176.9100  136.4170 C   0  0  0  0  0  3  0  0  0  0  0  0
  189.0810  177.0740  146.3580 C   0  0  0  0  0  1  0  0  0  0  0  0
  189.0760  177.8910  145.0770 C   0  0  2  0  0  3  0  0  0  0  0  0
  190.2640  178.5390  143.1830 C   0  0  0  0  0  2  0  0  0  0  0  0
  188.4880  177.1660  144.0270 O   0  0  0  0  0  0  0  0  0  0  0  0
  190.4590  178.3390  144.6490 C   0  0  2  0  0  3  0  0  0  0  0  0
  189.1100  177.6060  142.8380 C   0  0  1  0  0  3  0  0  0  0  0  0
  191.3980  177.3210  144.8430 O   0  0  0  0  0  1  0  0  0  0  0  0
  186.6650  177.8110  142.3030 C   0  0  2  0  0  3  0  0  0  0  0  0
  184.3900  177.9010  141.6020 O   0  0  0  0  0  1  0  0  0  0  0  0
  185.5470  178.6720  141.7380 C   0  0  1  0  0  3  0  0  0  0  0  0
  185.9630  178.8130  143.2060 C   0  0  1  0  0  3  0  0  0  0  0  0
  185.0810  178.1320  144.0670 O   0  0  0  0  0  0  0  0  0  0  0  0
  183.5240  179.1330  145.4840 O   0  0  0  0  0  1  0  0  0  0  0  0
  184.8820  178.9180  145.2250 C   0  0  1  0  0  3  0  0  0  0  0  0
  185.5910  178.3490  146.4470 C   0  0  0  0  0  1  0  0  0  0  0  0
  1  2  1  1  0  0  0
  3  4  1  0  0  0  0
  4  1  1  0  0  0  0
  5 10  1  0  0  0  0
  6 10  1  0  0  0  0
  6 12  2  0  0  0  0
  7  8  1  0  0  0  0
  7 13  2  0  0  0  0
  8  5  2  0  0  0  0
  9  4  2  0  0  0  0
 10  3  2  0  0  0  0
 11 12  1  0  0  0  0
 12  9  1  0  0  0  0
 13  6  1  0  0  0  0
 15 14  1  1  0  0  0
 16 18  1  0  0  0  0
 17 15  1  0  0  0  0
 18 20  1  6  0  0  0
 18 15  1  0  0  0  0
 19  1  1  6  0  0  0
 19 16  1  0  0  0  0
 19 17  1  0  0  0  0
 21  1  1  6  0  0  0
 21 24  1  0  0  0  0
 23 22  1  1  0  0  0
 23 21  1  0  0  0  0
 23 24  1  0  0  0  0
 24 25  1  1  0  0  0
 25 27  1  0  0  0  0
 27 26  1  0  0  0  0
 27 28  1  1  0  0  0
M  END
>  <MODEL>
7

>  <REMARK>
 VINA RESULT:      -7.5      2.953      6.245
  Name = 
  5 active torsions:
  status: ('A' for Active; 'I' for Inactive)
    1  A    between atoms: C_2  and  C_8
    2  A    between atoms: C_5  and  O_12
    3  A    between atoms: C_6  and  C_8
    4  A    between atoms: C_8  and  C_22
    5  A    between atoms: O_12  and  C_18
                            x       y       z     vdW  Elec       q    Type
                         _______ _______ _______ _____ _____    ______ ____

>  <TORSDO>
F 5

$$$$
=
 OpenBabel11032420143D

 28 31  0  0  1  0  0  0  0  0999 V2000
  188.2950  178.1330  142.0200 C   0  0  1  0  0  0  0  0  0  0  0  0
  188.3920  179.5210  142.1650 O   0  0  0  0  0  1  0  0  0  0  0  0
  189.7640  177.1280  140.2660 N   0  0  0  0  0  0  0  0  0  0  0  0
  188.6010  177.7730  140.5690 C   0  0  0  0  0  0  0  0  0  0  0  0
  191.3060  176.1600  138.7260 C   0  0  0  0  0  3  0  0  0  0  0  0
  189.2600  177.1890  137.9210 C   0  0  0  0  0  0  0  0  0  0  0  0
  190.8170  176.2140  136.3860 N   0  0  0  0  0  0  0  0  0  0  0  0
  191.6460  175.8580  137.4060 C   0  0  0  0  0  3  0  0  0  0  0  0
  187.7400  178.1610  139.5290 C   0  0  0  0  0  3  0  0  0  0  0  0
  190.1090  176.8260  138.9870 C   0  0  0  0  0  0  0  0  0  0  0  0
  187.1220  178.2860  137.1250 C   0  0  0  0  0  1  0  0  0  0  0  0
  188.0620  177.8650  138.2040 C   0  0  0  0  0  0  0  0  0  0  0  0
  189.6440  176.8650  136.6130 C   0  0  0  0  0  3  0  0  0  0  0  0
  189.4270  177.1250  146.5160 C   0  0  0  0  0  1  0  0  0  0  0  0
  189.4090  177.8760  145.1950 C   0  0  2  0  0  3  0  0  0  0  0  0
  190.5410  178.3580  143.2180 C   0  0  0  0  0  2  0  0  0  0  0  0
  188.7300  177.1360  144.2110 O   0  0  0  0  0  0  0  0  0  0  0  0
  190.7930  178.2190  144.6830 C   0  0  2  0  0  3  0  0  0  0  0  0
  189.3200  177.4790  142.9740 C   0  0  1  0  0  3  0  0  0  0  0  0
  191.6810  177.1580  144.8890 O   0  0  0  0  0  1  0  0  0  0  0  0
  186.8690  177.7260  142.4850 C   0  0  2  0  0  3  0  0  0  0  0  0
  184.5810  177.8780  141.8410 O   0  0  0  0  0  1  0  0  0  0  0  0
  185.7600  178.6190  141.9540 C   0  0  1  0  0  3  0  0  0  0  0  0
  186.2140  178.7380  143.4120 C   0  0  1  0  0  3  0  0  0  0  0  0
  185.3370  178.0730  144.2900 O   0  0  0  0  0  0  0  0  0  0  0  0
  183.8050  179.0030  145.7800 O   0  0  0  0  0  1  0  0  0  0  0  0
  185.1570  178.8720  145.4410 C   0  0  1  0  0  3  0  0  0  0  0  0
  185.9750  178.3800  146.6280 C   0  0  0  0  0  1  0  0  0  0  0  0
  1  2  1  1  0  0  0
  3  4  1  0  0  0  0
  4  1  1  0  0  0  0
  5 10  1  0  0  0  0
  6 12  2  0  0  0  0
  6 10  1  0  0  0  0
  7 13  2  0  0  0  0
  7  8  1  0  0  0  0
  8  5  2  0  0  0  0
  9  4  2  0  0  0  0
 10  3  2  0  0  0  0
 11 12  1  0  0  0  0
 12  9  1  0  0  0  0
 13  6  1  0  0  0  0
 15 14  1  1  0  0  0
 16 18  1  0  0  0  0
 17 15  1  0  0  0  0
 18 20  1  6  0  0  0
 18 15  1  0  0  0  0
 19  1  1  6  0  0  0
 19 16  1  0  0  0  0
 19 17  1  0  0  0  0
 21  1  1  6  0  0  0
 21 24  1  0  0  0  0
 23 22  1  1  0  0  0
 23 21  1  0  0  0  0
 23 24  1  0  0  0  0
 24 25  1  1  0  0  0
 25 27  1  0  0  0  0
 27 26  1  0  0  0  0
 27 28  1  1  0  0  0
M  END
>  <MODEL>
8

>  <REMARK>
 VINA RESULT:      -7.2      2.893      6.554
  Name = 
  5 active torsions:
  status: ('A' for Active; 'I' for Inactive)
    1  A    between atoms: C_2  and  C_8
    2  A    between atoms: C_5  and  O_12
    3  A    between atoms: C_6  and  C_8
    4  A    between atoms: C_8  and  C_22
    5  A    between atoms: O_12  and  C_18
                            x       y       z     vdW  Elec       q    Type
                         _______ _______ _______ _____ _____    ______ ____

>  <TORSDO>
F 5

$$$$
=
 OpenBabel11032420143D

 28 31  0  0  1  0  0  0  0  0999 V2000
  187.8610  178.0450  142.4350 C   0  0  1  0  0  0  0  0  0  0  0  0
  188.1460  179.3730  142.0990 O   0  0  0  0  0  1  0  0  0  0  0  0
  189.7130  177.2310  143.9030 N   0  0  0  0  0  0  0  0  0  0  0  0
  188.4570  177.7530  143.8110 C   0  0  0  0  0  0  0  0  0  0  0  0
  191.5650  176.3830  145.1430 C   0  0  0  0  0  3  0  0  0  0  0  0
  189.5510  177.1000  146.2930 C   0  0  0  0  0  0  0  0  0  0  0  0
  191.4160  176.2460  147.5260 N   0  0  0  0  0  0  0  0  0  0  0  0
  192.1250  176.0560  146.3800 C   0  0  0  0  0  3  0  0  0  0  0  0
  187.7040  177.9430  144.9810 C   0  0  0  0  0  3  0  0  0  0  0  0
  190.2730  176.9090  145.0970 C   0  0  0  0  0  0  0  0  0  0  0  0
  187.4240  177.8440  147.4490 C   0  0  0  0  0  1  0  0  0  0  0  0
  188.2500  177.6240  146.2260 C   0  0  0  0  0  0  0  0  0  0  0  0
  190.1540  176.7560  147.5090 C   0  0  0  0  0  3  0  0  0  0  0  0
  183.7570  178.9250  140.2250 C   0  0  0  0  0  1  0  0  0  0  0  0
  184.9030  179.1040  141.2060 C   0  0  2  0  0  3  0  0  0  0  0  0
  185.6380  178.8530  143.4010 C   0  0  0  0  0  2  0  0  0  0  0  0
  185.7730  178.0020  141.1630 O   0  0  0  0  0  0  0  0  0  0  0  0
  184.4400  179.3080  142.6340 C   0  0  2  0  0  3  0  0  0  0  0  0
  186.3250  177.8750  142.4570 C   0  0  1  0  0  3  0  0  0  0  0  0
  183.3660  178.4650  142.9380 O   0  0  0  0  0  1  0  0  0  0  0  0
  188.4340  177.1550  141.2980 C   0  0  2  0  0  3  0  0  0  0  0  0
  190.4920  176.3210  140.4360 O   0  0  0  0  0  1  0  0  0  0  0  0
  189.8690  177.4770  140.9150 C   0  0  1  0  0  3  0  0  0  0  0  0
  188.7130  177.9120  140.0090 C   0  0  1  0  0  3  0  0  0  0  0  0
  188.5530  177.0450  138.9110 O   0  0  0  0  0  0  0  0  0  0  0  0
  186.9120  178.5210  138.1630 O   0  0  0  0  0  1  0  0  0  0  0  0
  188.0510  177.7860  137.8180 C   0  0  1  0  0  3  0  0  0  0  0  0
  189.1090  178.6800  137.1810 C   0  0  0  0  0  1  0  0  0  0  0  0
  1  2  1  6  0  0  0
  1  4  1  0  0  0  0
  3 10  1  0  0  0  0
  4  3  2  0  0  0  0
  4  9  1  0  0  0  0
  5  8  1  0  0  0  0
  6 13  2  0  0  0  0
  8  7  2  0  0  0  0
  9 12  2  0  0  0  0
 10  5  2  0  0  0  0
 10  6  1  0  0  0  0
 12  6  1  0  0  0  0
 12 11  1  0  0  0  0
 13  7  1  0  0  0  0
 15 14  1  6  0  0  0
 15 18  1  0  0  0  0
 17 15  1  0  0  0  0
 17 19  1  0  0  0  0
 18 20  1  1  0  0  0
 18 16  1  0  0  0  0
 19  1  1  6  0  0  0
 19 16  1  0  0  0  0
 21  1  1  1  0  0  0
 23 22  1  6  0  0  0
 23 21  1  0  0  0  0
 24 25  1  6  0  0  0
 24 23  1  0  0  0  0
 24 21  1  0  0  0  0
 27 28  1  1  0  0  0
 27 26  1  0  0  0  0
 27 25  1  0  0  0  0
M  END
>  <MODEL>
9

>  <REMARK>
 VINA RESULT:      -7.2      2.712      5.760
  Name = 
  5 active torsions:
  status: ('A' for Active; 'I' for Inactive)
    1  A    between atoms: C_2  and  C_8
    2  A    between atoms: C_5  and  O_12
    3  A    between atoms: C_6  and  C_8
    4  A    between atoms: C_8  and  C_22
    5  A    between atoms: O_12  and  C_18
                            x       y       z     vdW  Elec       q    Type
                         _______ _______ _______ _____ _____    ______ ____

>  <TORSDO>
F 5

$$$$
