=
 OpenBabel11042413123D

 32 37  0  0  1  0  0  0  0  0999 V2000
  186.1020  178.5050  144.6550 C   0  0  0  0  0  3  0  0  0  0  0  0
  188.5710  177.5230  141.0590 C   0  0  0  0  0  0  0  0  0  0  0  0
  185.1950  178.8860  143.6410 C   0  0  0  0  0  0  0  0  0  0  0  0
  185.5490  178.7590  142.2840 C   0  0  0  0  0  3  0  0  0  0  0  0
  188.8050  177.3970  142.3960 N   0  0  0  0  0  0  0  0  0  0  0  0
  187.3430  178.0330  140.7770 N   0  0  0  0  0  0  0  0  0  0  0  0
  187.6790  177.8610  142.9710 C   0  0  0  0  0  0  0  0  0  0  0  0
  186.8060  178.2350  141.9930 C   0  0  0  0  0  0  0  0  0  0  0  0
  187.3650  177.9810  144.3250 C   0  0  0  0  0  3  0  0  0  0  0  0
  189.2240  176.7630  138.7150 C   0  0  0  0  0  0  0  0  0  0  0  0
  190.4690  176.5130  138.0440 C   0  0  0  0  0  0  0  0  0  0  0  0
  190.4610  176.1320  136.6920 C   0  0  0  0  0  0  0  0  0  0  0  0
  191.4470  176.8080  138.9870 C   0  0  0  0  0  0  0  0  0  0  0  0
  193.1850  176.8640  138.7520 Cl  0  0  0  0  0  0  0  0  0  0  0  0
  188.0550  176.3050  136.6960 C   0  0  0  0  0  3  0  0  0  0  0  0
  189.2460  176.0520  136.0680 N   0  0  0  0  0  0  0  0  0  0  0  0
  189.5350  177.1520  140.0000 C   0  0  1  0  0  3  0  0  0  0  0  0
  190.8800  177.1840  140.1570 N   0  0  0  0  0  0  0  0  0  0  0  0
  188.0100  176.6680  138.0490 C   0  0  0  0  0  3  0  0  0  0  0  0
  192.4430  174.8700  136.3280 O   0  0  0  0  0  0  0  0  0  0  0  0
  191.9070  176.3850  134.6630 N   0  0  0  0  0  1  0  0  0  0  0  0
  191.6650  175.7730  135.9250 C   0  0  0  0  0  0  0  0  0  0  0  0
  190.9340  176.9040  145.2720 C   0  0  2  0  0  0  0  0  0  0  0  0
  191.0820  178.0580  143.1380 C   0  0  1  0  0  3  0  0  0  0  0  0
  190.4150  177.4090  146.4650 O   0  0  0  0  0  1  0  0  0  0  0  0
  191.6390  178.0120  144.4910 C   0  0  1  0  0  3  0  0  0  0  0  0
  190.0450  176.9430  143.0360 C   0  0  1  0  0  3  0  0  0  0  0  0
  189.8130  176.3600  144.4130 C   0  0  0  0  0  2  0  0  0  0  0  0
  191.9220  175.7960  145.5820 C   0  0  0  0  0  1  0  0  0  0  0  0
  190.6860  179.0750  144.1270 N   0  0  0  0  0  2  0  0  0  0  0  0
  183.5550  179.1180  145.3860 N   0  0  0  0  0  1  0  0  0  0  0  0
  183.8720  179.4590  144.0100 C   0  0  0  0  0  2  0  0  0  0  0  0
  2  5  1  0  0  0  0
  3 32  1  0  0  0  0
  3  1  2  0  0  0  0
  4  3  1  0  0  0  0
  5  7  1  0  0  0  0
  6  2  2  0  0  0  0
  6  8  1  0  0  0  0
  7  9  2  0  0  0  0
  8  4  2  0  0  0  0
  8  7  1  0  0  0  0
  9  1  1  0  0  0  0
 10 17  1  0  0  0  0
 11 10  2  0  0  0  0
 11 13  1  0  0  0  0
 12 11  1  0  0  0  0
 13 18  2  0  0  0  0
 14 13  1  0  0  0  0
 15 19  2  0  0  0  0
 16 12  2  0  0  0  0
 16 15  1  0  0  0  0
 17 18  1  0  0  0  0
 17  2  1  6  0  0  0
 19 10  1  0  0  0  0
 21 22  1  0  0  0  0
 22 20  2  0  0  0  0
 22 12  1  0  0  0  0
 23 29  1  1  0  0  0
 23 25  1  0  0  0  0
 24 30  1  1  0  0  0
 24 26  1  0  0  0  0
 26 30  1  1  0  0  0
 26 23  1  0  0  0  0
 27  5  1  1  0  0  0
 27 24  1  0  0  0  0
 27 28  1  0  0  0  0
 28 23  1  0  0  0  0
 32 31  1  0  0  0  0
M  END
>  <MODEL>
1

>  <REMARK>
 VINA RESULT:      -8.6      0.000      0.000
  Name = 
  4 active torsions:
  status: ('A' for Active; 'I' for Inactive)
    1  A    between atoms: C_5  and  C_27
    2  A    between atoms: C_6  and  C_26
    3  A    between atoms: C_9  and  C_29
    4  A    between atoms: N_16  and  C_20
                            x       y       z     vdW  Elec       q    Type
                         _______ _______ _______ _____ _____    ______ ____

>  <TORSDO>
F 4

$$$$
=
 OpenBabel11042413123D

 32 37  0  0  1  0  0  0  0  0999 V2000
  190.5540  177.3340  138.7900 C   0  0  0  0  0  3  0  0  0  0  0  0
  186.6100  178.3410  140.6370 C   0  0  0  0  0  0  0  0  0  0  0  0
  189.7730  177.4440  137.6190 C   0  0  0  0  0  0  0  0  0  0  0  0
  188.4020  177.7570  137.7030 C   0  0  0  0  0  3  0  0  0  0  0  0
  187.8410  178.1090  141.1730 N   0  0  0  0  0  0  0  0  0  0  0  0
  186.5930  178.2630  139.2800 N   0  0  0  0  0  0  0  0  0  0  0  0
  188.6210  177.8620  140.1030 C   0  0  0  0  0  0  0  0  0  0  0  0
  187.8660  177.9620  138.9720 C   0  0  0  0  0  0  0  0  0  0  0  0
  189.9800  177.5460  140.0570 C   0  0  0  0  0  3  0  0  0  0  0  0
  184.0920  178.4890  141.0110 C   0  0  0  0  0  0  0  0  0  0  0  0
  183.2550  178.9030  142.1020 C   0  0  1  0  0  3  0  0  0  0  0  0
  181.8590  178.8120  141.9750 C   0  0  0  0  0  0  0  0  0  0  0  0
  184.1390  179.2550  143.1150 C   0  0  0  0  0  0  0  0  0  0  0  0
  183.7590  179.6930  144.7710 Cl  0  0  0  0  0  0  0  0  0  0  0  0
  182.1570  177.8810  139.7700 C   0  0  0  0  0  3  0  0  0  0  0  0
  181.3650  178.2930  140.8090 N   0  0  0  0  0  0  0  0  0  0  0  0
  185.3960  178.6490  141.4260 C   0  0  0  0  0  0  0  0  0  0  0  0
  185.4200  179.1060  142.7010 N   0  0  0  0  0  0  0  0  0  0  0  0
  183.5540  177.9700  139.8410 C   0  0  0  0  0  3  0  0  0  0  0  0
  180.3730  180.4180  142.9060 O   0  0  0  0  0  0  0  0  0  0  0  0
  180.4960  178.4010  144.0360 N   0  0  0  0  0  1  0  0  0  0  0  0
  180.9030  179.2810  142.9920 C   0  0  0  0  0  0  0  0  0  0  0  0
  190.1270  177.4560  143.8920 C   0  0  2  0  0  0  0  0  0  0  0  0
  187.9310  176.6770  143.2000 C   0  0  1  0  0  3  0  0  0  0  0  0
  191.3630  176.9460  143.4940 O   0  0  0  0  0  1  0  0  0  0  0  0
  189.1010  176.3300  144.0090 C   0  0  1  0  0  3  0  0  0  0  0  0
  188.1890  178.0550  142.5970 C   0  0  1  0  0  3  0  0  0  0  0  0
  189.6260  178.4480  142.8640 C   0  0  0  0  0  2  0  0  0  0  0  0
  190.2760  178.1470  145.2340 C   0  0  0  0  0  1  0  0  0  0  0  0
  188.8950  175.6810  142.7030 N   0  0  0  0  0  2  0  0  0  0  0  0
  189.4120  177.4100  135.2400 N   0  0  0  0  0  1  0  0  0  0  0  0
  190.3940  177.1950  136.2890 C   0  0  0  0  0  2  0  0  0  0  0  0
  1  9  1  0  0  0  0
  2  5  1  0  0  0  0
  2 17  1  0  0  0  0
  3  4  1  0  0  0  0
  3  1  2  0  0  0  0
  4  8  2  0  0  0  0
  6  2  2  0  0  0  0
  7  5  1  0  0  0  0
  8  6  1  0  0  0  0
  8  7  1  0  0  0  0
  9  7  2  0  0  0  0
 10 17  2  0  0  0  0
 11 10  1  1  0  0  0
 11 13  1  0  0  0  0
 12 11  1  0  0  0  0
 12 22  1  0  0  0  0
 13 14  1  0  0  0  0
 15 19  2  0  0  0  0
 15 16  1  0  0  0  0
 16 12  2  0  0  0  0
 17 18  1  0  0  0  0
 18 13  2  0  0  0  0
 19 10  1  0  0  0  0
 20 22  2  0  0  0  0
 22 21  1  0  0  0  0
 23 26  1  0  0  0  0
 23 29  1  1  0  0  0
 24 30  1  6  0  0  0
 24 26  1  0  0  0  0
 25 23  1  0  0  0  0
 26 30  1  6  0  0  0
 27  5  1  6  0  0  0
 27 28  1  0  0  0  0
 27 24  1  0  0  0  0
 28 23  1  0  0  0  0
 31 32  1  0  0  0  0
 32  3  1  0  0  0  0
M  END
>  <MODEL>
2

>  <REMARK>
 VINA RESULT:      -8.3      3.526      7.476
  Name = 
  4 active torsions:
  status: ('A' for Active; 'I' for Inactive)
    1  A    between atoms: C_5  and  C_27
    2  A    between atoms: C_6  and  C_26
    3  A    between atoms: C_9  and  C_29
    4  A    between atoms: N_16  and  C_20
                            x       y       z     vdW  Elec       q    Type
                         _______ _______ _______ _____ _____    ______ ____

>  <TORSDO>
F 4

$$$$
=
 OpenBabel11042413123D

 32 37  0  0  1  0  0  0  0  0999 V2000
  191.9910  175.8560  136.0500 C   0  0  0  0  0  3  0  0  0  0  0  0
  189.6550  177.0780  139.6600 C   0  0  0  0  0  0  0  0  0  0  0  0
  193.0570  176.0740  136.9510 C   0  0  0  0  0  0  0  0  0  0  0  0
  192.8000  176.4950  138.2700 C   0  0  0  0  0  3  0  0  0  0  0  0
  189.2760  176.6990  138.4070 N   0  0  0  0  0  0  0  0  0  0  0  0
  191.0030  177.0650  139.8390 N   0  0  0  0  0  0  0  0  0  0  0  0
  190.4400  176.4520  137.7750 C   0  0  0  0  0  0  0  0  0  0  0  0
  191.4690  176.6680  138.6420 C   0  0  0  0  0  0  0  0  0  0  0  0
  190.6580  176.0430  136.4580 C   0  0  0  0  0  3  0  0  0  0  0  0
  188.8130  177.1200  142.0660 C   0  0  0  0  0  0  0  0  0  0  0  0
  187.6990  177.7310  142.7360 C   0  0  0  0  0  0  0  0  0  0  0  0
  187.5580  177.5740  144.1250 C   0  0  0  0  0  0  0  0  0  0  0  0
  187.0300  178.4380  141.7440 C   0  0  0  0  0  0  0  0  0  0  0  0
  185.6740  179.5350  141.9320 Cl  0  0  0  0  0  0  0  0  0  0  0  0
  189.6010  176.2920  144.1510 C   0  0  0  0  0  3  0  0  0  0  0  0
  188.5270  176.8630  144.7800 N   0  0  0  0  0  2  0  0  0  0  0  0
  188.7180  177.4700  140.7360 C   0  0  0  0  0  0  0  0  0  0  0  0
  187.6440  178.2720  140.5480 N   0  0  0  0  0  0  0  0  0  0  0  0
  189.7750  176.4030  142.7640 C   0  0  0  0  0  3  0  0  0  0  0  0
  185.2390  177.9580  144.4850 O   0  0  0  0  0  0  0  0  0  0  0  0
  186.6400  178.6440  146.1950 N   0  0  0  0  0  1  0  0  0  0  0  0
  186.4180  178.0840  144.9040 C   0  0  0  0  0  0  0  0  0  0  0  0
  186.8740  176.0100  135.7980 C   0  0  2  0  0  0  0  0  0  0  0  0
  187.5630  177.9400  137.1050 C   0  0  1  0  0  3  0  0  0  0  0  0
  187.4370  175.5610  134.6020 O   0  0  0  0  0  1  0  0  0  0  0  0
  186.9080  177.5360  135.8600 C   0  0  1  0  0  3  0  0  0  0  0  0
  187.9120  176.6660  137.8690 C   0  0  1  0  0  3  0  0  0  0  0  0
  187.6650  175.4720  136.9720 C   0  0  0  0  0  2  0  0  0  0  0  0
  185.4390  175.5300  135.8900 C   0  0  0  0  0  1  0  0  0  0  0  0
  188.2970  178.0240  135.8320 N   0  0  0  0  0  2  0  0  0  0  0  0
  194.8930  177.0660  135.7540 N   0  0  0  0  0  1  0  0  0  0  0  0
  194.4610  175.8920  136.4930 C   0  0  0  0  0  2  0  0  0  0  0  0
  1  9  2  0  0  0  0
  1  3  1  0  0  0  0
  2  6  2  0  0  0  0
  2 17  1  0  0  0  0
  3  4  2  0  0  0  0
  4  8  1  0  0  0  0
  5  2  1  0  0  0  0
  7  5  1  0  0  0  0
  7  8  2  0  0  0  0
  8  6  1  0  0  0  0
  9  7  1  0  0  0  0
 10 11  1  0  0  0  0
 10 19  1  0  0  0  0
 11 12  2  0  0  0  0
 12 16  1  0  0  0  0
 12 22  1  0  0  0  0
 13 14  1  0  0  0  0
 13 11  1  0  0  0  0
 15 16  1  0  0  0  0
 17 10  2  0  0  0  0
 18 17  1  0  0  0  0
 18 13  2  0  0  0  0
 19 15  2  0  0  0  0
 20 22  2  0  0  0  0
 22 21  1  0  0  0  0
 23 26  1  0  0  0  0
 23 29  1  1  0  0  0
 23 28  1  0  0  0  0
 24 30  1  6  0  0  0
 24 27  1  0  0  0  0
 25 23  1  0  0  0  0
 26 30  1  6  0  0  0
 26 24  1  0  0  0  0
 27 28  1  6  0  0  0
 27  5  1  0  0  0  0
 31 32  1  0  0  0  0
 32  3  1  0  0  0  0
M  END
>  <MODEL>
3

>  <REMARK>
 VINA RESULT:      -8.1      2.607      8.655
  Name = 
  4 active torsions:
  status: ('A' for Active; 'I' for Inactive)
    1  A    between atoms: C_5  and  C_27
    2  A    between atoms: C_6  and  C_26
    3  A    between atoms: C_9  and  C_29
    4  A    between atoms: N_16  and  C_20
                            x       y       z     vdW  Elec       q    Type
                         _______ _______ _______ _____ _____    ______ ____

>  <TORSDO>
F 4

$$$$
=
 OpenBabel11042413123D

 32 37  0  0  1  0  0  0  0  0999 V2000
  190.0730  177.4310  141.1570 C   0  0  0  0  0  3  0  0  0  0  0  0
  185.9000  178.6490  140.1140 C   0  0  0  0  0  0  0  0  0  0  0  0
  189.6530  177.9160  142.4160 C   0  0  0  0  0  0  0  0  0  0  0  0
  188.3530  178.4320  142.5830 C   0  0  0  0  0  3  0  0  0  0  0  0
  186.8990  178.0780  139.3840 N   0  0  0  0  0  0  0  0  0  0  0  0
  186.2450  178.8740  141.4100 N   0  0  0  0  0  0  0  0  0  0  0  0
  187.9150  177.9540  140.2600 C   0  0  0  0  0  0  0  0  0  0  0  0
  187.5120  178.4280  141.4740 C   0  0  0  0  0  0  0  0  0  0  0  0
  189.1980  177.4440  140.0560 C   0  0  0  0  0  3  0  0  0  0  0  0
  183.4990  178.1420  139.4210 C   0  0  0  0  0  0  0  0  0  0  0  0
  182.4180  178.9190  138.8830 C   0  0  0  0  0  0  0  0  0  0  0  0
  181.1760  178.3050  138.6490 C   0  0  0  0  0  0  0  0  0  0  0  0
  182.9200  180.2120  138.7890 C   0  0  0  0  0  0  0  0  0  0  0  0
  182.0520  181.6740  138.3580 Cl  0  0  0  0  0  0  0  0  0  0  0  0
  182.0740  176.2410  139.5140 C   0  0  0  0  0  3  0  0  0  0  0  0
  181.0530  176.9850  138.9850 N   0  0  0  0  0  2  0  0  0  0  0  0
  184.5660  179.0010  139.5800 C   0  0  0  0  0  0  0  0  0  0  0  0
  184.2090  180.2510  139.2030 N   0  0  0  0  0  0  0  0  0  0  0  0
  183.3380  176.8030  139.7470 C   0  0  0  0  0  3  0  0  0  0  0  0
  179.1310  179.5150  138.7330 O   0  0  0  0  0  0  0  0  0  0  0  0
  179.9620  179.1090  136.6110 N   0  0  0  0  0  1  0  0  0  0  0  0
  180.0240  178.9780  138.0280 C   0  0  0  0  0  0  0  0  0  0  0  0
  188.4450  176.9230  136.3310 C   0  0  2  0  0  0  0  0  0  0  0  0
  187.3360  178.9450  137.0980 C   0  0  1  0  0  3  0  0  0  0  0  0
  189.8000  176.6090  136.4550 O   0  0  0  0  0  1  0  0  0  0  0  0
  188.2680  178.4230  136.0970 C   0  0  1  0  0  3  0  0  0  0  0  0
  186.8780  177.7660  137.9510 C   0  0  1  0  0  3  0  0  0  0  0  0
  187.7140  176.5530  137.6030 C   0  0  0  0  0  2  0  0  0  0  0  0
  187.8560  176.1560  135.1630 C   0  0  0  0  0  1  0  0  0  0  0  0
  188.7810  179.1890  137.2460 N   0  0  0  0  0  2  0  0  0  0  0  0
  190.9680  179.2790  143.9000 N   0  0  0  0  0  1  0  0  0  0  0  0
  190.6010  177.9140  143.5630 C   0  0  0  0  0  2  0  0  0  0  0  0
  1  3  1  0  0  0  0
  2  6  2  0  0  0  0
  3  4  2  0  0  0  0
  3 32  1  0  0  0  0
  5  2  1  0  0  0  0
  5  7  1  0  0  0  0
  6  8  1  0  0  0  0
  7  8  2  0  0  0  0
  8  4  1  0  0  0  0
  9  7  1  0  0  0  0
  9  1  2  0  0  0  0
 10 17  2  0  0  0  0
 10 19  1  0  0  0  0
 11 10  1  0  0  0  0
 12 11  2  0  0  0  0
 12 16  1  0  0  0  0
 13 11  1  0  0  0  0
 13 18  2  0  0  0  0
 14 13  1  0  0  0  0
 15 19  2  0  0  0  0
 16 15  1  0  0  0  0
 17  2  1  0  0  0  0
 18 17  1  0  0  0  0
 21 22  1  0  0  0  0
 22 12  1  0  0  0  0
 22 20  2  0  0  0  0
 23 29  1  6  0  0  0
 23 25  1  0  0  0  0
 23 28  1  0  0  0  0
 24 30  1  1  0  0  0
 24 27  1  0  0  0  0
 26 23  1  0  0  0  0
 26 24  1  0  0  0  0
 26 30  1  1  0  0  0
 27 28  1  1  0  0  0
 27  5  1  0  0  0  0
 32 31  1  0  0  0  0
M  END
>  <MODEL>
4

>  <REMARK>
 VINA RESULT:      -7.9      4.723      7.853
  Name = 
  4 active torsions:
  status: ('A' for Active; 'I' for Inactive)
    1  A    between atoms: C_5  and  C_27
    2  A    between atoms: C_6  and  C_26
    3  A    between atoms: C_9  and  C_29
    4  A    between atoms: N_16  and  C_20
                            x       y       z     vdW  Elec       q    Type
                         _______ _______ _______ _____ _____    ______ ____

>  <TORSDO>
F 4

$$$$
=
 OpenBabel11042413123D

 32 37  0  0  1  0  0  0  0  0999 V2000
  179.9460  180.2730  137.1690 C   0  0  0  0  0  3  0  0  0  0  0  0
  183.8580  179.4310  139.1620 C   0  0  0  0  0  0  0  0  0  0  0  0
  180.3380  181.5950  137.4740 C   0  0  0  0  0  0  0  0  0  0  0  0
  181.5550  181.8420  138.1380 C   0  0  0  0  0  3  0  0  0  0  0  0
  182.9250  178.6180  138.5920 N   0  0  0  0  0  0  0  0  0  0  0  0
  183.5320  180.7500  139.0940 N   0  0  0  0  0  0  0  0  0  0  0  0
  181.9710  179.4660  138.1610 C   0  0  0  0  0  0  0  0  0  0  0  0
  182.3460  180.7420  138.4610 C   0  0  0  0  0  0  0  0  0  0  0  0
  180.7680  179.1840  137.5110 C   0  0  0  0  0  3  0  0  0  0  0  0
  185.2890  178.6970  141.1400 C   0  0  0  0  0  0  0  0  0  0  0  0
  186.6460  178.2530  141.2960 C   0  0  0  0  0  0  0  0  0  0  0  0
  187.1080  177.8780  142.5690 C   0  0  0  0  0  0  0  0  0  0  0  0
  187.1710  178.2520  140.0090 C   0  0  0  0  0  0  0  0  0  0  0  0
  188.7360  177.6590  139.4860 Cl  0  0  0  0  0  0  0  0  0  0  0  0
  184.9120  178.3290  143.4590 C   0  0  0  0  0  3  0  0  0  0  0  0
  186.2130  177.9230  143.6020 N   0  0  0  0  0  2  0  0  0  0  0  0
  185.1060  178.9570  139.7990 C   0  0  0  0  0  0  0  0  0  0  0  0
  186.2440  178.6810  139.1190 N   0  0  0  0  0  0  0  0  0  0  0  0
  184.4100  178.7330  142.2140 C   0  0  0  0  0  3  0  0  0  0  0  0
  189.4180  178.3400  142.8880 O   0  0  0  0  0  0  0  0  0  0  0  0
  188.7880  176.1370  143.2190 N   0  0  0  0  0  1  0  0  0  0  0  0
  188.4960  177.4850  142.8630 C   0  0  0  0  0  0  0  0  0  0  0  0
  181.3950  175.4160  137.9170 C   0  0  2  0  0  0  0  0  0  0  0  0
  182.3840  176.5360  139.8340 C   0  0  1  0  0  3  0  0  0  0  0  0
  180.0680  175.4900  137.4930 O   0  0  0  0  0  1  0  0  0  0  0  0
  181.4680  175.4640  139.4430 C   0  0  1  0  0  3  0  0  0  0  0  0
  182.9370  177.1510  138.5520 C   0  0  1  0  0  3  0  0  0  0  0  0
  182.1760  176.5910  137.3700 C   0  0  0  0  0  2  0  0  0  0  0  0
  182.0100  174.1210  137.4210 C   0  0  0  0  0  1  0  0  0  0  0  0
  180.9290  176.7390  139.9460 N   0  0  0  0  0  2  0  0  0  0  0  0
  179.9970  183.9710  137.6410 N   0  0  0  0  0  1  0  0  0  0  0  0
  179.4440  182.7320  137.1230 C   0  0  0  0  0  2  0  0  0  0  0  0
  1  3  2  0  0  0  0
  1  9  1  0  0  0  0
  2 17  1  0  0  0  0
  3  4  1  0  0  0  0
  4  8  2  0  0  0  0
  5  2  1  0  0  0  0
  6  2  2  0  0  0  0
  7  8  1  0  0  0  0
  7  5  1  0  0  0  0
  8  6  1  0  0  0  0
  9  7  2  0  0  0  0
 10 11  1  0  0  0  0
 10 19  1  0  0  0  0
 11 12  2  0  0  0  0
 12 22  1  0  0  0  0
 12 16  1  0  0  0  0
 13 11  1  0  0  0  0
 14 13  1  0  0  0  0
 15 16  1  0  0  0  0
 17 10  2  0  0  0  0
 18 17  1  0  0  0  0
 18 13  2  0  0  0  0
 19 15  2  0  0  0  0
 22 20  2  0  0  0  0
 22 21  1  0  0  0  0
 23 29  1  6  0  0  0
 23 26  1  0  0  0  0
 24 30  1  6  0  0  0
 25 23  1  0  0  0  0
 26 24  1  0  0  0  0
 26 30  1  1  0  0  0
 27 28  1  6  0  0  0
 27  5  1  0  0  0  0
 27 24  1  0  0  0  0
 28 23  1  0  0  0  0
 32  3  1  0  0  0  0
 32 31  1  0  0  0  0
M  END
>  <MODEL>
5

>  <REMARK>
 VINA RESULT:      -7.9      5.495      8.417
  Name = 
  4 active torsions:
  status: ('A' for Active; 'I' for Inactive)
    1  A    between atoms: C_5  and  C_27
    2  A    between atoms: C_6  and  C_26
    3  A    between atoms: C_9  and  C_29
    4  A    between atoms: N_16  and  C_20
                            x       y       z     vdW  Elec       q    Type
                         _______ _______ _______ _____ _____    ______ ____

>  <TORSDO>
F 4

$$$$
=
 OpenBabel11042413123D

 32 37  0  0  1  0  0  0  0  0999 V2000
  189.5630  176.9030  147.6920 C   0  0  0  0  0  3  0  0  0  0  0  0
  188.6420  177.6950  143.3890 C   0  0  0  0  0  0  0  0  0  0  0  0
  190.8790  176.9690  147.1830 C   0  0  0  0  0  0  0  0  0  0  0  0
  191.1020  177.2060  145.8120 C   0  0  0  0  0  3  0  0  0  0  0  0
  187.8460  177.5310  144.4840 N   0  0  0  0  0  0  0  0  0  0  0  0
  189.9690  177.6140  143.6760 N   0  0  0  0  0  0  0  0  0  0  0  0
  188.7140  177.3260  145.4920 C   0  0  0  0  0  0  0  0  0  0  0  0
  189.9850  177.3830  145.0000 C   0  0  0  0  0  0  0  0  0  0  0  0
  188.4560  177.0850  146.8430 C   0  0  0  0  0  3  0  0  0  0  0  0
  188.8070  177.6430  140.8460 C   0  0  0  0  0  0  0  0  0  0  0  0
  187.9420  178.0380  139.7690 C   0  0  0  0  0  0  0  0  0  0  0  0
  188.3480  177.8210  138.4420 C   0  0  0  0  0  0  0  0  0  0  0  0
  186.7940  178.5160  140.3910 C   0  0  0  0  0  0  0  0  0  0  0  0
  185.2860  179.0030  139.6380 Cl  0  0  0  0  0  0  0  0  0  0  0  0
  190.3760  176.8090  139.2670 C   0  0  0  0  0  3  0  0  0  0  0  0
  189.5530  177.2030  138.2450 N   0  0  0  0  0  0  0  0  0  0  0  0
  188.1430  177.9360  142.0170 C   0  0  1  0  0  3  0  0  0  0  0  0
  186.9240  178.4570  141.7370 N   0  0  0  0  0  0  0  0  0  0  0  0
  190.0240  177.0210  140.6070 C   0  0  0  0  0  3  0  0  0  0  0  0
  187.6580  179.4400  136.8430 O   0  0  0  0  0  0  0  0  0  0  0  0
  186.8260  177.3040  136.5210 N   0  0  0  0  0  1  0  0  0  0  0  0
  187.5850  178.2560  137.2610 C   0  0  0  0  0  0  0  0  0  0  0  0
  184.6000  179.1140  144.3990 C   0  0  2  0  0  0  0  0  0  0  0  0
  185.8260  177.6710  145.9220 C   0  0  1  0  0  3  0  0  0  0  0  0
  184.6420  180.5090  144.3450 O   0  0  0  0  0  1  0  0  0  0  0  0
  184.7270  178.6350  145.8440 C   0  0  1  0  0  3  0  0  0  0  0  0
  186.3790  177.4970  144.5110 C   0  0  1  0  0  3  0  0  0  0  0  0
  185.7520  178.5360  143.6060 C   0  0  0  0  0  2  0  0  0  0  0  0
  183.2870  178.6280  143.8160 C   0  0  0  0  0  1  0  0  0  0  0  0
  186.0220  179.0460  146.4130 N   0  0  0  0  0  2  0  0  0  0  0  0
  192.8080  175.6070  147.6440 N   0  0  0  0  0  1  0  0  0  0  0  0
  192.0360  176.7530  148.0930 C   0  0  0  0  0  2  0  0  0  0  0  0
  2  6  2  0  0  0  0
  2  5  1  0  0  0  0
  3  1  1  0  0  0  0
  3 32  1  0  0  0  0
  4  3  2  0  0  0  0
  5 27  1  0  0  0  0
  5  7  1  0  0  0  0
  6  8  1  0  0  0  0
  7  9  1  0  0  0  0
  8  7  2  0  0  0  0
  8  4  1  0  0  0  0
  9  1  2  0  0  0  0
 10 17  1  0  0  0  0
 11 13  1  0  0  0  0
 11 10  2  0  0  0  0
 12 11  1  0  0  0  0
 13 18  2  0  0  0  0
 14 13  1  0  0  0  0
 15 19  2  0  0  0  0
 16 12  2  0  0  0  0
 16 15  1  0  0  0  0
 17  2  1  1  0  0  0
 18 17  1  0  0  0  0
 19 10  1  0  0  0  0
 20 22  2  0  0  0  0
 21 22  1  0  0  0  0
 22 12  1  0  0  0  0
 23 29  1  6  0  0  0
 23 26  1  0  0  0  0
 24 30  1  1  0  0  0
 25 23  1  0  0  0  0
 26 24  1  0  0  0  0
 26 30  1  1  0  0  0
 27 28  1  6  0  0  0
 27 24  1  0  0  0  0
 28 23  1  0  0  0  0
 31 32  1  0  0  0  0
M  END
>  <MODEL>
6

>  <REMARK>
 VINA RESULT:      -7.8      2.920      5.532
  Name = 
  4 active torsions:
  status: ('A' for Active; 'I' for Inactive)
    1  A    between atoms: C_5  and  C_27
    2  A    between atoms: C_6  and  C_26
    3  A    between atoms: C_9  and  C_29
    4  A    between atoms: N_16  and  C_20
                            x       y       z     vdW  Elec       q    Type
                         _______ _______ _______ _____ _____    ______ ____

>  <TORSDO>
F 4

$$$$
=
 OpenBabel11042413123D

 32 37  0  0  1  0  0  0  0  0999 V2000
  188.9320  177.4110  146.3980 C   0  0  0  0  0  3  0  0  0  0  0  0
  185.5370  178.2490  143.6120 C   0  0  0  0  0  0  0  0  0  0  0  0
  187.9590  177.8200  147.3370 C   0  0  0  0  0  0  0  0  0  0  0  0
  186.6730  178.2030  146.9090 C   0  0  0  0  0  3  0  0  0  0  0  0
  186.8060  177.7970  143.4030 N   0  0  0  0  0  0  0  0  0  0  0  0
  185.2570  178.4710  144.9240 N   0  0  0  0  0  0  0  0  0  0  0  0
  187.3430  177.7480  144.6370 C   0  0  0  0  0  0  0  0  0  0  0  0
  186.4060  178.1480  145.5440 C   0  0  0  0  0  0  0  0  0  0  0  0
  188.6290  177.3690  145.0250 C   0  0  0  0  0  3  0  0  0  0  0  0
  183.1830  178.6280  142.7090 C   0  0  0  0  0  0  0  0  0  0  0  0
  182.6250  178.8480  141.4040 C   0  0  0  0  0  0  0  0  0  0  0  0
  181.2430  179.0670  141.2720 C   0  0  0  0  0  0  0  0  0  0  0  0
  183.7170  178.8520  140.5450 C   0  0  0  0  0  0  0  0  0  0  0  0
  183.7380  179.2320  138.8330 Cl  0  0  0  0  0  0  0  0  0  0  0  0
  181.0240  178.8990  143.6680 C   0  0  0  0  0  3  0  0  0  0  0  0
  180.4970  179.0920  142.4190 N   0  0  0  0  0  2  0  0  0  0  0  0
  184.5430  178.4850  142.5410 C   0  0  0  0  0  0  0  0  0  0  0  0
  184.8620  178.6280  141.2330 N   0  0  0  0  0  0  0  0  0  0  0  0
  182.3930  178.6570  143.8500 C   0  0  0  0  0  3  0  0  0  0  0  0
  180.0330  178.2340  139.4020 O   0  0  0  0  0  0  0  0  0  0  0  0
  180.3740  180.5230  139.4290 N   0  0  0  0  0  1  0  0  0  0  0  0
  180.5490  179.2230  139.9830 C   0  0  0  0  0  0  0  0  0  0  0  0
  189.6970  177.2750  141.3010 C   0  0  2  0  0  0  0  0  0  0  0  0
  187.8080  178.8030  141.3650 C   0  0  1  0  0  3  0  0  0  0  0  0
  190.9190  177.4220  141.9580 O   0  0  0  0  0  1  0  0  0  0  0  0
  189.1690  178.6360  140.8520 C   0  0  1  0  0  3  0  0  0  0  0  0
  187.4440  177.5230  142.1110 C   0  0  1  0  0  3  0  0  0  0  0  0
  188.6810  176.6600  142.2400 C   0  0  0  0  0  2  0  0  0  0  0  0
  189.8800  176.3780  140.0920 C   0  0  0  0  0  1  0  0  0  0  0  0
  188.9260  179.5060  142.0160 N   0  0  0  0  0  2  0  0  0  0  0  0
  189.7000  178.2530  148.9400 N   0  0  0  0  0  1  0  0  0  0  0  0
  188.3050  177.8790  148.7830 C   0  0  0  0  0  2  0  0  0  0  0  0
  1  3  1  0  0  0  0
  2  6  2  0  0  0  0
  3 32  1  0  0  0  0
  4  3  2  0  0  0  0
  5  2  1  0  0  0  0
  5  7  1  0  0  0  0
  6  8  1  0  0  0  0
  7  9  1  0  0  0  0
  7  8  2  0  0  0  0
  8  4  1  0  0  0  0
  9  1  2  0  0  0  0
 10 19  1  0  0  0  0
 11 10  1  0  0  0  0
 12 11  2  0  0  0  0
 12 16  1  0  0  0  0
 13 18  2  0  0  0  0
 13 11  1  0  0  0  0
 14 13  1  0  0  0  0
 15 19  2  0  0  0  0
 16 15  1  0  0  0  0
 17 10  2  0  0  0  0
 17  2  1  0  0  0  0
 18 17  1  0  0  0  0
 20 22  2  0  0  0  0
 21 22  1  0  0  0  0
 22 12  1  0  0  0  0
 23 29  1  6  0  0  0
 23 25  1  0  0  0  0
 23 28  1  0  0  0  0
 24 30  1  1  0  0  0
 24 27  1  0  0  0  0
 26 23  1  0  0  0  0
 26 24  1  0  0  0  0
 26 30  1  1  0  0  0
 27 28  1  1  0  0  0
 27  5  1  0  0  0  0
 32 31  1  0  0  0  0
M  END
>  <MODEL>
7

>  <REMARK>
 VINA RESULT:      -7.7      3.992      7.128
  Name = 
  4 active torsions:
  status: ('A' for Active; 'I' for Inactive)
    1  A    between atoms: C_5  and  C_27
    2  A    between atoms: C_6  and  C_26
    3  A    between atoms: C_9  and  C_29
    4  A    between atoms: N_16  and  C_20
                            x       y       z     vdW  Elec       q    Type
                         _______ _______ _______ _____ _____    ______ ____

>  <TORSDO>
F 4

$$$$
=
 OpenBabel11042413123D

 32 37  0  0  1  0  0  0  0  0999 V2000
  190.9840  177.4330  140.8560 C   0  0  0  0  0  3  0  0  0  0  0  0
  186.6360  178.4690  140.8150 C   0  0  0  0  0  0  0  0  0  0  0  0
  190.8240  177.8050  142.2090 C   0  0  0  0  0  0  0  0  0  0  0  0
  189.5690  178.2310  142.6860 C   0  0  0  0  0  3  0  0  0  0  0  0
  187.4790  178.0100  139.8480 N   0  0  0  0  0  0  0  0  0  0  0  0
  187.2410  178.6260  142.0230 N   0  0  0  0  0  0  0  0  0  0  0  0
  188.6630  177.8870  140.4780 C   0  0  0  0  0  0  0  0  0  0  0  0
  188.5100  178.2530  141.7820 C   0  0  0  0  0  0  0  0  0  0  0  0
  189.8930  177.4680  139.9690 C   0  0  0  0  0  3  0  0  0  0  0  0
  184.2140  178.7470  141.5610 C   0  0  0  0  0  0  0  0  0  0  0  0
  182.9920  179.1250  140.9060 C   0  0  0  0  0  0  0  0  0  0  0  0
  181.8070  179.2170  141.6560 C   0  0  0  0  0  0  0  0  0  0  0  0
  183.3580  179.3860  139.5910 C   0  0  0  0  0  0  0  0  0  0  0  0
  182.3620  180.0490  138.3080 Cl  0  0  0  0  0  0  0  0  0  0  0  0
  183.0550  178.6280  143.6330 C   0  0  0  0  0  3  0  0  0  0  0  0
  181.8910  178.9720  142.9990 N   0  0  0  0  0  2  0  0  0  0  0  0
  185.2040  178.7770  140.6030 C   0  0  0  0  0  0  0  0  0  0  0  0
  184.6840  179.1700  139.4160 N   0  0  0  0  0  0  0  0  0  0  0  0
  184.2590  178.5020  142.9260 C   0  0  0  0  0  3  0  0  0  0  0  0
  179.6920  178.5900  140.7690 O   0  0  0  0  0  0  0  0  0  0  0  0
  180.0560  180.8670  140.9610 N   0  0  0  0  0  1  0  0  0  0  0  0
  180.4850  179.5150  141.0800 C   0  0  0  0  0  0  0  0  0  0  0  0
  188.3750  177.1230  136.4630 C   0  0  2  0  0  0  0  0  0  0  0  0
  187.4070  179.0460  137.5910 C   0  0  1  0  0  3  0  0  0  0  0  0
  189.7320  176.8520  136.2800 O   0  0  0  0  0  1  0  0  0  0  0  0
  188.1200  178.6270  136.3830 C   0  0  1  0  0  3  0  0  0  0  0  0
  187.1640  177.7950  138.4310 C   0  0  1  0  0  3  0  0  0  0  0  0
  187.9350  176.6400  137.8280 C   0  0  0  0  0  2  0  0  0  0  0  0
  187.5710  176.4150  135.3900 C   0  0  0  0  0  1  0  0  0  0  0  0
  188.8450  179.3320  137.4540 N   0  0  0  0  0  2  0  0  0  0  0  0
  191.6810  178.5100  144.3440 N   0  0  0  0  0  1  0  0  0  0  0  0
  191.9950  177.7820  143.1270 C   0  0  0  0  0  2  0  0  0  0  0  0
  1  3  1  0  0  0  0
  2  6  2  0  0  0  0
  3  4  2  0  0  0  0
  3 32  1  0  0  0  0
  5  7  1  0  0  0  0
  5  2  1  0  0  0  0
  7  8  2  0  0  0  0
  8  6  1  0  0  0  0
  8  4  1  0  0  0  0
  9  7  1  0  0  0  0
  9  1  2  0  0  0  0
 10 19  1  0  0  0  0
 11 10  1  0  0  0  0
 11 12  2  0  0  0  0
 12 16  1  0  0  0  0
 13 11  1  0  0  0  0
 14 13  1  0  0  0  0
 16 15  1  0  0  0  0
 17  2  1  0  0  0  0
 17 10  2  0  0  0  0
 18 13  2  0  0  0  0
 18 17  1  0  0  0  0
 19 15  2  0  0  0  0
 20 22  2  0  0  0  0
 21 22  1  0  0  0  0
 22 12  1  0  0  0  0
 23 29  1  6  0  0  0
 23 28  1  0  0  0  0
 24 30  1  1  0  0  0
 24 27  1  0  0  0  0
 25 23  1  0  0  0  0
 26 23  1  0  0  0  0
 26 30  1  1  0  0  0
 26 24  1  0  0  0  0
 27 28  1  6  0  0  0
 27  5  1  0  0  0  0
 32 31  1  0  0  0  0
M  END
>  <MODEL>
8

>  <REMARK>
 VINA RESULT:      -7.6      3.725      8.128
  Name = 
  4 active torsions:
  status: ('A' for Active; 'I' for Inactive)
    1  A    between atoms: C_5  and  C_27
    2  A    between atoms: C_6  and  C_26
    3  A    between atoms: C_9  and  C_29
    4  A    between atoms: N_16  and  C_20
                            x       y       z     vdW  Elec       q    Type
                         _______ _______ _______ _____ _____    ______ ____

>  <TORSDO>
F 4

$$$$
=
 OpenBabel11042413123D

 32 37  0  0  1  0  0  0  0  0999 V2000
  180.7900  179.2890  135.7050 C   0  0  0  0  0  3  0  0  0  0  0  0
  183.1390  179.2460  139.5090 C   0  0  0  0  0  0  0  0  0  0  0  0
  180.6050  180.6310  136.1040 C   0  0  0  0  0  0  0  0  0  0  0  0
  181.1810  181.1040  137.3000 C   0  0  0  0  0  3  0  0  0  0  0  0
  182.8910  178.2880  138.5720 N   0  0  0  0  0  0  0  0  0  0  0  0
  182.5680  180.4450  139.2120 N   0  0  0  0  0  0  0  0  0  0  0  0
  182.1230  178.9130  137.6590 C   0  0  0  0  0  0  0  0  0  0  0  0
  181.9390  180.2070  138.0480 C   0  0  0  0  0  0  0  0  0  0  0  0
  181.5610  178.4080  136.4850 C   0  0  0  0  0  3  0  0  0  0  0  0
  183.4570  178.9640  142.0220 C   0  0  0  0  0  0  0  0  0  0  0  0
  184.5880  178.7410  142.8790 C   0  0  0  0  0  0  0  0  0  0  0  0
  184.3890  178.5890  144.2610 C   0  0  0  0  0  0  0  0  0  0  0  0
  185.6770  178.6620  142.0180 C   0  0  0  0  0  0  0  0  0  0  0  0
  187.3330  178.2400  142.4130 Cl  0  0  0  0  0  0  0  0  0  0  0  0
  182.0150  178.8250  143.9070 C   0  0  0  0  0  3  0  0  0  0  0  0
  183.1000  178.6290  144.7190 N   0  0  0  0  0  2  0  0  0  0  0  0
  183.9410  179.0350  140.7340 C   0  0  0  0  0  0  0  0  0  0  0  0
  185.2810  178.8450  140.7350 N   0  0  0  0  0  0  0  0  0  0  0  0
  182.1640  179.0020  142.5250 C   0  0  0  0  0  3  0  0  0  0  0  0
  186.2850  177.4760  145.1680 O   0  0  0  0  0  0  0  0  0  0  0  0
  185.6750  179.4380  146.2350 N   0  0  0  0  0  1  0  0  0  0  0  0
  185.4750  178.4360  145.2420 C   0  0  0  0  0  0  0  0  0  0  0  0
  182.9150  174.9100  137.2920 C   0  0  2  0  0  0  0  0  0  0  0  0
  182.2980  176.0110  139.3690 C   0  0  1  0  0  3  0  0  0  0  0  0
  182.1040  174.7130  136.1730 O   0  0  0  0  0  1  0  0  0  0  0  0
  182.0870  174.8020  138.5720 C   0  0  1  0  0  3  0  0  0  0  0  0
  183.3030  176.8810  138.6190 C   0  0  1  0  0  3  0  0  0  0  0  0
  183.5320  176.2910  137.2430 C   0  0  0  0  0  2  0  0  0  0  0  0
  184.0120  173.8630  137.3090 C   0  0  0  0  0  1  0  0  0  0  0  0
  181.0500  175.8480  138.6060 N   0  0  0  0  0  2  0  0  0  0  0  0
  180.4200  182.8330  135.1540 N   0  0  0  0  0  1  0  0  0  0  0  0
  179.7680  181.5410  135.2760 C   0  0  0  0  0  2  0  0  0  0  0  0
  1  3  2  0  0  0  0
  1  9  1  0  0  0  0
  2 17  1  0  0  0  0
  3  4  1  0  0  0  0
  4  8  2  0  0  0  0
  5 27  1  0  0  0  0
  5  2  1  0  0  0  0
  6  2  2  0  0  0  0
  7  8  1  0  0  0  0
  7  5  1  0  0  0  0
  8  6  1  0  0  0  0
  9  7  2  0  0  0  0
 10 19  1  0  0  0  0
 10 11  1  0  0  0  0
 11 12  2  0  0  0  0
 12 16  1  0  0  0  0
 12 22  1  0  0  0  0
 13 14  1  0  0  0  0
 13 11  1  0  0  0  0
 15 16  1  0  0  0  0
 17 18  1  0  0  0  0
 17 10  2  0  0  0  0
 18 13  2  0  0  0  0
 19 15  2  0  0  0  0
 20 22  2  0  0  0  0
 22 21  1  0  0  0  0
 23 29  1  1  0  0  0
 23 26  1  0  0  0  0
 24 30  1  6  0  0  0
 25 23  1  0  0  0  0
 26 30  1  6  0  0  0
 26 24  1  0  0  0  0
 27 28  1  6  0  0  0
 27 24  1  0  0  0  0
 28 23  1  0  0  0  0
 31 32  1  0  0  0  0
 32  3  1  0  0  0  0
M  END
>  <MODEL>
9

>  <REMARK>
 VINA RESULT:      -7.3      5.506      9.419
  Name = 
  4 active torsions:
  status: ('A' for Active; 'I' for Inactive)
    1  A    between atoms: C_5  and  C_27
    2  A    between atoms: C_6  and  C_26
    3  A    between atoms: C_9  and  C_29
    4  A    between atoms: N_16  and  C_20
                            x       y       z     vdW  Elec       q    Type
                         _______ _______ _______ _____ _____    ______ ____

>  <TORSDO>
F 4

$$$$
