=
 OpenBabel11042410563D

 26 30  0  0  1  0  0  0  0  0999 V2000
  189.3160  175.9140  142.4560 C   0  0  0  0  0  1  0  0  0  0  0  0
  190.9990  177.9580  143.2070 S   0  0  0  0  0  0  0  0  0  0  0  0
  188.2860  178.1870  142.9460 C   0  0  2  0  0  3  0  0  0  0  0  0
  186.9040  177.8290  142.3870 C   0  0  2  0  0  3  0  0  0  0  0  0
  190.4810  177.6180  144.9100 C   0  0  0  0  0  0  0  0  0  0  0  0
  188.7860  177.5100  146.6760 C   0  0  0  0  0  0  0  0  0  0  0  0
  189.4710  177.4270  142.3350 C   0  0  2  0  0  0  0  0  0  0  0  0
  189.7770  177.1810  147.6030 C   0  0  0  0  0  3  0  0  0  0  0  0
  188.4400  177.5050  139.9580 C   0  0  1  0  0  3  0  0  0  0  0  0
  189.6430  177.8220  140.8570 C   0  0  0  0  0  2  0  0  0  0  0  0
  186.6350  178.6800  141.1850 C   0  0  0  0  0  0  0  0  0  0  0  0
  184.7430  177.9710  143.5520 O   0  0  0  0  0  0  0  0  0  0  0  0
  187.4380  178.5220  140.0520 O   0  0  0  0  0  0  0  0  0  0  0  0
  191.4550  177.2690  145.8520 C   0  0  0  0  0  3  0  0  0  0  0  0
  185.7080  179.5800  141.1920 N   0  0  0  0  0  2  0  0  0  0  0  0
  187.4310  177.5480  147.0620 C   0  0  0  0  0  3  0  0  0  0  0  0
  186.8100  177.9910  144.7820 C   0  0  0  0  0  0  0  0  0  0  0  0
  189.1460  177.7450  145.3250 C   0  0  0  0  0  0  0  0  0  0  0  0
  188.1310  178.0030  144.4110 C   0  0  0  0  0  0  0  0  0  0  0  0
  186.0020  177.9940  143.5790 C   0  0  0  0  0  0  0  0  0  0  0  0
  191.1110  177.0570  147.1990 C   0  0  0  0  0  0  0  0  0  0  0  0
  186.4240  177.7700  146.1050 C   0  0  0  0  0  3  0  0  0  0  0  0
  188.9100  177.4040  138.5470 C   0  0  0  0  0  3  0  0  0  0  0  0
  189.2740  178.4030  137.9470 O   0  0  0  0  0  0  0  0  0  0  0  0
  192.0740  176.7200  148.1540 O   0  0  0  0  0  0  0  0  0  0  0  0
  192.8250  175.5140  148.0950 C   0  0  0  0  0  1  0  0  0  0  0  0
  2  5  1  0  0  0  0
  3 19  1  1  0  0  0
  4 11  1  6  0  0  0
  4  3  1  0  0  0  0
  4 20  1  0  0  0  0
  5 18  2  0  0  0  0
  5 14  1  0  0  0  0
  6 16  1  0  0  0  0
  6  8  2  0  0  0  0
  7  1  1  1  0  0  0
  7  3  1  0  0  0  0
  7  2  1  0  0  0  0
  9 23  1  6  0  0  0
  9 13  1  0  0  0  0
  9 10  1  0  0  0  0
 10  7  1  0  0  0  0
 11 15  2  0  0  0  0
 12 20  2  0  0  0  0
 13 11  1  0  0  0  0
 14 21  2  0  0  0  0
 17 22  1  0  0  0  0
 18  6  1  0  0  0  0
 19 17  2  0  0  0  0
 19 18  1  0  0  0  0
 20 17  1  0  0  0  0
 21  8  1  0  0  0  0
 21 25  1  0  0  0  0
 22 16  2  0  0  0  0
 24 23  2  0  0  0  0
 26 25  1  0  0  0  0
M  END
>  <MODEL>
1

>  <REMARK>
 VINA RESULT:     -10.3      0.000      0.000
  Name = 
  2 active torsions:
  status: ('A' for Active; 'I' for Inactive)
    1  A    between atoms: C_6  and  C_11
    2  A    between atoms: O_8  and  C_24
                            x       y       z     vdW  Elec       q    Type
                         _______ _______ _______ _____ _____    ______ ____

>  <TORSDO>
F 2

$$$$
=
 OpenBabel11042410563D

 26 30  0  0  1  0  0  0  0  0999 V2000
  189.5050  179.0260  143.5060 C   0  0  0  0  0  1  0  0  0  0  0  0
  187.5220  177.1920  142.9810 S   0  0  0  0  0  0  0  0  0  0  0  0
  189.5420  176.8300  144.7880 C   0  0  2  0  0  3  0  0  0  0  0  0
  190.9420  177.0440  145.3770 C   0  0  2  0  0  3  0  0  0  0  0  0
  186.7150  177.7900  144.4900 C   0  0  0  0  0  0  0  0  0  0  0  0
  186.6410  178.1280  146.9150 C   0  0  0  0  0  0  0  0  0  0  0  0
  189.2700  177.5200  143.4440 C   0  0  2  0  0  0  0  0  0  0  0  0
  185.3470  178.6400  146.8020 C   0  0  0  0  0  3  0  0  0  0  0  0
  191.6580  177.0160  142.5740 C   0  0  1  0  0  3  0  0  0  0  0  0
  190.1460  176.8930  142.3450 C   0  0  0  0  0  2  0  0  0  0  0  0
  191.8610  175.9980  144.8250 C   0  0  0  0  0  0  0  0  0  0  0  0
  191.5810  177.0220  147.7500 O   0  0  0  0  0  0  0  0  0  0  0  0
  192.1370  175.9950  143.4550 O   0  0  0  0  0  0  0  0  0  0  0  0
  185.4250  178.3220  144.3970 C   0  0  0  0  0  3  0  0  0  0  0  0
  192.3660  175.0810  145.5810 N   0  0  0  0  0  2  0  0  0  0  0  0
  187.2940  178.1080  148.1640 C   0  0  0  0  0  3  0  0  0  0  0  0
  189.2800  177.2760  147.0960 C   0  0  0  0  0  0  0  0  0  0  0  0
  187.3210  177.6870  145.7520 C   0  0  0  0  0  0  0  0  0  0  0  0
  188.6320  177.2480  145.8860 C   0  0  0  0  0  0  0  0  0  0  0  0
  190.6910  177.0470  146.8590 C   0  0  0  0  0  0  0  0  0  0  0  0
  184.7340  178.7410  145.5480 C   0  0  0  0  0  0  0  0  0  0  0  0
  188.6360  177.6970  148.2600 C   0  0  0  0  0  3  0  0  0  0  0  0
  192.3530  176.9000  141.2610 C   0  0  0  0  0  3  0  0  0  0  0  0
  192.0170  177.6050  140.3230 O   0  0  0  0  0  0  0  0  0  0  0  0
  183.4400  179.2630  145.4720 O   0  0  0  0  0  0  0  0  0  0  0  0
  182.5790  179.0270  144.3660 C   0  0  0  0  0  1  0  0  0  0  0  0
  2  7  1  0  0  0  0
  2  5  1  0  0  0  0
  3  4  1  0  0  0  0
  3 19  1  1  0  0  0
  4 11  1  1  0  0  0
  4 20  1  0  0  0  0
  5 18  1  0  0  0  0
  6 16  1  0  0  0  0
  7  1  1  1  0  0  0
  7  3  1  0  0  0  0
  8  6  1  0  0  0  0
  9 23  1  6  0  0  0
  9 13  1  0  0  0  0
 10  9  1  0  0  0  0
 10  7  1  0  0  0  0
 11 15  2  0  0  0  0
 13 11  1  0  0  0  0
 14  5  2  0  0  0  0
 14 21  1  0  0  0  0
 16 22  2  0  0  0  0
 17 22  1  0  0  0  0
 18 19  1  0  0  0  0
 18  6  2  0  0  0  0
 19 17  2  0  0  0  0
 20 17  1  0  0  0  0
 20 12  2  0  0  0  0
 21  8  2  0  0  0  0
 24 23  2  0  0  0  0
 25 21  1  0  0  0  0
 26 25  1  0  0  0  0
M  END
>  <MODEL>
2

>  <REMARK>
 VINA RESULT:      -9.9      2.811      5.402
  Name = 
  2 active torsions:
  status: ('A' for Active; 'I' for Inactive)
    1  A    between atoms: C_6  and  C_11
    2  A    between atoms: O_8  and  C_24
                            x       y       z     vdW  Elec       q    Type
                         _______ _______ _______ _____ _____    ______ ____

>  <TORSDO>
F 2

$$$$
=
 OpenBabel11042410563D

 26 30  0  0  1  0  0  0  0  0999 V2000
  187.5500  176.3820  143.2190 C   0  0  0  0  0  1  0  0  0  0  0  0
  189.6690  178.1340  143.3320 S   0  0  0  0  0  0  0  0  0  0  0  0
  187.2050  178.5940  144.4240 C   0  0  2  0  0  3  0  0  0  0  0  0
  185.6840  178.4410  144.5500 C   0  0  2  0  0  3  0  0  0  0  0  0
  189.9450  177.5270  145.0180 C   0  0  0  0  0  0  0  0  0  0  0  0
  189.2510  177.2180  147.3470 C   0  0  0  0  0  0  0  0  0  0  0  0
  187.8520  177.8780  143.2320 C   0  0  2  0  0  0  0  0  0  0  0  0
  190.4950  176.6570  147.6410 C   0  0  0  0  0  3  0  0  0  0  0  0
  185.8720  178.4580  141.6640 C   0  0  1  0  0  3  0  0  0  0  0  0
  187.3850  178.5220  141.9150 C   0  0  0  0  0  2  0  0  0  0  0  0
  185.0230  179.5120  143.7400 C   0  0  0  0  0  0  0  0  0  0  0  0
  184.3420  178.5170  146.6090 O   0  0  0  0  0  0  0  0  0  0  0  0
  185.1850  179.5080  142.3520 O   0  0  0  0  0  0  0  0  0  0  0  0
  191.1780  176.9460  145.3300 C   0  0  0  0  0  3  0  0  0  0  0  0
  184.3450  180.4580  144.3020 N   0  0  0  0  0  2  0  0  0  0  0  0
  188.2450  177.2780  148.3320 C   0  0  0  0  0  3  0  0  0  0  0  0
  186.7220  178.1700  146.7000 C   0  0  0  0  0  0  0  0  0  0  0  0
  188.9820  177.6690  146.0300 C   0  0  0  0  0  0  0  0  0  0  0  0
  187.7120  178.1580  145.7500 C   0  0  0  0  0  0  0  0  0  0  0  0
  185.4630  178.4480  146.0380 C   0  0  0  0  0  0  0  0  0  0  0  0
  191.4620  176.5170  146.6390 C   0  0  0  0  0  0  0  0  0  0  0  0
  186.9560  177.7400  148.0070 C   0  0  0  0  0  3  0  0  0  0  0  0
  185.6230  178.5820  140.2000 C   0  0  0  0  0  3  0  0  0  0  0  0
  184.9660  179.5150  139.7650 O   0  0  0  0  0  0  0  0  0  0  0  0
  192.6940  175.9460  146.9690 O   0  0  0  0  0  0  0  0  0  0  0  0
  193.0600  175.6280  148.3050 C   0  0  0  0  0  1  0  0  0  0  0  0
  2  5  1  0  0  0  0
  3  4  1  0  0  0  0
  3 19  1  1  0  0  0
  4 11  1  6  0  0  0
  4 20  1  0  0  0  0
  5 14  2  0  0  0  0
  5 18  1  0  0  0  0
  6  8  1  0  0  0  0
  6 16  1  0  0  0  0
  7  1  1  1  0  0  0
  7  2  1  0  0  0  0
  7  3  1  0  0  0  0
  9 23  1  6  0  0  0
  9 10  1  0  0  0  0
  9 13  1  0  0  0  0
 10  7  1  0  0  0  0
 11 15  2  0  0  0  0
 13 11  1  0  0  0  0
 14 21  1  0  0  0  0
 17 22  1  0  0  0  0
 18  6  2  0  0  0  0
 19 18  1  0  0  0  0
 19 17  2  0  0  0  0
 20 12  2  0  0  0  0
 20 17  1  0  0  0  0
 21 25  1  0  0  0  0
 21  8  2  0  0  0  0
 22 16  2  0  0  0  0
 24 23  2  0  0  0  0
 25 26  1  0  0  0  0
M  END
>  <MODEL>
3

>  <REMARK>
 VINA RESULT:      -9.5      1.919      2.340
  Name = 
  2 active torsions:
  status: ('A' for Active; 'I' for Inactive)
    1  A    between atoms: C_6  and  C_11
    2  A    between atoms: O_8  and  C_24
                            x       y       z     vdW  Elec       q    Type
                         _______ _______ _______ _____ _____    ______ ____

>  <TORSDO>
F 2

$$$$
=
 OpenBabel11042410563D

 26 30  0  0  1  0  0  0  0  0999 V2000
  190.3120  178.7300  144.4380 C   0  0  0  0  0  1  0  0  0  0  0  0
  189.9600  176.4680  142.9100 S   0  0  0  0  0  0  0  0  0  0  0  0
  188.4340  177.1390  145.0780 C   0  0  2  0  0  3  0  0  0  0  0  0
  188.1440  177.8110  146.4260 C   0  0  2  0  0  3  0  0  0  0  0  0
  188.6100  177.3590  142.0910 C   0  0  0  0  0  0  0  0  0  0  0  0
  186.4220  178.4620  142.1070 C   0  0  0  0  0  0  0  0  0  0  0  0
  189.8720  177.2740  144.5600 C   0  0  2  0  0  0  0  0  0  0  0  0
  186.5030  178.6370  140.7250 C   0  0  0  0  0  3  0  0  0  0  0  0
  190.8740  176.9990  146.9340 C   0  0  1  0  0  3  0  0  0  0  0  0
  190.8370  176.5070  145.4800 C   0  0  0  0  0  2  0  0  0  0  0  0
  188.4710  176.8480  147.5240 C   0  0  0  0  0  0  0  0  0  0  0  0
  185.9950  178.7070  147.2140 O   0  0  0  0  0  0  0  0  0  0  0  0
  189.7980  176.4450  147.6980 O   0  0  0  0  0  0  0  0  0  0  0  0
  188.6790  177.5610  140.7090 C   0  0  0  0  0  3  0  0  0  0  0  0
  187.5490  176.3540  148.2820 N   0  0  0  0  0  2  0  0  0  0  0  0
  185.3330  178.9890  142.8300 C   0  0  0  0  0  3  0  0  0  0  0  0
  186.3630  178.2630  144.8780 C   0  0  0  0  0  0  0  0  0  0  0  0
  187.4760  177.8040  142.7900 C   0  0  0  0  0  0  0  0  0  0  0  0
  187.4010  177.7070  144.1740 C   0  0  0  0  0  0  0  0  0  0  0  0
  186.7150  178.2560  146.2840 C   0  0  0  0  0  0  0  0  0  0  0  0
  187.6270  178.1910  140.0200 C   0  0  0  0  0  0  0  0  0  0  0  0
  185.3070  178.9100  144.2350 C   0  0  0  0  0  3  0  0  0  0  0  0
  192.1720  176.5950  147.5440 C   0  0  0  0  0  3  0  0  0  0  0  0
  192.6440  175.4930  147.3120 O   0  0  0  0  0  0  0  0  0  0  0  0
  187.6760  178.3890  138.6370 O   0  0  0  0  0  0  0  0  0  0  0  0
  188.8900  178.6320  137.9380 C   0  0  0  0  0  1  0  0  0  0  0  0
  2  7  1  0  0  0  0
  3 19  1  6  0  0  0
  3  4  1  0  0  0  0
  4 20  1  6  0  0  0
  4 11  1  0  0  0  0
  5 18  1  0  0  0  0
  5  2  1  0  0  0  0
  6 18  2  0  0  0  0
  6 16  1  0  0  0  0
  7  1  1  6  0  0  0
  7  3  1  0  0  0  0
  7 10  1  0  0  0  0
  8  6  1  0  0  0  0
  9 23  1  1  0  0  0
  9 13  1  0  0  0  0
 10  9  1  0  0  0  0
 11 13  1  0  0  0  0
 11 15  2  0  0  0  0
 14  5  2  0  0  0  0
 16 22  2  0  0  0  0
 17 20  1  0  0  0  0
 18 19  1  0  0  0  0
 19 17  2  0  0  0  0
 20 12  2  0  0  0  0
 21 14  1  0  0  0  0
 21  8  2  0  0  0  0
 22 17  1  0  0  0  0
 24 23  2  0  0  0  0
 25 21  1  0  0  0  0
 26 25  1  0  0  0  0
M  END
>  <MODEL>
4

>  <REMARK>
 VINA RESULT:      -9.4      2.071      6.222
  Name = 
  2 active torsions:
  status: ('A' for Active; 'I' for Inactive)
    1  A    between atoms: C_6  and  C_11
    2  A    between atoms: O_8  and  C_24
                            x       y       z     vdW  Elec       q    Type
                         _______ _______ _______ _____ _____    ______ ____

>  <TORSDO>
F 2

$$$$
=
 OpenBabel11042410563D

 26 30  0  0  1  0  0  0  0  0999 V2000
  184.9160  180.1470  144.5640 C   0  0  0  0  0  1  0  0  0  0  0  0
  185.0130  177.6730  145.7660 S   0  0  0  0  0  0  0  0  0  0  0  0
  185.0640  178.0980  143.0650 C   0  0  2  0  0  3  0  0  0  0  0  0
  184.7730  178.8620  141.7670 C   0  0  2  0  0  3  0  0  0  0  0  0
  186.8020  177.7210  145.4800 C   0  0  0  0  0  0  0  0  0  0  0  0
  188.7570  177.7870  144.0050 C   0  0  0  0  0  0  0  0  0  0  0  0
  184.4710  178.7040  144.3440 C   0  0  2  0  0  0  0  0  0  0  0  0
  189.5960  177.6770  145.1160 C   0  0  0  0  0  3  0  0  0  0  0  0
  182.2820  179.3900  143.1390 C   0  0  1  0  0  3  0  0  0  0  0  0
  182.9350  178.6270  144.2990 C   0  0  0  0  0  2  0  0  0  0  0  0
  183.4680  178.3840  141.2100 C   0  0  0  0  0  0  0  0  0  0  0  0
  186.1540  178.9280  139.7340 O   0  0  0  0  0  0  0  0  0  0  0  0
  182.2960  178.6180  141.9340 O   0  0  0  0  0  0  0  0  0  0  0  0
  187.6610  177.6300  146.5800 C   0  0  0  0  0  3  0  0  0  0  0  0
  183.4120  177.7270  140.0990 N   0  0  0  0  0  2  0  0  0  0  0  0
  189.3000  177.9550  142.7150 C   0  0  0  0  0  3  0  0  0  0  0  0
  187.0770  178.1850  141.8280 C   0  0  0  0  0  0  0  0  0  0  0  0
  187.3520  177.7930  144.1900 C   0  0  0  0  0  0  0  0  0  0  0  0
  186.5440  177.9740  143.0750 C   0  0  0  0  0  0  0  0  0  0  0  0
  186.0130  178.6290  140.9500 C   0  0  0  0  0  0  0  0  0  0  0  0
  189.0560  177.6000  146.4050 C   0  0  0  0  0  0  0  0  0  0  0  0
  188.4560  178.1780  141.6110 C   0  0  0  0  0  3  0  0  0  0  0  0
  180.8720  179.7050  143.5060 C   0  0  0  0  0  3  0  0  0  0  0  0
  180.2280  180.5030  142.8430 O   0  0  0  0  0  0  0  0  0  0  0  0
  189.9270  177.4960  147.4930 O   0  0  0  0  0  0  0  0  0  0  0  0
  191.1380  176.7530  147.4400 C   0  0  0  0  0  1  0  0  0  0  0  0
  3 19  1  1  0  0  0
  3  7  1  0  0  0  0
  4 20  1  6  0  0  0
  4  3  1  0  0  0  0
  5  2  1  0  0  0  0
  5 14  1  0  0  0  0
  6 18  1  0  0  0  0
  6  8  2  0  0  0  0
  7  1  1  1  0  0  0
  7  2  1  0  0  0  0
  8 21  1  0  0  0  0
  9 23  1  1  0  0  0
  9 10  1  0  0  0  0
 10  7  1  0  0  0  0
 11  4  1  0  0  0  0
 11 13  1  0  0  0  0
 12 20  2  0  0  0  0
 13  9  1  0  0  0  0
 15 11  2  0  0  0  0
 16  6  1  0  0  0  0
 17 19  2  0  0  0  0
 18  5  2  0  0  0  0
 19 18  1  0  0  0  0
 20 17  1  0  0  0  0
 21 14  2  0  0  0  0
 21 25  1  0  0  0  0
 22 17  1  0  0  0  0
 22 16  2  0  0  0  0
 24 23  2  0  0  0  0
 26 25  1  0  0  0  0
M  END
>  <MODEL>
5

>  <REMARK>
 VINA RESULT:      -8.8      2.657      4.972
  Name = 
  2 active torsions:
  status: ('A' for Active; 'I' for Inactive)
    1  A    between atoms: C_6  and  C_11
    2  A    between atoms: O_8  and  C_24
                            x       y       z     vdW  Elec       q    Type
                         _______ _______ _______ _____ _____    ______ ____

>  <TORSDO>
F 2

$$$$
=
 OpenBabel11042410563D

 26 30  0  0  1  0  0  0  0  0999 V2000
  189.8380  175.8230  142.1370 C   0  0  0  0  0  1  0  0  0  0  0  0
  190.7200  177.8850  143.7330 S   0  0  0  0  0  0  0  0  0  0  0  0
  189.1290  178.1890  141.5290 C   0  0  2  0  0  3  0  0  0  0  0  0
  188.5570  177.8080  140.1580 C   0  0  2  0  0  3  0  0  0  0  0  0
  189.0820  177.8440  144.5090 C   0  0  0  0  0  0  0  0  0  0  0  0
  186.6460  178.0950  144.4360 C   0  0  0  0  0  0  0  0  0  0  0  0
  190.2540  177.2890  142.0580 C   0  0  2  0  0  0  0  0  0  0  0  0
  186.5850  177.8750  145.8130 C   0  0  0  0  0  3  0  0  0  0  0  0
  191.3070  177.0320  139.7040 C   0  0  1  0  0  3  0  0  0  0  0  0
  191.5030  177.4350  141.1710 C   0  0  0  0  0  2  0  0  0  0  0  0
  189.3790  178.4660  139.0940 C   0  0  0  0  0  0  0  0  0  0  0  0
  186.2850  178.2290  139.3200 O   0  0  0  0  0  0  0  0  0  0  0  0
  190.7190  178.0940  138.9460 O   0  0  0  0  0  0  0  0  0  0  0  0
  188.9960  177.6080  145.8850 C   0  0  0  0  0  3  0  0  0  0  0  0
  188.8870  179.3960  138.3440 N   0  0  0  0  0  2  0  0  0  0  0  0
  185.4640  178.2540  143.6860 C   0  0  0  0  0  3  0  0  0  0  0  0
  186.7740  178.3540  141.6720 C   0  0  0  0  0  0  0  0  0  0  0  0
  187.9050  178.0950  143.7850 C   0  0  0  0  0  0  0  0  0  0  0  0
  187.9300  178.2480  142.4050 C   0  0  0  0  0  0  0  0  0  0  0  0
  187.1100  178.2000  140.2710 C   0  0  0  0  0  0  0  0  0  0  0  0
  187.7540  177.6290  146.5430 C   0  0  0  0  0  0  0  0  0  0  0  0
  185.5200  178.3650  142.2840 C   0  0  0  0  0  3  0  0  0  0  0  0
  192.6340  176.6860  139.1190 C   0  0  0  0  0  3  0  0  0  0  0  0
  193.6590  177.0970  139.6370 O   0  0  0  0  0  0  0  0  0  0  0  0
  187.6530  177.4070  147.9190 O   0  0  0  0  0  0  0  0  0  0  0  0
  188.4400  178.1110  148.8710 C   0  0  0  0  0  1  0  0  0  0  0  0
  2  5  1  0  0  0  0
  3  7  1  0  0  0  0
  3 19  1  1  0  0  0
  4 11  1  6  0  0  0
  4 20  1  0  0  0  0
  4  3  1  0  0  0  0
  5 14  1  0  0  0  0
  6  8  2  0  0  0  0
  7  1  1  1  0  0  0
  7  2  1  0  0  0  0
  8 21  1  0  0  0  0
  9 23  1  6  0  0  0
  9 10  1  0  0  0  0
 10  7  1  0  0  0  0
 12 20  2  0  0  0  0
 13 11  1  0  0  0  0
 13  9  1  0  0  0  0
 14 21  2  0  0  0  0
 15 11  2  0  0  0  0
 16  6  1  0  0  0  0
 17 22  1  0  0  0  0
 17 19  2  0  0  0  0
 18  6  1  0  0  0  0
 18  5  2  0  0  0  0
 19 18  1  0  0  0  0
 20 17  1  0  0  0  0
 21 25  1  0  0  0  0
 22 16  2  0  0  0  0
 23 24  2  0  0  0  0
 25 26  1  0  0  0  0
M  END
>  <MODEL>
6

>  <REMARK>
 VINA RESULT:      -8.7      2.099      3.269
  Name = 
  2 active torsions:
  status: ('A' for Active; 'I' for Inactive)
    1  A    between atoms: C_6  and  C_11
    2  A    between atoms: O_8  and  C_24
                            x       y       z     vdW  Elec       q    Type
                         _______ _______ _______ _____ _____    ______ ____

>  <TORSDO>
F 2

$$$$
=
 OpenBabel11042410563D

 26 30  0  0  1  0  0  0  0  0999 V2000
  186.4680  176.6030  143.4840 C   0  0  0  0  0  1  0  0  0  0  0  0
  187.5830  178.7960  142.2480 S   0  0  0  0  0  0  0  0  0  0  0  0
  187.4050  178.4550  144.9560 C   0  0  2  0  0  3  0  0  0  0  0  0
  186.8040  177.9070  146.2560 C   0  0  2  0  0  3  0  0  0  0  0  0
  189.1930  178.0350  142.5840 C   0  0  0  0  0  0  0  0  0  0  0  0
  190.9250  177.2200  144.1140 C   0  0  0  0  0  0  0  0  0  0  0  0
  186.6420  178.1080  143.6700 C   0  0  2  0  0  0  0  0  0  0  0  0
  191.7570  176.9530  143.0250 C   0  0  0  0  0  3  0  0  0  0  0  0
  184.3400  178.3970  144.8230 C   0  0  1  0  0  3  0  0  0  0  0  0
  185.2690  178.8020  143.6700 C   0  0  0  0  0  2  0  0  0  0  0  0
  185.7940  178.8850  146.7700 C   0  0  0  0  0  0  0  0  0  0  0  0
  188.0000  177.3380  148.3280 O   0  0  0  0  0  0  0  0  0  0  0  0
  184.6420  179.1270  146.0160 O   0  0  0  0  0  0  0  0  0  0  0  0
  190.0360  177.7430  141.5070 C   0  0  0  0  0  3  0  0  0  0  0  0
  185.9880  179.5360  147.8690 N   0  0  0  0  0  2  0  0  0  0  0  0
  191.3270  176.8790  145.4200 C   0  0  0  0  0  3  0  0  0  0  0  0
  189.1850  177.5900  146.2490 C   0  0  0  0  0  0  0  0  0  0  0  0
  189.6410  177.7790  143.8900 C   0  0  0  0  0  0  0  0  0  0  0  0
  188.8080  177.9680  144.9850 C   0  0  0  0  0  0  0  0  0  0  0  0
  188.0160  177.6380  147.1040 C   0  0  0  0  0  0  0  0  0  0  0  0
  191.3200  177.2100  141.7210 C   0  0  0  0  0  0  0  0  0  0  0  0
  190.4450  177.0450  146.5040 C   0  0  0  0  0  3  0  0  0  0  0  0
  182.9300  178.6710  144.4220 C   0  0  0  0  0  3  0  0  0  0  0  0
  182.6750  179.0440  143.2880 O   0  0  0  0  0  0  0  0  0  0  0  0
  192.1790  176.9250  140.6560 O   0  0  0  0  0  0  0  0  0  0  0  0
  191.7420  176.8960  139.3030 C   0  0  0  0  0  1  0  0  0  0  0  0
  2  5  1  0  0  0  0
  2  7  1  0  0  0  0
  3 19  1  6  0  0  0
  3  4  1  0  0  0  0
  4 11  1  1  0  0  0
  4 20  1  0  0  0  0
  5 18  1  0  0  0  0
  6 16  1  0  0  0  0
  7  1  1  6  0  0  0
  7  3  1  0  0  0  0
  8  6  1  0  0  0  0
  9 23  1  6  0  0  0
  9 13  1  0  0  0  0
 10  7  1  0  0  0  0
 10  9  1  0  0  0  0
 11 15  2  0  0  0  0
 13 11  1  0  0  0  0
 14 21  1  0  0  0  0
 14  5  2  0  0  0  0
 16 22  2  0  0  0  0
 17 22  1  0  0  0  0
 17 20  1  0  0  0  0
 18  6  2  0  0  0  0
 18 19  1  0  0  0  0
 19 17  2  0  0  0  0
 20 12  2  0  0  0  0
 21  8  2  0  0  0  0
 24 23  2  0  0  0  0
 25 21  1  0  0  0  0
 26 25  1  0  0  0  0
M  END
>  <MODEL>
7

>  <REMARK>
 VINA RESULT:      -8.3      2.557      5.244
  Name = 
  2 active torsions:
  status: ('A' for Active; 'I' for Inactive)
    1  A    between atoms: C_6  and  C_11
    2  A    between atoms: O_8  and  C_24
                            x       y       z     vdW  Elec       q    Type
                         _______ _______ _______ _____ _____    ______ ____

>  <TORSDO>
F 2

$$$$
=
 OpenBabel11042410563D

 26 30  0  0  1  0  0  0  0  0999 V2000
  188.8980  179.3710  142.7300 C   0  0  0  0  0  1  0  0  0  0  0  0
  187.3290  177.2800  141.8690 S   0  0  0  0  0  0  0  0  0  0  0  0
  188.7880  177.2860  144.1820 C   0  0  2  0  0  3  0  0  0  0  0  0
  189.9390  177.7060  145.1040 C   0  0  2  0  0  3  0  0  0  0  0  0
  186.0780  177.8760  143.0370 C   0  0  0  0  0  0  0  0  0  0  0  0
  185.2960  178.3650  145.3070 C   0  0  0  0  0  0  0  0  0  0  0  0
  188.8370  177.8460  142.7550 C   0  0  2  0  0  0  0  0  0  0  0  0
  184.0420  178.7080  144.7980 C   0  0  0  0  0  3  0  0  0  0  0  0
  191.4100  177.5770  142.6170 C   0  0  1  0  0  3  0  0  0  0  0  0
  190.0420  177.2570  142.0010 C   0  0  0  0  0  2  0  0  0  0  0  0
  191.0730  176.7440  144.9270 C   0  0  0  0  0  0  0  0  0  0  0  0
  189.8870  177.9200  147.5530 O   0  0  0  0  0  0  0  0  0  0  0  0
  191.7200  176.6820  143.6900 O   0  0  0  0  0  0  0  0  0  0  0  0
  184.8210  178.2410  142.5470 C   0  0  0  0  0  3  0  0  0  0  0  0
  191.4330  175.9470  145.8770 N   0  0  0  0  0  2  0  0  0  0  0  0
  185.5710  178.5070  146.6820 C   0  0  0  0  0  3  0  0  0  0  0  0
  187.8480  177.8500  146.2780 C   0  0  0  0  0  0  0  0  0  0  0  0
  186.3140  177.9310  144.4210 C   0  0  0  0  0  0  0  0  0  0  0  0
  187.5710  177.6640  144.9460 C   0  0  0  0  0  0  0  0  0  0  0  0
  189.2840  177.7780  146.4560 C   0  0  0  0  0  0  0  0  0  0  0  0
  183.7970  178.6500  143.4210 C   0  0  0  0  0  0  0  0  0  0  0  0
  186.8660  178.2690  147.1770 C   0  0  0  0  0  3  0  0  0  0  0  0
  192.4530  177.4580  141.5590 C   0  0  0  0  0  3  0  0  0  0  0  0
  192.1480  177.5590  140.3810 O   0  0  0  0  0  0  0  0  0  0  0  0
  182.5320  179.0070  142.9480 O   0  0  0  0  0  0  0  0  0  0  0  0
  181.3790  179.0300  143.7790 C   0  0  0  0  0  1  0  0  0  0  0  0
  2  7  1  0  0  0  0
  2  5  1  0  0  0  0
  3 19  1  1  0  0  0
  3  4  1  0  0  0  0
  4 11  1  1  0  0  0
  4 20  1  0  0  0  0
  5 18  1  0  0  0  0
  6 16  1  0  0  0  0
  7  1  1  1  0  0  0
  7  3  1  0  0  0  0
  8  6  1  0  0  0  0
  9 23  1  6  0  0  0
  9 13  1  0  0  0  0
 10  9  1  0  0  0  0
 10  7  1  0  0  0  0
 11 15  2  0  0  0  0
 13 11  1  0  0  0  0
 14  5  2  0  0  0  0
 14 21  1  0  0  0  0
 16 22  2  0  0  0  0
 17 20  1  0  0  0  0
 17 22  1  0  0  0  0
 18 19  1  0  0  0  0
 18  6  2  0  0  0  0
 19 17  2  0  0  0  0
 20 12  2  0  0  0  0
 21  8  2  0  0  0  0
 24 23  2  0  0  0  0
 25 21  1  0  0  0  0
 25 26  1  0  0  0  0
M  END
>  <MODEL>
8

>  <REMARK>
 VINA RESULT:      -8.3      2.724      5.600
  Name = 
  2 active torsions:
  status: ('A' for Active; 'I' for Inactive)
    1  A    between atoms: C_6  and  C_11
    2  A    between atoms: O_8  and  C_24
                            x       y       z     vdW  Elec       q    Type
                         _______ _______ _______ _____ _____    ______ ____

>  <TORSDO>
F 2

$$$$
=
 OpenBabel11042410563D

 26 30  0  0  1  0  0  0  0  0999 V2000
  186.8010  176.4610  143.7850 C   0  0  0  0  0  1  0  0  0  0  0  0
  187.1970  178.8770  142.5280 S   0  0  0  0  0  0  0  0  0  0  0  0
  188.5080  178.0600  144.7840 C   0  0  2  0  0  3  0  0  0  0  0  0
  188.6840  177.2700  146.0870 C   0  0  2  0  0  3  0  0  0  0  0  0
  188.6740  178.1310  141.7890 C   0  0  0  0  0  0  0  0  0  0  0  0
  190.9040  177.1280  141.9520 C   0  0  0  0  0  0  0  0  0  0  0  0
  187.1460  177.9160  144.0930 C   0  0  2  0  0  0  0  0  0  0  0  0
  190.9850  177.0880  140.5600 C   0  0  0  0  0  3  0  0  0  0  0  0
  185.8750  177.9100  146.3520 C   0  0  1  0  0  3  0  0  0  0  0  0
  186.0450  178.5460  144.9650 C   0  0  0  0  0  2  0  0  0  0  0  0
  188.1860  178.1040  147.2260 C   0  0  0  0  0  0  0  0  0  0  0  0
  190.7780  176.3930  147.0290 O   0  0  0  0  0  0  0  0  0  0  0  0
  186.8280  178.4300  147.2840 O   0  0  0  0  0  0  0  0  0  0  0  0
  188.7690  178.0660  140.3960 C   0  0  0  0  0  3  0  0  0  0  0  0
  188.9920  178.5590  148.1280 N   0  0  0  0  0  2  0  0  0  0  0  0
  191.9330  176.5780  142.7430 C   0  0  0  0  0  3  0  0  0  0  0  0
  190.6460  177.0510  144.7180 C   0  0  0  0  0  0  0  0  0  0  0  0
  189.7460  177.6680  142.5690 C   0  0  0  0  0  0  0  0  0  0  0  0
  189.6630  177.6300  143.9550 C   0  0  0  0  0  0  0  0  0  0  0  0
  190.1420  176.9030  146.0690 C   0  0  0  0  0  0  0  0  0  0  0  0
  189.9230  177.5530  139.7750 C   0  0  0  0  0  0  0  0  0  0  0  0
  191.8000  176.5180  144.1430 C   0  0  0  0  0  3  0  0  0  0  0  0
  184.4980  178.1960  146.8450 C   0  0  0  0  0  3  0  0  0  0  0  0
  183.7460  178.9030  146.1930 O   0  0  0  0  0  0  0  0  0  0  0  0
  190.0370  177.4920  138.3840 O   0  0  0  0  0  0  0  0  0  0  0  0
  189.2590  178.3020  137.5130 C   0  0  0  0  0  1  0  0  0  0  0  0
  2  7  1  0  0  0  0
  3 19  1  6  0  0  0
  3  4  1  0  0  0  0
  4 20  1  1  0  0  0
  4 11  1  0  0  0  0
  5  2  1  0  0  0  0
  5 18  1  0  0  0  0
  6 18  2  0  0  0  0
  6 16  1  0  0  0  0
  7  1  1  6  0  0  0
  7  3  1  0  0  0  0
  7 10  1  0  0  0  0
  8  6  1  0  0  0  0
  9 23  1  1  0  0  0
  9 13  1  0  0  0  0
 10  9  1  0  0  0  0
 11 13  1  0  0  0  0
 11 15  2  0  0  0  0
 14  5  2  0  0  0  0
 16 22  2  0  0  0  0
 17 20  1  0  0  0  0
 18 19  1  0  0  0  0
 19 17  2  0  0  0  0
 20 12  2  0  0  0  0
 21 14  1  0  0  0  0
 21  8  2  0  0  0  0
 22 17  1  0  0  0  0
 24 23  2  0  0  0  0
 25 21  1  0  0  0  0
 26 25  1  0  0  0  0
M  END
>  <MODEL>
9

>  <REMARK>
 VINA RESULT:      -8.1      2.347      6.401
  Name = 
  2 active torsions:
  status: ('A' for Active; 'I' for Inactive)
    1  A    between atoms: C_6  and  C_11
    2  A    between atoms: O_8  and  C_24
                            x       y       z     vdW  Elec       q    Type
                         _______ _______ _______ _____ _____    ______ ____

>  <TORSDO>
F 2

$$$$
