=
 OpenBabel11032420143D

 36 39  0  0  1  0  0  0  0  0999 V2000
  183.2540  179.1820  145.0680 S   0  0  0  0  0  0  0  0  0  0  0  0
  181.1900  179.2460  143.2210 N   0  0  0  0  0  1  0  0  0  0  0  0
  184.7430  178.5970  144.5540 C   0  0  0  0  0  0  0  0  0  0  0  0
  186.7840  177.8330  143.9180 C   0  0  0  0  0  0  0  0  0  0  0  0
  183.4690  178.4090  142.6370 C   0  0  0  0  0  0  0  0  0  0  0  0
  185.9260  177.7380  142.7640 N   0  0  0  0  0  0  0  0  0  0  0  0
  182.5430  178.9410  143.5370 C   0  0  0  0  0  0  0  0  0  0  0  0
  188.0700  177.4480  143.8980 C   0  0  2  0  0  3  0  0  0  0  0  0
  183.2080  178.1090  141.3420 F   0  0  0  0  0  0  0  0  0  0  0  0
  186.0810  178.3890  145.1450 C   0  0  0  0  0  2  0  0  0  0  0  0
  184.6970  178.2310  143.2590 C   0  0  0  0  0  0  0  0  0  0  0  0
  189.2200  175.5160  142.7490 C   0  0  0  0  0  1  0  0  0  0  0  0
  188.8180  177.6710  141.5450 C   0  0  0  0  0  0  0  0  0  0  0  0
  188.6930  176.9120  142.6650 C   0  0  0  0  0  0  0  0  0  0  0  0
  188.3900  179.1040  141.5560 C   0  0  0  0  0  1  0  0  0  0  0  0
  189.3970  177.2210  140.2570 C   0  0  0  0  0  3  0  0  0  0  0  0
  189.2950  178.5060  137.9850 C   0  0  0  0  0  3  0  0  0  0  0  0
  189.3420  177.8680  139.1220 C   0  0  0  0  0  0  0  0  0  0  0  0
  191.0510  173.8060  137.0280 C   0  0  0  0  0  3  0  0  0  0  0  0
  191.4820  176.3270  137.2370 C   0  0  0  0  0  3  0  0  0  0  0  0
  189.3200  175.4250  136.6190 C   0  0  0  0  0  0  0  0  0  0  0  0
  189.4380  177.7670  136.6970 C   0  0  1  0  0  3  0  0  0  0  0  0
  188.8680  172.9030  136.3610 C   0  0  0  0  0  1  0  0  0  0  0  0
  188.1550  175.8460  136.2680 N   0  0  0  0  0  2  0  0  0  0  0  0
  192.0350  174.9190  137.3720 C   0  0  0  0  0  3  0  0  0  0  0  0
  190.2060  176.5130  136.9080 C   0  0  0  0  0  0  0  0  0  0  0  0
  188.1710  177.2270  136.3030 O   0  0  0  0  0  0  0  0  0  0  0  0
  189.7760  174.0360  136.6840 C   0  0  0  0  0  0  0  0  0  0  0  0
  188.8930  177.4920  145.1490 C   0  0  0  0  0  2  0  0  0  0  0  0
  190.0260  178.4970  145.0050 C   0  0  0  0  0  2  0  0  0  0  0  0
  191.3700  177.7860  145.0270 C   0  0  2  0  0  3  0  0  0  0  0  0
  191.9200  177.7220  143.6840 N   0  0  0  0  0  1  0  0  0  0  0  0
  191.2760  176.3860  145.6410 C   0  0  0  0  0  2  0  0  0  0  0  0
  191.6860  177.1400  147.8700 O   0  0  0  0  0  1  0  0  0  0  0  0
  191.9430  176.2920  146.9760 C   0  0  0  0  0  0  0  0  0  0  0  0
  192.8280  175.2550  147.2410 O   0  0  0  0  0  0  0  0  0  0  0  0
  2  7  1  0  0  0  0
  3  1  1  0  0  0  0
  3 10  1  0  0  0  0
  4 10  1  0  0  0  0
  5 11  1  0  0  0  0
  5  7  2  0  0  0  0
  6 11  1  0  0  0  0
  6  4  2  0  0  0  0
  7  1  1  0  0  0  0
  8  4  1  0  0  0  0
  8 29  1  1  0  0  0
  9  5  1  0  0  0  0
 11  3  2  0  0  0  0
 13 15  1  0  0  0  0
 13 14  2  0  0  0  0
 14 12  1  0  0  0  0
 14  8  1  0  0  0  0
 16 13  1  0  0  0  0
 17 18  2  0  0  0  0
 18 16  2  0  0  0  0
 19 25  1  0  0  0  0
 20 25  2  0  0  0  0
 21 28  1  0  0  0  0
 21 26  2  0  0  0  0
 22 26  1  0  0  0  0
 22 17  1  1  0  0  0
 23 28  1  0  0  0  0
 24 27  1  0  0  0  0
 24 21  1  0  0  0  0
 26 20  1  0  0  0  0
 27 22  1  0  0  0  0
 28 19  2  0  0  0  0
 30 31  1  0  0  0  0
 30 29  1  0  0  0  0
 31 32  1  6  0  0  0
 31 33  1  0  0  0  0
 33 35  1  0  0  0  0
 35 36  2  0  0  0  0
 35 34  1  0  0  0  0
M  END
>  <MODEL>
1

>  <REMARK>
 VINA RESULT:      -8.4      0.000      0.000
  Name = 
  8 active torsions:
  status: ('A' for Active; 'I' for Inactive)
    1  A    between atoms: C_7  and  C_19
    2  A    between atoms: C_9  and  C_16
    3  A    between atoms: C_14  and  C_21
    4  A    between atoms: C_14  and  C_24
    5  A    between atoms: C_15  and  C_26
    6  A    between atoms: C_21  and  C_32
    7  A    between atoms: C_24  and  C_25
    8  A    between atoms: C_25  and  C_26
                            x       y       z     vdW  Elec       q    Type
                         _______ _______ _______ _____ _____    ______ ____

>  <TORSDO>
F 8

$$$$
=
 OpenBabel11032420143D

 36 39  0  0  1  0  0  0  0  0999 V2000
  179.1020  180.6600  137.7000 S   0  0  0  0  0  0  0  0  0  0  0  0
  179.1580  183.3890  137.2280 N   0  0  0  0  0  1  0  0  0  0  0  0
  180.5240  179.9270  138.2160 C   0  0  0  0  0  0  0  0  0  0  0  0
  182.4070  178.8820  138.9310 C   0  0  0  0  0  0  0  0  0  0  0  0
  181.1740  182.1330  137.9990 C   0  0  0  0  0  0  0  0  0  0  0  0
  182.7410  180.2730  138.7650 N   0  0  0  0  0  0  0  0  0  0  0  0
  179.8310  182.1990  137.6220 C   0  0  0  0  0  0  0  0  0  0  0  0
  183.3010  177.9640  139.3340 C   0  0  2  0  0  3  0  0  0  0  0  0
  182.0210  183.1900  138.0420 F   0  0  0  0  0  0  0  0  0  0  0  0
  180.9610  178.5660  138.5870 C   0  0  0  0  0  2  0  0  0  0  0  0
  181.5190  180.8280  138.3250 C   0  0  0  0  0  0  0  0  0  0  0  0
  185.6500  178.3690  138.4990 C   0  0  0  0  0  1  0  0  0  0  0  0
  185.0930  178.5960  140.9270 C   0  0  0  0  0  0  0  0  0  0  0  0
  184.6980  178.3410  139.6520 C   0  0  0  0  0  0  0  0  0  0  0  0
  184.1310  178.4280  142.0590 C   0  0  0  0  0  1  0  0  0  0  0  0
  186.4550  179.0070  141.3440 C   0  0  0  0  0  3  0  0  0  0  0  0
  188.1370  177.5810  142.7440 C   0  0  0  0  0  3  0  0  0  0  0  0
  187.2930  178.2900  142.0460 C   0  0  0  0  0  0  0  0  0  0  0  0
  189.8620  176.6950  147.4690 C   0  0  0  0  0  3  0  0  0  0  0  0
  188.2960  177.9770  145.8920 C   0  0  0  0  0  3  0  0  0  0  0  0
  190.4290  177.0880  145.1650 C   0  0  0  0  0  0  0  0  0  0  0  0
  189.2210  178.2480  143.5220 C   0  0  1  0  0  3  0  0  0  0  0  0
  192.0400  175.8340  146.7350 C   0  0  0  0  0  1  0  0  0  0  0  0
  191.1690  177.0750  144.1120 N   0  0  0  0  0  2  0  0  0  0  0  0
  188.5240  177.4030  147.2790 C   0  0  0  0  0  3  0  0  0  0  0  0
  189.1990  177.7830  144.9330 C   0  0  0  0  0  0  0  0  0  0  0  0
  190.4960  177.7460  143.1090 O   0  0  0  0  0  0  0  0  0  0  0  0
  190.7530  176.5360  146.4810 C   0  0  0  0  0  0  0  0  0  0  0  0
  182.9200  176.5170  139.4100 C   0  0  0  0  0  2  0  0  0  0  0  0
  182.6260  175.9710  138.0220 C   0  0  0  0  0  2  0  0  0  0  0  0
  183.7980  175.1440  137.5200 C   0  0  2  0  0  3  0  0  0  0  0  0
  184.5240  175.8800  136.4970 N   0  0  0  0  0  1  0  0  0  0  0  0
  183.3600  173.7750  136.9940 C   0  0  0  0  0  2  0  0  0  0  0  0
  184.0200  171.4810  137.0900 O   0  0  0  0  0  0  0  0  0  0  0  0
  184.2740  172.6690  137.4170 C   0  0  0  0  0  0  0  0  0  0  0  0
  185.4180  172.9550  138.1490 O   0  0  0  0  0  1  0  0  0  0  0  0
  1  3  1  0  0  0  0
  2  7  1  0  0  0  0
  3 11  2  0  0  0  0
  3 10  1  0  0  0  0
  4  8  1  0  0  0  0
  5  9  1  0  0  0  0
  5 11  1  0  0  0  0
  6  4  2  0  0  0  0
  7  1  1  0  0  0  0
  7  5  2  0  0  0  0
  8 29  1  6  0  0  0
  8 14  1  0  0  0  0
 10  4  1  0  0  0  0
 11  6  1  0  0  0  0
 12 14  1  0  0  0  0
 13 16  1  0  0  0  0
 13 15  1  0  0  0  0
 14 13  2  0  0  0  0
 16 18  2  0  0  0  0
 18 17  2  0  0  0  0
 20 25  2  0  0  0  0
 21 28  1  0  0  0  0
 22 17  1  6  0  0  0
 22 26  1  0  0  0  0
 24 21  1  0  0  0  0
 25 19  1  0  0  0  0
 26 21  2  0  0  0  0
 26 20  1  0  0  0  0
 27 22  1  0  0  0  0
 27 24  1  0  0  0  0
 28 23  1  0  0  0  0
 28 19  2  0  0  0  0
 30 29  1  0  0  0  0
 31 32  1  6  0  0  0
 31 30  1  0  0  0  0
 33 35  1  0  0  0  0
 33 31  1  0  0  0  0
 34 35  2  0  0  0  0
 35 36  1  0  0  0  0
M  END
>  <MODEL>
2

>  <REMARK>
 VINA RESULT:      -8.1      4.386      8.564
  Name = 
  8 active torsions:
  status: ('A' for Active; 'I' for Inactive)
    1  A    between atoms: C_7  and  C_19
    2  A    between atoms: C_9  and  C_16
    3  A    between atoms: C_14  and  C_21
    4  A    between atoms: C_14  and  C_24
    5  A    between atoms: C_15  and  C_26
    6  A    between atoms: C_21  and  C_32
    7  A    between atoms: C_24  and  C_25
    8  A    between atoms: C_25  and  C_26
                            x       y       z     vdW  Elec       q    Type
                         _______ _______ _______ _____ _____    ______ ____

>  <TORSDO>
F 8

$$$$
=
 OpenBabel11032420143D

 36 39  0  0  1  0  0  0  0  0999 V2000
  186.0140  172.3330  134.8880 S   0  0  0  0  0  0  0  0  0  0  0  0
  183.8800  171.7350  136.5510 N   0  0  0  0  0  1  0  0  0  0  0  0
  187.0810  173.5310  135.3880 C   0  0  0  0  0  0  0  0  0  0  0  0
  188.5670  175.1280  136.0150 C   0  0  0  0  0  0  0  0  0  0  0  0
  185.5640  173.4840  137.1290 C   0  0  0  0  0  0  0  0  0  0  0  0
  187.5780  175.0470  137.0590 N   0  0  0  0  0  0  0  0  0  0  0  0
  185.0500  172.4990  136.2850 C   0  0  0  0  0  0  0  0  0  0  0  0
  189.5970  175.9890  136.0550 C   0  0  2  0  0  3  0  0  0  0  0  0
  185.0240  173.8480  138.3180 F   0  0  0  0  0  0  0  0  0  0  0  0
  188.3130  174.1600  134.8700 C   0  0  0  0  0  3  0  0  0  0  0  0
  186.7120  174.0390  136.5800 C   0  0  1  0  0  3  0  0  0  0  0  0
  189.1730  178.2640  137.0660 C   0  0  0  0  0  1  0  0  0  0  0  0
  190.5150  176.5450  138.2900 C   0  0  0  0  0  0  0  0  0  0  0  0
  189.7850  176.9070  137.2030 C   0  0  0  0  0  0  0  0  0  0  0  0
  191.2140  175.2230  138.3200 C   0  0  0  0  0  1  0  0  0  0  0  0
  190.7380  177.3760  139.4970 C   0  0  0  0  0  3  0  0  0  0  0  0
  189.6510  177.0120  141.8440 C   0  0  0  0  0  3  0  0  0  0  0  0
  190.1900  177.1900  140.6690 C   0  0  0  0  0  0  0  0  0  0  0  0
  187.1290  177.3800  146.2710 C   0  0  0  0  0  3  0  0  0  0  0  0
  187.1870  177.7070  143.7270 C   0  0  0  0  0  3  0  0  0  0  0  0
  189.1870  177.7810  145.0930 C   0  0  0  0  0  0  0  0  0  0  0  0
  189.5310  178.1500  142.8010 C   0  0  1  0  0  3  0  0  0  0  0  0
  189.1540  177.4980  147.6520 C   0  0  0  0  0  1  0  0  0  0  0  0
  190.4480  178.0020  144.9590 N   0  0  0  0  0  2  0  0  0  0  0  0
  186.3510  177.4130  144.9590 C   0  0  0  0  0  3  0  0  0  0  0  0
  188.5070  177.8460  143.8340 C   0  0  0  0  0  0  0  0  0  0  0  0
  190.7040  178.2220  143.6190 O   0  0  0  0  0  0  0  0  0  0  0  0
  188.4570  177.5430  146.3380 C   0  0  0  0  0  0  0  0  0  0  0  0
  190.5490  176.0870  134.9030 C   0  0  0  0  0  2  0  0  0  0  0  0
  191.4370  174.8550  134.8410 C   0  0  0  0  0  2  0  0  0  0  0  0
  192.8870  175.2580  134.6240 C   0  0  2  0  0  3  0  0  0  0  0  0
  193.7330  174.0770  134.5950 N   0  0  0  0  0  1  0  0  0  0  0  0
  193.3780  176.2500  135.6820 C   0  0  0  0  0  2  0  0  0  0  0  0
  195.0580  177.7200  134.8330 O   0  0  0  0  0  0  0  0  0  0  0  0
  194.7990  176.6680  135.4720 C   0  0  0  0  0  0  0  0  0  0  0  0
  195.8330  175.9100  136.0040 O   0  0  0  0  0  1  0  0  0  0  0  0
  1  3  1  0  0  0  0
  1  7  1  0  0  0  0
  4  8  1  0  0  0  0
  4  6  2  0  0  0  0
  5  9  1  0  0  0  0
  7  2  1  0  0  0  0
  7  5  2  0  0  0  0
  8 29  1  6  0  0  0
  8 14  1  0  0  0  0
 10  3  2  0  0  0  0
 10  4  1  0  0  0  0
 11  3  1  1  0  0  0
 11  6  1  0  0  0  0
 11  5  1  0  0  0  0
 12 14  1  0  0  0  0
 13 15  1  0  0  0  0
 13 16  1  0  0  0  0
 14 13  2  0  0  0  0
 16 18  2  0  0  0  0
 18 17  2  0  0  0  0
 19 28  1  0  0  0  0
 20 26  2  0  0  0  0
 20 25  1  0  0  0  0
 21 28  2  0  0  0  0
 22 17  1  6  0  0  0
 22 27  1  0  0  0  0
 22 26  1  0  0  0  0
 24 21  1  0  0  0  0
 25 19  2  0  0  0  0
 26 21  1  0  0  0  0
 27 24  1  0  0  0  0
 28 23  1  0  0  0  0
 30 29  1  0  0  0  0
 31 32  1  1  0  0  0
 31 30  1  0  0  0  0
 31 33  1  0  0  0  0
 34 35  2  0  0  0  0
 35 33  1  0  0  0  0
 35 36  1  0  0  0  0
M  END
>  <MODEL>
3

>  <REMARK>
 VINA RESULT:      -7.5      3.743      9.033
  Name = 
  8 active torsions:
  status: ('A' for Active; 'I' for Inactive)
    1  A    between atoms: C_7  and  C_19
    2  A    between atoms: C_9  and  C_16
    3  A    between atoms: C_14  and  C_21
    4  A    between atoms: C_14  and  C_24
    5  A    between atoms: C_15  and  C_26
    6  A    between atoms: C_21  and  C_32
    7  A    between atoms: C_24  and  C_25
    8  A    between atoms: C_25  and  C_26
                            x       y       z     vdW  Elec       q    Type
                         _______ _______ _______ _____ _____    ______ ____

>  <TORSDO>
F 8

$$$$
=
 OpenBabel11032420143D

 36 39  0  0  1  0  0  0  0  0999 V2000
  191.3040  177.8310  143.5160 S   0  0  0  0  0  0  0  0  0  0  0  0
  189.2240  177.9930  145.3380 N   0  0  0  0  0  1  0  0  0  0  0  0
  190.9180  177.4620  141.9220 C   0  0  0  0  0  0  0  0  0  0  0  0
  190.4610  176.9850  139.7510 C   0  0  0  0  0  0  0  0  0  0  0  0
  188.8400  177.4570  142.9310 C   0  0  0  0  0  0  0  0  0  0  0  0
  189.2010  176.9920  140.4490 N   0  0  0  0  0  0  0  0  0  0  0  0
  189.6720  177.7640  144.0080 C   0  0  0  0  0  0  0  0  0  0  0  0
  190.5610  176.7210  138.4380 C   0  0  2  0  0  3  0  0  0  0  0  0
  187.4920  177.3350  143.0000 F   0  0  0  0  0  0  0  0  0  0  0  0
  191.6480  177.2850  140.6500 C   0  0  0  0  0  3  0  0  0  0  0  0
  189.5900  177.2950  141.7730 C   0  0  1  0  0  3  0  0  0  0  0  0
  189.0500  174.9910  137.3900 C   0  0  0  0  0  1  0  0  0  0  0  0
  188.6210  177.4340  137.0690 C   0  0  0  0  0  0  0  0  0  0  0  0
  189.3600  176.4350  137.6180 C   0  0  0  0  0  0  0  0  0  0  0  0
  189.0490  178.8580  137.2220 C   0  0  0  0  0  1  0  0  0  0  0  0
  187.3910  177.2540  136.2610 C   0  0  0  0  0  3  0  0  0  0  0  0
  185.1070  176.3150  137.1140 C   0  0  0  0  0  3  0  0  0  0  0  0
  186.2500  176.7820  136.6930 C   0  0  0  0  0  0  0  0  0  0  0  0
  183.5190  171.4870  136.6020 C   0  0  0  0  0  3  0  0  0  0  0  0
  185.1390  173.3640  135.9390 C   0  0  0  0  0  3  0  0  0  0  0  0
  182.8910  173.8060  136.7260 C   0  0  0  0  0  0  0  0  0  0  0  0
  184.1390  175.7090  136.1550 C   0  0  1  0  0  3  0  0  0  0  0  0
  181.2290  171.9430  137.3590 C   0  0  0  0  0  1  0  0  0  0  0  0
  182.1060  174.8080  136.9120 N   0  0  0  0  0  2  0  0  0  0  0  0
  184.9150  171.8730  136.1230 C   0  0  0  0  0  3  0  0  0  0  0  0
  184.1770  174.2270  136.2560 C   0  0  0  0  0  0  0  0  0  0  0  0
  182.7990  175.9600  136.5920 O   0  0  0  0  0  0  0  0  0  0  0  0
  182.5710  172.3880  136.8950 C   0  0  0  0  0  0  0  0  0  0  0  0
  191.9050  176.6470  137.7800 C   0  0  0  0  0  2  0  0  0  0  0  0
  192.4430  175.2260  137.8290 C   0  0  0  0  0  2  0  0  0  0  0  0
  193.9600  175.2320  137.7270 C   0  0  2  0  0  3  0  0  0  0  0  0
  194.3900  176.2380  136.7700 N   0  0  0  0  0  1  0  0  0  0  0  0
  194.5220  173.8560  137.3560 C   0  0  0  0  0  2  0  0  0  0  0  0
  195.3630  171.9570  138.5360 O   0  0  0  0  0  0  0  0  0  0  0  0
  195.2670  173.2110  138.4810 C   0  0  0  0  0  0  0  0  0  0  0  0
  195.8750  173.9940  139.4530 O   0  0  0  0  0  1  0  0  0  0  0  0
  1  7  1  0  0  0  0
  3  1  1  0  0  0  0
  4  6  2  0  0  0  0
  4 10  1  0  0  0  0
  5  9  1  0  0  0  0
  5  7  2  0  0  0  0
  7  2  1  0  0  0  0
  8 29  1  1  0  0  0
  8  4  1  0  0  0  0
 10  3  2  0  0  0  0
 11  6  1  6  0  0  0
 11  3  1  0  0  0  0
 11  5  1  0  0  0  0
 12 14  1  0  0  0  0
 13 15  1  0  0  0  0
 13 14  2  0  0  0  0
 14  8  1  0  0  0  0
 16 18  2  0  0  0  0
 16 13  1  0  0  0  0
 18 17  2  0  0  0  0
 19 28  1  0  0  0  0
 20 25  1  0  0  0  0
 20 26  2  0  0  0  0
 21 28  2  0  0  0  0
 21 24  1  0  0  0  0
 22 26  1  0  0  0  0
 22 27  1  0  0  0  0
 22 17  1  1  0  0  0
 25 19  2  0  0  0  0
 26 21  1  0  0  0  0
 27 24  1  0  0  0  0
 28 23  1  0  0  0  0
 29 30  1  0  0  0  0
 31 32  1  6  0  0  0
 31 30  1  0  0  0  0
 33 31  1  0  0  0  0
 33 35  1  0  0  0  0
 35 34  2  0  0  0  0
 35 36  1  0  0  0  0
M  END
>  <MODEL>
4

>  <REMARK>
 VINA RESULT:      -7.4      4.450      6.907
  Name = 
  8 active torsions:
  status: ('A' for Active; 'I' for Inactive)
    1  A    between atoms: C_7  and  C_19
    2  A    between atoms: C_9  and  C_16
    3  A    between atoms: C_14  and  C_21
    4  A    between atoms: C_14  and  C_24
    5  A    between atoms: C_15  and  C_26
    6  A    between atoms: C_21  and  C_32
    7  A    between atoms: C_24  and  C_25
    8  A    between atoms: C_25  and  C_26
                            x       y       z     vdW  Elec       q    Type
                         _______ _______ _______ _____ _____    ______ ____

>  <TORSDO>
F 8

$$$$
=
 OpenBabel11032420143D

 36 39  0  0  1  0  0  0  0  0999 V2000
  192.9360  176.9480  139.2370 S   0  0  0  0  0  0  0  0  0  0  0  0
  192.2530  175.9980  136.7260 N   0  0  0  0  0  1  0  0  0  0  0  0
  191.7040  177.1260  140.3660 C   0  0  0  0  0  0  0  0  0  0  0  0
  190.0870  177.3730  141.9400 C   0  0  0  0  0  0  0  0  0  0  0  0
  190.5570  176.3260  138.5280 C   0  0  0  0  0  0  0  0  0  0  0  0
  189.4390  176.8790  140.7520 N   0  0  0  0  0  0  0  0  0  0  0  0
  191.8640  176.3760  138.0410 C   0  0  0  0  0  0  0  0  0  0  0  0
  189.4170  177.6460  143.0720 C   0  0  2  0  0  3  0  0  0  0  0  0
  189.4790  175.9120  137.8180 F   0  0  0  0  0  0  0  0  0  0  0  0
  191.5850  177.5660  141.7710 C   0  0  0  0  0  2  0  0  0  0  0  0
  190.5160  176.7600  139.8460 C   0  0  0  0  0  0  0  0  0  0  0  0
  187.5130  176.2250  143.9270 C   0  0  0  0  0  1  0  0  0  0  0  0
  187.0750  178.2690  142.5550 C   0  0  0  0  0  0  0  0  0  0  0  0
  187.9540  177.4350  143.1680 C   0  0  0  0  0  0  0  0  0  0  0  0
  187.5720  179.3900  141.7000 C   0  0  0  0  0  1  0  0  0  0  0  0
  185.5970  178.1610  142.6130 C   0  0  0  0  0  3  0  0  0  0  0  0
  183.9540  178.3400  140.5900 C   0  0  0  0  0  3  0  0  0  0  0  0
  184.7790  178.2530  141.5980 C   0  0  0  0  0  0  0  0  0  0  0  0
  180.3140  179.6590  137.2580 C   0  0  0  0  0  3  0  0  0  0  0  0
  182.2020  180.3440  138.8560 C   0  0  0  0  0  3  0  0  0  0  0  0
  180.8950  178.3290  139.1770 C   0  0  0  0  0  0  0  0  0  0  0  0
  182.5310  178.7270  140.8110 C   0  0  1  0  0  3  0  0  0  0  0  0
  178.9680  177.6370  137.6140 C   0  0  0  0  0  1  0  0  0  0  0  0
  180.7840  177.3670  140.0240 N   0  0  0  0  0  2  0  0  0  0  0  0
  181.4250  180.6510  137.5880 C   0  0  0  0  0  3  0  0  0  0  0  0
  181.9360  179.2390  139.5490 C   0  0  0  0  0  0  0  0  0  0  0  0
  181.7340  177.5540  141.0100 O   0  0  0  0  0  0  0  0  0  0  0  0
  180.0680  178.5650  137.9930 C   0  0  0  0  0  0  0  0  0  0  0  0
  190.1300  178.2350  144.2510 C   0  0  0  0  0  2  0  0  0  0  0  0
  190.6250  177.1350  145.1770 C   0  0  0  0  0  2  0  0  0  0  0  0
  190.3080  177.4790  146.6240 C   0  0  2  0  0  3  0  0  0  0  0  0
  191.4320  177.1280  147.4760 N   0  0  0  0  0  1  0  0  0  0  0  0
  189.0240  176.8040  147.1140 C   0  0  0  0  0  2  0  0  0  0  0  0
  188.2960  178.1310  148.9600 O   0  0  0  0  0  1  0  0  0  0  0  0
  188.0830  177.7570  147.7780 C   0  0  0  0  0  0  0  0  0  0  0  0
  186.9880  178.2520  147.0830 O   0  0  0  0  0  0  0  0  0  0  0  0
  1  3  1  0  0  0  0
  2  7  1  0  0  0  0
  3 10  1  0  0  0  0
  4  8  1  0  0  0  0
  5 11  1  0  0  0  0
  6  4  2  0  0  0  0
  7  5  2  0  0  0  0
  7  1  1  0  0  0  0
  8 14  1  0  0  0  0
  8 29  1  6  0  0  0
  9  5  1  0  0  0  0
 10  4  1  0  0  0  0
 11  3  2  0  0  0  0
 11  6  1  0  0  0  0
 13 16  1  0  0  0  0
 13 14  2  0  0  0  0
 14 12  1  0  0  0  0
 15 13  1  0  0  0  0
 17 18  2  0  0  0  0
 18 16  2  0  0  0  0
 19 25  2  0  0  0  0
 19 28  1  0  0  0  0
 20 26  2  0  0  0  0
 21 26  1  0  0  0  0
 21 24  1  0  0  0  0
 22 17  1  6  0  0  0
 22 27  1  0  0  0  0
 23 28  1  0  0  0  0
 24 27  1  0  0  0  0
 25 20  1  0  0  0  0
 26 22  1  0  0  0  0
 28 21  2  0  0  0  0
 29 30  1  0  0  0  0
 30 31  1  0  0  0  0
 31 33  1  0  0  0  0
 31 32  1  1  0  0  0
 33 35  1  0  0  0  0
 35 34  1  0  0  0  0
 36 35  2  0  0  0  0
M  END
>  <MODEL>
5

>  <REMARK>
 VINA RESULT:      -7.2      4.125      7.378
  Name = 
  8 active torsions:
  status: ('A' for Active; 'I' for Inactive)
    1  A    between atoms: C_7  and  C_19
    2  A    between atoms: C_9  and  C_16
    3  A    between atoms: C_14  and  C_21
    4  A    between atoms: C_14  and  C_24
    5  A    between atoms: C_15  and  C_26
    6  A    between atoms: C_21  and  C_32
    7  A    between atoms: C_24  and  C_25
    8  A    between atoms: C_25  and  C_26
                            x       y       z     vdW  Elec       q    Type
                         _______ _______ _______ _____ _____    ______ ____

>  <TORSDO>
F 8

$$$$
=
 OpenBabel11032420143D

 36 39  0  0  1  0  0  0  0  0999 V2000
  179.2450  181.8620  137.8080 S   0  0  0  0  0  0  0  0  0  0  0  0
  179.7820  184.5360  137.3230 N   0  0  0  0  0  1  0  0  0  0  0  0
  180.5280  180.8810  138.2730 C   0  0  0  0  0  0  0  0  0  0  0  0
  182.2140  179.5060  138.9200 C   0  0  0  0  0  0  0  0  0  0  0  0
  181.5610  182.9310  138.0220 C   0  0  0  0  0  0  0  0  0  0  0  0
  182.7910  180.8140  138.7360 N   0  0  0  0  0  0  0  0  0  0  0  0
  180.2400  183.2420  137.6960 C   0  0  0  0  0  0  0  0  0  0  0  0
  182.9400  178.4390  139.2930 C   0  0  2  0  0  3  0  0  0  0  0  0
  182.5890  183.8140  138.0290 F   0  0  0  0  0  0  0  0  0  0  0  0
  180.7230  179.4610  138.6330 C   0  0  0  0  0  2  0  0  0  0  0  0
  181.6740  181.5840  138.3400 C   0  0  0  0  0  0  0  0  0  0  0  0
  185.2880  178.4310  138.3650 C   0  0  0  0  0  1  0  0  0  0  0  0
  184.8770  178.7100  140.8160 C   0  0  0  0  0  0  0  0  0  0  0  0
  184.3940  178.5540  139.5560 C   0  0  0  0  0  0  0  0  0  0  0  0
  183.9460  178.6970  141.9860 C   0  0  0  0  0  1  0  0  0  0  0  0
  186.3060  178.8620  141.1800 C   0  0  0  0  0  3  0  0  0  0  0  0
  187.5200  177.7110  143.1860 C   0  0  0  0  0  3  0  0  0  0  0  0
  186.9090  178.2840  142.1860 C   0  0  0  0  0  0  0  0  0  0  0  0
  190.0310  176.6670  147.5100 C   0  0  0  0  0  3  0  0  0  0  0  0
  188.2760  178.0540  146.2530 C   0  0  0  0  0  3  0  0  0  0  0  0
  190.1870  177.0610  145.1420 C   0  0  0  0  0  0  0  0  0  0  0  0
  188.7630  178.3070  143.7540 C   0  0  1  0  0  3  0  0  0  0  0  0
  191.9860  175.7000  146.3840 C   0  0  0  0  0  1  0  0  0  0  0  0
  190.7180  177.0230  143.9710 N   0  0  0  0  0  2  0  0  0  0  0  0
  188.7230  177.4490  147.5720 C   0  0  0  0  0  3  0  0  0  0  0  0
  188.9750  177.8250  145.1440 C   0  0  0  0  0  0  0  0  0  0  0  0
  189.9120  177.7430  143.1110 O   0  0  0  0  0  0  0  0  0  0  0  0
  190.7150  176.4750  146.3740 C   0  0  0  0  0  0  0  0  0  0  0  0
  182.3040  177.0870  139.3900 C   0  0  0  0  0  2  0  0  0  0  0  0
  180.7920  177.2150  139.4770 C   0  0  0  0  0  2  0  0  0  0  0  0
  180.3010  176.7660  140.8450 C   0  0  2  0  0  3  0  0  0  0  0  0
  179.6500  175.4710  140.7380 N   0  0  0  0  0  1  0  0  0  0  0  0
  179.3660  177.7910  141.4920 C   0  0  0  0  0  2  0  0  0  0  0  0
  179.7300  177.7610  143.8520 O   0  0  0  0  0  1  0  0  0  0  0  0
  179.9160  178.3600  142.7610 C   0  0  0  0  0  0  0  0  0  0  0  0
  180.6550  179.5340  142.7340 O   0  0  0  0  0  0  0  0  0  0  0  0
  1  3  1  0  0  0  0
  2  7  1  0  0  0  0
  3 11  2  0  0  0  0
  3 10  1  0  0  0  0
  4  8  1  0  0  0  0
  5  9  1  0  0  0  0
  5 11  1  0  0  0  0
  6  4  2  0  0  0  0
  7  1  1  0  0  0  0
  7  5  2  0  0  0  0
  8 29  1  6  0  0  0
  8 14  1  0  0  0  0
 10  4  1  0  0  0  0
 11  6  1  0  0  0  0
 12 14  1  0  0  0  0
 13 16  1  0  0  0  0
 13 15  1  0  0  0  0
 14 13  2  0  0  0  0
 16 18  2  0  0  0  0
 18 17  2  0  0  0  0
 19 25  1  0  0  0  0
 20 25  2  0  0  0  0
 21 26  2  0  0  0  0
 21 28  1  0  0  0  0
 22 17  1  6  0  0  0
 22 26  1  0  0  0  0
 24 21  1  0  0  0  0
 26 20  1  0  0  0  0
 27 22  1  0  0  0  0
 27 24  1  0  0  0  0
 28 23  1  0  0  0  0
 28 19  2  0  0  0  0
 29 30  1  0  0  0  0
 30 31  1  0  0  0  0
 31 32  1  6  0  0  0
 31 33  1  0  0  0  0
 33 35  1  0  0  0  0
 35 34  1  0  0  0  0
 36 35  2  0  0  0  0
M  END
>  <MODEL>
6

>  <REMARK>
 VINA RESULT:      -7.2      4.841      8.839
  Name = 
  8 active torsions:
  status: ('A' for Active; 'I' for Inactive)
    1  A    between atoms: C_7  and  C_19
    2  A    between atoms: C_9  and  C_16
    3  A    between atoms: C_14  and  C_21
    4  A    between atoms: C_14  and  C_24
    5  A    between atoms: C_15  and  C_26
    6  A    between atoms: C_21  and  C_32
    7  A    between atoms: C_24  and  C_25
    8  A    between atoms: C_25  and  C_26
                            x       y       z     vdW  Elec       q    Type
                         _______ _______ _______ _____ _____    ______ ____

>  <TORSDO>
F 8

$$$$
=
 OpenBabel11032420143D

 36 39  0  0  1  0  0  0  0  0999 V2000
  183.4330  179.0780  144.6440 S   0  0  0  0  0  0  0  0  0  0  0  0
  181.4220  178.7870  142.7620 N   0  0  0  0  0  1  0  0  0  0  0  0
  184.9750  178.5550  144.2260 C   0  0  0  0  0  0  0  0  0  0  0  0
  187.0820  177.8840  143.7170 C   0  0  0  0  0  0  0  0  0  0  0  0
  183.7700  178.0680  142.3170 C   0  0  0  0  0  0  0  0  0  0  0  0
  186.2650  177.6020  142.5640 N   0  0  0  0  0  0  0  0  0  0  0  0
  182.7840  178.6220  143.1350 C   0  0  0  0  0  0  0  0  0  0  0  0
  188.3940  177.5980  143.7640 C   0  0  2  0  0  3  0  0  0  0  0  0
  183.5680  177.6110  141.0570 F   0  0  0  0  0  0  0  0  0  0  0  0
  186.3070  178.5140  144.8620 C   0  0  0  0  0  2  0  0  0  0  0  0
  184.9910  178.0510  142.9780 C   0  0  0  0  0  0  0  0  0  0  0  0
  189.6800  175.6300  142.8440 C   0  0  0  0  0  1  0  0  0  0  0  0
  189.2160  177.6370  141.4260 C   0  0  0  0  0  0  0  0  0  0  0  0
  189.0870  176.9820  142.6090 C   0  0  0  0  0  0  0  0  0  0  0  0
  188.7170  179.0400  141.2850 C   0  0  0  0  0  1  0  0  0  0  0  0
  189.8640  177.0980  140.2060 C   0  0  0  0  0  3  0  0  0  0  0  0
  192.4340  176.9540  139.7590 C   0  0  0  0  0  3  0  0  0  0  0  0
  191.1510  177.0290  139.9870 C   0  0  0  0  0  0  0  0  0  0  0  0
  194.4300  173.0540  137.1320 C   0  0  0  0  0  3  0  0  0  0  0  0
  194.7610  175.1040  138.6400 C   0  0  0  0  0  3  0  0  0  0  0  0
  192.8790  174.8930  137.1300 C   0  0  0  0  0  0  0  0  0  0  0  0
  192.9500  176.8890  138.3610 C   0  0  1  0  0  3  0  0  0  0  0  0
  192.5420  172.8680  135.5750 C   0  0  0  0  0  1  0  0  0  0  0  0
  191.8630  175.5800  136.7410 N   0  0  0  0  0  2  0  0  0  0  0  0
  195.2630  173.7350  138.2130 C   0  0  0  0  0  3  0  0  0  0  0  0
  193.6340  175.5910  138.1270 C   0  0  0  0  0  0  0  0  0  0  0  0
  191.8570  176.7700  137.4440 O   0  0  0  0  0  0  0  0  0  0  0  0
  193.3080  173.5870  136.6280 C   0  0  0  0  0  0  0  0  0  0  0  0
  189.1770  177.8380  145.0180 C   0  0  0  0  0  2  0  0  0  0  0  0
  189.2830  176.5580  145.8320 C   0  0  0  0  0  2  0  0  0  0  0  0
  189.7030  176.8720  147.2590 C   0  0  2  0  0  3  0  0  0  0  0  0
  188.9050  177.9690  147.7820 N   0  0  0  0  0  1  0  0  0  0  0  0
  191.1970  177.1890  147.3690 C   0  0  0  0  0  2  0  0  0  0  0  0
  192.7280  175.6190  148.3130 O   0  0  0  0  0  1  0  0  0  0  0  0
  192.0560  175.9660  147.3080 C   0  0  0  0  0  0  0  0  0  0  0  0
  192.0920  175.1990  146.1520 O   0  0  0  0  0  0  0  0  0  0  0  0
  2  7  1  0  0  0  0
  3  1  1  0  0  0  0
  3 10  1  0  0  0  0
  4  8  1  0  0  0  0
  4 10  1  0  0  0  0
  5 11  1  0  0  0  0
  5  7  2  0  0  0  0
  6 11  1  0  0  0  0
  6  4  2  0  0  0  0
  7  1  1  0  0  0  0
  8 29  1  1  0  0  0
  9  5  1  0  0  0  0
 11  3  2  0  0  0  0
 13 14  2  0  0  0  0
 14 12  1  0  0  0  0
 14  8  1  0  0  0  0
 15 13  1  0  0  0  0
 16 13  1  0  0  0  0
 17 18  2  0  0  0  0
 18 16  2  0  0  0  0
 19 25  1  0  0  0  0
 21 26  2  0  0  0  0
 22 17  1  1  0  0  0
 23 28  1  0  0  0  0
 24 21  1  0  0  0  0
 24 27  1  0  0  0  0
 25 20  2  0  0  0  0
 26 22  1  0  0  0  0
 26 20  1  0  0  0  0
 27 22  1  0  0  0  0
 28 21  1  0  0  0  0
 28 19  2  0  0  0  0
 29 30  1  0  0  0  0
 30 31  1  0  0  0  0
 31 33  1  0  0  0  0
 31 32  1  6  0  0  0
 35 33  1  0  0  0  0
 35 34  1  0  0  0  0
 36 35  2  0  0  0  0
M  END
>  <MODEL>
7

>  <REMARK>
 VINA RESULT:      -7.1      2.057      2.419
  Name = 
  8 active torsions:
  status: ('A' for Active; 'I' for Inactive)
    1  A    between atoms: C_7  and  C_19
    2  A    between atoms: C_9  and  C_16
    3  A    between atoms: C_14  and  C_21
    4  A    between atoms: C_14  and  C_24
    5  A    between atoms: C_15  and  C_26
    6  A    between atoms: C_21  and  C_32
    7  A    between atoms: C_24  and  C_25
    8  A    between atoms: C_25  and  C_26
                            x       y       z     vdW  Elec       q    Type
                         _______ _______ _______ _____ _____    ______ ____

>  <TORSDO>
F 8

$$$$
=
 OpenBabel11032420143D

 36 39  0  0  1  0  0  0  0  0999 V2000
  182.7650  176.6100  135.5950 S   0  0  0  0  0  0  0  0  0  0  0  0
  180.8900  177.3520  137.4940 N   0  0  0  0  0  1  0  0  0  0  0  0
  184.3830  176.9140  135.9340 C   0  0  0  0  0  0  0  0  0  0  0  0
  186.5850  177.2830  136.3410 C   0  0  0  0  0  0  0  0  0  0  0  0
  183.3360  177.7260  137.8260 C   0  0  0  0  0  0  0  0  0  0  0  0
  185.8630  177.7760  137.4860 N   0  0  0  0  0  0  0  0  0  0  0  0
  182.2480  177.2740  137.0780 C   0  0  0  0  0  0  0  0  0  0  0  0
  187.9230  177.3560  136.2410 C   0  0  2  0  0  3  0  0  0  0  0  0
  183.2510  178.3010  139.0500 F   0  0  0  0  0  0  0  0  0  0  0  0
  185.6830  176.6990  135.2670 C   0  0  0  0  0  3  0  0  0  0  0  0
  184.5210  177.5020  137.1380 C   0  0  1  0  0  3  0  0  0  0  0  0
  189.0350  179.4030  137.2160 C   0  0  0  0  0  1  0  0  0  0  0  0
  189.2390  177.1740  138.3330 C   0  0  0  0  0  0  0  0  0  0  0  0
  188.7430  177.9410  137.3270 C   0  0  0  0  0  0  0  0  0  0  0  0
  189.0250  175.6950  138.3270 C   0  0  0  0  0  1  0  0  0  0  0  0
  190.0430  177.6660  139.4780 C   0  0  0  0  0  3  0  0  0  0  0  0
  189.6070  177.1580  142.0030 C   0  0  0  0  0  3  0  0  0  0  0  0
  189.8200  177.4100  140.7400 C   0  0  0  0  0  0  0  0  0  0  0  0
  189.0550  177.0520  147.0800 C   0  0  0  0  0  3  0  0  0  0  0  0
  188.2540  177.8770  144.7860 C   0  0  0  0  0  3  0  0  0  0  0  0
  190.5690  177.3160  145.2290 C   0  0  0  0  0  0  0  0  0  0  0  0
  190.1270  178.0790  143.0550 C   0  0  1  0  0  3  0  0  0  0  0  0
  191.4090  176.5250  147.5310 C   0  0  0  0  0  1  0  0  0  0  0  0
  191.7050  177.3340  144.6270 N   0  0  0  0  0  2  0  0  0  0  0  0
  187.8830  177.4890  146.2060 C   0  0  0  0  0  3  0  0  0  0  0  0
  189.5120  177.7560  144.3680 C   0  0  0  0  0  0  0  0  0  0  0  0
  191.4980  177.7740  143.3330 O   0  0  0  0  0  0  0  0  0  0  0  0
  190.3120  176.9600  146.6250 C   0  0  0  0  0  0  0  0  0  0  0  0
  188.6150  176.9030  134.9920 C   0  0  0  0  0  2  0  0  0  0  0  0
  188.7150  175.3860  134.9600 C   0  0  0  0  0  2  0  0  0  0  0  0
  190.1680  174.9550  134.8350 C   0  0  2  0  0  3  0  0  0  0  0  0
  190.3920  173.7390  135.6000 N   0  0  0  0  0  1  0  0  0  0  0  0
  191.1400  176.0560  135.2700 C   0  0  0  0  0  2  0  0  0  0  0  0
  193.3010  176.0660  136.2840 O   0  0  0  0  0  1  0  0  0  0  0  0
  192.5460  175.5670  135.4110 C   0  0  0  0  0  0  0  0  0  0  0  0
  193.0120  174.5440  134.5960 O   0  0  0  0  0  0  0  0  0  0  0  0
  1  3  1  0  0  0  0
  1  7  1  0  0  0  0
  4  6  2  0  0  0  0
  5  9  1  0  0  0  0
  7  2  1  0  0  0  0
  7  5  2  0  0  0  0
  8 29  1  6  0  0  0
  8  4  1  0  0  0  0
  8 14  1  0  0  0  0
 10  3  2  0  0  0  0
 10  4  1  0  0  0  0
 11  3  1  1  0  0  0
 11  6  1  0  0  0  0
 11  5  1  0  0  0  0
 12 14  1  0  0  0  0
 13 16  1  0  0  0  0
 14 13  2  0  0  0  0
 15 13  1  0  0  0  0
 16 18  2  0  0  0  0
 18 17  2  0  0  0  0
 20 25  1  0  0  0  0
 21 28  2  0  0  0  0
 22 17  1  6  0  0  0
 22 27  1  0  0  0  0
 22 26  1  0  0  0  0
 24 21  1  0  0  0  0
 25 19  2  0  0  0  0
 26 20  2  0  0  0  0
 26 21  1  0  0  0  0
 27 24  1  0  0  0  0
 28 19  1  0  0  0  0
 28 23  1  0  0  0  0
 30 29  1  0  0  0  0
 31 30  1  0  0  0  0
 31 33  1  0  0  0  0
 31 32  1  1  0  0  0
 33 35  1  0  0  0  0
 35 34  1  0  0  0  0
 36 35  2  0  0  0  0
M  END
>  <MODEL>
8

>  <REMARK>
 VINA RESULT:      -7.0      3.425      8.356
  Name = 
  8 active torsions:
  status: ('A' for Active; 'I' for Inactive)
    1  A    between atoms: C_7  and  C_19
    2  A    between atoms: C_9  and  C_16
    3  A    between atoms: C_14  and  C_21
    4  A    between atoms: C_14  and  C_24
    5  A    between atoms: C_15  and  C_26
    6  A    between atoms: C_21  and  C_32
    7  A    between atoms: C_24  and  C_25
    8  A    between atoms: C_25  and  C_26
                            x       y       z     vdW  Elec       q    Type
                         _______ _______ _______ _____ _____    ______ ____

>  <TORSDO>
F 8

$$$$
=
 OpenBabel11032420143D

 36 39  0  0  1  0  0  0  0  0999 V2000
  184.4670  178.6280  145.9000 S   0  0  0  0  0  0  0  0  0  0  0  0
  187.1320  177.9820  146.2950 N   0  0  0  0  0  1  0  0  0  0  0  0
  183.8970  178.6550  144.3200 C   0  0  0  0  0  0  0  0  0  0  0  0
  183.0620  178.6920  142.2090 C   0  0  0  0  0  0  0  0  0  0  0  0
  186.1110  178.0710  144.0190 C   0  0  0  0  0  0  0  0  0  0  0  0
  184.4540  178.3390  142.0990 N   0  0  0  0  0  0  0  0  0  0  0  0
  186.0410  178.1930  145.4080 C   0  0  0  0  0  0  0  0  0  0  0  0
  182.2590  178.8190  141.1400 C   0  0  2  0  0  3  0  0  0  0  0  0
  187.2250  177.7350  143.3240 F   0  0  0  0  0  0  0  0  0  0  0  0
  182.6110  178.9210  143.6430 C   0  0  0  0  0  2  0  0  0  0  0  0
  184.8750  178.3420  143.4480 C   0  0  0  0  0  0  0  0  0  0  0  0
  183.4050  179.7530  139.0930 C   0  0  0  0  0  1  0  0  0  0  0  0
  182.6060  177.3840  139.1490 C   0  0  0  0  0  0  0  0  0  0  0  0
  182.7650  178.5830  139.7680 C   0  0  0  0  0  0  0  0  0  0  0  0
  181.8440  176.2860  139.8200 C   0  0  0  0  0  1  0  0  0  0  0  0
  183.0990  177.0390  137.7940 C   0  0  0  0  0  3  0  0  0  0  0  0
  184.9570  175.2920  137.2260 C   0  0  0  0  0  3  0  0  0  0  0  0
  184.0300  176.1650  137.5150 C   0  0  0  0  0  0  0  0  0  0  0  0
  189.4330  177.5200  136.1790 C   0  0  0  0  0  3  0  0  0  0  0  0
  186.8720  177.6480  136.2900 C   0  0  0  0  0  3  0  0  0  0  0  0
  188.0550  175.5650  135.9270 C   0  0  0  0  0  0  0  0  0  0  0  0
  185.7150  175.3920  135.9450 C   0  0  1  0  0  3  0  0  0  0  0  0
  190.6210  175.4120  135.7700 C   0  0  0  0  0  1  0  0  0  0  0  0
  187.7930  174.3260  135.6960 N   0  0  0  0  0  2  0  0  0  0  0  0
  188.1950  178.3860  136.3930 C   0  0  0  0  0  3  0  0  0  0  0  0
  186.8570  176.3310  136.0970 C   0  0  0  0  0  0  0  0  0  0  0  0
  186.4200  174.1710  135.7010 O   0  0  0  0  0  0  0  0  0  0  0  0
  189.3740  176.1980  135.9700 C   0  0  0  0  0  0  0  0  0  0  0  0
  180.8400  179.2680  141.3070 C   0  0  0  0  0  2  0  0  0  0  0  0
  180.2610  179.7090  139.9720 C   0  0  0  0  0  2  0  0  0  0  0  0
  180.0450  181.2140  139.9600 C   0  0  2  0  0  3  0  0  0  0  0  0
  179.1000  181.5890  140.9990 N   0  0  0  0  0  1  0  0  0  0  0  0
  179.5770  181.7230  138.5940 C   0  0  0  0  0  2  0  0  0  0  0  0
  181.5980  182.8330  137.9700 O   0  0  0  0  0  1  0  0  0  0  0  0
  180.7110  181.9970  137.6570 C   0  0  0  0  0  0  0  0  0  0  0  0
  180.8000  181.3110  136.4540 O   0  0  0  0  0  0  0  0  0  0  0  0
  3  1  1  0  0  0  0
  4 10  1  0  0  0  0
  5  7  2  0  0  0  0
  6  4  2  0  0  0  0
  6 11  1  0  0  0  0
  7  1  1  0  0  0  0
  7  2  1  0  0  0  0
  8 29  1  6  0  0  0
  8  4  1  0  0  0  0
  9  5  1  0  0  0  0
 10  3  1  0  0  0  0
 11  5  1  0  0  0  0
 11  3  2  0  0  0  0
 12 14  1  0  0  0  0
 13 14  2  0  0  0  0
 13 15  1  0  0  0  0
 14  8  1  0  0  0  0
 16 13  1  0  0  0  0
 17 18  2  0  0  0  0
 18 16  2  0  0  0  0
 19 25  1  0  0  0  0
 20 25  2  0  0  0  0
 21 28  1  0  0  0  0
 21 26  2  0  0  0  0
 22 26  1  0  0  0  0
 22 17  1  1  0  0  0
 23 28  1  0  0  0  0
 24 27  1  0  0  0  0
 24 21  1  0  0  0  0
 26 20  1  0  0  0  0
 27 22  1  0  0  0  0
 28 19  2  0  0  0  0
 30 29  1  0  0  0  0
 31 30  1  0  0  0  0
 31 32  1  1  0  0  0
 33 31  1  0  0  0  0
 35 34  1  0  0  0  0
 35 33  1  0  0  0  0
 36 35  2  0  0  0  0
M  END
>  <MODEL>
9

>  <REMARK>
 VINA RESULT:      -6.8      4.363      7.770
  Name = 
  8 active torsions:
  status: ('A' for Active; 'I' for Inactive)
    1  A    between atoms: C_7  and  C_19
    2  A    between atoms: C_9  and  C_16
    3  A    between atoms: C_14  and  C_21
    4  A    between atoms: C_14  and  C_24
    5  A    between atoms: C_15  and  C_26
    6  A    between atoms: C_21  and  C_32
    7  A    between atoms: C_24  and  C_25
    8  A    between atoms: C_25  and  C_26
                            x       y       z     vdW  Elec       q    Type
                         _______ _______ _______ _____ _____    ______ ____

>  <TORSDO>
F 8

$$$$
