=
 OpenBabel11042412473D

 51 55  0  0  1  0  0  0  0  0999 V2000
  185.5030  179.2750  142.5060 C   0  0  0  0  0  3  0  0  0  0  0  0
  181.4160  175.6350  139.2710 C   0  0  0  0  0  1  0  0  0  0  0  0
  183.7830  178.1300  140.6050 C   0  0  0  0  0  0  0  0  0  0  0  0
  184.1510  176.7270  136.3860 C   0  0  0  0  0  3  0  0  0  0  0  0
  185.2540  178.2360  137.9890 C   0  0  0  0  0  0  0  0  0  0  0  0
  182.7700  176.2990  139.2720 C   0  0  1  0  0  3  0  0  0  0  0  0
  182.7880  177.4000  138.2350 C   0  0  2  0  0  3  0  0  0  0  0  0
  183.7100  177.7550  141.9590 C   0  0  0  0  0  3  0  0  0  0  0  0
  184.9910  179.3440  138.8390 N   0  0  0  0  0  2  0  0  0  0  0  0
  186.5090  176.1120  136.0970 C   0  0  0  0  0  0  0  0  0  0  0  0
  187.0770  176.6610  137.1910 C   0  0  0  0  0  0  0  0  0  0  0  0
  184.5710  178.3120  142.9090 C   0  0  0  0  0  0  0  0  0  0  0  0
  184.1190  177.3920  137.5440 C   0  0  0  0  0  0  0  0  0  0  0  0
  185.5940  179.6490  141.1630 C   0  0  0  0  0  3  0  0  0  0  0  0
  185.3150  176.7410  135.4550 C   0  0  0  0  0  2  0  0  0  0  0  0
  186.5380  177.8690  137.8640 C   0  0  0  0  0  3  0  0  0  0  0  0
  182.6260  177.7340  139.7290 C   0  0  2  0  0  3  0  0  0  0  0  0
  184.7380  179.0860  140.2100 C   0  0  0  0  0  0  0  0  0  0  0  0
  188.5900  174.8240  137.2620 F   0  0  0  0  0  0  0  0  0  0  0  0
  188.3580  176.1010  137.7390 C   0  0  1  0  0  3  0  0  0  0  0  0
  189.5550  177.0160  137.4720 C   0  0  0  0  0  2  0  0  0  0  0  0
  189.8510  177.8770  138.6080 N   0  0  0  0  0  2  0  0  0  0  0  0
  191.7440  177.6870  140.4400 O   0  0  0  0  0  0  0  0  0  0  0  0
  190.5620  176.9390  139.8920 S   0  0  0  0  0  0  0  0  0  0  0  0
  191.0280  175.6180  139.3320 O   0  0  0  0  0  0  0  0  0  0  0  0
  189.4160  176.6410  141.2280 C   0  0  0  0  0  2  0  0  0  0  0  0
  190.6590  176.7850  143.4090 C   0  0  0  0  0  0  0  0  0  0  0  0
  189.8310  177.3720  142.4080 N   0  0  0  0  0  2  0  0  0  0  0  0
  191.0280  175.5810  143.3130 O   0  0  0  0  0  0  0  0  0  0  0  0
  191.1020  177.6170  144.5730 C   0  0  1  0  0  3  0  0  0  0  0  0
  190.5470  178.9040  144.5040 O   0  0  0  0  0  0  0  0  0  0  0  0
  191.5760  179.7130  144.0130 C   0  0  0  0  0  1  0  0  0  0  0  0
  190.7400  176.9690  145.8810 C   0  0  0  0  0  0  0  0  0  0  0  0
  191.5510  176.1790  146.4350 O   0  0  0  0  0  0  0  0  0  0  0  0
  189.4130  177.2010  146.4750 C   0  0  0  0  0  0  0  0  0  0  0  0
  188.3730  176.8440  145.8650 O   0  0  0  0  0  0  0  0  0  0  0  0
  189.2660  177.9650  148.0710 S   0  0  0  0  0  3  0  0  0  0  0  0
  187.8040  177.7320  148.4380 O   0  0  0  0  0  0  0  0  0  0  0  0
  184.4500  177.9220  144.2420 O   0  0  0  0  0  0  0  0  0  0  0  0
  184.9370  178.3800  146.5490 C   0  0  0  0  0  1  0  0  0  0  0  0
  184.2150  178.8440  145.2980 C   0  0  0  0  0  2  0  0  0  0  0  0
  187.1610  174.9500  135.3950 C   0  0  0  0  0  2  0  0  0  0  0  0
  186.1490  173.9750  134.8190 C   0  0  0  0  0  2  0  0  0  0  0  0
  186.6170  172.2690  135.2650 S   0  0  0  0  0  0  0  0  0  0  0  0
  181.9880  173.7440  136.3040 C   0  0  0  0  0  1  0  0  0  0  0  0
  184.1500  171.2510  134.7550 N   0  0  0  0  0  2  0  0  0  0  0  0
  184.1980  172.9400  136.4420 C   0  0  1  0  0  3  0  0  0  0  0  0
  182.4550  171.4070  135.2500 S   0  0  0  0  0  0  0  0  0  0  0  0
  184.9490  171.7760  135.8440 C   0  0  2  0  0  3  0  0  0  0  0  0
  182.8050  172.5580  136.5540 N   0  0  0  0  0  0  0  0  0  0  0  0
  184.7540  173.2410  137.8240 C   0  0  0  0  0  1  0  0  0  0  0  0
  1 12  1  0  0  0  0
  3  8  1  0  0  0  0
  4 13  2  0  0  0  0
  5  9  1  0  0  0  0
  6  2  1  6  0  0  0
  6 17  1  0  0  0  0
  7 13  1  1  0  0  0
  7  6  1  0  0  0  0
  7 17  1  0  0  0  0
  8 12  2  0  0  0  0
  9 18  1  0  0  0  0
 10 11  2  0  0  0  0
 11 20  1  0  0  0  0
 11 16  1  0  0  0  0
 12 39  1  0  0  0  0
 13  5  1  0  0  0  0
 14  1  2  0  0  0  0
 15 10  1  0  0  0  0
 15  4  1  0  0  0  0
 16  5  2  0  0  0  0
 17  3  1  1  0  0  0
 18  3  2  0  0  0  0
 18 14  1  0  0  0  0
 20 19  1  6  0  0  0
 21 20  1  0  0  0  0
 21 22  1  0  0  0  0
 22 24  1  0  0  0  0
 24 23  2  0  0  0  0
 24 26  1  0  0  0  0
 25 24  2  0  0  0  0
 26 28  1  0  0  0  0
 28 27  1  0  0  0  0
 29 27  2  0  0  0  0
 30 27  1  6  0  0  0
 30 33  1  0  0  0  0
 31 30  1  0  0  0  0
 32 31  1  0  0  0  0
 33 34  2  0  0  0  0
 33 35  1  0  0  0  0
 35 37  1  0  0  0  0
 36 35  2  0  0  0  0
 37 38  2  0  0  0  0
 39 41  1  0  0  0  0
 41 40  1  0  0  0  0
 42 10  1  0  0  0  0
 43 44  1  0  0  0  0
 43 42  1  0  0  0  0
 45 50  1  0  0  0  0
 46 48  1  0  0  0  0
 46 49  1  0  0  0  0
 47 50  1  0  0  0  0
 47 51  1  1  0  0  0
 48 50  1  0  0  0  0
 49 44  1  6  0  0  0
 49 47  1  0  0  0  0
M  END
>  <MODEL>
1

>  <REMARK>
 VINA RESULT:      -7.1      0.000      0.000
  Name = 
  17 active torsions:
  status: ('A' for Active; 'I' for Inactive)
    1  A    between atoms: C_3  and  C_26
    2  A    between atoms: C_3  and  C_51
    3  A    between atoms: O_5  and  C_15
    4  A    between atoms: C_8  and  C_15
    5  A    between atoms: C_8  and  C_36
    6  A    between atoms: C_14  and  C_15
    7  A    between atoms: S_18  and  C_36
    8  A    between atoms: S_20  and  C_38
    9  A    between atoms: S_20  and  N_44
   10  A    between atoms: O_24  and  C_32
   11  A    between atoms: O_24  and  C_35
   12  A    between atoms: S_25  and  C_30
   13  A    between atoms: S_25  and  C_51
   14  A    between atoms: C_28  and  C_39
   15  A    between atoms: C_28  and  N_44
   16  A    between atoms: C_31  and  C_39
   17  A    between atoms: C_38  and  N_43
                            x       y       z     vdW  Elec       q    Type
                         _______ _______ _______ _____ _____    ______ ____

>  <TORSDO>
F 17

$$$$
=
 OpenBabel11042412473D

 51 55  0  0  1  0  0  0  0  0999 V2000
  186.3510  178.7380  142.4610 C   0  0  0  0  0  3  0  0  0  0  0  0
  180.4580  177.4610  140.4450 C   0  0  0  0  0  1  0  0  0  0  0  0
  183.9100  178.5950  141.0790 C   0  0  0  0  0  0  0  0  0  0  0  0
  182.6300  177.5290  136.9410 C   0  0  0  0  0  3  0  0  0  0  0  0
  184.6200  178.2860  138.1780 C   0  0  0  0  0  0  0  0  0  0  0  0
  181.9240  177.4850  140.0900 C   0  0  1  0  0  3  0  0  0  0  0  0
  182.1690  178.5570  139.0520 C   0  0  2  0  0  3  0  0  0  0  0  0
  184.0050  178.1740  142.4180 C   0  0  0  0  0  3  0  0  0  0  0  0
  185.0690  179.3250  139.0360 N   0  0  0  0  0  2  0  0  0  0  0  0
  184.3490  175.9980  136.0900 C   0  0  0  0  0  0  0  0  0  0  0  0
  185.3390  176.1600  136.9930 C   0  0  0  0  0  0  0  0  0  0  0  0
  185.2180  178.2310  143.1090 C   0  0  0  0  0  0  0  0  0  0  0  0
  183.1620  178.0440  138.0520 C   0  0  0  0  0  0  0  0  0  0  0  0
  186.2740  179.1500  141.1270 C   0  0  0  0  0  3  0  0  0  0  0  0
  183.4300  177.1260  135.7490 C   0  0  0  0  0  2  0  0  0  0  0  0
  185.5500  177.4220  137.7460 C   0  0  0  0  0  3  0  0  0  0  0  0
  182.5250  178.8010  140.5300 C   0  0  2  0  0  3  0  0  0  0  0  0
  185.0610  179.0850  140.4340 C   0  0  0  0  0  0  0  0  0  0  0  0
  185.7210  173.8390  137.3580 F   0  0  0  0  0  0  0  0  0  0  0  0
  186.3420  175.0660  137.2190 C   0  0  1  0  0  3  0  0  0  0  0  0
  187.4130  175.0230  136.1280 C   0  0  0  0  0  2  0  0  0  0  0  0
  188.4390  174.0270  136.4050 N   0  0  0  0  0  2  0  0  0  0  0  0
  190.6990  174.9810  135.4280 O   0  0  0  0  0  0  0  0  0  0  0  0
  189.9580  174.8150  136.7240 S   0  0  0  0  0  0  0  0  0  0  0  0
  190.7730  173.9500  137.6530 O   0  0  0  0  0  0  0  0  0  0  0  0
  189.7430  176.4280  137.4600 C   0  0  0  0  0  2  0  0  0  0  0  0
  189.6600  177.4500  139.7560 C   0  0  0  0  0  0  0  0  0  0  0  0
  189.9360  176.3480  138.8930 N   0  0  0  0  0  2  0  0  0  0  0  0
  189.2720  178.5540  139.2830 O   0  0  0  0  0  0  0  0  0  0  0  0
  189.8220  177.2790  141.2350 C   0  0  1  0  0  3  0  0  0  0  0  0
  189.3540  176.0200  141.6450 O   0  0  0  0  0  0  0  0  0  0  0  0
  188.5670  176.2800  142.7710 C   0  0  0  0  0  1  0  0  0  0  0  0
  191.2550  177.4580  141.6550 C   0  0  0  0  0  0  0  0  0  0  0  0
  192.1500  177.6080  140.7800 O   0  0  0  0  0  0  0  0  0  0  0  0
  191.6190  177.3860  143.0800 C   0  0  0  0  0  0  0  0  0  0  0  0
  191.9910  176.2960  143.5860 O   0  0  0  0  0  0  0  0  0  0  0  0
  191.5610  178.8420  144.0950 S   0  0  0  0  0  3  0  0  0  0  0  0
  190.2030  178.7380  144.7800 O   0  0  0  0  0  0  0  0  0  0  0  0
  185.2600  177.8180  144.4400 O   0  0  0  0  0  0  0  0  0  0  0  0
  186.9170  177.7040  146.1750 C   0  0  0  0  0  1  0  0  0  0  0  0
  185.8970  178.5720  145.4620 C   0  0  0  0  0  2  0  0  0  0  0  0
  184.2500  174.7330  135.2790 C   0  0  0  0  0  2  0  0  0  0  0  0
  182.8550  174.5050  134.7240 C   0  0  0  0  0  2  0  0  0  0  0  0
  182.2560  172.8560  135.2270 S   0  0  0  0  0  0  0  0  0  0  0  0
  179.5520  173.8890  139.2660 C   0  0  0  0  0  1  0  0  0  0  0  0
  180.5980  174.8930  135.9210 N   0  0  0  0  0  2  0  0  0  0  0  0
  180.3940  172.9410  137.2800 C   0  0  1  0  0  3  0  0  0  0  0  0
  179.3460  175.3250  137.1000 S   0  0  0  0  0  0  0  0  0  0  0  0
  180.6480  173.4460  135.8810 C   0  0  2  0  0  3  0  0  0  0  0  0
  179.3000  173.7110  137.8370 N   0  0  0  0  0  0  0  0  0  0  0  0
  180.0030  171.4730  137.2220 C   0  0  0  0  0  1  0  0  0  0  0  0
  1 12  1  0  0  0  0
  3  8  1  0  0  0  0
  4 13  2  0  0  0  0
  5  9  1  0  0  0  0
  6  2  1  1  0  0  0
  6 17  1  0  0  0  0
  7 13  1  6  0  0  0
  7  6  1  0  0  0  0
  7 17  1  0  0  0  0
  8 12  2  0  0  0  0
  9 18  1  0  0  0  0
 10 11  2  0  0  0  0
 11 20  1  0  0  0  0
 11 16  1  0  0  0  0
 12 39  1  0  0  0  0
 13  5  1  0  0  0  0
 14  1  2  0  0  0  0
 15 10  1  0  0  0  0
 15  4  1  0  0  0  0
 16  5  2  0  0  0  0
 17  3  1  6  0  0  0
 18  3  2  0  0  0  0
 18 14  1  0  0  0  0
 20 19  1  6  0  0  0
 21 22  1  0  0  0  0
 21 20  1  0  0  0  0
 22 24  1  0  0  0  0
 23 24  2  0  0  0  0
 24 26  1  0  0  0  0
 24 25  2  0  0  0  0
 26 28  1  0  0  0  0
 28 27  1  0  0  0  0
 29 27  2  0  0  0  0
 30 27  1  6  0  0  0
 30 31  1  0  0  0  0
 30 33  1  0  0  0  0
 31 32  1  0  0  0  0
 33 35  1  0  0  0  0
 34 33  2  0  0  0  0
 35 36  2  0  0  0  0
 35 37  1  0  0  0  0
 37 38  2  0  0  0  0
 39 41  1  0  0  0  0
 41 40  1  0  0  0  0
 42 10  1  0  0  0  0
 43 44  1  0  0  0  0
 43 42  1  0  0  0  0
 46 48  1  0  0  0  0
 47 51  1  6  0  0  0
 47 50  1  0  0  0  0
 48 50  1  0  0  0  0
 49 44  1  1  0  0  0
 49 46  1  0  0  0  0
 49 47  1  0  0  0  0
 50 45  1  0  0  0  0
M  END
>  <MODEL>
2

>  <REMARK>
 VINA RESULT:      -6.8      2.213      3.384
  Name = 
  17 active torsions:
  status: ('A' for Active; 'I' for Inactive)
    1  A    between atoms: C_3  and  C_26
    2  A    between atoms: C_3  and  C_51
    3  A    between atoms: O_5  and  C_15
    4  A    between atoms: C_8  and  C_15
    5  A    between atoms: C_8  and  C_36
    6  A    between atoms: C_14  and  C_15
    7  A    between atoms: S_18  and  C_36
    8  A    between atoms: S_20  and  C_38
    9  A    between atoms: S_20  and  N_44
   10  A    between atoms: O_24  and  C_32
   11  A    between atoms: O_24  and  C_35
   12  A    between atoms: S_25  and  C_30
   13  A    between atoms: S_25  and  C_51
   14  A    between atoms: C_28  and  C_39
   15  A    between atoms: C_28  and  N_44
   16  A    between atoms: C_31  and  C_39
   17  A    between atoms: C_38  and  N_43
                            x       y       z     vdW  Elec       q    Type
                         _______ _______ _______ _____ _____    ______ ____

>  <TORSDO>
F 17

$$$$
=
 OpenBabel11042412473D

 51 55  0  0  1  0  0  0  0  0999 V2000
  189.8670  177.0840  140.5620 C   0  0  0  0  0  3  0  0  0  0  0  0
  184.2060  178.6340  143.0050 C   0  0  0  0  0  1  0  0  0  0  0  0
  187.3430  178.1820  141.1180 C   0  0  0  0  0  0  0  0  0  0  0  0
  183.4610  178.5470  138.9500 C   0  0  0  0  0  3  0  0  0  0  0  0
  185.8600  178.2070  138.5080 C   0  0  0  0  0  0  0  0  0  0  0  0
  184.9540  178.1550  141.7850 C   0  0  1  0  0  3  0  0  0  0  0  0
  184.9170  179.2310  140.7220 C   0  0  2  0  0  3  0  0  0  0  0  0
  188.0660  177.4990  142.1140 C   0  0  0  0  0  3  0  0  0  0  0  0
  187.1310  178.7950  138.7460 N   0  0  0  0  0  2  0  0  0  0  0  0
  183.4070  176.6710  137.3690 C   0  0  0  0  0  0  0  0  0  0  0  0
  184.6900  176.2510  137.3900 C   0  0  0  0  0  0  0  0  0  0  0  0
  189.3180  176.9400  141.8410 C   0  0  0  0  0  0  0  0  0  0  0  0
  184.7240  178.5820  139.3840 C   0  0  0  0  0  0  0  0  0  0  0  0
  189.1560  177.7510  139.5610 C   0  0  0  0  0  3  0  0  0  0  0  0
  183.0680  178.1110  137.5800 C   0  0  0  0  0  2  0  0  0  0  0  0
  185.8330  177.1530  137.6780 C   0  0  0  0  0  3  0  0  0  0  0  0
  186.1800  179.0160  141.5780 C   0  0  2  0  0  3  0  0  0  0  0  0
  187.9000  178.3030  139.8310 C   0  0  0  0  0  0  0  0  0  0  0  0
  184.6550  174.5400  135.7350 F   0  0  0  0  0  0  0  0  0  0  0  0
  185.0260  174.8310  137.0350 C   0  0  1  0  0  3  0  0  0  0  0  0
  186.5010  174.5050  137.2750 C   0  0  0  0  0  2  0  0  0  0  0  0
  186.9930  173.4840  136.3600 N   0  0  0  0  0  2  0  0  0  0  0  0
  188.9440  173.2640  134.5940 O   0  0  0  0  0  0  0  0  0  0  0  0
  188.6620  173.7930  135.9710 S   0  0  0  0  0  0  0  0  0  0  0  0
  189.5370  173.0740  136.9660 O   0  0  0  0  0  0  0  0  0  0  0  0
  189.0510  175.5350  135.9950 C   0  0  0  0  0  2  0  0  0  0  0  0
  191.5320  175.9240  136.1420 C   0  0  0  0  0  0  0  0  0  0  0  0
  190.2580  175.7620  136.7640 N   0  0  0  0  0  2  0  0  0  0  0  0
  191.6510  175.8340  134.8890 O   0  0  0  0  0  0  0  0  0  0  0  0
  192.7280  176.2190  136.9940 C   0  0  1  0  0  3  0  0  0  0  0  0
  192.4250  176.0500  138.3540 O   0  0  0  0  0  0  0  0  0  0  0  0
  193.2620  176.9490  139.0210 C   0  0  0  0  0  1  0  0  0  0  0  0
  193.8980  175.3520  136.6140 C   0  0  0  0  0  0  0  0  0  0  0  0
  193.8760  174.1190  136.8770 O   0  0  0  0  0  0  0  0  0  0  0  0
  195.0940  175.9550  136.0030 C   0  0  0  0  0  0  0  0  0  0  0  0
  195.0490  177.1250  135.5420 O   0  0  0  0  0  0  0  0  0  0  0  0
  196.6190  175.0490  135.9300 S   0  0  0  0  0  3  0  0  0  0  0  0
  197.6580  176.0770  136.3640 O   0  0  0  0  0  0  0  0  0  0  0  0
  190.0040  176.2880  142.8640 O   0  0  0  0  0  0  0  0  0  0  0  0
  189.6870  177.0790  145.1100 C   0  0  0  0  0  1  0  0  0  0  0  0
  190.6380  176.9800  143.9320 C   0  0  0  0  0  2  0  0  0  0  0  0
  182.3000  175.7340  136.9660 C   0  0  0  0  0  2  0  0  0  0  0  0
  180.9880  176.4570  136.7150 C   0  0  0  0  0  2  0  0  0  0  0  0
  179.6190  175.5340  137.4940 S   0  0  0  0  0  0  0  0  0  0  0  0
  180.9030  178.3100  141.4090 C   0  0  0  0  0  1  0  0  0  0  0  0
  179.4280  178.1800  138.0770 N   0  0  0  0  0  2  0  0  0  0  0  0
  179.8530  176.7760  139.9610 C   0  0  1  0  0  3  0  0  0  0  0  0
  179.5200  179.3120  139.4390 S   0  0  0  0  0  0  0  0  0  0  0  0
  179.1320  176.8790  138.6400 C   0  0  2  0  0  3  0  0  0  0  0  0
  179.6780  178.0340  140.6600 N   0  0  0  0  0  0  0  0  0  0  0  0
  179.2440  175.6510  140.7810 C   0  0  0  0  0  1  0  0  0  0  0  0
  1 12  1  0  0  0  0
  3  8  1  0  0  0  0
  4 13  2  0  0  0  0
  5  9  1  0  0  0  0
  5 13  1  0  0  0  0
  6  2  1  1  0  0  0
  7 13  1  6  0  0  0
  7 17  1  0  0  0  0
  7  6  1  0  0  0  0
  9 18  1  0  0  0  0
 10 11  2  0  0  0  0
 10 15  1  0  0  0  0
 11 16  1  0  0  0  0
 12  8  2  0  0  0  0
 12 39  1  0  0  0  0
 14 18  1  0  0  0  0
 14  1  2  0  0  0  0
 15  4  1  0  0  0  0
 16  5  2  0  0  0  0
 17  3  1  6  0  0  0
 17  6  1  0  0  0  0
 18  3  2  0  0  0  0
 20 19  1  6  0  0  0
 20 21  1  0  0  0  0
 20 11  1  0  0  0  0
 22 21  1  0  0  0  0
 23 24  2  0  0  0  0
 24 26  1  0  0  0  0
 24 22  1  0  0  0  0
 24 25  2  0  0  0  0
 26 28  1  0  0  0  0
 27 28  1  0  0  0  0
 29 27  2  0  0  0  0
 30 27  1  6  0  0  0
 30 31  1  0  0  0  0
 31 32  1  0  0  0  0
 33 34  2  0  0  0  0
 33 30  1  0  0  0  0
 35 33  1  0  0  0  0
 36 35  2  0  0  0  0
 37 35  1  0  0  0  0
 37 38  2  0  0  0  0
 39 41  1  0  0  0  0
 41 40  1  0  0  0  0
 42 10  1  0  0  0  0
 43 42  1  0  0  0  0
 43 44  1  0  0  0  0
 46 49  1  0  0  0  0
 46 48  1  0  0  0  0
 47 50  1  0  0  0  0
 47 51  1  1  0  0  0
 48 50  1  0  0  0  0
 49 44  1  6  0  0  0
 49 47  1  0  0  0  0
 50 45  1  0  0  0  0
M  END
>  <MODEL>
3

>  <REMARK>
 VINA RESULT:      -6.6      3.537      6.834
  Name = 
  17 active torsions:
  status: ('A' for Active; 'I' for Inactive)
    1  A    between atoms: C_3  and  C_26
    2  A    between atoms: C_3  and  C_51
    3  A    between atoms: O_5  and  C_15
    4  A    between atoms: C_8  and  C_15
    5  A    between atoms: C_8  and  C_36
    6  A    between atoms: C_14  and  C_15
    7  A    between atoms: S_18  and  C_36
    8  A    between atoms: S_20  and  C_38
    9  A    between atoms: S_20  and  N_44
   10  A    between atoms: O_24  and  C_32
   11  A    between atoms: O_24  and  C_35
   12  A    between atoms: S_25  and  C_30
   13  A    between atoms: S_25  and  C_51
   14  A    between atoms: C_28  and  C_39
   15  A    between atoms: C_28  and  N_44
   16  A    between atoms: C_31  and  C_39
   17  A    between atoms: C_38  and  N_43
                            x       y       z     vdW  Elec       q    Type
                         _______ _______ _______ _____ _____    ______ ____

>  <TORSDO>
F 17

$$$$
=
 OpenBabel11042412473D

 51 55  0  0  1  0  0  0  0  0999 V2000
  190.1600  177.2720  140.9200 C   0  0  0  0  0  3  0  0  0  0  0  0
  184.1160  178.4890  142.4730 C   0  0  0  0  0  1  0  0  0  0  0  0
  187.5140  178.2000  141.0660 C   0  0  0  0  0  0  0  0  0  0  0  0
  183.9650  178.1960  138.3630 C   0  0  0  0  0  3  0  0  0  0  0  0
  186.4190  178.0170  138.2760 C   0  0  0  0  0  0  0  0  0  0  0  0
  185.0610  178.0210  141.3940 C   0  0  1  0  0  3  0  0  0  0  0  0
  185.1040  179.0510  140.2870 C   0  0  2  0  0  3  0  0  0  0  0  0
  188.1330  177.6110  142.1840 C   0  0  0  0  0  3  0  0  0  0  0  0
  187.6010  178.7060  138.6610 N   0  0  0  0  0  2  0  0  0  0  0  0
  184.2640  176.2620  136.8810 C   0  0  0  0  0  0  0  0  0  0  0  0
  185.5560  175.9390  137.1000 C   0  0  0  0  0  0  0  0  0  0  0  0
  189.4450  177.1360  142.1160 C   0  0  0  0  0  0  0  0  0  0  0  0
  185.1480  178.3400  138.9670 C   0  0  0  0  0  0  0  0  0  0  0  0
  189.5550  177.8460  139.7990 C   0  0  0  0  0  3  0  0  0  0  0  0
  183.8020  177.6800  136.9740 C   0  0  0  0  0  2  0  0  0  0  0  0
  186.5830  176.9340  137.5020 C   0  0  0  0  0  3  0  0  0  0  0  0
  186.2430  178.9630  141.3190 C   0  0  2  0  0  3  0  0  0  0  0  0
  188.2390  178.3140  139.8640 C   0  0  0  0  0  0  0  0  0  0  0  0
  185.6430  174.0770  135.6200 F   0  0  0  0  0  0  0  0  0  0  0  0
  186.0360  174.5370  136.8630 C   0  0  1  0  0  3  0  0  0  0  0  0
  187.5470  174.3980  137.0510 C   0  0  0  0  0  2  0  0  0  0  0  0
  188.2560  174.3520  135.7800 N   0  0  0  0  0  2  0  0  0  0  0  0
  189.7570  176.3510  136.6290 O   0  0  0  0  0  0  0  0  0  0  0  0
  189.8580  175.0050  135.9720 S   0  0  0  0  0  0  0  0  0  0  0  0
  190.4880  175.1660  134.6110 O   0  0  0  0  0  0  0  0  0  0  0  0
  190.8980  173.9630  136.9820 C   0  0  0  0  0  2  0  0  0  0  0  0
  193.2190  174.9140  137.1560 C   0  0  0  0  0  0  0  0  0  0  0  0
  192.2720  174.0490  136.5320 N   0  0  0  0  0  2  0  0  0  0  0  0
  192.8710  175.6690  138.1070 O   0  0  0  0  0  0  0  0  0  0  0  0
  194.6400  174.9080  136.6810 C   0  0  1  0  0  3  0  0  0  0  0  0
  195.0510  176.2020  136.3250 O   0  0  0  0  0  0  0  0  0  0  0  0
  194.6840  176.3370  134.9830 C   0  0  0  0  0  1  0  0  0  0  0  0
  195.5640  174.3420  137.7240 C   0  0  0  0  0  0  0  0  0  0  0  0
  196.3480  175.1060  138.3490 O   0  0  0  0  0  0  0  0  0  0  0  0
  195.6030  172.8890  137.9620 C   0  0  0  0  0  0  0  0  0  0  0  0
  195.1030  172.4050  139.0090 O   0  0  0  0  0  0  0  0  0  0  0  0
  196.3330  171.8020  136.7630 S   0  0  0  0  0  3  0  0  0  0  0  0
  197.6060  172.5360  136.3540 O   0  0  0  0  0  0  0  0  0  0  0  0
  190.0220  176.5750  143.2540 O   0  0  0  0  0  0  0  0  0  0  0  0
  191.7530  178.0240  144.0730 C   0  0  0  0  0  1  0  0  0  0  0  0
  191.4140  176.6480  143.5300 C   0  0  0  0  0  2  0  0  0  0  0  0
  183.2920  175.2310  136.3720 C   0  0  0  0  0  2  0  0  0  0  0  0
  181.9510  175.8340  135.9910 C   0  0  0  0  0  2  0  0  0  0  0  0
  180.6020  174.8030  136.6590 S   0  0  0  0  0  0  0  0  0  0  0  0
  181.0230  177.7670  140.6240 C   0  0  0  0  0  1  0  0  0  0  0  0
  180.1370  177.4420  137.1020 N   0  0  0  0  0  2  0  0  0  0  0  0
  180.3360  176.1230  139.0820 C   0  0  1  0  0  3  0  0  0  0  0  0
  179.9230  178.6130  138.4170 S   0  0  0  0  0  0  0  0  0  0  0  0
  179.8400  176.1380  137.6580 C   0  0  2  0  0  3  0  0  0  0  0  0
  179.9620  177.3820  139.6950 N   0  0  0  0  0  0  0  0  0  0  0  0
  179.6770  174.9780  139.8330 C   0  0  0  0  0  1  0  0  0  0  0  0
  1 12  1  0  0  0  0
  3  8  1  0  0  0  0
  4 13  2  0  0  0  0
  5  9  1  0  0  0  0
  5 13  1  0  0  0  0
  6  2  1  1  0  0  0
  7 13  1  6  0  0  0
  7 17  1  0  0  0  0
  7  6  1  0  0  0  0
  9 18  1  0  0  0  0
 10 15  1  0  0  0  0
 10 11  2  0  0  0  0
 11 16  1  0  0  0  0
 12  8  2  0  0  0  0
 12 39  1  0  0  0  0
 14 18  1  0  0  0  0
 14  1  2  0  0  0  0
 15  4  1  0  0  0  0
 16  5  2  0  0  0  0
 17  3  1  6  0  0  0
 17  6  1  0  0  0  0
 18  3  2  0  0  0  0
 20 19  1  6  0  0  0
 20 21  1  0  0  0  0
 20 11  1  0  0  0  0
 22 24  1  0  0  0  0
 22 21  1  0  0  0  0
 24 23  2  0  0  0  0
 24 26  1  0  0  0  0
 25 24  2  0  0  0  0
 27 29  2  0  0  0  0
 28 26  1  0  0  0  0
 28 27  1  0  0  0  0
 30 31  1  1  0  0  0
 30 27  1  0  0  0  0
 30 33  1  0  0  0  0
 32 31  1  0  0  0  0
 33 35  1  0  0  0  0
 33 34  2  0  0  0  0
 35 36  2  0  0  0  0
 37 35  1  0  0  0  0
 38 37  2  0  0  0  0
 39 41  1  0  0  0  0
 41 40  1  0  0  0  0
 42 10  1  0  0  0  0
 43 42  1  0  0  0  0
 43 44  1  0  0  0  0
 46 49  1  0  0  0  0
 46 48  1  0  0  0  0
 47 50  1  0  0  0  0
 47 51  1  1  0  0  0
 48 50  1  0  0  0  0
 49 44  1  6  0  0  0
 49 47  1  0  0  0  0
 50 45  1  0  0  0  0
M  END
>  <MODEL>
4

>  <REMARK>
 VINA RESULT:      -6.5      3.788      6.625
  Name = 
  17 active torsions:
  status: ('A' for Active; 'I' for Inactive)
    1  A    between atoms: C_3  and  C_26
    2  A    between atoms: C_3  and  C_51
    3  A    between atoms: O_5  and  C_15
    4  A    between atoms: C_8  and  C_15
    5  A    between atoms: C_8  and  C_36
    6  A    between atoms: C_14  and  C_15
    7  A    between atoms: S_18  and  C_36
    8  A    between atoms: S_20  and  C_38
    9  A    between atoms: S_20  and  N_44
   10  A    between atoms: O_24  and  C_32
   11  A    between atoms: O_24  and  C_35
   12  A    between atoms: S_25  and  C_30
   13  A    between atoms: S_25  and  C_51
   14  A    between atoms: C_28  and  C_39
   15  A    between atoms: C_28  and  N_44
   16  A    between atoms: C_31  and  C_39
   17  A    between atoms: C_38  and  N_43
                            x       y       z     vdW  Elec       q    Type
                         _______ _______ _______ _____ _____    ______ ____

>  <TORSDO>
F 17

$$$$
=
 OpenBabel11042412473D

 51 55  0  0  1  0  0  0  0  0999 V2000
  180.3300  180.0310  140.7140 C   0  0  0  0  0  3  0  0  0  0  0  0
  179.6820  173.8270  139.4870 C   0  0  0  0  0  1  0  0  0  0  0  0
  179.9610  177.5040  139.5460 C   0  0  0  0  0  0  0  0  0  0  0  0
  181.9190  175.1630  136.2920 C   0  0  0  0  0  3  0  0  0  0  0  0
  181.6520  177.4860  137.0650 C   0  0  0  0  0  0  0  0  0  0  0  0
  180.4190  175.0990  139.1490 C   0  0  1  0  0  3  0  0  0  0  0  0
  180.0550  175.5310  137.7470 C   0  0  2  0  0  3  0  0  0  0  0  0
  179.8190  177.6830  140.9340 C   0  0  0  0  0  3  0  0  0  0  0  0
  180.6550  178.4470  137.3820 N   0  0  0  0  0  2  0  0  0  0  0  0
  184.2290  175.9850  136.1840 C   0  0  0  0  0  0  0  0  0  0  0  0
  184.1590  177.1130  136.9200 C   0  0  0  0  0  0  0  0  0  0  0  0
  180.0120  178.9350  141.5240 C   0  0  0  0  0  0  0  0  0  0  0  0
  181.2850  176.0490  137.0650 C   0  0  0  0  0  0  0  0  0  0  0  0
  180.4850  179.8660  139.3340 C   0  0  0  0  0  3  0  0  0  0  0  0
  183.0540  175.5130  135.3900 C   0  0  0  0  0  2  0  0  0  0  0  0
  182.9210  177.9220  137.0480 C   0  0  0  0  0  3  0  0  0  0  0  0
  179.4240  176.2230  138.9690 C   0  0  2  0  0  3  0  0  0  0  0  0
  180.2990  178.6120  138.7450 C   0  0  0  0  0  0  0  0  0  0  0  0
  186.2500  178.2240  136.6780 F   0  0  0  0  0  0  0  0  0  0  0  0
  185.3870  177.6530  137.5950 C   0  0  1  0  0  3  0  0  0  0  0  0
  185.0510  178.6320  138.7210 C   0  0  0  0  0  2  0  0  0  0  0  0
  186.0450  178.6070  139.7840 N   0  0  0  0  0  2  0  0  0  0  0  0
  183.8270  179.2260  141.0770 O   0  0  0  0  0  0  0  0  0  0  0  0
  185.2840  178.9480  141.3130 S   0  0  0  0  0  0  0  0  0  0  0  0
  185.9290  180.1690  141.9200 O   0  0  0  0  0  0  0  0  0  0  0  0
  185.4180  177.5820  142.4560 C   0  0  0  0  0  2  0  0  0  0  0  0
  187.2040  177.3000  144.2040 C   0  0  0  0  0  0  0  0  0  0  0  0
  186.0920  178.0120  143.6640 N   0  0  0  0  0  2  0  0  0  0  0  0
  187.6130  176.2380  143.6580 O   0  0  0  0  0  0  0  0  0  0  0  0
  187.8930  177.8350  145.4220 C   0  0  1  0  0  3  0  0  0  0  0  0
  187.2740  177.3660  146.5900 O   0  0  0  0  0  0  0  0  0  0  0  0
  186.6520  178.4900  147.1430 C   0  0  0  0  0  1  0  0  0  0  0  0
  189.3520  177.4720  145.4300 C   0  0  0  0  0  0  0  0  0  0  0  0
  189.8270  176.8030  146.3870 O   0  0  0  0  0  0  0  0  0  0  0  0
  190.2380  177.9570  144.3570 C   0  0  0  0  0  0  0  0  0  0  0  0
  190.4930  179.1840  144.2520 O   0  0  0  0  0  0  0  0  0  0  0  0
  190.9730  176.8140  143.2150 S   0  0  0  0  0  3  0  0  0  0  0  0
  190.6520  177.4220  141.8540 O   0  0  0  0  0  0  0  0  0  0  0  0
  179.8440  179.0670  142.9020 O   0  0  0  0  0  0  0  0  0  0  0  0
  181.9650  178.8440  144.0070 C   0  0  0  0  0  1  0  0  0  0  0  0
  180.5640  178.2840  143.8450 C   0  0  0  0  0  2  0  0  0  0  0  0
  185.5390  175.2650  136.0050 C   0  0  0  0  0  2  0  0  0  0  0  0
  185.9580  174.5000  137.2490 C   0  0  0  0  0  2  0  0  0  0  0  0
  187.5280  173.6250  136.9320 S   0  0  0  0  0  0  0  0  0  0  0  0
  191.6880  176.3370  137.0920 C   0  0  0  0  0  1  0  0  0  0  0  0
  189.0920  174.7980  135.0460 N   0  0  0  0  0  2  0  0  0  0  0  0
  189.4630  175.5800  137.2710 C   0  0  1  0  0  3  0  0  0  0  0  0
  190.3770  176.0060  134.8640 S   0  0  0  0  0  0  0  0  0  0  0  0
  188.4210  175.0940  136.2950 C   0  0  2  0  0  3  0  0  0  0  0  0
  190.3340  176.5010  136.5670 N   0  0  0  0  0  0  0  0  0  0  0  0
  188.7800  176.3050  138.4190 C   0  0  0  0  0  1  0  0  0  0  0  0
  1 12  1  0  0  0  0
  3  8  1  0  0  0  0
  4 13  2  0  0  0  0
  5  9  1  0  0  0  0
  6  2  1  6  0  0  0
  7 13  1  1  0  0  0
  7 17  1  0  0  0  0
  7  6  1  0  0  0  0
  8 12  2  0  0  0  0
  9 18  1  0  0  0  0
 10 11  2  0  0  0  0
 11 16  1  0  0  0  0
 11 20  1  0  0  0  0
 12 39  1  0  0  0  0
 13  5  1  0  0  0  0
 14  1  2  0  0  0  0
 15 10  1  0  0  0  0
 15  4  1  0  0  0  0
 16  5  2  0  0  0  0
 17  6  1  0  0  0  0
 17  3  1  1  0  0  0
 18 14  1  0  0  0  0
 18  3  2  0  0  0  0
 20 19  1  6  0  0  0
 20 21  1  0  0  0  0
 21 22  1  0  0  0  0
 22 24  1  0  0  0  0
 23 24  2  0  0  0  0
 24 25  2  0  0  0  0
 24 26  1  0  0  0  0
 26 28  1  0  0  0  0
 28 27  1  0  0  0  0
 29 27  2  0  0  0  0
 30 27  1  6  0  0  0
 30 33  1  0  0  0  0
 30 31  1  0  0  0  0
 31 32  1  0  0  0  0
 33 34  2  0  0  0  0
 35 33  1  0  0  0  0
 36 35  2  0  0  0  0
 37 35  1  0  0  0  0
 38 37  2  0  0  0  0
 39 41  1  0  0  0  0
 41 40  1  0  0  0  0
 42 10  1  0  0  0  0
 42 43  1  0  0  0  0
 44 43  1  0  0  0  0
 46 49  1  0  0  0  0
 47 51  1  1  0  0  0
 48 46  1  0  0  0  0
 48 50  1  0  0  0  0
 49 44  1  1  0  0  0
 49 47  1  0  0  0  0
 50 45  1  0  0  0  0
 50 47  1  0  0  0  0
M  END
>  <MODEL>
5

>  <REMARK>
 VINA RESULT:      -6.1      2.693      4.773
  Name = 
  17 active torsions:
  status: ('A' for Active; 'I' for Inactive)
    1  A    between atoms: C_3  and  C_26
    2  A    between atoms: C_3  and  C_51
    3  A    between atoms: O_5  and  C_15
    4  A    between atoms: C_8  and  C_15
    5  A    between atoms: C_8  and  C_36
    6  A    between atoms: C_14  and  C_15
    7  A    between atoms: S_18  and  C_36
    8  A    between atoms: S_20  and  C_38
    9  A    between atoms: S_20  and  N_44
   10  A    between atoms: O_24  and  C_32
   11  A    between atoms: O_24  and  C_35
   12  A    between atoms: S_25  and  C_30
   13  A    between atoms: S_25  and  C_51
   14  A    between atoms: C_28  and  C_39
   15  A    between atoms: C_28  and  N_44
   16  A    between atoms: C_31  and  C_39
   17  A    between atoms: C_38  and  N_43
                            x       y       z     vdW  Elec       q    Type
                         _______ _______ _______ _____ _____    ______ ____

>  <TORSDO>
F 17

$$$$
=
 OpenBabel11042412473D

 51 55  0  0  1  0  0  0  0  0999 V2000
  187.3740  178.3250  141.8440 C   0  0  0  0  0  3  0  0  0  0  0  0
  181.3020  178.3080  139.9590 C   0  0  0  0  0  1  0  0  0  0  0  0
  184.9480  178.5740  140.4510 C   0  0  0  0  0  0  0  0  0  0  0  0
  183.3160  177.0930  136.5730 C   0  0  0  0  0  3  0  0  0  0  0  0
  185.4690  177.5170  137.6890 C   0  0  0  0  0  0  0  0  0  0  0  0
  182.7100  177.8660  139.6470 C   0  0  1  0  0  3  0  0  0  0  0  0
  183.2070  178.6050  138.4250 C   0  0  2  0  0  3  0  0  0  0  0  0
  184.9630  178.4170  141.8500 C   0  0  0  0  0  3  0  0  0  0  0  0
  186.2050  178.5450  138.3370 N   0  0  0  0  0  2  0  0  0  0  0  0
  184.5360  175.0190  136.0900 C   0  0  0  0  0  0  0  0  0  0  0  0
  185.5570  175.0840  136.9700 C   0  0  0  0  0  0  0  0  0  0  0  0
  186.1650  178.2810  142.5480 C   0  0  0  0  0  0  0  0  0  0  0  0
  183.9970  177.6560  137.5740 C   0  0  0  0  0  0  0  0  0  0  0  0
  187.3750  178.4700  140.4540 C   0  0  0  0  0  3  0  0  0  0  0  0
  183.9450  176.2610  135.5070 C   0  0  0  0  0  2  0  0  0  0  0  0
  186.1200  176.3660  137.4630 C   0  0  0  0  0  3  0  0  0  0  0  0
  183.6560  179.0320  139.8340 C   0  0  2  0  0  3  0  0  0  0  0  0
  186.1710  178.5980  139.7530 C   0  0  0  0  0  0  0  0  0  0  0  0
  185.3220  172.9330  137.9620 F   0  0  0  0  0  0  0  0  0  0  0  0
  186.2350  173.8280  137.4360 C   0  0  1  0  0  3  0  0  0  0  0  0
  187.0760  173.1770  136.3370 C   0  0  0  0  0  2  0  0  0  0  0  0
  188.4400  172.9140  136.7730 N   0  0  0  0  0  2  0  0  0  0  0  0
  189.7930  175.1070  137.3490 O   0  0  0  0  0  0  0  0  0  0  0  0
  189.4960  174.1780  136.2070 S   0  0  0  0  0  0  0  0  0  0  0  0
  188.7980  174.9460  135.1130 O   0  0  0  0  0  0  0  0  0  0  0  0
  191.0420  173.5400  135.5840 C   0  0  0  0  0  2  0  0  0  0  0  0
  193.0770  174.9230  136.1070 C   0  0  0  0  0  0  0  0  0  0  0  0
  192.1260  173.9220  136.4660 N   0  0  0  0  0  2  0  0  0  0  0  0
  193.0230  175.4840  134.9770 O   0  0  0  0  0  0  0  0  0  0  0  0
  194.1360  175.3130  137.0920 C   0  0  1  0  0  3  0  0  0  0  0  0
  193.5920  175.4530  138.3780 O   0  0  0  0  0  0  0  0  0  0  0  0
  193.0130  176.7260  138.3850 C   0  0  0  0  0  1  0  0  0  0  0  0
  195.2600  174.3140  137.1140 C   0  0  0  0  0  0  0  0  0  0  0  0
  195.7470  173.8940  136.0300 O   0  0  0  0  0  0  0  0  0  0  0  0
  195.7420  173.7760  138.3970 C   0  0  0  0  0  0  0  0  0  0  0  0
  195.2620  172.7090  138.8580 O   0  0  0  0  0  0  0  0  0  0  0  0
  197.0220  174.6140  139.2980 S   0  0  0  0  0  3  0  0  0  0  0  0
  197.8010  175.3390  138.2060 O   0  0  0  0  0  0  0  0  0  0  0  0
  186.1300  178.1450  143.9350 O   0  0  0  0  0  0  0  0  0  0  0  0
  185.6260  179.1060  146.0770 C   0  0  0  0  0  1  0  0  0  0  0  0
  185.0750  178.6620  144.7350 C   0  0  0  0  0  2  0  0  0  0  0  0
  184.0780  173.6930  135.5440 C   0  0  0  0  0  2  0  0  0  0  0  0
  182.7530  173.2440  136.1360 C   0  0  0  0  0  2  0  0  0  0  0  0
  181.5450  172.9640  134.7960 S   0  0  0  0  0  0  0  0  0  0  0  0
  179.5140  173.9090  139.2300 C   0  0  0  0  0  1  0  0  0  0  0  0
  180.2360  175.0930  135.8590 N   0  0  0  0  0  2  0  0  0  0  0  0
  179.9820  173.0600  137.0830 C   0  0  1  0  0  3  0  0  0  0  0  0
  179.2020  175.5460  137.2260 S   0  0  0  0  0  0  0  0  0  0  0  0
  180.1130  173.6580  135.7050 C   0  0  2  0  0  3  0  0  0  0  0  0
  179.0630  173.8870  137.8400 N   0  0  0  0  0  0  0  0  0  0  0  0
  179.4200  171.6520  136.9700 C   0  0  0  0  0  1  0  0  0  0  0  0
  1 12  1  0  0  0  0
  3  8  1  0  0  0  0
  4 13  2  0  0  0  0
  5  9  1  0  0  0  0
  6 17  1  0  0  0  0
  6  2  1  1  0  0  0
  7 13  1  6  0  0  0
  7  6  1  0  0  0  0
  7 17  1  0  0  0  0
  8 12  2  0  0  0  0
  9 18  1  0  0  0  0
 10 11  2  0  0  0  0
 11 20  1  0  0  0  0
 11 16  1  0  0  0  0
 12 39  1  0  0  0  0
 13  5  1  0  0  0  0
 14  1  2  0  0  0  0
 15 10  1  0  0  0  0
 15  4  1  0  0  0  0
 16  5  2  0  0  0  0
 17  3  1  6  0  0  0
 18  3  2  0  0  0  0
 18 14  1  0  0  0  0
 20 19  1  6  0  0  0
 21 22  1  0  0  0  0
 21 20  1  0  0  0  0
 24 22  1  0  0  0  0
 24 23  2  0  0  0  0
 25 24  2  0  0  0  0
 26 24  1  0  0  0  0
 26 28  1  0  0  0  0
 27 28  1  0  0  0  0
 29 27  2  0  0  0  0
 30 27  1  6  0  0  0
 30 33  1  0  0  0  0
 30 31  1  0  0  0  0
 31 32  1  0  0  0  0
 33 35  1  0  0  0  0
 34 33  2  0  0  0  0
 35 36  2  0  0  0  0
 35 37  1  0  0  0  0
 38 37  2  0  0  0  0
 39 41  1  0  0  0  0
 41 40  1  0  0  0  0
 42 10  1  0  0  0  0
 42 43  1  0  0  0  0
 44 43  1  0  0  0  0
 46 48  1  0  0  0  0
 47 51  1  6  0  0  0
 47 50  1  0  0  0  0
 48 50  1  0  0  0  0
 49 44  1  1  0  0  0
 49 46  1  0  0  0  0
 49 47  1  0  0  0  0
 50 45  1  0  0  0  0
M  END
>  <MODEL>
6

>  <REMARK>
 VINA RESULT:      -5.9      3.473      5.692
  Name = 
  17 active torsions:
  status: ('A' for Active; 'I' for Inactive)
    1  A    between atoms: C_3  and  C_26
    2  A    between atoms: C_3  and  C_51
    3  A    between atoms: O_5  and  C_15
    4  A    between atoms: C_8  and  C_15
    5  A    between atoms: C_8  and  C_36
    6  A    between atoms: C_14  and  C_15
    7  A    between atoms: S_18  and  C_36
    8  A    between atoms: S_20  and  C_38
    9  A    between atoms: S_20  and  N_44
   10  A    between atoms: O_24  and  C_32
   11  A    between atoms: O_24  and  C_35
   12  A    between atoms: S_25  and  C_30
   13  A    between atoms: S_25  and  C_51
   14  A    between atoms: C_28  and  C_39
   15  A    between atoms: C_28  and  N_44
   16  A    between atoms: C_31  and  C_39
   17  A    between atoms: C_38  and  N_43
                            x       y       z     vdW  Elec       q    Type
                         _______ _______ _______ _____ _____    ______ ____

>  <TORSDO>
F 17

$$$$
=
 OpenBabel11042412473D

 51 55  0  0  1  0  0  0  0  0999 V2000
  181.8210  177.5410  136.3190 C   0  0  0  0  0  3  0  0  0  0  0  0
  179.0290  181.4670  140.4680 C   0  0  0  0  0  1  0  0  0  0  0  0
  180.5520  178.7250  138.5270 C   0  0  0  0  0  0  0  0  0  0  0  0
  181.4270  179.1390  142.8820 C   0  0  0  0  0  3  0  0  0  0  0  0
  182.0110  177.7230  140.9530 C   0  0  0  0  0  0  0  0  0  0  0  0
  180.1390  180.4720  140.2390 C   0  0  1  0  0  3  0  0  0  0  0  0
  179.8760  179.2310  141.0620 C   0  0  2  0  0  3  0  0  0  0  0  0
  180.5490  179.3580  137.2700 C   0  0  0  0  0  3  0  0  0  0  0  0
  181.4190  176.9130  139.9460 N   0  0  0  0  0  2  0  0  0  0  0  0
  183.8710  179.0220  143.0790 C   0  0  0  0  0  0  0  0  0  0  0  0
  184.2280  178.5590  141.8630 C   0  0  0  0  0  0  0  0  0  0  0  0
  181.1880  178.7810  136.1690 C   0  0  0  0  0  0  0  0  0  0  0  0
  181.1750  178.7430  141.6310 C   0  0  0  0  0  0  0  0  0  0  0  0
  181.8420  176.9060  137.5640 C   0  0  0  0  0  3  0  0  0  0  0  0
  182.5680  178.6300  143.6970 C   0  0  0  0  0  2  0  0  0  0  0  0
  183.3490  177.6950  141.0350 C   0  0  0  0  0  3  0  0  0  0  0  0
  179.5820  179.2460  139.5500 C   0  0  2  0  0  3  0  0  0  0  0  0
  181.2090  177.4880  138.6670 C   0  0  0  0  0  0  0  0  0  0  0  0
  186.5080  177.8870  141.7330 F   0  0  0  0  0  0  0  0  0  0  0  0
  185.5980  178.8420  141.3180 C   0  0  1  0  0  3  0  0  0  0  0  0
  185.6020  178.9840  139.7960 C   0  0  0  0  0  2  0  0  0  0  0  0
  186.7240  178.2870  139.1830 N   0  0  0  0  0  2  0  0  0  0  0  0
  186.8390  179.0550  136.6590 O   0  0  0  0  0  0  0  0  0  0  0  0
  186.3570  177.9230  137.5200 S   0  0  0  0  0  0  0  0  0  0  0  0
  184.8630  177.7870  137.3670 O   0  0  0  0  0  0  0  0  0  0  0  0
  187.1450  176.4200  136.9660 C   0  0  0  0  0  2  0  0  0  0  0  0
  189.4380  175.5340  137.4970 C   0  0  0  0  0  0  0  0  0  0  0  0
  188.5850  176.5700  137.0120 N   0  0  0  0  0  2  0  0  0  0  0  0
  188.9520  174.4570  137.9420 O   0  0  0  0  0  0  0  0  0  0  0  0
  190.9230  175.7320  137.4570 C   0  0  1  0  0  3  0  0  0  0  0  0
  191.3130  176.3350  136.2520 O   0  0  0  0  0  0  0  0  0  0  0  0
  192.5380  175.7400  135.9340 C   0  0  0  0  0  1  0  0  0  0  0  0
  191.3970  176.5550  138.6230 C   0  0  0  0  0  0  0  0  0  0  0  0
  192.5740  176.4160  139.0520 O   0  0  0  0  0  0  0  0  0  0  0  0
  190.4660  177.4700  139.3050 C   0  0  0  0  0  0  0  0  0  0  0  0
  190.0140  178.4780  138.7050 O   0  0  0  0  0  0  0  0  0  0  0  0
  189.9530  177.1480  140.9740 S   0  0  0  0  0  3  0  0  0  0  0  0
  190.9080  177.9980  141.8050 O   0  0  0  0  0  0  0  0  0  0  0  0
  181.1430  179.4370  134.9400 O   0  0  0  0  0  0  0  0  0  0  0  0
  180.6770  181.7760  134.6590 C   0  0  0  0  0  1  0  0  0  0  0  0
  180.1220  180.3650  134.5980 C   0  0  0  0  0  2  0  0  0  0  0  0
  184.8460  179.8040  143.9180 C   0  0  0  0  0  2  0  0  0  0  0  0
  185.9000  178.9210  144.5640 C   0  0  0  0  0  2  0  0  0  0  0  0
  185.4340  178.5730  146.2930 S   0  0  0  0  0  0  0  0  0  0  0  0
  190.2800  177.9160  145.4160 C   0  0  0  0  0  1  0  0  0  0  0  0
  187.5960  178.1240  147.8750 N   0  0  0  0  0  2  0  0  0  0  0  0
  187.9430  177.6500  145.5620 C   0  0  1  0  0  3  0  0  0  0  0  0
  189.2820  177.5790  147.8010 S   0  0  0  0  0  0  0  0  0  0  0  0
  186.9430  177.6090  146.6890 C   0  0  2  0  0  3  0  0  0  0  0  0
  189.2100  177.1690  146.0760 N   0  0  0  0  0  0  0  0  0  0  0  0
  187.4740  176.7390  144.4390 C   0  0  0  0  0  1  0  0  0  0  0  0
  1 14  1  0  0  0  0
  3 18  1  0  0  0  0
  4 15  1  0  0  0  0
  5 16  2  0  0  0  0
  5 13  1  0  0  0  0
  6  2  1  1  0  0  0
  6  7  1  0  0  0  0
  7 13  1  6  0  0  0
  8  3  2  0  0  0  0
  9  5  1  0  0  0  0
 10 15  1  0  0  0  0
 10 42  1  0  0  0  0
 11 10  2  0  0  0  0
 12  1  2  0  0  0  0
 12  8  1  0  0  0  0
 13  4  2  0  0  0  0
 14 18  2  0  0  0  0
 16 11  1  0  0  0  0
 17  3  1  6  0  0  0
 17  6  1  0  0  0  0
 17  7  1  0  0  0  0
 18  9  1  0  0  0  0
 20 19  1  6  0  0  0
 20 11  1  0  0  0  0
 21 20  1  0  0  0  0
 22 21  1  0  0  0  0
 23 24  2  0  0  0  0
 24 22  1  0  0  0  0
 25 24  2  0  0  0  0
 26 28  1  0  0  0  0
 26 24  1  0  0  0  0
 27 29  2  0  0  0  0
 28 27  1  0  0  0  0
 30 31  1  6  0  0  0
 30 27  1  0  0  0  0
 30 33  1  0  0  0  0
 32 31  1  0  0  0  0
 33 34  2  0  0  0  0
 33 35  1  0  0  0  0
 35 37  1  0  0  0  0
 36 35  2  0  0  0  0
 37 38  2  0  0  0  0
 39 12  1  0  0  0  0
 41 40  1  0  0  0  0
 41 39  1  0  0  0  0
 42 43  1  0  0  0  0
 43 44  1  0  0  0  0
 45 50  1  0  0  0  0
 47 51  1  6  0  0  0
 47 50  1  0  0  0  0
 47 49  1  0  0  0  0
 48 46  1  0  0  0  0
 49 44  1  6  0  0  0
 49 46  1  0  0  0  0
 50 48  1  0  0  0  0
M  END
>  <MODEL>
7

>  <REMARK>
 VINA RESULT:      -5.9      3.460      8.192
  Name = 
  17 active torsions:
  status: ('A' for Active; 'I' for Inactive)
    1  A    between atoms: C_3  and  C_26
    2  A    between atoms: C_3  and  C_51
    3  A    between atoms: O_5  and  C_15
    4  A    between atoms: C_8  and  C_15
    5  A    between atoms: C_8  and  C_36
    6  A    between atoms: C_14  and  C_15
    7  A    between atoms: S_18  and  C_36
    8  A    between atoms: S_20  and  C_38
    9  A    between atoms: S_20  and  N_44
   10  A    between atoms: O_24  and  C_32
   11  A    between atoms: O_24  and  C_35
   12  A    between atoms: S_25  and  C_30
   13  A    between atoms: S_25  and  C_51
   14  A    between atoms: C_28  and  C_39
   15  A    between atoms: C_28  and  N_44
   16  A    between atoms: C_31  and  C_39
   17  A    between atoms: C_38  and  N_43
                            x       y       z     vdW  Elec       q    Type
                         _______ _______ _______ _____ _____    ______ ____

>  <TORSDO>
F 17

$$$$
=
 OpenBabel11042412473D

 51 55  0  0  1  0  0  0  0  0999 V2000
  180.7990  180.1150  139.8570 C   0  0  0  0  0  3  0  0  0  0  0  0
  179.7770  173.9000  140.7160 C   0  0  0  0  0  1  0  0  0  0  0  0
  180.0850  177.4100  139.6240 C   0  0  0  0  0  0  0  0  0  0  0  0
  180.9810  174.0940  136.7770 C   0  0  0  0  0  3  0  0  0  0  0  0
  180.9700  176.5540  136.8850 C   0  0  0  0  0  0  0  0  0  0  0  0
  180.3910  174.9560  139.8310 C   0  0  1  0  0  3  0  0  0  0  0  0
  179.6310  175.0170  138.5250 C   0  0  2  0  0  3  0  0  0  0  0  0
  180.3600  177.9760  140.8830 C   0  0  0  0  0  3  0  0  0  0  0  0
  180.1170  177.6520  137.1770 N   0  0  0  0  0  2  0  0  0  0  0  0
  183.1620  174.6390  135.7920 C   0  0  0  0  0  0  0  0  0  0  0  0
  183.3200  175.9280  136.1580 C   0  0  0  0  0  0  0  0  0  0  0  0
  180.7280  179.3190  141.0050 C   0  0  0  0  0  0  0  0  0  0  0  0
  180.6100  175.2130  137.4050 C   0  0  0  0  0  0  0  0  0  0  0  0
  180.5390  179.5640  138.5990 C   0  0  0  0  0  3  0  0  0  0  0  0
  181.8020  174.0770  135.5330 C   0  0  0  0  0  2  0  0  0  0  0  0
  182.1790  176.8510  136.3880 C   0  0  0  0  0  3  0  0  0  0  0  0
  179.3940  176.0740  139.6190 C   0  0  2  0  0  3  0  0  0  0  0  0
  180.1800  178.2180  138.4760 C   0  0  0  0  0  0  0  0  0  0  0  0
  184.8740  177.5520  135.3740 F   0  0  0  0  0  0  0  0  0  0  0  0
  184.6960  176.5180  136.2750 C   0  0  1  0  0  3  0  0  0  0  0  0
  185.0190  176.9670  137.7010 C   0  0  0  0  0  2  0  0  0  0  0  0
  185.8720  178.1460  137.7240 N   0  0  0  0  0  2  0  0  0  0  0  0
  188.0140  177.8720  136.2040 O   0  0  0  0  0  0  0  0  0  0  0  0
  187.5430  177.6700  137.6160 S   0  0  0  0  0  0  0  0  0  0  0  0
  187.6600  176.2090  137.9720 O   0  0  0  0  0  0  0  0  0  0  0  0
  188.5920  178.6250  138.7000 C   0  0  0  0  0  2  0  0  0  0  0  0
  188.3060  177.8640  141.0810 C   0  0  0  0  0  0  0  0  0  0  0  0
  187.9760  178.7430  140.0060 N   0  0  0  0  0  2  0  0  0  0  0  0
  189.1280  176.9210  140.9090 O   0  0  0  0  0  0  0  0  0  0  0  0
  187.6780  178.0820  142.4230 C   0  0  1  0  0  3  0  0  0  0  0  0
  186.2910  177.8820  142.3620 O   0  0  0  0  0  0  0  0  0  0  0  0
  185.7720  178.6450  143.4120 C   0  0  0  0  0  1  0  0  0  0  0  0
  188.2840  177.1810  143.4640 C   0  0  0  0  0  0  0  0  0  0  0  0
  187.8610  176.0000  143.5940 O   0  0  0  0  0  0  0  0  0  0  0  0
  189.3180  177.6990  144.3760 C   0  0  0  0  0  0  0  0  0  0  0  0
  188.9910  178.2510  145.4570 O   0  0  0  0  0  0  0  0  0  0  0  0
  191.0380  177.5300  143.9700 S   0  0  0  0  0  3  0  0  0  0  0  0
  191.6490  176.9830  145.2550 O   0  0  0  0  0  0  0  0  0  0  0  0
  180.9740  179.8390  142.2750 O   0  0  0  0  0  0  0  0  0  0  0  0
  179.6130  178.9530  144.0450 C   0  0  0  0  0  1  0  0  0  0  0  0
  179.9360  180.1650  143.1900 C   0  0  0  0  0  2  0  0  0  0  0  0
  184.3570  173.7820  135.4700 C   0  0  0  0  0  2  0  0  0  0  0  0
  184.6760  172.7890  136.5740 C   0  0  0  0  0  2  0  0  0  0  0  0
  186.3570  173.1010  137.2130 S   0  0  0  0  0  0  0  0  0  0  0  0
  190.7340  172.3190  134.9960 C   0  0  0  0  0  1  0  0  0  0  0  0
  187.4090  171.0460  135.7800 N   0  0  0  0  0  2  0  0  0  0  0  0
  188.5910  173.1100  135.5710 C   0  0  1  0  0  3  0  0  0  0  0  0
  188.7480  170.6610  134.6830 S   0  0  0  0  0  0  0  0  0  0  0  0
  187.2280  172.4820  135.7220 C   0  0  2  0  0  3  0  0  0  0  0  0
  189.3290  172.3350  134.5940 N   0  0  0  0  0  0  0  0  0  0  0  0
  188.4350  174.5380  135.0730 C   0  0  0  0  0  1  0  0  0  0  0  0
  1 12  1  0  0  0  0
  3  8  1  0  0  0  0
  4 13  2  0  0  0  0
  5  9  1  0  0  0  0
  5 13  1  0  0  0  0
  6  2  1  1  0  0  0
  7 13  1  6  0  0  0
  7 17  1  0  0  0  0
  7  6  1  0  0  0  0
  8 12  2  0  0  0  0
  9 18  1  0  0  0  0
 10 11  2  0  0  0  0
 11 20  1  0  0  0  0
 11 16  1  0  0  0  0
 12 39  1  0  0  0  0
 14  1  2  0  0  0  0
 15 10  1  0  0  0  0
 15  4  1  0  0  0  0
 16  5  2  0  0  0  0
 17  3  1  6  0  0  0
 17  6  1  0  0  0  0
 18 14  1  0  0  0  0
 18  3  2  0  0  0  0
 20 19  1  6  0  0  0
 20 21  1  0  0  0  0
 21 22  1  0  0  0  0
 23 24  2  0  0  0  0
 24 22  1  0  0  0  0
 24 25  2  0  0  0  0
 24 26  1  0  0  0  0
 26 28  1  0  0  0  0
 28 27  1  0  0  0  0
 29 27  2  0  0  0  0
 30 27  1  6  0  0  0
 30 33  1  0  0  0  0
 31 30  1  0  0  0  0
 31 32  1  0  0  0  0
 33 34  2  0  0  0  0
 33 35  1  0  0  0  0
 35 36  2  0  0  0  0
 37 35  1  0  0  0  0
 37 38  2  0  0  0  0
 39 41  1  0  0  0  0
 41 40  1  0  0  0  0
 42 10  1  0  0  0  0
 42 43  1  0  0  0  0
 43 44  1  0  0  0  0
 47 51  1  6  0  0  0
 47 49  1  0  0  0  0
 48 46  1  0  0  0  0
 49 46  1  0  0  0  0
 49 44  1  1  0  0  0
 50 48  1  0  0  0  0
 50 45  1  0  0  0  0
 50 47  1  0  0  0  0
M  END
>  <MODEL>
8

>  <REMARK>
 VINA RESULT:      -5.8      2.856      4.444
  Name = 
  17 active torsions:
  status: ('A' for Active; 'I' for Inactive)
    1  A    between atoms: C_3  and  C_26
    2  A    between atoms: C_3  and  C_51
    3  A    between atoms: O_5  and  C_15
    4  A    between atoms: C_8  and  C_15
    5  A    between atoms: C_8  and  C_36
    6  A    between atoms: C_14  and  C_15
    7  A    between atoms: S_18  and  C_36
    8  A    between atoms: S_20  and  C_38
    9  A    between atoms: S_20  and  N_44
   10  A    between atoms: O_24  and  C_32
   11  A    between atoms: O_24  and  C_35
   12  A    between atoms: S_25  and  C_30
   13  A    between atoms: S_25  and  C_51
   14  A    between atoms: C_28  and  C_39
   15  A    between atoms: C_28  and  N_44
   16  A    between atoms: C_31  and  C_39
   17  A    between atoms: C_38  and  N_43
                            x       y       z     vdW  Elec       q    Type
                         _______ _______ _______ _____ _____    ______ ____

>  <TORSDO>
F 17

$$$$
=
 OpenBabel11042412473D

 51 55  0  0  1  0  0  0  0  0999 V2000
  186.0130  176.2760  135.0310 C   0  0  0  0  0  3  0  0  0  0  0  0
  190.3590  176.3770  139.6700 C   0  0  0  0  0  1  0  0  0  0  0  0
  187.7960  176.9730  137.0850 C   0  0  0  0  0  0  0  0  0  0  0  0
  187.4800  178.9840  141.0550 C   0  0  0  0  0  3  0  0  0  0  0  0
  186.2730  178.8010  138.9170 C   0  0  0  0  0  0  0  0  0  0  0  0
  188.9490  176.7320  139.2690 C   0  0  1  0  0  3  0  0  0  0  0  0
  188.8100  178.2370  139.2100 C   0  0  2  0  0  3  0  0  0  0  0  0
  187.9290  175.7510  136.4010 C   0  0  0  0  0  3  0  0  0  0  0  0
  186.4480  178.9840  137.5190 N   0  0  0  0  0  2  0  0  0  0  0  0
  185.1850  178.5780  141.8210 C   0  0  0  0  0  0  0  0  0  0  0  0
  184.5880  178.1340  140.6950 C   0  0  0  0  0  0  0  0  0  0  0  0
  187.0380  175.3920  135.3860 C   0  0  0  0  0  0  0  0  0  0  0  0
  187.4720  178.6210  139.7690 C   0  0  0  0  0  0  0  0  0  0  0  0
  185.8630  177.4890  135.7080 C   0  0  0  0  0  3  0  0  0  0  0  0
  186.3020  179.5680  141.7580 C   0  0  0  0  0  2  0  0  0  0  0  0
  185.0260  178.5350  139.3350 C   0  0  0  0  0  3  0  0  0  0  0  0
  188.9680  177.4140  137.9190 C   0  0  2  0  0  3  0  0  0  0  0  0
  186.7490  177.8450  136.7300 C   0  0  0  0  0  0  0  0  0  0  0  0
  182.2900  177.9450  141.2840 F   0  0  0  0  0  0  0  0  0  0  0  0
  183.3750  177.2530  140.7790 C   0  0  1  0  0  3  0  0  0  0  0  0
  183.0370  176.5980  139.4390 C   0  0  0  0  0  2  0  0  0  0  0  0
  181.9370  175.6510  139.5530 N   0  0  0  0  0  2  0  0  0  0  0  0
  181.0940  173.9620  137.7070 O   0  0  0  0  0  0  0  0  0  0  0  0
  181.1810  175.4320  138.0000 S   0  0  0  0  0  0  0  0  0  0  0  0
  182.0280  176.0970  136.9450 O   0  0  0  0  0  0  0  0  0  0  0  0
  179.5320  176.1150  137.9470 C   0  0  0  0  0  2  0  0  0  0  0  0
  179.4940  178.2670  139.2470 C   0  0  0  0  0  0  0  0  0  0  0  0
  179.5920  177.5600  138.0110 N   0  0  0  0  0  2  0  0  0  0  0  0
  179.3110  177.6450  140.3300 O   0  0  0  0  0  0  0  0  0  0  0  0
  179.6280  179.7590  139.2480 C   0  0  1  0  0  3  0  0  0  0  0  0
  179.7440  180.2470  140.5590 O   0  0  0  0  0  0  0  0  0  0  0  0
  179.2990  181.5710  140.4880 C   0  0  0  0  0  1  0  0  0  0  0  0
  180.8050  180.2050  138.4250 C   0  0  0  0  0  0  0  0  0  0  0  0
  181.9710  179.8590  138.7590 O   0  0  0  0  0  0  0  0  0  0  0  0
  180.6020  181.1030  137.2750 C   0  0  0  0  0  0  0  0  0  0  0  0
  180.7460  182.3450  137.4070 O   0  0  0  0  0  0  0  0  0  0  0  0
  180.1770  180.4390  135.6840 S   0  0  0  0  0  3  0  0  0  0  0  0
  181.2580  179.3920  135.4400 O   0  0  0  0  0  0  0  0  0  0  0  0
  187.2190  174.1770  134.7250 O   0  0  0  0  0  0  0  0  0  0  0  0
  185.6590  173.0910  136.1930 C   0  0  0  0  0  1  0  0  0  0  0  0
  186.8780  172.9250  135.3050 C   0  0  0  0  0  2  0  0  0  0  0  0
  184.6300  178.2210  143.1750 C   0  0  0  0  0  2  0  0  0  0  0  0
  185.6720  178.3190  144.2760 C   0  0  0  0  0  2  0  0  0  0  0  0
  186.7930  176.8820  144.1900 S   0  0  0  0  0  0  0  0  0  0  0  0
  191.1730  176.7490  146.5290 C   0  0  0  0  0  1  0  0  0  0  0  0
  189.2800  177.7980  143.5960 N   0  0  0  0  0  2  0  0  0  0  0  0
  188.9560  177.2220  145.8900 C   0  0  1  0  0  3  0  0  0  0  0  0
  190.8510  178.1350  144.3460 S   0  0  0  0  0  0  0  0  0  0  0  0
  188.3020  177.8090  144.6640 C   0  0  2  0  0  3  0  0  0  0  0  0
  190.2890  177.7810  145.9910 N   0  0  0  0  0  0  0  0  0  0  0  0
  188.1510  177.6030  147.1220 C   0  0  0  0  0  1  0  0  0  0  0  0
  1 12  2  0  0  0  0
  1 14  1  0  0  0  0
  4 15  1  0  0  0  0
  5 16  2  0  0  0  0
  5 13  1  0  0  0  0
  6  2  1  1  0  0  0
  7  6  1  0  0  0  0
  7 13  1  6  0  0  0
  8  3  2  0  0  0  0
  9  5  1  0  0  0  0
 10 42  1  0  0  0  0
 11 20  1  0  0  0  0
 11 10  2  0  0  0  0
 12  8  1  0  0  0  0
 13  4  2  0  0  0  0
 14 18  2  0  0  0  0
 15 10  1  0  0  0  0
 16 11  1  0  0  0  0
 17  3  1  6  0  0  0
 17  7  1  0  0  0  0
 17  6  1  0  0  0  0
 18  3  1  0  0  0  0
 18  9  1  0  0  0  0
 20 19  1  6  0  0  0
 21 22  1  0  0  0  0
 21 20  1  0  0  0  0
 23 24  2  0  0  0  0
 24 22  1  0  0  0  0
 25 24  2  0  0  0  0
 26 24  1  0  0  0  0
 26 28  1  0  0  0  0
 27 30  1  0  0  0  0
 27 29  2  0  0  0  0
 28 27  1  0  0  0  0
 30 33  1  6  0  0  0
 30 31  1  0  0  0  0
 32 31  1  0  0  0  0
 33 34  2  0  0  0  0
 35 36  2  0  0  0  0
 35 33  1  0  0  0  0
 37 35  1  0  0  0  0
 38 37  2  0  0  0  0
 39 41  1  0  0  0  0
 39 12  1  0  0  0  0
 41 40  1  0  0  0  0
 42 43  1  0  0  0  0
 44 43  1  0  0  0  0
 46 48  1  0  0  0  0
 46 49  1  0  0  0  0
 47 50  1  0  0  0  0
 47 51  1  1  0  0  0
 48 50  1  0  0  0  0
 49 44  1  6  0  0  0
 49 47  1  0  0  0  0
 50 45  1  0  0  0  0
M  END
>  <MODEL>
9

>  <REMARK>
 VINA RESULT:      -5.8      4.627      9.963
  Name = 
  17 active torsions:
  status: ('A' for Active; 'I' for Inactive)
    1  A    between atoms: C_3  and  C_26
    2  A    between atoms: C_3  and  C_51
    3  A    between atoms: O_5  and  C_15
    4  A    between atoms: C_8  and  C_15
    5  A    between atoms: C_8  and  C_36
    6  A    between atoms: C_14  and  C_15
    7  A    between atoms: S_18  and  C_36
    8  A    between atoms: S_20  and  C_38
    9  A    between atoms: S_20  and  N_44
   10  A    between atoms: O_24  and  C_32
   11  A    between atoms: O_24  and  C_35
   12  A    between atoms: S_25  and  C_30
   13  A    between atoms: S_25  and  C_51
   14  A    between atoms: C_28  and  C_39
   15  A    between atoms: C_28  and  N_44
   16  A    between atoms: C_31  and  C_39
   17  A    between atoms: C_38  and  N_43
                            x       y       z     vdW  Elec       q    Type
                         _______ _______ _______ _____ _____    ______ ____

>  <TORSDO>
F 17

$$$$
