=
 OpenBabel11042412003D

 28 31  0  0  1  0  0  0  0  0999 V2000
  183.3470  179.1450  143.7000 C   0  0  0  0  0  3  0  0  0  0  0  0
  184.5250  179.0420  141.5650 N   0  0  0  0  0  2  0  0  0  0  0  0
  184.5190  178.6250  145.7460 C   0  0  0  0  0  3  0  0  0  0  0  0
  185.6850  178.3830  145.0060 C   0  0  0  0  0  0  0  0  0  0  0  0
  183.3500  179.0050  145.0880 C   0  0  0  0  0  3  0  0  0  0  0  0
  184.5220  178.8990  142.9870 C   0  0  0  0  0  0  0  0  0  0  0  0
  185.6530  178.5260  143.6500 N   0  0  0  0  0  0  0  0  0  0  0  0
  188.0590  177.5830  144.9270 C   0  0  0  0  0  3  0  0  0  0  0  0
  186.9400  177.9810  145.6740 C   0  0  0  0  0  0  0  0  0  0  0  0
  188.2090  177.6140  147.7140 C   0  0  0  0  0  3  0  0  0  0  0  0
  190.4890  176.8340  147.6240 O   0  0  0  0  0  0  0  0  0  0  0  0
  192.6510  176.0710  147.6030 O   0  0  0  0  0  0  0  0  0  0  0  0
  189.2480  177.2030  145.5630 C   0  0  0  0  0  0  0  0  0  0  0  0
  189.3200  177.2180  146.9640 C   0  0  0  0  0  0  0  0  0  0  0  0
  190.4240  176.7870  144.7790 C   0  0  0  0  0  0  0  0  0  0  0  0
  187.0280  177.9940  147.0740 C   0  0  0  0  0  3  0  0  0  0  0  0
  191.7280  176.4590  145.4440 C   0  0  0  0  0  2  0  0  0  0  0  0
  190.3540  176.7190  143.5230 O   0  0  0  0  0  0  0  0  0  0  0  0
  191.6450  176.4380  146.9420 C   0  0  0  0  0  0  0  0  0  0  0  0
  185.7150  178.8380  140.7490 C   0  0  0  0  0  2  0  0  0  0  0  0
  187.6720  177.8130  138.7130 C   0  0  0  0  0  2  0  0  0  0  0  0
  187.2710  177.4140  136.3430 C   0  0  0  0  0  2  0  0  0  0  0  0
  185.3330  178.5910  139.3240 C   0  0  0  0  0  0  0  0  0  0  0  0
  189.5900  177.8480  137.1360 C   0  0  0  0  0  1  0  0  0  0  0  0
  185.9620  177.8020  137.0020 C   0  0  0  0  0  2  0  0  0  0  0  0
  188.2700  177.1850  137.4700 C   0  0  1  0  0  3  0  0  0  0  0  0
  186.2890  178.0870  138.3830 N   0  0  0  0  0  0  0  0  0  0  0  0
  184.1470  178.8140  138.9620 O   0  0  0  0  0  0  0  0  0  0  0  0
  1  5  2  0  0  0  0
  2  6  1  0  0  0  0
  4  9  1  0  0  0  0
  4  3  2  0  0  0  0
  5  3  1  0  0  0  0
  6  7  2  0  0  0  0
  6  1  1  0  0  0  0
  7  4  1  0  0  0  0
  8 13  2  0  0  0  0
  8  9  1  0  0  0  0
  9 16  2  0  0  0  0
 13 14  1  0  0  0  0
 14 11  1  0  0  0  0
 14 10  2  0  0  0  0
 15 17  1  0  0  0  0
 15 13  1  0  0  0  0
 16 10  1  0  0  0  0
 17 19  1  0  0  0  0
 18 15  2  0  0  0  0
 19 12  2  0  0  0  0
 19 11  1  0  0  0  0
 20  2  1  0  0  0  0
 22 25  1  0  0  0  0
 22 26  1  0  0  0  0
 23 20  1  0  0  0  0
 25 27  1  0  0  0  0
 26 24  1  6  0  0  0
 26 21  1  0  0  0  0
 27 21  1  0  0  0  0
 27 23  1  0  0  0  0
 28 23  2  0  0  0  0
M  END
>  <MODEL>
1

>  <REMARK>
 VINA RESULT:     -10.7      0.000      0.000
  Name = 
  3 active torsions:
  status: ('A' for Active; 'I' for Inactive)
    1  A    between atoms: N_5  and  C_24
    2  A    between atoms: C_6  and  C_14
    3  A    between atoms: C_7  and  C_24
                            x       y       z     vdW  Elec       q    Type
                         _______ _______ _______ _____ _____    ______ ____

>  <TORSDO>
F 3

$$$$
=
 OpenBabel11042412003D

 28 31  0  0  1  0  0  0  0  0999 V2000
  184.6550  178.8850  141.1350 C   0  0  0  0  0  3  0  0  0  0  0  0
  186.4790  178.6420  139.5320 N   0  0  0  0  0  2  0  0  0  0  0  0
  185.0540  178.4810  143.4820 C   0  0  0  0  0  3  0  0  0  0  0  0
  186.3940  178.1840  143.1920 C   0  0  0  0  0  0  0  0  0  0  0  0
  184.1870  178.8310  142.4480 C   0  0  0  0  0  3  0  0  0  0  0  0
  185.9930  178.5860  140.8750 C   0  0  0  0  0  0  0  0  0  0  0  0
  186.8240  178.2440  141.9000 N   0  0  0  0  0  0  0  0  0  0  0  0
  188.6580  177.4360  143.9670 C   0  0  0  0  0  3  0  0  0  0  0  0
  187.3390  177.8120  144.2660 C   0  0  0  0  0  0  0  0  0  0  0  0
  187.8110  177.4790  146.6270 C   0  0  0  0  0  3  0  0  0  0  0  0
  189.9900  176.7500  147.3570 O   0  0  0  0  0  0  0  0  0  0  0  0
  192.0340  176.0350  148.1110 O   0  0  0  0  0  0  0  0  0  0  0  0
  189.5520  177.0850  144.9870 C   0  0  0  0  0  0  0  0  0  0  0  0
  189.1230  177.1060  146.3230 C   0  0  0  0  0  0  0  0  0  0  0  0
  190.9370  176.6920  144.6740 C   0  0  0  0  0  0  0  0  0  0  0  0
  186.9250  177.8310  145.6060 C   0  0  0  0  0  3  0  0  0  0  0  0
  191.9280  176.3960  145.7610 C   0  0  0  0  0  2  0  0  0  0  0  0
  191.3170  176.6190  143.4760 O   0  0  0  0  0  0  0  0  0  0  0  0
  191.3200  176.3780  147.1330 C   0  0  0  0  0  0  0  0  0  0  0  0
  187.8670  178.3780  139.1770 C   0  0  0  0  0  2  0  0  0  0  0  0
  190.4180  176.8600  138.7130 C   0  0  0  0  0  2  0  0  0  0  0  0
  190.7820  175.0120  137.1670 C   0  0  0  0  0  2  0  0  0  0  0  0
  187.9530  177.2270  138.2270 C   0  0  0  0  0  0  0  0  0  0  0  0
  192.7140  176.4080  137.8830 C   0  0  0  0  0  1  0  0  0  0  0  0
  189.3100  175.3760  137.1580 C   0  0  0  0  0  2  0  0  0  0  0  0
  191.4080  175.7800  138.3240 C   0  0  1  0  0  3  0  0  0  0  0  0
  189.1830  176.5150  138.0420 N   0  0  0  0  0  0  0  0  0  0  0  0
  186.9180  176.8740  137.6000 O   0  0  0  0  0  0  0  0  0  0  0  0
  1  5  2  0  0  0  0
  2  6  1  0  0  0  0
  4  3  2  0  0  0  0
  4  9  1  0  0  0  0
  5  3  1  0  0  0  0
  6  1  1  0  0  0  0
  6  7  2  0  0  0  0
  7  4  1  0  0  0  0
  8  9  2  0  0  0  0
  8 13  1  0  0  0  0
  9 16  1  0  0  0  0
 13 14  2  0  0  0  0
 14 10  1  0  0  0  0
 14 11  1  0  0  0  0
 15 13  1  0  0  0  0
 15 17  1  0  0  0  0
 16 10  2  0  0  0  0
 17 19  1  0  0  0  0
 18 15  2  0  0  0  0
 19 11  1  0  0  0  0
 19 12  2  0  0  0  0
 20  2  1  0  0  0  0
 22 26  1  0  0  0  0
 23 20  1  0  0  0  0
 25 22  1  0  0  0  0
 25 27  1  0  0  0  0
 26 24  1  6  0  0  0
 26 21  1  0  0  0  0
 27 23  1  0  0  0  0
 27 21  1  0  0  0  0
 28 23  2  0  0  0  0
M  END
>  <MODEL>
2

>  <REMARK>
 VINA RESULT:      -9.9      1.735      2.434
  Name = 
  3 active torsions:
  status: ('A' for Active; 'I' for Inactive)
    1  A    between atoms: N_5  and  C_24
    2  A    between atoms: C_6  and  C_14
    3  A    between atoms: C_7  and  C_24
                            x       y       z     vdW  Elec       q    Type
                         _______ _______ _______ _____ _____    ______ ____

>  <TORSDO>
F 3

$$$$
=
 OpenBabel11042412003D

 28 31  0  0  1  0  0  0  0  0999 V2000
  183.2770  179.1060  143.7560 C   0  0  0  0  0  3  0  0  0  0  0  0
  184.3840  178.9330  141.5880 N   0  0  0  0  0  2  0  0  0  0  0  0
  184.5060  178.6210  145.7770 C   0  0  0  0  0  3  0  0  0  0  0  0
  185.6450  178.3440  145.0060 C   0  0  0  0  0  0  0  0  0  0  0  0
  183.3220  179.0020  145.1460 C   0  0  0  0  0  3  0  0  0  0  0  0
  184.4250  178.8260  143.0130 C   0  0  0  0  0  0  0  0  0  0  0  0
  185.5710  178.4540  143.6490 N   0  0  0  0  0  0  0  0  0  0  0  0
  188.0190  177.5520  144.8700 C   0  0  0  0  0  3  0  0  0  0  0  0
  186.9150  177.9410  145.6440 C   0  0  0  0  0  0  0  0  0  0  0  0
  188.2290  177.5620  147.6540 C   0  0  0  0  0  3  0  0  0  0  0  0
  190.5090  176.7900  147.5080 O   0  0  0  0  0  0  0  0  0  0  0  0
  192.6720  176.0340  147.4350 O   0  0  0  0  0  0  0  0  0  0  0  0
  189.2230  177.1710  145.4770 C   0  0  0  0  0  0  0  0  0  0  0  0
  189.3250  177.1760  146.8770 C   0  0  0  0  0  0  0  0  0  0  0  0
  190.3830  176.7640  144.6650 C   0  0  0  0  0  0  0  0  0  0  0  0
  187.0330  177.9440  147.0420 C   0  0  0  0  0  3  0  0  0  0  0  0
  191.7020  176.4360  145.2990 C   0  0  0  0  0  2  0  0  0  0  0  0
  190.2850  176.7060  143.4110 O   0  0  0  0  0  0  0  0  0  0  0  0
  191.6510  176.4030  146.7990 C   0  0  0  0  0  0  0  0  0  0  0  0
  185.5440  178.6930  140.7400 C   0  0  0  0  0  2  0  0  0  0  0  0
  182.9920  177.3290  139.9280 C   0  0  0  0  0  2  0  0  0  0  0  0
  182.1700  176.9500  137.6660 C   0  0  0  0  0  2  0  0  0  0  0  0
  185.1260  178.5600  139.3100 C   0  0  0  0  0  0  0  0  0  0  0  0
  181.4060  175.4660  139.5110 C   0  0  0  0  0  1  0  0  0  0  0  0
  183.4300  177.7920  137.5940 C   0  0  0  0  0  2  0  0  0  0  0  0
  181.7790  176.8850  139.1360 C   0  0  1  0  0  3  0  0  0  0  0  0
  183.8940  177.9180  138.9600 N   0  0  0  0  0  0  0  0  0  0  0  0
  185.8650  179.0420  138.4110 O   0  0  0  0  0  0  0  0  0  0  0  0
  1  5  2  0  0  0  0
  2  6  1  0  0  0  0
  4  9  1  0  0  0  0
  4  3  2  0  0  0  0
  5  3  1  0  0  0  0
  6  7  2  0  0  0  0
  6  1  1  0  0  0  0
  7  4  1  0  0  0  0
  8 13  2  0  0  0  0
  8  9  1  0  0  0  0
  9 16  2  0  0  0  0
 13 14  1  0  0  0  0
 14 11  1  0  0  0  0
 14 10  2  0  0  0  0
 15 17  1  0  0  0  0
 15 13  1  0  0  0  0
 16 10  1  0  0  0  0
 17 19  1  0  0  0  0
 18 15  2  0  0  0  0
 19 12  2  0  0  0  0
 19 11  1  0  0  0  0
 20  2  1  0  0  0  0
 22 26  1  0  0  0  0
 23 20  1  0  0  0  0
 25 22  1  0  0  0  0
 25 27  1  0  0  0  0
 26 24  1  1  0  0  0
 26 21  1  0  0  0  0
 27 23  1  0  0  0  0
 27 21  1  0  0  0  0
 28 23  2  0  0  0  0
M  END
>  <MODEL>
3

>  <REMARK>
 VINA RESULT:      -9.8      1.692      2.614
  Name = 
  3 active torsions:
  status: ('A' for Active; 'I' for Inactive)
    1  A    between atoms: N_5  and  C_24
    2  A    between atoms: C_6  and  C_14
    3  A    between atoms: C_7  and  C_24
                            x       y       z     vdW  Elec       q    Type
                         _______ _______ _______ _____ _____    ______ ____

>  <TORSDO>
F 3

$$$$
=
 OpenBabel11042412003D

 28 31  0  0  1  0  0  0  0  0999 V2000
  190.7780  177.0770  146.3440 C   0  0  0  0  0  3  0  0  0  0  0  0
  191.3920  177.9320  144.1430 N   0  0  0  0  0  2  0  0  0  0  0  0
  188.4670  177.1080  147.0450 C   0  0  0  0  0  3  0  0  0  0  0  0
  188.1130  177.6870  145.8170 C   0  0  0  0  0  0  0  0  0  0  0  0
  189.8030  176.8050  147.3050 C   0  0  0  0  0  3  0  0  0  0  0  0
  190.3980  177.6520  145.1310 C   0  0  0  0  0  0  0  0  0  0  0  0
  189.0870  177.9430  144.8980 N   0  0  0  0  0  0  0  0  0  0  0  0
  186.2430  178.0420  144.1860 C   0  0  0  0  0  3  0  0  0  0  0  0
  186.7060  178.0170  145.5110 C   0  0  0  0  0  0  0  0  0  0  0  0
  184.4780  178.6280  146.2680 C   0  0  0  0  0  3  0  0  0  0  0  0
  182.6920  178.9760  144.6870 O   0  0  0  0  0  0  0  0  0  0  0  0
  180.9590  179.3430  143.2320 O   0  0  0  0  0  0  0  0  0  0  0  0
  184.9080  178.3540  143.8990 C   0  0  0  0  0  0  0  0  0  0  0  0
  184.0240  178.6500  144.9470 C   0  0  0  0  0  0  0  0  0  0  0  0
  184.4210  178.3780  142.5080 C   0  0  0  0  0  0  0  0  0  0  0  0
  185.8100  178.3120  146.5490 C   0  0  0  0  0  3  0  0  0  0  0  0
  182.9760  178.6280  142.1920 C   0  0  0  0  0  2  0  0  0  0  0  0
  185.2190  178.1660  141.5570 O   0  0  0  0  0  0  0  0  0  0  0  0
  182.1600  179.0070  143.3940 C   0  0  0  0  0  0  0  0  0  0  0  0
  191.0780  178.4990  142.8380 C   0  0  0  0  0  2  0  0  0  0  0  0
  189.4820  178.3180  140.2990 C   0  0  0  0  0  2  0  0  0  0  0  0
  189.8080  176.7620  138.4520 C   0  0  0  0  0  2  0  0  0  0  0  0
  191.4070  177.5240  141.7530 C   0  0  0  0  0  0  0  0  0  0  0  0
  187.5660  177.7820  138.8140 C   0  0  0  0  0  1  0  0  0  0  0  0
  190.9290  176.5720  139.4560 C   0  0  0  0  0  2  0  0  0  0  0  0
  189.0610  178.0210  138.8740 C   0  0  1  0  0  3  0  0  0  0  0  0
  190.6330  177.4750  140.5480 N   0  0  0  0  0  0  0  0  0  0  0  0
  192.3920  176.7530  141.9030 O   0  0  0  0  0  0  0  0  0  0  0  0
  1  5  2  0  0  0  0
  2  6  1  0  0  0  0
  3  5  1  0  0  0  0
  4  3  2  0  0  0  0
  6  1  1  0  0  0  0
  7  6  2  0  0  0  0
  7  4  1  0  0  0  0
  8  9  1  0  0  0  0
  9  4  1  0  0  0  0
  9 16  2  0  0  0  0
 10 16  1  0  0  0  0
 11 14  1  0  0  0  0
 12 19  2  0  0  0  0
 13  8  2  0  0  0  0
 13 14  1  0  0  0  0
 14 10  2  0  0  0  0
 15 13  1  0  0  0  0
 17 15  1  0  0  0  0
 17 19  1  0  0  0  0
 18 15  2  0  0  0  0
 19 11  1  0  0  0  0
 20  2  1  0  0  0  0
 21 27  1  0  0  0  0
 22 26  1  0  0  0  0
 22 25  1  0  0  0  0
 23 28  2  0  0  0  0
 23 20  1  0  0  0  0
 25 27  1  0  0  0  0
 26 24  1  1  0  0  0
 26 21  1  0  0  0  0
 27 23  1  0  0  0  0
M  END
>  <MODEL>
4

>  <REMARK>
 VINA RESULT:      -9.8      2.685      6.249
  Name = 
  3 active torsions:
  status: ('A' for Active; 'I' for Inactive)
    1  A    between atoms: N_5  and  C_24
    2  A    between atoms: C_6  and  C_14
    3  A    between atoms: C_7  and  C_24
                            x       y       z     vdW  Elec       q    Type
                         _______ _______ _______ _____ _____    ______ ____

>  <TORSDO>
F 3

$$$$
=
 OpenBabel11042412003D

 28 31  0  0  1  0  0  0  0  0999 V2000
  187.8190  177.9780  147.0280 C   0  0  0  0  0  3  0  0  0  0  0  0
  189.1620  176.8860  145.3080 N   0  0  0  0  0  2  0  0  0  0  0  0
  185.6300  178.8380  146.4800 C   0  0  0  0  0  3  0  0  0  0  0  0
  185.8000  178.3990  145.1580 C   0  0  0  0  0  0  0  0  0  0  0  0
  186.6450  178.6250  147.4120 C   0  0  0  0  0  3  0  0  0  0  0  0
  187.9610  177.5510  145.7070 C   0  0  0  0  0  0  0  0  0  0  0  0
  186.9590  177.7700  144.8100 N   0  0  0  0  0  0  0  0  0  0  0  0
  185.0580  178.7060  142.7830 C   0  0  0  0  0  3  0  0  0  0  0  0
  184.7420  178.6060  144.1470 C   0  0  0  0  0  0  0  0  0  0  0  0
  182.3940  178.9040  143.5930 C   0  0  0  0  0  3  0  0  0  0  0  0
  181.6970  179.2090  141.3050 O   0  0  0  0  0  0  0  0  0  0  0  0
  180.9750  179.5270  139.1520 O   0  0  0  0  0  0  0  0  0  0  0  0
  184.0540  178.9010  141.8270 C   0  0  0  0  0  0  0  0  0  0  0  0
  182.7160  179.0020  142.2370 C   0  0  0  0  0  0  0  0  0  0  0  0
  184.3850  179.0040  140.3950 C   0  0  0  0  0  0  0  0  0  0  0  0
  183.4000  178.7060  144.5420 C   0  0  0  0  0  3  0  0  0  0  0  0
  183.3130  179.1290  139.3530 C   0  0  0  0  0  2  0  0  0  0  0  0
  185.5870  178.9680  140.0210 O   0  0  0  0  0  0  0  0  0  0  0  0
  181.9380  179.3050  139.9310 C   0  0  0  0  0  0  0  0  0  0  0  0
  189.3780  176.3780  143.9590 C   0  0  0  0  0  2  0  0  0  0  0  0
  189.9010  176.8620  141.0410 C   0  0  0  0  0  2  0  0  0  0  0  0
  192.0080  177.5030  139.9990 C   0  0  0  0  0  2  0  0  0  0  0  0
  190.7130  176.8130  143.4460 C   0  0  0  0  0  0  0  0  0  0  0  0
  190.2830  176.3250  138.6470 C   0  0  0  0  0  1  0  0  0  0  0  0
  192.1870  177.5030  141.5060 C   0  0  0  0  0  2  0  0  0  0  0  0
  190.5160  177.3450  139.7420 C   0  0  1  0  0  3  0  0  0  0  0  0
  190.9230  177.0510  142.0490 N   0  0  0  0  0  0  0  0  0  0  0  0
  191.6540  176.9910  144.2650 O   0  0  0  0  0  0  0  0  0  0  0  0
  1  5  2  0  0  0  0
  2  6  1  0  0  0  0
  3  5  1  0  0  0  0
  4  3  2  0  0  0  0
  6  1  1  0  0  0  0
  7  4  1  0  0  0  0
  7  6  2  0  0  0  0
  8  9  1  0  0  0  0
  9 16  2  0  0  0  0
  9  4  1  0  0  0  0
 10 16  1  0  0  0  0
 11 14  1  0  0  0  0
 12 19  2  0  0  0  0
 13 14  1  0  0  0  0
 13  8  2  0  0  0  0
 14 10  2  0  0  0  0
 15 13  1  0  0  0  0
 17 19  1  0  0  0  0
 17 15  1  0  0  0  0
 18 15  2  0  0  0  0
 19 11  1  0  0  0  0
 20  2  1  0  0  0  0
 21 27  1  0  0  0  0
 22 25  1  0  0  0  0
 23 20  1  0  0  0  0
 23 28  2  0  0  0  0
 25 27  1  0  0  0  0
 26 24  1  6  0  0  0
 26 22  1  0  0  0  0
 26 21  1  0  0  0  0
 27 23  1  0  0  0  0
M  END
>  <MODEL>
5

>  <REMARK>
 VINA RESULT:      -9.5      2.498      6.963
  Name = 
  3 active torsions:
  status: ('A' for Active; 'I' for Inactive)
    1  A    between atoms: N_5  and  C_24
    2  A    between atoms: C_6  and  C_14
    3  A    between atoms: C_7  and  C_24
                            x       y       z     vdW  Elec       q    Type
                         _______ _______ _______ _____ _____    ______ ____

>  <TORSDO>
F 3

$$$$
=
 OpenBabel11042412003D

 28 31  0  0  1  0  0  0  0  0999 V2000
  182.5150  178.9450  143.0150 C   0  0  0  0  0  3  0  0  0  0  0  0
  183.1370  178.5970  140.6810 N   0  0  0  0  0  2  0  0  0  0  0  0
  184.1450  178.5870  144.7600 C   0  0  0  0  0  3  0  0  0  0  0  0
  185.0940  178.2360  143.7880 C   0  0  0  0  0  0  0  0  0  0  0  0
  182.8550  178.9410  144.3680 C   0  0  0  0  0  3  0  0  0  0  0  0
  183.4790  178.5930  142.0690 C   0  0  0  0  0  0  0  0  0  0  0  0
  184.7330  178.2480  142.4730 N   0  0  0  0  0  0  0  0  0  0  0  0
  186.8990  177.9540  145.5040 C   0  0  0  0  0  3  0  0  0  0  0  0
  186.4700  177.8590  144.1710 C   0  0  0  0  0  0  0  0  0  0  0  0
  188.6740  177.0420  143.5520 C   0  0  0  0  0  3  0  0  0  0  0  0
  190.4040  176.7840  145.2110 O   0  0  0  0  0  0  0  0  0  0  0  0
  192.0970  176.5420  146.7390 O   0  0  0  0  0  0  0  0  0  0  0  0
  188.2040  177.5950  145.8650 C   0  0  0  0  0  0  0  0  0  0  0  0
  189.0950  177.1380  144.8810 C   0  0  0  0  0  0  0  0  0  0  0  0
  188.6550  177.6920  147.2640 C   0  0  0  0  0  0  0  0  0  0  0  0
  187.3710  177.3980  143.1990 C   0  0  0  0  0  3  0  0  0  0  0  0
  190.0210  177.2310  147.6780 C   0  0  0  0  0  2  0  0  0  0  0  0
  187.8810  178.1500  148.1460 O   0  0  0  0  0  0  0  0  0  0  0  0
  190.8940  176.8420  146.5210 C   0  0  0  0  0  0  0  0  0  0  0  0
  184.0890  178.2760  139.6270 C   0  0  0  0  0  2  0  0  0  0  0  0
  185.5370  177.5600  137.0940 C   0  0  0  0  0  2  0  0  0  0  0  0
  184.5560  176.9390  134.9510 C   0  0  0  0  0  2  0  0  0  0  0  0
  183.3700  177.8670  138.3810 C   0  0  0  0  0  0  0  0  0  0  0  0
  186.8520  177.8980  135.0150 C   0  0  0  0  0  1  0  0  0  0  0  0
  183.4460  177.0840  135.9750 C   0  0  0  0  0  2  0  0  0  0  0  0
  185.8660  176.9940  135.7260 C   0  0  1  0  0  3  0  0  0  0  0  0
  184.0930  177.5160  137.1950 N   0  0  0  0  0  0  0  0  0  0  0  0
  182.1110  177.8130  138.3930 O   0  0  0  0  0  0  0  0  0  0  0  0
  1  5  2  0  0  0  0
  2  6  1  0  0  0  0
  4  9  1  0  0  0  0
  4  3  2  0  0  0  0
  5  3  1  0  0  0  0
  6  7  2  0  0  0  0
  6  1  1  0  0  0  0
  7  4  1  0  0  0  0
  8 13  1  0  0  0  0
  9  8  2  0  0  0  0
 10 14  1  0  0  0  0
 11 19  1  0  0  0  0
 13 15  1  0  0  0  0
 14 11  1  0  0  0  0
 14 13  2  0  0  0  0
 15 17  1  0  0  0  0
 15 18  2  0  0  0  0
 16 10  2  0  0  0  0
 16  9  1  0  0  0  0
 19 12  2  0  0  0  0
 19 17  1  0  0  0  0
 20  2  1  0  0  0  0
 21 27  1  0  0  0  0
 22 26  1  0  0  0  0
 22 25  1  0  0  0  0
 23 28  2  0  0  0  0
 23 20  1  0  0  0  0
 25 27  1  0  0  0  0
 26 24  1  6  0  0  0
 26 21  1  0  0  0  0
 27 23  1  0  0  0  0
M  END
>  <MODEL>
6

>  <REMARK>
 VINA RESULT:      -9.5      1.629      2.527
  Name = 
  3 active torsions:
  status: ('A' for Active; 'I' for Inactive)
    1  A    between atoms: N_5  and  C_24
    2  A    between atoms: C_6  and  C_14
    3  A    between atoms: C_7  and  C_24
                            x       y       z     vdW  Elec       q    Type
                         _______ _______ _______ _____ _____    ______ ____

>  <TORSDO>
F 3

$$$$
=
 OpenBabel11042412003D

 28 31  0  0  1  0  0  0  0  0999 V2000
  191.3160  176.9390  143.4750 C   0  0  0  0  0  3  0  0  0  0  0  0
  191.0500  177.4780  141.1100 N   0  0  0  0  0  2  0  0  0  0  0  0
  189.4290  177.1230  144.9710 C   0  0  0  0  0  3  0  0  0  0  0  0
  188.6310  177.5420  143.8960 C   0  0  0  0  0  0  0  0  0  0  0  0
  190.7740  176.8230  144.7550 C   0  0  0  0  0  3  0  0  0  0  0  0
  190.4990  177.3580  142.4230 C   0  0  0  0  0  0  0  0  0  0  0  0
  189.1890  177.6490  142.6560 N   0  0  0  0  0  0  0  0  0  0  0  0
  186.3330  177.9810  142.9960 C   0  0  0  0  0  3  0  0  0  0  0  0
  187.2030  177.8660  144.0910 C   0  0  0  0  0  0  0  0  0  0  0  0
  185.3470  178.3700  145.5780 C   0  0  0  0  0  3  0  0  0  0  0  0
  183.1440  178.7990  144.6980 O   0  0  0  0  0  0  0  0  0  0  0  0
  181.0330  179.2400  143.9190 O   0  0  0  0  0  0  0  0  0  0  0  0
  184.9790  178.2860  143.1840 C   0  0  0  0  0  0  0  0  0  0  0  0
  184.4860  178.4830  144.4830 C   0  0  0  0  0  0  0  0  0  0  0  0
  184.0650  178.4050  142.0340 C   0  0  0  0  0  0  0  0  0  0  0  0
  186.6950  178.0620  145.3840 C   0  0  0  0  0  3  0  0  0  0  0  0
  182.5980  178.6480  142.2260 C   0  0  0  0  0  2  0  0  0  0  0  0
  184.5080  178.2830  140.8610 O   0  0  0  0  0  0  0  0  0  0  0  0
  182.2200  178.9170  143.6540 C   0  0  0  0  0  0  0  0  0  0  0  0
  190.2610  177.8740  139.9510 C   0  0  0  0  0  2  0  0  0  0  0  0
  187.8640  177.7370  138.1440 C   0  0  0  0  0  2  0  0  0  0  0  0
  187.1920  175.8830  136.7120 C   0  0  0  0  0  2  0  0  0  0  0  0
  189.9790  176.6900  139.0820 C   0  0  0  0  0  0  0  0  0  0  0  0
  185.4800  177.5120  137.4900 C   0  0  0  0  0  1  0  0  0  0  0  0
  188.5350  175.5570  137.3390 C   0  0  0  0  0  2  0  0  0  0  0  0
  186.9130  177.3460  137.0300 C   0  0  1  0  0  3  0  0  0  0  0  0
  188.8350  176.6650  138.2200 N   0  0  0  0  0  0  0  0  0  0  0  0
  190.7770  175.7150  139.1010 O   0  0  0  0  0  0  0  0  0  0  0  0
  1  5  2  0  0  0  0
  2  6  1  0  0  0  0
  4  9  1  0  0  0  0
  4  3  2  0  0  0  0
  5  3  1  0  0  0  0
  6  7  2  0  0  0  0
  6  1  1  0  0  0  0
  7  4  1  0  0  0  0
  8 13  2  0  0  0  0
  8  9  1  0  0  0  0
  9 16  2  0  0  0  0
 13 14  1  0  0  0  0
 14 11  1  0  0  0  0
 14 10  2  0  0  0  0
 15 17  1  0  0  0  0
 15 13  1  0  0  0  0
 16 10  1  0  0  0  0
 17 19  1  0  0  0  0
 18 15  2  0  0  0  0
 19 12  2  0  0  0  0
 19 11  1  0  0  0  0
 20  2  1  0  0  0  0
 21 27  1  0  0  0  0
 22 26  1  0  0  0  0
 22 25  1  0  0  0  0
 23 28  2  0  0  0  0
 23 20  1  0  0  0  0
 25 27  1  0  0  0  0
 26 24  1  1  0  0  0
 26 21  1  0  0  0  0
 27 23  1  0  0  0  0
M  END
>  <MODEL>
7

>  <REMARK>
 VINA RESULT:      -9.3      3.044      6.014
  Name = 
  3 active torsions:
  status: ('A' for Active; 'I' for Inactive)
    1  A    between atoms: N_5  and  C_24
    2  A    between atoms: C_6  and  C_14
    3  A    between atoms: C_7  and  C_24
                            x       y       z     vdW  Elec       q    Type
                         _______ _______ _______ _____ _____    ______ ____

>  <TORSDO>
F 3

$$$$
=
 OpenBabel11042412003D

 28 31  0  0  1  0  0  0  0  0999 V2000
  185.0560  178.6210  146.6210 C   0  0  0  0  0  3  0  0  0  0  0  0
  183.4310  179.0340  144.8480 N   0  0  0  0  0  2  0  0  0  0  0  0
  187.2800  177.8630  146.0640 C   0  0  0  0  0  3  0  0  0  0  0  0
  186.9350  177.8850  144.7040 C   0  0  0  0  0  0  0  0  0  0  0  0
  186.3350  178.2320  147.0200 C   0  0  0  0  0  3  0  0  0  0  0  0
  184.7400  178.6340  145.2620 C   0  0  0  0  0  0  0  0  0  0  0  0
  185.6770  178.2680  144.3430 N   0  0  0  0  0  0  0  0  0  0  0  0
  187.7470  177.9070  142.3330 C   0  0  0  0  0  3  0  0  0  0  0  0
  187.9140  177.5020  143.6660 C   0  0  0  0  0  0  0  0  0  0  0  0
  189.9610  176.3560  143.0280 C   0  0  0  0  0  3  0  0  0  0  0  0
  190.7250  176.3780  140.7420 O   0  0  0  0  0  0  0  0  0  0  0  0
  191.4890  176.3420  138.5800 O   0  0  0  0  0  0  0  0  0  0  0  0
  188.6770  177.5440  141.3500 C   0  0  0  0  0  0  0  0  0  0  0  0
  189.7880  176.7630  141.7020 C   0  0  0  0  0  0  0  0  0  0  0  0
  188.5030  177.9710  139.9510 C   0  0  0  0  0  0  0  0  0  0  0  0
  189.0310  176.7240  144.0040 C   0  0  0  0  0  3  0  0  0  0  0  0
  189.5350  177.6610  138.9070 C   0  0  0  0  0  2  0  0  0  0  0  0
  187.4830  178.6280  139.6140 O   0  0  0  0  0  0  0  0  0  0  0  0
  190.6270  176.7560  139.3980 C   0  0  0  0  0  0  0  0  0  0  0  0
  183.0290  179.1090  143.4500 C   0  0  0  0  0  2  0  0  0  0  0  0
  181.7190  178.7490  140.7700 C   0  0  0  0  0  2  0  0  0  0  0  0
  179.3720  178.2710  140.3200 C   0  0  0  0  0  2  0  0  0  0  0  0
  181.5790  178.7720  143.3050 C   0  0  0  0  0  0  0  0  0  0  0  0
  180.7520  179.3810  138.5720 C   0  0  0  0  0  1  0  0  0  0  0  0
  179.6010  178.2360  141.8200 C   0  0  0  0  0  2  0  0  0  0  0  0
  180.7510  178.3440  139.6760 C   0  0  1  0  0  3  0  0  0  0  0  0
  180.9900  178.5920  142.0120 N   0  0  0  0  0  0  0  0  0  0  0  0
  180.8800  178.6280  144.3440 O   0  0  0  0  0  0  0  0  0  0  0  0
  1  5  2  0  0  0  0
  2  6  1  0  0  0  0
  3  5  1  0  0  0  0
  4  3  2  0  0  0  0
  6  1  1  0  0  0  0
  7  4  1  0  0  0  0
  7  6  2  0  0  0  0
  8  9  1  0  0  0  0
  9 16  2  0  0  0  0
  9  4  1  0  0  0  0
 10 16  1  0  0  0  0
 11 14  1  0  0  0  0
 12 19  2  0  0  0  0
 13 14  1  0  0  0  0
 13  8  2  0  0  0  0
 14 10  2  0  0  0  0
 15 13  1  0  0  0  0
 17 19  1  0  0  0  0
 17 15  1  0  0  0  0
 18 15  2  0  0  0  0
 19 11  1  0  0  0  0
 20  2  1  0  0  0  0
 21 27  1  0  0  0  0
 22 25  1  0  0  0  0
 23 20  1  0  0  0  0
 23 28  2  0  0  0  0
 25 27  1  0  0  0  0
 26 24  1  6  0  0  0
 26 22  1  0  0  0  0
 26 21  1  0  0  0  0
 27 23  1  0  0  0  0
M  END
>  <MODEL>
8

>  <REMARK>
 VINA RESULT:      -9.3      3.082      5.671
  Name = 
  3 active torsions:
  status: ('A' for Active; 'I' for Inactive)
    1  A    between atoms: N_5  and  C_24
    2  A    between atoms: C_6  and  C_14
    3  A    between atoms: C_7  and  C_24
                            x       y       z     vdW  Elec       q    Type
                         _______ _______ _______ _____ _____    ______ ____

>  <TORSDO>
F 3

$$$$
=
 OpenBabel11042412003D

 28 31  0  0  1  0  0  0  0  0999 V2000
  183.3240  178.7050  139.6050 C   0  0  0  0  0  3  0  0  0  0  0  0
  185.5800  178.6300  138.6780 N   0  0  0  0  0  2  0  0  0  0  0  0
  183.0030  178.6280  141.9970 C   0  0  0  0  0  3  0  0  0  0  0  0
  184.3930  178.5510  142.1710 C   0  0  0  0  0  0  0  0  0  0  0  0
  182.4720  178.7040  140.7100 C   0  0  0  0  0  3  0  0  0  0  0  0
  184.7030  178.6280  139.8060 C   0  0  0  0  0  0  0  0  0  0  0  0
  185.2010  178.5520  141.0720 N   0  0  0  0  0  0  0  0  0  0  0  0
  186.2740  177.9490  143.7130 C   0  0  0  0  0  3  0  0  0  0  0  0
  184.9860  178.4710  143.5220 C   0  0  0  0  0  0  0  0  0  0  0  0
  184.8150  178.8480  145.9170 C   0  0  0  0  0  3  0  0  0  0  0  0
  186.6300  178.2560  147.3900 O   0  0  0  0  0  0  0  0  0  0  0  0
  188.3100  177.6910  148.8440 O   0  0  0  0  0  0  0  0  0  0  0  0
  186.8350  177.8760  144.9950 C   0  0  0  0  0  0  0  0  0  0  0  0
  186.0990  178.3270  146.1010 C   0  0  0  0  0  0  0  0  0  0  0  0
  188.1890  177.3300  145.1970 C   0  0  0  0  0  0  0  0  0  0  0  0
  184.2630  178.9210  144.6360 C   0  0  0  0  0  3  0  0  0  0  0  0
  188.8340  177.3240  146.5510 C   0  0  0  0  0  2  0  0  0  0  0  0
  188.8380  176.8740  144.2180 O   0  0  0  0  0  0  0  0  0  0  0  0
  187.9110  177.7590  147.6520 C   0  0  0  0  0  0  0  0  0  0  0  0
  187.0310  178.5870  138.7990 C   0  0  0  0  0  2  0  0  0  0  0  0
  189.7100  177.3400  139.3420 C   0  0  0  0  0  2  0  0  0  0  0  0
  190.8290  175.6090  138.0420 C   0  0  0  0  0  2  0  0  0  0  0  0
  187.5940  177.4950  137.9470 C   0  0  0  0  0  0  0  0  0  0  0  0
  192.1820  177.1460  139.4560 C   0  0  0  0  0  1  0  0  0  0  0  0
  189.4420  175.8320  137.4690 C   0  0  0  0  0  2  0  0  0  0  0  0
  190.8810  176.3770  139.3560 C   0  0  1  0  0  3  0  0  0  0  0  0
  188.8680  176.9110  138.2440 N   0  0  0  0  0  0  0  0  0  0  0  0
  186.9200  177.0760  136.9680 O   0  0  0  0  0  0  0  0  0  0  0  0
  1  6  1  0  0  0  0
  1  5  2  0  0  0  0
  2 20  1  0  0  0  0
  2  6  1  0  0  0  0
  3  4  2  0  0  0  0
  4  9  1  0  0  0  0
  5  3  1  0  0  0  0
  6  7  2  0  0  0  0
  7  4  1  0  0  0  0
  8 13  1  0  0  0  0
  9  8  2  0  0  0  0
  9 16  1  0  0  0  0
 10 14  1  0  0  0  0
 11 19  1  0  0  0  0
 13 15  1  0  0  0  0
 13 14  2  0  0  0  0
 14 11  1  0  0  0  0
 15 17  1  0  0  0  0
 16 10  2  0  0  0  0
 17 19  1  0  0  0  0
 18 15  2  0  0  0  0
 19 12  2  0  0  0  0
 21 26  1  0  0  0  0
 22 26  1  0  0  0  0
 23 27  1  0  0  0  0
 23 20  1  0  0  0  0
 25 22  1  0  0  0  0
 25 27  1  0  0  0  0
 26 24  1  6  0  0  0
 27 21  1  0  0  0  0
 28 23  2  0  0  0  0
M  END
>  <MODEL>
9

>  <REMARK>
 VINA RESULT:      -9.3      2.020      3.421
  Name = 
  3 active torsions:
  status: ('A' for Active; 'I' for Inactive)
    1  A    between atoms: N_5  and  C_24
    2  A    between atoms: C_6  and  C_14
    3  A    between atoms: C_7  and  C_24
                            x       y       z     vdW  Elec       q    Type
                         _______ _______ _______ _____ _____    ______ ____

>  <TORSDO>
F 3

$$$$
