=
 OpenBabel11032420433D

 45 52  0  0  1  0  0  0  0  0999 V2000
  190.0430  176.8730  142.3720 C   0  0  2  0  0  3  0  0  0  0  0  0
  185.5250  178.7070  140.5190 C   0  0  1  0  0  3  0  0  0  0  0  0
  189.2100  177.4480  141.1830 C   0  0  1  0  0  3  0  0  0  0  0  0
  188.5290  177.4740  144.9030 C   0  0  1  0  0  3  0  0  0  0  0  0
  183.9960  179.3020  142.4100 C   0  0  0  0  0  2  0  0  0  0  0  0
  187.8800  177.8500  141.2910 C   0  0  0  0  0  0  0  0  0  0  0  0
  183.7850  177.9410  142.1440 O   0  0  0  0  0  0  0  0  0  0  0  0
  191.0650  177.2270  144.6710 C   0  0  0  0  0  2  0  0  0  0  0  0
  187.0730  177.8380  138.8440 C   0  0  2  0  0  3  0  0  0  0  0  0
  185.1140  178.4460  141.9660 C   0  0  1  0  0  0  0  0  0  0  0  0
  187.4330  177.9410  142.7210 C   0  0  2  0  0  3  0  0  0  0  0  0
  191.0610  177.0830  146.0490 C   0  0  0  0  0  2  0  0  0  0  0  0
  185.7030  178.1400  144.6410 C   0  0  0  0  0  3  0  0  0  0  0  0
  189.9400  176.8690  147.1390 C   0  0  0  0  0  2  0  0  0  0  0  0
  189.7770  177.5790  143.7720 C   0  0  2  0  0  0  0  0  0  0  0  0
  190.1590  178.0100  140.1980 C   0  0  0  0  0  2  0  0  0  0  0  0
  188.5440  177.5270  147.2490 C   0  0  0  0  0  2  0  0  0  0  0  0
  186.8380  178.1770  140.1460 C   0  0  0  0  0  0  0  0  0  0  0  0
  188.3750  176.9910  143.6330 C   0  0  1  0  0  3  0  0  0  0  0  0
  186.0700  177.2900  137.9550 O   0  0  0  0  0  1  0  0  0  0  0  0
  188.3860  177.7410  138.3400 C   0  0  0  0  0  2  0  0  0  0  0  0
  187.8220  177.4860  146.0250 C   0  0  0  0  0  0  0  0  0  0  0  0
  189.6390  177.7150  138.8280 C   0  0  2  0  0  3  0  0  0  0  0  0
  186.1400  178.2200  143.0930 C   0  0  0  0  0  0  0  0  0  0  0  0
  191.2950  176.3160  142.0580 F   0  0  0  0  0  0  0  0  0  0  0  0
  186.3820  177.8080  145.8470 C   0  0  0  0  0  3  0  0  0  0  0  0
  191.3510  173.3870  135.9920 O   0  0  0  0  0  0  0  0  0  0  0  0
  191.6570  174.7470  137.9530 N   0  0  0  0  0  2  0  0  0  0  0  0
  192.7770  176.7540  138.7700 O   0  0  0  0  0  0  0  0  0  0  0  0
  192.1510  174.0980  136.6780 C   0  0  0  0  0  0  0  0  0  0  0  0
  191.7870  176.2470  138.3270 C   0  0  0  0  0  0  0  0  0  0  0  0
  190.7000  177.1580  138.0560 N   0  0  0  0  0  2  0  0  0  0  0  0
  193.6220  173.8800  136.4230 C   0  0  0  0  0  2  0  0  0  0  0  0
  194.3690  173.3890  137.6600 C   0  0  0  0  0  2  0  0  0  0  0  0
  195.3770  174.4760  137.9850 C   0  0  0  0  0  1  0  0  0  0  0  0
  184.4940  178.4620  139.5680 O   0  0  0  0  0  0  0  0  0  0  0  0
  184.1010  179.7680  139.2640 C   0  0  0  0  0  2  0  0  0  0  0  0
  182.7240  179.7390  138.6520 C   0  0  0  0  0  2  0  0  0  0  0  0
  180.9990  180.3600  140.5270 N   0  0  0  0  0  2  0  0  0  0  0  0
  181.6360  179.3740  139.6380 C   0  0  0  0  0  0  0  0  0  0  0  0
  181.4150  178.1670  139.8100 O   0  0  0  0  0  0  0  0  0  0  0  0
  179.7250  181.0390  142.4780 O   0  0  0  0  0  0  0  0  0  0  0  0
  179.9980  180.0420  141.5830 C   0  0  0  0  0  0  0  0  0  0  0  0
  180.5590  180.0540  142.8480 O   0  0  0  0  0  0  0  0  0  0  0  0
  178.9330  178.9560  141.4570 C   0  0  0  0  0  1  0  0  0  0  0  0
  1 25  1  6  0  0  0
  1 15  1  0  0  0  0
  2 36  1  6  0  0  0
  2 10  1  0  0  0  0
  3 16  1  1  0  0  0
  3  6  1  0  0  0  0
  3  1  1  0  0  0  0
  4 22  1  1  0  0  0
  7  5  1  0  0  0  0
  8 12  1  0  0  0  0
  9 20  1  1  0  0  0
  9 18  1  0  0  0  0
 10  7  1  0  0  0  0
 10  5  1  1  0  0  0
 10 24  1  0  0  0  0
 11  6  1  6  0  0  0
 11 24  1  0  0  0  0
 11 19  1  0  0  0  0
 12 14  1  0  0  0  0
 13 26  1  0  0  0  0
 14 17  1  0  0  0  0
 15  8  1  1  0  0  0
 15  4  1  0  0  0  0
 18  2  1  0  0  0  0
 18  6  2  0  0  0  0
 19 15  1  0  0  0  0
 19  4  1  0  0  0  0
 21 23  1  0  0  0  0
 21  9  1  0  0  0  0
 22 17  1  0  0  0  0
 23 16  1  0  0  0  0
 24 13  2  0  0  0  0
 26 22  2  0  0  0  0
 27 30  2  0  0  0  0
 28 31  1  0  0  0  0
 30 28  1  0  0  0  0
 31 29  2  0  0  0  0
 32 31  1  0  0  0  0
 32 23  1  0  0  0  0
 33 30  1  0  0  0  0
 33 34  1  0  0  0  0
 34 35  1  0  0  0  0
 37 36  1  0  0  0  0
 38 37  1  0  0  0  0
 38 40  1  0  0  0  0
 39 43  1  0  0  0  0
 40 41  2  0  0  0  0
 40 39  1  0  0  0  0
 42 44  1  0  0  0  0
 43 42  1  0  0  0  0
 43 44  1  0  0  0  0
 45 43  1  0  0  0  0
M  END
>  <MODEL>
1

>  <REMARK>
 VINA RESULT:     -10.2      0.000      0.000
  Name = 
  8 active torsions:
  status: ('A' for Active; 'I' for Inactive)
    1  A    between atoms: C_2  and  O_5
    2  A    between atoms: O_5  and  C_23
    3  A    between atoms: C_10  and  N_11
    4  A    between atoms: C_12  and  C_27
    5  A    between atoms: C_12  and  C_40
    6  A    between atoms: C_15  and  C_36
    7  A    between atoms: C_23  and  C_36
    8  A    between atoms: C_37  and  N_42
                            x       y       z     vdW  Elec       q    Type
                         _______ _______ _______ _____ _____    ______ ____

>  <TORSDO>
F 8

$$$$
=
 OpenBabel11032420433D

 45 52  0  0  1  0  0  0  0  0999 V2000
  188.6440  177.3910  142.7220 C   0  0  2  0  0  3  0  0  0  0  0  0
  184.2910  178.9990  140.3390 C   0  0  1  0  0  3  0  0  0  0  0  0
  187.9250  177.8990  141.4320 C   0  0  1  0  0  3  0  0  0  0  0  0
  186.8500  178.0140  145.0560 C   0  0  1  0  0  3  0  0  0  0  0  0
  182.5490  179.5950  142.0360 C   0  0  0  0  0  2  0  0  0  0  0  0
  186.5780  178.2540  141.3850 C   0  0  0  0  0  0  0  0  0  0  0  0
  182.4140  178.2190  141.7960 O   0  0  0  0  0  0  0  0  0  0  0  0
  189.4020  177.8530  145.1020 C   0  0  0  0  0  2  0  0  0  0  0  0
  186.0380  178.1380  138.8680 C   0  0  2  0  0  3  0  0  0  0  0  0
  183.7370  178.7680  141.7430 C   0  0  1  0  0  0  0  0  0  0  0  0
  185.9780  178.3720  142.7560 C   0  0  2  0  0  3  0  0  0  0  0  0
  189.2550  177.7520  146.4760 C   0  0  0  0  0  2  0  0  0  0  0  0
  184.0470  178.5660  144.4740 C   0  0  0  0  0  3  0  0  0  0  0  0
  188.0330  177.5290  147.4480 C   0  0  0  0  0  2  0  0  0  0  0  0
  188.2060  178.1290  144.0600 C   0  0  2  0  0  0  0  0  0  0  0  0
  188.9530  178.4650  140.5350 C   0  0  0  0  0  2  0  0  0  0  0  0
  186.6120  178.1390  147.3880 C   0  0  0  0  0  2  0  0  0  0  0  0
  185.6530  178.5070  140.1260 C   0  0  0  0  0  0  0  0  0  0  0  0
  186.8480  177.4860  143.7940 C   0  0  1  0  0  3  0  0  0  0  0  0
  185.1540  177.5260  137.8970 O   0  0  0  0  0  1  0  0  0  0  0  0
  187.3990  178.0740  138.5100 C   0  0  0  0  0  2  0  0  0  0  0  0
  186.0260  178.0330  146.0960 C   0  0  0  0  0  0  0  0  0  0  0  0
  188.5930  178.1090  139.1280 C   0  0  2  0  0  3  0  0  0  0  0  0
  184.6430  178.6150  142.9790 C   0  0  0  0  0  0  0  0  0  0  0  0
  189.9410  176.8720  142.5610 F   0  0  0  0  0  0  0  0  0  0  0  0
  184.6040  178.2960  145.7550 C   0  0  0  0  0  3  0  0  0  0  0  0
  190.6430  173.8950  136.3460 O   0  0  0  0  0  0  0  0  0  0  0  0
  190.6750  175.1440  138.4010 N   0  0  0  0  0  2  0  0  0  0  0  0
  191.6910  177.0810  139.4820 O   0  0  0  0  0  0  0  0  0  0  0  0
  191.3430  174.5510  137.1800 C   0  0  0  0  0  0  0  0  0  0  0  0
  190.7700  176.6210  138.8710 C   0  0  0  0  0  0  0  0  0  0  0  0
  189.7490  177.5690  138.4920 N   0  0  0  0  0  2  0  0  0  0  0  0
  192.8310  174.3130  137.1330 C   0  0  0  0  0  2  0  0  0  0  0  0
  193.6240  175.5870  136.8510 C   0  0  0  0  0  2  0  0  0  0  0  0
  193.6940  175.6960  135.3380 C   0  0  0  0  0  1  0  0  0  0  0  0
  183.3760  178.6880  139.2940 O   0  0  0  0  0  0  0  0  0  0  0  0
  183.0600  179.9680  138.8310 C   0  0  0  0  0  2  0  0  0  0  0  0
  181.5970  180.0140  138.4700 C   0  0  0  0  0  2  0  0  0  0  0  0
  181.4480  182.6120  138.1430 N   0  0  0  0  0  2  0  0  0  0  0  0
  181.2140  181.2380  137.6680 C   0  0  0  0  0  0  0  0  0  0  0  0
  180.5190  181.0530  136.6580 O   0  0  0  0  0  0  0  0  0  0  0  0
  181.6430  184.1460  136.2730 O   0  0  0  0  0  0  0  0  0  0  0  0
  181.0030  183.8490  137.4440 C   0  0  0  0  0  0  0  0  0  0  0  0
  182.0060  184.8010  137.3870 O   0  0  0  0  0  0  0  0  0  0  0  0
  179.6340  184.4960  137.6340 C   0  0  0  0  0  1  0  0  0  0  0  0
  1 25  1  6  0  0  0
  1 15  1  0  0  0  0
  2 36  1  6  0  0  0
  2 10  1  0  0  0  0
  3 16  1  1  0  0  0
  3  1  1  0  0  0  0
  4 22  1  1  0  0  0
  6  3  1  0  0  0  0
  7  5  1  0  0  0  0
  8 12  1  0  0  0  0
  9 20  1  1  0  0  0
  9 18  1  0  0  0  0
 10  7  1  0  0  0  0
 10  5  1  1  0  0  0
 10 24  1  0  0  0  0
 11  6  1  6  0  0  0
 11 24  1  0  0  0  0
 11 19  1  0  0  0  0
 12 14  1  0  0  0  0
 13 26  1  0  0  0  0
 15  4  1  0  0  0  0
 15  8  1  1  0  0  0
 17 14  1  0  0  0  0
 18  2  1  0  0  0  0
 18  6  2  0  0  0  0
 19 15  1  0  0  0  0
 19  4  1  0  0  0  0
 21  9  1  0  0  0  0
 21 23  1  0  0  0  0
 22 17  1  0  0  0  0
 23 16  1  0  0  0  0
 24 13  2  0  0  0  0
 26 22  2  0  0  0  0
 27 30  2  0  0  0  0
 28 31  1  0  0  0  0
 30 28  1  0  0  0  0
 31 29  2  0  0  0  0
 32 31  1  0  0  0  0
 32 23  1  0  0  0  0
 33 30  1  0  0  0  0
 34 33  1  0  0  0  0
 35 34  1  0  0  0  0
 37 36  1  0  0  0  0
 38 37  1  0  0  0  0
 40 39  1  0  0  0  0
 40 38  1  0  0  0  0
 41 40  2  0  0  0  0
 42 44  1  0  0  0  0
 42 43  1  0  0  0  0
 43 45  1  0  0  0  0
 43 39  1  0  0  0  0
 44 43  1  0  0  0  0
M  END
>  <MODEL>
2

>  <REMARK>
 VINA RESULT:     -10.2      2.286      2.650
  Name = 
  8 active torsions:
  status: ('A' for Active; 'I' for Inactive)
    1  A    between atoms: C_2  and  O_5
    2  A    between atoms: O_5  and  C_23
    3  A    between atoms: C_10  and  N_11
    4  A    between atoms: C_12  and  C_27
    5  A    between atoms: C_12  and  C_40
    6  A    between atoms: C_15  and  C_36
    7  A    between atoms: C_23  and  C_36
    8  A    between atoms: C_37  and  N_42
                            x       y       z     vdW  Elec       q    Type
                         _______ _______ _______ _____ _____    ______ ____

>  <TORSDO>
F 8

$$$$
=
 OpenBabel11032420433D

 45 52  0  0  1  0  0  0  0  0999 V2000
  190.0160  176.8440  142.2910 C   0  0  2  0  0  3  0  0  0  0  0  0
  185.4910  178.7310  140.5090 C   0  0  1  0  0  3  0  0  0  0  0  0
  189.1730  177.4320  141.1160 C   0  0  1  0  0  3  0  0  0  0  0  0
  188.5450  177.4520  144.8450 C   0  0  1  0  0  3  0  0  0  0  0  0
  183.9950  179.3360  142.4240 C   0  0  0  0  0  2  0  0  0  0  0  0
  187.8480  177.8470  141.2450 C   0  0  0  0  0  0  0  0  0  0  0  0
  183.7670  177.9770  142.1560 O   0  0  0  0  0  0  0  0  0  0  0  0
  191.0750  177.1790  144.5760 C   0  0  0  0  0  2  0  0  0  0  0  0
  187.0060  177.8530  138.8090 C   0  0  2  0  0  3  0  0  0  0  0  0
  185.0990  178.4700  141.9610 C   0  0  1  0  0  0  0  0  0  0  0  0
  187.4230  177.9380  142.6810 C   0  0  2  0  0  3  0  0  0  0  0  0
  191.0880  177.0310  145.9540 C   0  0  0  0  0  2  0  0  0  0  0  0
  185.7230  178.1480  144.6260 C   0  0  0  0  0  3  0  0  0  0  0  0
  189.9820  176.8240  147.0580 C   0  0  0  0  0  2  0  0  0  0  0  0
  189.7770  177.5480  143.6970 C   0  0  2  0  0  0  0  0  0  0  0  0
  190.1120  177.9880  140.1200 C   0  0  0  0  0  2  0  0  0  0  0  0
  188.5940  177.4960  147.1920 C   0  0  0  0  0  2  0  0  0  0  0  0
  186.7930  178.1890  140.1160 C   0  0  0  0  0  0  0  0  0  0  0  0
  188.3680  176.9750  143.5760 C   0  0  1  0  0  3  0  0  0  0  0  0
  185.9850  177.3190  137.9320 O   0  0  0  0  0  1  0  0  0  0  0  0
  188.3110  177.7440  138.2860 C   0  0  0  0  0  2  0  0  0  0  0  0
  187.8550  177.4670  145.9780 C   0  0  0  0  0  0  0  0  0  0  0  0
  189.5700  177.7030  138.7560 C   0  0  2  0  0  3  0  0  0  0  0  0
  186.1380  178.2290  143.0730 C   0  0  0  0  0  0  0  0  0  0  0  0
  191.2580  176.2750  141.9570 F   0  0  0  0  0  0  0  0  0  0  0  0
  186.4160  177.8040  145.8210 C   0  0  0  0  0  3  0  0  0  0  0  0
  191.3410  173.2540  136.1550 O   0  0  0  0  0  0  0  0  0  0  0  0
  191.6850  174.7730  137.9870 N   0  0  0  0  0  2  0  0  0  0  0  0
  192.7450  176.8870  138.5860 O   0  0  0  0  0  0  0  0  0  0  0  0
  192.1410  174.0520  136.7380 C   0  0  0  0  0  0  0  0  0  0  0  0
  191.7590  176.3020  138.2410 C   0  0  0  0  0  0  0  0  0  0  0  0
  190.6140  177.1380  137.9670 N   0  0  0  0  0  2  0  0  0  0  0  0
  193.6040  173.8830  136.4140 C   0  0  0  0  0  2  0  0  0  0  0  0
  194.3480  173.0560  137.4590 C   0  0  0  0  0  2  0  0  0  0  0  0
  195.1640  174.0520  138.2620 C   0  0  0  0  0  1  0  0  0  0  0  0
  184.4440  178.5010  139.5720 O   0  0  0  0  0  0  0  0  0  0  0  0
  184.1340  179.8110  139.1970 C   0  0  0  0  0  2  0  0  0  0  0  0
  182.7070  179.8600  138.7130 C   0  0  0  0  0  2  0  0  0  0  0  0
  181.5870  177.5020  138.4640 N   0  0  0  0  0  2  0  0  0  0  0  0
  181.8550  178.7260  139.2380 C   0  0  0  0  0  0  0  0  0  0  0  0
  181.2250  178.9340  140.2850 O   0  0  0  0  0  0  0  0  0  0  0  0
  181.2150  175.4580  139.7190 O   0  0  0  0  0  0  0  0  0  0  0  0
  180.6780  176.4010  138.8860 C   0  0  0  0  0  0  0  0  0  0  0  0
  181.0990  175.1710  138.4130 O   0  0  0  0  0  0  0  0  0  0  0  0
  179.1550  176.5020  138.8940 C   0  0  0  0  0  1  0  0  0  0  0  0
  1 25  1  6  0  0  0
  1 15  1  0  0  0  0
  2 36  1  6  0  0  0
  2 10  1  0  0  0  0
  3 16  1  1  0  0  0
  3  6  1  0  0  0  0
  3  1  1  0  0  0  0
  4 22  1  1  0  0  0
  7  5  1  0  0  0  0
  8 12  1  0  0  0  0
  9 20  1  1  0  0  0
  9 18  1  0  0  0  0
 10  7  1  0  0  0  0
 10  5  1  1  0  0  0
 10 24  1  0  0  0  0
 11  6  1  6  0  0  0
 11 24  1  0  0  0  0
 11 19  1  0  0  0  0
 12 14  1  0  0  0  0
 13 26  1  0  0  0  0
 14 17  1  0  0  0  0
 15  8  1  1  0  0  0
 15  4  1  0  0  0  0
 18  2  1  0  0  0  0
 18  6  2  0  0  0  0
 19 15  1  0  0  0  0
 19  4  1  0  0  0  0
 21 23  1  0  0  0  0
 21  9  1  0  0  0  0
 22 17  1  0  0  0  0
 23 16  1  0  0  0  0
 24 13  2  0  0  0  0
 26 22  2  0  0  0  0
 27 30  2  0  0  0  0
 28 31  1  0  0  0  0
 30 28  1  0  0  0  0
 31 29  2  0  0  0  0
 32 31  1  0  0  0  0
 32 23  1  0  0  0  0
 33 30  1  0  0  0  0
 33 34  1  0  0  0  0
 34 35  1  0  0  0  0
 37 36  1  0  0  0  0
 38 37  1  0  0  0  0
 38 40  1  0  0  0  0
 39 43  1  0  0  0  0
 39 40  1  0  0  0  0
 40 41  2  0  0  0  0
 43 45  1  0  0  0  0
 43 42  1  0  0  0  0
 44 43  1  0  0  0  0
 44 42  1  0  0  0  0
M  END
>  <MODEL>
3

>  <REMARK>
 VINA RESULT:     -10.0      1.136      1.722
  Name = 
  8 active torsions:
  status: ('A' for Active; 'I' for Inactive)
    1  A    between atoms: C_2  and  O_5
    2  A    between atoms: O_5  and  C_23
    3  A    between atoms: C_10  and  N_11
    4  A    between atoms: C_12  and  C_27
    5  A    between atoms: C_12  and  C_40
    6  A    between atoms: C_15  and  C_36
    7  A    between atoms: C_23  and  C_36
    8  A    between atoms: C_37  and  N_42
                            x       y       z     vdW  Elec       q    Type
                         _______ _______ _______ _____ _____    ______ ____

>  <TORSDO>
F 8

$$$$
=
 OpenBabel11032420433D

 45 52  0  0  1  0  0  0  0  0999 V2000
  185.8700  178.9600  143.9380 C   0  0  2  0  0  3  0  0  0  0  0  0
  189.6440  177.2270  140.7800 C   0  0  1  0  0  3  0  0  0  0  0  0
  186.3410  178.5310  142.5120 C   0  0  1  0  0  3  0  0  0  0  0  0
  187.9020  177.9270  145.9030 C   0  0  1  0  0  3  0  0  0  0  0  0
  191.5350  176.2940  142.1290 C   0  0  0  0  0  2  0  0  0  0  0  0
  187.6220  178.0610  142.2280 C   0  0  0  0  0  0  0  0  0  0  0  0
  191.7810  177.6690  142.0000 O   0  0  0  0  0  0  0  0  0  0  0  0
  185.4140  178.3150  146.3520 C   0  0  0  0  0  2  0  0  0  0  0  0
  187.8070  178.4000  139.6800 C   0  0  2  0  0  3  0  0  0  0  0  0
  190.4130  177.2530  142.0980 C   0  0  1  0  0  0  0  0  0  0  0  0
  188.3950  177.7410  143.4740 C   0  0  2  0  0  3  0  0  0  0  0  0
  185.7650  178.2530  147.6920 C   0  0  0  0  0  2  0  0  0  0  0  0
  190.5190  177.1860  144.8510 C   0  0  0  0  0  3  0  0  0  0  0  0
  187.1300  178.2560  148.4820 C   0  0  0  0  0  2  0  0  0  0  0  0
  186.4130  178.0440  145.1190 C   0  0  2  0  0  0  0  0  0  0  0  0
  185.1410  178.1620  141.7330 C   0  0  0  0  0  2  0  0  0  0  0  0
  188.4550  177.5280  148.1490 C   0  0  0  0  0  2  0  0  0  0  0  0
  188.3250  177.8620  140.8240 C   0  0  0  0  0  0  0  0  0  0  0  0
  187.7810  178.5850  144.7110 C   0  0  1  0  0  3  0  0  0  0  0  0
  188.6040  179.0290  138.6460 O   0  0  0  0  0  1  0  0  0  0  0  0
  186.4230  178.6260  139.5400 C   0  0  0  0  0  2  0  0  0  0  0  0
  188.8580  177.7190  146.7990 C   0  0  0  0  0  0  0  0  0  0  0  0
  185.3330  178.6340  140.3270 C   0  0  2  0  0  3  0  0  0  0  0  0
  189.7140  177.3540  143.4670 C   0  0  0  0  0  0  0  0  0  0  0  0
  184.6270  179.6110  144.0260 F   0  0  0  0  0  0  0  0  0  0  0  0
  190.1820  177.3660  146.2220 C   0  0  0  0  0  3  0  0  0  0  0  0
  180.3570  180.2980  141.8020 O   0  0  0  0  0  0  0  0  0  0  0  0
  181.6460  178.8700  140.3580 N   0  0  0  0  0  2  0  0  0  0  0  0
  182.8210  178.8180  138.2210 O   0  0  0  0  0  0  0  0  0  0  0  0
  180.6220  179.9560  140.6070 C   0  0  0  0  0  0  0  0  0  0  0  0
  182.8700  178.9640  139.4090 C   0  0  0  0  0  0  0  0  0  0  0  0
  184.1620  179.3440  139.9280 N   0  0  0  0  0  2  0  0  0  0  0  0
  179.5960  180.3260  139.5650 C   0  0  0  0  0  2  0  0  0  0  0  0
  179.6560  181.8000  139.1740 C   0  0  0  0  0  2  0  0  0  0  0  0
  180.9510  181.9630  138.3980 C   0  0  0  0  0  1  0  0  0  0  0  0
  190.4280  177.5650  139.6410 O   0  0  0  0  0  0  0  0  0  0  0  0
  190.6070  176.3060  139.0620 C   0  0  0  0  0  2  0  0  0  0  0  0
  191.4100  176.4550  137.7950 C   0  0  0  0  0  2  0  0  0  0  0  0
  193.5040  174.9490  137.3210 N   0  0  0  0  0  2  0  0  0  0  0  0
  192.8730  176.1130  137.9660 C   0  0  0  0  0  0  0  0  0  0  0  0
  193.5020  176.7480  138.8260 O   0  0  0  0  0  0  0  0  0  0  0  0
  195.8780  175.2570  136.9250 O   0  0  0  0  0  0  0  0  0  0  0  0
  194.9100  174.5080  137.5330 C   0  0  0  0  0  0  0  0  0  0  0  0
  195.5080  174.1000  136.3540 O   0  0  0  0  0  0  0  0  0  0  0  0
  195.3740  173.6580  138.7140 C   0  0  0  0  0  1  0  0  0  0  0  0
  1 25  1  6  0  0  0
  1 15  1  0  0  0  0
  2 36  1  6  0  0  0
  2 18  1  0  0  0  0
  2 10  1  0  0  0  0
  3 16  1  1  0  0  0
  3  1  1  0  0  0  0
  4 22  1  1  0  0  0
  6  3  1  0  0  0  0
  7 10  1  0  0  0  0
  7  5  1  0  0  0  0
  8 12  1  0  0  0  0
  9 20  1  1  0  0  0
  9 18  1  0  0  0  0
 10  5  1  1  0  0  0
 10 24  1  0  0  0  0
 11  6  1  6  0  0  0
 11 19  1  0  0  0  0
 12 14  1  0  0  0  0
 13 26  1  0  0  0  0
 15  4  1  0  0  0  0
 15  8  1  1  0  0  0
 17 14  1  0  0  0  0
 18  6  2  0  0  0  0
 19 15  1  0  0  0  0
 19  4  1  0  0  0  0
 21  9  1  0  0  0  0
 21 23  1  0  0  0  0
 22 17  1  0  0  0  0
 23 16  1  0  0  0  0
 24 11  1  0  0  0  0
 24 13  2  0  0  0  0
 26 22  2  0  0  0  0
 28 30  1  0  0  0  0
 29 31  2  0  0  0  0
 30 27  2  0  0  0  0
 31 32  1  0  0  0  0
 31 28  1  0  0  0  0
 32 23  1  0  0  0  0
 33 30  1  0  0  0  0
 34 33  1  0  0  0  0
 35 34  1  0  0  0  0
 37 36  1  0  0  0  0
 38 40  1  0  0  0  0
 38 37  1  0  0  0  0
 39 43  1  0  0  0  0
 39 40  1  0  0  0  0
 40 41  2  0  0  0  0
 42 43  1  0  0  0  0
 43 45  1  0  0  0  0
 44 42  1  0  0  0  0
 44 43  1  0  0  0  0
M  END
>  <MODEL>
4

>  <REMARK>
 VINA RESULT:      -9.8      2.100      9.328
  Name = 
  8 active torsions:
  status: ('A' for Active; 'I' for Inactive)
    1  A    between atoms: C_2  and  O_5
    2  A    between atoms: O_5  and  C_23
    3  A    between atoms: C_10  and  N_11
    4  A    between atoms: C_12  and  C_27
    5  A    between atoms: C_12  and  C_40
    6  A    between atoms: C_15  and  C_36
    7  A    between atoms: C_23  and  C_36
    8  A    between atoms: C_37  and  N_42
                            x       y       z     vdW  Elec       q    Type
                         _______ _______ _______ _____ _____    ______ ____

>  <TORSDO>
F 8

$$$$
=
 OpenBabel11032420433D

 45 52  0  0  1  0  0  0  0  0999 V2000
  185.9530  178.5980  140.1110 C   0  0  2  0  0  3  0  0  0  0  0  0
  186.7510  178.0040  145.2320 C   0  0  1  0  0  3  0  0  0  0  0  0
  186.8920  178.1830  141.2880 C   0  0  1  0  0  3  0  0  0  0  0  0
  183.1490  178.7070  141.1960 C   0  0  1  0  0  3  0  0  0  0  0  0
  184.5680  178.0630  146.4570 C   0  0  0  0  0  2  0  0  0  0  0  0
  186.5100  178.2010  142.6280 C   0  0  0  0  0  0  0  0  0  0  0  0
  184.9930  179.3950  146.3400 O   0  0  0  0  0  0  0  0  0  0  0  0
  183.8270  178.1770  138.7870 C   0  0  0  0  0  2  0  0  0  0  0  0
  188.7660  178.2190  143.8720 C   0  0  2  0  0  3  0  0  0  0  0  0
  185.3100  178.5080  145.2600 C   0  0  1  0  0  0  0  0  0  0  0  0
  185.0280  178.3800  142.7890 C   0  0  2  0  0  3  0  0  0  0  0  0
  182.5020  178.4440  138.4780 C   0  0  0  0  0  2  0  0  0  0  0  0
  182.8430  178.8770  144.0900 C   0  0  0  0  0  3  0  0  0  0  0  0
  181.2870  179.0790  139.2580 C   0  0  0  0  0  2  0  0  0  0  0  0
  184.4410  178.1350  140.2740 C   0  0  2  0  0  0  0  0  0  0  0  0
  187.9260  177.2770  140.7430 C   0  0  0  0  0  2  0  0  0  0  0  0
  180.8540  178.8720  140.7290 C   0  0  0  0  0  2  0  0  0  0  0  0
  187.4080  178.0880  143.9260 C   0  0  0  0  0  0  0  0  0  0  0  0
  184.4330  179.0920  141.4630 C   0  0  1  0  0  3  0  0  0  0  0  0
  189.5500  178.9510  144.8460 O   0  0  0  0  0  1  0  0  0  0  0  0
  189.4870  177.8790  142.7090 C   0  0  0  0  0  2  0  0  0  0  0  0
  181.9360  179.0090  141.6410 C   0  0  0  0  0  0  0  0  0  0  0  0
  189.2200  177.5820  141.4250 C   0  0  2  0  0  3  0  0  0  0  0  0
  184.4120  178.5280  144.0080 C   0  0  0  0  0  0  0  0  0  0  0  0
  186.5470  178.7310  138.8430 F   0  0  0  0  0  0  0  0  0  0  0  0
  181.8260  179.1080  143.1200 C   0  0  0  0  0  3  0  0  0  0  0  0
  191.1050  175.7940  136.6350 O   0  0  0  0  0  0  0  0  0  0  0  0
  191.4920  175.9630  139.0020 N   0  0  0  0  0  2  0  0  0  0  0  0
  192.4230  177.4240  140.7200 O   0  0  0  0  0  0  0  0  0  0  0  0
  191.8870  176.1830  137.5590 C   0  0  0  0  0  0  0  0  0  0  0  0
  191.4610  177.0410  140.1190 C   0  0  0  0  0  0  0  0  0  0  0  0
  190.2300  177.7280  140.4280 N   0  0  0  0  0  2  0  0  0  0  0  0
  193.3220  176.4210  137.1610 C   0  0  0  0  0  2  0  0  0  0  0  0
  194.0300  175.1440  136.7140 C   0  0  0  0  0  2  0  0  0  0  0  0
  194.6860  174.5840  137.9630 C   0  0  0  0  0  1  0  0  0  0  0  0
  187.5450  178.4490  146.3260 O   0  0  0  0  0  0  0  0  0  0  0  0
  187.1790  177.5270  147.3100 C   0  0  0  0  0  2  0  0  0  0  0  0
  188.1170  177.6590  148.4830 C   0  0  0  0  0  2  0  0  0  0  0  0
  190.0820  176.5800  147.1230 N   0  0  0  0  0  2  0  0  0  0  0  0
  189.5770  177.5590  148.1000 C   0  0  0  0  0  0  0  0  0  0  0  0
  190.3820  178.2150  148.7770 O   0  0  0  0  0  0  0  0  0  0  0  0
  192.0610  177.2440  145.8840 O   0  0  0  0  0  0  0  0  0  0  0  0
  191.5170  176.3690  146.7830 C   0  0  0  0  0  0  0  0  0  0  0  0
  191.6890  176.0280  145.4530 O   0  0  0  0  0  0  0  0  0  0  0  0
  192.5110  175.6340  147.6770 C   0  0  0  0  0  1  0  0  0  0  0  0
  1 25  1  6  0  0  0
  1 15  1  0  0  0  0
  1  3  1  0  0  0  0
  2 10  1  0  0  0  0
  2 36  1  1  0  0  0
  3 16  1  6  0  0  0
  3  6  1  0  0  0  0
  4 19  1  0  0  0  0
  4 22  1  6  0  0  0
  6 18  2  0  0  0  0
  7  5  1  0  0  0  0
  9 18  1  0  0  0  0
  9 20  1  6  0  0  0
 10  7  1  0  0  0  0
 10  5  1  1  0  0  0
 11  6  1  1  0  0  0
 11 24  1  0  0  0  0
 12  8  1  0  0  0  0
 12 14  1  0  0  0  0
 14 17  1  0  0  0  0
 15  8  1  6  0  0  0
 15  4  1  0  0  0  0
 15 19  1  0  0  0  0
 16 23  1  0  0  0  0
 17 22  1  0  0  0  0
 18  2  1  0  0  0  0
 19 11  1  0  0  0  0
 21  9  1  0  0  0  0
 22 26  2  0  0  0  0
 23 21  1  0  0  0  0
 24 13  2  0  0  0  0
 24 10  1  0  0  0  0
 26 13  1  0  0  0  0
 27 30  2  0  0  0  0
 28 31  1  0  0  0  0
 30 28  1  0  0  0  0
 31 32  1  0  0  0  0
 31 29  2  0  0  0  0
 32 23  1  0  0  0  0
 33 30  1  0  0  0  0
 34 33  1  0  0  0  0
 34 35  1  0  0  0  0
 36 37  1  0  0  0  0
 37 38  1  0  0  0  0
 39 40  1  0  0  0  0
 40 38  1  0  0  0  0
 40 41  2  0  0  0  0
 42 43  1  0  0  0  0
 43 39  1  0  0  0  0
 43 45  1  0  0  0  0
 44 42  1  0  0  0  0
 44 43  1  0  0  0  0
M  END
>  <MODEL>
5

>  <REMARK>
 VINA RESULT:      -9.1      3.280      7.368
  Name = 
  8 active torsions:
  status: ('A' for Active; 'I' for Inactive)
    1  A    between atoms: C_2  and  O_5
    2  A    between atoms: O_5  and  C_23
    3  A    between atoms: C_10  and  N_11
    4  A    between atoms: C_12  and  C_27
    5  A    between atoms: C_12  and  C_40
    6  A    between atoms: C_15  and  C_36
    7  A    between atoms: C_23  and  C_36
    8  A    between atoms: C_37  and  N_42
                            x       y       z     vdW  Elec       q    Type
                         _______ _______ _______ _____ _____    ______ ____

>  <TORSDO>
F 8

$$$$
=
 OpenBabel11032420433D

 45 52  0  0  1  0  0  0  0  0999 V2000
  186.3320  178.6560  143.8500 C   0  0  2  0  0  3  0  0  0  0  0  0
  189.7060  177.1700  140.1590 C   0  0  1  0  0  3  0  0  0  0  0  0
  186.6240  178.2970  142.3590 C   0  0  1  0  0  3  0  0  0  0  0  0
  188.6320  177.6160  145.4890 C   0  0  1  0  0  3  0  0  0  0  0  0
  191.7830  176.2480  141.2110 C   0  0  0  0  0  2  0  0  0  0  0  0
  187.8690  177.8810  141.8910 C   0  0  0  0  0  0  0  0  0  0  0  0
  191.9720  177.6350  141.1090 O   0  0  0  0  0  0  0  0  0  0  0  0
  186.2140  177.9050  146.2740 C   0  0  0  0  0  2  0  0  0  0  0  0
  187.7100  178.3220  139.3570 C   0  0  2  0  0  3  0  0  0  0  0  0
  190.6410  177.1710  141.3670 C   0  0  1  0  0  0  0  0  0  0  0  0
  188.8070  177.5390  143.0110 C   0  0  2  0  0  3  0  0  0  0  0  0
  186.7390  177.8030  147.5530 C   0  0  0  0  0  2  0  0  0  0  0  0
  191.1070  177.0020  144.0770 C   0  0  0  0  0  3  0  0  0  0  0  0
  188.1950  177.8210  148.1590 C   0  0  0  0  0  2  0  0  0  0  0  0
  187.0500  177.7140  144.9110 C   0  0  2  0  0  0  0  0  0  0  0  0
  185.3420  177.9190  141.7270 C   0  0  0  0  0  2  0  0  0  0  0  0
  189.4850  177.1510  147.6270 C   0  0  0  0  0  2  0  0  0  0  0  0
  188.3880  177.7590  140.4000 C   0  0  0  0  0  0  0  0  0  0  0  0
  188.3370  178.3150  144.3520 C   0  0  1  0  0  3  0  0  0  0  0  0
  188.3470  179.0160  138.2560 O   0  0  0  0  0  1  0  0  0  0  0  0
  186.3140  178.5080  139.4080 C   0  0  0  0  0  2  0  0  0  0  0  0
  189.7020  177.4060  146.2450 C   0  0  0  0  0  0  0  0  0  0  0  0
  185.3360  178.4500  140.3290 C   0  0  2  0  0  3  0  0  0  0  0  0
  190.1240  177.1960  142.8180 C   0  0  0  0  0  0  0  0  0  0  0  0
  185.0940  179.2620  144.1260 F   0  0  0  0  0  0  0  0  0  0  0  0
  190.9480  177.1180  145.4870 C   0  0  0  0  0  3  0  0  0  0  0  0
  180.1780  178.0090  138.6260 O   0  0  0  0  0  0  0  0  0  0  0  0
  182.3520  178.9490  138.2080 N   0  0  0  0  0  2  0  0  0  0  0  0
  183.7780  180.8580  138.7310 O   0  0  0  0  0  0  0  0  0  0  0  0
  180.8600  179.0640  138.4300 C   0  0  0  0  0  0  0  0  0  0  0  0
  183.4560  179.7300  138.9700 C   0  0  0  0  0  0  0  0  0  0  0  0
  184.1040  179.1360  140.1150 N   0  0  0  0  0  2  0  0  0  0  0  0
  180.0900  180.2840  137.9910 C   0  0  0  0  0  2  0  0  0  0  0  0
  180.8610  181.1400  136.9890 C   0  0  0  0  0  2  0  0  0  0  0  0
  180.2790  180.7980  135.6290 C   0  0  0  0  0  1  0  0  0  0  0  0
  190.3250  177.5760  138.9430 O   0  0  0  0  0  0  0  0  0  0  0  0
  190.2770  176.3860  138.2130 C   0  0  0  0  0  2  0  0  0  0  0  0
  190.5530  176.6860  136.7620 C   0  0  0  0  0  2  0  0  0  0  0  0
  187.9830  176.3330  136.3820 N   0  0  0  0  0  2  0  0  0  0  0  0
  189.3000  176.8060  135.9240 C   0  0  0  0  0  0  0  0  0  0  0  0
  189.4450  177.1560  134.7430 O   0  0  0  0  0  0  0  0  0  0  0  0
  186.3990  177.5220  134.9790 O   0  0  0  0  0  0  0  0  0  0  0  0
  186.7390  176.3330  135.5630 C   0  0  0  0  0  0  0  0  0  0  0  0
  185.7640  177.1530  136.1030 O   0  0  0  0  0  0  0  0  0  0  0  0
  186.1280  175.0850  134.9310 C   0  0  0  0  0  1  0  0  0  0  0  0
  1 25  1  6  0  0  0
  1 15  1  0  0  0  0
  2 36  1  6  0  0  0
  2 18  1  0  0  0  0
  2 10  1  0  0  0  0
  3 16  1  1  0  0  0
  3  1  1  0  0  0  0
  4 22  1  1  0  0  0
  6  3  1  0  0  0  0
  7  5  1  0  0  0  0
  7 10  1  0  0  0  0
  8 12  1  0  0  0  0
  9 20  1  1  0  0  0
  9 21  1  0  0  0  0
  9 18  1  0  0  0  0
 10  5  1  6  0  0  0
 10 24  1  0  0  0  0
 11  6  1  6  0  0  0
 11 19  1  0  0  0  0
 12 14  1  0  0  0  0
 13 26  1  0  0  0  0
 15  4  1  0  0  0  0
 15  8  1  1  0  0  0
 17 14  1  0  0  0  0
 18  6  2  0  0  0  0
 19 15  1  0  0  0  0
 19  4  1  0  0  0  0
 21 23  1  0  0  0  0
 22 17  1  0  0  0  0
 23 16  1  0  0  0  0
 24 11  1  0  0  0  0
 24 13  2  0  0  0  0
 26 22  2  0  0  0  0
 28 30  1  0  0  0  0
 28 31  1  0  0  0  0
 29 31  2  0  0  0  0
 30 27  2  0  0  0  0
 31 32  1  0  0  0  0
 32 23  1  0  0  0  0
 33 30  1  0  0  0  0
 34 33  1  0  0  0  0
 35 34  1  0  0  0  0
 37 36  1  0  0  0  0
 38 37  1  0  0  0  0
 40 39  1  0  0  0  0
 40 38  1  0  0  0  0
 41 40  2  0  0  0  0
 42 43  1  0  0  0  0
 42 44  1  0  0  0  0
 43 44  1  0  0  0  0
 43 39  1  0  0  0  0
 45 43  1  0  0  0  0
M  END
>  <MODEL>
6

>  <REMARK>
 VINA RESULT:      -8.9      2.698      7.711
  Name = 
  8 active torsions:
  status: ('A' for Active; 'I' for Inactive)
    1  A    between atoms: C_2  and  O_5
    2  A    between atoms: O_5  and  C_23
    3  A    between atoms: C_10  and  N_11
    4  A    between atoms: C_12  and  C_27
    5  A    between atoms: C_12  and  C_40
    6  A    between atoms: C_15  and  C_36
    7  A    between atoms: C_23  and  C_36
    8  A    between atoms: C_37  and  N_42
                            x       y       z     vdW  Elec       q    Type
                         _______ _______ _______ _____ _____    ______ ____

>  <TORSDO>
F 8

$$$$
=
 OpenBabel11032420433D

 45 52  0  0  1  0  0  0  0  0999 V2000
  189.3810  176.9630  142.7700 C   0  0  2  0  0  3  0  0  0  0  0  0
  184.8450  179.2110  141.5140 C   0  0  1  0  0  3  0  0  0  0  0  0
  188.4750  177.6660  141.7100 C   0  0  1  0  0  3  0  0  0  0  0  0
  188.1870  177.5120  145.4770 C   0  0  1  0  0  3  0  0  0  0  0  0
  183.5680  179.7940  143.5870 C   0  0  0  0  0  2  0  0  0  0  0  0
  187.1970  178.1500  141.9820 C   0  0  0  0  0  0  0  0  0  0  0  0
  183.2300  178.4690  143.2730 O   0  0  0  0  0  0  0  0  0  0  0  0
  190.6590  177.1060  144.9610 C   0  0  0  0  0  2  0  0  0  0  0  0
  186.1420  178.3420  139.6380 C   0  0  2  0  0  3  0  0  0  0  0  0
  184.5680  178.8920  142.9810 C   0  0  1  0  0  0  0  0  0  0  0  0
  186.9090  178.1840  143.4540 C   0  0  2  0  0  3  0  0  0  0  0  0
  190.7870  176.8800  146.3220 C   0  0  0  0  0  2  0  0  0  0  0  0
  185.4060  178.3850  145.5560 C   0  0  0  0  0  3  0  0  0  0  0  0
  189.7720  176.6770  147.5130 C   0  0  0  0  0  2  0  0  0  0  0  0
  189.3150  177.6000  144.2250 C   0  0  2  0  0  0  0  0  0  0  0  0
  189.3560  178.2200  140.6600 C   0  0  0  0  0  2  0  0  0  0  0  0
  188.4490  177.4210  147.8080 C   0  0  0  0  0  2  0  0  0  0  0  0
  186.0690  178.6170  140.9740 C   0  0  0  0  0  0  0  0  0  0  0  0
  187.8660  177.1190  144.2070 C   0  0  1  0  0  3  0  0  0  0  0  0
  185.0140  177.9190  138.8340 O   0  0  0  0  0  1  0  0  0  0  0  0
  187.3850  178.1860  138.9910 C   0  0  0  0  0  2  0  0  0  0  0  0
  187.6030  177.5040  146.6680 C   0  0  0  0  0  0  0  0  0  0  0  0
  188.6760  178.0450  139.3400 C   0  0  2  0  0  3  0  0  0  0  0  0
  185.6850  178.5290  143.9770 C   0  0  0  0  0  0  0  0  0  0  0  0
  190.5490  176.3420  142.2940 F   0  0  0  0  0  0  0  0  0  0  0  0
  186.1800  177.9340  146.6630 C   0  0  0  0  0  3  0  0  0  0  0  0
  189.3030  175.4400  134.5940 O   0  0  0  0  0  0  0  0  0  0  0  0
  189.4740  175.3080  136.9890 N   0  0  0  0  0  2  0  0  0  0  0  0
  190.9780  175.7550  138.8580 O   0  0  0  0  0  0  0  0  0  0  0  0
  190.0500  175.1990  135.5940 C   0  0  0  0  0  0  0  0  0  0  0  0
  190.0730  176.1240  138.1660 C   0  0  0  0  0  0  0  0  0  0  0  0
  189.6080  177.4650  138.4290 N   0  0  0  0  0  2  0  0  0  0  0  0
  191.2980  174.3990  135.3160 C   0  0  0  0  0  2  0  0  0  0  0  0
  192.5760  175.1810  135.6050 C   0  0  0  0  0  2  0  0  0  0  0  0
  193.6550  174.1340  135.8160 C   0  0  0  0  0  1  0  0  0  0  0  0
  183.7050  179.0960  140.6680 O   0  0  0  0  0  0  0  0  0  0  0  0
  183.3160  177.7800  140.9280 C   0  0  0  0  0  2  0  0  0  0  0  0
  181.9660  177.5330  140.3040 C   0  0  0  0  0  2  0  0  0  0  0  0
  182.2870  176.3750  137.9730 N   0  0  0  0  0  2  0  0  0  0  0  0
  181.9340  176.3190  139.4020 C   0  0  0  0  0  0  0  0  0  0  0  0
  181.4180  175.2900  139.8620 O   0  0  0  0  0  0  0  0  0  0  0  0
  181.8140  175.5560  135.7380 O   0  0  0  0  0  0  0  0  0  0  0  0
  182.1780  175.2390  137.0180 C   0  0  0  0  0  0  0  0  0  0  0  0
  180.8810  175.0630  136.5680 O   0  0  0  0  0  0  0  0  0  0  0  0
  182.8920  173.9000  137.1900 C   0  0  0  0  0  1  0  0  0  0  0  0
  1 25  1  6  0  0  0
  1 15  1  0  0  0  0
  2 36  1  6  0  0  0
  2 10  1  0  0  0  0
  3 16  1  1  0  0  0
  3  6  1  0  0  0  0
  3  1  1  0  0  0  0
  4 22  1  1  0  0  0
  7  5  1  0  0  0  0
  8 12  1  0  0  0  0
  9 20  1  1  0  0  0
  9 18  1  0  0  0  0
 10  7  1  0  0  0  0
 10  5  1  1  0  0  0
 10 24  1  0  0  0  0
 11  6  1  6  0  0  0
 11 24  1  0  0  0  0
 11 19  1  0  0  0  0
 12 14  1  0  0  0  0
 13 26  1  0  0  0  0
 14 17  1  0  0  0  0
 15  8  1  1  0  0  0
 15  4  1  0  0  0  0
 18  2  1  0  0  0  0
 18  6  2  0  0  0  0
 19 15  1  0  0  0  0
 19  4  1  0  0  0  0
 21 23  1  0  0  0  0
 21  9  1  0  0  0  0
 22 17  1  0  0  0  0
 23 16  1  0  0  0  0
 24 13  2  0  0  0  0
 26 22  2  0  0  0  0
 27 30  2  0  0  0  0
 28 31  1  0  0  0  0
 30 28  1  0  0  0  0
 31 32  1  0  0  0  0
 31 29  2  0  0  0  0
 32 23  1  0  0  0  0
 33 30  1  0  0  0  0
 33 34  1  0  0  0  0
 34 35  1  0  0  0  0
 36 37  1  0  0  0  0
 38 37  1  0  0  0  0
 39 40  1  0  0  0  0
 40 41  2  0  0  0  0
 40 38  1  0  0  0  0
 42 44  1  0  0  0  0
 42 43  1  0  0  0  0
 43 45  1  0  0  0  0
 43 39  1  0  0  0  0
 44 43  1  0  0  0  0
M  END
>  <MODEL>
7

>  <REMARK>
 VINA RESULT:      -8.5      2.168      2.963
  Name = 
  8 active torsions:
  status: ('A' for Active; 'I' for Inactive)
    1  A    between atoms: C_2  and  O_5
    2  A    between atoms: O_5  and  C_23
    3  A    between atoms: C_10  and  N_11
    4  A    between atoms: C_12  and  C_27
    5  A    between atoms: C_12  and  C_40
    6  A    between atoms: C_15  and  C_36
    7  A    between atoms: C_23  and  C_36
    8  A    between atoms: C_37  and  N_42
                            x       y       z     vdW  Elec       q    Type
                         _______ _______ _______ _____ _____    ______ ____

>  <TORSDO>
F 8

$$$$
=
 OpenBabel11032420433D

 45 52  0  0  1  0  0  0  0  0999 V2000
  186.6470  178.6000  143.5240 C   0  0  2  0  0  3  0  0  0  0  0  0
  189.4470  177.2790  139.3250 C   0  0  1  0  0  3  0  0  0  0  0  0
  186.7210  178.3190  141.9900 C   0  0  1  0  0  3  0  0  0  0  0  0
  189.1340  177.4520  144.7690 C   0  0  1  0  0  3  0  0  0  0  0  0
  191.6340  176.2820  140.0260 C   0  0  0  0  0  2  0  0  0  0  0  0
  187.8810  177.9150  141.3310 C   0  0  0  0  0  0  0  0  0  0  0  0
  191.8310  177.6700  139.9710 O   0  0  0  0  0  0  0  0  0  0  0  0
  186.8540  177.7220  145.8980 C   0  0  0  0  0  2  0  0  0  0  0  0
  187.3780  178.4920  138.8700 C   0  0  2  0  0  3  0  0  0  0  0  0
  190.5400  177.2070  140.3880 C   0  0  1  0  0  0  0  0  0  0  0  0
  188.9600  177.5050  142.2900 C   0  0  2  0  0  3  0  0  0  0  0  0
  187.5510  177.5470  147.0840 C   0  0  0  0  0  2  0  0  0  0  0  0
  191.3770  176.8890  142.9940 C   0  0  0  0  0  3  0  0  0  0  0  0
  189.0770  177.5190  147.4800 C   0  0  0  0  0  2  0  0  0  0  0  0
  187.4890  177.5960  144.4240 C   0  0  2  0  0  0  0  0  0  0  0  0
  185.3580  177.9870  141.5250 C   0  0  0  0  0  2  0  0  0  0  0  0
  190.2680  176.8650  146.7390 C   0  0  0  0  0  2  0  0  0  0  0  0
  188.1850  177.8680  139.7780 C   0  0  0  0  0  0  0  0  0  0  0  0
  188.6950  178.2130  143.7210 C   0  0  1  0  0  3  0  0  0  0  0  0
  187.8670  179.2370  137.7290 O   0  0  0  0  0  1  0  0  0  0  0  0
  186.0060  178.6890  139.1260 C   0  0  0  0  0  2  0  0  0  0  0  0
  190.2950  177.1910  145.3550 C   0  0  0  0  0  0  0  0  0  0  0  0
  185.1660  178.5920  140.1710 C   0  0  2  0  0  3  0  0  0  0  0  0
  190.2310  177.1600  141.8970 C   0  0  0  0  0  0  0  0  0  0  0  0
  185.4690  179.2030  144.0010 F   0  0  0  0  0  0  0  0  0  0  0  0
  191.4180  176.9320  144.4160 C   0  0  0  0  0  3  0  0  0  0  0  0
  180.6480  179.7710  142.9810 O   0  0  0  0  0  0  0  0  0  0  0  0
  181.5820  178.6480  141.0710 N   0  0  0  0  0  2  0  0  0  0  0  0
  182.2350  178.9870  138.7450 O   0  0  0  0  0  0  0  0  0  0  0  0
  180.6340  179.6330  141.7180 C   0  0  0  0  0  0  0  0  0  0  0  0
  182.5540  178.9470  139.8980 C   0  0  0  0  0  0  0  0  0  0  0  0
  183.9280  179.3000  140.1670 N   0  0  0  0  0  2  0  0  0  0  0  0
  179.3910  180.1130  141.0090 C   0  0  0  0  0  2  0  0  0  0  0  0
  179.6660  181.2770  140.0600 C   0  0  0  0  0  2  0  0  0  0  0  0
  179.1160  180.8430  138.7140 C   0  0  0  0  0  1  0  0  0  0  0  0
  189.8970  177.7430  138.0570 O   0  0  0  0  0  0  0  0  0  0  0  0
  189.2750  176.8260  137.2050 C   0  0  0  0  0  2  0  0  0  0  0  0
  189.9230  175.4760  137.3780 C   0  0  0  0  0  2  0  0  0  0  0  0
  187.5760  174.5040  136.7250 N   0  0  0  0  0  2  0  0  0  0  0  0
  188.9960  174.3210  137.0690 C   0  0  0  0  0  0  0  0  0  0  0  0
  189.4260  173.1800  137.2930 O   0  0  0  0  0  0  0  0  0  0  0  0
  186.8580  172.5540  135.4720 O   0  0  0  0  0  0  0  0  0  0  0  0
  186.5960  173.4040  136.5110 C   0  0  0  0  0  0  0  0  0  0  0  0
  185.9430  173.5220  135.2970 O   0  0  0  0  0  0  0  0  0  0  0  0
  185.6660  172.8610  137.5920 C   0  0  0  0  0  1  0  0  0  0  0  0
  1 25  1  1  0  0  0
  1 15  1  0  0  0  0
  2 36  1  6  0  0  0
  2 18  1  0  0  0  0
  2 10  1  0  0  0  0
  3 16  1  1  0  0  0
  3  1  1  0  0  0  0
  4 22  1  1  0  0  0
  6  3  1  0  0  0  0
  7  5  1  0  0  0  0
  7 10  1  0  0  0  0
  8 12  1  0  0  0  0
  9 20  1  1  0  0  0
  9 21  1  0  0  0  0
  9 18  1  0  0  0  0
 10  5  1  6  0  0  0
 10 24  1  0  0  0  0
 11  6  1  6  0  0  0
 11 19  1  0  0  0  0
 12 14  1  0  0  0  0
 13 26  1  0  0  0  0
 15  4  1  0  0  0  0
 15  8  1  1  0  0  0
 17 14  1  0  0  0  0
 18  6  2  0  0  0  0
 19 15  1  0  0  0  0
 19  4  1  0  0  0  0
 21 23  1  0  0  0  0
 22 17  1  0  0  0  0
 23 16  1  0  0  0  0
 24 11  1  0  0  0  0
 24 13  2  0  0  0  0
 26 22  2  0  0  0  0
 28 30  1  0  0  0  0
 29 31  2  0  0  0  0
 30 27  2  0  0  0  0
 31 32  1  0  0  0  0
 31 28  1  0  0  0  0
 32 23  1  0  0  0  0
 33 30  1  0  0  0  0
 34 33  1  0  0  0  0
 35 34  1  0  0  0  0
 37 38  1  0  0  0  0
 37 36  1  0  0  0  0
 39 40  1  0  0  0  0
 40 41  2  0  0  0  0
 40 38  1  0  0  0  0
 42 43  1  0  0  0  0
 43 39  1  0  0  0  0
 43 45  1  0  0  0  0
 44 42  1  0  0  0  0
 44 43  1  0  0  0  0
M  END
>  <MODEL>
8

>  <REMARK>
 VINA RESULT:      -8.4      2.390      8.210
  Name = 
  8 active torsions:
  status: ('A' for Active; 'I' for Inactive)
    1  A    between atoms: C_2  and  O_5
    2  A    between atoms: O_5  and  C_23
    3  A    between atoms: C_10  and  N_11
    4  A    between atoms: C_12  and  C_27
    5  A    between atoms: C_12  and  C_40
    6  A    between atoms: C_15  and  C_36
    7  A    between atoms: C_23  and  C_36
    8  A    between atoms: C_37  and  N_42
                            x       y       z     vdW  Elec       q    Type
                         _______ _______ _______ _____ _____    ______ ____

>  <TORSDO>
F 8

$$$$
=
 OpenBabel11032420433D

 45 52  0  0  1  0  0  0  0  0999 V2000
  190.7550  177.3130  139.7000 C   0  0  2  0  0  3  0  0  0  0  0  0
  185.8600  177.7880  137.9600 C   0  0  1  0  0  3  0  0  0  0  0  0
  189.2290  177.4540  139.9970 C   0  0  1  0  0  3  0  0  0  0  0  0
  191.0370  176.5000  136.8160 C   0  0  1  0  0  3  0  0  0  0  0  0
  185.7460  177.1850  135.5330 C   0  0  0  0  0  2  0  0  0  0  0  0
  188.2490  177.5120  139.0080 C   0  0  0  0  0  0  0  0  0  0  0  0
  186.0730  178.5480  135.5870 O   0  0  0  0  0  0  0  0  0  0  0  0
  192.6510  175.9360  138.7190 C   0  0  0  0  0  2  0  0  0  0  0  0
  186.2440  178.5590  140.2440 C   0  0  2  0  0  3  0  0  0  0  0  0
  186.5940  177.7060  136.6240 C   0  0  1  0  0  0  0  0  0  0  0  0
  188.7870  177.1360  137.6580 C   0  0  2  0  0  3  0  0  0  0  0  0
  193.5520  175.6340  137.7100 C   0  0  0  0  0  2  0  0  0  0  0  0
  188.7420  176.9440  135.0740 C   0  0  0  0  0  3  0  0  0  0  0  0
  193.5880  175.8630  136.1490 C   0  0  0  0  0  2  0  0  0  0  0  0
  191.1090  176.3390  138.4940 C   0  0  2  0  0  0  0  0  0  0  0  0
  188.9860  176.9420  141.3620 C   0  0  0  0  0  2  0  0  0  0  0  0
  192.4490  175.7150  135.1130 C   0  0  0  0  0  2  0  0  0  0  0  0
  186.7270  177.9320  139.1310 C   0  0  0  0  0  0  0  0  0  0  0  0
  190.3870  177.3770  137.6390 C   0  0  1  0  0  3  0  0  0  0  0  0
  185.3060  179.6620  140.2090 O   0  0  0  0  0  1  0  0  0  0  0  0
  186.8320  178.3590  141.5090 C   0  0  0  0  0  2  0  0  0  0  0  0
  191.2560  176.3780  135.5130 C   0  0  0  0  0  0  0  0  0  0  0  0
  187.9520  177.8070  142.0080 C   0  0  2  0  0  3  0  0  0  0  0  0
  188.0470  177.2090  136.5020 C   0  0  0  0  0  0  0  0  0  0  0  0
  191.6310  177.4830  140.7870 F   0  0  0  0  0  0  0  0  0  0  0  0
  190.0670  176.6340  134.6590 C   0  0  0  0  0  3  0  0  0  0  0  0
  191.5460  176.7550  145.9670 O   0  0  0  0  0  0  0  0  0  0  0  0
  189.2330  176.7530  145.3100 N   0  0  0  0  0  2  0  0  0  0  0  0
  187.2440  178.1610  145.1950 O   0  0  0  0  0  0  0  0  0  0  0  0
  190.3690  177.1600  146.2220 C   0  0  0  0  0  0  0  0  0  0  0  0
  188.2050  177.7060  144.6440 C   0  0  0  0  0  0  0  0  0  0  0  0
  188.4260  178.1840  143.3000 N   0  0  0  0  0  2  0  0  0  0  0  0
  190.1170  177.6300  147.6330 C   0  0  0  0  0  2  0  0  0  0  0  0
  188.8000  177.1090  148.2030 C   0  0  0  0  0  2  0  0  0  0  0  0
  188.0030  178.3440  148.5800 C   0  0  0  0  0  1  0  0  0  0  0  0
  184.7270  178.6500  137.9500 O   0  0  0  0  0  0  0  0  0  0  0  0
  183.6880  177.7180  138.0180 C   0  0  0  0  0  2  0  0  0  0  0  0
  182.4660  178.3840  138.5980 C   0  0  0  0  0  2  0  0  0  0  0  0
  181.5990  179.1110  140.9640 N   0  0  0  0  0  2  0  0  0  0  0  0
  182.3150  178.1690  140.0880 C   0  0  0  0  0  0  0  0  0  0  0  0
  182.9770  177.2510  140.5940 O   0  0  0  0  0  0  0  0  0  0  0  0
  180.3660  178.4270  142.9400 O   0  0  0  0  0  0  0  0  0  0  0  0
  181.5040  179.0030  142.4460 C   0  0  0  0  0  0  0  0  0  0  0  0
  180.4680  179.7660  142.9560 O   0  0  0  0  0  0  0  0  0  0  0  0
  182.7080  179.0030  143.3850 C   0  0  0  0  0  1  0  0  0  0  0  0
  1  3  1  0  0  0  0
  1 25  1  1  0  0  0
  2 36  1  6  0  0  0
  2 18  1  0  0  0  0
  3 16  1  1  0  0  0
  4 22  1  1  0  0  0
  4 19  1  0  0  0  0
  4 15  1  0  0  0  0
  5  7  1  0  0  0  0
  6 18  2  0  0  0  0
  6  3  1  0  0  0  0
  7 10  1  0  0  0  0
  9 20  1  6  0  0  0
  9 21  1  0  0  0  0
 10  5  1  6  0  0  0
 10  2  1  0  0  0  0
 11 24  1  6  0  0  0
 11  6  1  0  0  0  0
 12  8  1  0  0  0  0
 13 24  2  0  0  0  0
 14 12  1  0  0  0  0
 15  8  1  6  0  0  0
 15  1  1  0  0  0  0
 16 23  1  0  0  0  0
 17 22  1  0  0  0  0
 17 14  1  0  0  0  0
 18  9  1  0  0  0  0
 19 11  1  0  0  0  0
 19 15  1  0  0  0  0
 21 23  1  0  0  0  0
 23 32  1  0  0  0  0
 24 10  1  0  0  0  0
 26 13  1  0  0  0  0
 26 22  2  0  0  0  0
 27 30  2  0  0  0  0
 28 30  1  0  0  0  0
 30 33  1  0  0  0  0
 31 29  2  0  0  0  0
 31 28  1  0  0  0  0
 32 31  1  0  0  0  0
 33 34  1  0  0  0  0
 34 35  1  0  0  0  0
 36 37  1  0  0  0  0
 37 38  1  0  0  0  0
 38 40  1  0  0  0  0
 39 43  1  0  0  0  0
 40 41  2  0  0  0  0
 40 39  1  0  0  0  0
 42 44  1  0  0  0  0
 43 42  1  0  0  0  0
 43 44  1  0  0  0  0
 43 45  1  0  0  0  0
M  END
>  <MODEL>
9

>  <REMARK>
 VINA RESULT:      -8.4      2.563      6.974
  Name = 
  8 active torsions:
  status: ('A' for Active; 'I' for Inactive)
    1  A    between atoms: C_2  and  O_5
    2  A    between atoms: O_5  and  C_23
    3  A    between atoms: C_10  and  N_11
    4  A    between atoms: C_12  and  C_27
    5  A    between atoms: C_12  and  C_40
    6  A    between atoms: C_15  and  C_36
    7  A    between atoms: C_23  and  C_36
    8  A    between atoms: C_37  and  N_42
                            x       y       z     vdW  Elec       q    Type
                         _______ _______ _______ _____ _____    ______ ____

>  <TORSDO>
F 8

$$$$
