=
 OpenBabel11032420563D

 47 49  0  0  1  0  0  0  0  0999 V2000
  183.1100  178.6080  142.8310 C   0  0  0  0  0  0  0  0  0  0  0  0
  181.6210  178.4340  140.9050 C   0  0  0  0  0  0  0  0  0  0  0  0
  180.7660  179.2030  143.0480 C   0  0  0  0  0  3  0  0  0  0  0  0
  180.5600  178.8880  141.7060 C   0  0  0  0  0  3  0  0  0  0  0  0
  182.9050  178.2900  141.4720 C   0  0  0  0  0  0  0  0  0  0  0  0
  182.0350  179.0640  143.6080 C   0  0  0  0  0  3  0  0  0  0  0  0
  184.5730  178.2820  144.6630 N   0  0  0  0  0  0  0  0  0  0  0  0
  184.4120  178.4600  143.4120 N   0  0  0  0  0  0  0  0  0  0  0  0
  187.3430  178.0180  147.1680 C   0  0  0  0  0  3  0  0  0  0  0  0
  186.0630  178.1690  146.6290 C   0  0  0  0  0  3  0  0  0  0  0  0
  185.8740  178.1320  145.2380 C   0  0  0  0  0  0  0  0  0  0  0  0
  188.2630  177.7960  144.9350 C   0  0  0  0  0  0  0  0  0  0  0  0
  188.4410  177.8290  146.3220 C   0  0  0  0  0  3  0  0  0  0  0  0
  186.9760  177.9390  144.3960 C   0  0  0  0  0  3  0  0  0  0  0  0
  189.4470  177.5640  144.0530 C   0  0  2  0  0  3  0  0  0  0  0  0
  189.4670  176.2410  143.6070 O   0  0  0  0  0  1  0  0  0  0  0  0
  190.7370  177.8870  144.7990 C   0  0  0  0  0  2  0  0  0  0  0  0
  191.9580  176.5280  146.4090 N   0  0  0  0  0  1  0  0  0  0  0  0
  191.5760  176.6360  145.0110 C   0  0  0  0  0  2  0  0  0  0  0  0
  181.3750  178.1020  139.4570 C   0  0  2  0  0  3  0  0  0  0  0  0
  181.6820  180.4810  138.9510 O   0  0  0  0  0  0  0  0  0  0  0  0
  179.4640  179.6220  138.7740 C   0  0  0  0  0  2  0  0  0  0  0  0
  179.4090  181.0920  138.5410 C   0  0  0  0  0  2  0  0  0  0  0  0
  180.7750  181.5580  138.9940 C   0  0  2  0  0  3  0  0  0  0  0  0
  180.9370  179.3290  138.6360 C   0  0  2  0  0  3  0  0  0  0  0  0
  181.2480  182.6320  138.1310 N   0  0  0  0  0  2  0  0  0  0  0  0
  180.0850  183.2480  137.5080 C   0  0  0  0  0  2  0  0  0  0  0  0
  181.6990  184.6860  136.5060 O   0  0  0  0  0  1  0  0  0  0  0  0
  180.4870  184.4860  136.7820 C   0  0  0  0  0  0  0  0  0  0  0  0
  179.5230  185.4190  136.4070 O   0  0  0  0  0  0  0  0  0  0  0  0
  180.5100  176.3190  137.8320 C   0  0  0  0  0  1  0  0  0  0  0  0
  180.5680  176.8040  139.2730 C   0  0  1  0  0  3  0  0  0  0  0  0
  181.0610  175.7920  140.0990 O   0  0  0  0  0  1  0  0  0  0  0  0
  184.0630  177.8210  140.6400 C   0  0  0  0  0  2  0  0  0  0  0  0
  184.7900  179.0060  140.0200 C   0  0  0  0  0  2  0  0  0  0  0  0
  187.5920  178.5780  139.7230 O   0  0  0  0  0  0  0  0  0  0  0  0
  186.8630  178.3600  138.7180 C   0  0  0  0  0  0  0  0  0  0  0  0
  187.4350  177.8710  137.5060 N   0  0  0  0  0  2  0  0  0  0  0  0
  185.4500  178.5950  138.7870 N   0  0  0  0  0  2  0  0  0  0  0  0
  188.8690  177.6320  137.3700 C   0  0  0  0  0  2  0  0  0  0  0  0
  189.1460  176.2050  136.8970 C   0  0  1  0  0  0  0  0  0  0  0  0
  188.0630  175.3850  137.2130 O   0  0  0  0  0  1  0  0  0  0  0  0
  189.3830  176.1740  135.3960 C   0  0  0  0  0  1  0  0  0  0  0  0
  192.0180  176.2010  137.0070 O   0  0  0  0  0  0  0  0  0  0  0  0
  190.6020  176.0580  139.3730 O   0  0  0  0  0  1  0  0  0  0  0  0
  190.6300  175.5800  137.7490 P   0  0  0  0  0  0  0  0  0  0  0  0
  190.6590  174.0700  137.6710 O   0  0  0  0  0  1  0  0  0  0  0  0
  1  8  1  0  0  0  0
  1  6  1  0  0  0  0
  2  5  1  0  0  0  0
  2  4  2  0  0  0  0
  3  6  2  0  0  0  0
  4  3  1  0  0  0  0
  5  1  2  0  0  0  0
  7 11  1  0  0  0  0
  8  7  2  0  0  0  0
 10  9  1  0  0  0  0
 11 10  2  0  0  0  0
 12 13  1  0  0  0  0
 13  9  2  0  0  0  0
 14 12  2  0  0  0  0
 14 11  1  0  0  0  0
 15 16  1  1  0  0  0
 15 17  1  0  0  0  0
 15 12  1  0  0  0  0
 17 19  1  0  0  0  0
 19 18  1  0  0  0  0
 20 32  1  1  0  0  0
 20  2  1  0  0  0  0
 21 24  1  0  0  0  0
 23 22  1  0  0  0  0
 23 24  1  0  0  0  0
 24 26  1  6  0  0  0
 25 22  1  0  0  0  0
 25 21  1  0  0  0  0
 25 20  1  1  0  0  0
 27 26  1  0  0  0  0
 28 29  1  0  0  0  0
 29 27  1  0  0  0  0
 30 29  2  0  0  0  0
 32 31  1  6  0  0  0
 32 33  1  0  0  0  0
 34  5  1  0  0  0  0
 35 34  1  0  0  0  0
 37 39  1  0  0  0  0
 37 36  2  0  0  0  0
 38 37  1  0  0  0  0
 39 35  1  0  0  0  0
 40 38  1  0  0  0  0
 41 43  1  6  0  0  0
 41 42  1  0  0  0  0
 41 40  1  0  0  0  0
 41 46  1  0  0  0  0
 44 46  2  0  0  0  0
 46 45  1  0  0  0  0
 47 46  1  0  0  0  0
M  END
>  <MODEL>
1

>  <REMARK>
 VINA RESULT:      -8.0      0.000      0.000
  Name = 
  17 active torsions:
  status: ('A' for Active; 'I' for Inactive)
    1  A    between atoms: C_1  and  P_25
    2  A    between atoms: C_1  and  C_39
    3  A    between atoms: N_4  and  C_34
    4  A    between atoms: C_7  and  N_35
    5  A    between atoms: C_10  and  C_24
    6  A    between atoms: C_15  and  C_29
    7  A    between atoms: C_17  and  C_29
    8  A    between atoms: C_17  and  N_42
    9  A    between atoms: C_19  and  C_37
   10  A    between atoms: C_19  and  C_41
   11  A    between atoms: C_21  and  N_33
   12  A    between atoms: C_22  and  C_46
   13  A    between atoms: C_24  and  C_28
   14  A    between atoms: C_24  and  C_32
   15  A    between atoms: C_26  and  C_37
   16  A    between atoms: N_33  and  C_46
   17  A    between atoms: N_36  and  C_39
                            x       y       z     vdW  Elec       q    Type
                         _______ _______ _______ _____ _____    ______ ____

>  <TORSDO>
F 17

$$$$
=
 OpenBabel11032420563D

 47 49  0  0  1  0  0  0  0  0999 V2000
  190.8980  177.3020  141.0420 C   0  0  0  0  0  0  0  0  0  0  0  0
  190.0780  177.1670  138.7470 C   0  0  0  0  0  0  0  0  0  0  0  0
  192.4680  177.2230  139.1920 C   0  0  0  0  0  3  0  0  0  0  0  0
  191.4060  177.1630  138.2900 C   0  0  0  0  0  3  0  0  0  0  0  0
  189.8220  177.2390  140.1330 C   0  0  0  0  0  0  0  0  0  0  0  0
  192.2160  177.2920  140.5610 C   0  0  0  0  0  3  0  0  0  0  0  0
  191.1940  176.5830  143.2780 N   0  0  0  0  0  0  0  0  0  0  0  0
  190.6430  177.3790  142.4500 N   0  0  0  0  0  0  0  0  0  0  0  0
  191.6260  176.3410  146.9890 C   0  0  0  0  0  3  0  0  0  0  0  0
  191.8970  176.2490  145.6220 C   0  0  0  0  0  3  0  0  0  0  0  0
  190.9390  176.6650  144.6820 C   0  0  0  0  0  0  0  0  0  0  0  0
  189.4360  177.2600  146.4990 C   0  0  0  0  0  0  0  0  0  0  0  0
  190.3980  176.8480  147.4270 C   0  0  0  0  0  3  0  0  0  0  0  0
  189.7120  177.1750  145.1260 C   0  0  0  0  0  3  0  0  0  0  0  0
  188.1420  177.8250  146.9910 C   0  0  2  0  0  3  0  0  0  0  0  0
  187.7550  177.1890  148.1720 O   0  0  0  0  0  1  0  0  0  0  0  0
  187.0570  177.6710  145.9310 C   0  0  0  0  0  2  0  0  0  0  0  0
  185.6760  179.4450  146.8660 N   0  0  0  0  0  1  0  0  0  0  0  0
  185.6910  178.0420  146.4860 C   0  0  0  0  0  2  0  0  0  0  0  0
  188.9470  177.1000  137.7560 C   0  0  2  0  0  3  0  0  0  0  0  0
  187.7320  175.2030  136.7880 O   0  0  0  0  0  0  0  0  0  0  0  0
  190.0110  174.8280  137.3860 C   0  0  0  0  0  2  0  0  0  0  0  0
  189.4350  173.5320  136.9330 C   0  0  0  0  0  2  0  0  0  0  0  0
  187.9490  173.8150  136.8990 C   0  0  2  0  0  3  0  0  0  0  0  0
  188.9920  175.8240  136.8950 C   0  0  2  0  0  3  0  0  0  0  0  0
  187.3350  173.1320  135.7690 N   0  0  0  0  0  2  0  0  0  0  0  0
  185.9300  173.5140  135.7280 C   0  0  0  0  0  2  0  0  0  0  0  0
  184.8000  171.4980  136.3090 O   0  0  0  0  0  0  0  0  0  0  0  0
  185.1390  172.6590  136.6590 C   0  0  0  0  0  0  0  0  0  0  0  0
  184.7780  173.1430  137.9140 O   0  0  0  0  0  1  0  0  0  0  0  0
  187.3080  178.5900  136.4660 C   0  0  0  0  0  1  0  0  0  0  0  0
  188.7140  178.4350  137.0270 C   0  0  1  0  0  3  0  0  0  0  0  0
  189.0170  179.5140  137.8600 O   0  0  0  0  0  1  0  0  0  0  0  0
  188.4130  177.2310  140.6550 C   0  0  0  0  0  2  0  0  0  0  0  0
  187.9230  178.6530  140.8900 C   0  0  0  0  0  2  0  0  0  0  0  0
  185.5690  178.3100  142.4610 O   0  0  0  0  0  0  0  0  0  0  0  0
  185.4180  178.6470  141.2550 C   0  0  0  0  0  0  0  0  0  0  0  0
  184.1120  178.8900  140.7340 N   0  0  0  0  0  2  0  0  0  0  0  0
  186.5580  178.7960  140.3990 N   0  0  0  0  0  2  0  0  0  0  0  0
  182.9130  178.7350  141.5520 C   0  0  0  0  0  2  0  0  0  0  0  0
  181.6610  178.6340  140.6800 C   0  0  1  0  0  0  0  0  0  0  0  0
  181.7600  179.5220  139.6080 O   0  0  0  0  0  1  0  0  0  0  0  0
  181.4900  177.2200  140.1490 C   0  0  0  0  0  1  0  0  0  0  0  0
  179.5910  177.6920  142.4350 O   0  0  0  0  0  1  0  0  0  0  0  0
  180.6460  180.2060  142.8640 O   0  0  0  0  0  1  0  0  0  0  0  0
  180.2060  179.0760  141.6830 P   0  0  0  0  0  0  0  0  0  0  0  0
  179.1400  179.6730  140.7910 O   0  0  0  0  0  0  0  0  0  0  0  0
  1  8  1  0  0  0  0
  2  5  1  0  0  0  0
  3  6  2  0  0  0  0
  4  2  2  0  0  0  0
  4  3  1  0  0  0  0
  5 34  1  0  0  0  0
  5  1  2  0  0  0  0
  6  1  1  0  0  0  0
  7 11  1  0  0  0  0
  8  7  2  0  0  0  0
  9 13  1  0  0  0  0
 10  9  2  0  0  0  0
 11 14  2  0  0  0  0
 11 10  1  0  0  0  0
 12 15  1  0  0  0  0
 12 13  2  0  0  0  0
 14 12  1  0  0  0  0
 15 16  1  1  0  0  0
 17 19  1  0  0  0  0
 17 15  1  0  0  0  0
 19 18  1  0  0  0  0
 20 32  1  6  0  0  0
 20  2  1  0  0  0  0
 21 25  1  0  0  0  0
 21 24  1  0  0  0  0
 23 22  1  0  0  0  0
 24 26  1  6  0  0  0
 24 23  1  0  0  0  0
 25 22  1  0  0  0  0
 25 20  1  1  0  0  0
 27 26  1  0  0  0  0
 27 29  1  0  0  0  0
 28 29  2  0  0  0  0
 29 30  1  0  0  0  0
 32 31  1  1  0  0  0
 32 33  1  0  0  0  0
 34 35  1  0  0  0  0
 37 36  2  0  0  0  0
 38 37  1  0  0  0  0
 38 40  1  0  0  0  0
 39 35  1  0  0  0  0
 39 37  1  0  0  0  0
 41 43  1  6  0  0  0
 41 40  1  0  0  0  0
 41 46  1  0  0  0  0
 42 41  1  0  0  0  0
 46 44  1  0  0  0  0
 46 45  1  0  0  0  0
 47 46  2  0  0  0  0
M  END
>  <MODEL>
2

>  <REMARK>
 VINA RESULT:      -7.8      3.436      8.672
  Name = 
  17 active torsions:
  status: ('A' for Active; 'I' for Inactive)
    1  A    between atoms: C_1  and  P_25
    2  A    between atoms: C_1  and  C_39
    3  A    between atoms: N_4  and  C_34
    4  A    between atoms: C_7  and  N_35
    5  A    between atoms: C_10  and  C_24
    6  A    between atoms: C_15  and  C_29
    7  A    between atoms: C_17  and  C_29
    8  A    between atoms: C_17  and  N_42
    9  A    between atoms: C_19  and  C_37
   10  A    between atoms: C_19  and  C_41
   11  A    between atoms: C_21  and  N_33
   12  A    between atoms: C_22  and  C_46
   13  A    between atoms: C_24  and  C_28
   14  A    between atoms: C_24  and  C_32
   15  A    between atoms: C_26  and  C_37
   16  A    between atoms: N_33  and  C_46
   17  A    between atoms: N_36  and  C_39
                            x       y       z     vdW  Elec       q    Type
                         _______ _______ _______ _____ _____    ______ ____

>  <TORSDO>
F 17

$$$$
=
 OpenBabel11032420563D

 47 49  0  0  1  0  0  0  0  0999 V2000
  183.5600  178.6480  143.0950 C   0  0  0  0  0  0  0  0  0  0  0  0
  182.3090  178.5670  141.0010 C   0  0  0  0  0  0  0  0  0  0  0  0
  181.2650  179.4380  143.0180 C   0  0  0  0  0  3  0  0  0  0  0  0
  181.1990  179.1200  141.6620 C   0  0  0  0  0  3  0  0  0  0  0  0
  183.4970  178.3270  141.7230 C   0  0  0  0  0  0  0  0  0  0  0  0
  182.4400  179.2040  143.7310 C   0  0  0  0  0  3  0  0  0  0  0  0
  184.8260  178.5740  145.0940 N   0  0  0  0  0  0  0  0  0  0  0  0
  184.7640  178.4030  143.8330 N   0  0  0  0  0  0  0  0  0  0  0  0
  187.3040  178.3670  147.8920 C   0  0  0  0  0  3  0  0  0  0  0  0
  186.1200  178.6210  147.1970 C   0  0  0  0  0  3  0  0  0  0  0  0
  186.0280  178.3250  145.8260 C   0  0  0  0  0  0  0  0  0  0  0  0
  188.3240  177.5230  145.8600 C   0  0  0  0  0  0  0  0  0  0  0  0
  188.4040  177.8170  147.2250 C   0  0  0  0  0  3  0  0  0  0  0  0
  187.1310  177.7720  145.1640 C   0  0  0  0  0  3  0  0  0  0  0  0
  189.5020  176.9090  145.1750 C   0  0  2  0  0  3  0  0  0  0  0  0
  190.6460  177.0490  145.9620 O   0  0  0  0  0  1  0  0  0  0  0  0
  189.7200  177.5550  143.8110 C   0  0  0  0  0  2  0  0  0  0  0  0
  190.3340  175.4060  142.8440 N   0  0  0  0  0  1  0  0  0  0  0  0
  189.4670  176.5610  142.6880 C   0  0  0  0  0  2  0  0  0  0  0  0
  182.2150  178.2330  139.5360 C   0  0  2  0  0  3  0  0  0  0  0  0
  183.5990  176.9180  137.9990 O   0  0  0  0  0  0  0  0  0  0  0  0
  181.8570  175.7540  139.1390 C   0  0  0  0  0  2  0  0  0  0  0  0
  182.4920  174.8080  138.1800 C   0  0  0  0  0  2  0  0  0  0  0  0
  183.3290  175.7180  137.3090 C   0  0  2  0  0  3  0  0  0  0  0  0
  182.8610  176.8770  139.1980 C   0  0  2  0  0  3  0  0  0  0  0  0
  184.5810  175.0630  136.9580 N   0  0  0  0  0  2  0  0  0  0  0  0
  184.5330  173.7040  137.4800 C   0  0  0  0  0  2  0  0  0  0  0  0
  185.8140  172.4990  135.8720 O   0  0  0  0  0  0  0  0  0  0  0  0
  185.7410  172.9450  137.0470 C   0  0  0  0  0  0  0  0  0  0  0  0
  186.7890  172.7330  137.9390 O   0  0  0  0  0  1  0  0  0  0  0  0
  181.3620  180.0220  137.9120 C   0  0  0  0  0  1  0  0  0  0  0  0
  182.5640  179.4270  138.6290 C   0  0  1  0  0  3  0  0  0  0  0  0
  183.2290  180.4200  139.3520 O   0  0  0  0  0  1  0  0  0  0  0  0
  184.7050  177.7500  141.0430 C   0  0  0  0  0  2  0  0  0  0  0  0
  185.6930  178.8500  140.6850 C   0  0  0  0  0  2  0  0  0  0  0  0
  188.4090  178.3590  139.9710 O   0  0  0  0  0  0  0  0  0  0  0  0
  187.5580  178.3760  139.0400 C   0  0  0  0  0  0  0  0  0  0  0  0
  187.9560  178.1070  137.6970 N   0  0  0  0  0  2  0  0  0  0  0  0
  186.1810  178.6580  139.3250 N   0  0  0  0  0  2  0  0  0  0  0  0
  189.3450  177.8330  137.3420 C   0  0  0  0  0  2  0  0  0  0  0  0
  189.5080  176.4060  136.8180 C   0  0  1  0  0  0  0  0  0  0  0  0
  188.3210  175.6970  137.0030 O   0  0  0  0  0  1  0  0  0  0  0  0
  189.8650  176.4150  135.3410 C   0  0  0  0  0  1  0  0  0  0  0  0
  192.3440  176.1040  137.1730 O   0  0  0  0  0  0  0  0  0  0  0  0
  190.7090  175.9650  139.3930 O   0  0  0  0  0  1  0  0  0  0  0  0
  190.8400  175.5840  137.7500 P   0  0  0  0  0  0  0  0  0  0  0  0
  190.7320  174.0860  137.5720 O   0  0  0  0  0  1  0  0  0  0  0  0
  1  6  1  0  0  0  0
  1  8  1  0  0  0  0
  2  4  2  0  0  0  0
  2  5  1  0  0  0  0
  3  6  2  0  0  0  0
  4  3  1  0  0  0  0
  5  1  2  0  0  0  0
  7 11  1  0  0  0  0
  8  7  2  0  0  0  0
 10  9  2  0  0  0  0
 11 10  1  0  0  0  0
 12 13  2  0  0  0  0
 13  9  1  0  0  0  0
 14 11  2  0  0  0  0
 14 12  1  0  0  0  0
 15 12  1  0  0  0  0
 15 16  1  1  0  0  0
 17 15  1  0  0  0  0
 19 18  1  0  0  0  0
 19 17  1  0  0  0  0
 20 32  1  6  0  0  0
 20  2  1  0  0  0  0
 21 25  1  0  0  0  0
 22 25  1  0  0  0  0
 23 22  1  0  0  0  0
 24 26  1  1  0  0  0
 24 21  1  0  0  0  0
 24 23  1  0  0  0  0
 25 20  1  6  0  0  0
 26 27  1  0  0  0  0
 28 29  2  0  0  0  0
 29 27  1  0  0  0  0
 29 30  1  0  0  0  0
 32 31  1  1  0  0  0
 32 33  1  0  0  0  0
 34  5  1  0  0  0  0
 35 34  1  0  0  0  0
 37 39  1  0  0  0  0
 37 36  2  0  0  0  0
 38 37  1  0  0  0  0
 39 35  1  0  0  0  0
 40 38  1  0  0  0  0
 41 43  1  6  0  0  0
 41 42  1  0  0  0  0
 41 40  1  0  0  0  0
 41 46  1  0  0  0  0
 44 46  2  0  0  0  0
 46 45  1  0  0  0  0
 47 46  1  0  0  0  0
M  END
>  <MODEL>
3

>  <REMARK>
 VINA RESULT:      -7.7      2.219      4.537
  Name = 
  17 active torsions:
  status: ('A' for Active; 'I' for Inactive)
    1  A    between atoms: C_1  and  P_25
    2  A    between atoms: C_1  and  C_39
    3  A    between atoms: N_4  and  C_34
    4  A    between atoms: C_7  and  N_35
    5  A    between atoms: C_10  and  C_24
    6  A    between atoms: C_15  and  C_29
    7  A    between atoms: C_17  and  C_29
    8  A    between atoms: C_17  and  N_42
    9  A    between atoms: C_19  and  C_37
   10  A    between atoms: C_19  and  C_41
   11  A    between atoms: C_21  and  N_33
   12  A    between atoms: C_22  and  C_46
   13  A    between atoms: C_24  and  C_28
   14  A    between atoms: C_24  and  C_32
   15  A    between atoms: C_26  and  C_37
   16  A    between atoms: N_33  and  C_46
   17  A    between atoms: N_36  and  C_39
                            x       y       z     vdW  Elec       q    Type
                         _______ _______ _______ _____ _____    ______ ____

>  <TORSDO>
F 17

$$$$
=
 OpenBabel11032420563D

 47 49  0  0  1  0  0  0  0  0999 V2000
  183.5680  178.8350  143.1710 C   0  0  0  0  0  0  0  0  0  0  0  0
  182.1710  178.4840  141.2010 C   0  0  0  0  0  0  0  0  0  0  0  0
  181.1910  179.3220  143.2620 C   0  0  0  0  0  3  0  0  0  0  0  0
  181.0570  178.9260  141.9320 C   0  0  0  0  0  3  0  0  0  0  0  0
  183.4360  178.4350  141.8250 C   0  0  0  0  0  0  0  0  0  0  0  0
  182.4410  179.2780  143.8780 C   0  0  0  0  0  3  0  0  0  0  0  0
  185.2210  177.7780  144.4950 N   0  0  0  0  0  0  0  0  0  0  0  0
  184.8500  178.7850  143.8100 N   0  0  0  0  0  0  0  0  0  0  0  0
  187.9130  177.9750  147.0890 C   0  0  0  0  0  3  0  0  0  0  0  0
  186.6510  178.0300  146.4920 C   0  0  0  0  0  3  0  0  0  0  0  0
  186.5020  177.7310  145.1280 C   0  0  0  0  0  0  0  0  0  0  0  0
  188.8940  177.3280  144.9680 C   0  0  0  0  0  0  0  0  0  0  0  0
  189.0330  177.6220  146.3290 C   0  0  0  0  0  3  0  0  0  0  0  0
  187.6260  177.3750  144.3720 C   0  0  0  0  0  3  0  0  0  0  0  0
  190.1010  176.9250  144.1820 C   0  0  2  0  0  3  0  0  0  0  0  0
  190.8010  178.0560  143.7580 O   0  0  0  0  0  1  0  0  0  0  0  0
  189.6950  176.0770  142.9820 C   0  0  0  0  0  2  0  0  0  0  0  0
  189.1340  177.1290  140.8590 N   0  0  0  0  0  1  0  0  0  0  0  0
  190.2340  176.6650  141.6880 C   0  0  0  0  0  2  0  0  0  0  0  0
  182.0030  178.0620  139.7650 C   0  0  2  0  0  3  0  0  0  0  0  0
  181.4510  180.4200  139.3860 O   0  0  0  0  0  0  0  0  0  0  0  0
  181.2550  178.9560  137.5130 C   0  0  0  0  0  2  0  0  0  0  0  0
  180.7670  180.3000  137.0990 C   0  0  0  0  0  2  0  0  0  0  0  0
  180.6310  181.0320  138.4160 C   0  0  2  0  0  3  0  0  0  0  0  0
  181.9860  179.2590  138.7960 C   0  0  2  0  0  3  0  0  0  0  0  0
  181.0190  182.4270  138.2570 N   0  0  0  0  0  2  0  0  0  0  0  0
  180.3060  182.9570  137.1020 C   0  0  0  0  0  2  0  0  0  0  0  0
  180.9930  184.2410  135.2160 O   0  0  0  0  0  0  0  0  0  0  0  0
  181.1110  184.0300  136.4510 C   0  0  0  0  0  0  0  0  0  0  0  0
  181.9910  184.7980  137.2100 O   0  0  0  0  0  1  0  0  0  0  0  0
  181.4580  175.5970  139.3210 C   0  0  0  0  0  1  0  0  0  0  0  0
  180.9110  176.9920  139.5830 C   0  0  1  0  0  3  0  0  0  0  0  0
  180.0520  176.9690  140.6840 O   0  0  0  0  0  1  0  0  0  0  0  0
  184.6490  177.9810  141.0660 C   0  0  0  0  0  2  0  0  0  0  0  0
  185.2040  179.1150  140.2170 C   0  0  0  0  0  2  0  0  0  0  0  0
  185.1200  178.0080  137.5910 O   0  0  0  0  0  0  0  0  0  0  0  0
  186.2530  178.1410  138.1290 C   0  0  0  0  0  0  0  0  0  0  0  0
  187.4360  177.7910  137.4120 N   0  0  0  0  0  2  0  0  0  0  0  0
  186.3630  178.6530  139.4640 N   0  0  0  0  0  2  0  0  0  0  0  0
  187.3860  177.2460  136.0580 C   0  0  0  0  0  2  0  0  0  0  0  0
  187.9230  175.8160  136.0210 C   0  0  1  0  0  0  0  0  0  0  0  0
  188.7350  175.6450  134.8990 O   0  0  0  0  0  1  0  0  0  0  0  0
  188.7260  175.5120  137.2750 C   0  0  0  0  0  1  0  0  0  0  0  0
  186.8970  173.3960  134.8580 O   0  0  0  0  0  0  0  0  0  0  0  0
  186.1840  174.0250  137.4500 O   0  0  0  0  0  1  0  0  0  0  0  0
  186.5190  174.6600  135.9170 P   0  0  0  0  0  0  0  0  0  0  0  0
  185.3000  175.3930  135.4000 O   0  0  0  0  0  1  0  0  0  0  0  0
  1  8  1  0  0  0  0
  1  6  1  0  0  0  0
  2  5  1  0  0  0  0
  2  4  2  0  0  0  0
  3  6  2  0  0  0  0
  4  3  1  0  0  0  0
  5  1  2  0  0  0  0
  7 11  1  0  0  0  0
  8  7  2  0  0  0  0
 10  9  1  0  0  0  0
 11 10  2  0  0  0  0
 12 13  1  0  0  0  0
 13  9  2  0  0  0  0
 14 12  2  0  0  0  0
 14 11  1  0  0  0  0
 15 16  1  6  0  0  0
 15 12  1  0  0  0  0
 17 15  1  0  0  0  0
 18 19  1  0  0  0  0
 19 17  1  0  0  0  0
 20 32  1  1  0  0  0
 20  2  1  0  0  0  0
 22 25  1  0  0  0  0
 23 22  1  0  0  0  0
 23 24  1  0  0  0  0
 24 26  1  6  0  0  0
 24 21  1  0  0  0  0
 25 21  1  0  0  0  0
 25 20  1  1  0  0  0
 27 26  1  0  0  0  0
 28 29  2  0  0  0  0
 29 27  1  0  0  0  0
 29 30  1  0  0  0  0
 32 31  1  1  0  0  0
 32 33  1  0  0  0  0
 34  5  1  0  0  0  0
 35 34  1  0  0  0  0
 36 37  2  0  0  0  0
 37 39  1  0  0  0  0
 38 37  1  0  0  0  0
 39 35  1  0  0  0  0
 40 38  1  0  0  0  0
 41 40  1  0  0  0  0
 41 43  1  1  0  0  0
 42 41  1  0  0  0  0
 44 46  2  0  0  0  0
 46 41  1  0  0  0  0
 46 45  1  0  0  0  0
 47 46  1  0  0  0  0
M  END
>  <MODEL>
4

>  <REMARK>
 VINA RESULT:      -7.3      1.942      2.328
  Name = 
  17 active torsions:
  status: ('A' for Active; 'I' for Inactive)
    1  A    between atoms: C_1  and  P_25
    2  A    between atoms: C_1  and  C_39
    3  A    between atoms: N_4  and  C_34
    4  A    between atoms: C_7  and  N_35
    5  A    between atoms: C_10  and  C_24
    6  A    between atoms: C_15  and  C_29
    7  A    between atoms: C_17  and  C_29
    8  A    between atoms: C_17  and  N_42
    9  A    between atoms: C_19  and  C_37
   10  A    between atoms: C_19  and  C_41
   11  A    between atoms: C_21  and  N_33
   12  A    between atoms: C_22  and  C_46
   13  A    between atoms: C_24  and  C_28
   14  A    between atoms: C_24  and  C_32
   15  A    between atoms: C_26  and  C_37
   16  A    between atoms: N_33  and  C_46
   17  A    between atoms: N_36  and  C_39
                            x       y       z     vdW  Elec       q    Type
                         _______ _______ _______ _____ _____    ______ ____

>  <TORSDO>
F 17

$$$$
=
 OpenBabel11032420563D

 47 49  0  0  1  0  0  0  0  0999 V2000
  185.6860  178.2640  145.1960 C   0  0  0  0  0  0  0  0  0  0  0  0
  187.9390  178.1080  146.1210 C   0  0  0  0  0  0  0  0  0  0  0  0
  186.1210  178.9970  147.4700 C   0  0  0  0  0  3  0  0  0  0  0  0
  187.4650  178.6540  147.3250 C   0  0  0  0  0  3  0  0  0  0  0  0
  187.0440  177.9150  145.0480 C   0  0  0  0  0  0  0  0  0  0  0  0
  185.2360  178.8030  146.4110 C   0  0  0  0  0  3  0  0  0  0  0  0
  183.8670  178.9230  143.8330 N   0  0  0  0  0  0  0  0  0  0  0  0
  184.7730  178.0720  144.1080 N   0  0  0  0  0  0  0  0  0  0  0  0
  180.7240  178.8040  141.8020 C   0  0  0  0  0  3  0  0  0  0  0  0
  181.5890  178.9990  142.8810 C   0  0  0  0  0  3  0  0  0  0  0  0
  182.9610  178.7290  142.7440 C   0  0  0  0  0  0  0  0  0  0  0  0
  182.5850  178.0610  140.4360 C   0  0  0  0  0  0  0  0  0  0  0  0
  181.2210  178.3370  140.5800 C   0  0  0  0  0  3  0  0  0  0  0  0
  183.4540  178.2650  141.5180 C   0  0  0  0  0  3  0  0  0  0  0  0
  183.0980  177.5900  139.1130 C   0  0  2  0  0  3  0  0  0  0  0  0
  183.6410  178.6590  138.3970 O   0  0  0  0  0  1  0  0  0  0  0  0
  181.9790  176.9350  138.3110 C   0  0  0  0  0  2  0  0  0  0  0  0
  183.4210  174.9780  138.1670 N   0  0  0  0  0  1  0  0  0  0  0  0
  182.0560  175.4190  138.4010 C   0  0  0  0  0  2  0  0  0  0  0  0
  189.3940  177.7440  145.9880 C   0  0  2  0  0  3  0  0  0  0  0  0
  190.5390  176.7320  144.0710 O   0  0  0  0  0  0  0  0  0  0  0  0
  190.8420  179.0760  144.3890 C   0  0  0  0  0  2  0  0  0  0  0  0
  191.7070  178.6500  143.2540 C   0  0  0  0  0  2  0  0  0  0  0  0
  191.6840  177.1410  143.3590 C   0  0  2  0  0  3  0  0  0  0  0  0
  189.9120  177.9000  144.5470 C   0  0  2  0  0  3  0  0  0  0  0  0
  191.6720  176.5470  142.0290 N   0  0  0  0  0  2  0  0  0  0  0  0
  191.8530  177.6200  141.0610 C   0  0  0  0  0  2  0  0  0  0  0  0
  194.0400  177.1800  140.2230 O   0  0  0  0  0  1  0  0  0  0  0  0
  192.8020  177.1930  139.9940 C   0  0  0  0  0  0  0  0  0  0  0  0
  192.3200  176.8060  138.7460 O   0  0  0  0  0  0  0  0  0  0  0  0
  191.1460  176.4480  147.3370 C   0  0  0  0  0  1  0  0  0  0  0  0
  189.7520  176.4430  146.7290 C   0  0  1  0  0  3  0  0  0  0  0  0
  188.8030  176.1560  147.7130 O   0  0  0  0  0  1  0  0  0  0  0  0
  187.5170  177.3210  143.7520 C   0  0  0  0  0  2  0  0  0  0  0  0
  187.2120  178.2580  142.5920 C   0  0  0  0  0  2  0  0  0  0  0  0
  186.7100  178.7110  139.8230 O   0  0  0  0  0  0  0  0  0  0  0  0
  187.8710  178.3400  140.1490 C   0  0  0  0  0  0  0  0  0  0  0  0
  188.8890  178.2080  139.1590 N   0  0  0  0  0  2  0  0  0  0  0  0
  188.1780  178.0550  141.5200 N   0  0  0  0  0  2  0  0  0  0  0  0
  188.6300  178.4640  137.7450 C   0  0  0  0  0  2  0  0  0  0  0  0
  188.7510  177.1810  136.9230 C   0  0  1  0  0  0  0  0  0  0  0  0
  189.7440  177.3320  135.9550 O   0  0  0  0  0  1  0  0  0  0  0  0
  189.0930  176.0010  137.8170 C   0  0  0  0  0  1  0  0  0  0  0  0
  186.8420  178.0900  134.9750 O   0  0  0  0  0  0  0  0  0  0  0  0
  187.2240  175.3740  135.2870 O   0  0  0  0  0  1  0  0  0  0  0  0
  187.1600  176.8600  136.0930 P   0  0  0  0  0  0  0  0  0  0  0  0
  186.0520  176.8260  137.1220 O   0  0  0  0  0  1  0  0  0  0  0  0
  1  6  1  0  0  0  0
  2  4  2  0  0  0  0
  4  3  1  0  0  0  0
  5  1  2  0  0  0  0
  5  2  1  0  0  0  0
  6  3  2  0  0  0  0
  7  8  2  0  0  0  0
  8  1  1  0  0  0  0
  9 10  1  0  0  0  0
 11 10  2  0  0  0  0
 11  7  1  0  0  0  0
 12 13  1  0  0  0  0
 12 14  2  0  0  0  0
 13  9  2  0  0  0  0
 14 11  1  0  0  0  0
 15 16  1  6  0  0  0
 15 12  1  0  0  0  0
 17 19  1  0  0  0  0
 17 15  1  0  0  0  0
 18 19  1  0  0  0  0
 20  2  1  0  0  0  0
 20 32  1  6  0  0  0
 21 25  1  0  0  0  0
 22 25  1  0  0  0  0
 23 24  1  0  0  0  0
 23 22  1  0  0  0  0
 24 26  1  6  0  0  0
 24 21  1  0  0  0  0
 25 20  1  1  0  0  0
 27 26  1  0  0  0  0
 29 28  1  0  0  0  0
 29 27  1  0  0  0  0
 30 29  2  0  0  0  0
 32 31  1  1  0  0  0
 32 33  1  0  0  0  0
 34  5  1  0  0  0  0
 35 34  1  0  0  0  0
 36 37  2  0  0  0  0
 37 39  1  0  0  0  0
 38 37  1  0  0  0  0
 39 35  1  0  0  0  0
 40 38  1  0  0  0  0
 41 40  1  0  0  0  0
 41 43  1  1  0  0  0
 42 41  1  0  0  0  0
 44 46  2  0  0  0  0
 45 46  1  0  0  0  0
 46 41  1  0  0  0  0
 46 47  1  0  0  0  0
M  END
>  <MODEL>
5

>  <REMARK>
 VINA RESULT:      -7.2      3.018      8.729
  Name = 
  17 active torsions:
  status: ('A' for Active; 'I' for Inactive)
    1  A    between atoms: C_1  and  P_25
    2  A    between atoms: C_1  and  C_39
    3  A    between atoms: N_4  and  C_34
    4  A    between atoms: C_7  and  N_35
    5  A    between atoms: C_10  and  C_24
    6  A    between atoms: C_15  and  C_29
    7  A    between atoms: C_17  and  C_29
    8  A    between atoms: C_17  and  N_42
    9  A    between atoms: C_19  and  C_37
   10  A    between atoms: C_19  and  C_41
   11  A    between atoms: C_21  and  N_33
   12  A    between atoms: C_22  and  C_46
   13  A    between atoms: C_24  and  C_28
   14  A    between atoms: C_24  and  C_32
   15  A    between atoms: C_26  and  C_37
   16  A    between atoms: N_33  and  C_46
   17  A    between atoms: N_36  and  C_39
                            x       y       z     vdW  Elec       q    Type
                         _______ _______ _______ _____ _____    ______ ____

>  <TORSDO>
F 17

$$$$
=
 OpenBabel11032420563D

 47 49  0  0  1  0  0  0  0  0999 V2000
  183.8050  178.7070  143.1350 C   0  0  0  0  0  0  0  0  0  0  0  0
  181.8470  178.6320  141.6800 C   0  0  0  0  0  0  0  0  0  0  0  0
  181.6200  179.3150  144.0030 C   0  0  0  0  0  3  0  0  0  0  0  0
  181.0520  179.0610  142.7560 C   0  0  0  0  0  3  0  0  0  0  0  0
  183.2320  178.4510  141.8720 C   0  0  0  0  0  0  0  0  0  0  0  0
  182.9900  179.1390  144.1920 C   0  0  0  0  0  3  0  0  0  0  0  0
  185.6680  177.8500  144.3170 N   0  0  0  0  0  0  0  0  0  0  0  0
  185.2120  178.5210  143.3360 N   0  0  0  0  0  0  0  0  0  0  0  0
  189.3300  177.4710  143.6380 C   0  0  0  0  0  3  0  0  0  0  0  0
  187.9620  177.6520  143.4240 C   0  0  0  0  0  3  0  0  0  0  0  0
  187.0720  177.6640  144.5110 C   0  0  0  0  0  0  0  0  0  0  0  0
  188.9400  177.3050  146.0260 C   0  0  0  0  0  0  0  0  0  0  0  0
  189.8190  177.3000  144.9370 C   0  0  0  0  0  3  0  0  0  0  0  0
  187.5670  177.4950  145.8100 C   0  0  0  0  0  3  0  0  0  0  0  0
  189.4890  177.1480  147.4070 C   0  0  2  0  0  3  0  0  0  0  0  0
  189.0830  178.2140  148.2130 O   0  0  0  0  0  1  0  0  0  0  0  0
  191.0110  177.0680  147.3690 C   0  0  0  0  0  2  0  0  0  0  0  0
  192.4560  175.2790  146.5690 N   0  0  0  0  0  1  0  0  0  0  0  0
  191.4900  175.6420  147.5920 C   0  0  0  0  0  2  0  0  0  0  0  0
  181.2110  178.3660  140.3420 C   0  0  2  0  0  3  0  0  0  0  0  0
  180.9330  180.6200  139.4200 O   0  0  0  0  0  0  0  0  0  0  0  0
  181.4530  178.8830  137.8710 C   0  0  0  0  0  2  0  0  0  0  0  0
  181.2140  180.1320  137.0980 C   0  0  0  0  0  2  0  0  0  0  0  0
  180.5880  181.0510  138.1230 C   0  0  2  0  0  3  0  0  0  0  0  0
  181.6210  179.4000  139.2770 C   0  0  2  0  0  3  0  0  0  0  0  0
  181.0520  182.4170  137.9220 N   0  0  0  0  0  2  0  0  0  0  0  0
  179.9080  183.2180  137.5070 C   0  0  0  0  0  2  0  0  0  0  0  0
  181.1180  183.3470  135.4580 O   0  0  0  0  0  0  0  0  0  0  0  0
  180.0730  183.6520  136.0900 C   0  0  0  0  0  0  0  0  0  0  0  0
  179.0720  184.3920  135.4660 O   0  0  0  0  0  1  0  0  0  0  0  0
  179.1150  177.4830  139.1600 C   0  0  0  0  0  1  0  0  0  0  0  0
  179.7150  178.0210  140.4510 C   0  0  1  0  0  3  0  0  0  0  0  0
  179.4890  177.1210  141.4940 O   0  0  0  0  0  1  0  0  0  0  0  0
  184.1120  178.0060  140.7390 C   0  0  0  0  0  2  0  0  0  0  0  0
  185.0650  179.1220  140.3330 C   0  0  0  0  0  2  0  0  0  0  0  0
  187.7090  178.3690  139.5790 O   0  0  0  0  0  0  0  0  0  0  0  0
  186.8570  178.4970  138.6580 C   0  0  0  0  0  0  0  0  0  0  0  0
  187.2140  178.2230  137.3040 N   0  0  0  0  0  2  0  0  0  0  0  0
  185.5200  178.9140  138.9640 N   0  0  0  0  0  2  0  0  0  0  0  0
  188.5650  177.8150  136.9290 C   0  0  0  0  0  2  0  0  0  0  0  0
  188.5640  177.0750  135.5910 C   0  0  1  0  0  0  0  0  0  0  0  0
  187.8620  177.8170  134.6420 O   0  0  0  0  0  1  0  0  0  0  0  0
  189.9860  176.8490  135.1030 C   0  0  0  0  0  1  0  0  0  0  0  0
  187.7700  175.0270  137.4430 O   0  0  0  0  0  1  0  0  0  0  0  0
  186.1380  175.5630  135.2820 O   0  0  0  0  0  1  0  0  0  0  0  0
  187.7440  175.4640  135.8090 P   0  0  0  0  0  0  0  0  0  0  0  0
  188.4730  174.4120  135.0020 O   0  0  0  0  0  0  0  0  0  0  0  0
  1  8  1  0  0  0  0
  1  6  1  0  0  0  0
  2  5  1  0  0  0  0
  2  4  2  0  0  0  0
  3  6  2  0  0  0  0
  4  3  1  0  0  0  0
  5  1  2  0  0  0  0
  7 11  1  0  0  0  0
  8  7  2  0  0  0  0
  9 13  1  0  0  0  0
 10  9  2  0  0  0  0
 10 11  1  0  0  0  0
 11 14  2  0  0  0  0
 12 15  1  0  0  0  0
 13 12  2  0  0  0  0
 14 12  1  0  0  0  0
 15 16  1  1  0  0  0
 17 15  1  0  0  0  0
 17 19  1  0  0  0  0
 18 19  1  0  0  0  0
 20 32  1  1  0  0  0
 20  2  1  0  0  0  0
 22 25  1  0  0  0  0
 23 22  1  0  0  0  0
 23 24  1  0  0  0  0
 24 26  1  6  0  0  0
 24 21  1  0  0  0  0
 25 21  1  0  0  0  0
 25 20  1  1  0  0  0
 27 26  1  0  0  0  0
 28 29  2  0  0  0  0
 29 27  1  0  0  0  0
 30 29  1  0  0  0  0
 32 31  1  6  0  0  0
 32 33  1  0  0  0  0
 34  5  1  0  0  0  0
 35 34  1  0  0  0  0
 37 39  1  0  0  0  0
 37 36  2  0  0  0  0
 38 37  1  0  0  0  0
 39 35  1  0  0  0  0
 40 38  1  0  0  0  0
 41 43  1  6  0  0  0
 41 46  1  0  0  0  0
 41 40  1  0  0  0  0
 42 41  1  0  0  0  0
 45 46  1  0  0  0  0
 46 44  1  0  0  0  0
 47 46  2  0  0  0  0
M  END
>  <MODEL>
6

>  <REMARK>
 VINA RESULT:      -6.7      1.691      2.250
  Name = 
  17 active torsions:
  status: ('A' for Active; 'I' for Inactive)
    1  A    between atoms: C_1  and  P_25
    2  A    between atoms: C_1  and  C_39
    3  A    between atoms: N_4  and  C_34
    4  A    between atoms: C_7  and  N_35
    5  A    between atoms: C_10  and  C_24
    6  A    between atoms: C_15  and  C_29
    7  A    between atoms: C_17  and  C_29
    8  A    between atoms: C_17  and  N_42
    9  A    between atoms: C_19  and  C_37
   10  A    between atoms: C_19  and  C_41
   11  A    between atoms: C_21  and  N_33
   12  A    between atoms: C_22  and  C_46
   13  A    between atoms: C_24  and  C_28
   14  A    between atoms: C_24  and  C_32
   15  A    between atoms: C_26  and  C_37
   16  A    between atoms: N_33  and  C_46
   17  A    between atoms: N_36  and  C_39
                            x       y       z     vdW  Elec       q    Type
                         _______ _______ _______ _____ _____    ______ ____

>  <TORSDO>
F 17

$$$$
=
 OpenBabel11032420563D

 47 49  0  0  1  0  0  0  0  0999 V2000
  190.6180  176.8510  139.7580 C   0  0  0  0  0  0  0  0  0  0  0  0
  189.4880  176.6050  137.6090 C   0  0  0  0  0  0  0  0  0  0  0  0
  191.9000  176.3340  137.7610 C   0  0  0  0  0  3  0  0  0  0  0  0
  190.7290  176.3460  137.0040 C   0  0  0  0  0  3  0  0  0  0  0  0
  189.4320  176.8620  138.9950 C   0  0  0  0  0  0  0  0  0  0  0  0
  191.8450  176.5850  139.1310 C   0  0  0  0  0  3  0  0  0  0  0  0
  190.5570  176.1750  142.0250 N   0  0  0  0  0  0  0  0  0  0  0  0
  190.5670  177.1150  141.1660 N   0  0  0  0  0  0  0  0  0  0  0  0
  191.5390  176.4390  145.6280 C   0  0  0  0  0  3  0  0  0  0  0  0
  191.6080  176.1670  144.2600 C   0  0  0  0  0  3  0  0  0  0  0  0
  190.5090  176.4430  143.4290 C   0  0  0  0  0  0  0  0  0  0  0  0
  189.2720  177.2590  145.3570 C   0  0  0  0  0  0  0  0  0  0  0  0
  190.3730  176.9870  146.1760 C   0  0  0  0  0  3  0  0  0  0  0  0
  189.3460  176.9930  143.9820 C   0  0  0  0  0  3  0  0  0  0  0  0
  188.0480  177.8700  145.9600 C   0  0  2  0  0  3  0  0  0  0  0  0
  188.0460  177.6860  147.3430 O   0  0  0  0  0  1  0  0  0  0  0  0
  186.7930  177.2600  145.3460 C   0  0  0  0  0  2  0  0  0  0  0  0
  185.0220  178.6240  146.3110 N   0  0  0  0  0  1  0  0  0  0  0  0
  185.7390  178.3250  145.0830 C   0  0  0  0  0  2  0  0  0  0  0  0
  188.2360  176.6100  136.7720 C   0  0  2  0  0  3  0  0  0  0  0  0
  187.8220  174.2160  137.0940 O   0  0  0  0  0  0  0  0  0  0  0  0
  188.9750  174.8490  135.1050 C   0  0  0  0  0  2  0  0  0  0  0  0
  188.9320  173.3610  135.1580 C   0  0  0  0  0  2  0  0  0  0  0  0
  188.4880  173.0860  136.5780 C   0  0  2  0  0  3  0  0  0  0  0  0
  187.9460  175.2390  136.1350 C   0  0  2  0  0  3  0  0  0  0  0  0
  187.5960  171.9350  136.6090 N   0  0  0  0  0  2  0  0  0  0  0  0
  187.1200  171.7050  135.2510 C   0  0  0  0  0  2  0  0  0  0  0  0
  185.2510  173.0300  134.5940 O   0  0  0  0  0  0  0  0  0  0  0  0
  185.6580  171.9850  135.1670 C   0  0  0  0  0  0  0  0  0  0  0  0
  184.7440  171.0910  135.7180 O   0  0  0  0  0  1  0  0  0  0  0  0
  186.7980  177.9720  135.1440 C   0  0  0  0  0  1  0  0  0  0  0  0
  188.1350  177.8470  135.8610 C   0  0  1  0  0  3  0  0  0  0  0  0
  188.4020  179.0150  136.5800 O   0  0  0  0  0  1  0  0  0  0  0  0
  188.1190  177.1280  139.6740 C   0  0  0  0  0  2  0  0  0  0  0  0
  187.9100  178.6230  139.8650 C   0  0  0  0  0  2  0  0  0  0  0  0
  185.5380  178.9490  138.3190 O   0  0  0  0  0  0  0  0  0  0  0  0
  185.4230  178.9910  139.5740 C   0  0  0  0  0  0  0  0  0  0  0  0
  184.1380  179.1450  140.1740 N   0  0  0  0  0  2  0  0  0  0  0  0
  186.5820  178.8750  140.4090 N   0  0  0  0  0  2  0  0  0  0  0  0
  182.9240  179.2880  139.3760 C   0  0  0  0  0  2  0  0  0  0  0  0
  182.1660  177.9640  139.2850 C   0  0  1  0  0  0  0  0  0  0  0  0
  183.0310  176.9050  139.5620 O   0  0  0  0  0  1  0  0  0  0  0  0
  181.0080  177.9410  140.2700 C   0  0  0  0  0  1  0  0  0  0  0  0
  182.7980  177.5540  136.5120 O   0  0  0  0  0  0  0  0  0  0  0  0
  180.4910  176.4260  137.5240 O   0  0  0  0  0  1  0  0  0  0  0  0
  181.5160  177.7710  137.5940 P   0  0  0  0  0  0  0  0  0  0  0  0
  180.7420  179.0120  137.2060 O   0  0  0  0  0  1  0  0  0  0  0  0
  1  8  1  0  0  0  0
  2  5  1  0  0  0  0
  3  6  2  0  0  0  0
  4  2  2  0  0  0  0
  4  3  1  0  0  0  0
  5 34  1  0  0  0  0
  5  1  2  0  0  0  0
  6  1  1  0  0  0  0
  7 11  1  0  0  0  0
  8  7  2  0  0  0  0
  9 13  1  0  0  0  0
 10  9  2  0  0  0  0
 11 14  2  0  0  0  0
 11 10  1  0  0  0  0
 12 15  1  0  0  0  0
 12 13  2  0  0  0  0
 14 12  1  0  0  0  0
 15 16  1  1  0  0  0
 17 15  1  0  0  0  0
 19 17  1  0  0  0  0
 19 18  1  0  0  0  0
 20 32  1  6  0  0  0
 20  2  1  0  0  0  0
 22 23  1  0  0  0  0
 22 25  1  0  0  0  0
 23 24  1  0  0  0  0
 24 26  1  6  0  0  0
 24 21  1  0  0  0  0
 25 20  1  1  0  0  0
 25 21  1  0  0  0  0
 27 26  1  0  0  0  0
 28 29  2  0  0  0  0
 29 27  1  0  0  0  0
 29 30  1  0  0  0  0
 32 31  1  1  0  0  0
 32 33  1  0  0  0  0
 34 35  1  0  0  0  0
 35 39  1  0  0  0  0
 36 37  2  0  0  0  0
 37 38  1  0  0  0  0
 37 39  1  0  0  0  0
 40 38  1  0  0  0  0
 41 40  1  0  0  0  0
 41 42  1  0  0  0  0
 41 43  1  1  0  0  0
 44 46  2  0  0  0  0
 45 46  1  0  0  0  0
 46 41  1  0  0  0  0
 47 46  1  0  0  0  0
M  END
>  <MODEL>
7

>  <REMARK>
 VINA RESULT:      -6.6      3.263      8.475
  Name = 
  17 active torsions:
  status: ('A' for Active; 'I' for Inactive)
    1  A    between atoms: C_1  and  P_25
    2  A    between atoms: C_1  and  C_39
    3  A    between atoms: N_4  and  C_34
    4  A    between atoms: C_7  and  N_35
    5  A    between atoms: C_10  and  C_24
    6  A    between atoms: C_15  and  C_29
    7  A    between atoms: C_17  and  C_29
    8  A    between atoms: C_17  and  N_42
    9  A    between atoms: C_19  and  C_37
   10  A    between atoms: C_19  and  C_41
   11  A    between atoms: C_21  and  N_33
   12  A    between atoms: C_22  and  C_46
   13  A    between atoms: C_24  and  C_28
   14  A    between atoms: C_24  and  C_32
   15  A    between atoms: C_26  and  C_37
   16  A    between atoms: N_33  and  C_46
   17  A    between atoms: N_36  and  C_39
                            x       y       z     vdW  Elec       q    Type
                         _______ _______ _______ _____ _____    ______ ____

>  <TORSDO>
F 17

$$$$
=
 OpenBabel11032420563D

 47 49  0  0  1  0  0  0  0  0999 V2000
  185.6950  178.3200  145.4980 C   0  0  0  0  0  0  0  0  0  0  0  0
  188.0420  178.0930  146.1290 C   0  0  0  0  0  0  0  0  0  0  0  0
  186.4330  179.0040  147.7080 C   0  0  0  0  0  3  0  0  0  0  0  0
  187.7380  178.6300  147.3900 C   0  0  0  0  0  3  0  0  0  0  0  0
  187.0140  177.9390  145.1750 C   0  0  0  0  0  0  0  0  0  0  0  0
  185.4170  178.8500  146.7670 C   0  0  0  0  0  3  0  0  0  0  0  0
  183.6010  178.8940  144.5550 N   0  0  0  0  0  0  0  0  0  0  0  0
  184.6480  178.1690  144.5310 N   0  0  0  0  0  0  0  0  0  0  0  0
  180.2100  178.5690  143.0030 C   0  0  0  0  0  3  0  0  0  0  0  0
  181.2090  178.7160  143.9680 C   0  0  0  0  0  3  0  0  0  0  0  0
  182.5610  178.7420  143.5870 C   0  0  0  0  0  0  0  0  0  0  0  0
  181.8970  178.4650  141.2640 C   0  0  0  0  0  0  0  0  0  0  0  0
  180.5530  178.4460  141.6530 C   0  0  0  0  0  3  0  0  0  0  0  0
  182.8990  178.6210  142.2330 C   0  0  0  0  0  3  0  0  0  0  0  0
  182.2380  178.3600  139.8120 C   0  0  2  0  0  3  0  0  0  0  0  0
  183.4360  177.6650  139.6460 O   0  0  0  0  0  1  0  0  0  0  0  0
  182.3450  179.7480  139.1900 C   0  0  0  0  0  2  0  0  0  0  0  0
  181.1810  180.4480  137.1690 N   0  0  0  0  0  1  0  0  0  0  0  0
  181.0180  180.1830  138.5880 C   0  0  0  0  0  2  0  0  0  0  0  0
  189.4580  177.6940  145.8080 C   0  0  2  0  0  3  0  0  0  0  0  0
  190.2520  176.6500  143.7370 O   0  0  0  0  0  0  0  0  0  0  0  0
  190.7840  178.9530  144.0530 C   0  0  0  0  0  2  0  0  0  0  0  0
  191.4530  178.4930  142.8040 C   0  0  0  0  0  2  0  0  0  0  0  0
  191.3220  176.9880  142.8840 C   0  0  2  0  0  3  0  0  0  0  0  0
  189.7910  177.8490  144.3130 C   0  0  2  0  0  3  0  0  0  0  0  0
  191.0850  176.4350  141.5580 N   0  0  0  0  0  2  0  0  0  0  0  0
  191.2870  177.5030  140.5880 C   0  0  0  0  0  2  0  0  0  0  0  0
  193.5510  177.4840  139.8450 O   0  0  0  0  0  1  0  0  0  0  0  0
  192.3640  177.1260  139.6280 C   0  0  0  0  0  0  0  0  0  0  0  0
  192.0570  176.3770  138.4950 O   0  0  0  0  0  0  0  0  0  0  0  0
  191.3300  176.3520  146.9330 C   0  0  0  0  0  1  0  0  0  0  0  0
  189.8750  176.3780  146.4900 C   0  0  1  0  0  3  0  0  0  0  0  0
  189.0410  176.0960  147.5750 O   0  0  0  0  0  1  0  0  0  0  0  0
  187.3030  177.3550  143.8220 C   0  0  0  0  0  2  0  0  0  0  0  0
  187.0700  178.3910  142.7320 C   0  0  0  0  0  2  0  0  0  0  0  0
  186.0920  179.0090  140.1270 O   0  0  0  0  0  0  0  0  0  0  0  0
  187.1480  178.3240  140.2030 C   0  0  0  0  0  0  0  0  0  0  0  0
  187.8360  177.9280  139.0170 N   0  0  0  0  0  2  0  0  0  0  0  0
  187.6710  177.9430  141.4820 N   0  0  0  0  0  2  0  0  0  0  0  0
  187.3410  178.2690  137.6860 C   0  0  0  0  0  2  0  0  0  0  0  0
  187.0620  177.0100  136.8640 C   0  0  1  0  0  0  0  0  0  0  0  0
  186.3460  176.0930  137.6340 O   0  0  0  0  0  1  0  0  0  0  0  0
  186.2660  177.3510  135.6150 C   0  0  0  0  0  1  0  0  0  0  0  0
  189.8310  177.4650  136.2450 O   0  0  0  0  0  1  0  0  0  0  0  0
  189.1300  175.1290  137.5380 O   0  0  0  0  0  1  0  0  0  0  0  0
  188.6490  176.2610  136.3760 P   0  0  0  0  0  0  0  0  0  0  0  0
  188.4920  175.5710  135.0390 O   0  0  0  0  0  0  0  0  0  0  0  0
  1  6  1  0  0  0  0
  2  4  2  0  0  0  0
  4  3  1  0  0  0  0
  5  1  2  0  0  0  0
  5  2  1  0  0  0  0
  6  3  2  0  0  0  0
  8  7  2  0  0  0  0
  8  1  1  0  0  0  0
  9 10  1  0  0  0  0
 11 10  2  0  0  0  0
 11  7  1  0  0  0  0
 12 13  1  0  0  0  0
 12 14  2  0  0  0  0
 13  9  2  0  0  0  0
 14 11  1  0  0  0  0
 15 16  1  1  0  0  0
 15 12  1  0  0  0  0
 17 15  1  0  0  0  0
 18 19  1  0  0  0  0
 19 17  1  0  0  0  0
 20  2  1  0  0  0  0
 20 32  1  6  0  0  0
 21 25  1  0  0  0  0
 22 25  1  0  0  0  0
 23 24  1  0  0  0  0
 23 22  1  0  0  0  0
 24 26  1  6  0  0  0
 24 21  1  0  0  0  0
 25 20  1  1  0  0  0
 27 26  1  0  0  0  0
 29 28  1  0  0  0  0
 29 27  1  0  0  0  0
 30 29  2  0  0  0  0
 32 31  1  1  0  0  0
 32 33  1  0  0  0  0
 34  5  1  0  0  0  0
 35 34  1  0  0  0  0
 36 37  2  0  0  0  0
 37 39  1  0  0  0  0
 38 37  1  0  0  0  0
 39 35  1  0  0  0  0
 40 38  1  0  0  0  0
 41 43  1  6  0  0  0
 41 42  1  0  0  0  0
 41 40  1  0  0  0  0
 44 46  1  0  0  0  0
 46 41  1  0  0  0  0
 46 45  1  0  0  0  0
 47 46  2  0  0  0  0
M  END
>  <MODEL>
8

>  <REMARK>
 VINA RESULT:      -6.6      2.643      8.627
  Name = 
  17 active torsions:
  status: ('A' for Active; 'I' for Inactive)
    1  A    between atoms: C_1  and  P_25
    2  A    between atoms: C_1  and  C_39
    3  A    between atoms: N_4  and  C_34
    4  A    between atoms: C_7  and  N_35
    5  A    between atoms: C_10  and  C_24
    6  A    between atoms: C_15  and  C_29
    7  A    between atoms: C_17  and  C_29
    8  A    between atoms: C_17  and  N_42
    9  A    between atoms: C_19  and  C_37
   10  A    between atoms: C_19  and  C_41
   11  A    between atoms: C_21  and  N_33
   12  A    between atoms: C_22  and  C_46
   13  A    between atoms: C_24  and  C_28
   14  A    between atoms: C_24  and  C_32
   15  A    between atoms: C_26  and  C_37
   16  A    between atoms: N_33  and  C_46
   17  A    between atoms: N_36  and  C_39
                            x       y       z     vdW  Elec       q    Type
                         _______ _______ _______ _____ _____    ______ ____

>  <TORSDO>
F 17

$$$$
=
 OpenBabel11032420563D

 47 49  0  0  1  0  0  0  0  0999 V2000
  190.7640  177.2150  140.3180 C   0  0  0  0  0  0  0  0  0  0  0  0
  191.3160  176.2820  138.1320 C   0  0  0  0  0  0  0  0  0  0  0  0
  193.0760  177.1320  139.5810 C   0  0  0  0  0  3  0  0  0  0  0  0
  192.6730  176.5460  138.3810 C   0  0  0  0  0  3  0  0  0  0  0  0
  190.3540  176.6220  139.1060 C   0  0  0  0  0  0  0  0  0  0  0  0
  192.1250  177.4640  140.5450 C   0  0  0  0  0  3  0  0  0  0  0  0
  189.6760  176.9150  142.3990 N   0  0  0  0  0  0  0  0  0  0  0  0
  189.7890  177.5650  141.3100 N   0  0  0  0  0  0  0  0  0  0  0  0
  186.5300  178.1510  144.0070 C   0  0  0  0  0  3  0  0  0  0  0  0
  187.4630  177.8150  143.0240 C   0  0  0  0  0  3  0  0  0  0  0  0
  188.7060  177.2690  143.3870 C   0  0  0  0  0  0  0  0  0  0  0  0
  188.0670  177.4080  145.7290 C   0  0  0  0  0  0  0  0  0  0  0  0
  186.8300  177.9460  145.3580 C   0  0  0  0  0  3  0  0  0  0  0  0
  189.0000  177.0630  144.7410 C   0  0  0  0  0  3  0  0  0  0  0  0
  188.3550  177.1710  147.1770 C   0  0  2  0  0  3  0  0  0  0  0  0
  188.4550  178.3870  147.8560 O   0  0  0  0  0  1  0  0  0  0  0  0
  189.6420  176.3710  147.3390 C   0  0  0  0  0  2  0  0  0  0  0  0
  192.0710  176.5470  147.3820 N   0  0  0  0  0  1  0  0  0  0  0  0
  190.8340  177.2890  147.5610 C   0  0  0  0  0  2  0  0  0  0  0  0
  190.9050  175.6480  136.8300 C   0  0  2  0  0  3  0  0  0  0  0  0
  192.6270  173.9040  136.7510 O   0  0  0  0  0  0  0  0  0  0  0  0
  190.5830  173.4490  135.6090 C   0  0  0  0  0  2  0  0  0  0  0  0
  191.5210  172.3240  135.3400 C   0  0  0  0  0  2  0  0  0  0  0  0
  192.8480  172.8670  135.8230 C   0  0  2  0  0  3  0  0  0  0  0  0
  191.2400  174.1460  136.7730 C   0  0  2  0  0  3  0  0  0  0  0  0
  193.6240  171.8060  136.4500 N   0  0  0  0  0  2  0  0  0  0  0  0
  195.0340  172.1030  136.2400 C   0  0  0  0  0  2  0  0  0  0  0  0
  196.2320  173.8400  137.3480 O   0  0  0  0  0  0  0  0  0  0  0  0
  195.6080  172.7520  137.4540 C   0  0  0  0  0  0  0  0  0  0  0  0
  195.4520  172.1550  138.7030 O   0  0  0  0  0  1  0  0  0  0  0  0
  192.4910  175.9750  134.8420 C   0  0  0  0  0  1  0  0  0  0  0  0
  191.2850  176.5010  135.6060 C   0  0  1  0  0  3  0  0  0  0  0  0
  190.1960  176.6400  134.7420 O   0  0  0  0  0  1  0  0  0  0  0  0
  188.8970  176.3400  138.8770 C   0  0  0  0  0  2  0  0  0  0  0  0
  188.2730  177.4260  138.0120 C   0  0  0  0  0  2  0  0  0  0  0  0
  185.4460  177.6800  137.7500 O   0  0  0  0  0  0  0  0  0  0  0  0
  186.0050  178.3390  138.6680 C   0  0  0  0  0  0  0  0  0  0  0  0
  185.2260  179.1350  139.5600 N   0  0  0  0  0  2  0  0  0  0  0  0
  187.4290  178.2890  138.8280 N   0  0  0  0  0  2  0  0  0  0  0  0
  183.7750  179.2420  139.4340 C   0  0  0  0  0  2  0  0  0  0  0  0
  183.0680  178.2960  140.4040 C   0  0  1  0  0  0  0  0  0  0  0  0
  183.0090  177.0150  139.8560 O   0  0  0  0  0  1  0  0  0  0  0  0
  183.8030  178.2440  141.7330 C   0  0  0  0  0  1  0  0  0  0  0  0
  180.2620  177.6880  140.2770 O   0  0  0  0  0  1  0  0  0  0  0  0
  181.1730  179.3160  142.3120 O   0  0  0  0  0  1  0  0  0  0  0  0
  181.3720  178.8990  140.6840 P   0  0  0  0  0  0  0  0  0  0  0  0
  181.1190  180.1150  139.8200 O   0  0  0  0  0  0  0  0  0  0  0  0
  1  6  1  0  0  0  0
  1  8  1  0  0  0  0
  2  4  2  0  0  0  0
  2  5  1  0  0  0  0
  3  6  2  0  0  0  0
  4  3  1  0  0  0  0
  5  1  2  0  0  0  0
  7 11  1  0  0  0  0
  8  7  2  0  0  0  0
  9 13  1  0  0  0  0
 10 11  1  0  0  0  0
 10  9  2  0  0  0  0
 11 14  2  0  0  0  0
 12 15  1  0  0  0  0
 13 12  2  0  0  0  0
 14 12  1  0  0  0  0
 15 17  1  0  0  0  0
 15 16  1  1  0  0  0
 17 19  1  0  0  0  0
 18 19  1  0  0  0  0
 20 32  1  6  0  0  0
 20  2  1  0  0  0  0
 21 25  1  0  0  0  0
 22 25  1  0  0  0  0
 23 22  1  0  0  0  0
 23 24  1  0  0  0  0
 24 26  1  1  0  0  0
 24 21  1  0  0  0  0
 25 20  1  6  0  0  0
 27 26  1  0  0  0  0
 27 29  1  0  0  0  0
 28 29  2  0  0  0  0
 29 30  1  0  0  0  0
 32 31  1  6  0  0  0
 33 32  1  0  0  0  0
 34  5  1  0  0  0  0
 35 39  1  0  0  0  0
 35 34  1  0  0  0  0
 36 37  2  0  0  0  0
 37 39  1  0  0  0  0
 37 38  1  0  0  0  0
 40 38  1  0  0  0  0
 40 41  1  0  0  0  0
 41 46  1  0  0  0  0
 41 43  1  1  0  0  0
 42 41  1  0  0  0  0
 44 46  1  0  0  0  0
 46 45  1  0  0  0  0
 47 46  2  0  0  0  0
M  END
>  <MODEL>
9

>  <REMARK>
 VINA RESULT:      -6.5      3.687     10.114
  Name = 
  17 active torsions:
  status: ('A' for Active; 'I' for Inactive)
    1  A    between atoms: C_1  and  P_25
    2  A    between atoms: C_1  and  C_39
    3  A    between atoms: N_4  and  C_34
    4  A    between atoms: C_7  and  N_35
    5  A    between atoms: C_10  and  C_24
    6  A    between atoms: C_15  and  C_29
    7  A    between atoms: C_17  and  C_29
    8  A    between atoms: C_17  and  N_42
    9  A    between atoms: C_19  and  C_37
   10  A    between atoms: C_19  and  C_41
   11  A    between atoms: C_21  and  N_33
   12  A    between atoms: C_22  and  C_46
   13  A    between atoms: C_24  and  C_28
   14  A    between atoms: C_24  and  C_32
   15  A    between atoms: C_26  and  C_37
   16  A    between atoms: N_33  and  C_46
   17  A    between atoms: N_36  and  C_39
                            x       y       z     vdW  Elec       q    Type
                         _______ _______ _______ _____ _____    ______ ____

>  <TORSDO>
F 17

$$$$
