=
 OpenBabel11032421153D

 50 54  0  0  1  0  0  0  0  0999 V2000
  182.8690  178.6700  139.4940 N   0  0  0  0  0  0  0  0  0  0  0  0
  183.0210  176.8470  136.1650 C   0  0  0  0  0  2  0  0  0  0  0  0
  182.5440  175.9330  138.5920 C   0  0  0  0  0  2  0  0  0  0  0  0
  183.0800  175.3430  135.8190 C   0  0  2  0  0  3  0  0  0  0  0  0
  183.0050  178.3290  138.1080 C   0  0  0  0  0  3  0  0  0  0  0  0
  182.0450  174.5630  136.5930 C   0  0  0  0  0  3  0  0  0  0  0  0
  181.7890  174.8410  137.8800 C   0  0  0  0  0  3  0  0  0  0  0  0
  182.8160  177.0870  137.6450 C   0  0  0  0  0  0  0  0  0  0  0  0
  184.5000  174.8280  136.0610 C   0  0  0  0  0  2  0  0  0  0  0  0
  185.4580  175.9240  135.9500 N   0  0  0  0  0  2  0  0  0  0  0  0
  186.8190  174.2950  137.2000 C   0  0  0  0  0  2  0  0  0  0  0  0
  188.1400  174.0490  136.4730 C   0  0  2  0  0  3  0  0  0  0  0  0
  187.7530  176.4400  136.5680 C   0  0  2  0  0  3  0  0  0  0  0  0
  186.4620  175.7690  137.0070 C   0  0  1  0  0  3  0  0  0  0  0  0
  188.8620  175.3800  136.6050 C   0  0  0  0  0  2  0  0  0  0  0  0
  188.0360  177.6610  137.3450 N   0  0  0  0  0  0  0  0  0  0  0  0
  189.4680  177.9400  137.3920 C   0  0  0  0  0  1  0  0  0  0  0  0
  187.3870  178.7900  136.6850 C   0  0  0  0  0  1  0  0  0  0  0  0
  187.3080  172.5390  135.0360 C   0  0  0  0  0  1  0  0  0  0  0  0
  187.8920  173.8130  135.1100 O   0  0  0  0  0  0  0  0  0  0  0  0
  183.6210  178.9450  141.8300 C   0  0  0  0  0  2  0  0  0  0  0  0
  184.5680  178.3470  142.8600 C   0  0  0  0  0  2  0  0  0  0  0  0
  186.3550  178.5240  141.1100 C   0  0  0  0  0  0  0  0  0  0  0  0
  183.9060  178.3040  140.4730 C   0  0  2  0  0  3  0  0  0  0  0  0
  185.3280  178.6930  140.0240 C   0  0  0  0  0  2  0  0  0  0  0  0
  186.0010  178.4300  142.4090 C   0  0  0  0  0  3  0  0  0  0  0  0
  189.5630  176.8430  141.4370 C   0  0  0  0  0  3  0  0  0  0  0  0
  187.7700  178.5980  140.7150 C   0  0  0  0  0  3  0  0  0  0  0  0
  188.6620  177.7150  141.0800 C   0  0  0  0  0  0  0  0  0  0  0  0
  190.8370  177.3280  142.0350 C   0  0  0  0  0  2  0  0  0  0  0  0
  190.7950  177.1560  143.5490 C   0  0  0  0  0  2  0  0  0  0  0  0
  191.1860  179.5050  143.8350 O   0  0  0  0  0  0  0  0  0  0  0  0
  189.9060  178.5530  145.5010 N   0  0  0  0  0  2  0  0  0  0  0  0
  190.6110  178.4680  144.2650 C   0  0  0  0  0  0  0  0  0  0  0  0
  185.6020  178.5530  146.8550 C   0  0  0  0  0  1  0  0  0  0  0  0
  189.0340  177.5420  146.0930 C   0  0  1  0  0  0  0  0  0  0  0  0
  188.0470  178.1700  147.0640 C   0  0  1  0  0  3  0  0  0  0  0  0
  188.1550  176.9560  144.9980 C   0  0  0  0  0  2  0  0  0  0  0  0
  186.7270  177.5560  146.6490 C   0  0  2  0  0  3  0  0  0  0  0  0
  186.7930  177.2210  145.2800 O   0  0  0  0  0  0  0  0  0  0  0  0
  188.3110  177.8520  148.5360 C   0  0  0  0  0  1  0  0  0  0  0  0
  189.7930  176.5230  146.6770 O   0  0  0  0  0  1  0  0  0  0  0  0
  179.6210  178.0250  141.1100 C   0  0  0  0  0  3  0  0  0  0  0  0
  178.9330  179.2090  140.8560 C   0  0  0  0  0  2  0  0  0  0  0  0
  181.5210  178.8700  139.9680 C   0  0  2  0  0  3  0  0  0  0  0  0
  180.8940  177.8790  140.6590 N   0  0  0  0  0  0  0  0  0  0  0  0
  180.8300  180.0670  139.7180 C   0  0  0  0  0  0  0  0  0  0  0  0
  179.5490  180.2060  140.1650 N   0  0  0  0  0  0  0  0  0  0  0  0
  181.0500  181.5560  137.7640 C   0  0  0  0  0  1  0  0  0  0  0  0
  181.4610  181.1150  139.0440 O   0  0  0  0  0  0  0  0  0  0  0  0
  2  8  1  0  0  0  0
  4  9  1  1  0  0  0
  4  2  1  0  0  0  0
  4  6  1  0  0  0  0
  5  1  1  0  0  0  0
  6  7  2  0  0  0  0
  7  3  1  0  0  0  0
  8  5  2  0  0  0  0
  8  3  1  0  0  0  0
 10  9  1  0  0  0  0
 12 20  1  6  0  0  0
 12 15  1  0  0  0  0
 12 11  1  0  0  0  0
 13 15  1  0  0  0  0
 13 14  1  0  0  0  0
 13 16  1  1  0  0  0
 14 10  1  6  0  0  0
 14 11  1  0  0  0  0
 16 17  1  0  0  0  0
 18 16  1  0  0  0  0
 19 20  1  0  0  0  0
 21 22  1  0  0  0  0
 23 26  2  0  0  0  0
 24  1  1  6  0  0  0
 24 21  1  0  0  0  0
 25 24  1  0  0  0  0
 25 23  1  0  0  0  0
 26 22  1  0  0  0  0
 27 30  1  0  0  0  0
 28 29  2  0  0  0  0
 28 23  1  0  0  0  0
 29 27  2  0  0  0  0
 30 31  1  0  0  0  0
 31 34  1  0  0  0  0
 32 34  2  0  0  0  0
 33 36  1  0  0  0  0
 34 33  1  0  0  0  0
 36 42  1  1  0  0  0
 36 37  1  0  0  0  0
 37 41  1  1  0  0  0
 38 40  1  0  0  0  0
 38 36  1  0  0  0  0
 39 35  1  6  0  0  0
 39 37  1  0  0  0  0
 40 39  1  0  0  0  0
 44 43  1  0  0  0  0
 45  1  1  6  0  0  0
 45 46  1  0  0  0  0
 46 43  2  0  0  0  0
 47 45  1  0  0  0  0
 47 48  2  0  0  0  0
 48 44  1  0  0  0  0
 49 50  1  0  0  0  0
 50 47  1  0  0  0  0
M  END
>  <MODEL>
1

>  <REMARK>
 VINA RESULT:      -7.8      0.000      0.000
  Name = 
  14 active torsions:
  status: ('A' for Active; 'I' for Inactive)
    1  A    between atoms: N_1  and  C_7
    2  A    between atoms: N_1  and  C_49
    3  A    between atoms: C_4  and  N_33
    4  A    between atoms: C_7  and  C_23
    5  A    between atoms: C_12  and  C_14
    6  A    between atoms: C_12  and  C_43
    7  A    between atoms: C_14  and  C_15
    8  A    between atoms: N_17  and  C_22
    9  A    between atoms: N_17  and  C_24
   10  A    between atoms: N_17  and  C_32
   11  A    between atoms: C_19  and  C_36
   12  A    between atoms: C_27  and  O_44
   13  A    between atoms: N_29  and  C_48
   14  A    between atoms: O_35  and  C_41
                            x       y       z     vdW  Elec       q    Type
                         _______ _______ _______ _____ _____    ______ ____

>  <TORSDO>
F 14

$$$$
=
 OpenBabel11032421153D

 50 54  0  0  1  0  0  0  0  0999 V2000
  182.9100  178.7420  139.5340 N   0  0  0  0  0  0  0  0  0  0  0  0
  183.3540  177.1850  136.0970 C   0  0  0  0  0  2  0  0  0  0  0  0
  183.1060  176.0520  138.4660 C   0  0  0  0  0  2  0  0  0  0  0  0
  183.6980  175.7450  135.6580 C   0  0  2  0  0  3  0  0  0  0  0  0
  183.0850  178.5170  138.1280 C   0  0  0  0  0  3  0  0  0  0  0  0
  182.8480  174.7330  136.3880 C   0  0  0  0  0  3  0  0  0  0  0  0
  182.5660  174.8790  137.6920 C   0  0  0  0  0  3  0  0  0  0  0  0
  183.1330  177.2920  137.5900 C   0  0  0  0  0  0  0  0  0  0  0  0
  185.1950  175.5030  135.8600 C   0  0  0  0  0  2  0  0  0  0  0  0
  185.4590  174.0740  136.0030 N   0  0  0  0  0  2  0  0  0  0  0  0
  187.6210  174.8670  135.1270 C   0  0  0  0  0  2  0  0  0  0  0  0
  188.7450  174.4920  136.0890 C   0  0  2  0  0  3  0  0  0  0  0  0
  187.3360  172.5470  135.7640 C   0  0  2  0  0  3  0  0  0  0  0  0
  186.6020  173.7280  135.1520 C   0  0  1  0  0  3  0  0  0  0  0  0
  188.7910  172.9760  135.9950 C   0  0  0  0  0  2  0  0  0  0  0  0
  187.1710  171.3160  134.9670 N   0  0  0  0  0  0  0  0  0  0  0  0
  188.0920  170.2720  135.4050 C   0  0  0  0  0  1  0  0  0  0  0  0
  185.8130  170.8190  135.1610 C   0  0  0  0  0  1  0  0  0  0  0  0
  188.4080  176.2450  137.4480 C   0  0  0  0  0  1  0  0  0  0  0  0
  188.3820  174.8430  137.4010 O   0  0  0  0  0  0  0  0  0  0  0  0
  183.6430  178.9230  141.8840 C   0  0  0  0  0  2  0  0  0  0  0  0
  184.5910  178.2920  142.8940 C   0  0  0  0  0  2  0  0  0  0  0  0
  186.3870  178.5710  141.1650 C   0  0  0  0  0  0  0  0  0  0  0  0
  183.9450  178.3470  140.5020 C   0  0  2  0  0  3  0  0  0  0  0  0
  185.3640  178.7740  140.0810 C   0  0  0  0  0  2  0  0  0  0  0  0
  186.0260  178.4140  142.4560 C   0  0  0  0  0  3  0  0  0  0  0  0
  189.6130  176.9140  141.4300 C   0  0  0  0  0  3  0  0  0  0  0  0
  187.8040  178.6810  140.7840 C   0  0  0  0  0  3  0  0  0  0  0  0
  188.7030  177.7910  141.1100 C   0  0  0  0  0  0  0  0  0  0  0  0
  190.8780  177.3840  142.0600 C   0  0  0  0  0  2  0  0  0  0  0  0
  190.8230  177.1490  143.5650 C   0  0  0  0  0  2  0  0  0  0  0  0
  191.3900  179.4520  143.9200 O   0  0  0  0  0  0  0  0  0  0  0  0
  190.1270  178.5210  145.6110 N   0  0  0  0  0  2  0  0  0  0  0  0
  190.7650  178.4400  144.3390 C   0  0  0  0  0  0  0  0  0  0  0  0
  185.7710  178.6360  146.7800 C   0  0  0  0  0  1  0  0  0  0  0  0
  189.2160  177.5480  146.2070 C   0  0  1  0  0  0  0  0  0  0  0  0
  188.1990  178.2300  147.1090 C   0  0  1  0  0  3  0  0  0  0  0  0
  188.3750  176.9280  145.1010 C   0  0  0  0  0  2  0  0  0  0  0  0
  186.8880  177.6160  146.6640 C   0  0  2  0  0  3  0  0  0  0  0  0
  187.0060  177.2230  145.3130 O   0  0  0  0  0  0  0  0  0  0  0  0
  188.3960  177.9700  148.6020 C   0  0  0  0  0  1  0  0  0  0  0  0
  189.9340  176.5440  146.8640 O   0  0  0  0  0  1  0  0  0  0  0  0
  179.6720  177.8330  141.0410 C   0  0  0  0  0  3  0  0  0  0  0  0
  178.9310  178.9970  140.8520 C   0  0  0  0  0  2  0  0  0  0  0  0
  181.5460  178.8440  139.9940 C   0  0  2  0  0  3  0  0  0  0  0  0
  180.9580  177.7800  140.6060 N   0  0  0  0  0  0  0  0  0  0  0  0
  180.8000  180.0210  139.8090 C   0  0  0  0  0  0  0  0  0  0  0  0
  179.5070  180.0660  140.2400 N   0  0  0  0  0  0  0  0  0  0  0  0
  181.0090  181.6170  137.9410 C   0  0  0  0  0  1  0  0  0  0  0  0
  181.3890  181.1400  139.2180 O   0  0  0  0  0  0  0  0  0  0  0  0
  2  8  1  0  0  0  0
  4  9  1  1  0  0  0
  4  2  1  0  0  0  0
  4  6  1  0  0  0  0
  5  1  1  0  0  0  0
  6  7  2  0  0  0  0
  7  3  1  0  0  0  0
  8  5  2  0  0  0  0
  8  3  1  0  0  0  0
  9 10  1  0  0  0  0
 11 14  1  0  0  0  0
 11 12  1  0  0  0  0
 12 20  1  1  0  0  0
 13 16  1  6  0  0  0
 13 15  1  0  0  0  0
 14 13  1  0  0  0  0
 14 10  1  1  0  0  0
 15 12  1  0  0  0  0
 16 18  1  0  0  0  0
 16 17  1  0  0  0  0
 20 19  1  0  0  0  0
 21 22  1  0  0  0  0
 23 26  2  0  0  0  0
 24  1  1  6  0  0  0
 24 21  1  0  0  0  0
 25 24  1  0  0  0  0
 25 23  1  0  0  0  0
 26 22  1  0  0  0  0
 27 30  1  0  0  0  0
 28 29  2  0  0  0  0
 28 23  1  0  0  0  0
 29 27  2  0  0  0  0
 30 31  1  0  0  0  0
 31 34  1  0  0  0  0
 32 34  2  0  0  0  0
 33 36  1  0  0  0  0
 34 33  1  0  0  0  0
 36 42  1  1  0  0  0
 36 37  1  0  0  0  0
 37 41  1  1  0  0  0
 38 40  1  0  0  0  0
 38 36  1  0  0  0  0
 39 35  1  6  0  0  0
 39 37  1  0  0  0  0
 40 39  1  0  0  0  0
 44 43  1  0  0  0  0
 45  1  1  6  0  0  0
 45 46  1  0  0  0  0
 46 43  2  0  0  0  0
 47 45  1  0  0  0  0
 47 48  2  0  0  0  0
 48 44  1  0  0  0  0
 49 50  1  0  0  0  0
 50 47  1  0  0  0  0
M  END
>  <MODEL>
2

>  <REMARK>
 VINA RESULT:      -7.2      1.092      2.238
  Name = 
  14 active torsions:
  status: ('A' for Active; 'I' for Inactive)
    1  A    between atoms: N_1  and  C_7
    2  A    between atoms: N_1  and  C_49
    3  A    between atoms: C_4  and  N_33
    4  A    between atoms: C_7  and  C_23
    5  A    between atoms: C_12  and  C_14
    6  A    between atoms: C_12  and  C_43
    7  A    between atoms: C_14  and  C_15
    8  A    between atoms: N_17  and  C_22
    9  A    between atoms: N_17  and  C_24
   10  A    between atoms: N_17  and  C_32
   11  A    between atoms: C_19  and  C_36
   12  A    between atoms: C_27  and  O_44
   13  A    between atoms: N_29  and  C_48
   14  A    between atoms: O_35  and  C_41
                            x       y       z     vdW  Elec       q    Type
                         _______ _______ _______ _____ _____    ______ ____

>  <TORSDO>
F 14

$$$$
=
 OpenBabel11032421153D

 50 54  0  0  1  0  0  0  0  0999 V2000
  180.9480  177.3350  139.6320 N   0  0  0  0  0  0  0  0  0  0  0  0
  183.6730  177.8300  137.0320 C   0  0  0  0  0  2  0  0  0  0  0  0
  183.2060  175.8020  138.6520 C   0  0  0  0  0  2  0  0  0  0  0  0
  184.9830  177.0590  136.7570 C   0  0  2  0  0  3  0  0  0  0  0  0
  181.8020  177.8550  138.6030 C   0  0  0  0  0  3  0  0  0  0  0  0
  184.7430  175.5680  136.7270 C   0  0  0  0  0  3  0  0  0  0  0  0
  183.9120  174.9840  137.6030 C   0  0  0  0  0  3  0  0  0  0  0  0
  182.8250  177.1600  138.0910 C   0  0  0  0  0  0  0  0  0  0  0  0
  186.0300  177.4620  137.7960 C   0  0  0  0  0  2  0  0  0  0  0  0
  186.8010  178.6050  137.3170 N   0  0  0  0  0  2  0  0  0  0  0  0
  189.0600  178.9480  138.2370 C   0  0  0  0  0  2  0  0  0  0  0  0
  189.3000  177.9940  139.4060 C   0  0  2  0  0  3  0  0  0  0  0  0
  188.3310  176.7330  137.5770 C   0  0  2  0  0  3  0  0  0  0  0  0
  188.2060  178.2030  137.2110 C   0  0  1  0  0  3  0  0  0  0  0  0
  189.3260  176.6290  138.7400 C   0  0  0  0  0  2  0  0  0  0  0  0
  188.6540  175.8950  136.4070 N   0  0  0  0  0  0  0  0  0  0  0  0
  190.0760  175.9610  136.0820 C   0  0  0  0  0  1  0  0  0  0  0  0
  188.3380  174.5070  136.7310 C   0  0  0  0  0  1  0  0  0  0  0  0
  188.6560  178.6910  141.4400 C   0  0  0  0  0  1  0  0  0  0  0  0
  188.2030  178.0370  140.2830 O   0  0  0  0  0  0  0  0  0  0  0  0
  180.0670  178.5470  141.5940 C   0  0  0  0  0  2  0  0  0  0  0  0
  180.2180  178.6470  143.1060 C   0  0  0  0  0  2  0  0  0  0  0  0
  182.6830  178.8710  142.7010 C   0  0  0  0  0  0  0  0  0  0  0  0
  181.1820  177.6570  141.0490 C   0  0  2  0  0  3  0  0  0  0  0  0
  182.5380  178.3440  141.2990 C   0  0  0  0  0  2  0  0  0  0  0  0
  181.6090  179.0650  143.4960 C   0  0  0  0  0  3  0  0  0  0  0  0
  185.4780  177.9600  144.8410 C   0  0  0  0  0  3  0  0  0  0  0  0
  184.0260  179.2910  143.1280 C   0  0  0  0  0  3  0  0  0  0  0  0
  184.7470  178.6190  143.9850 C   0  0  0  0  0  0  0  0  0  0  0  0
  186.0770  178.6930  145.9900 C   0  0  0  0  0  2  0  0  0  0  0  0
  186.6990  177.7010  146.9670 C   0  0  0  0  0  2  0  0  0  0  0  0
  187.3730  179.1920  148.7210 O   0  0  0  0  0  0  0  0  0  0  0  0
  189.1260  178.1340  147.6570 N   0  0  0  0  0  2  0  0  0  0  0  0
  187.7300  178.3480  147.8540 C   0  0  0  0  0  0  0  0  0  0  0  0
  191.7230  178.2090  143.9690 C   0  0  0  0  0  1  0  0  0  0  0  0
  189.7550  177.0970  146.8450 C   0  0  1  0  0  0  0  0  0  0  0  0
  189.8060  177.5020  145.3800 C   0  0  1  0  0  3  0  0  0  0  0  0
  191.2180  176.9830  147.2490 C   0  0  0  0  0  2  0  0  0  0  0  0
  191.2390  177.2030  144.9950 C   0  0  2  0  0  3  0  0  0  0  0  0
  192.0480  177.3030  146.1480 O   0  0  0  0  0  0  0  0  0  0  0  0
  188.8640  176.7160  144.4680 C   0  0  0  0  0  1  0  0  0  0  0  0
  189.1200  175.8670  147.0430 O   0  0  0  0  0  1  0  0  0  0  0  0
  179.5590  173.9370  139.9540 C   0  0  0  0  0  3  0  0  0  0  0  0
  178.9310  173.7660  138.7230 C   0  0  0  0  0  2  0  0  0  0  0  0
  180.2420  176.1180  139.3150 C   0  0  2  0  0  3  0  0  0  0  0  0
  180.2030  175.1030  140.2210 N   0  0  0  0  0  0  0  0  0  0  0  0
  179.6010  175.9480  138.0750 C   0  0  0  0  0  0  0  0  0  0  0  0
  178.9640  174.7720  137.8080 N   0  0  0  0  0  0  0  0  0  0  0  0
  179.7270  176.7610  135.7500 C   0  0  0  0  0  1  0  0  0  0  0  0
  179.5940  176.9850  137.1410 O   0  0  0  0  0  0  0  0  0  0  0  0
  2  8  1  0  0  0  0
  4  2  1  0  0  0  0
  4  9  1  1  0  0  0
  5  1  1  0  0  0  0
  6  4  1  0  0  0  0
  6  7  2  0  0  0  0
  7  3  1  0  0  0  0
  8  5  2  0  0  0  0
  8  3  1  0  0  0  0
 10  9  1  0  0  0  0
 11 12  1  0  0  0  0
 12 20  1  1  0  0  0
 13 16  1  6  0  0  0
 13 15  1  0  0  0  0
 14 10  1  1  0  0  0
 14 13  1  0  0  0  0
 14 11  1  0  0  0  0
 15 12  1  0  0  0  0
 16 18  1  0  0  0  0
 17 16  1  0  0  0  0
 20 19  1  0  0  0  0
 21 22  1  0  0  0  0
 22 26  1  0  0  0  0
 23 28  1  0  0  0  0
 23 26  2  0  0  0  0
 24  1  1  6  0  0  0
 24 25  1  0  0  0  0
 24 21  1  0  0  0  0
 25 23  1  0  0  0  0
 27 30  1  0  0  0  0
 28 29  2  0  0  0  0
 29 27  2  0  0  0  0
 30 31  1  0  0  0  0
 31 34  1  0  0  0  0
 33 34  1  0  0  0  0
 34 32  2  0  0  0  0
 36 42  1  1  0  0  0
 36 38  1  0  0  0  0
 36 33  1  0  0  0  0
 37 41  1  6  0  0  0
 37 36  1  0  0  0  0
 39 35  1  6  0  0  0
 39 37  1  0  0  0  0
 39 40  1  0  0  0  0
 40 38  1  0  0  0  0
 43 46  2  0  0  0  0
 44 43  1  0  0  0  0
 45  1  1  6  0  0  0
 45 46  1  0  0  0  0
 47 45  1  0  0  0  0
 48 47  2  0  0  0  0
 48 44  1  0  0  0  0
 49 50  1  0  0  0  0
 50 47  1  0  0  0  0
M  END
>  <MODEL>
3

>  <REMARK>
 VINA RESULT:      -7.0      2.157      4.225
  Name = 
  14 active torsions:
  status: ('A' for Active; 'I' for Inactive)
    1  A    between atoms: N_1  and  C_7
    2  A    between atoms: N_1  and  C_49
    3  A    between atoms: C_4  and  N_33
    4  A    between atoms: C_7  and  C_23
    5  A    between atoms: C_12  and  C_14
    6  A    between atoms: C_12  and  C_43
    7  A    between atoms: C_14  and  C_15
    8  A    between atoms: N_17  and  C_22
    9  A    between atoms: N_17  and  C_24
   10  A    between atoms: N_17  and  C_32
   11  A    between atoms: C_19  and  C_36
   12  A    between atoms: C_27  and  O_44
   13  A    between atoms: N_29  and  C_48
   14  A    between atoms: O_35  and  C_41
                            x       y       z     vdW  Elec       q    Type
                         _______ _______ _______ _____ _____    ______ ____

>  <TORSDO>
F 14

$$$$
=
 OpenBabel11032421153D

 50 54  0  0  1  0  0  0  0  0999 V2000
  190.6120  176.3500  137.8640 N   0  0  0  0  0  0  0  0  0  0  0  0
  189.6120  176.3480  141.5290 C   0  0  0  0  0  2  0  0  0  0  0  0
  189.4300  178.2490  139.7110 C   0  0  0  0  0  2  0  0  0  0  0  0
  189.2190  177.4930  142.4880 C   0  0  2  0  0  3  0  0  0  0  0  0
  190.3690  175.9950  139.2330 C   0  0  0  0  0  3  0  0  0  0  0  0
  188.2030  178.4120  141.8530 C   0  0  0  0  0  3  0  0  0  0  0  0
  188.2960  178.7580  140.5600 C   0  0  0  0  0  3  0  0  0  0  0  0
  189.7830  176.8260  140.1030 C   0  0  0  0  0  0  0  0  0  0  0  0
  190.4830  178.2340  142.9280 C   0  0  0  0  0  2  0  0  0  0  0  0
  190.5020  178.3760  144.3810 N   0  0  0  0  0  2  0  0  0  0  0  0
  190.3500  176.1500  145.4260 C   0  0  0  0  0  2  0  0  0  0  0  0
  190.5160  176.2700  146.9390 C   0  0  2  0  0  3  0  0  0  0  0  0
  188.9480  177.9660  146.2060 C   0  0  2  0  0  3  0  0  0  0  0  0
  189.5840  177.3870  144.9540 C   0  0  1  0  0  3  0  0  0  0  0  0
  189.2630  177.0160  147.3680 C   0  0  0  0  0  2  0  0  0  0  0  0
  187.5150  178.2600  146.0160 N   0  0  0  0  0  0  0  0  0  0  0  0
  186.8720  177.2490  145.1820 C   0  0  0  0  0  1  0  0  0  0  0  0
  186.8610  178.2390  147.3210 C   0  0  0  0  0  1  0  0  0  0  0  0
  192.4940  176.2790  148.0000 C   0  0  0  0  0  1  0  0  0  0  0  0
  191.6310  177.0750  147.2300 O   0  0  0  0  0  0  0  0  0  0  0  0
  189.0700  177.9870  136.8450 C   0  0  0  0  0  2  0  0  0  0  0  0
  188.1010  178.1560  135.6830 C   0  0  0  0  0  2  0  0  0  0  0  0
  187.0670  175.9930  136.4180 C   0  0  0  0  0  0  0  0  0  0  0  0
  189.5010  176.5230  136.9140 C   0  0  2  0  0  3  0  0  0  0  0  0
  188.2740  175.6550  137.2500 C   0  0  0  0  0  2  0  0  0  0  0  0
  186.9720  177.1660  135.7570 C   0  0  0  0  0  3  0  0  0  0  0  0
  183.4440  175.8020  136.6510 C   0  0  0  0  0  3  0  0  0  0  0  0
  185.9370  175.0530  136.4590 C   0  0  0  0  0  3  0  0  0  0  0  0
  184.6910  175.4360  136.5540 C   0  0  0  0  0  0  0  0  0  0  0  0
  182.5870  175.1720  137.6930 C   0  0  0  0  0  2  0  0  0  0  0  0
  182.8210  175.8550  139.0360 C   0  0  0  0  0  2  0  0  0  0  0  0
  180.6960  175.1170  139.8690 O   0  0  0  0  0  0  0  0  0  0  0  0
  181.1860  177.3190  140.3540 N   0  0  0  0  0  2  0  0  0  0  0  0
  181.5400  176.0520  139.8030 C   0  0  0  0  0  0  0  0  0  0  0  0
  185.2360  178.4690  138.7340 C   0  0  0  0  0  1  0  0  0  0  0  0
  182.0570  178.4750  140.5420 C   0  0  1  0  0  0  0  0  0  0  0  0
  183.5230  178.0730  140.4870 C   0  0  1  0  0  3  0  0  0  0  0  0
  181.8840  179.4120  139.3560 C   0  0  0  0  0  2  0  0  0  0  0  0
  184.1190  179.0970  139.5440 C   0  0  2  0  0  3  0  0  0  0  0  0
  183.1110  179.5410  138.6600 O   0  0  0  0  0  0  0  0  0  0  0  0
  184.2520  178.1390  141.8280 C   0  0  0  0  0  1  0  0  0  0  0  0
  181.7260  179.1500  141.7210 O   0  0  0  0  0  1  0  0  0  0  0  0
  193.2190  174.7690  135.7940 C   0  0  0  0  0  3  0  0  0  0  0  0
  194.3830  175.2980  136.3460 C   0  0  0  0  0  2  0  0  0  0  0  0
  191.9120  176.0050  137.3420 C   0  0  2  0  0  3  0  0  0  0  0  0
  192.0120  175.1300  136.3040 N   0  0  0  0  0  0  0  0  0  0  0  0
  193.0870  176.5430  137.8940 C   0  0  0  0  0  0  0  0  0  0  0  0
  194.2960  176.1720  137.3840 N   0  0  0  0  0  0  0  0  0  0  0  0
  193.5550  177.2240  140.2180 C   0  0  0  0  0  1  0  0  0  0  0  0
  193.0120  177.4710  138.9350 O   0  0  0  0  0  0  0  0  0  0  0  0
  1  5  1  0  0  0  0
  2  4  1  0  0  0  0
  3  8  1  0  0  0  0
  3  7  1  0  0  0  0
  4  9  1  6  0  0  0
  5  8  2  0  0  0  0
  6  4  1  0  0  0  0
  7  6  2  0  0  0  0
  8  2  1  0  0  0  0
  9 10  1  0  0  0  0
 11 12  1  0  0  0  0
 12 20  1  6  0  0  0
 12 15  1  0  0  0  0
 13 16  1  6  0  0  0
 13 15  1  0  0  0  0
 14 10  1  1  0  0  0
 14 11  1  0  0  0  0
 14 13  1  0  0  0  0
 16 18  1  0  0  0  0
 17 16  1  0  0  0  0
 20 19  1  0  0  0  0
 21 24  1  0  0  0  0
 22 26  1  0  0  0  0
 22 21  1  0  0  0  0
 23 28  1  0  0  0  0
 23 25  1  0  0  0  0
 24 25  1  0  0  0  0
 24  1  1  1  0  0  0
 26 23  2  0  0  0  0
 27 30  1  0  0  0  0
 28 29  2  0  0  0  0
 29 27  2  0  0  0  0
 30 31  1  0  0  0  0
 31 34  1  0  0  0  0
 33 36  1  0  0  0  0
 34 32  2  0  0  0  0
 34 33  1  0  0  0  0
 36 42  1  1  0  0  0
 37 36  1  0  0  0  0
 37 41  1  1  0  0  0
 38 36  1  0  0  0  0
 39 35  1  6  0  0  0
 39 37  1  0  0  0  0
 40 38  1  0  0  0  0
 40 39  1  0  0  0  0
 43 46  2  0  0  0  0
 43 44  1  0  0  0  0
 44 48  1  0  0  0  0
 45  1  1  1  0  0  0
 45 47  1  0  0  0  0
 46 45  1  0  0  0  0
 47 50  1  0  0  0  0
 48 47  2  0  0  0  0
 50 49  1  0  0  0  0
M  END
>  <MODEL>
4

>  <REMARK>
 VINA RESULT:      -6.9      2.550      9.885
  Name = 
  14 active torsions:
  status: ('A' for Active; 'I' for Inactive)
    1  A    between atoms: N_1  and  C_7
    2  A    between atoms: N_1  and  C_49
    3  A    between atoms: C_4  and  N_33
    4  A    between atoms: C_7  and  C_23
    5  A    between atoms: C_12  and  C_14
    6  A    between atoms: C_12  and  C_43
    7  A    between atoms: C_14  and  C_15
    8  A    between atoms: N_17  and  C_22
    9  A    between atoms: N_17  and  C_24
   10  A    between atoms: N_17  and  C_32
   11  A    between atoms: C_19  and  C_36
   12  A    between atoms: C_27  and  O_44
   13  A    between atoms: N_29  and  C_48
   14  A    between atoms: O_35  and  C_41
                            x       y       z     vdW  Elec       q    Type
                         _______ _______ _______ _____ _____    ______ ____

>  <TORSDO>
F 14

$$$$
=
 OpenBabel11032421153D

 50 54  0  0  1  0  0  0  0  0999 V2000
  182.6190  179.4770  139.1570 N   0  0  0  0  0  0  0  0  0  0  0  0
  182.0410  176.4310  136.9610 C   0  0  0  0  0  2  0  0  0  0  0  0
  181.8690  176.7070  139.5780 C   0  0  0  0  0  2  0  0  0  0  0  0
  181.8870  174.9330  137.3020 C   0  0  2  0  0  3  0  0  0  0  0  0
  182.4930  178.5700  138.0520 C   0  0  0  0  0  3  0  0  0  0  0  0
  180.9150  174.7280  138.4390 C   0  0  0  0  0  3  0  0  0  0  0  0
  180.9010  175.5570  139.4940 C   0  0  0  0  0  3  0  0  0  0  0  0
  182.1040  177.2980  138.2000 C   0  0  0  0  0  0  0  0  0  0  0  0
  183.2670  174.3420  137.6000 C   0  0  0  0  0  2  0  0  0  0  0  0
  184.0970  174.3730  136.4000 N   0  0  0  0  0  2  0  0  0  0  0  0
  185.8970  172.8440  137.1000 C   0  0  0  0  0  2  0  0  0  0  0  0
  186.6470  172.3220  135.8760 C   0  0  2  0  0  3  0  0  0  0  0  0
  186.3820  174.7200  135.6450 C   0  0  2  0  0  3  0  0  0  0  0  0
  185.5020  174.2920  136.8080 C   0  0  1  0  0  3  0  0  0  0  0  0
  187.3420  173.5620  135.3400 C   0  0  0  0  0  2  0  0  0  0  0  0
  187.0360  176.0190  135.8920 N   0  0  0  0  0  0  0  0  0  0  0  0
  187.1220  176.3070  137.3210 C   0  0  0  0  0  1  0  0  0  0  0  0
  188.3980  175.9580  135.3700 C   0  0  0  0  0  1  0  0  0  0  0  0
  185.0010  170.8400  135.5170 C   0  0  0  0  0  1  0  0  0  0  0  0
  185.7260  171.8790  134.9120 O   0  0  0  0  0  0  0  0  0  0  0  0
  184.9270  178.6390  139.4150 C   0  0  0  0  0  2  0  0  0  0  0  0
  186.1780  178.8210  140.2620 C   0  0  0  0  0  2  0  0  0  0  0  0
  184.6890  178.5520  142.2620 C   0  0  0  0  0  0  0  0  0  0  0  0
  183.7840  179.4250  140.0550 C   0  0  2  0  0  3  0  0  0  0  0  0
  183.4620  178.8100  141.4300 C   0  0  0  0  0  2  0  0  0  0  0  0
  185.9180  178.4970  141.7080 C   0  0  0  0  0  3  0  0  0  0  0  0
  185.9110  179.2550  145.6130 C   0  0  0  0  0  3  0  0  0  0  0  0
  184.4840  178.2310  143.6830 C   0  0  0  0  0  3  0  0  0  0  0  0
  185.2020  178.7490  144.6440 C   0  0  0  0  0  0  0  0  0  0  0  0
  186.5120  178.3390  146.6210 C   0  0  0  0  0  2  0  0  0  0  0  0
  187.6200  177.5150  145.9750 C   0  0  0  0  0  2  0  0  0  0  0  0
  188.3600  176.7600  148.1280 O   0  0  0  0  0  0  0  0  0  0  0  0
  190.0720  177.2690  146.6670 N   0  0  0  0  0  2  0  0  0  0  0  0
  188.6850  177.1210  146.9640 C   0  0  0  0  0  0  0  0  0  0  0  0
  188.8030  176.3520  142.4370 C   0  0  0  0  0  1  0  0  0  0  0  0
  190.6760  177.5040  145.3600 C   0  0  1  0  0  0  0  0  0  0  0  0
  190.3360  176.3830  144.3890 C   0  0  1  0  0  3  0  0  0  0  0  0
  190.0340  178.7370  144.7420 C   0  0  0  0  0  2  0  0  0  0  0  0
  189.8900  177.1310  143.1510 C   0  0  2  0  0  3  0  0  0  0  0  0
  189.3700  178.3850  143.5410 O   0  0  0  0  0  0  0  0  0  0  0  0
  191.5110  175.4720  144.0320 C   0  0  0  0  0  1  0  0  0  0  0  0
  192.0530  177.7090  145.4870 O   0  0  0  0  0  1  0  0  0  0  0  0
  179.6060  179.9330  141.2290 C   0  0  0  0  0  3  0  0  0  0  0  0
  179.0150  181.0460  140.6350 C   0  0  0  0  0  2  0  0  0  0  0  0
  181.3870  180.0310  139.6640 C   0  0  2  0  0  3  0  0  0  0  0  0
  180.7730  179.4490  140.7300 N   0  0  0  0  0  0  0  0  0  0  0  0
  180.7940  181.1580  139.0700 C   0  0  0  0  0  0  0  0  0  0  0  0
  179.6190  181.6360  139.5680 N   0  0  0  0  0  0  0  0  0  0  0  0
  180.7540  182.0830  136.7840 C   0  0  0  0  0  1  0  0  0  0  0  0
  181.4210  181.7980  137.9990 O   0  0  0  0  0  0  0  0  0  0  0  0
  2  4  1  0  0  0  0
  2  8  1  0  0  0  0
  4  9  1  1  0  0  0
  4  6  1  0  0  0  0
  5  8  2  0  0  0  0
  5  1  1  0  0  0  0
  6  7  2  0  0  0  0
  7  3  1  0  0  0  0
  8  3  1  0  0  0  0
 10  9  1  0  0  0  0
 12 20  1  6  0  0  0
 12 11  1  0  0  0  0
 13 16  1  1  0  0  0
 13 14  1  0  0  0  0
 14 10  1  6  0  0  0
 14 11  1  0  0  0  0
 15 13  1  0  0  0  0
 15 12  1  0  0  0  0
 16 17  1  0  0  0  0
 18 16  1  0  0  0  0
 20 19  1  0  0  0  0
 21 24  1  0  0  0  0
 21 22  1  0  0  0  0
 22 26  1  0  0  0  0
 23 28  1  0  0  0  0
 24  1  1  6  0  0  0
 24 25  1  0  0  0  0
 25 23  1  0  0  0  0
 26 23  2  0  0  0  0
 27 30  1  0  0  0  0
 28 29  2  0  0  0  0
 29 27  2  0  0  0  0
 31 30  1  0  0  0  0
 31 34  1  0  0  0  0
 33 34  1  0  0  0  0
 34 32  2  0  0  0  0
 36 42  1  1  0  0  0
 36 33  1  0  0  0  0
 37 41  1  6  0  0  0
 37 36  1  0  0  0  0
 38 36  1  0  0  0  0
 39 35  1  1  0  0  0
 39 40  1  0  0  0  0
 39 37  1  0  0  0  0
 40 38  1  0  0  0  0
 44 43  1  0  0  0  0
 45  1  1  6  0  0  0
 45 46  1  0  0  0  0
 46 43  2  0  0  0  0
 47 48  2  0  0  0  0
 47 45  1  0  0  0  0
 48 44  1  0  0  0  0
 49 50  1  0  0  0  0
 50 47  1  0  0  0  0
M  END
>  <MODEL>
5

>  <REMARK>
 VINA RESULT:      -6.8      1.513      3.054
  Name = 
  14 active torsions:
  status: ('A' for Active; 'I' for Inactive)
    1  A    between atoms: N_1  and  C_7
    2  A    between atoms: N_1  and  C_49
    3  A    between atoms: C_4  and  N_33
    4  A    between atoms: C_7  and  C_23
    5  A    between atoms: C_12  and  C_14
    6  A    between atoms: C_12  and  C_43
    7  A    between atoms: C_14  and  C_15
    8  A    between atoms: N_17  and  C_22
    9  A    between atoms: N_17  and  C_24
   10  A    between atoms: N_17  and  C_32
   11  A    between atoms: C_19  and  C_36
   12  A    between atoms: C_27  and  O_44
   13  A    between atoms: N_29  and  C_48
   14  A    between atoms: O_35  and  C_41
                            x       y       z     vdW  Elec       q    Type
                         _______ _______ _______ _____ _____    ______ ____

>  <TORSDO>
F 14

$$$$
=
 OpenBabel11032421153D

 50 54  0  0  1  0  0  0  0  0999 V2000
  182.9930  177.7410  139.1050 N   0  0  0  0  0  0  0  0  0  0  0  0
  184.3060  175.9740  136.0090 C   0  0  0  0  0  2  0  0  0  0  0  0
  183.2930  174.9900  138.2360 C   0  0  0  0  0  2  0  0  0  0  0  0
  184.6560  174.4940  135.7410 C   0  0  2  0  0  3  0  0  0  0  0  0
  183.5540  177.4290  137.8220 C   0  0  0  0  0  3  0  0  0  0  0  0
  183.5570  173.5770  136.2220 C   0  0  0  0  0  3  0  0  0  0  0  0
  182.9180  173.8110  137.3780 C   0  0  0  0  0  3  0  0  0  0  0  0
  183.6660  176.1760  137.3650 C   0  0  0  0  0  0  0  0  0  0  0  0
  186.0070  174.1730  136.3840 C   0  0  0  0  0  2  0  0  0  0  0  0
  186.7470  175.4060  136.6400 N   0  0  0  0  0  2  0  0  0  0  0  0
  188.1100  176.4880  134.8960 C   0  0  0  0  0  2  0  0  0  0  0  0
  188.9920  177.5680  135.5170 C   0  0  2  0  0  3  0  0  0  0  0  0
  189.1610  175.5700  136.8770 C   0  0  2  0  0  3  0  0  0  0  0  0
  188.0140  175.3440  135.9060 C   0  0  1  0  0  3  0  0  0  0  0  0
  189.9660  176.7740  136.3710 C   0  0  0  0  0  2  0  0  0  0  0  0
  189.9510  174.3440  137.0990 N   0  0  0  0  0  0  0  0  0  0  0  0
  189.7270  173.3680  136.0370 C   0  0  0  0  0  1  0  0  0  0  0  0
  191.3680  174.6970  137.0830 C   0  0  0  0  0  1  0  0  0  0  0  0
  189.1270  179.0200  137.2230 C   0  0  0  0  0  1  0  0  0  0  0  0
  188.2200  178.3790  136.3650 O   0  0  0  0  0  0  0  0  0  0  0  0
  183.1640  178.6790  141.3820 C   0  0  0  0  0  2  0  0  0  0  0  0
  183.9550  178.5440  142.6750 C   0  0  0  0  0  2  0  0  0  0  0  0
  186.0200  178.7220  141.2630 C   0  0  0  0  0  0  0  0  0  0  0  0
  183.8420  177.8350  140.3040 C   0  0  2  0  0  3  0  0  0  0  0  0
  185.2380  178.4190  140.0140 C   0  0  0  0  0  2  0  0  0  0  0  0
  185.4150  178.8390  142.4640 C   0  0  0  0  0  3  0  0  0  0  0  0
  189.1920  177.2850  140.2180 C   0  0  0  0  0  3  0  0  0  0  0  0
  187.4530  179.0170  141.1050 C   0  0  0  0  0  3  0  0  0  0  0  0
  188.3170  178.1440  140.6590 C   0  0  0  0  0  0  0  0  0  0  0  0
  190.4430  177.0660  140.9960 C   0  0  0  0  0  2  0  0  0  0  0  0
  190.2130  177.4360  142.4570 C   0  0  0  0  0  2  0  0  0  0  0  0
  190.1420  175.0690  142.8400 O   0  0  0  0  0  0  0  0  0  0  0  0
  189.4310  176.3350  144.6330 N   0  0  0  0  0  2  0  0  0  0  0  0
  189.9730  176.2230  143.3190 C   0  0  0  0  0  0  0  0  0  0  0  0
  187.9080  177.1670  148.7970 C   0  0  0  0  0  1  0  0  0  0  0  0
  189.3150  177.5450  145.4410 C   0  0  1  0  0  0  0  0  0  0  0  0
  188.0900  177.4880  146.3410 C   0  0  1  0  0  3  0  0  0  0  0  0
  190.4860  177.5960  146.4120 C   0  0  0  0  0  2  0  0  0  0  0  0
  188.6420  177.9000  147.6900 C   0  0  2  0  0  3  0  0  0  0  0  0
  190.0100  177.5560  147.7450 O   0  0  0  0  0  0  0  0  0  0  0  0
  186.9630  178.4410  145.9440 C   0  0  0  0  0  1  0  0  0  0  0  0
  189.3350  178.6810  144.6280 O   0  0  0  0  0  1  0  0  0  0  0  0
  179.9320  175.9400  140.0880 C   0  0  0  0  0  3  0  0  0  0  0  0
  178.9350  176.7780  139.5940 C   0  0  0  0  0  2  0  0  0  0  0  0
  181.5960  177.4250  139.2780 C   0  0  2  0  0  3  0  0  0  0  0  0
  181.2370  176.2790  139.9170 N   0  0  0  0  0  0  0  0  0  0  0  0
  180.5890  178.2740  138.7860 C   0  0  0  0  0  0  0  0  0  0  0  0
  179.2810  177.9260  138.9530 N   0  0  0  0  0  0  0  0  0  0  0  0
  180.2550  179.9520  137.0100 C   0  0  0  0  0  1  0  0  0  0  0  0
  180.9280  179.4740  138.1590 O   0  0  0  0  0  0  0  0  0  0  0  0
  2  8  1  0  0  0  0
  4  2  1  0  0  0  0
  4  6  1  0  0  0  0
  4  9  1  1  0  0  0
  5  1  1  0  0  0  0
  6  7  2  0  0  0  0
  7  3  1  0  0  0  0
  8  5  2  0  0  0  0
  8  3  1  0  0  0  0
  9 10  1  0  0  0  0
 11 12  1  0  0  0  0
 11 14  1  0  0  0  0
 12 20  1  1  0  0  0
 12 15  1  0  0  0  0
 13 16  1  6  0  0  0
 14 10  1  1  0  0  0
 14 13  1  0  0  0  0
 15 13  1  0  0  0  0
 17 16  1  0  0  0  0
 18 16  1  0  0  0  0
 20 19  1  0  0  0  0
 21 22  1  0  0  0  0
 23 26  2  0  0  0  0
 24  1  1  6  0  0  0
 24 21  1  0  0  0  0
 25 24  1  0  0  0  0
 25 23  1  0  0  0  0
 26 22  1  0  0  0  0
 27 29  2  0  0  0  0
 27 30  1  0  0  0  0
 28 23  1  0  0  0  0
 29 28  2  0  0  0  0
 30 31  1  0  0  0  0
 31 34  1  0  0  0  0
 32 34  2  0  0  0  0
 33 36  1  0  0  0  0
 34 33  1  0  0  0  0
 36 42  1  6  0  0  0
 36 37  1  0  0  0  0
 36 38  1  0  0  0  0
 37 41  1  6  0  0  0
 37 39  1  0  0  0  0
 38 40  1  0  0  0  0
 39 40  1  0  0  0  0
 39 35  1  1  0  0  0
 44 43  1  0  0  0  0
 45  1  1  6  0  0  0
 45 46  1  0  0  0  0
 46 43  2  0  0  0  0
 47 48  2  0  0  0  0
 47 45  1  0  0  0  0
 48 44  1  0  0  0  0
 49 50  1  0  0  0  0
 50 47  1  0  0  0  0
M  END
>  <MODEL>
6

>  <REMARK>
 VINA RESULT:      -6.5      1.727      2.605
  Name = 
  14 active torsions:
  status: ('A' for Active; 'I' for Inactive)
    1  A    between atoms: N_1  and  C_7
    2  A    between atoms: N_1  and  C_49
    3  A    between atoms: C_4  and  N_33
    4  A    between atoms: C_7  and  C_23
    5  A    between atoms: C_12  and  C_14
    6  A    between atoms: C_12  and  C_43
    7  A    between atoms: C_14  and  C_15
    8  A    between atoms: N_17  and  C_22
    9  A    between atoms: N_17  and  C_24
   10  A    between atoms: N_17  and  C_32
   11  A    between atoms: C_19  and  C_36
   12  A    between atoms: C_27  and  O_44
   13  A    between atoms: N_29  and  C_48
   14  A    between atoms: O_35  and  C_41
                            x       y       z     vdW  Elec       q    Type
                         _______ _______ _______ _____ _____    ______ ____

>  <TORSDO>
F 14

$$$$
=
 OpenBabel11032421153D

 50 54  0  0  1  0  0  0  0  0999 V2000
  182.0480  179.3040  139.0250 N   0  0  0  0  0  0  0  0  0  0  0  0
  180.6560  176.5130  136.8540 C   0  0  0  0  0  2  0  0  0  0  0  0
  181.8640  176.4140  139.1960 C   0  0  0  0  0  2  0  0  0  0  0  0
  180.8300  174.9800  136.9160 C   0  0  2  0  0  3  0  0  0  0  0  0
  181.4350  178.5390  137.9760 C   0  0  0  0  0  3  0  0  0  0  0  0
  180.6210  174.4620  138.3190 C   0  0  0  0  0  3  0  0  0  0  0  0
  181.0960  175.1330  139.3800 C   0  0  0  0  0  3  0  0  0  0  0  0
  181.2890  177.2110  138.0390 C   0  0  0  0  0  0  0  0  0  0  0  0
  182.2030  174.6070  136.3540 C   0  0  0  0  0  2  0  0  0  0  0  0
  182.1540  173.2820  135.7430 N   0  0  0  0  0  2  0  0  0  0  0  0
  182.5390  171.1150  136.8490 C   0  0  0  0  0  2  0  0  0  0  0  0
  182.9130  170.0570  135.8130 C   0  0  2  0  0  3  0  0  0  0  0  0
  184.2180  172.0510  135.3740 C   0  0  2  0  0  3  0  0  0  0  0  0
  183.1590  172.4360  136.3930 C   0  0  1  0  0  3  0  0  0  0  0  0
  184.2740  170.5190  135.3200 C   0  0  0  0  0  2  0  0  0  0  0  0
  185.5110  172.7100  135.6400 N   0  0  0  0  0  0  0  0  0  0  0  0
  185.5370  174.0660  135.1000 C   0  0  0  0  0  1  0  0  0  0  0  0
  185.6920  172.8060  137.0850 C   0  0  0  0  0  1  0  0  0  0  0  0
  180.7370  169.9000  135.2870 C   0  0  0  0  0  1  0  0  0  0  0  0
  182.0110  170.1120  134.7370 O   0  0  0  0  0  0  0  0  0  0  0  0
  184.1930  178.4660  138.1340 C   0  0  0  0  0  2  0  0  0  0  0  0
  185.6910  178.7310  138.1780 C   0  0  0  0  0  2  0  0  0  0  0  0
  185.4720  178.7320  140.6760 C   0  0  0  0  0  0  0  0  0  0  0  0
  183.5100  179.3430  139.1830 C   0  0  2  0  0  3  0  0  0  0  0  0
  183.9810  178.9050  140.5830 C   0  0  0  0  0  2  0  0  0  0  0  0
  186.2370  178.5900  139.5730 C   0  0  0  0  0  3  0  0  0  0  0  0
  184.6210  178.2530  144.1790 C   0  0  0  0  0  3  0  0  0  0  0  0
  186.0510  178.5900  142.0210 C   0  0  0  0  0  3  0  0  0  0  0  0
  185.3280  178.4200  143.0970 C   0  0  0  0  0  0  0  0  0  0  0  0
  184.8800  179.1320  145.3520 C   0  0  0  0  0  2  0  0  0  0  0  0
  185.4410  178.3050  146.5030 C   0  0  0  0  0  2  0  0  0  0  0  0
  186.0590  180.1280  147.9340 O   0  0  0  0  0  0  0  0  0  0  0  0
  187.8130  178.7450  147.3570 N   0  0  0  0  0  2  0  0  0  0  0  0
  186.4290  179.0820  147.3330 C   0  0  0  0  0  0  0  0  0  0  0  0
  191.2820  177.8420  144.6180 C   0  0  0  0  0  1  0  0  0  0  0  0
  188.4310  177.5100  146.8860 C   0  0  1  0  0  0  0  0  0  0  0  0
  188.9560  177.6650  145.4660 C   0  0  1  0  0  3  0  0  0  0  0  0
  189.6790  177.2430  147.7150 C   0  0  0  0  0  2  0  0  0  0  0  0
  190.3550  177.0960  145.5580 C   0  0  2  0  0  3  0  0  0  0  0  0
  190.8240  177.2550  146.8810 O   0  0  0  0  0  0  0  0  0  0  0  0
  188.1660  176.8950  144.4080 C   0  0  0  0  0  1  0  0  0  0  0  0
  187.5450  176.4370  147.0190 O   0  0  0  0  0  1  0  0  0  0  0  0
  180.4530  178.8770  142.3200 C   0  0  0  0  0  3  0  0  0  0  0  0
  179.6420  180.0070  142.3940 C   0  0  0  0  0  2  0  0  0  0  0  0
  181.2270  179.5610  140.1830 C   0  0  2  0  0  3  0  0  0  0  0  0
  181.2220  178.6770  141.2180 N   0  0  0  0  0  0  0  0  0  0  0  0
  180.4140  180.7050  140.2620 C   0  0  0  0  0  0  0  0  0  0  0  0
  179.6370  180.8970  141.3660 N   0  0  0  0  0  0  0  0  0  0  0  0
  179.2840  181.9350  138.4470 C   0  0  0  0  0  1  0  0  0  0  0  0
  180.4260  181.6470  139.2320 O   0  0  0  0  0  0  0  0  0  0  0  0
  2  4  1  0  0  0  0
  2  8  1  0  0  0  0
  3  7  1  0  0  0  0
  4  9  1  1  0  0  0
  4  6  1  0  0  0  0
  5  8  2  0  0  0  0
  5  1  1  0  0  0  0
  6  7  2  0  0  0  0
  8  3  1  0  0  0  0
 10  9  1  0  0  0  0
 12 20  1  6  0  0  0
 12 11  1  0  0  0  0
 13 16  1  1  0  0  0
 13 14  1  0  0  0  0
 14 10  1  6  0  0  0
 14 11  1  0  0  0  0
 15 13  1  0  0  0  0
 15 12  1  0  0  0  0
 16 18  1  0  0  0  0
 17 16  1  0  0  0  0
 20 19  1  0  0  0  0
 21 22  1  0  0  0  0
 21 24  1  0  0  0  0
 22 26  1  0  0  0  0
 23 28  1  0  0  0  0
 24  1  1  1  0  0  0
 24 25  1  0  0  0  0
 25 23  1  0  0  0  0
 26 23  2  0  0  0  0
 27 30  1  0  0  0  0
 28 29  2  0  0  0  0
 29 27  2  0  0  0  0
 30 31  1  0  0  0  0
 31 34  1  0  0  0  0
 34 33  1  0  0  0  0
 34 32  2  0  0  0  0
 36 42  1  1  0  0  0
 36 33  1  0  0  0  0
 36 38  1  0  0  0  0
 37 41  1  6  0  0  0
 37 39  1  0  0  0  0
 37 36  1  0  0  0  0
 39 35  1  6  0  0  0
 39 40  1  0  0  0  0
 40 38  1  0  0  0  0
 43 44  1  0  0  0  0
 45  1  1  6  0  0  0
 45 47  1  0  0  0  0
 45 46  1  0  0  0  0
 46 43  2  0  0  0  0
 47 48  2  0  0  0  0
 48 44  1  0  0  0  0
 49 50  1  0  0  0  0
 50 47  1  0  0  0  0
M  END
>  <MODEL>
7

>  <REMARK>
 VINA RESULT:      -6.3      2.325      4.074
  Name = 
  14 active torsions:
  status: ('A' for Active; 'I' for Inactive)
    1  A    between atoms: N_1  and  C_7
    2  A    between atoms: N_1  and  C_49
    3  A    between atoms: C_4  and  N_33
    4  A    between atoms: C_7  and  C_23
    5  A    between atoms: C_12  and  C_14
    6  A    between atoms: C_12  and  C_43
    7  A    between atoms: C_14  and  C_15
    8  A    between atoms: N_17  and  C_22
    9  A    between atoms: N_17  and  C_24
   10  A    between atoms: N_17  and  C_32
   11  A    between atoms: C_19  and  C_36
   12  A    between atoms: C_27  and  O_44
   13  A    between atoms: N_29  and  C_48
   14  A    between atoms: O_35  and  C_41
                            x       y       z     vdW  Elec       q    Type
                         _______ _______ _______ _____ _____    ______ ____

>  <TORSDO>
F 14

$$$$
=
 OpenBabel11032421153D

 50 54  0  0  1  0  0  0  0  0999 V2000
  182.6900  178.6990  140.2340 N   0  0  0  0  0  0  0  0  0  0  0  0
  181.9400  176.4620  137.2570 C   0  0  0  0  0  2  0  0  0  0  0  0
  181.6600  176.0160  139.8410 C   0  0  0  0  0  2  0  0  0  0  0  0
  181.6270  174.9530  137.1590 C   0  0  2  0  0  3  0  0  0  0  0  0
  182.5350  178.1540  138.9160 C   0  0  0  0  0  3  0  0  0  0  0  0
  180.5820  174.5440  138.1690 C   0  0  0  0  0  3  0  0  0  0  0  0
  180.5920  175.0440  139.4140 C   0  0  0  0  0  3  0  0  0  0  0  0
  182.0200  176.9390  138.6910 C   0  0  0  0  0  0  0  0  0  0  0  0
  182.9270  174.1600  137.3090 C   0  0  0  0  0  2  0  0  0  0  0  0
  183.9600  174.7190  136.4420 N   0  0  0  0  0  2  0  0  0  0  0  0
  185.5070  173.0920  137.4560 C   0  0  0  0  0  2  0  0  0  0  0  0
  186.4420  172.5240  136.3910 C   0  0  2  0  0  3  0  0  0  0  0  0
  186.3630  174.9330  136.1330 C   0  0  2  0  0  3  0  0  0  0  0  0
  185.2570  174.5590  137.1070 C   0  0  1  0  0  3  0  0  0  0  0  0
  187.2950  173.7210  136.0040 C   0  0  0  0  0  2  0  0  0  0  0  0
  187.0310  176.1930  136.5090 N   0  0  0  0  0  0  0  0  0  0  0  0
  188.2880  176.3630  135.7870 C   0  0  0  0  0  1  0  0  0  0  0  0
  186.1580  177.3050  136.1480 C   0  0  0  0  0  1  0  0  0  0  0  0
  184.7790  171.1720  135.7260 C   0  0  0  0  0  1  0  0  0  0  0  0
  185.6950  172.1320  135.2670 O   0  0  0  0  0  0  0  0  0  0  0  0
  183.6520  178.8560  142.5020 C   0  0  0  0  0  2  0  0  0  0  0  0
  184.7340  178.2530  143.3870 C   0  0  0  0  0  2  0  0  0  0  0  0
  186.3220  178.6830  141.4940 C   0  0  0  0  0  0  0  0  0  0  0  0
  183.8400  178.3370  141.0780 C   0  0  2  0  0  3  0  0  0  0  0  0
  185.1820  178.8570  140.5280 C   0  0  0  0  0  2  0  0  0  0  0  0
  186.1060  178.4700  142.8100 C   0  0  0  0  0  3  0  0  0  0  0  0
  188.8740  177.2140  139.3620 C   0  0  0  0  0  3  0  0  0  0  0  0
  187.6830  178.8850  140.9740 C   0  0  0  0  0  3  0  0  0  0  0  0
  188.2720  178.0440  140.1660 C   0  0  0  0  0  0  0  0  0  0  0  0
  190.2490  176.7530  139.6990 C   0  0  0  0  0  2  0  0  0  0  0  0
  191.0890  176.6640  138.4300 C   0  0  0  0  0  2  0  0  0  0  0  0
  190.2650  174.4930  137.8320 O   0  0  0  0  0  0  0  0  0  0  0  0
  192.5650  174.6690  137.8020 N   0  0  0  0  0  2  0  0  0  0  0  0
  191.2700  175.2420  137.9680 C   0  0  0  0  0  0  0  0  0  0  0  0
  196.5870  173.6800  136.0130 C   0  0  0  0  0  1  0  0  0  0  0  0
  193.8420  175.3720  137.7420 C   0  0  1  0  0  0  0  0  0  0  0  0
  195.0090  174.3970  137.7910 C   0  0  1  0  0  3  0  0  0  0  0  0
  193.9700  176.0330  136.3770 C   0  0  0  0  0  2  0  0  0  0  0  0
  195.8910  174.8660  136.6540 C   0  0  2  0  0  3  0  0  0  0  0  0
  195.0820  175.4970  135.6840 O   0  0  0  0  0  0  0  0  0  0  0  0
  195.8080  174.4250  139.0940 C   0  0  0  0  0  1  0  0  0  0  0  0
  193.9110  176.3480  138.7400 O   0  0  0  0  0  1  0  0  0  0  0  0
  179.9720  178.9770  142.7080 C   0  0  0  0  0  3  0  0  0  0  0  0
  179.1520  179.9410  142.1270 C   0  0  0  0  0  2  0  0  0  0  0  0
  181.4780  179.1410  140.8820 C   0  0  2  0  0  3  0  0  0  0  0  0
  181.1120  178.5970  142.0740 N   0  0  0  0  0  0  0  0  0  0  0  0
  180.6540  180.1190  140.2990 C   0  0  0  0  0  0  0  0  0  0  0  0
  179.5070  180.4920  140.9350 N   0  0  0  0  0  0  0  0  0  0  0  0
  180.5720  182.0070  138.7140 C   0  0  0  0  0  1  0  0  0  0  0  0
  181.0230  180.7210  139.0950 O   0  0  0  0  0  0  0  0  0  0  0  0
  2  8  1  0  0  0  0
  4  2  1  0  0  0  0
  4  9  1  1  0  0  0
  4  6  1  0  0  0  0
  5  1  1  0  0  0  0
  6  7  2  0  0  0  0
  7  3  1  0  0  0  0
  8  5  2  0  0  0  0
  8  3  1  0  0  0  0
 10  9  1  0  0  0  0
 12 20  1  6  0  0  0
 12 11  1  0  0  0  0
 13 16  1  1  0  0  0
 13 14  1  0  0  0  0
 14 10  1  6  0  0  0
 14 11  1  0  0  0  0
 15 13  1  0  0  0  0
 15 12  1  0  0  0  0
 17 16  1  0  0  0  0
 18 16  1  0  0  0  0
 20 19  1  0  0  0  0
 21 22  1  0  0  0  0
 23 26  2  0  0  0  0
 24  1  1  6  0  0  0
 24 21  1  0  0  0  0
 25 24  1  0  0  0  0
 25 23  1  0  0  0  0
 26 22  1  0  0  0  0
 27 30  1  0  0  0  0
 27 29  2  0  0  0  0
 28 23  1  0  0  0  0
 29 28  2  0  0  0  0
 31 30  1  0  0  0  0
 32 34  2  0  0  0  0
 33 34  1  0  0  0  0
 34 31  1  0  0  0  0
 36 37  1  0  0  0  0
 36 33  1  0  0  0  0
 36 42  1  1  0  0  0
 37 41  1  1  0  0  0
 38 36  1  0  0  0  0
 39 35  1  6  0  0  0
 39 37  1  0  0  0  0
 40 38  1  0  0  0  0
 40 39  1  0  0  0  0
 44 43  1  0  0  0  0
 45  1  1  6  0  0  0
 45 46  1  0  0  0  0
 46 43  2  0  0  0  0
 47 45  1  0  0  0  0
 47 48  2  0  0  0  0
 48 44  1  0  0  0  0
 49 50  1  0  0  0  0
 50 47  1  0  0  0  0
M  END
>  <MODEL>
8

>  <REMARK>
 VINA RESULT:      -6.2      3.172      5.544
  Name = 
  14 active torsions:
  status: ('A' for Active; 'I' for Inactive)
    1  A    between atoms: N_1  and  C_7
    2  A    between atoms: N_1  and  C_49
    3  A    between atoms: C_4  and  N_33
    4  A    between atoms: C_7  and  C_23
    5  A    between atoms: C_12  and  C_14
    6  A    between atoms: C_12  and  C_43
    7  A    between atoms: C_14  and  C_15
    8  A    between atoms: N_17  and  C_22
    9  A    between atoms: N_17  and  C_24
   10  A    between atoms: N_17  and  C_32
   11  A    between atoms: C_19  and  C_36
   12  A    between atoms: C_27  and  O_44
   13  A    between atoms: N_29  and  C_48
   14  A    between atoms: O_35  and  C_41
                            x       y       z     vdW  Elec       q    Type
                         _______ _______ _______ _____ _____    ______ ____

>  <TORSDO>
F 14

$$$$
=
 OpenBabel11032421153D

 50 54  0  0  1  0  0  0  0  0999 V2000
  182.5290  178.1580  139.9340 N   0  0  0  0  0  0  0  0  0  0  0  0
  183.3620  178.0730  136.2290 C   0  0  0  0  0  2  0  0  0  0  0  0
  183.6290  176.2160  138.0820 C   0  0  0  0  0  2  0  0  0  0  0  0
  184.1800  177.0730  135.3820 C   0  0  2  0  0  3  0  0  0  0  0  0
  182.7160  178.4820  138.5500 C   0  0  0  0  0  3  0  0  0  0  0  0
  183.7760  175.6490  135.6780 C   0  0  0  0  0  3  0  0  0  0  0  0
  183.5130  175.2510  136.9320 C   0  0  0  0  0  3  0  0  0  0  0  0
  183.1770  177.6000  137.6550 C   0  0  0  0  0  0  0  0  0  0  0  0
  185.6710  177.3180  135.6180 C   0  0  0  0  0  2  0  0  0  0  0  0
  186.4600  176.2670  134.9820 N   0  0  0  0  0  2  0  0  0  0  0  0
  187.1020  174.7890  136.8450 C   0  0  0  0  0  2  0  0  0  0  0  0
  187.6490  173.4710  136.3030 C   0  0  2  0  0  3  0  0  0  0  0  0
  188.6840  175.2890  135.0800 C   0  0  2  0  0  3  0  0  0  0  0  0
  187.5500  175.8950  135.8890 C   0  0  1  0  0  3  0  0  0  0  0  0
  188.9500  173.8830  135.6350 C   0  0  0  0  0  2  0  0  0  0  0  0
  189.8660  176.1710  135.0320 N   0  0  0  0  0  0  0  0  0  0  0  0
  189.4990  177.5630  135.2750 C   0  0  0  0  0  1  0  0  0  0  0  0
  190.7890  175.7650  136.0880 C   0  0  0  0  0  1  0  0  0  0  0  0
  185.6740  172.4490  136.0000 C   0  0  0  0  0  1  0  0  0  0  0  0
  186.7840  172.9700  135.3160 O   0  0  0  0  0  0  0  0  0  0  0  0
  183.3480  178.5060  142.2370 C   0  0  0  0  0  2  0  0  0  0  0  0
  184.4610  178.0880  143.1870 C   0  0  0  0  0  2  0  0  0  0  0  0
  186.0600  178.7040  141.3550 C   0  0  0  0  0  0  0  0  0  0  0  0
  183.6780  177.9880  140.8380 C   0  0  2  0  0  3  0  0  0  0  0  0
  184.9550  178.6870  140.3340 C   0  0  0  0  0  2  0  0  0  0  0  0
  185.8140  178.4910  142.6650 C   0  0  0  0  0  3  0  0  0  0  0  0
  188.5490  178.0670  138.7830 C   0  0  0  0  0  3  0  0  0  0  0  0
  187.4000  179.0920  140.8910 C   0  0  0  0  0  3  0  0  0  0  0  0
  187.9680  178.5750  139.8330 C   0  0  0  0  0  0  0  0  0  0  0  0
  189.9390  177.5480  138.9080 C   0  0  0  0  0  2  0  0  0  0  0  0
  190.2260  177.1860  140.3610 C   0  0  0  0  0  2  0  0  0  0  0  0
  192.5550  177.5030  139.8860 O   0  0  0  0  0  0  0  0  0  0  0  0
  192.0160  177.6900  142.1210 N   0  0  0  0  0  2  0  0  0  0  0  0
  191.6440  177.5070  140.7570 C   0  0  0  0  0  0  0  0  0  0  0  0
  191.7620  175.8920  146.2510 C   0  0  0  0  0  1  0  0  0  0  0  0
  191.1270  177.9000  143.2590 C   0  0  1  0  0  0  0  0  0  0  0  0
  190.9090  176.6070  144.0310 C   0  0  1  0  0  3  0  0  0  0  0  0
  191.8230  178.8140  144.2570 C   0  0  0  0  0  2  0  0  0  0  0  0
  191.1330  177.0290  145.4680 C   0  0  2  0  0  3  0  0  0  0  0  0
  192.0130  178.1330  145.4840 O   0  0  0  0  0  0  0  0  0  0  0  0
  189.5080  176.0120  143.8930 C   0  0  0  0  0  1  0  0  0  0  0  0
  189.9300  178.4900  142.8440 O   0  0  0  0  0  1  0  0  0  0  0  0
  180.0390  175.4830  140.4090 C   0  0  0  0  0  3  0  0  0  0  0  0
  178.9320  176.1970  140.8600 C   0  0  0  0  0  2  0  0  0  0  0  0
  181.2920  177.4920  140.2670 C   0  0  2  0  0  3  0  0  0  0  0  0
  181.1910  176.1430  140.1200 N   0  0  0  0  0  0  0  0  0  0  0  0
  180.1770  178.2120  140.7290 C   0  0  0  0  0  0  0  0  0  0  0  0
  179.0220  177.5460  141.0100 N   0  0  0  0  0  0  0  0  0  0  0  0
  179.8950  180.2160  142.1390 C   0  0  0  0  0  1  0  0  0  0  0  0
  180.2650  179.5920  140.9240 O   0  0  0  0  0  0  0  0  0  0  0  0
  2  8  1  0  0  0  0
  4  9  1  1  0  0  0
  4  6  1  0  0  0  0
  4  2  1  0  0  0  0
  5  1  1  0  0  0  0
  6  7  2  0  0  0  0
  7  3  1  0  0  0  0
  8  3  1  0  0  0  0
  8  5  2  0  0  0  0
 10  9  1  0  0  0  0
 12 20  1  6  0  0  0
 12 11  1  0  0  0  0
 13 16  1  1  0  0  0
 13 15  1  0  0  0  0
 13 14  1  0  0  0  0
 14 10  1  6  0  0  0
 14 11  1  0  0  0  0
 15 12  1  0  0  0  0
 16 17  1  0  0  0  0
 16 18  1  0  0  0  0
 20 19  1  0  0  0  0
 21 22  1  0  0  0  0
 23 26  2  0  0  0  0
 24  1  1  6  0  0  0
 24 21  1  0  0  0  0
 25 24  1  0  0  0  0
 25 23  1  0  0  0  0
 26 22  1  0  0  0  0
 27 30  1  0  0  0  0
 27 29  2  0  0  0  0
 28 23  1  0  0  0  0
 29 28  2  0  0  0  0
 30 31  1  0  0  0  0
 31 34  1  0  0  0  0
 32 34  2  0  0  0  0
 33 36  1  0  0  0  0
 34 33  1  0  0  0  0
 36 42  1  6  0  0  0
 36 37  1  0  0  0  0
 36 38  1  0  0  0  0
 37 41  1  1  0  0  0
 37 39  1  0  0  0  0
 38 40  1  0  0  0  0
 39 40  1  0  0  0  0
 39 35  1  1  0  0  0
 43 44  1  0  0  0  0
 44 48  1  0  0  0  0
 45  1  1  6  0  0  0
 45 47  1  0  0  0  0
 46 45  1  0  0  0  0
 46 43  2  0  0  0  0
 47 50  1  0  0  0  0
 47 48  2  0  0  0  0
 50 49  1  0  0  0  0
M  END
>  <MODEL>
9

>  <REMARK>
 VINA RESULT:      -6.2      2.076      2.906
  Name = 
  14 active torsions:
  status: ('A' for Active; 'I' for Inactive)
    1  A    between atoms: N_1  and  C_7
    2  A    between atoms: N_1  and  C_49
    3  A    between atoms: C_4  and  N_33
    4  A    between atoms: C_7  and  C_23
    5  A    between atoms: C_12  and  C_14
    6  A    between atoms: C_12  and  C_43
    7  A    between atoms: C_14  and  C_15
    8  A    between atoms: N_17  and  C_22
    9  A    between atoms: N_17  and  C_24
   10  A    between atoms: N_17  and  C_32
   11  A    between atoms: C_19  and  C_36
   12  A    between atoms: C_27  and  O_44
   13  A    between atoms: N_29  and  C_48
   14  A    between atoms: O_35  and  C_41
                            x       y       z     vdW  Elec       q    Type
                         _______ _______ _______ _____ _____    ______ ____

>  <TORSDO>
F 14

$$$$
