=
 OpenBabel11042412593D

 42 49  0  0  1  0  0  0  0  0999 V2000
  184.3990  178.6710  144.4040 C   0  0  0  0  0  0  0  0  0  0  0  0
  185.8760  178.5000  142.5110 C   0  0  0  0  0  3  0  0  0  0  0  0
  185.6720  178.5180  143.8800 C   0  0  0  0  0  3  0  0  0  0  0  0
  182.8730  178.2000  139.1070 C   0  0  1  0  0  3  0  0  0  0  0  0
  181.3100  179.8540  139.3390 C   0  0  0  0  0  0  0  0  0  0  0  0
  180.8090  180.0740  136.7230 C   0  0  1  0  0  3  0  0  0  0  0  0
  184.3410  178.3290  139.0940 C   0  0  0  0  0  0  0  0  0  0  0  0
  181.9080  178.9280  144.0650 C   0  0  0  0  0  1  0  0  0  0  0  0
  180.4910  180.6460  139.8770 O   0  0  0  0  0  0  0  0  0  0  0  0
  185.1140  178.1180  138.0380 C   0  0  0  0  0  3  0  0  0  0  0  0
  181.3120  179.3620  137.9670 C   0  0  1  0  0  0  0  0  0  0  0  0
  182.3550  179.2120  140.0040 N   0  0  0  0  0  0  0  0  0  0  0  0
  184.8320  178.6310  141.5860 C   0  0  0  0  0  0  0  0  0  0  0  0
  183.4990  178.8310  142.1140 C   0  0  0  0  0  0  0  0  0  0  0  0
  185.1810  178.5280  140.2720 C   0  0  1  0  0  3  0  0  0  0  0  0
  187.8380  178.6170  140.3760 C   0  0  0  0  0  1  0  0  0  0  0  0
  186.5340  178.4250  139.6790 C   0  0  0  0  0  0  0  0  0  0  0  0
  182.3110  178.3860  137.8030 O   0  0  0  0  0  0  0  0  0  0  0  0
  182.4430  179.1250  141.3970 N   0  0  0  0  0  2  0  0  0  0  0  0
  179.9750  178.9720  137.3870 C   0  0  0  0  0  2  0  0  0  0  0  0
  186.4860  178.2030  138.4070 N   0  0  0  0  0  0  0  0  0  0  0  0
  183.3030  178.8130  143.5220 C   0  0  0  0  0  0  0  0  0  0  0  0
  179.6350  184.2040  136.3960 N   0  0  1  0  0  0  0  0  0  0  0  0
  181.3350  182.4810  137.1320 C   0  0  0  0  0  2  0  0  0  0  0  0
  179.4410  183.1930  135.3530 C   0  0  0  0  0  2  0  0  0  0  0  0
  180.2180  181.4430  137.0300 C   0  0  1  0  0  3  0  0  0  0  0  0
  180.7320  183.8730  137.3510 C   0  0  1  0  0  3  0  0  0  0  0  0
  179.1790  181.8170  135.9660 C   0  0  0  0  0  2  0  0  0  0  0  0
  180.9940  184.7320  136.2010 C   0  0  0  0  0  2  0  0  0  0  0  0
  184.2790  178.6740  145.8360 N   0  0  0  0  0  2  0  0  0  0  0  0
  185.2720  179.1400  146.7110 N   0  0  0  0  0  2  0  0  0  0  0  0
  185.8200  177.9800  147.3960 C   0  0  0  0  0  2  0  0  0  0  0  0
  187.3010  178.0910  147.4500 C   0  0  0  0  0  0  0  0  0  0  0  0
  188.0890  177.5770  146.3760 N   0  0  0  0  0  2  0  0  0  0  0  0
  187.8490  178.6670  148.4270 O   0  0  0  0  0  0  0  0  0  0  0  0
  189.4790  177.7570  146.3340 N   0  0  0  0  0  2  0  0  0  0  0  0
  189.3740  176.2960  142.8620 C   0  0  0  0  0  2  0  0  0  0  0  0
  191.2210  176.7390  144.9600 C   0  0  0  0  0  2  0  0  0  0  0  0
  188.8220  176.7420  144.2150 C   0  0  0  0  0  2  0  0  0  0  0  0
  189.9050  177.5140  144.9650 C   0  0  0  0  0  3  0  0  0  0  0  0
  191.5320  176.2990  143.5300 C   0  0  0  0  0  2  0  0  0  0  0  0
  190.4990  175.4710  143.0490 O   0  0  0  0  0  0  0  0  0  0  0  0
  1 30  1  0  0  0  0
  2  3  2  0  0  0  0
  3  1  1  0  0  0  0
  4 18  1  6  0  0  0
  4 12  1  0  0  0  0
  5  9  2  0  0  0  0
  5 12  1  0  0  0  0
  6 26  1  0  0  0  0
  6 20  1  1  0  0  0
  6 11  1  0  0  0  0
  7  4  1  0  0  0  0
 10 21  1  0  0  0  0
 10  7  2  0  0  0  0
 11 20  1  1  0  0  0
 11  5  1  0  0  0  0
 12 19  1  0  0  0  0
 13 14  2  0  0  0  0
 13  2  1  0  0  0  0
 14 22  1  0  0  0  0
 15  7  1  1  0  0  0
 15 13  1  0  0  0  0
 17 15  1  0  0  0  0
 17 16  1  0  0  0  0
 18 11  1  0  0  0  0
 19 14  1  0  0  0  0
 21 17  2  0  0  0  0
 22  8  1  0  0  0  0
 22  1  2  0  0  0  0
 23 25  1  6  0  0  0
 23 27  1  0  0  0  0
 24 27  1  0  0  0  0
 25 28  1  0  0  0  0
 26 28  1  6  0  0  0
 26 24  1  0  0  0  0
 27 29  1  6  0  0  0
 29 23  1  0  0  0  0
 30 31  1  0  0  0  0
 31 32  1  0  0  0  0
 32 33  1  0  0  0  0
 33 35  2  0  0  0  0
 34 33  1  0  0  0  0
 36 34  1  0  0  0  0
 37 42  1  0  0  0  0
 37 39  1  0  0  0  0
 38 40  1  0  0  0  0
 39 40  1  0  0  0  0
 40 36  1  0  0  0  0
 41 38  1  0  0  0  0
 42 41  1  0  0  0  0
M  END
>  <MODEL>
1

>  <REMARK>
 VINA RESULT:      -9.8      0.000      0.000
  Name = 
  7 active torsions:
  status: ('A' for Active; 'I' for Inactive)
    1  A    between atoms: N_5  and  N_15
    2  A    between atoms: N_5  and  C_25
    3  A    between atoms: C_6  and  C_20
    4  A    between atoms: C_7  and  N_22
    5  A    between atoms: C_11  and  C_14
    6  A    between atoms: C_14  and  N_35
    7  A    between atoms: N_22  and  N_35
                            x       y       z     vdW  Elec       q    Type
                         _______ _______ _______ _____ _____    ______ ____

>  <TORSDO>
F 7

$$$$
=
 OpenBabel11042412593D

 42 49  0  0  1  0  0  0  0  0999 V2000
  184.8020  178.6530  144.4090 C   0  0  0  0  0  0  0  0  0  0  0  0
  182.4130  178.9120  144.2700 C   0  0  0  0  0  3  0  0  0  0  0  0
  183.5780  178.8830  145.0170 C   0  0  0  0  0  3  0  0  0  0  0  0
  181.8280  179.0270  139.7590 C   0  0  1  0  0  3  0  0  0  0  0  0
  182.9630  177.2810  138.8120 C   0  0  0  0  0  0  0  0  0  0  0  0
  181.3110  177.0290  136.7270 C   0  0  1  0  0  3  0  0  0  0  0  0
  180.8500  178.9860  140.8610 C   0  0  0  0  0  0  0  0  0  0  0  0
  186.1690  178.2460  142.3250 C   0  0  0  0  0  1  0  0  0  0  0  0
  183.8750  176.4410  138.5860 O   0  0  0  0  0  0  0  0  0  0  0  0
  179.5550  179.2430  140.7400 C   0  0  0  0  0  3  0  0  0  0  0  0
  181.9460  177.7720  137.8890 C   0  0  1  0  0  0  0  0  0  0  0  0
  182.8040  177.9860  140.0060 N   0  0  0  0  0  0  0  0  0  0  0  0
  182.3950  178.7170  142.8820 C   0  0  0  0  0  0  0  0  0  0  0  0
  183.6600  178.4380  142.2350 C   0  0  0  0  0  0  0  0  0  0  0  0
  181.1790  178.8400  142.2770 C   0  0  1  0  0  3  0  0  0  0  0  0
  179.5120  178.9120  144.3490 C   0  0  0  0  0  1  0  0  0  0  0  0
  179.8490  179.0240  142.9010 C   0  0  0  0  0  0  0  0  0  0  0  0
  181.2060  178.8060  138.4880 O   0  0  0  0  0  0  0  0  0  0  0  0
  183.8000  178.0800  140.9830 N   0  0  0  0  0  2  0  0  0  0  0  0
  182.4010  178.0800  136.4850 C   0  0  0  0  0  2  0  0  0  0  0  0
  178.9310  179.2410  142.0190 N   0  0  0  0  0  0  0  0  0  0  0  0
  184.8500  178.4450  143.0130 C   0  0  0  0  0  0  0  0  0  0  0  0
  181.7190  172.8710  135.6850 N   0  0  1  0  0  0  0  0  0  0  0  0
  181.0750  174.6310  137.3840 C   0  0  0  0  0  2  0  0  0  0  0  0
  181.2040  173.9120  134.7910 C   0  0  0  0  0  2  0  0  0  0  0  0
  181.8760  175.6270  136.5470 C   0  0  1  0  0  3  0  0  0  0  0  0
  181.5870  173.2100  137.1320 C   0  0  1  0  0  3  0  0  0  0  0  0
  181.8880  175.2530  135.0600 C   0  0  0  0  0  2  0  0  0  0  0  0
  180.5660  172.4050  136.4710 C   0  0  0  0  0  2  0  0  0  0  0  0
  185.9600  178.6440  145.2600 N   0  0  0  0  0  2  0  0  0  0  0  0
  186.3140  177.5790  146.1020 N   0  0  0  0  0  2  0  0  0  0  0  0
  186.9480  178.1530  147.2780 C   0  0  0  0  0  2  0  0  0  0  0  0
  188.4060  177.8670  147.2450 C   0  0  0  0  0  0  0  0  0  0  0  0
  188.9860  177.2800  146.0790 N   0  0  0  0  0  2  0  0  0  0  0  0
  189.1260  178.1730  148.2320 O   0  0  0  0  0  0  0  0  0  0  0  0
  190.3710  177.0950  145.9620 N   0  0  0  0  0  2  0  0  0  0  0  0
  191.6450  177.5440  142.4440 C   0  0  0  0  0  2  0  0  0  0  0  0
  189.3340  176.6340  143.8010 C   0  0  0  0  0  2  0  0  0  0  0  0
  191.5550  177.7970  143.9490 C   0  0  0  0  0  2  0  0  0  0  0  0
  190.6440  176.7450  144.5780 C   0  0  0  0  0  3  0  0  0  0  0  0
  189.6490  176.4930  142.3130 C   0  0  0  0  0  2  0  0  0  0  0  0
  190.3630  177.6210  141.8670 O   0  0  0  0  0  0  0  0  0  0  0  0
  1  3  1  0  0  0  0
  1 30  1  0  0  0  0
  2  3  2  0  0  0  0
  4 18  1  6  0  0  0
  4 12  1  0  0  0  0
  4  7  1  0  0  0  0
  5 12  1  0  0  0  0
  6 20  1  6  0  0  0
  6 11  1  0  0  0  0
  8 22  1  0  0  0  0
  9  5  2  0  0  0  0
 10  7  2  0  0  0  0
 10 21  1  0  0  0  0
 11 20  1  6  0  0  0
 11 18  1  0  0  0  0
 11  5  1  0  0  0  0
 12 19  1  0  0  0  0
 13  2  1  0  0  0  0
 14 13  2  0  0  0  0
 14 22  1  0  0  0  0
 15  7  1  6  0  0  0
 15 13  1  0  0  0  0
 15 17  1  0  0  0  0
 17 16  1  0  0  0  0
 19 14  1  0  0  0  0
 21 17  2  0  0  0  0
 22  1  2  0  0  0  0
 23 25  1  6  0  0  0
 23 29  1  0  0  0  0
 23 27  1  0  0  0  0
 25 28  1  0  0  0  0
 26 28  1  6  0  0  0
 26  6  1  0  0  0  0
 26 24  1  0  0  0  0
 27 29  1  6  0  0  0
 27 24  1  0  0  0  0
 30 31  1  0  0  0  0
 31 32  1  0  0  0  0
 33 32  1  0  0  0  0
 33 35  2  0  0  0  0
 34 33  1  0  0  0  0
 36 34  1  0  0  0  0
 37 39  1  0  0  0  0
 38 40  1  0  0  0  0
 39 40  1  0  0  0  0
 40 36  1  0  0  0  0
 41 38  1  0  0  0  0
 42 41  1  0  0  0  0
 42 37  1  0  0  0  0
M  END
>  <MODEL>
2

>  <REMARK>
 VINA RESULT:      -9.0      2.791      5.109
  Name = 
  7 active torsions:
  status: ('A' for Active; 'I' for Inactive)
    1  A    between atoms: N_5  and  N_15
    2  A    between atoms: N_5  and  C_25
    3  A    between atoms: C_6  and  C_20
    4  A    between atoms: C_7  and  N_22
    5  A    between atoms: C_11  and  C_14
    6  A    between atoms: C_14  and  N_35
    7  A    between atoms: N_22  and  N_35
                            x       y       z     vdW  Elec       q    Type
                         _______ _______ _______ _____ _____    ______ ____

>  <TORSDO>
F 7

$$$$
=
 OpenBabel11042412593D

 42 49  0  0  1  0  0  0  0  0999 V2000
  189.1990  177.7460  139.5560 C   0  0  0  0  0  0  0  0  0  0  0  0
  188.4980  177.0210  137.3700 C   0  0  0  0  0  3  0  0  0  0  0  0
  189.4910  177.1940  138.3200 C   0  0  0  0  0  3  0  0  0  0  0  0
  183.9790  177.3640  137.7640 C   0  0  1  0  0  3  0  0  0  0  0  0
  183.4560  179.4110  138.6400 C   0  0  0  0  0  0  0  0  0  0  0  0
  181.0760  179.5820  137.4370 C   0  0  1  0  0  3  0  0  0  0  0  0
  184.8280  177.0610  136.5990 C   0  0  0  0  0  0  0  0  0  0  0  0
  187.5200  178.6880  141.1920 C   0  0  0  0  0  1  0  0  0  0  0  0
  183.5110  180.4430  139.3630 O   0  0  0  0  0  0  0  0  0  0  0  0
  184.3950  176.5610  135.4500 C   0  0  0  0  0  3  0  0  0  0  0  0
  182.2900  178.8440  137.9740 C   0  0  1  0  0  0  0  0  0  0  0  0
  184.5230  178.5430  138.4050 N   0  0  0  0  0  0  0  0  0  0  0  0
  187.1630  177.3830  137.5940 C   0  0  0  0  0  0  0  0  0  0  0  0
  186.8450  177.9970  138.8660 C   0  0  0  0  0  0  0  0  0  0  0  0
  186.2890  177.0910  136.5880 C   0  0  1  0  0  3  0  0  0  0  0  0
  187.9140  176.4140  134.5940 C   0  0  0  0  0  1  0  0  0  0  0  0
  186.5760  176.5600  135.2370 C   0  0  0  0  0  0  0  0  0  0  0  0
  182.6210  177.6120  137.3830 O   0  0  0  0  0  0  0  0  0  0  0  0
  185.6910  178.5320  139.1740 N   0  0  0  0  0  2  0  0  0  0  0  0
  181.0060  178.8170  138.7650 C   0  0  0  0  0  2  0  0  0  0  0  0
  185.4930  176.2720  134.5940 N   0  0  0  0  0  0  0  0  0  0  0  0
  187.8710  178.1360  139.8410 C   0  0  0  0  0  0  0  0  0  0  0  0
  179.9730  183.7200  137.8830 N   0  0  1  0  0  0  0  0  0  0  0  0
  180.8100  181.8420  136.4090 C   0  0  0  0  0  2  0  0  0  0  0  0
  179.2460  182.5920  138.4720 C   0  0  0  0  0  2  0  0  0  0  0  0
  181.1410  181.0810  137.6920 C   0  0  1  0  0  3  0  0  0  0  0  0
  180.7860  183.3480  136.6890 C   0  0  1  0  0  3  0  0  0  0  0  0
  180.2030  181.4590  138.8450 C   0  0  0  0  0  2  0  0  0  0  0  0
  179.4380  183.8810  136.5220 C   0  0  0  0  0  2  0  0  0  0  0  0
  190.2890  177.8840  140.4820 N   0  0  0  0  0  2  0  0  0  0  0  0
  190.7340  176.8650  141.3380 N   0  0  0  0  0  2  0  0  0  0  0  0
  190.7990  177.4260  142.6780 C   0  0  0  0  0  2  0  0  0  0  0  0
  189.7070  176.8540  143.5080 C   0  0  0  0  0  0  0  0  0  0  0  0
  189.4850  177.3530  144.8270 N   0  0  0  0  0  2  0  0  0  0  0  0
  188.9630  175.9570  143.0300 O   0  0  0  0  0  0  0  0  0  0  0  0
  188.4000  176.9200  145.6030 N   0  0  0  0  0  2  0  0  0  0  0  0
  185.7420  179.1710  147.0430 C   0  0  0  0  0  2  0  0  0  0  0  0
  186.2840  177.7120  144.6790 C   0  0  0  0  0  2  0  0  0  0  0  0
  186.9150  178.1910  147.0630 C   0  0  0  0  0  2  0  0  0  0  0  0
  187.4350  178.0070  145.6390 C   0  0  0  0  0  3  0  0  0  0  0  0
  185.1780  178.7440  144.8980 C   0  0  0  0  0  2  0  0  0  0  0  0
  184.7120  178.6710  146.2240 O   0  0  0  0  0  0  0  0  0  0  0  0
  1 22  1  0  0  0  0
  1 30  1  0  0  0  0
  2 13  2  0  0  0  0
  2  3  1  0  0  0  0
  3  1  2  0  0  0  0
  4  7  1  6  0  0  0
  4 12  1  0  0  0  0
  5  9  2  0  0  0  0
  6 26  1  0  0  0  0
  6 11  1  0  0  0  0
  6 20  1  1  0  0  0
 10  7  2  0  0  0  0
 11  5  1  0  0  0  0
 11 20  1  1  0  0  0
 12  5  1  0  0  0  0
 12 19  1  0  0  0  0
 13 14  1  0  0  0  0
 14 19  1  0  0  0  0
 14 22  2  0  0  0  0
 15 17  1  1  0  0  0
 15  7  1  0  0  0  0
 15 13  1  0  0  0  0
 16 17  1  0  0  0  0
 18  4  1  0  0  0  0
 18 11  1  0  0  0  0
 21 17  2  0  0  0  0
 21 10  1  0  0  0  0
 22  8  1  0  0  0  0
 23 29  1  6  0  0  0
 23 25  1  0  0  0  0
 25 28  1  0  0  0  0
 26 24  1  6  0  0  0
 26 28  1  0  0  0  0
 27 24  1  1  0  0  0
 27 23  1  0  0  0  0
 29 27  1  0  0  0  0
 30 31  1  0  0  0  0
 31 32  1  0  0  0  0
 32 33  1  0  0  0  0
 33 34  1  0  0  0  0
 34 36  1  0  0  0  0
 35 33  2  0  0  0  0
 36 40  1  0  0  0  0
 37 39  1  0  0  0  0
 38 41  1  0  0  0  0
 38 40  1  0  0  0  0
 40 39  1  0  0  0  0
 41 42  1  0  0  0  0
 42 37  1  0  0  0  0
M  END
>  <MODEL>
3

>  <REMARK>
 VINA RESULT:      -8.4      2.270      4.560
  Name = 
  7 active torsions:
  status: ('A' for Active; 'I' for Inactive)
    1  A    between atoms: N_5  and  N_15
    2  A    between atoms: N_5  and  C_25
    3  A    between atoms: C_6  and  C_20
    4  A    between atoms: C_7  and  N_22
    5  A    between atoms: C_11  and  C_14
    6  A    between atoms: C_14  and  N_35
    7  A    between atoms: N_22  and  N_35
                            x       y       z     vdW  Elec       q    Type
                         _______ _______ _______ _____ _____    ______ ____

>  <TORSDO>
F 7

$$$$
=
 OpenBabel11042412593D

 42 49  0  0  1  0  0  0  0  0999 V2000
  190.7110  177.5400  139.8430 C   0  0  0  0  0  0  0  0  0  0  0  0
  189.6140  177.3580  141.9780 C   0  0  0  0  0  3  0  0  0  0  0  0
  190.7530  177.2520  141.1980 C   0  0  0  0  0  3  0  0  0  0  0  0
  185.5700  179.2100  141.0220 C   0  0  1  0  0  3  0  0  0  0  0  0
  184.7530  178.2730  139.1020 C   0  0  0  0  0  0  0  0  0  0  0  0
  182.1820  178.5860  139.7630 C   0  0  1  0  0  3  0  0  0  0  0  0
  186.0600  178.5260  142.2330 C   0  0  0  0  0  0  0  0  0  0  0  0
  189.4290  178.3090  137.8070 C   0  0  0  0  0  1  0  0  0  0  0  0
  184.7150  177.7990  137.9350 O   0  0  0  0  0  0  0  0  0  0  0  0
  185.4610  178.5500  143.4150 C   0  0  0  0  0  2  0  0  0  0  0  0
  183.6670  178.8910  139.8550 C   0  0  1  0  0  0  0  0  0  0  0  0
  185.9020  178.3740  139.8870 N   0  0  0  0  0  0  0  0  0  0  0  0
  188.3740  177.7550  141.4620 C   0  0  0  0  0  0  0  0  0  0  0  0
  188.3020  178.0230  140.0410 C   0  0  0  0  0  0  0  0  0  0  0  0
  187.3610  177.8750  142.3670 C   0  0  0  0  0  0  0  0  0  0  0  0
  188.4010  176.7550  144.5440 C   0  0  0  0  0  1  0  0  0  0  0  0
  187.3560  177.5190  143.8030 C   0  0  0  0  0  0  0  0  0  0  0  0
  184.1540  179.4170  141.0650 O   0  0  0  0  0  0  0  0  0  0  0  0
  187.1970  178.2500  139.3740 N   0  0  0  0  0  2  0  0  0  0  0  0
  182.7690  179.8350  139.0950 C   0  0  0  0  0  2  0  0  0  0  0  0
  186.2680  177.8970  144.3880 N   0  0  0  0  0  0  0  0  0  0  0  0
  189.4880  177.9420  139.2610 C   0  0  0  0  0  0  0  0  0  0  0  0
  180.2490  175.3990  137.6070 N   0  0  1  0  0  0  0  0  0  0  0  0
  181.9260  176.1360  139.3520 C   0  0  0  0  0  2  0  0  0  0  0  0
  179.5730  176.5920  138.1230 C   0  0  0  0  0  2  0  0  0  0  0  0
  181.8640  177.5250  138.7190 C   0  0  1  0  0  3  0  0  0  0  0  0
  181.5180  175.0770  138.3230 C   0  0  1  0  0  3  0  0  0  0  0  0
  180.4980  177.8080  138.0820 C   0  0  0  0  0  2  0  0  0  0  0  0
  180.2690  174.4330  138.7160 C   0  0  0  0  0  2  0  0  0  0  0  0
  191.9400  177.4080  139.1110 N   0  0  0  0  0  2  0  0  0  0  0  0
  192.5280  176.1810  138.7680 N   0  0  0  0  0  2  0  0  0  0  0  0
  192.4220  176.0420  137.3240 C   0  0  0  0  0  2  0  0  0  0  0  0
  191.7690  174.7470  136.9990 C   0  0  0  0  0  0  0  0  0  0  0  0
  190.5060  174.4240  137.5820 N   0  0  0  0  0  2  0  0  0  0  0  0
  192.3180  173.9570  136.1850 O   0  0  0  0  0  0  0  0  0  0  0  0
  189.8040  173.2660  137.2190 N   0  0  0  0  0  2  0  0  0  0  0  0
  186.7760  175.4380  136.6600 C   0  0  0  0  0  2  0  0  0  0  0  0
  187.4390  172.7070  136.9960 C   0  0  0  0  0  2  0  0  0  0  0  0
  188.1990  175.0990  137.1020 C   0  0  0  0  0  2  0  0  0  0  0  0
  188.5470  173.6910  136.6250 C   0  0  0  0  0  3  0  0  0  0  0  0
  186.0940  173.2870  136.5590 C   0  0  0  0  0  2  0  0  0  0  0  0
  185.8680  174.5130  137.2100 O   0  0  0  0  0  0  0  0  0  0  0  0
  1  3  1  0  0  0  0
  3  2  2  0  0  0  0
  4 18  1  1  0  0  0
  4  7  1  0  0  0  0
  5 11  1  0  0  0  0
  5 12  1  0  0  0  0
  6 20  1  6  0  0  0
  6 11  1  0  0  0  0
  7 15  2  0  0  0  0
  7 10  1  0  0  0  0
  8 22  1  0  0  0  0
  9  5  2  0  0  0  0
 10 21  1  0  0  0  0
 11 20  1  6  0  0  0
 11 18  1  0  0  0  0
 12  4  1  0  0  0  0
 13  2  1  0  0  0  0
 13 15  1  0  0  0  0
 14 13  2  0  0  0  0
 15 17  1  0  0  0  0
 17 21  2  0  0  0  0
 17 16  1  0  0  0  0
 19 12  1  0  0  0  0
 19 14  1  0  0  0  0
 22  1  2  0  0  0  0
 22 14  1  0  0  0  0
 23 25  1  1  0  0  0
 23 27  1  0  0  0  0
 23 29  1  0  0  0  0
 26 28  1  1  0  0  0
 26 24  1  0  0  0  0
 26  6  1  0  0  0  0
 27 29  1  1  0  0  0
 27 24  1  0  0  0  0
 28 25  1  0  0  0  0
 30  1  1  0  0  0  0
 31 30  1  0  0  0  0
 32 31  1  0  0  0  0
 33 32  1  0  0  0  0
 33 34  1  0  0  0  0
 35 33  2  0  0  0  0
 36 34  1  0  0  0  0
 37 39  1  0  0  0  0
 37 42  1  0  0  0  0
 40 38  1  0  0  0  0
 40 39  1  0  0  0  0
 40 36  1  0  0  0  0
 41 38  1  0  0  0  0
 41 42  1  0  0  0  0
M  END
>  <MODEL>
4

>  <REMARK>
 VINA RESULT:      -8.3      3.707      7.436
  Name = 
  7 active torsions:
  status: ('A' for Active; 'I' for Inactive)
    1  A    between atoms: N_5  and  N_15
    2  A    between atoms: N_5  and  C_25
    3  A    between atoms: C_6  and  C_20
    4  A    between atoms: C_7  and  N_22
    5  A    between atoms: C_11  and  C_14
    6  A    between atoms: C_14  and  N_35
    7  A    between atoms: N_22  and  N_35
                            x       y       z     vdW  Elec       q    Type
                         _______ _______ _______ _____ _____    ______ ____

>  <TORSDO>
F 7

$$$$
=
 OpenBabel11042412593D

 42 49  0  0  1  0  0  0  0  0999 V2000
  188.5030  178.2950  140.1740 C   0  0  0  0  0  0  0  0  0  0  0  0
  186.7270  178.5300  141.7820 C   0  0  0  0  0  3  0  0  0  0  0  0
  188.0770  178.4530  141.4830 C   0  0  0  0  0  3  0  0  0  0  0  0
  183.1400  179.0280  139.0280 C   0  0  1  0  0  3  0  0  0  0  0  0
  183.1870  177.3880  137.4340 C   0  0  0  0  0  0  0  0  0  0  0  0
  180.5350  177.2930  137.1150 C   0  0  1  0  0  3  0  0  0  0  0  0
  183.2230  178.8780  140.4920 C   0  0  0  0  0  0  0  0  0  0  0  0
  187.9800  178.0900  137.7110 C   0  0  0  0  0  1  0  0  0  0  0  0
  183.6300  176.5840  136.5700 O   0  0  0  0  0  0  0  0  0  0  0  0
  182.2340  179.1250  141.3400 C   0  0  0  0  0  2  0  0  0  0  0  0
  181.8420  177.9420  137.5380 C   0  0  1  0  0  0  0  0  0  0  0  0
  183.9520  177.9830  138.4370 N   0  0  0  0  0  0  0  0  0  0  0  0
  185.7270  178.4560  140.8040 C   0  0  0  0  0  0  0  0  0  0  0  0
  186.1510  178.2530  139.4350 C   0  0  0  0  0  0  0  0  0  0  0  0
  184.4460  178.6140  141.2460 C   0  0  0  0  0  0  0  0  0  0  0  0
  184.7310  178.4810  143.8880 C   0  0  0  0  0  1  0  0  0  0  0  0
  183.9550  178.7230  142.6370 C   0  0  0  0  0  0  0  0  0  0  0  0
  181.7930  178.9090  138.5570 O   0  0  0  0  0  0  0  0  0  0  0  0
  185.3500  178.0070  138.4280 N   0  0  0  0  0  2  0  0  0  0  0  0
  181.1890  178.3770  136.2500 C   0  0  0  0  0  2  0  0  0  0  0  0
  182.6940  179.0030  142.6810 N   0  0  0  0  0  0  0  0  0  0  0  0
  187.5420  178.2100  139.1410 C   0  0  0  0  0  0  0  0  0  0  0  0
  179.9280  173.2070  135.9010 N   0  0  1  0  0  0  0  0  0  0  0  0
  180.8440  174.8600  137.5830 C   0  0  0  0  0  2  0  0  0  0  0  0
  178.9310  174.2740  135.7790 C   0  0  0  0  0  2  0  0  0  0  0  0
  180.7370  175.9210  136.4880 C   0  0  1  0  0  3  0  0  0  0  0  0
  180.9560  173.4690  136.9490 C   0  0  1  0  0  3  0  0  0  0  0  0
  179.6000  175.6210  135.5040 C   0  0  0  0  0  2  0  0  0  0  0  0
  179.7780  172.6660  137.2610 C   0  0  0  0  0  2  0  0  0  0  0  0
  189.9210  178.2290  139.9540 N   0  0  0  0  0  2  0  0  0  0  0  0
  190.7200  177.1200  140.2720 N   0  0  0  0  0  2  0  0  0  0  0  0
  191.5640  177.5050  141.3920 C   0  0  0  0  0  2  0  0  0  0  0  0
  191.1910  176.7080  142.5900 C   0  0  0  0  0  0  0  0  0  0  0  0
  191.5420  177.1800  143.8910 N   0  0  0  0  0  2  0  0  0  0  0  0
  190.5390  175.6400  142.4510 O   0  0  0  0  0  0  0  0  0  0  0  0
  191.1160  176.5180  145.0510 N   0  0  0  0  0  2  0  0  0  0  0  0
  189.0120  177.8720  147.8700 C   0  0  0  0  0  2  0  0  0  0  0  0
  188.7560  177.1320  145.1500 C   0  0  0  0  0  2  0  0  0  0  0  0
  190.1800  177.1310  147.2190 C   0  0  0  0  0  2  0  0  0  0  0  0
  190.1530  177.3840  145.7130 C   0  0  0  0  0  3  0  0  0  0  0  0
  187.7340  177.8780  146.0070 C   0  0  0  0  0  2  0  0  0  0  0  0
  187.7930  177.4130  147.3340 O   0  0  0  0  0  0  0  0  0  0  0  0
  1  3  1  0  0  0  0
  3  2  2  0  0  0  0
  4 18  1  6  0  0  0
  4  7  1  0  0  0  0
  5 11  1  0  0  0  0
  5 12  1  0  0  0  0
  6 20  1  6  0  0  0
  6 11  1  0  0  0  0
  7 15  2  0  0  0  0
  7 10  1  0  0  0  0
  8 22  1  0  0  0  0
  9  5  2  0  0  0  0
 10 21  1  0  0  0  0
 11 20  1  6  0  0  0
 11 18  1  0  0  0  0
 12  4  1  0  0  0  0
 13 15  1  0  0  0  0
 13  2  1  0  0  0  0
 14 13  2  0  0  0  0
 15 17  1  0  0  0  0
 17 21  2  0  0  0  0
 17 16  1  0  0  0  0
 19 12  1  0  0  0  0
 19 14  1  0  0  0  0
 22 14  1  0  0  0  0
 22  1  2  0  0  0  0
 23 25  1  1  0  0  0
 23 27  1  0  0  0  0
 23 29  1  0  0  0  0
 26 28  1  6  0  0  0
 26  6  1  0  0  0  0
 26 24  1  0  0  0  0
 27 29  1  1  0  0  0
 27 24  1  0  0  0  0
 28 25  1  0  0  0  0
 30  1  1  0  0  0  0
 30 31  1  0  0  0  0
 31 32  1  0  0  0  0
 32 33  1  0  0  0  0
 33 34  1  0  0  0  0
 34 36  1  0  0  0  0
 35 33  2  0  0  0  0
 36 40  1  0  0  0  0
 38 40  1  0  0  0  0
 38 41  1  0  0  0  0
 39 37  1  0  0  0  0
 40 39  1  0  0  0  0
 41 42  1  0  0  0  0
 42 37  1  0  0  0  0
M  END
>  <MODEL>
5

>  <REMARK>
 VINA RESULT:      -8.3      2.787      5.729
  Name = 
  7 active torsions:
  status: ('A' for Active; 'I' for Inactive)
    1  A    between atoms: N_5  and  N_15
    2  A    between atoms: N_5  and  C_25
    3  A    between atoms: C_6  and  C_20
    4  A    between atoms: C_7  and  N_22
    5  A    between atoms: C_11  and  C_14
    6  A    between atoms: C_14  and  N_35
    7  A    between atoms: N_22  and  N_35
                            x       y       z     vdW  Elec       q    Type
                         _______ _______ _______ _____ _____    ______ ____

>  <TORSDO>
F 7

$$$$
=
 OpenBabel11042412593D

 42 49  0  0  1  0  0  0  0  0999 V2000
  190.7210  177.3440  139.7310 C   0  0  0  0  0  0  0  0  0  0  0  0
  189.6640  177.2510  141.8920 C   0  0  0  0  0  3  0  0  0  0  0  0
  190.7810  177.0850  141.0910 C   0  0  0  0  0  3  0  0  0  0  0  0
  185.6740  179.2360  140.9770 C   0  0  1  0  0  3  0  0  0  0  0  0
  184.7800  178.2900  139.0960 C   0  0  0  0  0  0  0  0  0  0  0  0
  182.2380  178.7160  139.8010 C   0  0  1  0  0  3  0  0  0  0  0  0
  186.1620  178.5610  142.1920 C   0  0  0  0  0  0  0  0  0  0  0  0
  189.4260  178.1170  137.7040 C   0  0  0  0  0  1  0  0  0  0  0  0
  184.7000  177.7920  137.9400 O   0  0  0  0  0  0  0  0  0  0  0  0
  185.5900  178.6340  143.3860 C   0  0  0  0  0  2  0  0  0  0  0  0
  183.7350  178.9650  139.8560 C   0  0  1  0  0  0  0  0  0  0  0  0
  185.9490  178.3640  139.8540 N   0  0  0  0  0  0  0  0  0  0  0  0
  188.4290  177.6840  141.3920 C   0  0  0  0  0  0  0  0  0  0  0  0
  188.3360  177.9240  139.9670 C   0  0  0  0  0  0  0  0  0  0  0  0
  187.4400  177.8640  142.3140 C   0  0  0  0  0  0  0  0  0  0  0  0
  188.4830  176.7520  144.4950 C   0  0  0  0  0  1  0  0  0  0  0  0
  187.4530  177.5400  143.7590 C   0  0  0  0  0  0  0  0  0  0  0  0
  184.2670  179.4990  141.0430 O   0  0  0  0  0  0  0  0  0  0  0  0
  187.2280  178.1780  139.3180 N   0  0  0  0  0  2  0  0  0  0  0  0
  182.8580  179.9260  139.0930 C   0  0  0  0  0  2  0  0  0  0  0  0
  186.3920  177.9720  144.3570 N   0  0  0  0  0  0  0  0  0  0  0  0
  189.5020  177.7800  139.1650 C   0  0  0  0  0  0  0  0  0  0  0  0
  180.1310  175.5720  137.7480 N   0  0  1  0  0  0  0  0  0  0  0  0
  181.8610  176.2710  139.4560 C   0  0  0  0  0  2  0  0  0  0  0  0
  179.5180  176.8090  138.2400 C   0  0  0  0  0  2  0  0  0  0  0  0
  181.8580  177.6460  138.7880 C   0  0  1  0  0  3  0  0  0  0  0  0
  181.3910  175.2080  138.4590 C   0  0  1  0  0  3  0  0  0  0  0  0
  180.5000  177.9780  138.1580 C   0  0  0  0  0  2  0  0  0  0  0  0
  180.1170  174.6340  138.8820 C   0  0  0  0  0  2  0  0  0  0  0  0
  191.9280  177.1490  138.9770 N   0  0  0  0  0  2  0  0  0  0  0  0
  192.2240  175.9890  138.2450 N   0  0  0  0  0  2  0  0  0  0  0  0
  193.0960  176.3820  137.1500 C   0  0  0  0  0  2  0  0  0  0  0  0
  194.1550  175.3550  136.9660 C   0  0  0  0  0  0  0  0  0  0  0  0
  194.4850  174.4790  138.0440 N   0  0  0  0  0  2  0  0  0  0  0  0
  194.7300  175.2440  135.8510 O   0  0  0  0  0  0  0  0  0  0  0  0
  195.3990  173.4270  137.8810 N   0  0  0  0  0  2  0  0  0  0  0  0
  197.4820  175.2540  140.4350 C   0  0  0  0  0  2  0  0  0  0  0  0
  197.6710  174.3120  137.7730 C   0  0  0  0  0  2  0  0  0  0  0  0
  196.2040  174.7520  139.7640 C   0  0  0  0  0  2  0  0  0  0  0  0
  196.5740  173.7490  138.6740 C   0  0  0  0  0  3  0  0  0  0  0  0
  198.8020  174.8530  138.6470 C   0  0  0  0  0  2  0  0  0  0  0  0
  198.3140  175.8730  139.4830 O   0  0  0  0  0  0  0  0  0  0  0  0
  1  3  1  0  0  0  0
  3  2  2  0  0  0  0
  4 18  1  1  0  0  0
  4  7  1  0  0  0  0
  5 12  1  0  0  0  0
  5 11  1  0  0  0  0
  6 20  1  6  0  0  0
  6 11  1  0  0  0  0
  7 15  2  0  0  0  0
  7 10  1  0  0  0  0
  8 22  1  0  0  0  0
  9  5  2  0  0  0  0
 10 21  1  0  0  0  0
 11 20  1  6  0  0  0
 11 18  1  0  0  0  0
 12  4  1  0  0  0  0
 13  2  1  0  0  0  0
 13 15  1  0  0  0  0
 14 13  2  0  0  0  0
 15 17  1  0  0  0  0
 17 21  2  0  0  0  0
 17 16  1  0  0  0  0
 19 12  1  0  0  0  0
 19 14  1  0  0  0  0
 22  1  2  0  0  0  0
 22 14  1  0  0  0  0
 23 25  1  1  0  0  0
 23 27  1  0  0  0  0
 23 29  1  0  0  0  0
 26 28  1  1  0  0  0
 26 24  1  0  0  0  0
 26  6  1  0  0  0  0
 27 29  1  1  0  0  0
 27 24  1  0  0  0  0
 28 25  1  0  0  0  0
 30  1  1  0  0  0  0
 31 30  1  0  0  0  0
 32 31  1  0  0  0  0
 33 32  1  0  0  0  0
 33 34  1  0  0  0  0
 35 33  2  0  0  0  0
 36 34  1  0  0  0  0
 36 40  1  0  0  0  0
 38 41  1  0  0  0  0
 38 40  1  0  0  0  0
 39 37  1  0  0  0  0
 40 39  1  0  0  0  0
 41 42  1  0  0  0  0
 42 37  1  0  0  0  0
M  END
>  <MODEL>
6

>  <REMARK>
 VINA RESULT:      -8.3      4.708      7.737
  Name = 
  7 active torsions:
  status: ('A' for Active; 'I' for Inactive)
    1  A    between atoms: N_5  and  N_15
    2  A    between atoms: N_5  and  C_25
    3  A    between atoms: C_6  and  C_20
    4  A    between atoms: C_7  and  N_22
    5  A    between atoms: C_11  and  C_14
    6  A    between atoms: C_14  and  N_35
    7  A    between atoms: N_22  and  N_35
                            x       y       z     vdW  Elec       q    Type
                         _______ _______ _______ _____ _____    ______ ____

>  <TORSDO>
F 7

$$$$
=
 OpenBabel11042412593D

 42 49  0  0  1  0  0  0  0  0999 V2000
  184.1190  178.9160  144.1790 C   0  0  0  0  0  0  0  0  0  0  0  0
  182.6040  178.3860  142.3850 C   0  0  0  0  0  3  0  0  0  0  0  0
  182.8410  178.6280  143.7270 C   0  0  0  0  0  3  0  0  0  0  0  0
  185.3030  179.0060  138.7750 C   0  0  1  0  0  3  0  0  0  0  0  0
  187.2800  177.9070  139.1210 C   0  0  0  0  0  0  0  0  0  0  0  0
  187.7520  177.4510  136.5300 C   0  0  1  0  0  3  0  0  0  0  0  0
  183.9340  178.4710  138.8790 C   0  0  0  0  0  0  0  0  0  0  0  0
  186.5680  179.3180  143.7090 C   0  0  0  0  0  1  0  0  0  0  0  0
  188.3060  177.4640  139.7040 O   0  0  0  0  0  0  0  0  0  0  0  0
  183.1040  178.2990  137.8590 C   0  0  0  0  0  3  0  0  0  0  0  0
  187.1000  178.1710  137.6980 C   0  0  1  0  0  0  0  0  0  0  0  0
  186.1130  178.3220  139.7630 N   0  0  0  0  0  0  0  0  0  0  0  0
  183.6170  178.4160  141.4170 C   0  0  0  0  0  0  0  0  0  0  0  0
  184.9650  178.6770  141.8750 C   0  0  0  0  0  0  0  0  0  0  0  0
  183.2170  178.2220  140.1270 C   0  0  1  0  0  3  0  0  0  0  0  0
  180.7010  177.4110  140.4230 C   0  0  0  0  0  1  0  0  0  0  0  0
  181.8760  177.8540  139.6200 C   0  0  0  0  0  0  0  0  0  0  0  0
  185.8600  178.7930  137.4730 O   0  0  0  0  0  0  0  0  0  0  0  0
  186.0410  178.5870  141.1350 N   0  0  0  0  0  2  0  0  0  0  0  0
  188.2530  178.8280  136.9820 C   0  0  0  0  0  2  0  0  0  0  0  0
  181.8250  177.8900  138.3290 N   0  0  0  0  0  0  0  0  0  0  0  0
  185.1850  178.9570  143.2520 C   0  0  0  0  0  0  0  0  0  0  0  0
  190.3770  174.0380  136.5230 N   0  0  1  0  0  0  0  0  0  0  0  0
  188.0560  174.9920  136.8440 C   0  0  0  0  0  2  0  0  0  0  0  0
  190.4080  175.1200  135.5360 C   0  0  0  0  0  2  0  0  0  0  0  0
  188.7180  176.3630  136.9770 C   0  0  1  0  0  3  0  0  0  0  0  0
  189.0590  173.8930  137.2080 C   0  0  1  0  0  3  0  0  0  0  0  0
  190.0210  176.4550  136.1730 C   0  0  0  0  0  2  0  0  0  0  0  0
  189.3730  173.0760  136.0400 C   0  0  0  0  0  2  0  0  0  0  0  0
  184.2730  179.1580  145.5870 N   0  0  0  0  0  2  0  0  0  0  0  0
  184.8690  178.2590  146.4830 N   0  0  0  0  0  2  0  0  0  0  0  0
  185.7530  179.0300  147.3430 C   0  0  0  0  0  2  0  0  0  0  0  0
  187.0650  178.3400  147.4510 C   0  0  0  0  0  0  0  0  0  0  0  0
  187.5150  177.5030  146.3850 N   0  0  0  0  0  2  0  0  0  0  0  0
  187.7850  178.5240  148.4680 O   0  0  0  0  0  0  0  0  0  0  0  0
  188.7910  176.9220  146.3980 N   0  0  0  0  0  2  0  0  0  0  0  0
  189.8430  177.0360  142.7810 C   0  0  0  0  0  2  0  0  0  0  0  0
  190.9920  177.1380  145.3650 C   0  0  0  0  0  2  0  0  0  0  0  0
  188.9470  176.7030  143.9730 C   0  0  0  0  0  2  0  0  0  0  0  0
  189.4940  177.3980  145.2180 C   0  0  0  0  0  3  0  0  0  0  0  0
  191.6800  177.4330  144.0330 C   0  0  0  0  0  2  0  0  0  0  0  0
  191.1570  176.5970  143.0290 O   0  0  0  0  0  0  0  0  0  0  0  0
  1 30  1  0  0  0  0
  2  3  2  0  0  0  0
  3  1  1  0  0  0  0
  4 18  1  6  0  0  0
  4  7  1  0  0  0  0
  4 12  1  0  0  0  0
  5  9  2  0  0  0  0
  5 12  1  0  0  0  0
  6 26  1  0  0  0  0
  6 20  1  1  0  0  0
  6 11  1  0  0  0  0
 10 21  1  0  0  0  0
 10  7  2  0  0  0  0
 11 20  1  6  0  0  0
 11  5  1  0  0  0  0
 12 19  1  0  0  0  0
 13 14  2  0  0  0  0
 13  2  1  0  0  0  0
 14 22  1  0  0  0  0
 15  7  1  6  0  0  0
 15 13  1  0  0  0  0
 17 15  1  0  0  0  0
 17 16  1  0  0  0  0
 18 11  1  0  0  0  0
 19 14  1  0  0  0  0
 21 17  2  0  0  0  0
 22  8  1  0  0  0  0
 22  1  2  0  0  0  0
 23 25  1  6  0  0  0
 23 27  1  0  0  0  0
 24 26  1  0  0  0  0
 24 27  1  0  0  0  0
 25 28  1  0  0  0  0
 26 28  1  6  0  0  0
 27 29  1  6  0  0  0
 29 23  1  0  0  0  0
 30 31  1  0  0  0  0
 31 32  1  0  0  0  0
 32 33  1  0  0  0  0
 33 35  2  0  0  0  0
 34 36  1  0  0  0  0
 34 33  1  0  0  0  0
 37 42  1  0  0  0  0
 37 39  1  0  0  0  0
 39 40  1  0  0  0  0
 40 38  1  0  0  0  0
 40 36  1  0  0  0  0
 41 38  1  0  0  0  0
 42 41  1  0  0  0  0
M  END
>  <MODEL>
7

>  <REMARK>
 VINA RESULT:      -7.9      2.961      6.180
  Name = 
  7 active torsions:
  status: ('A' for Active; 'I' for Inactive)
    1  A    between atoms: N_5  and  N_15
    2  A    between atoms: N_5  and  C_25
    3  A    between atoms: C_6  and  C_20
    4  A    between atoms: C_7  and  N_22
    5  A    between atoms: C_11  and  C_14
    6  A    between atoms: C_14  and  N_35
    7  A    between atoms: N_22  and  N_35
                            x       y       z     vdW  Elec       q    Type
                         _______ _______ _______ _____ _____    ______ ____

>  <TORSDO>
F 7

$$$$
=
 OpenBabel11042412593D

 42 49  0  0  1  0  0  0  0  0999 V2000
  181.4610  178.2780  138.2150 C   0  0  0  0  0  0  0  0  0  0  0  0
  182.2710  176.1050  137.5690 C   0  0  0  0  0  3  0  0  0  0  0  0
  181.2210  176.9720  137.8200 C   0  0  0  0  0  3  0  0  0  0  0  0
  186.7230  176.9410  137.1510 C   0  0  1  0  0  3  0  0  0  0  0  0
  187.4540  178.0550  139.0110 C   0  0  0  0  0  0  0  0  0  0  0  0
  189.9460  177.0970  138.8960 C   0  0  1  0  0  3  0  0  0  0  0  0
  185.9650  175.6790  137.0840 C   0  0  0  0  0  0  0  0  0  0  0  0
  183.0820  180.1430  138.7410 C   0  0  0  0  0  1  0  0  0  0  0  0
  187.4790  178.8660  139.9760 O   0  0  0  0  0  0  0  0  0  0  0  0
  186.4370  174.5320  136.6160 C   0  0  0  0  0  3  0  0  0  0  0  0
  188.5840  177.4460  138.3200 C   0  0  1  0  0  0  0  0  0  0  0  0
  186.2990  177.6410  138.3460 N   0  0  0  0  0  0  0  0  0  0  0  0
  183.6140  176.4830  137.6930 C   0  0  0  0  0  0  0  0  0  0  0  0
  183.8850  177.8320  138.1420 C   0  0  0  0  0  0  0  0  0  0  0  0
  184.5350  175.5380  137.3480 C   0  0  1  0  0  3  0  0  0  0  0  0
  183.0460  173.3470  137.1040 C   0  0  0  0  0  1  0  0  0  0  0  0
  184.3150  174.1210  136.9810 C   0  0  0  0  0  0  0  0  0  0  0  0
  188.1360  176.7110  137.2090 O   0  0  0  0  0  0  0  0  0  0  0  0
  185.0680  178.2950  138.4600 N   0  0  0  0  0  2  0  0  0  0  0  0
  189.7590  178.3450  138.0250 C   0  0  0  0  0  2  0  0  0  0  0  0
  185.4040  173.5550  136.5770 N   0  0  0  0  0  0  0  0  0  0  0  0
  182.7960  178.7190  138.3640 C   0  0  0  0  0  0  0  0  0  0  0  0
  191.0880  177.1250  143.0480 N   0  0  1  0  0  0  0  0  0  0  0  0
  189.4610  176.4100  141.2480 C   0  0  0  0  0  2  0  0  0  0  0  0
  192.0130  176.9430  141.9260 C   0  0  0  0  0  2  0  0  0  0  0  0
  190.0810  177.4890  140.3610 C   0  0  1  0  0  3  0  0  0  0  0  0
  189.6780  176.7610  142.7230 C   0  0  1  0  0  3  0  0  0  0  0  0
  191.5550  177.7390  140.7030 C   0  0  0  0  0  2  0  0  0  0  0  0
  190.5600  175.7880  143.3590 C   0  0  0  0  0  2  0  0  0  0  0  0
  180.3130  179.1090  138.4510 N   0  0  0  0  0  2  0  0  0  0  0  0
  179.5380  179.0740  139.6200 N   0  0  0  0  0  2  0  0  0  0  0  0
  179.7040  180.3560  140.2840 C   0  0  0  0  0  2  0  0  0  0  0  0
  180.0640  180.1330  141.7090 C   0  0  0  0  0  0  0  0  0  0  0  0
  180.8820  179.0180  142.0660 N   0  0  0  0  0  2  0  0  0  0  0  0
  179.6730  180.9470  142.5870 O   0  0  0  0  0  0  0  0  0  0  0  0
  181.3350  178.8310  143.3800 N   0  0  0  0  0  2  0  0  0  0  0  0
  184.9840  178.8930  142.4400 C   0  0  0  0  0  2  0  0  0  0  0  0
  183.3530  178.8450  144.7530 C   0  0  0  0  0  2  0  0  0  0  0  0
  183.4890  178.6320  142.2540 C   0  0  0  0  0  2  0  0  0  0  0  0
  182.7260  179.2530  143.4210 C   0  0  0  0  0  3  0  0  0  0  0  0
  184.8600  179.0900  144.6870 C   0  0  0  0  0  2  0  0  0  0  0  0
  185.4240  178.3230  143.6500 O   0  0  0  0  0  0  0  0  0  0  0  0
  1 22  1  0  0  0  0
  1 30  1  0  0  0  0
  2 13  2  0  0  0  0
  2  3  1  0  0  0  0
  3  1  2  0  0  0  0
  4  7  1  1  0  0  0
  4 18  1  0  0  0  0
  4 12  1  0  0  0  0
  5  9  2  0  0  0  0
  6 20  1  6  0  0  0
  6 26  1  0  0  0  0
  7 15  1  0  0  0  0
 10  7  2  0  0  0  0
 11 20  1  6  0  0  0
 11  6  1  0  0  0  0
 11  5  1  0  0  0  0
 12 19  1  0  0  0  0
 12  5  1  0  0  0  0
 13 14  1  0  0  0  0
 14 22  2  0  0  0  0
 14 19  1  0  0  0  0
 15 17  1  6  0  0  0
 15 13  1  0  0  0  0
 17 16  1  0  0  0  0
 18 11  1  0  0  0  0
 21 10  1  0  0  0  0
 21 17  2  0  0  0  0
 22  8  1  0  0  0  0
 23 25  1  6  0  0  0
 23 29  1  0  0  0  0
 26 28  1  1  0  0  0
 26 24  1  0  0  0  0
 27 24  1  6  0  0  0
 27 23  1  0  0  0  0
 27 29  1  0  0  0  0
 28 25  1  0  0  0  0
 30 31  1  0  0  0  0
 31 32  1  0  0  0  0
 32 33  1  0  0  0  0
 33 34  1  0  0  0  0
 33 35  2  0  0  0  0
 34 36  1  0  0  0  0
 36 40  1  0  0  0  0
 37 42  1  0  0  0  0
 39 37  1  0  0  0  0
 39 40  1  0  0  0  0
 40 38  1  0  0  0  0
 41 38  1  0  0  0  0
 42 41  1  0  0  0  0
M  END
>  <MODEL>
8

>  <REMARK>
 VINA RESULT:      -7.9      3.142      8.450
  Name = 
  7 active torsions:
  status: ('A' for Active; 'I' for Inactive)
    1  A    between atoms: N_5  and  N_15
    2  A    between atoms: N_5  and  C_25
    3  A    between atoms: C_6  and  C_20
    4  A    between atoms: C_7  and  N_22
    5  A    between atoms: C_11  and  C_14
    6  A    between atoms: C_14  and  N_35
    7  A    between atoms: N_22  and  N_35
                            x       y       z     vdW  Elec       q    Type
                         _______ _______ _______ _____ _____    ______ ____

>  <TORSDO>
F 7

$$$$
=
 OpenBabel11042412593D

 42 49  0  0  1  0  0  0  0  0999 V2000
  186.3010  178.6260  140.8230 C   0  0  0  0  0  0  0  0  0  0  0  0
  185.4120  178.2400  138.6200 C   0  0  0  0  0  3  0  0  0  0  0  0
  185.2330  178.6130  139.9410 C   0  0  0  0  0  3  0  0  0  0  0  0
  189.2420  177.5950  136.2520 C   0  0  1  0  0  3  0  0  0  0  0  0
  190.5630  176.0900  137.3590 C   0  0  0  0  0  0  0  0  0  0  0  0
  191.7410  175.1430  135.1550 C   0  0  1  0  0  3  0  0  0  0  0  0
  187.8280  177.4520  135.8630 C   0  0  0  0  0  0  0  0  0  0  0  0
  188.7650  178.3090  141.2820 C   0  0  0  0  0  1  0  0  0  0  0  0
  191.1460  175.4910  138.3020 O   0  0  0  0  0  0  0  0  0  0  0  0
  187.3890  177.3480  134.6160 C   0  0  0  0  0  3  0  0  0  0  0  0
  190.9690  176.1740  135.9620 C   0  0  1  0  0  0  0  0  0  0  0  0
  189.4230  176.8830  137.5010 N   0  0  0  0  0  0  0  0  0  0  0  0
  186.6560  177.8630  138.0990 C   0  0  0  0  0  0  0  0  0  0  0  0
  187.7780  177.8350  139.0140 C   0  0  0  0  0  0  0  0  0  0  0  0
  186.6870  177.5860  136.7640 C   0  0  1  0  0  3  0  0  0  0  0  0
  184.1020  177.5040  136.1370 C   0  0  0  0  0  1  0  0  0  0  0  0
  185.5570  177.5030  135.8110 C   0  0  0  0  0  0  0  0  0  0  0  0
  190.1240  177.0530  135.2620 O   0  0  0  0  0  0  0  0  0  0  0  0
  188.9660  177.3600  138.7330 N   0  0  0  0  0  2  0  0  0  0  0  0
  192.4380  176.3970  135.6970 C   0  0  0  0  0  2  0  0  0  0  0  0
  185.9660  177.3570  134.5940 N   0  0  0  0  0  0  0  0  0  0  0  0
  187.5830  178.2520  140.3600 C   0  0  0  0  0  0  0  0  0  0  0  0
  193.7780  171.6210  136.5640 N   0  0  1  0  0  0  0  0  0  0  0  0
  191.9580  172.6550  135.1440 C   0  0  0  0  0  2  0  0  0  0  0  0
  194.4370  172.8710  136.1760 C   0  0  0  0  0  2  0  0  0  0  0  0
  192.1280  173.9240  135.9790 C   0  0  1  0  0  3  0  0  0  0  0  0
  192.4340  171.4380  135.9430 C   0  0  1  0  0  3  0  0  0  0  0  0
  193.5600  174.0790  136.5060 C   0  0  0  0  0  2  0  0  0  0  0  0
  193.6160  170.8470  135.3240 C   0  0  0  0  0  2  0  0  0  0  0  0
  186.0260  179.0300  142.1740 N   0  0  0  0  0  2  0  0  0  0  0  0
  185.4710  178.1910  143.1530 N   0  0  0  0  0  2  0  0  0  0  0  0
  184.9540  179.0450  144.2090 C   0  0  0  0  0  2  0  0  0  0  0  0
  185.6530  178.7340  145.4840 C   0  0  0  0  0  0  0  0  0  0  0  0
  186.8880  178.0170  145.4570 N   0  0  0  0  0  2  0  0  0  0  0  0
  185.1690  179.1340  146.5760 O   0  0  0  0  0  0  0  0  0  0  0  0
  187.6350  177.7980  146.6240 N   0  0  0  0  0  2  0  0  0  0  0  0
  191.2140  176.6500  146.8910 C   0  0  0  0  0  2  0  0  0  0  0  0
  189.4560  177.8090  145.0000 C   0  0  0  0  0  2  0  0  0  0  0  0
  189.8580  177.1470  147.3890 C   0  0  0  0  0  2  0  0  0  0  0  0
  188.8630  177.1270  146.2310 C   0  0  0  0  0  3  0  0  0  0  0  0
  190.8510  177.2400  144.7410 C   0  0  0  0  0  2  0  0  0  0  0  0
  191.6790  177.4800  145.8530 O   0  0  0  0  0  0  0  0  0  0  0  0
  1 30  1  0  0  0  0
  2  3  1  0  0  0  0
  3  1  2  0  0  0  0
  4 18  1  6  0  0  0
  4 12  1  0  0  0  0
  5 12  1  0  0  0  0
  5  9  2  0  0  0  0
  6 20  1  1  0  0  0
  6 11  1  0  0  0  0
  6 26  1  0  0  0  0
  7  4  1  0  0  0  0
  7 15  1  0  0  0  0
 10  7  2  0  0  0  0
 11 20  1  1  0  0  0
 11  5  1  0  0  0  0
 12 19  1  0  0  0  0
 13  2  2  0  0  0  0
 13 14  1  0  0  0  0
 14 22  2  0  0  0  0
 15 17  1  6  0  0  0
 15 13  1  0  0  0  0
 17 16  1  0  0  0  0
 18 11  1  0  0  0  0
 19 14  1  0  0  0  0
 21 10  1  0  0  0  0
 21 17  2  0  0  0  0
 22  1  1  0  0  0  0
 22  8  1  0  0  0  0
 23 29  1  6  0  0  0
 25 28  1  0  0  0  0
 25 23  1  0  0  0  0
 26 24  1  6  0  0  0
 26 28  1  0  0  0  0
 27 24  1  6  0  0  0
 27 23  1  0  0  0  0
 29 27  1  0  0  0  0
 30 31  1  0  0  0  0
 31 32  1  0  0  0  0
 32 33  1  0  0  0  0
 33 35  2  0  0  0  0
 34 33  1  0  0  0  0
 34 36  1  0  0  0  0
 37 39  1  0  0  0  0
 38 40  1  0  0  0  0
 40 36  1  0  0  0  0
 40 39  1  0  0  0  0
 41 38  1  0  0  0  0
 41 42  1  0  0  0  0
 42 37  1  0  0  0  0
M  END
>  <MODEL>
9

>  <REMARK>
 VINA RESULT:      -7.5      4.815      8.908
  Name = 
  7 active torsions:
  status: ('A' for Active; 'I' for Inactive)
    1  A    between atoms: N_5  and  N_15
    2  A    between atoms: N_5  and  C_25
    3  A    between atoms: C_6  and  C_20
    4  A    between atoms: C_7  and  N_22
    5  A    between atoms: C_11  and  C_14
    6  A    between atoms: C_14  and  N_35
    7  A    between atoms: N_22  and  N_35
                            x       y       z     vdW  Elec       q    Type
                         _______ _______ _______ _____ _____    ______ ____

>  <TORSDO>
F 7

$$$$
