=
 OpenBabel11042411223D

 25 28  0  0  1  0  0  0  0  0999 V2000
  186.0630  178.4420  145.9870 C   0  0  0  0  0  0  0  0  0  0  0  0
  191.4440  176.3530  146.7110 C   0  0  0  0  0  0  0  0  0  0  0  0
  185.5540  179.2900  143.1040 C   0  0  0  0  0  2  0  0  0  0  0  0
  187.5170  178.0280  143.9070 C   0  0  0  0  0  0  0  0  0  0  0  0
  183.1240  179.0190  143.5140 C   0  0  0  0  0  1  0  0  0  0  0  0
  183.7270  178.5870  146.1960 O   0  0  0  0  0  0  0  0  0  0  0  0
  190.3470  177.0150  147.0840 C   0  0  0  0  0  3  0  0  0  0  0  0
  184.7140  178.6560  145.4140 C   0  0  0  0  0  0  0  0  0  0  0  0
  186.2560  178.3020  147.4040 N   0  0  0  0  0  2  0  0  0  0  0  0
  190.9850  176.6160  144.2950 C   0  0  0  0  0  0  0  0  0  0  0  0
  186.4360  178.0850  142.8590 C   0  0  2  0  0  3  0  0  0  0  0  0
  188.1930  177.9370  146.3540 C   0  0  0  0  0  0  0  0  0  0  0  0
  187.4960  177.9970  147.6280 C   0  0  0  0  0  3  0  0  0  0  0  0
  189.4240  177.5240  146.0590 C   0  0  1  0  0  3  0  0  0  0  0  0
  188.7710  177.6400  143.5950 C   0  0  0  0  0  3  0  0  0  0  0  0
  192.3650  175.8240  147.7490 C   0  0  0  0  0  1  0  0  0  0  0  0
  187.2100  178.2330  145.3410 C   0  0  0  0  0  0  0  0  0  0  0  0
  191.7190  176.0770  145.2850 C   0  0  0  0  0  3  0  0  0  0  0  0
  184.4840  178.9440  144.0220 N   0  0  0  0  0  0  0  0  0  0  0  0
  186.9820  178.1750  141.4400 C   0  0  0  0  0  1  0  0  0  0  0  0
  189.8960  177.6130  144.6180 C   0  0  2  0  0  3  0  0  0  0  0  0
  191.2580  176.3230  142.9500 O   0  0  0  0  0  0  0  0  0  0  0  0
  191.9600  177.2030  142.0770 C   0  0  0  0  0  2  0  0  0  0  0  0
  191.2180  177.3360  140.7610 C   0  0  0  0  0  2  0  0  0  0  0  0
  190.3080  176.2880  140.6330 O   0  0  0  0  0  1  0  0  0  0  0  0
  1  9  1  0  0  0  0
  2  7  2  0  0  0  0
  2 16  1  0  0  0  0
  3 19  1  0  0  0  0
  4 17  1  0  0  0  0
  5 19  1  0  0  0  0
  8  1  1  0  0  0  0
  8  6  2  0  0  0  0
  9 13  1  0  0  0  0
 10 21  1  0  0  0  0
 10 18  2  0  0  0  0
 11 20  1  6  0  0  0
 11  3  1  0  0  0  0
 11  4  1  0  0  0  0
 12 13  2  0  0  0  0
 14 12  1  0  0  0  0
 14  7  1  1  0  0  0
 15  4  2  0  0  0  0
 17  1  2  0  0  0  0
 17 12  1  0  0  0  0
 18  2  1  0  0  0  0
 19  8  1  0  0  0  0
 21 15  1  6  0  0  0
 21 14  1  0  0  0  0
 22 10  1  0  0  0  0
 23 22  1  0  0  0  0
 24 23  1  0  0  0  0
 25 24  1  0  0  0  0
M  END
>  <MODEL>
1

>  <REMARK>
 VINA RESULT:      -9.6      0.000      0.000
  Name = 
  3 active torsions:
  status: ('A' for Active; 'I' for Inactive)
    1  A    between atoms: C_3  and  C_10
    2  A    between atoms: C_10  and  O_16
    3  A    between atoms: C_12  and  O_16
                            x       y       z     vdW  Elec       q    Type
                         _______ _______ _______ _____ _____    ______ ____

>  <TORSDO>
F 3

$$$$
=
 OpenBabel11042411223D

 25 28  0  0  1  0  0  0  0  0999 V2000
  190.3930  177.0980  142.1570 C   0  0  0  0  0  0  0  0  0  0  0  0
  187.8850  177.8670  147.3500 C   0  0  0  0  0  0  0  0  0  0  0  0
  188.3760  177.3130  139.8810 C   0  0  0  0  0  2  0  0  0  0  0  0
  187.9470  177.8890  142.2430 C   0  0  0  0  0  0  0  0  0  0  0  0
  190.2490  177.8630  138.3510 C   0  0  0  0  0  1  0  0  0  0  0  0
  191.9920  177.3070  140.4480 O   0  0  0  0  0  0  0  0  0  0  0  0
  188.7620  177.3240  146.5020 C   0  0  0  0  0  3  0  0  0  0  0  0
  190.7650  177.3180  140.7410 C   0  0  0  0  0  0  0  0  0  0  0  0
  191.3780  176.7430  143.1390 N   0  0  0  0  0  2  0  0  0  0  0  0
  186.2800  178.4700  145.5670 C   0  0  0  0  0  0  0  0  0  0  0  0
  187.8100  178.3580  140.8180 C   0  0  2  0  0  3  0  0  0  0  0  0
  189.4160  177.0770  144.1500 C   0  0  0  0  0  0  0  0  0  0  0  0
  190.8200  176.7380  144.3090 C   0  0  0  0  0  3  0  0  0  0  0  0
  188.4790  177.3390  145.0590 C   0  0  1  0  0  3  0  0  0  0  0  0
  186.9800  178.1280  143.1520 C   0  0  0  0  0  3  0  0  0  0  0  0
  188.1820  177.8680  148.8050 C   0  0  0  0  0  1  0  0  0  0  0  0
  189.2100  177.2960  142.7400 C   0  0  0  0  0  0  0  0  0  0  0  0
  186.6590  178.5290  146.8560 C   0  0  0  0  0  3  0  0  0  0  0  0
  189.7990  177.5320  139.6950 N   0  0  0  0  0  0  0  0  0  0  0  0
  186.3670  178.6300  140.4130 C   0  0  0  0  0  1  0  0  0  0  0  0
  187.0650  177.6310  144.5860 C   0  0  2  0  0  3  0  0  0  0  0  0
  185.1200  179.1240  145.1230 O   0  0  0  0  0  0  0  0  0  0  0  0
  183.8030  178.6290  145.3450 C   0  0  0  0  0  2  0  0  0  0  0  0
  182.9070  178.9860  144.1740 C   0  0  0  0  0  2  0  0  0  0  0  0
  183.5330  178.6230  142.9830 O   0  0  0  0  0  1  0  0  0  0  0  0
  1 17  2  0  0  0  0
  1  9  1  0  0  0  0
  2 16  1  0  0  0  0
  3 11  1  0  0  0  0
  4 17  1  0  0  0  0
  4 15  2  0  0  0  0
  5 19  1  0  0  0  0
  6  8  2  0  0  0  0
  7  2  2  0  0  0  0
  8  1  1  0  0  0  0
  9 13  1  0  0  0  0
 10 18  2  0  0  0  0
 11 20  1  6  0  0  0
 11  4  1  0  0  0  0
 12 13  2  0  0  0  0
 12 14  1  0  0  0  0
 14  7  1  1  0  0  0
 17 12  1  0  0  0  0
 18  2  1  0  0  0  0
 19  3  1  0  0  0  0
 19  8  1  0  0  0  0
 21 15  1  6  0  0  0
 21 14  1  0  0  0  0
 21 10  1  0  0  0  0
 22 23  1  0  0  0  0
 22 10  1  0  0  0  0
 24 23  1  0  0  0  0
 25 24  1  0  0  0  0
M  END
>  <MODEL>
2

>  <REMARK>
 VINA RESULT:      -9.2      2.463      5.777
  Name = 
  3 active torsions:
  status: ('A' for Active; 'I' for Inactive)
    1  A    between atoms: C_3  and  C_10
    2  A    between atoms: C_10  and  O_16
    3  A    between atoms: C_12  and  O_16
                            x       y       z     vdW  Elec       q    Type
                         _______ _______ _______ _____ _____    ______ ____

>  <TORSDO>
F 3

$$$$
=
 OpenBabel11042411223D

 25 28  0  0  1  0  0  0  0  0999 V2000
  187.9400  177.6340  146.7050 C   0  0  0  0  0  0  0  0  0  0  0  0
  184.9510  178.6580  141.8210 C   0  0  0  0  0  0  0  0  0  0  0  0
  190.7840  176.7030  146.1210 C   0  0  0  0  0  2  0  0  0  0  0  0
  189.1950  177.6040  144.4600 C   0  0  0  0  0  0  0  0  0  0  0  0
  191.4400  177.4790  148.3820 C   0  0  0  0  0  1  0  0  0  0  0  0
  188.7480  177.9710  148.8860 O   0  0  0  0  0  0  0  0  0  0  0  0
  185.0950  178.2550  143.0850 C   0  0  0  0  0  3  0  0  0  0  0  0
  189.0370  177.6530  147.7000 C   0  0  0  0  0  0  0  0  0  0  0  0
  186.5740  177.8320  147.1000 N   0  0  0  0  0  2  0  0  0  0  0  0
  187.3380  178.3220  141.2650 C   0  0  0  0  0  0  0  0  0  0  0  0
  190.6040  177.6880  144.9860 C   0  0  2  0  0  3  0  0  0  0  0  0
  186.6910  177.7310  144.8730 C   0  0  0  0  0  0  0  0  0  0  0  0
  185.8370  177.9000  146.0360 C   0  0  0  0  0  3  0  0  0  0  0  0
  186.4260  177.8690  143.5760 C   0  0  1  0  0  3  0  0  0  0  0  0
  188.9350  177.7110  143.1410 C   0  0  0  0  0  3  0  0  0  0  0  0
  183.6090  179.0660  141.3320 C   0  0  0  0  0  1  0  0  0  0  0  0
  188.0320  177.5650  145.3770 C   0  0  0  0  0  0  0  0  0  0  0  0
  186.1190  178.7730  140.9200 C   0  0  0  0  0  3  0  0  0  0  0  0
  190.4000  177.3190  147.3790 N   0  0  0  0  0  0  0  0  0  0  0  0
  191.6570  177.3920  143.9270 C   0  0  0  0  0  1  0  0  0  0  0  0
  187.5300  177.5870  142.5720 C   0  0  2  0  0  3  0  0  0  0  0  0
  188.4330  178.4600  140.3980 O   0  0  0  0  0  0  0  0  0  0  0  0
  188.8140  177.4720  139.4460 C   0  0  0  0  0  2  0  0  0  0  0  0
  189.3410  178.1350  138.1870 C   0  0  0  0  0  2  0  0  0  0  0  0
  188.9220  179.4630  138.1510 O   0  0  0  0  0  1  0  0  0  0  0  0
  1  9  1  0  0  0  0
  1  8  1  0  0  0  0
  2  7  2  0  0  0  0
  3 19  1  0  0  0  0
  4 11  1  0  0  0  0
  4 17  1  0  0  0  0
  8  6  2  0  0  0  0
 10 21  1  0  0  0  0
 11 20  1  6  0  0  0
 11  3  1  0  0  0  0
 12 17  1  0  0  0  0
 12 13  2  0  0  0  0
 13  9  1  0  0  0  0
 14  7  1  6  0  0  0
 14 12  1  0  0  0  0
 15  4  2  0  0  0  0
 16  2  1  0  0  0  0
 17  1  2  0  0  0  0
 18 10  2  0  0  0  0
 18  2  1  0  0  0  0
 19  8  1  0  0  0  0
 19  5  1  0  0  0  0
 21 15  1  1  0  0  0
 21 14  1  0  0  0  0
 22 10  1  0  0  0  0
 23 22  1  0  0  0  0
 24 23  1  0  0  0  0
 25 24  1  0  0  0  0
M  END
>  <MODEL>
3

>  <REMARK>
 VINA RESULT:      -8.9      2.191      5.415
  Name = 
  3 active torsions:
  status: ('A' for Active; 'I' for Inactive)
    1  A    between atoms: C_3  and  C_10
    2  A    between atoms: C_10  and  O_16
    3  A    between atoms: C_12  and  O_16
                            x       y       z     vdW  Elec       q    Type
                         _______ _______ _______ _____ _____    ______ ____

>  <TORSDO>
F 3

$$$$
=
 OpenBabel11042411223D

 25 28  0  0  1  0  0  0  0  0999 V2000
  185.7850  178.6930  140.4310 C   0  0  0  0  0  0  0  0  0  0  0  0
  190.2100  177.8180  144.1040 C   0  0  0  0  0  0  0  0  0  0  0  0
  183.0860  178.2840  141.7880 C   0  0  0  0  0  2  0  0  0  0  0  0
  185.2710  178.3850  142.9320 C   0  0  0  0  0  0  0  0  0  0  0  0
  182.0570  179.7130  140.0430 C   0  0  0  0  0  1  0  0  0  0  0  0
  184.5160  179.7190  138.7400 O   0  0  0  0  0  0  0  0  0  0  0  0
  189.6020  177.7780  142.9170 C   0  0  0  0  0  3  0  0  0  0  0  0
  184.5010  179.1900  139.8850 C   0  0  0  0  0  0  0  0  0  0  0  0
  186.9780  178.6800  139.6320 N   0  0  0  0  0  0  0  0  0  0  0  0
  188.0890  177.8810  145.3760 C   0  0  0  0  0  0  0  0  0  0  0  0
  183.8550  178.8980  142.9380 C   0  0  2  0  0  3  0  0  0  0  0  0
  187.4800  178.0660  141.7190 C   0  0  0  0  0  0  0  0  0  0  0  0
  187.9770  178.3250  140.3780 C   0  0  0  0  0  3  0  0  0  0  0  0
  188.1340  177.8210  142.8520 C   0  0  1  0  0  3  0  0  0  0  0  0
  185.9170  178.1080  144.0830 C   0  0  0  0  0  2  0  0  0  0  0  0
  191.6940  177.7950  144.1670 C   0  0  0  0  0  1  0  0  0  0  0  0
  186.0620  178.3220  141.6810 C   0  0  0  0  0  0  0  0  0  0  0  0
  189.4320  177.9590  145.3540 C   0  0  0  0  0  3  0  0  0  0  0  0
  183.2510  179.0910  140.5930 N   0  0  0  0  0  0  0  0  0  0  0  0
  183.1100  178.5870  144.2300 C   0  0  0  0  0  1  0  0  0  0  0  0
  187.3310  177.5470  144.1130 C   0  0  2  0  0  3  0  0  0  0  0  0
  187.3750  178.0360  146.5740 O   0  0  0  0  0  0  0  0  0  0  0  0
  187.6660  177.3110  147.7650 C   0  0  0  0  0  2  0  0  0  0  0  0
  188.2040  178.2480  148.8300 C   0  0  0  0  0  2  0  0  0  0  0  0
  189.5960  178.2630  148.7740 O   0  0  0  0  0  1  0  0  0  0  0  0
  1 17  1  0  0  0  0
  2 16  1  0  0  0  0
  2 18  1  0  0  0  0
  3 11  1  0  0  0  0
  4 11  1  0  0  0  0
  4 15  1  0  0  0  0
  5 19  1  0  0  0  0
  6  8  2  0  0  0  0
  7  2  2  0  0  0  0
  8  1  1  0  0  0  0
  8 19  1  0  0  0  0
  9 13  1  0  0  0  0
  9  1  2  0  0  0  0
 10 22  1  0  0  0  0
 11 20  1  1  0  0  0
 12 14  1  0  0  0  0
 13 12  2  0  0  0  0
 14  7  1  6  0  0  0
 14 21  1  0  0  0  0
 17 12  1  0  0  0  0
 17  4  2  0  0  0  0
 18 10  2  0  0  0  0
 19  3  1  0  0  0  0
 21 15  1  6  0  0  0
 21 10  1  0  0  0  0
 22 23  1  0  0  0  0
 23 24  1  0  0  0  0
 25 24  1  0  0  0  0
M  END
>  <MODEL>
4

>  <REMARK>
 VINA RESULT:      -8.7      3.003      5.152
  Name = 
  3 active torsions:
  status: ('A' for Active; 'I' for Inactive)
    1  A    between atoms: C_3  and  C_10
    2  A    between atoms: C_10  and  O_16
    3  A    between atoms: C_12  and  O_16
                            x       y       z     vdW  Elec       q    Type
                         _______ _______ _______ _____ _____    ______ ____

>  <TORSDO>
F 3

$$$$
=
 OpenBabel11042411223D

 25 28  0  0  1  0  0  0  0  0999 V2000
  188.3050  177.9000  140.2200 C   0  0  0  0  0  0  0  0  0  0  0  0
  184.6650  178.6290  144.6990 C   0  0  0  0  0  0  0  0  0  0  0  0
  191.1490  177.3220  141.1520 C   0  0  0  0  0  2  0  0  0  0  0  0
  189.1450  177.3730  142.5930 C   0  0  0  0  0  0  0  0  0  0  0  0
  191.5900  176.2570  138.9570 C   0  0  0  0  0  1  0  0  0  0  0  0
  189.0840  177.1440  138.1360 O   0  0  0  0  0  0  0  0  0  0  0  0
  185.1320  178.8710  143.4730 C   0  0  0  0  0  3  0  0  0  0  0  0
  189.3550  177.3130  139.3560 C   0  0  0  0  0  0  0  0  0  0  0  0
  187.0740  178.3910  139.6660 N   0  0  0  0  0  0  0  0  0  0  0  0
  186.8250  177.7590  145.5320 C   0  0  0  0  0  0  0  0  0  0  0  0
  190.3790  176.5880  142.2280 C   0  0  2  0  0  3  0  0  0  0  0  0
  186.9710  178.4860  141.8950 C   0  0  0  0  0  0  0  0  0  0  0  0
  186.2840  178.7270  140.6370 C   0  0  0  0  0  3  0  0  0  0  0  0
  186.5260  178.5350  143.1480 C   0  0  1  0  0  3  0  0  0  0  0  0
  188.7180  177.4460  143.8700 C   0  0  0  0  0  2  0  0  0  0  0  0
  183.2510  178.9510  145.0190 C   0  0  0  0  0  1  0  0  0  0  0  0
  188.2670  177.9530  141.5520 C   0  0  0  0  0  0  0  0  0  0  0  0
  185.5120  177.9780  145.7220 C   0  0  0  0  0  3  0  0  0  0  0  0
  190.6580  176.9400  139.8410 N   0  0  0  0  0  0  0  0  0  0  0  0
  191.3120  176.3560  143.4090 C   0  0  0  0  0  1  0  0  0  0  0  0
  187.5030  178.2640  144.2800 C   0  0  2  0  0  3  0  0  0  0  0  0
  187.6020  177.1230  146.5130 O   0  0  0  0  0  0  0  0  0  0  0  0
  187.9250  177.7150  147.7690 C   0  0  0  0  0  2  0  0  0  0  0  0
  189.4300  177.8340  147.9190 C   0  0  0  0  0  2  0  0  0  0  0  0
  190.0480  176.7850  147.2420 O   0  0  0  0  0  1  0  0  0  0  0  0
  1 17  1  0  0  0  0
  2 16  1  0  0  0  0
  2 18  1  0  0  0  0
  3 11  1  0  0  0  0
  4 15  1  0  0  0  0
  5 19  1  0  0  0  0
  6  8  2  0  0  0  0
  7  2  2  0  0  0  0
  8 19  1  0  0  0  0
  8  1  1  0  0  0  0
  9  1  2  0  0  0  0
  9 13  1  0  0  0  0
 10 18  2  0  0  0  0
 10 22  1  0  0  0  0
 11  4  1  0  0  0  0
 11 20  1  1  0  0  0
 12 14  1  0  0  0  0
 13 12  2  0  0  0  0
 14  7  1  1  0  0  0
 14 21  1  0  0  0  0
 17 12  1  0  0  0  0
 17  4  2  0  0  0  0
 19  3  1  0  0  0  0
 21 15  1  6  0  0  0
 21 10  1  0  0  0  0
 22 23  1  0  0  0  0
 23 24  1  0  0  0  0
 25 24  1  0  0  0  0
M  END
>  <MODEL>
5

>  <REMARK>
 VINA RESULT:      -8.6      2.642      6.483
  Name = 
  3 active torsions:
  status: ('A' for Active; 'I' for Inactive)
    1  A    between atoms: C_3  and  C_10
    2  A    between atoms: C_10  and  O_16
    3  A    between atoms: C_12  and  O_16
                            x       y       z     vdW  Elec       q    Type
                         _______ _______ _______ _____ _____    ______ ____

>  <TORSDO>
F 3

$$$$
=
 OpenBabel11042411223D

 25 28  0  0  1  0  0  0  0  0999 V2000
  183.5300  178.8120  144.3910 C   0  0  0  0  0  0  0  0  0  0  0  0
  188.9190  177.1580  145.8300 C   0  0  0  0  0  0  0  0  0  0  0  0
  183.2610  179.3180  141.3960 C   0  0  0  0  0  2  0  0  0  0  0  0
  185.2010  178.2750  142.5110 C   0  0  0  0  0  0  0  0  0  0  0  0
  180.8200  178.9380  141.6100 C   0  0  0  0  0  1  0  0  0  0  0  0
  181.1800  178.8290  144.3680 O   0  0  0  0  0  0  0  0  0  0  0  0
  187.7560  177.7840  146.0250 C   0  0  0  0  0  3  0  0  0  0  0  0
  182.2340  178.8780  143.6760 C   0  0  0  0  0  0  0  0  0  0  0  0
  183.5910  178.8350  145.8250 N   0  0  0  0  0  2  0  0  0  0  0  0
  188.6850  177.1350  143.3680 C   0  0  0  0  0  0  0  0  0  0  0  0
  184.2260  178.1530  141.3680 C   0  0  2  0  0  3  0  0  0  0  0  0
  185.6380  178.4850  145.0040 C   0  0  0  0  0  0  0  0  0  0  0  0
  184.8180  178.6350  146.1940 C   0  0  0  0  0  3  0  0  0  0  0  0
  186.9120  178.1230  144.8700 C   0  0  1  0  0  3  0  0  0  0  0  0
  186.4980  177.9370  142.3590 C   0  0  0  0  0  3  0  0  0  0  0  0
  189.7610  176.8000  147.0000 C   0  0  0  0  0  1  0  0  0  0  0  0
  184.7450  178.6100  143.8790 C   0  0  0  0  0  0  0  0  0  0  0  0
  189.3460  176.7510  144.4740 C   0  0  0  0  0  3  0  0  0  0  0  0
  182.1270  179.0030  142.2460 N   0  0  0  0  0  0  0  0  0  0  0  0
  184.9030  178.1270  140.0040 C   0  0  0  0  0  1  0  0  0  0  0  0
  187.5180  178.0890  143.4770 C   0  0  2  0  0  3  0  0  0  0  0  0
  189.1030  176.7200  142.0940 O   0  0  0  0  0  0  0  0  0  0  0  0
  189.8590  177.5380  141.2070 C   0  0  0  0  0  2  0  0  0  0  0  0
  189.2430  177.5130  139.8200 C   0  0  0  0  0  2  0  0  0  0  0  0
  188.4900  178.6690  139.6260 O   0  0  0  0  0  1  0  0  0  0  0  0
  1  9  1  0  0  0  0
  2  7  2  0  0  0  0
  2 16  1  0  0  0  0
  3 19  1  0  0  0  0
  4 17  1  0  0  0  0
  5 19  1  0  0  0  0
  8  6  2  0  0  0  0
  8  1  1  0  0  0  0
  9 13  1  0  0  0  0
 10 21  1  0  0  0  0
 10 18  2  0  0  0  0
 11 20  1  6  0  0  0
 11  3  1  0  0  0  0
 11  4  1  0  0  0  0
 12 13  2  0  0  0  0
 14 12  1  0  0  0  0
 14  7  1  1  0  0  0
 15  4  2  0  0  0  0
 17  1  2  0  0  0  0
 17 12  1  0  0  0  0
 18  2  1  0  0  0  0
 19  8  1  0  0  0  0
 21 15  1  6  0  0  0
 21 14  1  0  0  0  0
 22 10  1  0  0  0  0
 23 22  1  0  0  0  0
 24 23  1  0  0  0  0
 25 24  1  0  0  0  0
M  END
>  <MODEL>
6

>  <REMARK>
 VINA RESULT:      -8.6      1.782      2.806
  Name = 
  3 active torsions:
  status: ('A' for Active; 'I' for Inactive)
    1  A    between atoms: C_3  and  C_10
    2  A    between atoms: C_10  and  O_16
    3  A    between atoms: C_12  and  O_16
                            x       y       z     vdW  Elec       q    Type
                         _______ _______ _______ _____ _____    ______ ____

>  <TORSDO>
F 3

$$$$
=
 OpenBabel11042411223D

 25 28  0  0  1  0  0  0  0  0999 V2000
  187.8290  177.6290  146.2740 C   0  0  0  0  0  0  0  0  0  0  0  0
  183.0240  179.1340  143.3600 C   0  0  0  0  0  0  0  0  0  0  0  0
  190.0040  176.5810  144.4120 C   0  0  0  0  0  2  0  0  0  0  0  0
  187.9070  177.6760  143.7040 C   0  0  0  0  0  0  0  0  0  0  0  0
  191.6840  177.1710  146.1370 C   0  0  0  0  0  1  0  0  0  0  0  0
  189.5710  177.7780  147.8440 O   0  0  0  0  0  0  0  0  0  0  0  0
  183.7000  178.6420  144.4000 C   0  0  0  0  0  3  0  0  0  0  0  0
  189.2580  177.5220  146.6490 C   0  0  0  0  0  0  0  0  0  0  0  0
  186.8170  177.8760  147.2620 N   0  0  0  0  0  2  0  0  0  0  0  0
  184.8560  178.7030  141.7540 C   0  0  0  0  0  0  0  0  0  0  0  0
  189.4030  177.6470  143.5210 C   0  0  2  0  0  3  0  0  0  0  0  0
  185.8910  177.9150  145.2310 C   0  0  0  0  0  0  0  0  0  0  0  0
  185.6820  178.0550  146.6620 C   0  0  0  0  0  3  0  0  0  0  0  0
  185.0720  178.1510  144.2080 C   0  0  1  0  0  3  0  0  0  0  0  0
  187.0810  177.8840  142.6580 C   0  0  0  0  0  3  0  0  0  0  0  0
  181.6450  179.6470  143.5600 C   0  0  0  0  0  1  0  0  0  0  0  0
  187.2960  177.6420  145.0520 C   0  0  0  0  0  0  0  0  0  0  0  0
  183.6550  179.2430  142.0260 C   0  0  0  0  0  3  0  0  0  0  0  0
  190.2900  177.1340  145.7230 N   0  0  0  0  0  0  0  0  0  0  0  0
  189.8260  177.3630  142.0860 C   0  0  0  0  0  1  0  0  0  0  0  0
  185.5670  177.8750  142.7990 C   0  0  2  0  0  3  0  0  0  0  0  0
  185.4380  178.8360  140.4840 O   0  0  0  0  0  0  0  0  0  0  0  0
  184.6870  179.0330  139.2890 C   0  0  0  0  0  2  0  0  0  0  0  0
  185.2330  178.1560  138.1780 C   0  0  0  0  0  2  0  0  0  0  0  0
  186.5080  178.5930  137.8250 O   0  0  0  0  0  1  0  0  0  0  0  0
  1  8  1  0  0  0  0
  1  9  1  0  0  0  0
  2 16  1  0  0  0  0
  2  7  2  0  0  0  0
  3 19  1  0  0  0  0
  4 17  1  0  0  0  0
  8  6  2  0  0  0  0
 10 18  2  0  0  0  0
 10 21  1  0  0  0  0
 11 20  1  6  0  0  0
 11  4  1  0  0  0  0
 11  3  1  0  0  0  0
 12 13  2  0  0  0  0
 13  9  1  0  0  0  0
 14  7  1  1  0  0  0
 14 12  1  0  0  0  0
 15  4  2  0  0  0  0
 17 12  1  0  0  0  0
 17  1  2  0  0  0  0
 18  2  1  0  0  0  0
 19  5  1  0  0  0  0
 19  8  1  0  0  0  0
 21 15  1  1  0  0  0
 21 14  1  0  0  0  0
 22 10  1  0  0  0  0
 23 22  1  0  0  0  0
 24 23  1  0  0  0  0
 25 24  1  0  0  0  0
M  END
>  <MODEL>
7

>  <REMARK>
 VINA RESULT:      -8.5      2.476      6.009
  Name = 
  3 active torsions:
  status: ('A' for Active; 'I' for Inactive)
    1  A    between atoms: C_3  and  C_10
    2  A    between atoms: C_10  and  O_16
    3  A    between atoms: C_12  and  O_16
                            x       y       z     vdW  Elec       q    Type
                         _______ _______ _______ _____ _____    ______ ____

>  <TORSDO>
F 3

$$$$
=
 OpenBabel11042411223D

 25 28  0  0  1  0  0  0  0  0999 V2000
  188.2700  177.6670  143.6090 C   0  0  0  0  0  0  0  0  0  0  0  0
  183.8530  178.6990  139.9680 C   0  0  0  0  0  0  0  0  0  0  0  0
  187.5200  178.2670  146.5020 C   0  0  0  0  0  2  0  0  0  0  0  0
  185.9540  178.1920  144.5950 C   0  0  0  0  0  0  0  0  0  0  0  0
  189.3270  176.7330  147.2290 C   0  0  0  0  0  1  0  0  0  0  0  0
  190.1020  176.5460  144.5630 O   0  0  0  0  0  0  0  0  0  0  0  0
  185.1380  178.6620  140.3250 C   0  0  0  0  0  3  0  0  0  0  0  0
  189.0260  177.1660  144.7810 C   0  0  0  0  0  0  0  0  0  0  0  0
  188.8100  177.5770  142.2810 N   0  0  0  0  0  0  0  0  0  0  0  0
  183.0340  178.8060  142.3000 C   0  0  0  0  0  0  0  0  0  0  0  0
  186.1970  177.7240  146.0070 C   0  0  2  0  0  3  0  0  0  0  0  0
  186.7160  178.3440  142.1770 C   0  0  0  0  0  0  0  0  0  0  0  0
  187.9060  177.9610  141.4360 C   0  0  0  0  0  3  0  0  0  0  0  0
  185.4950  178.6590  141.7510 C   0  0  1  0  0  3  0  0  0  0  0  0
  184.7190  178.5410  144.1790 C   0  0  0  0  0  2  0  0  0  0  0  0
  183.4940  178.6830  138.5270 C   0  0  0  0  0  1  0  0  0  0  0  0
  187.0200  178.1290  143.5700 C   0  0  0  0  0  0  0  0  0  0  0  0
  182.7790  178.6850  140.9850 C   0  0  0  0  0  3  0  0  0  0  0  0
  188.5950  177.3610  146.1400 N   0  0  0  0  0  0  0  0  0  0  0  0
  185.1080  178.1620  146.9780 C   0  0  0  0  0  1  0  0  0  0  0  0
  184.4460  179.0590  142.7750 C   0  0  2  0  0  3  0  0  0  0  0  0
  181.9970  178.7710  143.2440 O   0  0  0  0  0  0  0  0  0  0  0  0
  180.7100  179.3410  143.0240 C   0  0  0  0  0  2  0  0  0  0  0  0
  179.7540  178.9110  144.1210 C   0  0  0  0  0  2  0  0  0  0  0  0
  179.7290  177.5200  144.1970 O   0  0  0  0  0  1  0  0  0  0  0  0
  1  8  1  0  0  0  0
  2  7  2  0  0  0  0
  2 18  1  0  0  0  0
  4 11  1  0  0  0  0
  6  8  2  0  0  0  0
  8 19  1  0  0  0  0
  9  1  2  0  0  0  0
 10 21  1  0  0  0  0
 10 22  1  0  0  0  0
 11  3  1  0  0  0  0
 11 20  1  1  0  0  0
 12 17  1  0  0  0  0
 13 12  2  0  0  0  0
 13  9  1  0  0  0  0
 14  7  1  6  0  0  0
 14 12  1  0  0  0  0
 14 21  1  0  0  0  0
 15  4  1  0  0  0  0
 16  2  1  0  0  0  0
 17  1  1  0  0  0  0
 17  4  2  0  0  0  0
 18 10  2  0  0  0  0
 19  3  1  0  0  0  0
 19  5  1  0  0  0  0
 21 15  1  1  0  0  0
 23 22  1  0  0  0  0
 23 24  1  0  0  0  0
 24 25  1  0  0  0  0
M  END
>  <MODEL>
8

>  <REMARK>
 VINA RESULT:      -8.5      2.425      7.579
  Name = 
  3 active torsions:
  status: ('A' for Active; 'I' for Inactive)
    1  A    between atoms: C_3  and  C_10
    2  A    between atoms: C_10  and  O_16
    3  A    between atoms: C_12  and  O_16
                            x       y       z     vdW  Elec       q    Type
                         _______ _______ _______ _____ _____    ______ ____

>  <TORSDO>
F 3

$$$$
=
 OpenBabel11042411223D

 25 28  0  0  1  0  0  0  0  0999 V2000
  190.4580  177.0830  142.7200 C   0  0  0  0  0  0  0  0  0  0  0  0
  185.7170  178.4490  145.8020 C   0  0  0  0  0  0  0  0  0  0  0  0
  189.8660  176.9390  139.7330 C   0  0  0  0  0  2  0  0  0  0  0  0
  188.3330  177.8050  141.4630 C   0  0  0  0  0  0  0  0  0  0  0  0
  192.2740  177.3400  139.2960 C   0  0  0  0  0  1  0  0  0  0  0  0
  192.7060  177.1160  142.0350 O   0  0  0  0  0  0  0  0  0  0  0  0
  186.8780  177.8270  145.5870 C   0  0  0  0  0  3  0  0  0  0  0  0
  191.4990  177.1280  141.6680 C   0  0  0  0  0  0  0  0  0  0  0  0
  190.8030  176.8900  144.1010 N   0  0  0  0  0  2  0  0  0  0  0  0
  185.2480  178.7660  143.3940 C   0  0  0  0  0  0  0  0  0  0  0  0
  188.9490  178.0800  140.1160 C   0  0  2  0  0  3  0  0  0  0  0  0
  188.6130  177.2940  143.9360 C   0  0  0  0  0  0  0  0  0  0  0  0
  189.7330  177.0220  144.8210 C   0  0  0  0  0  3  0  0  0  0  0  0
  187.3580  177.6440  144.2100 C   0  0  1  0  0  3  0  0  0  0  0  0
  187.0510  178.1320  141.7240 C   0  0  0  0  0  3  0  0  0  0  0  0
  185.2430  178.6500  147.1960 C   0  0  0  0  0  1  0  0  0  0  0  0
  189.1510  177.3210  142.5990 C   0  0  0  0  0  0  0  0  0  0  0  0
  184.9310  179.0040  144.6790 C   0  0  0  0  0  3  0  0  0  0  0  0
  191.1980  177.1740  140.2610 N   0  0  0  0  0  0  0  0  0  0  0  0
  187.9160  178.2530  139.0100 C   0  0  0  0  0  1  0  0  0  0  0  0
  186.3850  177.8290  143.0580 C   0  0  2  0  0  3  0  0  0  0  0  0
  184.4940  179.3200  142.3480 O   0  0  0  0  0  0  0  0  0  0  0  0
  183.4650  178.6160  141.6590 C   0  0  0  0  0  2  0  0  0  0  0  0
  183.6860  178.7010  140.1610 C   0  0  0  0  0  2  0  0  0  0  0  0
  184.5560  179.7530  139.8790 O   0  0  0  0  0  1  0  0  0  0  0  0
  1  9  1  0  0  0  0
  2 16  1  0  0  0  0
  3 11  1  0  0  0  0
  3 19  1  0  0  0  0
  4 15  2  0  0  0  0
  4 17  1  0  0  0  0
  5 19  1  0  0  0  0
  7  2  2  0  0  0  0
  8  6  2  0  0  0  0
  8  1  1  0  0  0  0
  9 13  1  0  0  0  0
 10 18  2  0  0  0  0
 11 20  1  6  0  0  0
 11  4  1  0  0  0  0
 12 14  1  0  0  0  0
 12 13  2  0  0  0  0
 14  7  1  1  0  0  0
 17  1  2  0  0  0  0
 17 12  1  0  0  0  0
 18  2  1  0  0  0  0
 19  8  1  0  0  0  0
 21 15  1  6  0  0  0
 21 10  1  0  0  0  0
 21 14  1  0  0  0  0
 22 10  1  0  0  0  0
 23 22  1  0  0  0  0
 24 23  1  0  0  0  0
 25 24  1  0  0  0  0
M  END
>  <MODEL>
9

>  <REMARK>
 VINA RESULT:      -8.3      2.847      6.191
  Name = 
  3 active torsions:
  status: ('A' for Active; 'I' for Inactive)
    1  A    between atoms: C_3  and  C_10
    2  A    between atoms: C_10  and  O_16
    3  A    between atoms: C_12  and  O_16
                            x       y       z     vdW  Elec       q    Type
                         _______ _______ _______ _____ _____    ______ ____

>  <TORSDO>
F 3

$$$$
