=
 OpenBabel11032420363D

 27 31  0  0  1  0  0  0  0  0999 V2000
  180.0060  176.2900  140.1350 O   0  0  0  0  0  0  0  0  0  0  0  0
  183.5300  178.9140  141.8410 N   0  0  0  0  0  0  0  0  0  0  0  0
  185.7080  178.7860  141.2500 C   0  0  0  0  0  0  0  0  0  0  0  0
  186.1600  177.8310  144.2680 N   0  0  0  0  0  0  0  0  0  0  0  0
  189.4670  177.7960  142.5180 N   0  0  0  0  0  0  0  0  0  0  0  0
  185.7770  177.5190  145.6440 C   0  0  0  0  0  1  0  0  0  0  0  0
  179.0410  178.1580  142.1240 N   0  0  0  0  0  1  0  0  0  0  0  0
  184.8450  178.5850  142.2740 C   0  0  0  0  0  0  0  0  0  0  0  0
  182.2850  175.9690  139.4180 C   0  0  0  0  0  2  0  0  0  0  0  0
  180.1830  179.0460  141.9800 C   0  0  1  0  0  3  0  0  0  0  0  0
  183.4240  176.9910  139.3570 C   0  0  0  0  0  2  0  0  0  0  0  0
  185.0910  178.1950  143.5480 N   0  0  0  0  0  0  0  0  0  0  0  0
  189.7410  177.0600  144.7480 C   0  0  0  0  0  3  0  0  0  0  0  0
  183.6090  179.3200  140.4390 C   0  0  1  0  0  3  0  0  0  0  0  0
  181.3440  178.5780  142.8730 C   0  0  1  0  0  3  0  0  0  0  0  0
  185.0290  179.2580  140.0970 N   0  0  0  0  0  0  0  0  0  0  0  0
  182.5480  179.4960  142.7440 C   0  0  0  0  0  2  0  0  0  0  0  0
  187.3490  178.5350  141.2870 S   0  0  0  0  0  0  0  0  0  0  0  0
  188.1250  177.9750  142.6690 C   0  0  0  0  0  0  0  0  0  0  0  0
  190.2760  177.3520  143.5090 C   0  0  0  0  0  3  0  0  0  0  0  0
  188.3770  177.2350  144.9390 C   0  0  0  0  0  3  0  0  0  0  0  0
  180.9140  178.5610  144.3280 C   0  0  0  0  0  1  0  0  0  0  0  0
  187.5010  177.6960  143.9240 C   0  0  0  0  0  0  0  0  0  0  0  0
  182.7920  178.3850  139.5280 C   0  0  2  0  0  3  0  0  0  0  0  0
  180.5420  179.1900  140.4940 C   0  0  0  0  0  2  0  0  0  0  0  0
  181.4560  178.1430  140.0440 N   0  0  0  0  0  0  0  0  0  0  0  0
  181.1460  176.7700  139.9030 C   0  0  0  0  0  0  0  0  0  0  0  0
  2  8  1  0  0  0  0
  2 17  1  0  0  0  0
  3 18  1  0  0  0  0
  3  8  1  0  0  0  0
  4  6  1  0  0  0  0
  5 19  2  0  0  0  0
  5 20  1  0  0  0  0
  8 12  2  0  0  0  0
  9 27  1  0  0  0  0
 10  7  1  6  0  0  0
 10 15  1  0  0  0  0
 11  9  1  0  0  0  0
 12  4  1  0  0  0  0
 13 21  1  0  0  0  0
 14 16  1  6  0  0  0
 14  2  1  0  0  0  0
 15 22  1  1  0  0  0
 16  3  2  0  0  0  0
 17 15  1  0  0  0  0
 18 19  1  0  0  0  0
 19 23  1  0  0  0  0
 20 13  2  0  0  0  0
 23  4  1  0  0  0  0
 23 21  2  0  0  0  0
 24 11  1  1  0  0  0
 24 26  1  0  0  0  0
 24 14  1  0  0  0  0
 25 10  1  0  0  0  0
 26 25  1  0  0  0  0
 27 26  1  0  0  0  0
 27  1  2  0  0  0  0
M  END
>  <MODEL>
1

>  <REMARK>
 VINA RESULT:      -8.0      0.000      0.000
  Name = 
  0 active torsions:
  status: ('A' for Active; 'I' for Inactive)
                            x       y       z     vdW  Elec       q    Type
                         _______ _______ _______ _____ _____    ______ ____

>  <TORSDO>
F 0

$$$$
=
 OpenBabel11032420363D

 27 31  0  0  1  0  0  0  0  0999 V2000
  187.8980  174.4250  135.4930 O   0  0  0  0  0  0  0  0  0  0  0  0
  189.1950  177.5920  138.7350 N   0  0  0  0  0  0  0  0  0  0  0  0
  190.8130  177.3350  140.2920 C   0  0  0  0  0  0  0  0  0  0  0  0
  188.4050  177.5130  142.3880 N   0  0  0  0  0  0  0  0  0  0  0  0
  191.5810  176.9720  144.2920 N   0  0  0  0  0  0  0  0  0  0  0  0
  187.0210  177.6910  142.8240 C   0  0  0  0  0  1  0  0  0  0  0  0
  186.3180  176.8400  135.2760 N   0  0  0  0  0  1  0  0  0  0  0  0
  189.4770  177.4780  140.1240 C   0  0  0  0  0  0  0  0  0  0  0  0
  189.6170  173.9460  137.1140 C   0  0  0  0  0  2  0  0  0  0  0  0
  187.3000  177.6580  135.9700 C   0  0  1  0  0  3  0  0  0  0  0  0
  190.5700  174.9180  137.8170 C   0  0  0  0  0  2  0  0  0  0  0  0
  188.4940  177.5670  141.0530 N   0  0  0  0  0  0  0  0  0  0  0  0
  189.7600  177.0750  145.7960 C   0  0  0  0  0  3  0  0  0  0  0  0
  190.4610  177.4830  138.0110 C   0  0  1  0  0  3  0  0  0  0  0  0
  187.0950  177.5690  137.4910 C   0  0  1  0  0  3  0  0  0  0  0  0
  191.4880  177.3500  139.0430 N   0  0  0  0  0  0  0  0  0  0  0  0
  188.1080  178.4220  138.2370 C   0  0  0  0  0  2  0  0  0  0  0  0
  191.6070  177.1650  141.7400 S   0  0  0  0  0  0  0  0  0  0  0  0
  190.7800  177.1500  143.2030 C   0  0  0  0  0  0  0  0  0  0  0  0
  191.1140  176.9310  145.5620 C   0  0  0  0  0  3  0  0  0  0  0  0
  188.9150  177.2610  144.7110 C   0  0  0  0  0  3  0  0  0  0  0  0
  185.7050  178.0490  137.8630 C   0  0  0  0  0  1  0  0  0  0  0  0
  189.3700  177.3090  143.3690 C   0  0  0  0  0  0  0  0  0  0  0  0
  190.4770  176.2620  137.0720 C   0  0  2  0  0  3  0  0  0  0  0  0
  188.7110  177.2820  135.4950 C   0  0  0  0  0  2  0  0  0  0  0  0
  189.2750  176.1740  136.2620 N   0  0  0  0  0  0  0  0  0  0  0  0
  188.8360  174.8300  136.2290 C   0  0  0  0  0  0  0  0  0  0  0  0
  1 27  2  0  0  0  0
  2  8  1  0  0  0  0
  3 18  1  0  0  0  0
  4  6  1  0  0  0  0
  4 23  1  0  0  0  0
  5 20  1  0  0  0  0
  8  3  1  0  0  0  0
  8 12  2  0  0  0  0
  9 11  1  0  0  0  0
 10  7  1  6  0  0  0
 10 15  1  0  0  0  0
 12  4  1  0  0  0  0
 14  2  1  0  0  0  0
 14 16  1  1  0  0  0
 15 22  1  6  0  0  0
 15 17  1  0  0  0  0
 16  3  2  0  0  0  0
 17  2  1  0  0  0  0
 18 19  1  0  0  0  0
 19 23  1  0  0  0  0
 19  5  2  0  0  0  0
 20 13  2  0  0  0  0
 21 13  1  0  0  0  0
 23 21  2  0  0  0  0
 24 11  1  1  0  0  0
 24 14  1  0  0  0  0
 25 10  1  0  0  0  0
 25 26  1  0  0  0  0
 26 24  1  0  0  0  0
 27 26  1  0  0  0  0
 27  9  1  0  0  0  0
M  END
>  <MODEL>
2

>  <REMARK>
 VINA RESULT:      -7.9      4.678      6.627
  Name = 
  0 active torsions:
  status: ('A' for Active; 'I' for Inactive)
                            x       y       z     vdW  Elec       q    Type
                         _______ _______ _______ _____ _____    ______ ____

>  <TORSDO>
F 0

$$$$
=
 OpenBabel11032420363D

 27 31  0  0  1  0  0  0  0  0999 V2000
  180.4010  176.1290  137.4880 O   0  0  0  0  0  0  0  0  0  0  0  0
  183.1590  179.0150  139.9940 N   0  0  0  0  0  0  0  0  0  0  0  0
  185.3380  178.6890  140.4980 C   0  0  0  0  0  0  0  0  0  0  0  0
  184.3050  178.5210  143.5190 N   0  0  0  0  0  0  0  0  0  0  0  0
  188.0040  177.9640  143.5130 N   0  0  0  0  0  0  0  0  0  0  0  0
  183.3250  178.5790  144.6030 C   0  0  0  0  0  1  0  0  0  0  0  0
  178.9340  178.4640  138.3670 N   0  0  0  0  0  1  0  0  0  0  0  0
  184.0990  178.7760  141.0350 C   0  0  0  0  0  0  0  0  0  0  0  0
  182.6990  175.5820  137.9710 C   0  0  0  0  0  2  0  0  0  0  0  0
  180.1350  179.2590  138.5690 C   0  0  1  0  0  3  0  0  0  0  0  0
  183.8790  176.5270  138.2130 C   0  0  0  0  0  2  0  0  0  0  0  0
  183.7130  178.7160  142.3330 N   0  0  0  0  0  0  0  0  0  0  0  0
  187.1820  177.8130  145.7230 C   0  0  0  0  0  3  0  0  0  0  0  0
  183.8920  179.0490  138.7300 C   0  0  1  0  0  3  0  0  0  0  0  0
  180.7190  179.0050  139.9680 C   0  0  1  0  0  3  0  0  0  0  0  0
  185.2970  178.8690  139.0900 N   0  0  0  0  0  0  0  0  0  0  0  0
  181.9720  179.8310  140.2030 C   0  0  0  0  0  2  0  0  0  0  0  0
  186.7500  178.4160  141.3280 S   0  0  0  0  0  0  0  0  0  0  0  0
  186.7670  178.2080  142.9960 C   0  0  0  0  0  0  0  0  0  0  0  0
  188.2360  177.7670  144.8320 C   0  0  0  0  0  3  0  0  0  0  0  0
  185.9080  178.0630  145.2330 C   0  0  0  0  0  3  0  0  0  0  0  0
  179.7030  179.3680  141.0350 C   0  0  0  0  0  1  0  0  0  0  0  0
  185.6300  178.2720  143.8590 C   0  0  0  0  0  0  0  0  0  0  0  0
  183.4310  177.9330  137.7740 C   0  0  2  0  0  3  0  0  0  0  0  0
  181.1170  179.0110  137.4150 C   0  0  0  0  0  2  0  0  0  0  0  0
  181.9850  177.8620  137.6660 N   0  0  0  0  0  0  0  0  0  0  0  0
  181.5830  176.5070  137.7000 C   0  0  0  0  0  0  0  0  0  0  0  0
  1 27  2  0  0  0  0
  2 17  1  0  0  0  0
  2  8  1  0  0  0  0
  3  8  1  0  0  0  0
  3 18  1  0  0  0  0
  4 23  1  0  0  0  0
  4  6  1  0  0  0  0
  5 20  1  0  0  0  0
  8 12  2  0  0  0  0
  9 11  1  0  0  0  0
 10  7  1  6  0  0  0
 10 15  1  0  0  0  0
 12  4  1  0  0  0  0
 14 16  1  1  0  0  0
 14  2  1  0  0  0  0
 15 17  1  0  0  0  0
 15 22  1  1  0  0  0
 16  3  2  0  0  0  0
 18 19  1  0  0  0  0
 19  5  2  0  0  0  0
 19 23  1  0  0  0  0
 20 13  2  0  0  0  0
 21 13  1  0  0  0  0
 23 21  2  0  0  0  0
 24 11  1  1  0  0  0
 24 14  1  0  0  0  0
 25 26  1  0  0  0  0
 25 10  1  0  0  0  0
 26 27  1  0  0  0  0
 26 24  1  0  0  0  0
 27  9  1  0  0  0  0
M  END
>  <MODEL>
3

>  <REMARK>
 VINA RESULT:      -6.9      1.745      2.343
  Name = 
  0 active torsions:
  status: ('A' for Active; 'I' for Inactive)
                            x       y       z     vdW  Elec       q    Type
                         _______ _______ _______ _____ _____    ______ ____

>  <TORSDO>
F 0

$$$$
=
 OpenBabel11032420363D

 27 31  0  0  1  0  0  0  0  0999 V2000
  181.8850  175.6210  137.7510 O   0  0  0  0  0  0  0  0  0  0  0  0
  185.0990  178.5010  139.6460 N   0  0  0  0  0  0  0  0  0  0  0  0
  187.3430  178.2530  139.5570 C   0  0  0  0  0  0  0  0  0  0  0  0
  187.1270  177.8810  142.7260 N   0  0  0  0  0  0  0  0  0  0  0  0
  190.7170  177.5000  141.7430 N   0  0  0  0  0  0  0  0  0  0  0  0
  186.4570  177.8360  144.0250 C   0  0  0  0  0  1  0  0  0  0  0  0
  180.6170  177.8350  139.1170 N   0  0  0  0  0  1  0  0  0  0  0  0
  186.2810  178.2530  140.3970 C   0  0  0  0  0  0  0  0  0  0  0  0
  184.2460  175.1590  137.5980 C   0  0  0  0  0  2  0  0  0  0  0  0
  181.8030  178.6750  139.0550 C   0  0  1  0  0  3  0  0  0  0  0  0
  185.4180  176.1450  137.5900 C   0  0  0  0  0  2  0  0  0  0  0  0
  186.2450  178.1080  141.7440 N   0  0  0  0  0  0  0  0  0  0  0  0
  190.4950  177.1970  144.0770 C   0  0  0  0  0  3  0  0  0  0  0  0
  185.4810  178.6350  138.2420 C   0  0  1  0  0  3  0  0  0  0  0  0
  182.7350  178.3770  140.2420 C   0  0  1  0  0  3  0  0  0  0  0  0
  186.9360  178.5020  138.2210 N   0  0  0  0  0  0  0  0  0  0  0  0
  183.9790  179.2480  140.2010 C   0  0  0  0  0  2  0  0  0  0  0  0
  188.9290  178.0040  139.9820 S   0  0  0  0  0  0  0  0  0  0  0  0
  189.3810  177.7110  141.5750 C   0  0  0  0  0  0  0  0  0  0  0  0
  191.2860  177.2470  142.9460 C   0  0  0  0  0  3  0  0  0  0  0  0
  189.1310  177.4110  143.9430 C   0  0  0  0  0  3  0  0  0  0  0  0
  182.0170  178.6360  141.5520 C   0  0  0  0  0  1  0  0  0  0  0  0
  188.5020  177.6770  142.7010 C   0  0  0  0  0  0  0  0  0  0  0  0
  184.8260  177.5490  137.3670 C   0  0  2  0  0  3  0  0  0  0  0  0
  182.4640  178.5340  137.6770 C   0  0  0  0  0  2  0  0  0  0  0  0
  183.4040  177.4160  137.6270 N   0  0  0  0  0  0  0  0  0  0  0  0
  183.0680  176.0430  137.6780 C   0  0  0  0  0  0  0  0  0  0  0  0
  2 17  1  0  0  0  0
  2  8  1  0  0  0  0
  3 18  1  0  0  0  0
  3  8  1  0  0  0  0
  4  6  1  0  0  0  0
  5 20  1  0  0  0  0
  8 12  2  0  0  0  0
  9 27  1  0  0  0  0
 10  7  1  6  0  0  0
 10 15  1  0  0  0  0
 11  9  1  0  0  0  0
 12  4  1  0  0  0  0
 14 16  1  1  0  0  0
 14  2  1  0  0  0  0
 15 22  1  1  0  0  0
 16  3  2  0  0  0  0
 17 15  1  0  0  0  0
 18 19  1  0  0  0  0
 19  5  2  0  0  0  0
 19 23  1  0  0  0  0
 20 13  2  0  0  0  0
 21 13  1  0  0  0  0
 23  4  1  0  0  0  0
 23 21  2  0  0  0  0
 24 11  1  1  0  0  0
 24 26  1  0  0  0  0
 24 14  1  0  0  0  0
 25 10  1  0  0  0  0
 26 25  1  0  0  0  0
 26 27  1  0  0  0  0
 27  1  2  0  0  0  0
M  END
>  <MODEL>
4

>  <REMARK>
 VINA RESULT:      -6.6      1.921      2.569
  Name = 
  0 active torsions:
  status: ('A' for Active; 'I' for Inactive)
                            x       y       z     vdW  Elec       q    Type
                         _______ _______ _______ _____ _____    ______ ____

>  <TORSDO>
F 0

$$$$
=
 OpenBabel11032420363D

 27 31  0  0  1  0  0  0  0  0999 V2000
  184.1650  174.2930  136.3430 O   0  0  0  0  0  0  0  0  0  0  0  0
  186.7750  177.6980  138.2940 N   0  0  0  0  0  0  0  0  0  0  0  0
  188.9490  177.5490  138.8910 C   0  0  0  0  0  0  0  0  0  0  0  0
  187.8470  177.9320  141.8670 N   0  0  0  0  0  0  0  0  0  0  0  0
  191.5600  177.5080  142.0380 N   0  0  0  0  0  0  0  0  0  0  0  0
  186.8390  178.1650  142.9020 C   0  0  0  0  0  1  0  0  0  0  0  0
  182.6090  176.7020  136.7250 N   0  0  0  0  0  1  0  0  0  0  0  0
  187.6950  177.6960  139.3780 C   0  0  0  0  0  0  0  0  0  0  0  0
  186.4660  173.9260  136.9640 C   0  0  0  0  0  2  0  0  0  0  0  0
  183.7810  177.5610  136.7910 C   0  0  1  0  0  3  0  0  0  0  0  0
  187.6110  174.9390  137.0410 C   0  0  0  0  0  2  0  0  0  0  0  0
  187.2800  177.8750  140.6560 N   0  0  0  0  0  0  0  0  0  0  0  0
  190.6890  177.7590  144.2210 C   0  0  0  0  0  3  0  0  0  0  0  0
  187.5370  177.5120  137.0600 C   0  0  1  0  0  3  0  0  0  0  0  0
  184.3370  177.6020  138.2240 C   0  0  1  0  0  3  0  0  0  0  0  0
  188.9380  177.4520  137.4750 N   0  0  0  0  0  0  0  0  0  0  0  0
  185.5600  178.4990  138.3180 C   0  0  0  0  0  2  0  0  0  0  0  0
  190.3480  177.4880  139.7840 S   0  0  0  0  0  0  0  0  0  0  0  0
  190.3290  177.6060  141.4610 C   0  0  0  0  0  0  0  0  0  0  0  0
  191.7650  177.5780  143.3750 C   0  0  0  0  0  3  0  0  0  0  0  0
  189.4200  177.8670  143.6670 C   0  0  0  0  0  3  0  0  0  0  0  0
  183.2850  178.1300  139.1820 C   0  0  0  0  0  1  0  0  0  0  0  0
  189.1700  177.7970  142.2740 C   0  0  0  0  0  0  0  0  0  0  0  0
  187.1330  176.2180  136.3300 C   0  0  2  0  0  3  0  0  0  0  0  0
  184.7980  177.1280  135.7260 C   0  0  0  0  0  2  0  0  0  0  0  0
  185.6920  176.0800  136.2110 N   0  0  0  0  0  0  0  0  0  0  0  0
  185.3300  174.7430  136.4990 C   0  0  0  0  0  0  0  0  0  0  0  0
  1 27  2  0  0  0  0
  2 17  1  0  0  0  0
  2  8  1  0  0  0  0
  3  8  1  0  0  0  0
  3 18  1  0  0  0  0
  4 23  1  0  0  0  0
  4  6  1  0  0  0  0
  5 20  1  0  0  0  0
  8 12  2  0  0  0  0
  9 11  1  0  0  0  0
 10  7  1  1  0  0  0
 10 15  1  0  0  0  0
 12  4  1  0  0  0  0
 14 16  1  1  0  0  0
 14  2  1  0  0  0  0
 15 17  1  0  0  0  0
 15 22  1  1  0  0  0
 16  3  2  0  0  0  0
 18 19  1  0  0  0  0
 19  5  2  0  0  0  0
 19 23  1  0  0  0  0
 20 13  2  0  0  0  0
 21 13  1  0  0  0  0
 23 21  2  0  0  0  0
 24 11  1  1  0  0  0
 24 14  1  0  0  0  0
 25 26  1  0  0  0  0
 25 10  1  0  0  0  0
 26 24  1  0  0  0  0
 26 27  1  0  0  0  0
 27  9  1  0  0  0  0
M  END
>  <MODEL>
5

>  <REMARK>
 VINA RESULT:      -6.5      3.441      4.718
  Name = 
  0 active torsions:
  status: ('A' for Active; 'I' for Inactive)
                            x       y       z     vdW  Elec       q    Type
                         _______ _______ _______ _____ _____    ______ ____

>  <TORSDO>
F 0

$$$$
=
 OpenBabel11032420363D

 27 31  0  0  1  0  0  0  0  0999 V2000
  179.6620  181.7440  136.7580 O   0  0  0  0  0  0  0  0  0  0  0  0
  181.0010  178.5070  139.9110 N   0  0  0  0  0  0  0  0  0  0  0  0
  181.0340  178.7520  142.1570 C   0  0  0  0  0  0  0  0  0  0  0  0
  184.2010  178.4470  141.8430 N   0  0  0  0  0  0  0  0  0  0  0  0
  183.4300  179.0030  145.4620 N   0  0  0  0  0  0  0  0  0  0  0  0
  185.4600  178.2210  141.1340 C   0  0  0  0  0  1  0  0  0  0  0  0
  180.4900  179.3000  135.4480 N   0  0  0  0  0  1  0  0  0  0  0  0
  181.8220  178.5820  141.0700 C   0  0  0  0  0  0  0  0  0  0  0  0
  179.6810  182.2120  139.1230 C   0  0  0  0  0  2  0  0  0  0  0  0
  180.2880  178.4840  136.6350 C   0  0  1  0  0  3  0  0  0  0  0  0
  179.5000  181.2420  140.2940 C   0  0  0  0  0  2  0  0  0  0  0  0
  183.1680  178.4390  140.9920 N   0  0  0  0  0  0  0  0  0  0  0  0
  185.7670  178.8080  145.1690 C   0  0  0  0  0  3  0  0  0  0  0  0
  179.6120  178.6700  140.3360 C   0  0  1  0  0  3  0  0  0  0  0  0
  181.5380  178.5180  137.5300 C   0  0  1  0  0  3  0  0  0  0  0  0
  179.6630  178.7940  141.7910 N   0  0  0  0  0  0  0  0  0  0  0  0
  181.3510  177.6670  138.7750 C   0  0  0  0  0  2  0  0  0  0  0  0
  181.5490  178.8940  143.7290 S   0  0  0  0  0  0  0  0  0  0  0  0
  183.1810  178.8410  144.1320 C   0  0  0  0  0  0  0  0  0  0  0  0
  184.6750  178.9920  145.9940 C   0  0  0  0  0  3  0  0  0  0  0  0
  185.5500  178.6360  143.8090 C   0  0  0  0  0  3  0  0  0  0  0  0
  182.7420  177.9930  136.7710 C   0  0  0  0  0  1  0  0  0  0  0  0
  184.2610  178.6430  143.2190 C   0  0  0  0  0  0  0  0  0  0  0  0
  178.9680  179.9200  139.7090 C   0  0  2  0  0  3  0  0  0  0  0  0
  178.9910  178.9090  137.3380 C   0  0  0  0  0  2  0  0  0  0  0  0
  179.2070  180.0060  138.2790 N   0  0  0  0  0  0  0  0  0  0  0  0
  179.5370  181.3390  137.9430 C   0  0  0  0  0  0  0  0  0  0  0  0
  1 27  2  0  0  0  0
  2 14  1  0  0  0  0
  2  8  1  0  0  0  0
  3 18  1  0  0  0  0
  4 23  1  0  0  0  0
  5 20  1  0  0  0  0
  6  4  1  0  0  0  0
  8  3  1  0  0  0  0
  9 11  1  0  0  0  0
 10  7  1  6  0  0  0
 10 25  1  0  0  0  0
 10 15  1  0  0  0  0
 12  8  2  0  0  0  0
 12  4  1  0  0  0  0
 13 20  2  0  0  0  0
 14 16  1  1  0  0  0
 15 22  1  6  0  0  0
 15 17  1  0  0  0  0
 16  3  2  0  0  0  0
 17  2  1  0  0  0  0
 18 19  1  0  0  0  0
 19  5  2  0  0  0  0
 21 13  1  0  0  0  0
 23 21  2  0  0  0  0
 23 19  1  0  0  0  0
 24 11  1  1  0  0  0
 24 14  1  0  0  0  0
 25 26  1  0  0  0  0
 26 24  1  0  0  0  0
 27 26  1  0  0  0  0
 27  9  1  0  0  0  0
M  END
>  <MODEL>
6

>  <REMARK>
 VINA RESULT:      -6.3      2.904      5.113
  Name = 
  0 active torsions:
  status: ('A' for Active; 'I' for Inactive)
                            x       y       z     vdW  Elec       q    Type
                         _______ _______ _______ _____ _____    ______ ____

>  <TORSDO>
F 0

$$$$
=
 OpenBabel11032420363D

 27 31  0  0  1  0  0  0  0  0999 V2000
  182.1760  174.9640  138.5150 O   0  0  0  0  0  0  0  0  0  0  0  0
  185.8870  177.8250  138.0170 N   0  0  0  0  0  0  0  0  0  0  0  0
  187.8940  177.2800  137.1320 C   0  0  0  0  0  0  0  0  0  0  0  0
  189.0060  177.8310  140.0790 N   0  0  0  0  0  0  0  0  0  0  0  0
  191.8690  176.7420  137.9310 N   0  0  0  0  0  0  0  0  0  0  0  0
  188.9330  178.2330  141.4830 C   0  0  0  0  0  1  0  0  0  0  0  0
  181.5870  177.6110  139.5240 N   0  0  0  0  0  1  0  0  0  0  0  0
  187.2740  177.6470  138.2780 C   0  0  0  0  0  0  0  0  0  0  0  0
  184.2620  174.1820  137.5930 C   0  0  0  0  0  2  0  0  0  0  0  0
  182.6420  178.2440  138.7480 C   0  0  1  0  0  3  0  0  0  0  0  0
  185.3260  174.9710  136.8250 C   0  0  0  0  0  2  0  0  0  0  0  0
  187.7970  177.8870  139.5050 N   0  0  0  0  0  0  0  0  0  0  0  0
  192.6320  177.1280  140.1340 C   0  0  0  0  0  3  0  0  0  0  0  0
  185.6550  177.5150  136.6070 C   0  0  1  0  0  3  0  0  0  0  0  0
  183.9810  178.1710  139.5010 C   0  0  1  0  0  3  0  0  0  0  0  0
  186.9710  177.1990  136.0570 N   0  0  0  0  0  0  0  0  0  0  0  0
  185.0980  178.8320  138.7110 C   0  0  0  0  0  2  0  0  0  0  0  0
  189.5140  176.9610  136.9530 S   0  0  0  0  0  0  0  0  0  0  0  0
  190.5830  177.0660  138.2460 C   0  0  0  0  0  0  0  0  0  0  0  0
  192.8840  176.7630  138.8270 C   0  0  0  0  0  3  0  0  0  0  0  0
  191.3340  177.4680  140.4900 C   0  0  0  0  0  3  0  0  0  0  0  0
  183.8680  178.8720  140.8420 C   0  0  0  0  0  1  0  0  0  0  0  0
  190.2480  177.4560  139.5780 C   0  0  0  0  0  0  0  0  0  0  0  0
  184.6970  176.3210  136.4370 C   0  0  2  0  0  3  0  0  0  0  0  0
  182.6740  177.6440  137.3350 C   0  0  0  0  0  2  0  0  0  0  0  0
  183.5080  176.4460  137.2630 N   0  0  0  0  0  0  0  0  0  0  0  0
  183.2240  175.1950  137.8570 C   0  0  0  0  0  0  0  0  0  0  0  0
  2  8  1  0  0  0  0
  2 17  1  0  0  0  0
  3  8  1  0  0  0  0
  4  6  1  0  0  0  0
  5 19  2  0  0  0  0
  5 20  1  0  0  0  0
  8 12  2  0  0  0  0
  9 27  1  0  0  0  0
 10 15  1  0  0  0  0
 10  7  1  1  0  0  0
 11  9  1  0  0  0  0
 12  4  1  0  0  0  0
 13 21  1  0  0  0  0
 14 16  1  1  0  0  0
 14  2  1  0  0  0  0
 15 22  1  1  0  0  0
 16  3  2  0  0  0  0
 17 15  1  0  0  0  0
 18  3  1  0  0  0  0
 18 19  1  0  0  0  0
 19 23  1  0  0  0  0
 20 13  2  0  0  0  0
 23  4  1  0  0  0  0
 23 21  2  0  0  0  0
 24 14  1  0  0  0  0
 24 11  1  1  0  0  0
 24 26  1  0  0  0  0
 25 10  1  0  0  0  0
 26 25  1  0  0  0  0
 26 27  1  0  0  0  0
 27  1  2  0  0  0  0
M  END
>  <MODEL>
7

>  <REMARK>
 VINA RESULT:      -6.3      3.478      4.607
  Name = 
  0 active torsions:
  status: ('A' for Active; 'I' for Inactive)
                            x       y       z     vdW  Elec       q    Type
                         _______ _______ _______ _____ _____    ______ ____

>  <TORSDO>
F 0

$$$$
=
 OpenBabel11032420363D

 27 31  0  0  1  0  0  0  0  0999 V2000
  190.9330  176.3650  140.3530 O   0  0  0  0  0  0  0  0  0  0  0  0
  187.4370  176.5150  137.1950 N   0  0  0  0  0  0  0  0  0  0  0  0
  185.4540  177.5720  137.4360 C   0  0  0  0  0  0  0  0  0  0  0  0
  184.2130  174.6270  137.3280 N   0  0  0  0  0  0  0  0  0  0  0  0
  181.4150  177.0610  137.8240 N   0  0  0  0  0  0  0  0  0  0  0  0
  184.2310  173.1720  137.1820 C   0  0  0  0  0  1  0  0  0  0  0  0
  191.6240  174.8780  137.9690 N   0  0  0  0  0  1  0  0  0  0  0  0
  186.0300  176.3520  137.3180 C   0  0  0  0  0  0  0  0  0  0  0  0
  188.8580  177.5030  140.8140 C   0  0  0  0  0  2  0  0  0  0  0  0
  190.6550  175.5760  137.1380 C   0  0  1  0  0  3  0  0  0  0  0  0
  187.8890  178.1660  139.8310 C   0  0  0  0  0  2  0  0  0  0  0  0
  185.4530  175.1270  137.2580 N   0  0  0  0  0  0  0  0  0  0  0  0
  180.5540  174.8600  137.7750 C   0  0  0  0  0  3  0  0  0  0  0  0
  187.7300  177.9450  137.2710 C   0  0  1  0  0  3  0  0  0  0  0  0
  189.2740  174.9090  137.2470 C   0  0  1  0  0  3  0  0  0  0  0  0
  186.4300  178.6020  137.3940 N   0  0  0  0  0  0  0  0  0  0  0  0
  188.2460  175.6190  136.3820 C   0  0  0  0  0  2  0  0  0  0  0  0
  183.8310  177.8780  137.6050 S   0  0  0  0  0  0  0  0  0  0  0  0
  182.6990  176.6360  137.6510 C   0  0  0  0  0  0  0  0  0  0  0  0
  180.3540  176.2220  137.8890 C   0  0  0  0  0  3  0  0  0  0  0  0
  181.8480  174.3920  137.5930 C   0  0  0  0  0  3  0  0  0  0  0  0
  189.3530  173.4620  136.7990 C   0  0  0  0  0  1  0  0  0  0  0  0
  182.9810  175.2410  137.5230 C   0  0  0  0  0  0  0  0  0  0  0  0
  188.6210  178.2810  138.4810 C   0  0  2  0  0  3  0  0  0  0  0  0
  190.6670  177.0730  137.4800 C   0  0  0  0  0  2  0  0  0  0  0  0
  189.7660  177.3930  138.5850 N   0  0  0  0  0  0  0  0  0  0  0  0
  189.9400  177.0170  139.9380 C   0  0  0  0  0  0  0  0  0  0  0  0
  2 14  1  0  0  0  0
  2  8  1  0  0  0  0
  3 18  1  0  0  0  0
  4 23  1  0  0  0  0
  5 20  1  0  0  0  0
  6  4  1  0  0  0  0
  8  3  1  0  0  0  0
 10 15  1  0  0  0  0
 10 25  1  0  0  0  0
 10  7  1  1  0  0  0
 11  9  1  0  0  0  0
 12  8  2  0  0  0  0
 12  4  1  0  0  0  0
 13 20  2  0  0  0  0
 14 16  1  1  0  0  0
 14 24  1  0  0  0  0
 15 22  1  6  0  0  0
 16  3  2  0  0  0  0
 17  2  1  0  0  0  0
 17 15  1  0  0  0  0
 18 19  1  0  0  0  0
 19  5  2  0  0  0  0
 21 13  1  0  0  0  0
 23 21  2  0  0  0  0
 23 19  1  0  0  0  0
 24 26  1  0  0  0  0
 24 11  1  1  0  0  0
 25 26  1  0  0  0  0
 26 27  1  0  0  0  0
 27  1  2  0  0  0  0
 27  9  1  0  0  0  0
M  END
>  <MODEL>
8

>  <REMARK>
 VINA RESULT:      -6.2      4.768      8.849
  Name = 
  0 active torsions:
  status: ('A' for Active; 'I' for Inactive)
                            x       y       z     vdW  Elec       q    Type
                         _______ _______ _______ _____ _____    ______ ____

>  <TORSDO>
F 0

$$$$
=
 OpenBabel11032420363D

 27 31  0  0  1  0  0  0  0  0999 V2000
  191.3550  175.2570  138.3430 O   0  0  0  0  0  0  0  0  0  0  0  0
  187.1850  176.8310  136.8100 N   0  0  0  0  0  0  0  0  0  0  0  0
  185.7910  178.2310  137.9070 C   0  0  0  0  0  0  0  0  0  0  0  0
  183.8070  175.7250  137.9690 N   0  0  0  0  0  0  0  0  0  0  0  0
  182.1620  178.5670  139.7630 N   0  0  0  0  0  0  0  0  0  0  0  0
  183.3600  174.3650  137.6720 C   0  0  0  0  0  1  0  0  0  0  0  0
  190.7350  174.1770  135.7310 N   0  0  0  0  0  1  0  0  0  0  0  0
  185.9200  176.9650  137.4460 C   0  0  0  0  0  0  0  0  0  0  0  0
  189.9780  176.7100  139.6870 C   0  0  0  0  0  2  0  0  0  0  0  0
  189.7810  175.2290  135.4180 C   0  0  1  0  0  3  0  0  0  0  0  0
  188.9620  177.7610  139.2310 C   0  0  0  0  0  2  0  0  0  0  0  0
  185.0360  175.9380  137.4820 N   0  0  0  0  0  0  0  0  0  0  0  0
  180.7490  176.6730  139.8110 C   0  0  0  0  0  3  0  0  0  0  0  0
  187.8790  178.1130  136.9210 C   0  0  1  0  0  3  0  0  0  0  0  0
  188.3920  174.8800  135.9770 C   0  0  1  0  0  3  0  0  0  0  0  0
  186.9430  179.0030  137.6040 N   0  0  0  0  0  0  0  0  0  0  0  0
  187.3770  175.9640  135.6560 C   0  0  0  0  0  2  0  0  0  0  0  0
  184.4830  178.8510  138.7200 S   0  0  0  0  0  0  0  0  0  0  0  0
  183.1320  177.9110  139.0640 C   0  0  0  0  0  0  0  0  0  0  0  0
  180.9960  177.9910  140.1390 C   0  0  0  0  0  3  0  0  0  0  0  0
  181.7130  175.9750  139.0970 C   0  0  0  0  0  3  0  0  0  0  0  0
  187.8980  173.5750  135.3800 C   0  0  0  0  0  1  0  0  0  0  0  0
  182.9440  176.5460  138.6880 C   0  0  0  0  0  0  0  0  0  0  0  0
  189.1870  177.9840  137.7240 C   0  0  2  0  0  3  0  0  0  0  0  0
  190.3330  176.5820  135.8890 C   0  0  0  0  0  2  0  0  0  0  0  0
  189.9960  176.8610  137.2830 N   0  0  0  0  0  0  0  0  0  0  0  0
  190.5090  176.1860  138.4150 C   0  0  0  0  0  0  0  0  0  0  0  0
  1 27  2  0  0  0  0
  2 14  1  0  0  0  0
  2  8  1  0  0  0  0
  3 18  1  0  0  0  0
  4 23  1  0  0  0  0
  5 20  1  0  0  0  0
  6  4  1  0  0  0  0
  8 12  2  0  0  0  0
  8  3  1  0  0  0  0
 10  7  1  1  0  0  0
 10 25  1  0  0  0  0
 10 15  1  0  0  0  0
 11  9  1  0  0  0  0
 12  4  1  0  0  0  0
 13 20  2  0  0  0  0
 14 16  1  1  0  0  0
 14 24  1  0  0  0  0
 15 22  1  6  0  0  0
 16  3  2  0  0  0  0
 17 15  1  0  0  0  0
 17  2  1  0  0  0  0
 18 19  1  0  0  0  0
 19  5  2  0  0  0  0
 21 13  1  0  0  0  0
 23 19  1  0  0  0  0
 23 21  2  0  0  0  0
 24 11  1  1  0  0  0
 25 26  1  0  0  0  0
 26 24  1  0  0  0  0
 26 27  1  0  0  0  0
 27  9  1  0  0  0  0
M  END
>  <MODEL>
9

>  <REMARK>
 VINA RESULT:      -6.0      4.964      8.607
  Name = 
  0 active torsions:
  status: ('A' for Active; 'I' for Inactive)
                            x       y       z     vdW  Elec       q    Type
                         _______ _______ _______ _____ _____    ______ ____

>  <TORSDO>
F 0

$$$$
