=
 OpenBabel11042411333D

 36 41  0  0  1  0  0  0  0  0999 V2000
  188.8450  177.4410  145.6230 C   0  0  0  0  0  0  0  0  0  0  0  0
  183.2500  178.6970  142.7990 C   0  0  0  0  0  3  0  0  0  0  0  0
  189.5440  176.9730  144.5250 C   0  0  0  0  0  0  0  0  0  0  0  0
  186.6290  178.0920  144.7860 C   0  0  0  0  0  0  0  0  0  0  0  0
  190.8280  176.4660  144.9270 C   0  0  0  0  0  0  0  0  0  0  0  0
  189.7970  177.1920  146.9590 S   0  0  0  0  0  0  0  0  0  0  0  0
  185.3670  178.4110  145.3270 O   0  0  0  0  0  0  0  0  0  0  0  0
  186.9630  178.4830  140.5490 C   0  0  0  0  0  3  0  0  0  0  0  0
  191.1280  176.5220  146.2490 N   0  0  0  0  0  0  0  0  0  0  0  0
  189.7290  176.1910  142.4140 O   0  0  0  0  0  0  0  0  0  0  0  0
  187.5670  177.8270  145.7140 N   0  0  0  0  0  0  0  0  0  0  0  0
  189.0940  176.9530  143.1960 C   0  0  0  0  0  0  0  0  0  0  0  0
  191.7930  175.9620  144.0060 N   0  0  0  0  0  1  0  0  0  0  0  0
  184.4750  179.3000  144.6780 C   0  0  2  0  0  3  0  0  0  0  0  0
  186.8350  178.1370  143.3630 C   0  0  0  0  0  0  0  0  0  0  0  0
  188.0160  177.7100  142.6450 C   0  0  0  0  0  0  0  0  0  0  0  0
  182.3250  178.8400  143.8610 N   0  0  0  0  0  0  0  0  0  0  0  0
  183.0240  179.0900  145.1100 C   0  0  0  0  0  2  0  0  0  0  0  0
  185.7940  178.7620  141.2140 C   0  0  0  0  0  3  0  0  0  0  0  0
  184.4640  178.9500  143.2500 C   0  0  0  0  0  0  0  0  0  0  0  0
  188.0630  177.9800  141.2310 C   0  0  0  0  0  0  0  0  0  0  0  0
  185.7210  178.6040  142.5900 C   0  0  0  0  0  0  0  0  0  0  0  0
  189.3020  177.8360  140.3950 C   0  0  0  0  0  2  0  0  0  0  0  0
  189.1550  178.5890  139.0790 C   0  0  0  0  0  2  0  0  0  0  0  0
  189.3950  177.6670  137.9260 C   0  0  0  0  0  0  0  0  0  0  0  0
  190.4810  175.6010  137.0350 C   0  0  0  0  0  2  0  0  0  0  0  0
  190.1350  176.5650  138.1370 C   0  0  0  0  0  3  0  0  0  0  0  0
  189.2280  177.0400  135.4590 C   0  0  0  0  0  2  0  0  0  0  0  0
  189.0160  178.1180  136.5260 C   0  0  1  0  0  3  0  0  0  0  0  0
  187.5710  178.5840  136.4740 C   0  0  0  0  0  1  0  0  0  0  0  0
  190.5440  176.3100  135.6890 C   0  0  0  0  0  2  0  0  0  0  0  0
  180.8890  178.6280  143.7510 C   0  0  0  0  0  2  0  0  0  0  0  0
  180.4720  178.5440  142.2870 C   0  0  1  0  0  3  0  0  0  0  0  0
  179.4750  177.5780  142.1170 O   0  0  0  0  0  1  0  0  0  0  0  0
  180.0020  179.8980  141.7680 C   0  0  0  0  0  2  0  0  0  0  0  0
  180.3290  180.0920  140.2930 C   0  0  0  0  0  1  0  0  0  0  0  0
  1 11  1  0  0  0  0
  1  6  1  0  0  0  0
  2 20  2  0  0  0  0
  2 17  1  0  0  0  0
  3  5  1  0  0  0  0
  3  1  2  0  0  0  0
  4  7  1  0  0  0  0
  4 11  2  0  0  0  0
  5  9  2  0  0  0  0
  8 19  2  0  0  0  0
  8 21  1  0  0  0  0
  9  6  1  0  0  0  0
 10 12  2  0  0  0  0
 12  3  1  0  0  0  0
 13  5  1  0  0  0  0
 14 18  1  1  0  0  0
 14  7  1  0  0  0  0
 15  4  1  0  0  0  0
 16 12  1  0  0  0  0
 16 15  1  0  0  0  0
 17 18  1  0  0  0  0
 19 22  1  0  0  0  0
 20 14  1  0  0  0  0
 21 16  2  0  0  0  0
 22 20  1  0  0  0  0
 22 15  2  0  0  0  0
 23 21  1  0  0  0  0
 24 23  1  0  0  0  0
 25 27  2  0  0  0  0
 25 24  1  0  0  0  0
 26 27  1  0  0  0  0
 28 31  1  0  0  0  0
 28 29  1  0  0  0  0
 29 30  1  1  0  0  0
 29 25  1  0  0  0  0
 31 26  1  0  0  0  0
 32 17  1  0  0  0  0
 33 34  1  1  0  0  0
 33 32  1  0  0  0  0
 35 33  1  0  0  0  0
 36 35  1  0  0  0  0
M  END
>  <MODEL>
1

>  <REMARK>
 VINA RESULT:      -9.6      0.000      0.000
  Name = 
  6 active torsions:
  status: ('A' for Active; 'I' for Inactive)
    1  A    between atoms: C_4  and  C_25
    2  A    between atoms: C_4  and  C_32
    3  A    between atoms: C_5  and  C_34
    4  A    between atoms: C_7  and  C_34
    5  A    between atoms: C_7  and  C_35
    6  A    between atoms: N_27  and  C_32
                            x       y       z     vdW  Elec       q    Type
                         _______ _______ _______ _____ _____    ______ ____

>  <TORSDO>
F 6

$$$$
=
 OpenBabel11042411333D

 36 41  0  0  1  0  0  0  0  0999 V2000
  187.4650  177.7050  137.9670 C   0  0  0  0  0  0  0  0  0  0  0  0
  181.7060  179.8180  139.7600 C   0  0  0  0  0  3  0  0  0  0  0  0
  188.1520  177.9090  139.1500 C   0  0  0  0  0  0  0  0  0  0  0  0
  185.1420  178.3710  138.4080 C   0  0  0  0  0  0  0  0  0  0  0  0
  189.5530  177.6460  138.9690 C   0  0  0  0  0  0  0  0  0  0  0  0
  188.5780  177.2570  136.8200 S   0  0  0  0  0  0  0  0  0  0  0  0
  183.9820  178.6530  137.6590 O   0  0  0  0  0  0  0  0  0  0  0  0
  184.6580  178.4600  142.6470 C   0  0  0  0  0  3  0  0  0  0  0  0
  189.9550  177.2650  137.7300 N   0  0  0  0  0  0  0  0  0  0  0  0
  188.4290  178.7790  141.2160 O   0  0  0  0  0  0  0  0  0  0  0  0
  186.1970  178.0010  137.6590 N   0  0  0  0  0  0  0  0  0  0  0  0
  187.6030  178.3370  140.3690 C   0  0  0  0  0  0  0  0  0  0  0  0
  190.5080  177.7230  140.0260 N   0  0  0  0  0  1  0  0  0  0  0  0
  182.6820  178.4290  138.1750 C   0  0  2  0  0  3  0  0  0  0  0  0
  185.1030  178.4280  139.8450 C   0  0  0  0  0  0  0  0  0  0  0  0
  186.2270  178.3040  140.7480 C   0  0  0  0  0  0  0  0  0  0  0  0
  180.9900  180.0090  138.5530 N   0  0  0  0  0  0  0  0  0  0  0  0
  181.6200  179.2720  137.4710 C   0  0  0  0  0  2  0  0  0  0  0  0
  183.6140  178.7120  141.7920 C   0  0  0  0  0  3  0  0  0  0  0  0
  182.6620  178.9320  139.5570 C   0  0  0  0  0  0  0  0  0  0  0  0
  185.9390  178.2460  142.1580 C   0  0  0  0  0  0  0  0  0  0  0  0
  183.8170  178.6920  140.4210 C   0  0  0  0  0  0  0  0  0  0  0  0
  186.9500  177.8660  143.2020 C   0  0  0  0  0  2  0  0  0  0  0  0
  186.2860  177.7140  144.5640 C   0  0  0  0  0  2  0  0  0  0  0  0
  187.3120  177.7970  145.6500 C   0  0  0  0  0  0  0  0  0  0  0  0
  189.6820  177.4850  146.3770 C   0  0  0  0  0  2  0  0  0  0  0  0
  188.5850  177.4870  145.3480 C   0  0  0  0  0  3  0  0  0  0  0  0
  188.0100  178.1440  148.0790 C   0  0  0  0  0  2  0  0  0  0  0  0
  186.8550  177.9800  147.0870 C   0  0  1  0  0  3  0  0  0  0  0  0
  185.9220  179.1730  147.2170 C   0  0  0  0  0  1  0  0  0  0  0  0
  189.1330  177.1650  147.7600 C   0  0  0  0  0  2  0  0  0  0  0  0
  179.8710  180.9230  138.3840 C   0  0  0  0  0  2  0  0  0  0  0  0
  180.1410  181.8930  137.2400 C   0  0  1  0  0  3  0  0  0  0  0  0
  178.9400  182.4200  136.7520 O   0  0  0  0  0  1  0  0  0  0  0  0
  181.0810  183.0120  137.6740 C   0  0  0  0  0  2  0  0  0  0  0  0
  181.0740  184.1790  136.6940 C   0  0  0  0  0  1  0  0  0  0  0  0
  1  3  2  0  0  0  0
  3 12  1  0  0  0  0
  4 15  1  0  0  0  0
  5  3  1  0  0  0  0
  5 13  1  0  0  0  0
  6  9  1  0  0  0  0
  6  1  1  0  0  0  0
  7 14  1  0  0  0  0
  7  4  1  0  0  0  0
  9  5  2  0  0  0  0
 11  1  1  0  0  0  0
 11  4  2  0  0  0  0
 12 16  1  0  0  0  0
 12 10  2  0  0  0  0
 14 18  1  6  0  0  0
 14 20  1  0  0  0  0
 15 22  2  0  0  0  0
 15 16  1  0  0  0  0
 16 21  2  0  0  0  0
 17  2  1  0  0  0  0
 18 17  1  0  0  0  0
 19  8  2  0  0  0  0
 20  2  2  0  0  0  0
 20 22  1  0  0  0  0
 21  8  1  0  0  0  0
 21 23  1  0  0  0  0
 22 19  1  0  0  0  0
 23 24  1  0  0  0  0
 24 25  1  0  0  0  0
 25 29  1  0  0  0  0
 26 31  1  0  0  0  0
 27 25  2  0  0  0  0
 27 26  1  0  0  0  0
 29 30  1  6  0  0  0
 29 28  1  0  0  0  0
 31 28  1  0  0  0  0
 32 17  1  0  0  0  0
 33 34  1  1  0  0  0
 33 35  1  0  0  0  0
 33 32  1  0  0  0  0
 36 35  1  0  0  0  0
M  END
>  <MODEL>
2

>  <REMARK>
 VINA RESULT:      -9.3      3.750      6.937
  Name = 
  6 active torsions:
  status: ('A' for Active; 'I' for Inactive)
    1  A    between atoms: C_4  and  C_25
    2  A    between atoms: C_4  and  C_32
    3  A    between atoms: C_5  and  C_34
    4  A    between atoms: C_7  and  C_34
    5  A    between atoms: C_7  and  C_35
    6  A    between atoms: N_27  and  C_32
                            x       y       z     vdW  Elec       q    Type
                         _______ _______ _______ _____ _____    ______ ____

>  <TORSDO>
F 6

$$$$
=
 OpenBabel11042411333D

 36 41  0  0  1  0  0  0  0  0999 V2000
  185.8580  178.7360  139.5840 C   0  0  0  0  0  0  0  0  0  0  0  0
  191.3350  175.9470  137.8270 C   0  0  0  0  0  3  0  0  0  0  0  0
  185.9560  178.5670  140.9530 C   0  0  0  0  0  0  0  0  0  0  0  0
  187.9260  177.8050  138.6380 C   0  0  0  0  0  0  0  0  0  0  0  0
  184.7430  178.9890  141.5990 C   0  0  0  0  0  0  0  0  0  0  0  0
  184.3460  179.3420  139.2660 S   0  0  0  0  0  0  0  0  0  0  0  0
  188.4090  177.4240  137.3700 O   0  0  0  0  0  0  0  0  0  0  0  0
  190.7380  177.5190  141.8360 C   0  0  0  0  0  3  0  0  0  0  0  0
  183.7480  179.4530  140.8010 N   0  0  0  0  0  0  0  0  0  0  0  0
  186.8190  177.6630  142.8340 O   0  0  0  0  0  0  0  0  0  0  0  0
  186.6800  178.3150  138.6160 N   0  0  0  0  0  0  0  0  0  0  0  0
  187.0530  178.0410  141.6530 C   0  0  0  0  0  0  0  0  0  0  0  0
  184.5640  178.9790  143.0130 N   0  0  0  0  0  1  0  0  0  0  0  0
  189.7850  177.4870  137.0400 C   0  0  2  0  0  3  0  0  0  0  0  0
  188.7740  177.6960  139.7940 C   0  0  0  0  0  0  0  0  0  0  0  0
  188.3920  177.9110  141.1730 C   0  0  0  0  0  0  0  0  0  0  0  0
  191.2030  175.7200  136.4360 N   0  0  0  0  0  0  0  0  0  0  0  0
  190.1520  176.5580  135.8850 C   0  0  0  0  0  2  0  0  0  0  0  0
  191.0690  177.1840  140.5460 C   0  0  0  0  0  3  0  0  0  0  0  0
  190.5370  176.9380  138.1780 C   0  0  0  0  0  0  0  0  0  0  0  0
  189.4400  177.8890  142.1610 C   0  0  0  0  0  0  0  0  0  0  0  0
  190.1200  177.2730  139.5380 C   0  0  0  0  0  0  0  0  0  0  0  0
  189.2580  178.3400  143.5820 C   0  0  0  0  0  2  0  0  0  0  0  0
  189.6410  177.2310  144.5530 C   0  0  0  0  0  2  0  0  0  0  0  0
  188.9330  177.4190  145.8570 C   0  0  0  0  0  0  0  0  0  0  0  0
  186.8000  177.8440  147.0860 C   0  0  0  0  0  2  0  0  0  0  0  0
  187.6000  177.5920  145.8380 C   0  0  0  0  0  3  0  0  0  0  0  0
  188.9020  177.7350  148.3880 C   0  0  0  0  0  2  0  0  0  0  0  0
  189.7500  177.6540  147.1160 C   0  0  1  0  0  3  0  0  0  0  0  0
  190.8030  176.5740  147.2940 C   0  0  0  0  0  1  0  0  0  0  0  0
  187.6400  178.5510  148.1410 C   0  0  0  0  0  2  0  0  0  0  0  0
  191.9160  174.6960  135.6870 C   0  0  0  0  0  2  0  0  0  0  0  0
  192.7420  173.8250  136.6270 C   0  0  1  0  0  3  0  0  0  0  0  0
  192.6270  172.4770  136.2700 O   0  0  0  0  0  1  0  0  0  0  0  0
  194.2040  174.2550  136.6370 C   0  0  0  0  0  2  0  0  0  0  0  0
  194.7740  174.3150  138.0490 C   0  0  0  0  0  1  0  0  0  0  0  0
  1  3  2  0  0  0  0
  2 20  2  0  0  0  0
  3  5  1  0  0  0  0
  3 12  1  0  0  0  0
  4 15  1  0  0  0  0
  5 13  1  0  0  0  0
  6  1  1  0  0  0  0
  6  9  1  0  0  0  0
  7  4  1  0  0  0  0
  8 21  1  0  0  0  0
  9  5  2  0  0  0  0
 11  4  2  0  0  0  0
 11  1  1  0  0  0  0
 12 10  2  0  0  0  0
 14 18  1  6  0  0  0
 14  7  1  0  0  0  0
 14 20  1  0  0  0  0
 15 16  1  0  0  0  0
 16 12  1  0  0  0  0
 16 21  2  0  0  0  0
 17  2  1  0  0  0  0
 18 17  1  0  0  0  0
 19  8  2  0  0  0  0
 20 22  1  0  0  0  0
 21 23  1  0  0  0  0
 22 15  2  0  0  0  0
 22 19  1  0  0  0  0
 23 24  1  0  0  0  0
 24 25  1  0  0  0  0
 25 29  1  0  0  0  0
 26 31  1  0  0  0  0
 27 25  2  0  0  0  0
 27 26  1  0  0  0  0
 29 30  1  1  0  0  0
 29 28  1  0  0  0  0
 31 28  1  0  0  0  0
 32 17  1  0  0  0  0
 32 33  1  0  0  0  0
 33 34  1  6  0  0  0
 33 35  1  0  0  0  0
 35 36  1  0  0  0  0
M  END
>  <MODEL>
3

>  <REMARK>
 VINA RESULT:      -9.2      3.545      9.459
  Name = 
  6 active torsions:
  status: ('A' for Active; 'I' for Inactive)
    1  A    between atoms: C_4  and  C_25
    2  A    between atoms: C_4  and  C_32
    3  A    between atoms: C_5  and  C_34
    4  A    between atoms: C_7  and  C_34
    5  A    between atoms: C_7  and  C_35
    6  A    between atoms: N_27  and  C_32
                            x       y       z     vdW  Elec       q    Type
                         _______ _______ _______ _____ _____    ______ ____

>  <TORSDO>
F 6

$$$$
=
 OpenBabel11042411333D

 36 41  0  0  1  0  0  0  0  0999 V2000
  183.8590  179.3120  139.2070 C   0  0  0  0  0  0  0  0  0  0  0  0
  189.8060  177.0570  138.5680 C   0  0  0  0  0  3  0  0  0  0  0  0
  183.6290  178.9540  140.5220 C   0  0  0  0  0  0  0  0  0  0  0  0
  186.1640  178.6220  138.7100 C   0  0  0  0  0  0  0  0  0  0  0  0
  182.2650  179.2220  140.8850 C   0  0  0  0  0  0  0  0  0  0  0  0
  182.4290  179.8880  138.5930 S   0  0  0  0  0  0  0  0  0  0  0  0
  186.9740  178.4490  137.5700 O   0  0  0  0  0  0  0  0  0  0  0  0
  188.1140  178.0100  142.4570 C   0  0  0  0  0  3  0  0  0  0  0  0
  181.4640  179.7500  139.9250 N   0  0  0  0  0  0  0  0  0  0  0  0
  184.0720  177.8290  142.4310 O   0  0  0  0  0  0  0  0  0  0  0  0
  184.9260  179.0720  138.4350 N   0  0  0  0  0  0  0  0  0  0  0  0
  184.5590  178.3840  141.4070 C   0  0  0  0  0  0  0  0  0  0  0  0
  181.7440  179.0020  142.1940 N   0  0  0  0  0  1  0  0  0  0  0  0
  188.3800  178.6220  137.6130 C   0  0  2  0  0  3  0  0  0  0  0  0
  186.7070  178.3870  140.0210 C   0  0  0  0  0  0  0  0  0  0  0  0
  185.9810  178.3850  141.2720 C   0  0  0  0  0  0  0  0  0  0  0  0
  190.0410  177.0260  137.1710 N   0  0  0  0  0  0  0  0  0  0  0  0
  189.0940  177.8850  136.4810 C   0  0  0  0  0  2  0  0  0  0  0  0
  188.7790  177.8780  141.2620 C   0  0  0  0  0  3  0  0  0  0  0  0
  188.8700  177.9510  138.8260 C   0  0  0  0  0  0  0  0  0  0  0  0
  186.7510  178.2690  142.4840 C   0  0  0  0  0  0  0  0  0  0  0  0
  188.1040  178.0670  140.0660 C   0  0  0  0  0  0  0  0  0  0  0  0
  186.1880  178.5040  143.8560 C   0  0  0  0  0  2  0  0  0  0  0  0
  186.4150  177.2890  144.7470 C   0  0  0  0  0  2  0  0  0  0  0  0
  187.3650  177.6280  145.8510 C   0  0  0  0  0  0  0  0  0  0  0  0
  189.7140  177.7000  146.6990 C   0  0  0  0  0  2  0  0  0  0  0  0
  188.6800  177.4430  145.6380 C   0  0  0  0  0  3  0  0  0  0  0  0
  187.8900  178.3490  148.2410 C   0  0  0  0  0  2  0  0  0  0  0  0
  186.8160  177.9260  147.2350 C   0  0  1  0  0  3  0  0  0  0  0  0
  185.7440  179.0020  147.1780 C   0  0  0  0  0  1  0  0  0  0  0  0
  189.1350  177.4850  148.0900 C   0  0  0  0  0  2  0  0  0  0  0  0
  190.9960  176.1540  136.5060 C   0  0  0  0  0  2  0  0  0  0  0  0
  191.5030  175.0840  137.4670 C   0  0  1  0  0  3  0  0  0  0  0  0
  191.0050  173.8280  137.1060 O   0  0  0  0  0  1  0  0  0  0  0  0
  193.0260  175.0640  137.5180 C   0  0  0  0  0  2  0  0  0  0  0  0
  193.6340  176.3590  136.9920 C   0  0  0  0  0  1  0  0  0  0  0  0
  1  3  2  0  0  0  0
  2 20  2  0  0  0  0
  3  5  1  0  0  0  0
  3 12  1  0  0  0  0
  4 15  1  0  0  0  0
  5 13  1  0  0  0  0
  6  1  1  0  0  0  0
  6  9  1  0  0  0  0
  7 14  1  0  0  0  0
  7  4  1  0  0  0  0
  8 21  1  0  0  0  0
  9  5  2  0  0  0  0
 11  4  2  0  0  0  0
 11  1  1  0  0  0  0
 12 10  2  0  0  0  0
 14 18  1  6  0  0  0
 14 20  1  0  0  0  0
 15 22  2  0  0  0  0
 15 16  1  0  0  0  0
 16 12  1  0  0  0  0
 16 21  2  0  0  0  0
 17  2  1  0  0  0  0
 18 17  1  0  0  0  0
 19  8  2  0  0  0  0
 20 22  1  0  0  0  0
 21 23  1  0  0  0  0
 22 19  1  0  0  0  0
 23 24  1  0  0  0  0
 24 25  1  0  0  0  0
 25 29  1  0  0  0  0
 26 31  1  0  0  0  0
 27 25  2  0  0  0  0
 27 26  1  0  0  0  0
 29 30  1  6  0  0  0
 29 28  1  0  0  0  0
 31 28  1  0  0  0  0
 32 17  1  0  0  0  0
 32 33  1  0  0  0  0
 33 34  1  6  0  0  0
 33 35  1  0  0  0  0
 36 35  1  0  0  0  0
M  END
>  <MODEL>
4

>  <REMARK>
 VINA RESULT:      -8.9      3.564      9.163
  Name = 
  6 active torsions:
  status: ('A' for Active; 'I' for Inactive)
    1  A    between atoms: C_4  and  C_25
    2  A    between atoms: C_4  and  C_32
    3  A    between atoms: C_5  and  C_34
    4  A    between atoms: C_7  and  C_34
    5  A    between atoms: C_7  and  C_35
    6  A    between atoms: N_27  and  C_32
                            x       y       z     vdW  Elec       q    Type
                         _______ _______ _______ _____ _____    ______ ____

>  <TORSDO>
F 6

$$$$
=
 OpenBabel11042411333D

 36 41  0  0  1  0  0  0  0  0999 V2000
  184.2680  178.8150  143.0580 C   0  0  0  0  0  0  0  0  0  0  0  0
  187.1630  177.2340  137.5830 C   0  0  0  0  0  3  0  0  0  0  0  0
  185.2780  178.4840  143.9430 C   0  0  0  0  0  0  0  0  0  0  0  0
  185.1650  178.3750  140.8130 C   0  0  0  0  0  0  0  0  0  0  0  0
  184.8180  178.6080  145.2990 C   0  0  0  0  0  0  0  0  0  0  0  0
  182.9270  179.1980  143.9570 S   0  0  0  0  0  0  0  0  0  0  0  0
  184.6660  178.2520  139.5010 O   0  0  0  0  0  0  0  0  0  0  0  0
  189.4090  178.1380  141.1930 C   0  0  0  0  0  3  0  0  0  0  0  0
  183.5330  179.0030  145.4810 N   0  0  0  0  0  0  0  0  0  0  0  0
  187.2200  177.4940  144.5350 O   0  0  0  0  0  0  0  0  0  0  0  0
  184.2230  178.6680  141.7280 N   0  0  0  0  0  0  0  0  0  0  0  0
  186.5740  178.0600  143.6090 C   0  0  0  0  0  0  0  0  0  0  0  0
  185.6520  178.3820  146.4330 N   0  0  0  0  0  1  0  0  0  0  0  0
  185.4450  178.5860  138.3660 C   0  0  2  0  0  3  0  0  0  0  0  0
  186.5770  178.2550  141.0600 C   0  0  0  0  0  0  0  0  0  0  0  0
  187.2300  178.2190  142.3510 C   0  0  0  0  0  0  0  0  0  0  0  0
  186.1260  177.1760  136.6200 N   0  0  0  0  0  0  0  0  0  0  0  0
  184.9550  177.8930  137.0960 C   0  0  0  0  0  2  0  0  0  0  0  0
  188.7820  178.0370  139.9750 C   0  0  0  0  0  3  0  0  0  0  0  0
  186.7880  178.0240  138.5710 C   0  0  0  0  0  0  0  0  0  0  0  0
  188.6700  178.2400  142.3630 C   0  0  0  0  0  0  0  0  0  0  0  0
  187.4000  178.1000  139.8960 C   0  0  0  0  0  0  0  0  0  0  0  0
  189.4910  178.4620  143.6010 C   0  0  0  0  0  2  0  0  0  0  0  0
  190.6750  177.5040  143.6420 C   0  0  0  0  0  2  0  0  0  0  0  0
  190.8620  176.9730  145.0270 C   0  0  0  0  0  0  0  0  0  0  0  0
  190.2720  177.0780  147.4520 C   0  0  0  0  0  2  0  0  0  0  0  0
  190.1230  177.5020  146.0170 C   0  0  0  0  0  3  0  0  0  0  0  0
  192.0470  175.5050  146.7450 C   0  0  0  0  0  2  0  0  0  0  0  0
  192.0330  176.0480  145.3130 C   0  0  1  0  0  3  0  0  0  0  0  0
  192.0550  174.8780  144.3430 C   0  0  0  0  0  1  0  0  0  0  0  0
  191.6900  176.6040  147.7380 C   0  0  0  0  0  2  0  0  0  0  0  0
  186.1690  176.3930  135.3940 C   0  0  0  0  0  2  0  0  0  0  0  0
  185.7210  174.9600  135.6580 C   0  0  1  0  0  3  0  0  0  0  0  0
  184.6480  174.6230  134.8260 O   0  0  0  0  0  1  0  0  0  0  0  0
  186.8720  173.9780  135.4750 C   0  0  0  0  0  2  0  0  0  0  0  0
  187.4490  173.5170  136.8080 C   0  0  0  0  0  1  0  0  0  0  0  0
  1  3  2  0  0  0  0
  1  6  1  0  0  0  0
  2 20  2  0  0  0  0
  3  5  1  0  0  0  0
  4 15  1  0  0  0  0
  4 11  2  0  0  0  0
  5  9  2  0  0  0  0
  5 13  1  0  0  0  0
  6  9  1  0  0  0  0
  7  4  1  0  0  0  0
  8 21  1  0  0  0  0
 11  1  1  0  0  0  0
 12  3  1  0  0  0  0
 12 10  2  0  0  0  0
 14 18  1  6  0  0  0
 14 20  1  0  0  0  0
 14  7  1  0  0  0  0
 15 16  1  0  0  0  0
 16 21  2  0  0  0  0
 16 12  1  0  0  0  0
 17 18  1  0  0  0  0
 17  2  1  0  0  0  0
 19  8  2  0  0  0  0
 20 22  1  0  0  0  0
 21 23  1  0  0  0  0
 22 19  1  0  0  0  0
 22 15  2  0  0  0  0
 23 24  1  0  0  0  0
 24 25  1  0  0  0  0
 25 29  1  0  0  0  0
 25 27  2  0  0  0  0
 26 31  1  0  0  0  0
 27 26  1  0  0  0  0
 28 31  1  0  0  0  0
 29 30  1  6  0  0  0
 29 28  1  0  0  0  0
 32 33  1  0  0  0  0
 32 17  1  0  0  0  0
 33 34  1  6  0  0  0
 35 33  1  0  0  0  0
 35 36  1  0  0  0  0
M  END
>  <MODEL>
5

>  <REMARK>
 VINA RESULT:      -8.4      3.281      7.247
  Name = 
  6 active torsions:
  status: ('A' for Active; 'I' for Inactive)
    1  A    between atoms: C_4  and  C_25
    2  A    between atoms: C_4  and  C_32
    3  A    between atoms: C_5  and  C_34
    4  A    between atoms: C_7  and  C_34
    5  A    between atoms: C_7  and  C_35
    6  A    between atoms: N_27  and  C_32
                            x       y       z     vdW  Elec       q    Type
                         _______ _______ _______ _____ _____    ______ ____

>  <TORSDO>
F 6

$$$$
=
 OpenBabel11042411333D

 36 41  0  0  1  0  0  0  0  0999 V2000
  183.0510  178.6600  141.6100 C   0  0  0  0  0  0  0  0  0  0  0  0
  189.0710  177.8950  143.6170 C   0  0  0  0  0  3  0  0  0  0  0  0
  183.3040  179.1460  140.3400 C   0  0  0  0  0  0  0  0  0  0  0  0
  185.2480  178.1880  142.6040 C   0  0  0  0  0  0  0  0  0  0  0  0
  182.0790  179.5530  139.7060 C   0  0  0  0  0  0  0  0  0  0  0  0
  181.4160  178.7780  141.8690 S   0  0  0  0  0  0  0  0  0  0  0  0
  185.7730  177.9150  143.8830 O   0  0  0  0  0  0  0  0  0  0  0  0
  188.0540  178.0130  139.3930 C   0  0  0  0  0  3  0  0  0  0  0  0
  180.9360  179.4070  140.4210 N   0  0  0  0  0  0  0  0  0  0  0  0
  184.6100  180.0310  138.7240 O   0  0  0  0  0  0  0  0  0  0  0  0
  183.9110  178.3460  142.5860 N   0  0  0  0  0  0  0  0  0  0  0  0
  184.5610  179.2670  139.7280 C   0  0  0  0  0  0  0  0  0  0  0  0
  182.0170  180.0500  138.3710 N   0  0  0  0  0  1  0  0  0  0  0  0
  186.9290  177.1180  144.0650 C   0  0  2  0  0  3  0  0  0  0  0  0
  186.1170  178.2100  141.4580 C   0  0  0  0  0  0  0  0  0  0  0  0
  185.7670  178.6060  140.1120 C   0  0  0  0  0  0  0  0  0  0  0  0
  188.9760  177.7480  145.0220 N   0  0  0  0  0  0  0  0  0  0  0  0
  187.6200  177.3890  145.4010 C   0  0  0  0  0  2  0  0  0  0  0  0
  188.4220  177.7680  140.6920 C   0  0  0  0  0  3  0  0  0  0  0  0
  187.9220  177.5460  143.0700 C   0  0  0  0  0  0  0  0  0  0  0  0
  186.7600  178.4120  139.0860 C   0  0  0  0  0  0  0  0  0  0  0  0
  187.4830  177.8530  141.7100 C   0  0  0  0  0  0  0  0  0  0  0  0
  186.4750  178.5280  137.6160 C   0  0  0  0  0  2  0  0  0  0  0  0
  187.1000  177.3670  136.8520 C   0  0  0  0  0  2  0  0  0  0  0  0
  186.1830  176.1860  136.8690 C   0  0  0  0  0  0  0  0  0  0  0  0
  183.8500  175.2930  136.8430 C   0  0  0  0  0  2  0  0  0  0  0  0
  184.8600  176.4050  136.7800 C   0  0  0  0  0  3  0  0  0  0  0  0
  185.7160  173.6900  137.1160 C   0  0  0  0  0  2  0  0  0  0  0  0
  186.7420  174.8200  137.2320 C   0  0  1  0  0  3  0  0  0  0  0  0
  187.9490  174.4780  136.3740 C   0  0  0  0  0  1  0  0  0  0  0  0
  184.3690  174.1290  137.6760 C   0  0  0  0  0  2  0  0  0  0  0  0
  190.0410  178.0510  145.9660 C   0  0  0  0  0  2  0  0  0  0  0  0
  189.8720  177.2350  147.2430 C   0  0  1  0  0  3  0  0  0  0  0  0
  191.0280  176.4930  147.5060 O   0  0  0  0  0  1  0  0  0  0  0  0
  189.5270  178.1300  148.4280 C   0  0  0  0  0  2  0  0  0  0  0  0
  188.0770  177.9650  148.8670 C   0  0  0  0  0  1  0  0  0  0  0  0
  1  6  1  0  0  0  0
  1 11  1  0  0  0  0
  2 17  1  0  0  0  0
  3  1  2  0  0  0  0
  4  7  1  0  0  0  0
  5  3  1  0  0  0  0
  5  9  2  0  0  0  0
  7 14  1  0  0  0  0
  8 19  1  0  0  0  0
  9  6  1  0  0  0  0
 10 12  2  0  0  0  0
 11  4  2  0  0  0  0
 12 16  1  0  0  0  0
 12  3  1  0  0  0  0
 13  5  1  0  0  0  0
 14 18  1  1  0  0  0
 15 22  1  0  0  0  0
 15  4  1  0  0  0  0
 16 15  2  0  0  0  0
 17 18  1  0  0  0  0
 17 32  1  0  0  0  0
 19 22  2  0  0  0  0
 20  2  2  0  0  0  0
 20 14  1  0  0  0  0
 21  8  2  0  0  0  0
 21 16  1  0  0  0  0
 22 20  1  0  0  0  0
 23 21  1  0  0  0  0
 24 25  1  0  0  0  0
 24 23  1  0  0  0  0
 25 29  1  0  0  0  0
 26 31  1  0  0  0  0
 27 26  1  0  0  0  0
 27 25  2  0  0  0  0
 28 29  1  0  0  0  0
 28 31  1  0  0  0  0
 29 30  1  6  0  0  0
 32 33  1  0  0  0  0
 33 34  1  1  0  0  0
 33 35  1  0  0  0  0
 35 36  1  0  0  0  0
M  END
>  <MODEL>
6

>  <REMARK>
 VINA RESULT:      -8.4      3.364      7.019
  Name = 
  6 active torsions:
  status: ('A' for Active; 'I' for Inactive)
    1  A    between atoms: C_4  and  C_25
    2  A    between atoms: C_4  and  C_32
    3  A    between atoms: C_5  and  C_34
    4  A    between atoms: C_7  and  C_34
    5  A    between atoms: C_7  and  C_35
    6  A    between atoms: N_27  and  C_32
                            x       y       z     vdW  Elec       q    Type
                         _______ _______ _______ _____ _____    ______ ____

>  <TORSDO>
F 6

$$$$
=
 OpenBabel11042411333D

 36 41  0  0  1  0  0  0  0  0999 V2000
  187.6490  178.0510  138.3820 C   0  0  0  0  0  0  0  0  0  0  0  0
  193.5010  175.4910  138.6400 C   0  0  0  0  0  3  0  0  0  0  0  0
  187.3730  178.1020  139.7360 C   0  0  0  0  0  0  0  0  0  0  0  0
  189.9320  177.1620  138.1900 C   0  0  0  0  0  0  0  0  0  0  0  0
  186.0140  178.5150  139.9560 C   0  0  0  0  0  0  0  0  0  0  0  0
  186.2610  178.4740  137.5770 S   0  0  0  0  0  0  0  0  0  0  0  0
  190.7600  176.6330  137.1800 O   0  0  0  0  0  0  0  0  0  0  0  0
  191.7640  177.6010  142.0200 C   0  0  0  0  0  3  0  0  0  0  0  0
  185.2600  178.7680  138.8560 N   0  0  0  0  0  0  0  0  0  0  0  0
  187.7190  177.5690  141.9040 O   0  0  0  0  0  0  0  0  0  0  0  0
  188.7220  177.5570  137.7530 N   0  0  0  0  0  0  0  0  0  0  0  0
  188.2550  177.7820  140.7810 C   0  0  0  0  0  0  0  0  0  0  0  0
  185.4530  178.7060  141.2530 N   0  0  0  0  0  1  0  0  0  0  0  0
  192.1700  176.7590  137.2210 C   0  0  2  0  0  3  0  0  0  0  0  0
  190.4330  177.3010  139.5320 C   0  0  0  0  0  0  0  0  0  0  0  0
  189.6780  177.6910  140.7020 C   0  0  0  0  0  0  0  0  0  0  0  0
  193.7660  175.0450  137.3230 N   0  0  0  0  0  0  0  0  0  0  0  0
  192.8760  175.6980  136.3790 C   0  0  0  0  0  2  0  0  0  0  0  0
  192.4490  177.1020  140.9400 C   0  0  0  0  0  3  0  0  0  0  0  0
  192.6000  176.4550  138.5930 C   0  0  0  0  0  0  0  0  0  0  0  0
  190.4130  177.9070  141.9220 C   0  0  0  0  0  0  0  0  0  0  0  0
  191.8120  176.9570  139.7170 C   0  0  0  0  0  0  0  0  0  0  0  0
  189.8300  178.5530  143.1460 C   0  0  0  0  0  2  0  0  0  0  0  0
  190.3060  177.8460  144.4080 C   0  0  0  0  0  2  0  0  0  0  0  0
  189.1650  177.6520  145.3540 C   0  0  0  0  0  0  0  0  0  0  0  0
  186.6970  177.5110  145.7230 C   0  0  0  0  0  2  0  0  0  0  0  0
  187.9170  177.6430  144.8530 C   0  0  0  0  0  3  0  0  0  0  0  0
  188.1860  177.4130  147.6980 C   0  0  0  0  0  2  0  0  0  0  0  0
  189.4220  177.7230  146.8500 C   0  0  1  0  0  3  0  0  0  0  0  0
  190.5450  176.7830  147.2560 C   0  0  0  0  0  1  0  0  0  0  0  0
  186.9510  178.0840  147.1100 C   0  0  0  0  0  2  0  0  0  0  0  0
  194.6970  173.9810  136.9750 C   0  0  0  0  0  2  0  0  0  0  0  0
  195.5870  173.6390  138.1640 C   0  0  1  0  0  3  0  0  0  0  0  0
  195.2230  172.4020  138.7070 O   0  0  0  0  0  1  0  0  0  0  0  0
  197.0590  173.6410  137.7700 C   0  0  0  0  0  2  0  0  0  0  0  0
  197.2510  173.4680  136.2690 C   0  0  0  0  0  1  0  0  0  0  0  0
  1  3  2  0  0  0  0
  3  5  1  0  0  0  0
  3 12  1  0  0  0  0
  4 15  1  0  0  0  0
  5 13  1  0  0  0  0
  6  1  1  0  0  0  0
  6  9  1  0  0  0  0
  7 14  1  0  0  0  0
  7  4  1  0  0  0  0
  9  5  2  0  0  0  0
 11  4  2  0  0  0  0
 11  1  1  0  0  0  0
 12 10  2  0  0  0  0
 14 18  1  6  0  0  0
 14 20  1  0  0  0  0
 15 22  2  0  0  0  0
 15 16  1  0  0  0  0
 16 12  1  0  0  0  0
 16 21  2  0  0  0  0
 17  2  1  0  0  0  0
 18 17  1  0  0  0  0
 19  8  2  0  0  0  0
 20  2  2  0  0  0  0
 20 22  1  0  0  0  0
 21  8  1  0  0  0  0
 21 23  1  0  0  0  0
 22 19  1  0  0  0  0
 23 24  1  0  0  0  0
 24 25  1  0  0  0  0
 25 29  1  0  0  0  0
 26 31  1  0  0  0  0
 27 25  2  0  0  0  0
 27 26  1  0  0  0  0
 29 30  1  1  0  0  0
 29 28  1  0  0  0  0
 31 28  1  0  0  0  0
 32 17  1  0  0  0  0
 32 33  1  0  0  0  0
 33 34  1  6  0  0  0
 35 33  1  0  0  0  0
 36 35  1  0  0  0  0
M  END
>  <MODEL>
7

>  <REMARK>
 VINA RESULT:      -8.3      4.112     10.247
  Name = 
  6 active torsions:
  status: ('A' for Active; 'I' for Inactive)
    1  A    between atoms: C_4  and  C_25
    2  A    between atoms: C_4  and  C_32
    3  A    between atoms: C_5  and  C_34
    4  A    between atoms: C_7  and  C_34
    5  A    between atoms: C_7  and  C_35
    6  A    between atoms: N_27  and  C_32
                            x       y       z     vdW  Elec       q    Type
                         _______ _______ _______ _____ _____    ______ ____

>  <TORSDO>
F 6

$$$$
=
 OpenBabel11042411333D

 36 41  0  0  1  0  0  0  0  0999 V2000
  191.5410  176.6760  138.5710 C   0  0  0  0  0  0  0  0  0  0  0  0
  189.0120  177.9670  144.2980 C   0  0  0  0  0  3  0  0  0  0  0  0
  190.3730  176.5000  137.8510 C   0  0  0  0  0  0  0  0  0  0  0  0
  190.8470  177.2810  140.8490 C   0  0  0  0  0  0  0  0  0  0  0  0
  190.6680  176.0400  136.5210 C   0  0  0  0  0  0  0  0  0  0  0  0
  192.8030  176.2510  137.5800 S   0  0  0  0  0  0  0  0  0  0  0  0
  191.4370  177.3720  142.1250 O   0  0  0  0  0  0  0  0  0  0  0  0
  186.7740  178.5370  140.6150 C   0  0  0  0  0  3  0  0  0  0  0  0
  191.9750  175.8570  136.2070 N   0  0  0  0  0  0  0  0  0  0  0  0
  188.1490  176.1750  137.6310 O   0  0  0  0  0  0  0  0  0  0  0  0
  191.7050  176.9200  139.8760 N   0  0  0  0  0  0  0  0  0  0  0  0
  189.0660  176.7050  138.3180 C   0  0  0  0  0  0  0  0  0  0  0  0
  189.6680  175.8170  135.5300 N   0  0  0  0  0  1  0  0  0  0  0  0
  190.9770  178.2890  143.1020 C   0  0  2  0  0  3  0  0  0  0  0  0
  189.4620  177.6270  140.6690 C   0  0  0  0  0  0  0  0  0  0  0  0
  188.6750  177.4580  139.4670 C   0  0  0  0  0  0  0  0  0  0  0  0
  190.0800  177.8130  145.2150 N   0  0  0  0  0  0  0  0  0  0  0  0
  191.3550  177.8700  144.5210 C   0  0  0  0  0  2  0  0  0  0  0  0
  187.4790  178.5730  141.7930 C   0  0  0  0  0  3  0  0  0  0  0  0
  189.5080  178.2320  143.1040 C   0  0  0  0  0  0  0  0  0  0  0  0
  187.3440  178.0090  139.4650 C   0  0  0  0  0  0  0  0  0  0  0  0
  188.7950  178.1380  141.8310 C   0  0  0  0  0  0  0  0  0  0  0  0
  186.4990  178.1450  138.2310 C   0  0  0  0  0  2  0  0  0  0  0  0
  185.0850  178.5820  138.5920 C   0  0  0  0  0  2  0  0  0  0  0  0
  184.1690  177.4000  138.6150 C   0  0  0  0  0  0  0  0  0  0  0  0
  183.4390  175.2450  137.5830 C   0  0  0  0  0  2  0  0  0  0  0  0
  184.3380  176.4460  137.6830 C   0  0  0  0  0  3  0  0  0  0  0  0
  182.1500  176.1200  139.5070 C   0  0  0  0  0  2  0  0  0  0  0  0
  182.9430  177.4300  139.5120 C   0  0  1  0  0  3  0  0  0  0  0  0
  183.3210  177.7710  140.9430 C   0  0  0  0  0  1  0  0  0  0  0  0
  182.0400  175.5650  138.0920 C   0  0  0  0  0  2  0  0  0  0  0  0
  189.9260  177.5000  146.6280 C   0  0  0  0  0  2  0  0  0  0  0  0
  188.4810  177.1240  146.9380 C   0  0  1  0  0  3  0  0  0  0  0  0
  188.4360  176.0170  147.7920 O   0  0  0  0  0  1  0  0  0  0  0  0
  187.7220  178.3000  147.5430 C   0  0  0  0  0  2  0  0  0  0  0  0
  186.3490  178.4810  146.9090 C   0  0  0  0  0  1  0  0  0  0  0  0
  1 11  1  0  0  0  0
  2 17  1  0  0  0  0
  3 12  1  0  0  0  0
  3  1  2  0  0  0  0
  4  7  1  0  0  0  0
  5  3  1  0  0  0  0
  6  1  1  0  0  0  0
  7 14  1  0  0  0  0
  8 19  1  0  0  0  0
  9  5  2  0  0  0  0
  9  6  1  0  0  0  0
 10 12  2  0  0  0  0
 11  4  2  0  0  0  0
 12 16  1  0  0  0  0
 13  5  1  0  0  0  0
 14 20  1  0  0  0  0
 14 18  1  1  0  0  0
 15  4  1  0  0  0  0
 15 22  1  0  0  0  0
 16 15  2  0  0  0  0
 17 32  1  0  0  0  0
 18 17  1  0  0  0  0
 19 22  2  0  0  0  0
 20  2  2  0  0  0  0
 21 16  1  0  0  0  0
 21  8  2  0  0  0  0
 22 20  1  0  0  0  0
 23 24  1  0  0  0  0
 23 21  1  0  0  0  0
 24 25  1  0  0  0  0
 25 29  1  0  0  0  0
 26 27  1  0  0  0  0
 26 31  1  0  0  0  0
 27 25  2  0  0  0  0
 28 29  1  0  0  0  0
 29 30  1  1  0  0  0
 31 28  1  0  0  0  0
 32 33  1  0  0  0  0
 33 35  1  0  0  0  0
 33 34  1  1  0  0  0
 36 35  1  0  0  0  0
M  END
>  <MODEL>
8

>  <REMARK>
 VINA RESULT:      -8.3      3.636      6.996
  Name = 
  6 active torsions:
  status: ('A' for Active; 'I' for Inactive)
    1  A    between atoms: C_4  and  C_25
    2  A    between atoms: C_4  and  C_32
    3  A    between atoms: C_5  and  C_34
    4  A    between atoms: C_7  and  C_34
    5  A    between atoms: C_7  and  C_35
    6  A    between atoms: N_27  and  C_32
                            x       y       z     vdW  Elec       q    Type
                         _______ _______ _______ _____ _____    ______ ____

>  <TORSDO>
F 6

$$$$
=
 OpenBabel11042411333D

 36 41  0  0  1  0  0  0  0  0999 V2000
  183.2610  178.5430  142.2560 C   0  0  0  0  0  0  0  0  0  0  0  0
  188.8110  177.9200  145.3640 C   0  0  0  0  0  3  0  0  0  0  0  0
  183.7430  178.9560  141.0280 C   0  0  0  0  0  0  0  0  0  0  0  0
  185.2370  178.1390  143.6580 C   0  0  0  0  0  0  0  0  0  0  0  0
  182.6570  179.3200  140.1590 C   0  0  0  0  0  0  0  0  0  0  0  0
  181.6070  178.6700  142.2070 S   0  0  0  0  0  0  0  0  0  0  0  0
  185.5190  177.9420  145.0250 O   0  0  0  0  0  0  0  0  0  0  0  0
  188.5790  177.7880  141.0260 C   0  0  0  0  0  3  0  0  0  0  0  0
  181.4020  179.2120  140.6610 N   0  0  0  0  0  0  0  0  0  0  0  0
  185.3280  179.7500  139.6270 O   0  0  0  0  0  0  0  0  0  0  0  0
  183.9270  178.2900  143.3880 N   0  0  0  0  0  0  0  0  0  0  0  0
  185.0920  179.0450  140.6480 C   0  0  0  0  0  0  0  0  0  0  0  0
  182.8420  179.7380  138.8080 N   0  0  0  0  0  1  0  0  0  0  0  0
  186.6180  177.1620  145.4610 C   0  0  2  0  0  3  0  0  0  0  0  0
  186.3010  178.0970  142.6910 C   0  0  0  0  0  0  0  0  0  0  0  0
  186.2040  178.4120  141.2820 C   0  0  0  0  0  0  0  0  0  0  0  0
  188.4610  177.8540  146.7350 N   0  0  0  0  0  0  0  0  0  0  0  0
  187.0570  177.5120  146.8820 C   0  0  0  0  0  2  0  0  0  0  0  0
  188.7030  177.6200  142.3830 C   0  0  0  0  0  3  0  0  0  0  0  0
  187.7790  177.5350  144.6390 C   0  0  0  0  0  0  0  0  0  0  0  0
  187.3650  178.1630  140.4670 C   0  0  0  0  0  0  0  0  0  0  0  0
  187.5960  177.7610  143.2060 C   0  0  0  0  0  0  0  0  0  0  0  0
  187.3530  178.1920  138.9650 C   0  0  0  0  0  2  0  0  0  0  0  0
  188.7720  178.1440  138.4140 C   0  0  0  0  0  2  0  0  0  0  0  0
  188.9940  176.8660  137.6710 C   0  0  0  0  0  0  0  0  0  0  0  0
  188.1340  175.1470  136.0740 C   0  0  0  0  0  2  0  0  0  0  0  0
  188.0350  176.4450  136.8280 C   0  0  0  0  0  3  0  0  0  0  0  0
  190.3200  174.7460  137.1630 C   0  0  0  0  0  2  0  0  0  0  0  0
  190.1560  175.9710  138.0670 C   0  0  1  0  0  3  0  0  0  0  0  0
  191.4620  176.7470  138.0860 C   0  0  0  0  0  1  0  0  0  0  0  0
  188.9650  174.1300  136.8440 C   0  0  0  0  0  2  0  0  0  0  0  0
  189.3390  178.2150  147.8380 C   0  0  0  0  0  2  0  0  0  0  0  0
  190.7310  177.6320  147.6260 C   0  0  1  0  0  3  0  0  0  0  0  0
  191.5440  177.8930  148.7340 O   0  0  0  0  0  1  0  0  0  0  0  0
  190.6660  176.1340  147.3480 C   0  0  0  0  0  2  0  0  0  0  0  0
  192.0140  175.5740  146.9110 C   0  0  0  0  0  1  0  0  0  0  0  0
  1 11  1  0  0  0  0
  2 17  1  0  0  0  0
  3  1  2  0  0  0  0
  4  7  1  0  0  0  0
  5  9  2  0  0  0  0
  5  3  1  0  0  0  0
  6  1  1  0  0  0  0
  7 14  1  0  0  0  0
  8 19  1  0  0  0  0
  9  6  1  0  0  0  0
 10 12  2  0  0  0  0
 11  4  2  0  0  0  0
 12  3  1  0  0  0  0
 12 16  1  0  0  0  0
 13  5  1  0  0  0  0
 14 18  1  1  0  0  0
 15 22  1  0  0  0  0
 15  4  1  0  0  0  0
 16 15  2  0  0  0  0
 17 18  1  0  0  0  0
 17 32  1  0  0  0  0
 19 22  2  0  0  0  0
 20  2  2  0  0  0  0
 20 14  1  0  0  0  0
 21  8  2  0  0  0  0
 21 16  1  0  0  0  0
 22 20  1  0  0  0  0
 23 21  1  0  0  0  0
 24 23  1  0  0  0  0
 25 29  1  0  0  0  0
 25 24  1  0  0  0  0
 26 27  1  0  0  0  0
 26 31  1  0  0  0  0
 27 25  2  0  0  0  0
 28 29  1  0  0  0  0
 29 30  1  6  0  0  0
 31 28  1  0  0  0  0
 33 32  1  0  0  0  0
 33 34  1  1  0  0  0
 35 33  1  0  0  0  0
 36 35  1  0  0  0  0
M  END
>  <MODEL>
9

>  <REMARK>
 VINA RESULT:      -8.0      2.810      6.718
  Name = 
  6 active torsions:
  status: ('A' for Active; 'I' for Inactive)
    1  A    between atoms: C_4  and  C_25
    2  A    between atoms: C_4  and  C_32
    3  A    between atoms: C_5  and  C_34
    4  A    between atoms: C_7  and  C_34
    5  A    between atoms: C_7  and  C_35
    6  A    between atoms: N_27  and  C_32
                            x       y       z     vdW  Elec       q    Type
                         _______ _______ _______ _____ _____    ______ ____

>  <TORSDO>
F 6

$$$$
