=
 OpenBabel11042410163D

 55 64  0  0  1  0  0  0  0  0999 V2000
  184.1960  180.2140  138.9660 O   0  0  0  0  0  0  0  0  0  0  0  0
  184.0490  178.2560  140.3040 C   0  0  1  0  0  3  0  0  0  0  0  0
  181.5990  178.6290  140.4520 C   0  0  0  0  0  0  0  0  0  0  0  0
  182.9420  179.1420  140.4660 N   0  0  0  0  0  0  0  0  0  0  0  0
  185.8250  177.0480  137.9040 C   0  0  0  0  0  2  0  0  0  0  0  0
  189.3190  176.5330  139.1890 C   0  0  0  0  0  0  0  0  0  0  0  0
  188.6050  175.8060  138.0820 C   0  0  0  0  0  2  0  0  0  0  0  0
  190.6200  177.0550  139.0420 C   0  0  0  0  0  0  0  0  0  0  0  0
  184.8140  178.9640  139.2090 C   0  0  1  0  0  3  0  0  0  0  0  0
  191.1900  177.7830  140.0900 C   0  0  0  0  0  3  0  0  0  0  0  0
  189.1230  177.6800  143.9020 C   0  0  0  0  0  3  0  0  0  0  0  0
  188.4390  177.8160  145.1090 C   0  0  0  0  0  3  0  0  0  0  0  0
  188.6260  176.7350  140.3820 C   0  0  0  0  0  3  0  0  0  0  0  0
  190.4800  177.9850  141.2790 C   0  0  0  0  0  3  0  0  0  0  0  0
  187.0860  177.9570  145.1190 N   0  0  0  0  0  0  0  0  0  0  0  0
  184.9770  178.1570  144.0220 C   0  0  0  0  0  3  0  0  0  0  0  0
  186.2480  177.9670  141.5420 C   0  0  0  0  0  3  0  0  0  0  0  0
  184.8610  178.1810  141.5870 C   0  0  0  0  0  0  0  0  0  0  0  0
  187.1520  177.6360  137.8180 N   0  0  0  0  0  2  0  0  0  0  0  0
  181.3670  177.5140  139.9080 O   0  0  0  0  0  0  0  0  0  0  0  0
  186.3640  177.9890  143.9670 C   0  0  0  0  0  0  0  0  0  0  0  0
  187.0150  177.8670  142.7170 C   0  0  0  0  0  0  0  0  0  0  0  0
  188.4220  177.6860  142.6880 C   0  0  0  0  0  0  0  0  0  0  0  0
  189.1790  177.4790  141.4270 C   0  0  0  0  0  0  0  0  0  0  0  0
  187.9860  176.7330  137.1300 N   0  0  0  0  0  2  0  0  0  0  0  0
  184.2310  178.2430  142.8420 C   0  0  0  0  0  3  0  0  0  0  0  0
  184.7750  178.1490  137.9200 C   0  0  0  0  0  2  0  0  0  0  0  0
  183.2030  180.3920  139.8930 N   0  0  0  0  0  2  0  0  0  0  0  0
  191.3720  176.9260  137.7590 C   0  0  0  0  0  2  0  0  0  0  0  0
  192.3530  175.8560  137.8730 N   0  0  0  0  0  2  0  0  0  0  0  0
  193.3330  173.7190  137.0580 N   0  0  0  0  0  0  0  0  0  0  0  0
  193.1360  172.4130  136.4420 C   0  0  0  0  0  1  0  0  0  0  0  0
  192.2610  174.6750  137.0730 C   0  0  0  0  0  0  0  0  0  0  0  0
  191.2330  174.4730  136.3710 O   0  0  0  0  0  0  0  0  0  0  0  0
  194.6010  173.9760  137.7360 C   0  0  0  0  0  2  0  0  0  0  0  0
  196.1980  174.2060  135.7780 C   0  0  0  0  0  2  0  0  0  0  0  0
  195.7850  173.3450  136.9870 C   0  0  1  0  0  3  0  0  0  0  0  0
  198.3110  174.7910  137.1590 C   0  0  2  0  0  3  0  0  0  0  0  0
  197.6360  174.7660  135.8220 C   0  0  2  0  0  3  0  0  0  0  0  0
  197.4580  174.2050  138.2750 C   0  0  0  0  0  2  0  0  0  0  0  0
  197.6600  175.9190  136.6260 O   0  0  0  0  0  0  0  0  0  0  0  0
  196.8650  173.0120  137.8380 O   0  0  0  0  0  0  0  0  0  0  0  0
  180.4600  179.4690  140.9690 C   0  0  2  0  0  3  0  0  0  0  0  0
  180.1500  180.6050  140.0300 C   0  0  0  0  0  3  0  0  0  0  0  0
  179.6440  180.3880  138.8120 C   0  0  0  0  0  3  0  0  0  0  0  0
  179.6530  182.8710  138.5970 C   0  0  1  0  0  3  0  0  0  0  0  0
  179.3100  181.5360  137.9020 C   0  0  1  0  0  3  0  0  0  0  0  0
  180.3930  183.8050  136.4610 C   0  0  2  0  0  3  0  0  0  0  0  0
  179.9220  182.6000  135.7380 N   0  0  0  0  0  0  0  0  0  0  0  0
  180.8400  183.5310  137.9030 C   0  0  1  0  0  3  0  0  0  0  0  0
  179.9920  181.3600  136.5310 C   0  0  0  0  0  2  0  0  0  0  0  0
  179.4570  184.0450  137.6400 C   0  0  2  0  0  3  0  0  0  0  0  0
  180.8000  182.4230  134.5940 C   0  0  0  0  0  1  0  0  0  0  0  0
  180.7340  179.9740  142.3890 C   0  0  0  0  0  2  0  0  0  0  0  0
  179.7810  180.9210  142.7830 O   0  0  0  0  0  1  0  0  0  0  0  0
  1  9  1  0  0  0  0
  1 28  1  0  0  0  0
  2  4  1  0  0  0  0
  2 18  1  1  0  0  0
  3  4  1  0  0  0  0
  3 43  1  0  0  0  0
  5 27  1  0  0  0  0
  6 13  1  0  0  0  0
  7  6  1  0  0  0  0
  8  6  2  0  0  0  0
  8 10  1  0  0  0  0
  9 27  1  6  0  0  0
  9  2  1  0  0  0  0
 10 14  2  0  0  0  0
 11 12  1  0  0  0  0
 12 15  2  0  0  0  0
 13 24  2  0  0  0  0
 14 24  1  0  0  0  0
 17 18  2  0  0  0  0
 17 22  1  0  0  0  0
 18 26  1  0  0  0  0
 19  5  1  0  0  0  0
 20  3  2  0  0  0  0
 21 16  1  0  0  0  0
 21 15  1  0  0  0  0
 22 21  2  0  0  0  0
 23 22  1  0  0  0  0
 23 11  2  0  0  0  0
 24 23  1  0  0  0  0
 25 19  1  0  0  0  0
 25  7  1  0  0  0  0
 26 16  2  0  0  0  0
 28  4  1  0  0  0  0
 29 30  1  0  0  0  0
 29  8  1  0  0  0  0
 31 33  1  0  0  0  0
 31 35  1  0  0  0  0
 32 31  1  0  0  0  0
 33 30  1  0  0  0  0
 34 33  2  0  0  0  0
 36 37  1  0  0  0  0
 37 35  1  1  0  0  0
 37 42  1  0  0  0  0
 38 40  1  1  0  0  0
 39 36  1  1  0  0  0
 39 41  1  0  0  0  0
 39 38  1  0  0  0  0
 41 38  1  0  0  0  0
 42 40  1  0  0  0  0
 43 44  1  6  0  0  0
 43 54  1  0  0  0  0
 45 44  2  0  0  0  0
 47 46  1  0  0  0  0
 47 45  1  1  0  0  0
 48 52  1  0  0  0  0
 48 50  1  0  0  0  0
 49 48  1  0  0  0  0
 49 51  1  0  0  0  0
 50 46  1  0  0  0  0
 51 47  1  0  0  0  0
 52 50  1  0  0  0  0
 52 46  1  0  0  0  0
 53 49  1  0  0  0  0
 54 55  1  0  0  0  0
M  END
>  <MODEL>
1

>  <REMARK>
 VINA RESULT:      -7.9      0.000      0.000
  Name = 
  8 active torsions:
  status: ('A' for Active; 'I' for Inactive)
    1  A    between atoms: C_4  and  C_38
    2  A    between atoms: C_8  and  C_38
    3  A    between atoms: C_10  and  C_48
    4  A    between atoms: N_11  and  C_25
    5  A    between atoms: C_12  and  C_25
    6  A    between atoms: C_14  and  C_22
    7  A    between atoms: C_20  and  C_38
    8  A    between atoms: C_22  and  N_30
                            x       y       z     vdW  Elec       q    Type
                         _______ _______ _______ _____ _____    ______ ____

>  <TORSDO>
F 8

$$$$
=
 OpenBabel11042410163D

 55 64  0  0  1  0  0  0  0  0999 V2000
  183.6250  177.1460  139.5600 O   0  0  0  0  0  0  0  0  0  0  0  0
  183.2210  176.8130  137.2420 C   0  0  1  0  0  3  0  0  0  0  0  0
  181.0700  178.0210  137.5180 C   0  0  0  0  0  0  0  0  0  0  0  0
  182.0370  177.0710  137.9960 N   0  0  0  0  0  0  0  0  0  0  0  0
  186.2290  177.9470  137.0340 C   0  0  0  0  0  2  0  0  0  0  0  0
  188.4850  175.0920  136.0940 C   0  0  0  0  0  0  0  0  0  0  0  0
  188.6660  176.5620  135.8320 C   0  0  0  0  0  2  0  0  0  0  0  0
  189.5020  174.2850  136.6410 C   0  0  0  0  0  0  0  0  0  0  0  0
  184.2740  176.9780  138.3130 C   0  0  1  0  0  3  0  0  0  0  0  0
  189.2360  172.9420  136.9250 C   0  0  0  0  0  3  0  0  0  0  0  0
  185.5240  171.3110  135.3870 C   0  0  0  0  0  3  0  0  0  0  0  0
  184.2860  170.7600  135.0560 C   0  0  0  0  0  3  0  0  0  0  0  0
  187.2320  174.5370  135.8300 C   0  0  0  0  0  3  0  0  0  0  0  0
  187.9720  172.4010  136.6630 C   0  0  0  0  0  3  0  0  0  0  0  0
  183.1510  171.5010  135.1750 N   0  0  0  0  0  0  0  0  0  0  0  0
  181.9880  173.5000  135.7600 C   0  0  0  0  0  3  0  0  0  0  0  0
  184.4010  174.6830  136.5220 C   0  0  0  0  0  3  0  0  0  0  0  0
  183.2040  175.3950  136.6960 C   0  0  0  0  0  0  0  0  0  0  0  0
  187.2200  177.0590  137.6190 N   0  0  0  0  0  2  0  0  0  0  0  0
  181.4260  178.9040  136.6870 O   0  0  0  0  0  0  0  0  0  0  0  0
  183.1810  172.7810  135.6330 C   0  0  0  0  0  0  0  0  0  0  0  0
  184.4110  173.3800  135.9930 C   0  0  0  0  0  0  0  0  0  0  0  0
  185.6090  172.6330  135.8450 C   0  0  0  0  0  0  0  0  0  0  0  0
  186.9500  173.2030  136.1310 C   0  0  0  0  0  0  0  0  0  0  0  0
  188.4710  177.3620  137.0440 N   0  0  0  0  0  2  0  0  0  0  0  0
  182.0010  174.7990  136.2790 C   0  0  0  0  0  3  0  0  0  0  0  0
  185.1220  178.2170  138.0420 C   0  0  0  0  0  2  0  0  0  0  0  0
  182.2790  176.9740  139.3710 N   0  0  0  0  0  2  0  0  0  0  0  0
  190.8350  174.8500  137.0070 C   0  0  0  0  0  2  0  0  0  0  0  0
  190.8160  175.2880  138.3950 N   0  0  0  0  0  2  0  0  0  0  0  0
  191.5210  176.8780  140.1750 N   0  0  0  0  0  0  0  0  0  0  0  0
  192.5470  177.7520  140.7300 C   0  0  0  0  0  1  0  0  0  0  0  0
  191.6820  176.3270  138.8580 C   0  0  0  0  0  0  0  0  0  0  0  0
  192.5920  176.7660  138.1040 O   0  0  0  0  0  0  0  0  0  0  0  0
  190.3960  176.5070  141.0300 C   0  0  0  0  0  2  0  0  0  0  0  0
  188.2370  177.6790  141.6650 C   0  0  0  0  0  2  0  0  0  0  0  0
  189.7760  177.7340  141.7180 C   0  0  1  0  0  3  0  0  0  0  0  0
  188.3580  177.2100  144.2110 C   0  0  2  0  0  3  0  0  0  0  0  0
  187.5280  177.6260  143.0350 C   0  0  2  0  0  3  0  0  0  0  0  0
  189.8130  176.9420  143.8550 C   0  0  0  0  0  2  0  0  0  0  0  0
  187.5390  176.3030  143.5130 O   0  0  0  0  0  0  0  0  0  0  0  0
  190.2890  177.9600  143.0170 O   0  0  0  0  0  0  0  0  0  0  0  0
  179.6780  178.0450  138.0960 C   0  0  2  0  0  3  0  0  0  0  0  0
  179.7060  178.3550  139.5700 C   0  0  0  0  0  3  0  0  0  0  0  0
  180.3520  179.4220  140.0490 C   0  0  0  0  0  3  0  0  0  0  0  0
  179.1360  179.0390  142.1900 C   0  0  1  0  0  3  0  0  0  0  0  0
  180.3400  179.7340  141.5190 C   0  0  1  0  0  3  0  0  0  0  0  0
  180.4880  178.5950  144.1800 C   0  0  2  0  0  3  0  0  0  0  0  0
  181.6080  179.3980  143.6330 N   0  0  0  0  0  0  0  0  0  0  0  0
  179.6240  177.9210  143.1070 C   0  0  1  0  0  3  0  0  0  0  0  0
  181.6950  179.3800  142.1620 C   0  0  0  0  0  2  0  0  0  0  0  0
  179.1820  179.2210  143.7060 C   0  0  2  0  0  3  0  0  0  0  0  0
  182.8370  178.8110  144.1390 C   0  0  0  0  0  1  0  0  0  0  0  0
  178.9310  176.7390  137.8120 C   0  0  0  0  0  2  0  0  0  0  0  0
  179.1490  175.7990  138.8260 O   0  0  0  0  0  1  0  0  0  0  0  0
  2 18  1  1  0  0  0
  2  4  1  0  0  0  0
  2  9  1  0  0  0  0
  3  4  1  0  0  0  0
  3 43  1  0  0  0  0
  4 28  1  0  0  0  0
  5 19  1  0  0  0  0
  5 27  1  0  0  0  0
  6  8  1  0  0  0  0
  7  6  1  0  0  0  0
  7 25  1  0  0  0  0
  8 10  2  0  0  0  0
  8 29  1  0  0  0  0
  9 27  1  6  0  0  0
  9  1  1  0  0  0  0
 11 23  1  0  0  0  0
 12 15  1  0  0  0  0
 12 11  2  0  0  0  0
 13  6  2  0  0  0  0
 13 24  1  0  0  0  0
 14 10  1  0  0  0  0
 15 21  2  0  0  0  0
 16 26  2  0  0  0  0
 17 18  2  0  0  0  0
 20  3  2  0  0  0  0
 21 16  1  0  0  0  0
 21 22  1  0  0  0  0
 22 17  1  0  0  0  0
 23 22  2  0  0  0  0
 23 24  1  0  0  0  0
 24 14  2  0  0  0  0
 25 19  1  0  0  0  0
 26 18  1  0  0  0  0
 28  1  1  0  0  0  0
 29 30  1  0  0  0  0
 30 33  1  0  0  0  0
 31 32  1  0  0  0  0
 31 35  1  0  0  0  0
 33 31  1  0  0  0  0
 34 33  2  0  0  0  0
 36 37  1  0  0  0  0
 37 35  1  1  0  0  0
 37 42  1  0  0  0  0
 38 40  1  6  0  0  0
 39 36  1  6  0  0  0
 39 41  1  0  0  0  0
 39 38  1  0  0  0  0
 41 38  1  0  0  0  0
 42 40  1  0  0  0  0
 43 54  1  1  0  0  0
 43 44  1  0  0  0  0
 44 45  2  0  0  0  0
 46 50  1  0  0  0  0
 46 52  1  0  0  0  0
 47 45  1  6  0  0  0
 47 51  1  0  0  0  0
 47 46  1  0  0  0  0
 49 53  1  0  0  0  0
 49 48  1  0  0  0  0
 50 52  1  0  0  0  0
 50 48  1  0  0  0  0
 51 49  1  0  0  0  0
 52 48  1  0  0  0  0
 54 55  1  0  0  0  0
M  END
>  <MODEL>
2

>  <REMARK>
 VINA RESULT:      -7.8      3.483      7.099
  Name = 
  8 active torsions:
  status: ('A' for Active; 'I' for Inactive)
    1  A    between atoms: C_4  and  C_38
    2  A    between atoms: C_8  and  C_38
    3  A    between atoms: C_10  and  C_48
    4  A    between atoms: N_11  and  C_25
    5  A    between atoms: C_12  and  C_25
    6  A    between atoms: C_14  and  C_22
    7  A    between atoms: C_20  and  C_38
    8  A    between atoms: C_22  and  N_30
                            x       y       z     vdW  Elec       q    Type
                         _______ _______ _______ _____ _____    ______ ____

>  <TORSDO>
F 8

$$$$
=
 OpenBabel11042410163D

 55 64  0  0  1  0  0  0  0  0999 V2000
  188.0540  174.9960  136.8510 O   0  0  0  0  0  0  0  0  0  0  0  0
  189.2430  176.9910  137.3550 C   0  0  1  0  0  3  0  0  0  0  0  0
  190.7350  176.5000  135.4330 C   0  0  0  0  0  0  0  0  0  0  0  0
  189.9970  176.0560  136.5840 N   0  0  0  0  0  0  0  0  0  0  0  0
  186.2580  178.2000  137.4120 C   0  0  0  0  0  2  0  0  0  0  0  0
  185.3720  178.9380  140.9890 C   0  0  0  0  0  0  0  0  0  0  0  0
  184.8510  179.5880  139.7360 C   0  0  0  0  0  2  0  0  0  0  0  0
  184.5240  178.4770  142.0160 C   0  0  0  0  0  0  0  0  0  0  0  0
  187.9090  176.2840  137.4210 C   0  0  1  0  0  3  0  0  0  0  0  0
  185.0760  177.8180  143.1180 C   0  0  0  0  0  3  0  0  0  0  0  0
  189.3920  177.9530  143.5250 C   0  0  0  0  0  3  0  0  0  0  0  0
  190.7760  177.8260  143.6400 C   0  0  0  0  0  3  0  0  0  0  0  0
  186.7490  178.7440  141.0930 C   0  0  0  0  0  3  0  0  0  0  0  0
  186.4590  177.6220  143.2050 C   0  0  0  0  0  3  0  0  0  0  0  0
  191.5400  177.6170  142.5340 N   0  0  0  0  0  0  0  0  0  0  0  0
  191.8080  177.2710  140.1900 C   0  0  0  0  0  3  0  0  0  0  0  0
  189.0410  177.4360  139.8470 C   0  0  0  0  0  3  0  0  0  0  0  0
  189.8530  177.1530  138.7380 C   0  0  0  0  0  0  0  0  0  0  0  0
  185.4460  177.6770  138.4990 N   0  0  0  0  0  2  0  0  0  0  0  0
  190.4110  177.5820  134.8670 O   0  0  0  0  0  0  0  0  0  0  0  0
  190.9870  177.5070  141.2970 C   0  0  0  0  0  0  0  0  0  0  0  0
  189.5870  177.6170  141.1310 C   0  0  0  0  0  0  0  0  0  0  0  0
  188.7770  177.8670  142.2690 C   0  0  0  0  0  0  0  0  0  0  0  0
  187.3080  178.0660  142.1790 C   0  0  0  0  0  0  0  0  0  0  0  0
  184.4080  178.5970  138.7500 N   0  0  0  0  0  2  0  0  0  0  0  0
  191.2460  177.1040  138.9190 C   0  0  0  0  0  3  0  0  0  0  0  0
  186.8600  177.0490  136.6200 C   0  0  0  0  0  2  0  0  0  0  0  0
  189.3780  174.8020  136.5580 N   0  0  0  0  0  2  0  0  0  0  0  0
  183.0390  178.5980  141.9160 C   0  0  0  0  0  2  0  0  0  0  0  0
  182.5320  177.6230  140.9630 N   0  0  0  0  0  2  0  0  0  0  0  0
  180.8240  176.8990  139.3040 N   0  0  0  0  0  0  0  0  0  0  0  0
  179.4290  176.8750  138.8820 C   0  0  0  0  0  1  0  0  0  0  0  0
  181.2340  177.7590  140.3790 C   0  0  0  0  0  0  0  0  0  0  0  0
  180.4440  178.6420  140.8090 O   0  0  0  0  0  0  0  0  0  0  0  0
  181.7490  175.9600  138.6760 C   0  0  0  0  0  2  0  0  0  0  0  0
  182.4690  175.9800  136.2420 C   0  0  0  0  0  2  0  0  0  0  0  0
  181.3380  175.6360  137.2310 C   0  0  1  0  0  3  0  0  0  0  0  0
  182.7530  173.4180  135.9740 C   0  0  2  0  0  3  0  0  0  0  0  0
  183.0310  174.7890  135.4370 C   0  0  2  0  0  3  0  0  0  0  0  0
  181.9020  173.4270  137.2360 C   0  0  0  0  0  2  0  0  0  0  0  0
  183.9620  174.0920  136.2290 O   0  0  0  0  0  0  0  0  0  0  0  0
  180.8350  174.3230  137.0780 O   0  0  0  0  0  0  0  0  0  0  0  0
  191.8020  175.6220  134.8300 C   0  0  2  0  0  3  0  0  0  0  0  0
  192.0370  174.3950  135.6710 C   0  0  0  0  0  3  0  0  0  0  0  0
  192.7090  173.3410  135.1990 C   0  0  0  0  0  3  0  0  0  0  0  0
  192.8570  170.8530  135.2160 C   0  0  1  0  0  3  0  0  0  0  0  0
  192.9630  172.1390  136.0640 C   0  0  1  0  0  3  0  0  0  0  0  0
  194.6910  169.8520  136.4870 C   0  0  2  0  0  3  0  0  0  0  0  0
  194.7100  171.0010  137.4230 N   0  0  0  0  0  0  0  0  0  0  0  0
  194.2330  170.2110  135.0680 C   0  0  1  0  0  3  0  0  0  0  0  0
  194.3050  172.2790  136.8100 C   0  0  0  0  0  2  0  0  0  0  0  0
  193.2520  169.6290  136.0390 C   0  0  2  0  0  3  0  0  0  0  0  0
  196.0820  171.1610  137.8720 C   0  0  0  0  0  1  0  0  0  0  0  0
  193.1000  176.3980  134.5940 C   0  0  0  0  0  2  0  0  0  0  0  0
  193.8800  176.4450  135.7550 O   0  0  0  0  0  1  0  0  0  0  0  0
  1  9  1  0  0  0  0
  2  9  1  0  0  0  0
  2 18  1  1  0  0  0
  3  4  1  0  0  0  0
  4  2  1  0  0  0  0
  5 19  1  0  0  0  0
  6 13  2  0  0  0  0
  6  8  1  0  0  0  0
  7  6  1  0  0  0  0
  8 10  2  0  0  0  0
  9 27  1  6  0  0  0
 10 14  1  0  0  0  0
 11 12  1  0  0  0  0
 13 24  1  0  0  0  0
 15 12  2  0  0  0  0
 16 21  1  0  0  0  0
 17 22  1  0  0  0  0
 18 26  1  0  0  0  0
 18 17  2  0  0  0  0
 19 25  1  0  0  0  0
 20  3  2  0  0  0  0
 21 15  1  0  0  0  0
 22 21  2  0  0  0  0
 22 23  1  0  0  0  0
 23 11  2  0  0  0  0
 24 23  1  0  0  0  0
 24 14  2  0  0  0  0
 25  7  1  0  0  0  0
 26 16  2  0  0  0  0
 27  5  1  0  0  0  0
 28  4  1  0  0  0  0
 28  1  1  0  0  0  0
 29  8  1  0  0  0  0
 30 29  1  0  0  0  0
 31 33  1  0  0  0  0
 32 31  1  0  0  0  0
 33 34  2  0  0  0  0
 33 30  1  0  0  0  0
 35 31  1  0  0  0  0
 36 37  1  0  0  0  0
 37 35  1  1  0  0  0
 38 41  1  0  0  0  0
 38 40  1  1  0  0  0
 39 38  1  0  0  0  0
 39 41  1  0  0  0  0
 39 36  1  1  0  0  0
 42 37  1  0  0  0  0
 42 40  1  0  0  0  0
 43 54  1  1  0  0  0
 43  3  1  0  0  0  0
 43 44  1  0  0  0  0
 45 44  2  0  0  0  0
 46 52  1  0  0  0  0
 46 47  1  0  0  0  0
 47 45  1  6  0  0  0
 47 51  1  0  0  0  0
 48 49  1  0  0  0  0
 49 53  1  0  0  0  0
 50 46  1  0  0  0  0
 50 52  1  0  0  0  0
 50 48  1  0  0  0  0
 51 49  1  0  0  0  0
 52 48  1  0  0  0  0
 54 55  1  0  0  0  0
M  END
>  <MODEL>
3

>  <REMARK>
 VINA RESULT:      -7.5      3.224     11.633
  Name = 
  8 active torsions:
  status: ('A' for Active; 'I' for Inactive)
    1  A    between atoms: C_4  and  C_38
    2  A    between atoms: C_8  and  C_38
    3  A    between atoms: C_10  and  C_48
    4  A    between atoms: N_11  and  C_25
    5  A    between atoms: C_12  and  C_25
    6  A    between atoms: C_14  and  C_22
    7  A    between atoms: C_20  and  C_38
    8  A    between atoms: C_22  and  N_30
                            x       y       z     vdW  Elec       q    Type
                         _______ _______ _______ _____ _____    ______ ____

>  <TORSDO>
F 8

$$$$
=
 OpenBabel11042410163D

 55 64  0  0  1  0  0  0  0  0999 V2000
  183.0890  177.0690  141.1180 O   0  0  0  0  0  0  0  0  0  0  0  0
  183.6020  178.5370  139.3210 C   0  0  1  0  0  3  0  0  0  0  0  0
  181.2040  179.1770  139.2560 C   0  0  0  0  0  0  0  0  0  0  0  0
  182.2240  178.1710  139.3840 N   0  0  0  0  0  0  0  0  0  0  0  0
  185.9390  179.4410  141.3440 C   0  0  0  0  0  2  0  0  0  0  0  0
  189.2040  178.1600  139.9940 C   0  0  0  0  0  0  0  0  0  0  0  0
  188.9520  179.3550  140.8730 C   0  0  0  0  0  2  0  0  0  0  0  0
  190.1970  177.2010  140.2800 C   0  0  0  0  0  0  0  0  0  0  0  0
  184.1260  177.8590  140.5660 C   0  0  1  0  0  3  0  0  0  0  0  0
  190.3250  176.0790  139.4570 C   0  0  0  0  0  3  0  0  0  0  0  0
  188.1040  176.1140  135.7320 C   0  0  0  0  0  3  0  0  0  0  0  0
  187.3060  175.9880  134.5950 C   0  0  0  0  0  3  0  0  0  0  0  0
  188.3740  177.9830  138.8880 C   0  0  0  0  0  3  0  0  0  0  0  0
  189.4790  175.9100  138.3550 C   0  0  0  0  0  3  0  0  0  0  0  0
  186.0150  176.4160  134.6120 N   0  0  0  0  0  0  0  0  0  0  0  0
  184.1210  177.3630  135.7080 C   0  0  0  0  0  3  0  0  0  0  0  0
  185.6000  177.5980  138.0660 C   0  0  0  0  0  3  0  0  0  0  0  0
  184.2460  177.9660  138.0670 C   0  0  0  0  0  0  0  0  0  0  0  0
  186.9240  178.4000  141.5870 N   0  0  0  0  0  2  0  0  0  0  0  0
  181.4890  180.3830  139.4950 O   0  0  0  0  0  0  0  0  0  0  0  0
  185.4580  176.9560  135.7290 C   0  0  0  0  0  0  0  0  0  0  0  0
  186.2230  177.0930  136.9100 C   0  0  0  0  0  0  0  0  0  0  0  0
  187.5820  176.6820  136.9010 C   0  0  0  0  0  0  0  0  0  0  0  0
  188.4790  176.8530  138.0730 C   0  0  0  0  0  0  0  0  0  0  0  0
  188.1130  179.0170  142.0260 N   0  0  0  0  0  2  0  0  0  0  0  0
  183.5220  177.8720  136.8660 C   0  0  0  0  0  3  0  0  0  0  0  0
  184.5420  178.8980  141.6030 C   0  0  0  0  0  2  0  0  0  0  0  0
  182.0210  177.0990  140.2600 N   0  0  0  0  0  2  0  0  0  0  0  0
  191.0620  177.3110  141.4910 C   0  0  0  0  0  2  0  0  0  0  0  0
  190.2300  177.3620  142.6840 N   0  0  0  0  0  2  0  0  0  0  0  0
  189.9770  177.2520  145.1570 N   0  0  0  0  0  0  0  0  0  0  0  0
  190.4000  176.6780  146.4280 C   0  0  0  0  0  1  0  0  0  0  0  0
  190.7500  177.0150  143.9700 C   0  0  0  0  0  0  0  0  0  0  0  0
  191.8970  176.5020  144.0630 O   0  0  0  0  0  0  0  0  0  0  0  0
  188.7080  177.9740  145.1170 C   0  0  0  0  0  2  0  0  0  0  0  0
  187.3220  178.1190  147.2370 C   0  0  0  0  0  2  0  0  0  0  0  0
  187.6350  177.2890  145.9770 C   0  0  1  0  0  3  0  0  0  0  0  0
  185.0520  178.6360  146.0980 C   0  0  2  0  0  3  0  0  0  0  0  0
  185.8670  178.6220  147.3550 C   0  0  2  0  0  3  0  0  0  0  0  0
  185.8020  178.0970  144.8890 C   0  0  0  0  0  2  0  0  0  0  0  0
  185.7130  179.7830  146.5760 O   0  0  0  0  0  0  0  0  0  0  0  0
  186.4830  176.9230  145.2410 O   0  0  0  0  0  0  0  0  0  0  0  0
  179.7790  178.7810  138.9640 C   0  0  2  0  0  3  0  0  0  0  0  0
  179.7180  177.6970  137.9190 C   0  0  0  0  0  3  0  0  0  0  0  0
  179.3430  176.4510  138.2240 C   0  0  0  0  0  3  0  0  0  0  0  0
  180.1940  175.7500  135.9890 C   0  0  1  0  0  3  0  0  0  0  0  0
  179.2560  175.3920  137.1620 C   0  0  1  0  0  3  0  0  0  0  0  0
  180.7450  173.3850  135.6940 C   0  0  2  0  0  3  0  0  0  0  0  0
  179.7320  172.9930  136.7020 N   0  0  0  0  0  0  0  0  0  0  0  0
  181.3610  174.7690  135.9360 C   0  0  1  0  0  3  0  0  0  0  0  0
  179.5210  173.9970  137.7610 C   0  0  0  0  0  2  0  0  0  0  0  0
  180.2320  174.6190  134.9620 C   0  0  2  0  0  3  0  0  0  0  0  0
  180.2210  171.7890  137.3500 C   0  0  0  0  0  1  0  0  0  0  0  0
  178.9310  179.9920  138.5670 C   0  0  0  0  0  2  0  0  0  0  0  0
  179.0630  180.2770  137.2030 O   0  0  0  0  0  1  0  0  0  0  0  0
  2 18  1  6  0  0  0
  2  4  1  0  0  0  0
  2  9  1  0  0  0  0
  3  4  1  0  0  0  0
  3 20  2  0  0  0  0
  4 28  1  0  0  0  0
  5 19  1  0  0  0  0
  5 27  1  0  0  0  0
  6  8  1  0  0  0  0
  6  7  1  0  0  0  0
  7 25  1  0  0  0  0
  8 29  1  0  0  0  0
  9  1  1  0  0  0  0
  9 27  1  1  0  0  0
 10  8  2  0  0  0  0
 11 23  1  0  0  0  0
 12 15  1  0  0  0  0
 12 11  2  0  0  0  0
 13  6  2  0  0  0  0
 14 10  1  0  0  0  0
 15 21  2  0  0  0  0
 16 21  1  0  0  0  0
 16 26  2  0  0  0  0
 17 18  2  0  0  0  0
 19 25  1  0  0  0  0
 21 22  1  0  0  0  0
 22 17  1  0  0  0  0
 23 22  2  0  0  0  0
 23 24  1  0  0  0  0
 24 14  2  0  0  0  0
 24 13  1  0  0  0  0
 26 18  1  0  0  0  0
 28  1  1  0  0  0  0
 29 30  1  0  0  0  0
 30 33  1  0  0  0  0
 31 32  1  0  0  0  0
 33 34  2  0  0  0  0
 33 31  1  0  0  0  0
 35 31  1  0  0  0  0
 37 35  1  6  0  0  0
 37 36  1  0  0  0  0
 38 40  1  6  0  0  0
 38 41  1  0  0  0  0
 38 39  1  0  0  0  0
 39 36  1  6  0  0  0
 40 42  1  0  0  0  0
 41 39  1  0  0  0  0
 42 37  1  0  0  0  0
 43 44  1  6  0  0  0
 43  3  1  0  0  0  0
 44 45  2  0  0  0  0
 46 47  1  0  0  0  0
 47 51  1  0  0  0  0
 47 45  1  1  0  0  0
 48 50  1  0  0  0  0
 48 49  1  0  0  0  0
 49 53  1  0  0  0  0
 49 51  1  0  0  0  0
 50 46  1  0  0  0  0
 52 48  1  0  0  0  0
 52 50  1  0  0  0  0
 52 46  1  0  0  0  0
 54 43  1  0  0  0  0
 55 54  1  0  0  0  0
M  END
>  <MODEL>
4

>  <REMARK>
 VINA RESULT:      -7.2      4.118      8.031
  Name = 
  8 active torsions:
  status: ('A' for Active; 'I' for Inactive)
    1  A    between atoms: C_4  and  C_38
    2  A    between atoms: C_8  and  C_38
    3  A    between atoms: C_10  and  C_48
    4  A    between atoms: N_11  and  C_25
    5  A    between atoms: C_12  and  C_25
    6  A    between atoms: C_14  and  C_22
    7  A    between atoms: C_20  and  C_38
    8  A    between atoms: C_22  and  N_30
                            x       y       z     vdW  Elec       q    Type
                         _______ _______ _______ _____ _____    ______ ____

>  <TORSDO>
F 8

$$$$
=
 OpenBabel11042410163D

 55 64  0  0  1  0  0  0  0  0999 V2000
  184.5860  180.4060  139.0800 O   0  0  0  0  0  0  0  0  0  0  0  0
  183.9950  178.4590  140.3070 C   0  0  1  0  0  3  0  0  0  0  0  0
  181.7250  178.6120  139.3140 C   0  0  0  0  0  0  0  0  0  0  0  0
  182.8720  179.2450  139.9060 N   0  0  0  0  0  0  0  0  0  0  0  0
  186.7520  177.3880  139.0320 C   0  0  0  0  0  2  0  0  0  0  0  0
  189.3080  177.2030  141.7800 C   0  0  0  0  0  0  0  0  0  0  0  0
  189.2320  176.4020  140.5090 C   0  0  0  0  0  2  0  0  0  0  0  0
  190.4910  177.8380  142.2090 C   0  0  0  0  0  0  0  0  0  0  0  0
  185.1180  179.2200  139.6400 C   0  0  1  0  0  3  0  0  0  0  0  0
  190.4670  178.6260  143.3640 C   0  0  0  0  0  3  0  0  0  0  0  0
  186.9080  178.3820  145.8310 C   0  0  0  0  0  3  0  0  0  0  0  0
  185.7420  178.4710  146.5910 C   0  0  0  0  0  3  0  0  0  0  0  0
  188.1360  177.3560  142.5200 C   0  0  0  0  0  3  0  0  0  0  0  0
  189.2810  178.7780  144.0910 C   0  0  0  0  0  3  0  0  0  0  0  0
  184.5260  178.4900  145.9820 N   0  0  0  0  0  0  0  0  0  0  0  0
  183.1380  178.4870  144.0430 C   0  0  0  0  0  3  0  0  0  0  0  0
  185.4060  178.3830  142.4160 C   0  0  0  0  0  3  0  0  0  0  0  0
  184.1390  178.4720  141.8200 C   0  0  0  0  0  0  0  0  0  0  0  0
  187.9250  178.0920  139.5240 N   0  0  0  0  0  2  0  0  0  0  0  0
  181.8490  177.4740  138.7800 O   0  0  0  0  0  0  0  0  0  0  0  0
  184.4070  178.4430  144.6280 C   0  0  0  0  0  0  0  0  0  0  0  0
  185.5610  178.3660  143.8140 C   0  0  0  0  0  0  0  0  0  0  0  0
  186.8370  178.3120  144.4340 C   0  0  0  0  0  0  0  0  0  0  0  0
  188.0970  178.1590  143.6620 C   0  0  0  0  0  0  0  0  0  0  0  0
  189.0450  177.2580  139.3340 N   0  0  0  0  0  2  0  0  0  0  0  0
  183.0040  178.4920  142.6500 C   0  0  0  0  0  3  0  0  0  0  0  0
  185.7300  178.3900  138.5160 C   0  0  0  0  0  2  0  0  0  0  0  0
  183.2710  180.5050  139.4490 N   0  0  0  0  0  2  0  0  0  0  0  0
  191.7510  177.7620  141.4130 C   0  0  0  0  0  2  0  0  0  0  0  0
  191.4900  177.0950  140.1460 N   0  0  0  0  0  2  0  0  0  0  0  0
  192.3020  176.0700  138.0290 N   0  0  0  0  0  0  0  0  0  0  0  0
  193.2680  176.0660  136.9370 C   0  0  0  0  0  1  0  0  0  0  0  0
  192.5280  176.8930  139.1840 C   0  0  0  0  0  0  0  0  0  0  0  0
  193.6520  177.4380  139.3530 O   0  0  0  0  0  0  0  0  0  0  0  0
  191.0710  175.3030  137.8610 C   0  0  0  0  0  2  0  0  0  0  0  0
  190.1290  173.5830  136.2510 C   0  0  0  0  0  2  0  0  0  0  0  0
  190.8110  174.9580  136.3870 C   0  0  1  0  0  3  0  0  0  0  0  0
  188.0130  174.9130  135.5670 C   0  0  2  0  0  3  0  0  0  0  0  0
  188.7290  173.5970  135.6010 C   0  0  2  0  0  3  0  0  0  0  0  0
  188.8260  176.0560  136.1580 C   0  0  0  0  0  2  0  0  0  0  0  0
  187.7720  173.9540  136.5680 O   0  0  0  0  0  0  0  0  0  0  0  0
  190.1450  175.9900  135.6850 O   0  0  0  0  0  0  0  0  0  0  0  0
  180.4150  179.3530  139.2170 C   0  0  2  0  0  3  0  0  0  0  0  0
  180.4860  180.4530  138.1890 C   0  0  0  0  0  3  0  0  0  0  0  0
  180.9710  181.6610  138.4890 C   0  0  0  0  0  3  0  0  0  0  0  0
  180.6900  182.1520  136.0620 C   0  0  1  0  0  3  0  0  0  0  0  0
  181.0640  182.7340  137.4420 C   0  0  1  0  0  3  0  0  0  0  0  0
  179.5790  184.2470  135.4670 C   0  0  2  0  0  3  0  0  0  0  0  0
  180.0620  184.8910  136.7110 N   0  0  0  0  0  0  0  0  0  0  0  0
  179.3610  182.7340  135.5930 C   0  0  1  0  0  3  0  0  0  0  0  0
  180.2220  183.9610  137.8430 C   0  0  0  0  0  2  0  0  0  0  0  0
  180.6380  183.2540  135.0060 C   0  0  2  0  0  3  0  0  0  0  0  0
  179.0590  185.8670  137.1010 C   0  0  0  0  0  1  0  0  0  0  0  0
  179.9710  179.8880  140.5810 C   0  0  0  0  0  2  0  0  0  0  0  0
  179.9670  178.8730  141.5460 O   0  0  0  0  0  1  0  0  0  0  0  0
  1 28  1  0  0  0  0
  1  9  1  0  0  0  0
  2 18  1  1  0  0  0
  3  4  1  0  0  0  0
  4  2  1  0  0  0  0
  5 19  1  0  0  0  0
  6  8  2  0  0  0  0
  6 13  1  0  0  0  0
  7  6  1  0  0  0  0
  8 10  1  0  0  0  0
  9 27  1  6  0  0  0
  9  2  1  0  0  0  0
 10 14  2  0  0  0  0
 11 12  1  0  0  0  0
 13 24  2  0  0  0  0
 15 12  2  0  0  0  0
 16 21  1  0  0  0  0
 17 22  1  0  0  0  0
 18 17  2  0  0  0  0
 18 26  1  0  0  0  0
 20  3  2  0  0  0  0
 21 15  1  0  0  0  0
 22 23  1  0  0  0  0
 22 21  2  0  0  0  0
 23 11  2  0  0  0  0
 24 14  1  0  0  0  0
 24 23  1  0  0  0  0
 25 19  1  0  0  0  0
 25  7  1  0  0  0  0
 26 16  2  0  0  0  0
 27  5  1  0  0  0  0
 28  4  1  0  0  0  0
 29  8  1  0  0  0  0
 30 29  1  0  0  0  0
 31 33  1  0  0  0  0
 32 31  1  0  0  0  0
 33 34  2  0  0  0  0
 33 30  1  0  0  0  0
 35 31  1  0  0  0  0
 36 37  1  0  0  0  0
 37 35  1  1  0  0  0
 38 39  1  0  0  0  0
 38 40  1  1  0  0  0
 38 41  1  0  0  0  0
 39 36  1  1  0  0  0
 39 41  1  0  0  0  0
 42 40  1  0  0  0  0
 42 37  1  0  0  0  0
 43 44  1  6  0  0  0
 43  3  1  0  0  0  0
 43 54  1  0  0  0  0
 44 45  2  0  0  0  0
 46 47  1  0  0  0  0
 47 51  1  0  0  0  0
 47 45  1  1  0  0  0
 48 50  1  0  0  0  0
 48 49  1  0  0  0  0
 49 53  1  0  0  0  0
 49 51  1  0  0  0  0
 50 46  1  0  0  0  0
 52 48  1  0  0  0  0
 52 50  1  0  0  0  0
 52 46  1  0  0  0  0
 54 55  1  0  0  0  0
M  END
>  <MODEL>
5

>  <REMARK>
 VINA RESULT:      -7.1      2.204      3.810
  Name = 
  8 active torsions:
  status: ('A' for Active; 'I' for Inactive)
    1  A    between atoms: C_4  and  C_38
    2  A    between atoms: C_8  and  C_38
    3  A    between atoms: C_10  and  C_48
    4  A    between atoms: N_11  and  C_25
    5  A    between atoms: C_12  and  C_25
    6  A    between atoms: C_14  and  C_22
    7  A    between atoms: C_20  and  C_38
    8  A    between atoms: C_22  and  N_30
                            x       y       z     vdW  Elec       q    Type
                         _______ _______ _______ _____ _____    ______ ____

>  <TORSDO>
F 8

$$$$
=
 OpenBabel11042410163D

 55 64  0  0  1  0  0  0  0  0999 V2000
  188.7180  177.2430  135.4890 O   0  0  0  0  0  0  0  0  0  0  0  0
  188.3170  175.6490  137.2050 C   0  0  1  0  0  3  0  0  0  0  0  0
  190.6980  174.9690  137.0300 C   0  0  0  0  0  0  0  0  0  0  0  0
  189.4610  175.3510  136.4050 N   0  0  0  0  0  0  0  0  0  0  0  0
  186.9870  178.2130  138.6300 C   0  0  0  0  0  2  0  0  0  0  0  0
  183.2590  177.7460  138.6170 C   0  0  0  0  0  0  0  0  0  0  0  0
  184.1060  178.5370  139.5770 C   0  0  0  0  0  2  0  0  0  0  0  0
  182.0990  178.2730  138.0140 C   0  0  0  0  0  0  0  0  0  0  0  0
  187.9110  176.9830  136.6220 C   0  0  1  0  0  3  0  0  0  0  0  0
  181.4030  177.5040  137.0760 C   0  0  0  0  0  3  0  0  0  0  0  0
  182.5350  173.3320  136.7320 C   0  0  0  0  0  3  0  0  0  0  0  0
  182.9430  172.0270  136.4590 C   0  0  0  0  0  3  0  0  0  0  0  0
  183.6870  176.4610  138.2830 C   0  0  0  0  0  3  0  0  0  0  0  0
  181.8490  176.2200  136.7440 C   0  0  0  0  0  3  0  0  0  0  0  0
  184.2670  171.7120  136.4380 N   0  0  0  0  0  0  0  0  0  0  0  0
  186.5750  172.2870  136.6080 C   0  0  0  0  0  3  0  0  0  0  0  0
  185.8790  174.9480  137.0920 C   0  0  0  0  0  3  0  0  0  0  0  0
  187.2360  174.6010  136.9960 C   0  0  0  0  0  0  0  0  0  0  0  0
  185.7970  178.6970  137.9500 N   0  0  0  0  0  2  0  0  0  0  0  0
  190.9070  175.2820  138.2360 O   0  0  0  0  0  0  0  0  0  0  0  0
  185.2260  172.6490  136.6600 C   0  0  0  0  0  0  0  0  0  0  0  0
  184.8620  173.9900  136.9290 C   0  0  0  0  0  0  0  0  0  0  0  0
  183.4860  174.3300  136.9870 C   0  0  0  0  0  0  0  0  0  0  0  0
  183.0110  175.6950  137.3310 C   0  0  0  0  0  0  0  0  0  0  0  0
  185.0330  179.4320  138.8770 N   0  0  0  0  0  2  0  0  0  0  0  0
  187.5720  173.2530  136.7830 C   0  0  0  0  0  3  0  0  0  0  0  0
  188.1360  178.0990  137.6390 C   0  0  0  0  0  2  0  0  0  0  0  0
  189.4920  176.1380  135.2490 N   0  0  0  0  0  2  0  0  0  0  0  0
  181.6420  179.6680  138.2860 C   0  0  0  0  0  2  0  0  0  0  0  0
  181.4390  179.8460  139.7160 N   0  0  0  0  0  2  0  0  0  0  0  0
  180.2050  179.3200  141.8120 N   0  0  0  0  0  0  0  0  0  0  0  0
  178.9440  178.9920  142.4660 C   0  0  0  0  0  1  0  0  0  0  0  0
  180.2960  179.3000  140.3780 C   0  0  0  0  0  0  0  0  0  0  0  0
  179.3620  178.7950  139.6990 O   0  0  0  0  0  0  0  0  0  0  0  0
  181.3190  179.7610  142.6460 C   0  0  0  0  0  2  0  0  0  0  0  0
  183.2460  178.1420  142.3220 C   0  0  0  0  0  2  0  0  0  0  0  0
  182.0880  178.5720  143.2430 C   0  0  1  0  0  3  0  0  0  0  0  0
  184.8060  179.1370  144.1360 C   0  0  2  0  0  3  0  0  0  0  0  0
  184.6580  178.2550  142.9340 C   0  0  2  0  0  3  0  0  0  0  0  0
  183.4930  179.7580  144.5910 C   0  0  0  0  0  2  0  0  0  0  0  0
  185.1020  179.5860  142.8350 O   0  0  0  0  0  0  0  0  0  0  0  0
  182.4840  178.7840  144.5850 O   0  0  0  0  0  0  0  0  0  0  0  0
  191.7890  174.3160  136.2190 C   0  0  2  0  0  3  0  0  0  0  0  0
  193.0070  174.0450  137.0620 C   0  0  0  0  0  3  0  0  0  0  0  0
  194.1070  173.4890  136.5450 C   0  0  0  0  0  3  0  0  0  0  0  0
  196.5970  173.3910  136.5310 C   0  0  1  0  0  3  0  0  0  0  0  0
  195.3240  173.2570  137.3940 C   0  0  1  0  0  3  0  0  0  0  0  0
  197.7680  174.4460  138.4010 C   0  0  2  0  0  3  0  0  0  0  0  0
  196.6220  174.1840  139.3040 N   0  0  0  0  0  0  0  0  0  0  0  0
  197.3700  174.6430  136.9330 C   0  0  1  0  0  3  0  0  0  0  0  0
  195.3130  174.1830  138.6270 C   0  0  0  0  0  2  0  0  0  0  0  0
  197.8510  173.3020  137.3980 C   0  0  2  0  0  3  0  0  0  0  0  0
  196.5950  175.2600  140.2790 C   0  0  0  0  0  1  0  0  0  0  0  0
  192.1370  175.1440  134.9790 C   0  0  0  0  0  2  0  0  0  0  0  0
  192.8870  176.2750  135.3200 O   0  0  0  0  0  1  0  0  0  0  0  0
  1  9  1  0  0  0  0
  2 18  1  6  0  0  0
  3 20  2  0  0  0  0
  4  3  1  0  0  0  0
  4  2  1  0  0  0  0
  6  7  1  0  0  0  0
  8 29  1  0  0  0  0
  8  6  2  0  0  0  0
  9  2  1  0  0  0  0
  9 27  1  1  0  0  0
 10  8  1  0  0  0  0
 11 23  1  0  0  0  0
 12 11  2  0  0  0  0
 13  6  1  0  0  0  0
 14 10  2  0  0  0  0
 14 24  1  0  0  0  0
 15 12  1  0  0  0  0
 15 21  2  0  0  0  0
 16 21  1  0  0  0  0
 16 26  2  0  0  0  0
 18 17  2  0  0  0  0
 19  5  1  0  0  0  0
 19 25  1  0  0  0  0
 21 22  1  0  0  0  0
 22 23  2  0  0  0  0
 22 17  1  0  0  0  0
 23 24  1  0  0  0  0
 24 13  2  0  0  0  0
 25  7  1  0  0  0  0
 26 18  1  0  0  0  0
 27  5  1  0  0  0  0
 28  1  1  0  0  0  0
 28  4  1  0  0  0  0
 29 30  1  0  0  0  0
 30 33  1  0  0  0  0
 31 32  1  0  0  0  0
 31 35  1  0  0  0  0
 33 31  1  0  0  0  0
 34 33  2  0  0  0  0
 36 37  1  0  0  0  0
 37 35  1  6  0  0  0
 37 42  1  0  0  0  0
 38 40  1  6  0  0  0
 39 36  1  6  0  0  0
 39 38  1  0  0  0  0
 41 39  1  0  0  0  0
 41 38  1  0  0  0  0
 42 40  1  0  0  0  0
 43 54  1  6  0  0  0
 43  3  1  0  0  0  0
 43 44  1  0  0  0  0
 45 44  2  0  0  0  0
 46 50  1  0  0  0  0
 46 47  1  0  0  0  0
 46 52  1  0  0  0  0
 47 45  1  6  0  0  0
 47 51  1  0  0  0  0
 48 49  1  0  0  0  0
 49 53  1  0  0  0  0
 50 52  1  0  0  0  0
 50 48  1  0  0  0  0
 51 49  1  0  0  0  0
 52 48  1  0  0  0  0
 54 55  1  0  0  0  0
M  END
>  <MODEL>
6

>  <REMARK>
 VINA RESULT:      -7.0      2.999     12.646
  Name = 
  8 active torsions:
  status: ('A' for Active; 'I' for Inactive)
    1  A    between atoms: C_4  and  C_38
    2  A    between atoms: C_8  and  C_38
    3  A    between atoms: C_10  and  C_48
    4  A    between atoms: N_11  and  C_25
    5  A    between atoms: C_12  and  C_25
    6  A    between atoms: C_14  and  C_22
    7  A    between atoms: C_20  and  C_38
    8  A    between atoms: C_22  and  N_30
                            x       y       z     vdW  Elec       q    Type
                         _______ _______ _______ _____ _____    ______ ____

>  <TORSDO>
F 8

$$$$
=
 OpenBabel11042410163D

 55 64  0  0  1  0  0  0  0  0999 V2000
  189.2760  177.4780  135.2440 O   0  0  0  0  0  0  0  0  0  0  0  0
  189.0130  175.8840  136.9870 C   0  0  1  0  0  3  0  0  0  0  0  0
  191.4560  175.4600  136.8690 C   0  0  0  0  0  0  0  0  0  0  0  0
  190.1970  175.6950  136.2140 N   0  0  0  0  0  0  0  0  0  0  0  0
  187.3900  178.3200  138.3330 C   0  0  0  0  0  2  0  0  0  0  0  0
  183.7330  177.4570  138.2650 C   0  0  0  0  0  0  0  0  0  0  0  0
  184.4720  178.3520  139.2210 C   0  0  0  0  0  2  0  0  0  0  0  0
  182.5360  177.8440  137.6300 C   0  0  0  0  0  0  0  0  0  0  0  0
  188.4790  177.1560  136.3690 C   0  0  1  0  0  3  0  0  0  0  0  0
  181.9440  176.9870  136.6970 C   0  0  0  0  0  3  0  0  0  0  0  0
  183.5210  172.9540  136.4640 C   0  0  0  0  0  3  0  0  0  0  0  0
  184.0710  171.6940  136.2270 C   0  0  0  0  0  3  0  0  0  0  0  0
  184.3020  176.2180  137.9660 C   0  0  0  0  0  3  0  0  0  0  0  0
  182.5310  175.7520  136.4010 C   0  0  0  0  0  3  0  0  0  0  0  0
  185.4210  171.5220  136.2360 N   0  0  0  0  0  0  0  0  0  0  0  0
  187.6510  172.3440  136.4340 C   0  0  0  0  0  3  0  0  0  0  0  0
  186.6660  174.9250  136.8470 C   0  0  0  0  0  3  0  0  0  0  0  0
  188.0530  174.7230  136.7820 C   0  0  0  0  0  0  0  0  0  0  0  0
  186.1680  178.6600  137.6210 N   0  0  0  0  0  2  0  0  0  0  0  0
  191.6060  175.8170  138.0710 O   0  0  0  0  0  0  0  0  0  0  0  0
  186.2700  172.5620  136.4540 C   0  0  0  0  0  0  0  0  0  0  0  0
  185.7600  173.8610  136.6870 C   0  0  0  0  0  0  0  0  0  0  0  0
  184.3540  174.0530  136.7130 C   0  0  0  0  0  0  0  0  0  0  0  0
  183.7300  175.3650  137.0190 C   0  0  0  0  0  0  0  0  0  0  0  0
  185.3120  179.3270  138.5190 N   0  0  0  0  0  2  0  0  0  0  0  0
  188.5350  173.4150  136.6050 C   0  0  0  0  0  3  0  0  0  0  0  0
  188.5630  178.3090  137.3640 C   0  0  0  0  0  2  0  0  0  0  0  0
  190.1680  176.4580  135.0420 N   0  0  0  0  0  2  0  0  0  0  0  0
  181.9280  179.1870  137.8630 C   0  0  0  0  0  2  0  0  0  0  0  0
  181.6910  179.3770  139.2870 N   0  0  0  0  0  2  0  0  0  0  0  0
  180.5270  178.7440  141.3930 N   0  0  0  0  0  0  0  0  0  0  0  0
  179.3200  178.2620  142.0530 C   0  0  0  0  0  1  0  0  0  0  0  0
  180.6300  178.6960  139.9610 C   0  0  0  0  0  0  0  0  0  0  0  0
  179.7810  178.0450  139.2950 O   0  0  0  0  0  0  0  0  0  0  0  0
  181.5630  179.3600  142.2180 C   0  0  0  0  0  2  0  0  0  0  0  0
  183.6880  177.9740  142.1510 C   0  0  0  0  0  2  0  0  0  0  0  0
  182.4110  178.3060  142.9470 C   0  0  1  0  0  3  0  0  0  0  0  0
  184.9550  179.2450  144.0210 C   0  0  2  0  0  3  0  0  0  0  0  0
  185.0180  178.2900  142.8670 C   0  0  2  0  0  3  0  0  0  0  0  0
  183.5430  179.7230  144.3290 C   0  0  0  0  0  2  0  0  0  0  0  0
  185.3090  179.6590  142.7240 O   0  0  0  0  0  0  0  0  0  0  0  0
  182.6600  178.6340  144.3010 O   0  0  0  0  0  0  0  0  0  0  0  0
  192.6250  174.9120  136.0910 C   0  0  2  0  0  3  0  0  0  0  0  0
  193.4620  173.9920  136.9420 C   0  0  0  0  0  3  0  0  0  0  0  0
  194.0710  172.9210  136.4250 C   0  0  0  0  0  3  0  0  0  0  0  0
  194.4930  170.5630  137.1130 C   0  0  1  0  0  3  0  0  0  0  0  0
  194.9290  172.0350  137.2820 C   0  0  1  0  0  3  0  0  0  0  0  0
  196.8250  169.8430  137.2640 C   0  0  2  0  0  3  0  0  0  0  0  0
  197.2600  171.2220  137.5930 N   0  0  0  0  0  0  0  0  0  0  0  0
  195.5760  169.7800  136.3770 C   0  0  1  0  0  3  0  0  0  0  0  0
  196.4230  172.2740  136.9890 C   0  0  0  0  0  2  0  0  0  0  0  0
  195.4410  169.6290  137.8620 C   0  0  2  0  0  3  0  0  0  0  0  0
  198.6000  171.3830  137.0560 C   0  0  0  0  0  1  0  0  0  0  0  0
  193.4690  176.0340  135.4810 C   0  0  0  0  0  2  0  0  0  0  0  0
  194.4250  176.5010  136.3900 O   0  0  0  0  0  1  0  0  0  0  0  0
  1  9  1  0  0  0  0
  2 18  1  6  0  0  0
  3 20  2  0  0  0  0
  4  3  1  0  0  0  0
  4  2  1  0  0  0  0
  6  7  1  0  0  0  0
  8 29  1  0  0  0  0
  8  6  2  0  0  0  0
  9  2  1  0  0  0  0
  9 27  1  1  0  0  0
 10  8  1  0  0  0  0
 11 23  1  0  0  0  0
 12 15  1  0  0  0  0
 12 11  2  0  0  0  0
 13  6  1  0  0  0  0
 14 10  2  0  0  0  0
 14 24  1  0  0  0  0
 15 21  2  0  0  0  0
 16 21  1  0  0  0  0
 16 26  2  0  0  0  0
 18 17  2  0  0  0  0
 19  5  1  0  0  0  0
 19 25  1  0  0  0  0
 21 22  1  0  0  0  0
 22 23  2  0  0  0  0
 22 17  1  0  0  0  0
 23 24  1  0  0  0  0
 24 13  2  0  0  0  0
 25  7  1  0  0  0  0
 26 18  1  0  0  0  0
 27  5  1  0  0  0  0
 28  1  1  0  0  0  0
 28  4  1  0  0  0  0
 29 30  1  0  0  0  0
 30 33  1  0  0  0  0
 31 32  1  0  0  0  0
 31 35  1  0  0  0  0
 33 31  1  0  0  0  0
 34 33  2  0  0  0  0
 36 37  1  0  0  0  0
 37 35  1  6  0  0  0
 37 42  1  0  0  0  0
 38 40  1  6  0  0  0
 39 36  1  6  0  0  0
 39 38  1  0  0  0  0
 41 39  1  0  0  0  0
 41 38  1  0  0  0  0
 42 40  1  0  0  0  0
 43 54  1  1  0  0  0
 43  3  1  0  0  0  0
 43 44  1  0  0  0  0
 45 44  2  0  0  0  0
 46 47  1  0  0  0  0
 46 52  1  0  0  0  0
 47 45  1  6  0  0  0
 48 49  1  0  0  0  0
 48 52  1  0  0  0  0
 50 46  1  0  0  0  0
 50 48  1  0  0  0  0
 50 52  1  0  0  0  0
 51 47  1  0  0  0  0
 51 49  1  0  0  0  0
 53 49  1  0  0  0  0
 54 55  1  0  0  0  0
M  END
>  <MODEL>
7

>  <REMARK>
 VINA RESULT:      -6.9      3.047     12.876
  Name = 
  8 active torsions:
  status: ('A' for Active; 'I' for Inactive)
    1  A    between atoms: C_4  and  C_38
    2  A    between atoms: C_8  and  C_38
    3  A    between atoms: C_10  and  C_48
    4  A    between atoms: N_11  and  C_25
    5  A    between atoms: C_12  and  C_25
    6  A    between atoms: C_14  and  C_22
    7  A    between atoms: C_20  and  C_38
    8  A    between atoms: C_22  and  N_30
                            x       y       z     vdW  Elec       q    Type
                         _______ _______ _______ _____ _____    ______ ____

>  <TORSDO>
F 8

$$$$
=
 OpenBabel11042410163D

 55 64  0  0  1  0  0  0  0  0999 V2000
  188.9530  175.3780  143.2390 O   0  0  0  0  0  0  0  0  0  0  0  0
  188.7270  177.5750  142.3600 C   0  0  1  0  0  3  0  0  0  0  0  0
  187.2130  178.0990  144.2560 C   0  0  0  0  0  0  0  0  0  0  0  0
  187.6620  177.1960  143.2310 N   0  0  0  0  0  0  0  0  0  0  0  0
  191.9400  177.3620  142.2650 C   0  0  0  0  0  2  0  0  0  0  0  0
  192.9760  177.0400  138.6670 C   0  0  0  0  0  0  0  0  0  0  0  0
  193.7540  177.6040  139.8250 C   0  0  0  0  0  2  0  0  0  0  0  0
  193.5200  176.0960  137.7720 C   0  0  0  0  0  0  0  0  0  0  0  0
  189.6250  176.3650  142.4780 C   0  0  1  0  0  3  0  0  0  0  0  0
  192.7130  175.5620  136.7640 C   0  0  0  0  0  3  0  0  0  0  0  0
  188.8670  177.4600  136.1160 C   0  0  0  0  0  3  0  0  0  0  0  0
  187.5610  177.9190  135.9510 C   0  0  0  0  0  3  0  0  0  0  0  0
  191.6470  177.4390  138.5240 C   0  0  0  0  0  3  0  0  0  0  0  0
  191.3790  175.9650  136.6380 C   0  0  0  0  0  3  0  0  0  0  0  0
  186.8070  178.2460  137.0350 N   0  0  0  0  0  0  0  0  0  0  0  0
  186.4690  178.4460  139.3880 C   0  0  0  0  0  3  0  0  0  0  0  0
  189.0450  177.4660  139.8430 C   0  0  0  0  0  3  0  0  0  0  0  0
  188.2150  177.7480  140.9400 C   0  0  0  0  0  0  0  0  0  0  0  0
  192.4230  176.3680  141.3190 N   0  0  0  0  0  2  0  0  0  0  0  0
  187.9840  179.0150  144.6570 O   0  0  0  0  0  0  0  0  0  0  0  0
  187.2860  178.1190  138.3010 C   0  0  0  0  0  0  0  0  0  0  0  0
  188.6010  177.6450  138.5200 C   0  0  0  0  0  0  0  0  0  0  0  0
  189.4140  177.3310  137.4010 C   0  0  0  0  0  0  0  0  0  0  0  0
  190.8270  176.8940  137.5330 C   0  0  0  0  0  0  0  0  0  0  0  0
  193.7490  176.6990  140.9780 N   0  0  0  0  0  2  0  0  0  0  0  0
  186.9330  178.2700  140.6960 C   0  0  0  0  0  3  0  0  0  0  0  0
  190.9200  176.7300  143.1990 C   0  0  0  0  0  2  0  0  0  0  0  0
  187.6820  175.8210  143.4910 N   0  0  0  0  0  2  0  0  0  0  0  0
  194.9140  175.5850  137.9280 C   0  0  0  0  0  2  0  0  0  0  0  0
  195.3180  174.8870  136.7160 N   0  0  0  0  0  2  0  0  0  0  0  0
  197.0940  174.0400  135.1930 N   0  0  0  0  0  0  0  0  0  0  0  0
  198.4100  174.2190  134.5940 C   0  0  0  0  0  1  0  0  0  0  0  0
  196.6790  174.8850  136.2780 C   0  0  0  0  0  0  0  0  0  0  0  0
  197.5220  175.6260  136.8510 O   0  0  0  0  0  0  0  0  0  0  0  0
  196.1920  173.0600  134.5940 C   0  0  0  0  0  2  0  0  0  0  0  0
  197.2500  171.6580  136.4260 C   0  0  0  0  0  2  0  0  0  0  0  0
  196.4950  171.6350  135.0840 C   0  0  1  0  0  3  0  0  0  0  0  0
  195.0460  170.7750  137.4640 C   0  0  2  0  0  3  0  0  0  0  0  0
  196.5220  170.9860  137.6100 C   0  0  2  0  0  3  0  0  0  0  0  0
  194.5030  171.2340  136.1180 C   0  0  0  0  0  2  0  0  0  0  0  0
  195.5810  171.8830  138.1460 O   0  0  0  0  0  0  0  0  0  0  0  0
  195.3540  170.7970  135.0930 O   0  0  0  0  0  0  0  0  0  0  0  0
  185.8860  177.8760  144.9360 C   0  0  2  0  0  3  0  0  0  0  0  0
  184.7950  178.6780  144.2790 C   0  0  0  0  0  3  0  0  0  0  0  0
  184.1850  178.2530  143.1680 C   0  0  0  0  0  3  0  0  0  0  0  0
  182.8810  178.6190  141.0760 C   0  0  1  0  0  3  0  0  0  0  0  0
  183.0750  179.0520  142.5450 C   0  0  1  0  0  3  0  0  0  0  0  0
  180.4620  178.9000  141.3010 C   0  0  2  0  0  3  0  0  0  0  0  0
  180.6260  179.4750  142.6570 N   0  0  0  0  0  0  0  0  0  0  0  0
  181.5510  177.8900  140.9180 C   0  0  1  0  0  3  0  0  0  0  0  0
  181.7910  178.9520  143.3930 C   0  0  0  0  0  2  0  0  0  0  0  0
  181.6660  179.3130  140.4640 C   0  0  2  0  0  3  0  0  0  0  0  0
  179.4440  179.1080  143.4180 C   0  0  0  0  0  1  0  0  0  0  0  0
  185.9700  178.1660  146.4380 C   0  0  0  0  0  2  0  0  0  0  0  0
  184.8400  178.8640  146.8820 O   0  0  0  0  0  1  0  0  0  0  0  0
  1 28  1  0  0  0  0
  2 18  1  6  0  0  0
  2  9  1  0  0  0  0
  2  4  1  0  0  0  0
  3 20  2  0  0  0  0
  3 43  1  0  0  0  0
  4 28  1  0  0  0  0
  4  3  1  0  0  0  0
  5 27  1  0  0  0  0
  6  7  1  0  0  0  0
  7 25  1  0  0  0  0
  8 29  1  0  0  0  0
  8  6  2  0  0  0  0
  9 27  1  1  0  0  0
  9  1  1  0  0  0  0
 10  8  1  0  0  0  0
 11 23  1  0  0  0  0
 12 11  2  0  0  0  0
 12 15  1  0  0  0  0
 13  6  1  0  0  0  0
 14 10  2  0  0  0  0
 14 24  1  0  0  0  0
 15 21  2  0  0  0  0
 16 26  2  0  0  0  0
 17 18  2  0  0  0  0
 19  5  1  0  0  0  0
 21 22  1  0  0  0  0
 21 16  1  0  0  0  0
 22 17  1  0  0  0  0
 23 24  1  0  0  0  0
 23 22  2  0  0  0  0
 24 13  2  0  0  0  0
 25 19  1  0  0  0  0
 26 18  1  0  0  0  0
 30 29  1  0  0  0  0
 31 33  1  0  0  0  0
 32 31  1  0  0  0  0
 33 30  1  0  0  0  0
 33 34  2  0  0  0  0
 35 31  1  0  0  0  0
 37 35  1  1  0  0  0
 37 42  1  0  0  0  0
 37 36  1  0  0  0  0
 38 40  1  6  0  0  0
 38 39  1  0  0  0  0
 38 41  1  0  0  0  0
 39 36  1  6  0  0  0
 39 41  1  0  0  0  0
 42 40  1  0  0  0  0
 43 44  1  6  0  0  0
 43 54  1  0  0  0  0
 45 44  2  0  0  0  0
 46 47  1  0  0  0  0
 47 45  1  1  0  0  0
 47 51  1  0  0  0  0
 48 49  1  0  0  0  0
 49 51  1  0  0  0  0
 49 53  1  0  0  0  0
 50 46  1  0  0  0  0
 50 48  1  0  0  0  0
 52 50  1  0  0  0  0
 52 46  1  0  0  0  0
 52 48  1  0  0  0  0
 54 55  1  0  0  0  0
M  END
>  <MODEL>
8

>  <REMARK>
 VINA RESULT:      -6.6      3.247      5.940
  Name = 
  8 active torsions:
  status: ('A' for Active; 'I' for Inactive)
    1  A    between atoms: C_4  and  C_38
    2  A    between atoms: C_8  and  C_38
    3  A    between atoms: C_10  and  C_48
    4  A    between atoms: N_11  and  C_25
    5  A    between atoms: C_12  and  C_25
    6  A    between atoms: C_14  and  C_22
    7  A    between atoms: C_20  and  C_38
    8  A    between atoms: C_22  and  N_30
                            x       y       z     vdW  Elec       q    Type
                         _______ _______ _______ _____ _____    ______ ____

>  <TORSDO>
F 8

$$$$
=
 OpenBabel11042410163D

 55 64  0  0  1  0  0  0  0  0999 V2000
  185.1180  180.0090  142.1380 O   0  0  0  0  0  0  0  0  0  0  0  0
  186.1700  177.8800  142.1980 C   0  0  1  0  0  3  0  0  0  0  0  0
  186.2720  178.0810  144.6700 C   0  0  0  0  0  0  0  0  0  0  0  0
  186.4090  178.6670  143.3640 N   0  0  0  0  0  0  0  0  0  0  0  0
  183.6990  177.1250  140.2750 C   0  0  0  0  0  2  0  0  0  0  0  0
  185.0370  176.6470  136.7960 C   0  0  0  0  0  0  0  0  0  0  0  0
  183.8140  176.0390  137.4270 C   0  0  0  0  0  2  0  0  0  0  0  0
  185.0130  177.2620  135.5280 C   0  0  0  0  0  0  0  0  0  0  0  0
  185.2130  178.7770  141.4480 C   0  0  1  0  0  3  0  0  0  0  0  0
  186.1730  177.8700  135.0380 C   0  0  0  0  0  3  0  0  0  0  0  0
  189.8510  177.1150  137.2090 C   0  0  0  0  0  3  0  0  0  0  0  0
  191.0380  177.0420  137.9370 C   0  0  0  0  0  3  0  0  0  0  0  0
  186.2190  176.6400  137.5370 C   0  0  0  0  0  3  0  0  0  0  0  0
  187.3490  177.8630  135.7960 C   0  0  0  0  0  3  0  0  0  0  0  0
  191.0140  177.0990  139.2960 N   0  0  0  0  0  0  0  0  0  0  0  0
  189.8730  177.3220  141.3790 C   0  0  0  0  0  3  0  0  0  0  0  0
  187.4420  177.5540  140.0240 C   0  0  0  0  0  3  0  0  0  0  0  0
  187.4620  177.6760  141.4220 C   0  0  0  0  0  0  0  0  0  0  0  0
  183.7450  177.7980  138.9870 N   0  0  0  0  0  2  0  0  0  0  0  0
  185.5720  177.0400  144.8130 O   0  0  0  0  0  0  0  0  0  0  0  0
  189.8500  177.2470  139.9830 C   0  0  0  0  0  0  0  0  0  0  0  0
  188.6210  177.3380  139.2880 C   0  0  0  0  0  0  0  0  0  0  0  0
  188.6230  177.2480  137.8720 C   0  0  0  0  0  0  0  0  0  0  0  0
  187.3760  177.2640  137.0650 C   0  0  0  0  0  0  0  0  0  0  0  0
  182.9740  177.0500  138.0760 N   0  0  0  0  0  2  0  0  0  0  0  0
  188.6880  177.5260  142.0930 C   0  0  0  0  0  3  0  0  0  0  0  0
  183.8240  178.1480  141.3940 C   0  0  0  0  0  2  0  0  0  0  0  0
  186.0210  179.9970  143.1680 N   0  0  0  0  0  2  0  0  0  0  0  0
  183.7560  177.3570  134.7300 C   0  0  0  0  0  2  0  0  0  0  0  0
  182.9970  176.1210  134.8620 N   0  0  0  0  0  2  0  0  0  0  0  0
  180.8250  174.9140  134.9820 N   0  0  0  0  0  0  0  0  0  0  0  0
  179.4310  174.8970  135.4070 C   0  0  0  0  0  1  0  0  0  0  0  0
  181.5800  176.1350  135.0430 C   0  0  0  0  0  0  0  0  0  0  0  0
  180.9860  177.2270  135.2550 O   0  0  0  0  0  0  0  0  0  0  0  0
  181.4420  173.6480  134.5970 C   0  0  0  0  0  2  0  0  0  0  0  0
  181.5620  171.1570  135.0650 C   0  0  0  0  0  2  0  0  0  0  0  0
  181.1320  172.5330  135.6080 C   0  0  1  0  0  3  0  0  0  0  0  0
  183.4460  171.2570  136.8410 C   0  0  2  0  0  3  0  0  0  0  0  0
  182.6400  170.4240  135.8910 C   0  0  2  0  0  3  0  0  0  0  0  0
  183.0250  172.7190  136.8640 C   0  0  0  0  0  2  0  0  0  0  0  0
  183.9080  170.9310  135.5520 O   0  0  0  0  0  0  0  0  0  0  0  0
  181.6270  172.8070  136.9050 O   0  0  0  0  0  0  0  0  0  0  0  0
  186.8540  178.7720  145.8770 C   0  0  2  0  0  3  0  0  0  0  0  0
  188.1910  178.1860  146.2490 C   0  0  0  0  0  3  0  0  0  0  0  0
  189.2320  178.2290  145.4120 C   0  0  0  0  0  3  0  0  0  0  0  0
  190.5650  177.3470  147.3240 C   0  0  1  0  0  3  0  0  0  0  0  0
  190.5670  177.6690  145.8140 C   0  0  1  0  0  3  0  0  0  0  0  0
  191.9290  175.3590  146.9130 C   0  0  2  0  0  3  0  0  0  0  0  0
  192.0890  175.7280  145.4870 N   0  0  0  0  0  0  0  0  0  0  0  0
  190.6110  175.8370  147.5350 C   0  0  1  0  0  3  0  0  0  0  0  0
  190.9420  176.4660  144.9270 C   0  0  0  0  0  2  0  0  0  0  0  0
  191.8590  176.6440  147.7290 C   0  0  2  0  0  3  0  0  0  0  0  0
  192.2030  174.4880  144.7380 C   0  0  0  0  0  1  0  0  0  0  0  0
  185.8820  178.7480  147.0600 C   0  0  0  0  0  2  0  0  0  0  0  0
  185.9270  179.9500  147.7760 O   0  0  0  0  0  1  0  0  0  0  0  0
  1 28  1  0  0  0  0
  2 18  1  6  0  0  0
  2  4  1  0  0  0  0
  3 20  2  0  0  0  0
  3 43  1  0  0  0  0
  4  3  1  0  0  0  0
  5 27  1  0  0  0  0
  6  7  1  0  0  0  0
  6 13  1  0  0  0  0
  7 25  1  0  0  0  0
  8  6  2  0  0  0  0
  9 27  1  1  0  0  0
  9  1  1  0  0  0  0
  9  2  1  0  0  0  0
 10  8  1  0  0  0  0
 10 14  2  0  0  0  0
 11 23  2  0  0  0  0
 11 12  1  0  0  0  0
 12 15  2  0  0  0  0
 14 24  1  0  0  0  0
 15 21  1  0  0  0  0
 16 26  1  0  0  0  0
 17 18  1  0  0  0  0
 18 26  2  0  0  0  0
 19  5  1  0  0  0  0
 21 16  2  0  0  0  0
 22 21  1  0  0  0  0
 22 17  2  0  0  0  0
 23 22  1  0  0  0  0
 24 13  2  0  0  0  0
 24 23  1  0  0  0  0
 25 19  1  0  0  0  0
 28  4  1  0  0  0  0
 29 30  1  0  0  0  0
 29  8  1  0  0  0  0
 30 33  1  0  0  0  0
 31 33  1  0  0  0  0
 31 32  1  0  0  0  0
 33 34  2  0  0  0  0
 35 31  1  0  0  0  0
 36 37  1  0  0  0  0
 37 35  1  6  0  0  0
 37 42  1  0  0  0  0
 38 40  1  6  0  0  0
 39 36  1  6  0  0  0
 39 38  1  0  0  0  0
 40 42  1  0  0  0  0
 41 39  1  0  0  0  0
 41 38  1  0  0  0  0
 43 44  1  1  0  0  0
 43 54  1  0  0  0  0
 45 44  2  0  0  0  0
 46 50  1  0  0  0  0
 46 52  1  0  0  0  0
 47 45  1  6  0  0  0
 47 46  1  0  0  0  0
 48 50  1  0  0  0  0
 48 52  1  0  0  0  0
 49 48  1  0  0  0  0
 50 52  1  0  0  0  0
 51 49  1  0  0  0  0
 51 47  1  0  0  0  0
 53 49  1  0  0  0  0
 54 55  1  0  0  0  0
M  END
>  <MODEL>
9

>  <REMARK>
 VINA RESULT:      -5.9      4.988     10.233
  Name = 
  8 active torsions:
  status: ('A' for Active; 'I' for Inactive)
    1  A    between atoms: C_4  and  C_38
    2  A    between atoms: C_8  and  C_38
    3  A    between atoms: C_10  and  C_48
    4  A    between atoms: N_11  and  C_25
    5  A    between atoms: C_12  and  C_25
    6  A    between atoms: C_14  and  C_22
    7  A    between atoms: C_20  and  C_38
    8  A    between atoms: C_22  and  N_30
                            x       y       z     vdW  Elec       q    Type
                         _______ _______ _______ _____ _____    ______ ____

>  <TORSDO>
F 8

$$$$
