=
 OpenBabel11042410313D

 35 39  0  0  1  0  0  0  0  0999 V2000
  189.5020  176.9370  142.3040 N   0  0  0  0  0  0  0  0  0  0  0  0
  188.6040  177.6670  140.1490 C   0  0  0  0  0  2  0  0  0  0  0  0
  186.0100  177.7360  137.9480 C   0  0  0  0  0  0  0  0  0  0  0  0
  186.9410  176.7160  137.5670 N   0  0  0  0  0  2  0  0  0  0  0  0
  189.1450  175.8860  137.2570 N   0  0  0  0  0  0  0  0  0  0  0  0
  189.0450  177.7080  138.7210 C   0  0  2  0  0  3  0  0  0  0  0  0
  188.3500  176.7380  137.8220 C   0  0  0  0  0  0  0  0  0  0  0  0
  190.5250  176.0990  137.6740 C   0  0  0  0  0  2  0  0  0  0  0  0
  189.5820  177.1540  140.8850 C   0  0  0  0  0  0  0  0  0  0  0  0
  190.3700  177.0490  138.8000 C   0  0  2  0  0  3  0  0  0  0  0  0
  190.6730  176.6910  140.0370 C   0  0  0  0  0  3  0  0  0  0  0  0
  186.4130  178.8630  138.3460 O   0  0  0  0  0  0  0  0  0  0  0  0
  182.5530  178.0960  139.1160 C   0  0  0  0  0  2  0  0  0  0  0  0
  184.5450  177.4830  137.8050 C   0  0  1  0  0  3  0  0  0  0  0  0
  183.8950  177.3930  139.1760 C   0  0  1  0  0  3  0  0  0  0  0  0
  183.7470  178.6500  138.3640 C   0  0  2  0  0  3  0  0  0  0  0  0
  190.1820  175.8020  142.9290 C   0  0  0  0  0  2  0  0  0  0  0  0
  191.5590  176.2170  143.4160 C   0  0  0  0  0  2  0  0  0  0  0  0
  192.0190  175.2940  144.3550 O   0  0  0  0  0  0  0  0  0  0  0  0
  191.7110  175.8620  145.5910 C   0  0  0  0  0  3  0  0  0  0  0  0
  192.1110  177.1970  145.6010 O   0  0  0  0  0  1  0  0  0  0  0  0
  192.3780  175.1710  146.6020 O   0  0  0  0  0  1  0  0  0  0  0  0
  188.6350  177.7980  143.1080 C   0  0  2  0  0  3  0  0  0  0  0  0
  190.4340  179.3260  143.9160 O   0  0  0  0  0  0  0  0  0  0  0  0
  189.1250  178.2010  145.4230 O   0  0  0  0  0  1  0  0  0  0  0  0
  189.3970  178.4530  144.2180 C   0  0  0  0  0  0  0  0  0  0  0  0
  187.4100  177.0340  143.6080 C   0  0  0  0  0  2  0  0  0  0  0  0
  185.7390  178.0710  145.0270 C   0  0  0  0  0  3  0  0  0  0  0  0
  183.3480  178.8650  143.2770 C   0  0  0  0  0  0  0  0  0  0  0  0
  182.0160  178.7260  142.6330 C   0  0  0  0  0  1  0  0  0  0  0  0
  185.7720  178.7220  142.6330 C   0  0  0  0  0  3  0  0  0  0  0  0
  183.4140  178.8000  144.6070 C   0  0  0  0  0  3  0  0  0  0  0  0
  184.6650  179.0450  145.3830 C   0  0  0  0  0  2  0  0  0  0  0  0
  186.2490  177.9490  143.8000 C   0  0  0  0  0  0  0  0  0  0  0  0
  184.5130  179.1190  142.4060 C   0  0  0  0  0  3  0  0  0  0  0  0
  1 17  1  0  0  0  0
  1 23  1  0  0  0  0
  2  9  1  0  0  0  0
  3 12  2  0  0  0  0
  4  7  1  0  0  0  0
  4  3  1  0  0  0  0
  5  8  1  0  0  0  0
  5  7  2  0  0  0  0
  6 10  1  0  0  0  0
  6  2  1  1  0  0  0
  7  6  1  0  0  0  0
  9  1  1  0  0  0  0
 10  8  1  6  0  0  0
 10 11  1  0  0  0  0
 11  9  2  0  0  0  0
 14  3  1  1  0  0  0
 14 16  1  0  0  0  0
 14 15  1  0  0  0  0
 15 13  1  6  0  0  0
 16 13  1  6  0  0  0
 16 15  1  0  0  0  0
 17 18  1  0  0  0  0
 18 19  1  0  0  0  0
 19 20  1  0  0  0  0
 20 21  1  0  0  0  0
 20 22  1  0  0  0  0
 23 27  1  1  0  0  0
 23 26  1  0  0  0  0
 24 26  2  0  0  0  0
 26 25  1  0  0  0  0
 27 34  1  0  0  0  0
 28 33  1  0  0  0  0
 29 32  2  0  0  0  0
 30 29  1  0  0  0  0
 31 34  1  0  0  0  0
 32 33  1  0  0  0  0
 34 28  2  0  0  0  0
 35 31  2  0  0  0  0
 35 29  1  0  0  0  0
M  END
>  <MODEL>
1

>  <REMARK>
 VINA RESULT:      -8.3      0.000      0.000
  Name = 
  10 active torsions:
  status: ('A' for Active; 'I' for Inactive)
    1  A    between atoms: C_2  and  O_19
    2  A    between atoms: C_7  and  C_17
    3  A    between atoms: C_7  and  N_29
    4  A    between atoms: C_8  and  C_15
    5  A    between atoms: C_11  and  C_18
    6  A    between atoms: C_11  and  C_22
    7  A    between atoms: C_11  and  N_29
    8  A    between atoms: C_17  and  O_19
    9  A    between atoms: C_18  and  C_33
   10  A    between atoms: C_26  and  N_29
                            x       y       z     vdW  Elec       q    Type
                         _______ _______ _______ _____ _____    ______ ____

>  <TORSDO>
F 10

$$$$
=
 OpenBabel11042410313D

 35 39  0  0  1  0  0  0  0  0999 V2000
  189.3500  177.4200  141.2500 N   0  0  0  0  0  0  0  0  0  0  0  0
  187.6110  178.3380  139.7950 C   0  0  0  0  0  2  0  0  0  0  0  0
  184.3030  178.7180  139.0920 C   0  0  0  0  0  0  0  0  0  0  0  0
  184.8490  177.6610  138.2940 N   0  0  0  0  0  2  0  0  0  0  0  0
  186.5630  176.7010  136.9580 N   0  0  0  0  0  0  0  0  0  0  0  0
  187.3280  178.4350  138.3300 C   0  0  2  0  0  3  0  0  0  0  0  0
  186.2080  177.5700  137.8500 C   0  0  0  0  0  0  0  0  0  0  0  0
  187.9890  176.7920  136.6740 C   0  0  0  0  0  2  0  0  0  0  0  0
  188.7700  177.7160  139.9680 C   0  0  0  0  0  0  0  0  0  0  0  0
  188.4680  177.6820  137.7570 C   0  0  2  0  0  3  0  0  0  0  0  0
  189.2860  177.2300  138.6950 C   0  0  0  0  0  3  0  0  0  0  0  0
  184.9450  179.7880  139.2740 O   0  0  0  0  0  0  0  0  0  0  0  0
  181.3890  176.6850  139.9940 C   0  0  0  0  0  2  0  0  0  0  0  0
  182.9280  178.5760  139.6570 C   0  0  1  0  0  3  0  0  0  0  0  0
  182.1910  177.4460  138.9580 C   0  0  1  0  0  3  0  0  0  0  0  0
  182.7660  177.2220  140.3290 C   0  0  2  0  0  3  0  0  0  0  0  0
  190.4760  176.4930  141.3680 C   0  0  0  0  0  2  0  0  0  0  0  0
  191.7900  177.2550  141.3230 C   0  0  0  0  0  2  0  0  0  0  0  0
  192.0570  177.6440  140.0100 O   0  0  0  0  0  0  0  0  0  0  0  0
  193.0700  176.7840  139.5860 C   0  0  0  0  0  3  0  0  0  0  0  0
  194.2620  177.1190  140.2270 O   0  0  0  0  0  1  0  0  0  0  0  0
  193.2370  176.9030  138.2070 O   0  0  0  0  0  1  0  0  0  0  0  0
  188.7260  177.9650  142.4550 C   0  0  2  0  0  3  0  0  0  0  0  0
  189.8590  177.1320  144.5170 O   0  0  0  0  0  1  0  0  0  0  0  0
  190.4310  179.1700  143.6400 O   0  0  0  0  0  0  0  0  0  0  0  0
  189.7270  178.1280  143.5580 C   0  0  0  0  0  0  0  0  0  0  0  0
  187.5190  177.1300  142.8780 C   0  0  0  0  0  2  0  0  0  0  0  0
  186.4110  177.9320  144.8800 C   0  0  0  0  0  3  0  0  0  0  0  0
  183.5840  178.8470  144.1160 C   0  0  0  0  0  0  0  0  0  0  0  0
  182.1140  178.7410  143.9290 C   0  0  0  0  0  1  0  0  0  0  0  0
  185.6640  178.8650  142.7060 C   0  0  0  0  0  3  0  0  0  0  0  0
  184.0810  178.6260  145.3340 C   0  0  0  0  0  3  0  0  0  0  0  0
  185.5190  178.8190  145.6840 C   0  0  0  0  0  2  0  0  0  0  0  0
  186.4900  177.9750  143.5490 C   0  0  0  0  0  0  0  0  0  0  0  0
  184.4020  179.2430  142.9520 C   0  0  0  0  0  3  0  0  0  0  0  0
  1 17  1  0  0  0  0
  1 23  1  0  0  0  0
  2  9  1  0  0  0  0
  3 12  2  0  0  0  0
  4  3  1  0  0  0  0
  5  7  2  0  0  0  0
  6  2  1  1  0  0  0
  7  4  1  0  0  0  0
  7  6  1  0  0  0  0
  8  5  1  0  0  0  0
  9  1  1  0  0  0  0
 10  8  1  1  0  0  0
 10  6  1  0  0  0  0
 10 11  1  0  0  0  0
 11  9  2  0  0  0  0
 14  3  1  6  0  0  0
 14 16  1  0  0  0  0
 15 14  1  0  0  0  0
 15 13  1  1  0  0  0
 15 16  1  0  0  0  0
 16 13  1  1  0  0  0
 18 17  1  0  0  0  0
 19 18  1  0  0  0  0
 20 19  1  0  0  0  0
 20 21  1  0  0  0  0
 22 20  1  0  0  0  0
 23 27  1  1  0  0  0
 23 26  1  0  0  0  0
 26 25  2  0  0  0  0
 26 24  1  0  0  0  0
 27 34  1  0  0  0  0
 28 33  1  0  0  0  0
 29 32  2  0  0  0  0
 30 29  1  0  0  0  0
 31 35  2  0  0  0  0
 31 34  1  0  0  0  0
 32 33  1  0  0  0  0
 34 28  2  0  0  0  0
 35 29  1  0  0  0  0
M  END
>  <MODEL>
2

>  <REMARK>
 VINA RESULT:      -8.1      1.957      2.787
  Name = 
  10 active torsions:
  status: ('A' for Active; 'I' for Inactive)
    1  A    between atoms: C_2  and  O_19
    2  A    between atoms: C_7  and  C_17
    3  A    between atoms: C_7  and  N_29
    4  A    between atoms: C_8  and  C_15
    5  A    between atoms: C_11  and  C_18
    6  A    between atoms: C_11  and  C_22
    7  A    between atoms: C_11  and  N_29
    8  A    between atoms: C_17  and  O_19
    9  A    between atoms: C_18  and  C_33
   10  A    between atoms: C_26  and  N_29
                            x       y       z     vdW  Elec       q    Type
                         _______ _______ _______ _____ _____    ______ ____

>  <TORSDO>
F 10

$$$$
=
 OpenBabel11042410313D

 35 39  0  0  1  0  0  0  0  0999 V2000
  186.8580  177.8420  138.0790 N   0  0  0  0  0  0  0  0  0  0  0  0
  185.5870  178.7440  139.9650 C   0  0  0  0  0  2  0  0  0  0  0  0
  184.7900  178.6080  143.2700 C   0  0  0  0  0  0  0  0  0  0  0  0
  183.7770  177.9500  142.5000 N   0  0  0  0  0  2  0  0  0  0  0  0
  182.3520  177.7740  140.6070 N   0  0  0  0  0  0  0  0  0  0  0  0
  184.1870  179.1810  140.2500 C   0  0  2  0  0  3  0  0  0  0  0  0
  183.4170  178.2690  141.1510 C   0  0  0  0  0  0  0  0  0  0  0  0
  182.2000  178.2340  139.2330 C   0  0  0  0  0  2  0  0  0  0  0  0
  185.6660  178.3530  138.6990 C   0  0  0  0  0  0  0  0  0  0  0  0
  183.5120  178.8700  138.9680 C   0  0  2  0  0  3  0  0  0  0  0  0
  184.3470  178.3560  138.0790 C   0  0  0  0  0  3  0  0  0  0  0  0
  185.2940  179.6960  142.8790 O   0  0  0  0  0  0  0  0  0  0  0  0
  185.4450  178.9380  146.8620 C   0  0  0  0  0  2  0  0  0  0  0  0
  185.2020  178.0330  144.5860 C   0  0  1  0  0  3  0  0  0  0  0  0
  185.8960  179.0940  145.4230 C   0  0  1  0  0  3  0  0  0  0  0  0
  184.4690  178.7280  145.7220 C   0  0  2  0  0  3  0  0  0  0  0  0
  186.7790  176.9630  136.9120 C   0  0  0  0  0  2  0  0  0  0  0  0
  186.7110  175.5110  137.3520 C   0  0  0  0  0  2  0  0  0  0  0  0
  185.4690  174.9780  137.0080 O   0  0  0  0  0  0  0  0  0  0  0  0
  185.6780  173.6000  136.9540 C   0  0  0  0  0  3  0  0  0  0  0  0
  184.9450  172.9790  137.9650 O   0  0  0  0  0  1  0  0  0  0  0  0
  187.0330  173.3260  137.1300 O   0  0  0  0  0  1  0  0  0  0  0  0
  188.1540  178.1130  138.6990 C   0  0  2  0  0  3  0  0  0  0  0  0
  190.1670  177.7500  137.2700 O   0  0  0  0  0  1  0  0  0  0  0  0
  189.0880  179.7710  137.2330 O   0  0  0  0  0  0  0  0  0  0  0  0
  189.1490  178.5970  137.6880 C   0  0  0  0  0  0  0  0  0  0  0  0
  188.6560  176.9010  139.4820 C   0  0  0  0  0  2  0  0  0  0  0  0
  190.5660  176.9410  140.9770 C   0  0  0  0  0  3  0  0  0  0  0  0
  189.5440  177.3830  143.8350 C   0  0  0  0  0  0  0  0  0  0  0  0
  189.0940  177.0120  145.2010 C   0  0  0  0  0  1  0  0  0  0  0  0
  188.5380  178.1870  141.6770 C   0  0  0  0  0  3  0  0  0  0  0  0
  190.7550  176.9870  143.4420 C   0  0  0  0  0  3  0  0  0  0  0  0
  191.3750  177.3950  142.1470 C   0  0  0  0  0  2  0  0  0  0  0  0
  189.3060  177.3190  140.7580 C   0  0  0  0  0  0  0  0  0  0  0  0
  188.6420  178.2140  143.0120 C   0  0  0  0  0  3  0  0  0  0  0  0
  1  9  1  0  0  0  0
  1 23  1  0  0  0  0
  4  3  1  0  0  0  0
  5  7  2  0  0  0  0
  6  2  1  6  0  0  0
  6  7  1  0  0  0  0
  7  4  1  0  0  0  0
  8  5  1  0  0  0  0
  9  2  1  0  0  0  0
 10 11  1  6  0  0  0
 10  8  1  0  0  0  0
 10  6  1  0  0  0  0
 11  9  2  0  0  0  0
 12  3  2  0  0  0  0
 14  3  1  6  0  0  0
 14 15  1  0  0  0  0
 14 16  1  0  0  0  0
 15 16  1  0  0  0  0
 15 13  1  1  0  0  0
 16 13  1  1  0  0  0
 17 18  1  0  0  0  0
 17  1  1  0  0  0  0
 19 18  1  0  0  0  0
 20 19  1  0  0  0  0
 20 22  1  0  0  0  0
 20 21  1  0  0  0  0
 23 27  1  6  0  0  0
 24 26  1  0  0  0  0
 25 26  2  0  0  0  0
 26 23  1  0  0  0  0
 27 34  1  0  0  0  0
 28 33  1  0  0  0  0
 29 30  1  0  0  0  0
 31 35  2  0  0  0  0
 32 29  2  0  0  0  0
 33 32  1  0  0  0  0
 34 28  2  0  0  0  0
 34 31  1  0  0  0  0
 35 29  1  0  0  0  0
M  END
>  <MODEL>
3

>  <REMARK>
 VINA RESULT:      -7.8      3.169      7.044
  Name = 
  10 active torsions:
  status: ('A' for Active; 'I' for Inactive)
    1  A    between atoms: C_2  and  O_19
    2  A    between atoms: C_7  and  C_17
    3  A    between atoms: C_7  and  N_29
    4  A    between atoms: C_8  and  C_15
    5  A    between atoms: C_11  and  C_18
    6  A    between atoms: C_11  and  C_22
    7  A    between atoms: C_11  and  N_29
    8  A    between atoms: C_17  and  O_19
    9  A    between atoms: C_18  and  C_33
   10  A    between atoms: C_26  and  N_29
                            x       y       z     vdW  Elec       q    Type
                         _______ _______ _______ _____ _____    ______ ____

>  <TORSDO>
F 10

$$$$
=
 OpenBabel11042410313D

 35 39  0  0  1  0  0  0  0  0999 V2000
  189.3390  177.9570  143.5300 N   0  0  0  0  0  0  0  0  0  0  0  0
  187.0320  177.7440  144.3170 C   0  0  0  0  0  2  0  0  0  0  0  0
  183.8030  178.8050  144.1900 C   0  0  0  0  0  0  0  0  0  0  0  0
  184.4610  179.3950  145.3170 N   0  0  0  0  0  2  0  0  0  0  0  0
  185.9360  179.3070  147.1770 N   0  0  0  0  0  0  0  0  0  0  0  0
  186.3150  177.6020  145.6210 C   0  0  2  0  0  3  0  0  0  0  0  0
  185.5450  178.8100  146.0470 C   0  0  0  0  0  0  0  0  0  0  0  0
  187.0530  178.5500  147.7270 C   0  0  0  0  0  2  0  0  0  0  0  0
  188.3380  177.7950  144.5490 C   0  0  0  0  0  0  0  0  0  0  0  0
  187.4350  177.6830  146.5870 C   0  0  2  0  0  3  0  0  0  0  0  0
  188.6030  177.8330  145.9820 C   0  0  0  0  0  3  0  0  0  0  0  0
  183.9860  177.5930  143.8950 O   0  0  0  0  0  0  0  0  0  0  0  0
  180.5290  179.2670  142.6040 C   0  0  0  0  0  2  0  0  0  0  0  0
  182.8320  179.6200  143.3970 C   0  0  1  0  0  3  0  0  0  0  0  0
  181.9380  178.7090  142.5730 C   0  0  1  0  0  3  0  0  0  0  0  0
  181.4080  179.3260  143.8370 C   0  0  2  0  0  3  0  0  0  0  0  0
  190.5980  178.6460  143.8170 C   0  0  0  0  0  2  0  0  0  0  0  0
  191.6470  177.6500  144.2820 C   0  0  0  0  0  2  0  0  0  0  0  0
  191.8520  177.7960  145.6540 O   0  0  0  0  0  0  0  0  0  0  0  0
  191.6500  176.5200  146.1790 C   0  0  0  0  0  3  0  0  0  0  0  0
  192.4300  176.3600  147.3230 O   0  0  0  0  0  1  0  0  0  0  0  0
  192.0130  175.5630  145.2340 O   0  0  0  0  0  1  0  0  0  0  0  0
  189.0390  177.5290  142.1640 C   0  0  2  0  0  3  0  0  0  0  0  0
  190.9100  177.2530  140.5380 O   0  0  0  0  0  0  0  0  0  0  0  0
  190.4270  175.5760  142.0220 O   0  0  0  0  0  1  0  0  0  0  0  0
  190.1650  176.7290  141.5860 C   0  0  0  0  0  0  0  0  0  0  0  0
  188.6520  178.7180  141.2860 C   0  0  0  0  0  2  0  0  0  0  0  0
  187.6090  178.2140  139.1550 C   0  0  0  0  0  3  0  0  0  0  0  0
  184.6660  179.0680  139.2980 C   0  0  0  0  0  0  0  0  0  0  0  0
  183.4860  179.9540  139.1180 C   0  0  0  0  0  1  0  0  0  0  0  0
  186.1490  178.2670  141.1610 C   0  0  0  0  0  3  0  0  0  0  0  0
  185.3830  178.7480  138.2200 C   0  0  0  0  0  3  0  0  0  0  0  0
  186.5130  177.7730  138.2420 C   0  0  0  0  0  2  0  0  0  0  0  0
  187.4460  178.4090  140.4650 C   0  0  0  0  0  0  0  0  0  0  0  0
  184.9430  178.5530  140.6540 C   0  0  0  0  0  3  0  0  0  0  0  0
  1 17  1  0  0  0  0
  1  9  1  0  0  0  0
  2  9  1  0  0  0  0
  3  4  1  0  0  0  0
  4  7  1  0  0  0  0
  5  8  1  0  0  0  0
  6  2  1  6  0  0  0
  6  7  1  0  0  0  0
  6 10  1  0  0  0  0
  7  5  2  0  0  0  0
  9 11  2  0  0  0  0
 10 11  1  6  0  0  0
 10  8  1  0  0  0  0
 12  3  2  0  0  0  0
 14 16  1  0  0  0  0
 14  3  1  1  0  0  0
 15 13  1  6  0  0  0
 15 14  1  0  0  0  0
 15 16  1  0  0  0  0
 16 13  1  6  0  0  0
 17 18  1  0  0  0  0
 18 19  1  0  0  0  0
 19 20  1  0  0  0  0
 20 21  1  0  0  0  0
 22 20  1  0  0  0  0
 23 27  1  6  0  0  0
 23  1  1  0  0  0  0
 24 26  2  0  0  0  0
 26 25  1  0  0  0  0
 26 23  1  0  0  0  0
 28 34  2  0  0  0  0
 29 35  1  0  0  0  0
 30 29  1  0  0  0  0
 32 33  1  0  0  0  0
 32 29  2  0  0  0  0
 33 28  1  0  0  0  0
 34 31  1  0  0  0  0
 34 27  1  0  0  0  0
 35 31  2  0  0  0  0
M  END
>  <MODEL>
4

>  <REMARK>
 VINA RESULT:      -7.7      2.413      5.514
  Name = 
  10 active torsions:
  status: ('A' for Active; 'I' for Inactive)
    1  A    between atoms: C_2  and  O_19
    2  A    between atoms: C_7  and  C_17
    3  A    between atoms: C_7  and  N_29
    4  A    between atoms: C_8  and  C_15
    5  A    between atoms: C_11  and  C_18
    6  A    between atoms: C_11  and  C_22
    7  A    between atoms: C_11  and  N_29
    8  A    between atoms: C_17  and  O_19
    9  A    between atoms: C_18  and  C_33
   10  A    between atoms: C_26  and  N_29
                            x       y       z     vdW  Elec       q    Type
                         _______ _______ _______ _____ _____    ______ ____

>  <TORSDO>
F 10

$$$$
=
 OpenBabel11042410313D

 35 39  0  0  1  0  0  0  0  0999 V2000
  189.8860  177.3590  140.3750 N   0  0  0  0  0  0  0  0  0  0  0  0
  189.7450  176.0630  138.3040 C   0  0  0  0  0  2  0  0  0  0  0  0
  188.6610  173.2760  136.6810 C   0  0  0  0  0  0  0  0  0  0  0  0
  190.0340  173.1150  137.0550 N   0  0  0  0  0  2  0  0  0  0  0  0
  192.2520  173.9230  137.3250 N   0  0  0  0  0  0  0  0  0  0  0  0
  190.6580  175.6310  137.2020 C   0  0  2  0  0  3  0  0  0  0  0  0
  190.9880  174.1740  137.1970 C   0  0  0  0  0  0  0  0  0  0  0  0
  193.0210  175.1540  137.4600 C   0  0  0  0  0  2  0  0  0  0  0  0
  190.4340  176.7950  139.1710 C   0  0  0  0  0  0  0  0  0  0  0  0
  191.9590  176.1660  137.6690 C   0  0  2  0  0  3  0  0  0  0  0  0
  191.8490  176.8050  138.8220 C   0  0  0  0  0  3  0  0  0  0  0  0
  188.2420  174.3710  136.2170 O   0  0  0  0  0  0  0  0  0  0  0  0
  186.2750  170.9290  135.1840 C   0  0  0  0  0  2  0  0  0  0  0  0
  187.7320  172.1100  136.7780 C   0  0  1  0  0  3  0  0  0  0  0  0
  186.5790  172.2800  135.8030 C   0  0  1  0  0  3  0  0  0  0  0  0
  187.7050  171.3410  135.4680 C   0  0  2  0  0  3  0  0  0  0  0  0
  190.6420  177.3340  141.6270 C   0  0  0  0  0  2  0  0  0  0  0  0
  190.3980  176.0260  142.3610 C   0  0  0  0  0  2  0  0  0  0  0  0
  190.3170  176.2700  143.7320 O   0  0  0  0  0  0  0  0  0  0  0  0
  191.6420  176.3010  144.1660 C   0  0  0  0  0  3  0  0  0  0  0  0
  192.1430  175.0010  144.2200 O   0  0  0  0  0  1  0  0  0  0  0  0
  191.7060  176.8750  145.4350 O   0  0  0  0  0  1  0  0  0  0  0  0
  188.5100  177.8560  140.3650 C   0  0  2  0  0  3  0  0  0  0  0  0
  189.0570  179.3930  138.4780 O   0  0  0  0  0  1  0  0  0  0  0  0
  187.0800  178.2350  138.4750 O   0  0  0  0  0  0  0  0  0  0  0  0
  188.1710  178.4910  139.0510 C   0  0  0  0  0  0  0  0  0  0  0  0
  188.2510  178.7840  141.5500 C   0  0  0  0  0  2  0  0  0  0  0  0
  185.8450  178.7410  141.8560 C   0  0  0  0  0  3  0  0  0  0  0  0
  185.2610  178.2690  144.8300 C   0  0  0  0  0  0  0  0  0  0  0  0
  184.9480  178.6260  146.2380 C   0  0  0  0  0  1  0  0  0  0  0  0
  187.2290  177.4790  143.4830 C   0  0  0  0  0  3  0  0  0  0  0  0
  184.4220  178.6740  143.8770 C   0  0  0  0  0  3  0  0  0  0  0  0
  184.5520  178.2810  142.4430 C   0  0  0  0  0  2  0  0  0  0  0  0
  187.0400  178.3590  142.3100 C   0  0  0  0  0  0  0  0  0  0  0  0
  186.4570  177.4410  144.5770 C   0  0  0  0  0  3  0  0  0  0  0  0
  1 17  1  0  0  0  0
  2  9  1  0  0  0  0
  3  4  1  0  0  0  0
  4  7  1  0  0  0  0
  5  8  1  0  0  0  0
  6 10  1  0  0  0  0
  6  2  1  1  0  0  0
  7  6  1  0  0  0  0
  7  5  2  0  0  0  0
  9  1  1  0  0  0  0
 10  8  1  1  0  0  0
 10 11  1  0  0  0  0
 11  9  2  0  0  0  0
 12  3  2  0  0  0  0
 14  3  1  6  0  0  0
 15 13  1  1  0  0  0
 15 14  1  0  0  0  0
 16 13  1  1  0  0  0
 16 15  1  0  0  0  0
 16 14  1  0  0  0  0
 17 18  1  0  0  0  0
 18 19  1  0  0  0  0
 19 20  1  0  0  0  0
 20 21  1  0  0  0  0
 20 22  1  0  0  0  0
 23  1  1  0  0  0  0
 23 27  1  1  0  0  0
 24 26  1  0  0  0  0
 25 26  2  0  0  0  0
 26 23  1  0  0  0  0
 27 34  1  0  0  0  0
 28 34  2  0  0  0  0
 28 33  1  0  0  0  0
 29 30  1  0  0  0  0
 31 35  2  0  0  0  0
 32 29  2  0  0  0  0
 33 32  1  0  0  0  0
 34 31  1  0  0  0  0
 35 29  1  0  0  0  0
M  END
>  <MODEL>
5

>  <REMARK>
 VINA RESULT:      -7.6      2.627      4.172
  Name = 
  10 active torsions:
  status: ('A' for Active; 'I' for Inactive)
    1  A    between atoms: C_2  and  O_19
    2  A    between atoms: C_7  and  C_17
    3  A    between atoms: C_7  and  N_29
    4  A    between atoms: C_8  and  C_15
    5  A    between atoms: C_11  and  C_18
    6  A    between atoms: C_11  and  C_22
    7  A    between atoms: C_11  and  N_29
    8  A    between atoms: C_17  and  O_19
    9  A    between atoms: C_18  and  C_33
   10  A    between atoms: C_26  and  N_29
                            x       y       z     vdW  Elec       q    Type
                         _______ _______ _______ _____ _____    ______ ____

>  <TORSDO>
F 10

$$$$
=
 OpenBabel11042410313D

 35 39  0  0  1  0  0  0  0  0999 V2000
  186.9140  178.3650  139.4000 N   0  0  0  0  0  0  0  0  0  0  0  0
  185.8840  176.9470  137.6930 C   0  0  0  0  0  2  0  0  0  0  0  0
  185.1280  173.8260  136.5690 C   0  0  0  0  0  0  0  0  0  0  0  0
  186.3020  174.3080  135.9050 N   0  0  0  0  0  2  0  0  0  0  0  0
  187.5720  176.0140  134.8460 N   0  0  0  0  0  0  0  0  0  0  0  0
  185.8580  176.8500  136.2020 C   0  0  2  0  0  3  0  0  0  0  0  0
  186.6010  175.6830  135.6360 C   0  0  0  0  0  0  0  0  0  0  0  0
  187.6880  177.4630  134.7340 C   0  0  0  0  0  2  0  0  0  0  0  0
  186.6380  177.9820  138.0420 C   0  0  0  0  0  0  0  0  0  0  0  0
  186.7920  177.9340  135.8170 C   0  0  2  0  0  3  0  0  0  0  0  0
  187.2780  178.5680  136.8710 C   0  0  0  0  0  3  0  0  0  0  0  0
  184.1400  174.5840  136.7670 O   0  0  0  0  0  0  0  0  0  0  0  0
  183.5530  170.5200  136.3910 C   0  0  0  0  0  2  0  0  0  0  0  0
  185.0480  172.3890  136.9670 C   0  0  1  0  0  3  0  0  0  0  0  0
  183.6010  171.9250  136.9590 C   0  0  1  0  0  3  0  0  0  0  0  0
  184.5100  171.5480  135.8210 C   0  0  2  0  0  3  0  0  0  0  0  0
  188.2900  178.5020  139.8770 C   0  0  0  0  0  2  0  0  0  0  0  0
  188.9820  177.1490  139.8780 C   0  0  0  0  0  2  0  0  0  0  0  0
  190.1360  177.2160  139.0990 O   0  0  0  0  0  0  0  0  0  0  0  0
  189.9630  176.2340  138.1230 C   0  0  0  0  0  3  0  0  0  0  0  0
  190.7570  175.1300  138.4290 O   0  0  0  0  0  1  0  0  0  0  0  0
  190.3340  176.7420  136.8790 O   0  0  0  0  0  1  0  0  0  0  0  0
  185.8010  178.5050  140.3390 C   0  0  2  0  0  3  0  0  0  0  0  0
  184.5590  180.2490  139.0590 O   0  0  0  0  0  0  0  0  0  0  0  0
  183.5220  178.2850  139.6190 O   0  0  0  0  0  1  0  0  0  0  0  0
  184.5640  178.9920  139.6490 C   0  0  0  0  0  0  0  0  0  0  0  0
  186.1910  179.3780  141.5310 C   0  0  0  0  0  2  0  0  0  0  0  0
  184.5860  179.2360  143.3440 C   0  0  0  0  0  3  0  0  0  0  0  0
  186.0170  178.1040  145.8100 C   0  0  0  0  0  0  0  0  0  0  0  0
  186.7480  178.1340  147.1030 C   0  0  0  0  0  1  0  0  0  0  0  0
  186.5030  177.6610  143.3850 C   0  0  0  0  0  3  0  0  0  0  0  0
  184.8260  178.7010  145.7460 C   0  0  0  0  0  3  0  0  0  0  0  0
  183.9370  178.6390  144.5490 C   0  0  0  0  0  2  0  0  0  0  0  0
  185.7210  178.7780  142.8120 C   0  0  0  0  0  0  0  0  0  0  0  0
  186.6320  177.3700  144.6860 C   0  0  0  0  0  3  0  0  0  0  0  0
  1 17  1  0  0  0  0
  1 23  1  0  0  0  0
  2  9  1  0  0  0  0
  3 12  2  0  0  0  0
  4  3  1  0  0  0  0
  5  7  2  0  0  0  0
  6  2  1  1  0  0  0
  7  4  1  0  0  0  0
  7  6  1  0  0  0  0
  8  5  1  0  0  0  0
  9  1  1  0  0  0  0
 10  8  1  1  0  0  0
 10  6  1  0  0  0  0
 10 11  1  0  0  0  0
 11  9  2  0  0  0  0
 14  3  1  6  0  0  0
 15 13  1  1  0  0  0
 15 14  1  0  0  0  0
 16 13  1  1  0  0  0
 16 15  1  0  0  0  0
 16 14  1  0  0  0  0
 17 18  1  0  0  0  0
 19 18  1  0  0  0  0
 20 21  1  0  0  0  0
 20 19  1  0  0  0  0
 22 20  1  0  0  0  0
 23 27  1  1  0  0  0
 24 26  2  0  0  0  0
 25 26  1  0  0  0  0
 26 23  1  0  0  0  0
 27 34  1  0  0  0  0
 28 33  1  0  0  0  0
 29 30  1  0  0  0  0
 31 35  2  0  0  0  0
 32 29  2  0  0  0  0
 33 32  1  0  0  0  0
 34 28  2  0  0  0  0
 34 31  1  0  0  0  0
 35 29  1  0  0  0  0
M  END
>  <MODEL>
6

>  <REMARK>
 VINA RESULT:      -7.6      3.236      5.237
  Name = 
  10 active torsions:
  status: ('A' for Active; 'I' for Inactive)
    1  A    between atoms: C_2  and  O_19
    2  A    between atoms: C_7  and  C_17
    3  A    between atoms: C_7  and  N_29
    4  A    between atoms: C_8  and  C_15
    5  A    between atoms: C_11  and  C_18
    6  A    between atoms: C_11  and  C_22
    7  A    between atoms: C_11  and  N_29
    8  A    between atoms: C_17  and  O_19
    9  A    between atoms: C_18  and  C_33
   10  A    between atoms: C_26  and  N_29
                            x       y       z     vdW  Elec       q    Type
                         _______ _______ _______ _____ _____    ______ ____

>  <TORSDO>
F 10

$$$$
=
 OpenBabel11042410313D

 35 39  0  0  1  0  0  0  0  0999 V2000
  189.5220  177.9350  141.3460 N   0  0  0  0  0  0  0  0  0  0  0  0
  189.2130  177.7770  138.9240 C   0  0  0  0  0  2  0  0  0  0  0  0
  187.1730  177.1000  136.2870 C   0  0  0  0  0  0  0  0  0  0  0  0
  187.9920  175.9600  136.5700 N   0  0  0  0  0  2  0  0  0  0  0  0
  190.0560  174.9460  137.1650 N   0  0  0  0  0  0  0  0  0  0  0  0
  189.9400  177.2090  137.7490 C   0  0  2  0  0  3  0  0  0  0  0  0
  189.3040  176.0000  137.1430 C   0  0  0  0  0  0  0  0  0  0  0  0
  191.3360  175.2270  137.8020 C   0  0  0  0  0  2  0  0  0  0  0  0
  189.9250  177.5510  140.0210 C   0  0  0  0  0  0  0  0  0  0  0  0
  191.1010  176.5610  138.4030 C   0  0  2  0  0  3  0  0  0  0  0  0
  191.0830  176.7190  139.7170 C   0  0  0  0  0  3  0  0  0  0  0  0
  187.6540  178.2650  136.3140 O   0  0  0  0  0  0  0  0  0  0  0  0
  183.7420  176.0400  137.0260 C   0  0  0  0  0  2  0  0  0  0  0  0
  185.7470  176.8990  135.8870 C   0  0  1  0  0  3  0  0  0  0  0  0
  185.1640  175.7040  136.6220 C   0  0  1  0  0  3  0  0  0  0  0  0
  184.8280  177.0960  137.0810 C   0  0  2  0  0  3  0  0  0  0  0  0
  188.4600  178.9210  141.5520 C   0  0  0  0  0  2  0  0  0  0  0  0
  187.1290  178.3660  141.0760 C   0  0  0  0  0  2  0  0  0  0  0  0
  186.1650  179.3740  141.1110 O   0  0  0  0  0  0  0  0  0  0  0  0
  185.0640  178.8340  140.4450 C   0  0  0  0  0  3  0  0  0  0  0  0
  184.5880  179.7550  139.5120 O   0  0  0  0  0  1  0  0  0  0  0  0
  184.0580  178.5440  141.3650 O   0  0  0  0  0  1  0  0  0  0  0  0
  190.2660  177.4170  142.4940 C   0  0  2  0  0  3  0  0  0  0  0  0
  190.7520  175.0800  143.2180 O   0  0  0  0  0  1  0  0  0  0  0  0
  188.5920  175.7260  142.8130 O   0  0  0  0  0  0  0  0  0  0  0  0
  189.8120  176.0360  142.8570 C   0  0  0  0  0  0  0  0  0  0  0  0
  190.2020  178.3850  143.6750 C   0  0  0  0  0  2  0  0  0  0  0  0
  188.0150  177.9470  144.6270 C   0  0  0  0  0  3  0  0  0  0  0  0
  188.3140  177.7490  147.6740 C   0  0  0  0  0  0  0  0  0  0  0  0
  188.3010  178.2150  149.0840 C   0  0  0  0  0  1  0  0  0  0  0  0
  189.9960  177.1660  145.9010 C   0  0  0  0  0  3  0  0  0  0  0  0
  187.1950  177.8760  146.9590 C   0  0  0  0  0  3  0  0  0  0  0  0
  187.0360  177.3380  145.5760 C   0  0  0  0  0  2  0  0  0  0  0  0
  189.3380  177.8450  144.7640 C   0  0  0  0  0  0  0  0  0  0  0  0
  189.5510  177.1250  147.1640 C   0  0  0  0  0  3  0  0  0  0  0  0
  1 17  1  0  0  0  0
  1 23  1  0  0  0  0
  2  9  1  0  0  0  0
  3 12  2  0  0  0  0
  3  4  1  0  0  0  0
  4  7  1  0  0  0  0
  5  8  1  0  0  0  0
  6 10  1  0  0  0  0
  6  2  1  1  0  0  0
  7  5  2  0  0  0  0
  7  6  1  0  0  0  0
  9  1  1  0  0  0  0
 10  8  1  1  0  0  0
 10 11  1  0  0  0  0
 11  9  2  0  0  0  0
 14  3  1  1  0  0  0
 14 15  1  0  0  0  0
 14 16  1  0  0  0  0
 15 13  1  6  0  0  0
 15 16  1  0  0  0  0
 16 13  1  6  0  0  0
 18 19  1  0  0  0  0
 18 17  1  0  0  0  0
 20 19  1  0  0  0  0
 20 22  1  0  0  0  0
 21 20  1  0  0  0  0
 23 26  1  0  0  0  0
 23 27  1  1  0  0  0
 25 26  2  0  0  0  0
 26 24  1  0  0  0  0
 27 34  1  0  0  0  0
 28 34  2  0  0  0  0
 28 33  1  0  0  0  0
 29 30  1  0  0  0  0
 31 35  2  0  0  0  0
 32 29  2  0  0  0  0
 33 32  1  0  0  0  0
 34 31  1  0  0  0  0
 35 29  1  0  0  0  0
M  END
>  <MODEL>
7

>  <REMARK>
 VINA RESULT:      -7.3      2.266      4.656
  Name = 
  10 active torsions:
  status: ('A' for Active; 'I' for Inactive)
    1  A    between atoms: C_2  and  O_19
    2  A    between atoms: C_7  and  C_17
    3  A    between atoms: C_7  and  N_29
    4  A    between atoms: C_8  and  C_15
    5  A    between atoms: C_11  and  C_18
    6  A    between atoms: C_11  and  C_22
    7  A    between atoms: C_11  and  N_29
    8  A    between atoms: C_17  and  O_19
    9  A    between atoms: C_18  and  C_33
   10  A    between atoms: C_26  and  N_29
                            x       y       z     vdW  Elec       q    Type
                         _______ _______ _______ _____ _____    ______ ____

>  <TORSDO>
F 10

$$$$
=
 OpenBabel11042410313D

 35 39  0  0  1  0  0  0  0  0999 V2000
  188.6450  178.2060  140.5910 N   0  0  0  0  0  0  0  0  0  0  0  0
  187.5920  177.2130  138.6190 C   0  0  0  0  0  2  0  0  0  0  0  0
  186.4300  174.4420  137.0230 C   0  0  0  0  0  0  0  0  0  0  0  0
  187.7420  174.7600  136.5460 N   0  0  0  0  0  2  0  0  0  0  0  0
  189.4150  176.2970  135.8510 N   0  0  0  0  0  0  0  0  0  0  0  0
  187.7280  177.2900  137.1330 C   0  0  2  0  0  3  0  0  0  0  0  0
  188.3130  176.0730  136.4930 C   0  0  0  0  0  0  0  0  0  0  0  0
  189.8010  177.6990  135.9440 C   0  0  0  0  0  2  0  0  0  0  0  0
  188.4710  178.0380  139.1740 C   0  0  0  0  0  0  0  0  0  0  0  0
  188.8800  178.2100  136.9870 C   0  0  2  0  0  3  0  0  0  0  0  0
  189.3420  178.6170  138.1590 C   0  0  0  0  0  3  0  0  0  0  0  0
  185.5770  175.3490  137.2230 O   0  0  0  0  0  0  0  0  0  0  0  0
  183.9830  171.7160  136.8660 C   0  0  0  0  0  2  0  0  0  0  0  0
  186.0460  173.0110  137.2190 C   0  0  1  0  0  3  0  0  0  0  0  0
  184.5750  172.9120  137.5860 C   0  0  1  0  0  3  0  0  0  0  0  0
  185.0150  172.5920  136.1840 C   0  0  2  0  0  3  0  0  0  0  0  0
  187.7920  179.1230  141.3480 C   0  0  0  0  0  2  0  0  0  0  0  0
  186.4180  178.5100  141.5550 C   0  0  0  0  0  2  0  0  0  0  0  0
  185.4380  179.4750  141.3190 O   0  0  0  0  0  0  0  0  0  0  0  0
  184.6970  178.9720  140.2490 C   0  0  0  0  0  3  0  0  0  0  0  0
  184.9270  179.7530  139.1170 O   0  0  0  0  0  1  0  0  0  0  0  0
  183.3400  179.0040  140.5650 O   0  0  0  0  0  1  0  0  0  0  0  0
  189.7660  177.5400  141.2540 C   0  0  2  0  0  3  0  0  0  0  0  0
  191.9170  177.5060  139.9900 O   0  0  0  0  0  1  0  0  0  0  0  0
  190.3580  175.8640  139.6410 O   0  0  0  0  0  0  0  0  0  0  0  0
  190.6910  176.9110  140.2570 C   0  0  0  0  0  0  0  0  0  0  0  0
  189.2730  176.5470  142.3050 C   0  0  0  0  0  2  0  0  0  0  0  0
  190.8220  176.6650  144.1680 C   0  0  0  0  0  3  0  0  0  0  0  0
  189.2080  177.1200  146.7360 C   0  0  0  0  0  0  0  0  0  0  0  0
  188.4880  176.7570  147.9840 C   0  0  0  0  0  1  0  0  0  0  0  0
  188.6610  177.8610  144.3980 C   0  0  0  0  0  3  0  0  0  0  0  0
  190.4840  176.7540  146.6160 C   0  0  0  0  0  3  0  0  0  0  0  0
  191.3530  177.1600  145.4730 C   0  0  0  0  0  2  0  0  0  0  0  0
  189.6270  177.0030  143.6800 C   0  0  0  0  0  0  0  0  0  0  0  0
  188.4790  177.9120  145.7250 C   0  0  0  0  0  3  0  0  0  0  0  0
  1 23  1  0  0  0  0
  1 17  1  0  0  0  0
  2  9  1  0  0  0  0
  3 12  2  0  0  0  0
  4  3  1  0  0  0  0
  5  8  1  0  0  0  0
  5  7  2  0  0  0  0
  6  2  1  1  0  0  0
  7  4  1  0  0  0  0
  7  6  1  0  0  0  0
  9  1  1  0  0  0  0
 10  8  1  1  0  0  0
 10  6  1  0  0  0  0
 10 11  1  0  0  0  0
 11  9  2  0  0  0  0
 14  3  1  6  0  0  0
 14 15  1  0  0  0  0
 15 13  1  1  0  0  0
 16 13  1  1  0  0  0
 16 14  1  0  0  0  0
 16 15  1  0  0  0  0
 17 18  1  0  0  0  0
 19 18  1  0  0  0  0
 20 22  1  0  0  0  0
 20 19  1  0  0  0  0
 21 20  1  0  0  0  0
 23 27  1  1  0  0  0
 24 26  1  0  0  0  0
 25 26  2  0  0  0  0
 26 23  1  0  0  0  0
 27 34  1  0  0  0  0
 28 33  1  0  0  0  0
 29 30  1  0  0  0  0
 31 35  2  0  0  0  0
 32 29  2  0  0  0  0
 33 32  1  0  0  0  0
 34 28  2  0  0  0  0
 34 31  1  0  0  0  0
 35 29  1  0  0  0  0
M  END
>  <MODEL>
8

>  <REMARK>
 VINA RESULT:      -7.3      2.935      5.504
  Name = 
  10 active torsions:
  status: ('A' for Active; 'I' for Inactive)
    1  A    between atoms: C_2  and  O_19
    2  A    between atoms: C_7  and  C_17
    3  A    between atoms: C_7  and  N_29
    4  A    between atoms: C_8  and  C_15
    5  A    between atoms: C_11  and  C_18
    6  A    between atoms: C_11  and  C_22
    7  A    between atoms: C_11  and  N_29
    8  A    between atoms: C_17  and  O_19
    9  A    between atoms: C_18  and  C_33
   10  A    between atoms: C_26  and  N_29
                            x       y       z     vdW  Elec       q    Type
                         _______ _______ _______ _____ _____    ______ ____

>  <TORSDO>
F 10

$$$$
=
 OpenBabel11042410313D

 35 39  0  0  1  0  0  0  0  0999 V2000
  183.0790  177.9020  140.1670 N   0  0  0  0  0  0  0  0  0  0  0  0
  184.9480  178.4230  141.6570 C   0  0  0  0  0  2  0  0  0  0  0  0
  187.8070  177.4200  143.2040 C   0  0  0  0  0  0  0  0  0  0  0  0
  186.7040  177.3180  144.1130 N   0  0  0  0  0  2  0  0  0  0  0  0
  184.6860  178.1230  145.0730 N   0  0  0  0  0  0  0  0  0  0  0  0
  185.1560  179.0730  142.9870 C   0  0  2  0  0  3  0  0  0  0  0  0
  185.5290  178.1370  144.0910 C   0  0  0  0  0  0  0  0  0  0  0  0
  183.5720  179.0280  144.8220 C   0  0  0  0  0  2  0  0  0  0  0  0
  183.6550  178.4590  141.3600 C   0  0  0  0  0  0  0  0  0  0  0  0
  183.7630  179.3720  143.3930 C   0  0  2  0  0  3  0  0  0  0  0  0
  182.8860  178.9880  142.4800 C   0  0  0  0  0  3  0  0  0  0  0  0
  187.9260  178.4160  142.4400 O   0  0  0  0  0  0  0  0  0  0  0  0
  191.2980  176.3680  143.5860 C   0  0  0  0  0  2  0  0  0  0  0  0
  188.8650  176.3650  143.2130 C   0  0  1  0  0  3  0  0  0  0  0  0
  190.1850  176.9480  142.7360 C   0  0  1  0  0  3  0  0  0  0  0  0
  189.9610  176.7200  144.2050 C   0  0  2  0  0  3  0  0  0  0  0  0
  182.4520  176.5800  140.1820 C   0  0  0  0  0  2  0  0  0  0  0  0
  181.0590  176.6530  139.5820 C   0  0  0  0  0  2  0  0  0  0  0  0
  180.3120  177.6210  140.2540 O   0  0  0  0  0  0  0  0  0  0  0  0
  179.8340  176.9710  141.3920 C   0  0  0  0  0  3  0  0  0  0  0  0
  178.9330  175.9770  141.0150 O   0  0  0  0  0  1  0  0  0  0  0  0
  179.1910  177.8910  142.2190 O   0  0  0  0  0  1  0  0  0  0  0  0
  183.2320  178.6200  138.9010 C   0  0  2  0  0  3  0  0  0  0  0  0
  184.6150  177.1440  137.4410 O   0  0  0  0  0  0  0  0  0  0  0  0
  185.5510  178.9970  138.4100 O   0  0  0  0  0  1  0  0  0  0  0  0
  184.5300  178.2790  138.2360 C   0  0  0  0  0  0  0  0  0  0  0  0
  183.0490  180.1240  139.0950 C   0  0  0  0  0  2  0  0  0  0  0  0
  181.4170  179.8330  137.3250 C   0  0  0  0  0  3  0  0  0  0  0  0
  180.7080  182.5990  136.2040 C   0  0  0  0  0  0  0  0  0  0  0  0
  180.7810  183.7640  135.2850 C   0  0  0  0  0  1  0  0  0  0  0  0
  181.4170  181.9980  138.5380 C   0  0  0  0  0  3  0  0  0  0  0  0
  180.4400  181.4020  135.6820 C   0  0  0  0  0  3  0  0  0  0  0  0
  180.2180  180.1760  136.5040 C   0  0  0  0  0  2  0  0  0  0  0  0
  181.9330  180.6420  138.2520 C   0  0  0  0  0  0  0  0  0  0  0  0
  180.8850  182.8470  137.6490 C   0  0  0  0  0  3  0  0  0  0  0  0
  1 17  1  0  0  0  0
  1  9  1  0  0  0  0
  3  4  1  0  0  0  0
  6  2  1  6  0  0  0
  6 10  1  0  0  0  0
  6  7  1  0  0  0  0
  7  4  1  0  0  0  0
  7  5  2  0  0  0  0
  8  5  1  0  0  0  0
  9  2  1  0  0  0  0
  9 11  2  0  0  0  0
 10 11  1  6  0  0  0
 10  8  1  0  0  0  0
 12  3  2  0  0  0  0
 14  3  1  1  0  0  0
 14 16  1  0  0  0  0
 15 14  1  0  0  0  0
 15 13  1  6  0  0  0
 15 16  1  0  0  0  0
 16 13  1  6  0  0  0
 18 17  1  0  0  0  0
 18 19  1  0  0  0  0
 19 20  1  0  0  0  0
 20 22  1  0  0  0  0
 21 20  1  0  0  0  0
 23 27  1  1  0  0  0
 23  1  1  0  0  0  0
 24 26  2  0  0  0  0
 26 25  1  0  0  0  0
 26 23  1  0  0  0  0
 28 34  2  0  0  0  0
 29 35  1  0  0  0  0
 30 29  1  0  0  0  0
 32 29  2  0  0  0  0
 32 33  1  0  0  0  0
 33 28  1  0  0  0  0
 34 31  1  0  0  0  0
 34 27  1  0  0  0  0
 35 31  2  0  0  0  0
M  END
>  <MODEL>
9

>  <REMARK>
 VINA RESULT:      -7.3      3.681      8.751
  Name = 
  10 active torsions:
  status: ('A' for Active; 'I' for Inactive)
    1  A    between atoms: C_2  and  O_19
    2  A    between atoms: C_7  and  C_17
    3  A    between atoms: C_7  and  N_29
    4  A    between atoms: C_8  and  C_15
    5  A    between atoms: C_11  and  C_18
    6  A    between atoms: C_11  and  C_22
    7  A    between atoms: C_11  and  N_29
    8  A    between atoms: C_17  and  O_19
    9  A    between atoms: C_18  and  C_33
   10  A    between atoms: C_26  and  N_29
                            x       y       z     vdW  Elec       q    Type
                         _______ _______ _______ _____ _____    ______ ____

>  <TORSDO>
F 10

$$$$
