=
 OpenBabel11032419313D

 31 37  0  0  1  0  0  0  0  0999 V2000
  188.5520  178.0680  141.6550 C   0  0  2  0  0  3  0  0  0  0  0  0
  181.8320  179.1980  142.6880 C   0  0  0  0  0  1  0  0  0  0  0  0
  191.0260  177.2790  141.3700 C   0  0  0  0  0  2  0  0  0  0  0  0
  187.6940  178.3500  145.9300 C   0  0  1  0  0  3  0  0  0  0  0  0
  183.6920  179.3870  139.6230 C   0  0  0  0  0  3  0  0  0  0  0  0
  184.2780  178.2310  145.2200 C   0  0  0  0  0  3  0  0  0  0  0  0
  186.0960  178.6750  142.1400 C   0  0  1  0  0  3  0  0  0  0  0  0
  189.7650  178.2570  139.4350 C   0  0  0  0  0  2  0  0  0  0  0  0
  182.6130  179.6130  140.3010 N   0  0  0  0  0  0  0  0  0  0  0  0
  189.7280  177.2420  142.1280 C   0  0  0  0  0  0  0  0  0  0  0  0
  182.7060  178.8920  141.5200 C   0  0  1  0  0  3  0  0  0  0  0  0
  184.7840  178.1900  142.6660 C   0  0  0  0  0  0  0  0  0  0  0  0
  184.4800  178.2230  143.9350 C   0  0  0  0  0  0  0  0  0  0  0  0
  187.2210  177.6220  142.3090 C   0  0  2  0  0  3  0  0  0  0  0  0
  189.7510  176.6980  143.3460 C   0  0  0  0  0  3  0  0  0  0  0  0
  183.8490  178.2200  141.5710 C   0  0  2  0  0  3  0  0  0  0  0  0
  188.4370  177.9670  140.1290 C   0  0  0  0  0  2  0  0  0  0  0  0
  188.2060  178.1540  144.5540 N   0  0  2  0  0  0  0  0  0  0  0  0
  190.8340  177.2450  139.8520 C   0  0  2  0  0  0  0  0  0  0  0  0
  186.4090  178.9460  145.9910 O   0  0  0  0  0  0  0  0  0  0  0  0
  187.3240  177.2290  143.8100 C   0  0  2  0  0  3  0  0  0  0  0  0
  188.6110  176.7450  144.3200 C   0  0  1  0  0  3  0  0  0  0  0  0
  190.4530  175.8390  139.4060 C   0  0  0  0  0  1  0  0  0  0  0  0
  185.4300  177.9440  146.1250 C   0  0  0  0  0  2  0  0  0  0  0  0
  185.8700  179.0350  140.7240 N   0  0  0  0  0  2  0  0  0  0  0  0
  184.5970  178.4240  140.3260 C   0  0  2  0  0  3  0  0  0  0  0  0
  189.3440  177.6900  147.6860 C   0  0  0  0  0  2  0  0  0  0  0  0
  188.0220  177.9540  148.3760 C   0  0  0  0  0  2  0  0  0  0  0  0
  188.0430  177.3030  147.0070 C   0  0  0  0  0  3  0  0  0  0  0  0
  192.1630  177.6210  139.2120 C   0  0  0  0  0  2  0  0  0  0  0  0
  193.1990  177.5590  140.1320 F   0  0  0  0  0  0  0  0  0  0  0  0
  1 17  1  6  0  0  0
  1 10  1  0  0  0  0
  1 14  1  0  0  0  0
  3 10  1  0  0  0  0
  4 20  1  0  0  0  0
  4 29  1  6  0  0  0
  5  9  2  0  0  0  0
  5 26  1  0  0  0  0
  6 24  1  0  0  0  0
  7 25  1  6  0  0  0
  7 14  1  0  0  0  0
  7 12  1  0  0  0  0
  8 19  1  0  0  0  0
  8 17  1  0  0  0  0
  9 11  1  0  0  0  0
 10 15  2  0  0  0  0
 11 16  1  0  0  0  0
 11  2  1  1  0  0  0
 12 13  2  0  0  0  0
 13  6  2  0  0  0  0
 14 21  1  0  0  0  0
 15 22  1  0  0  0  0
 16 12  1  0  0  0  0
 18  4  1  0  0  0  0
 19  3  1  0  0  0  0
 20 24  1  0  0  0  0
 21 22  1  0  0  0  0
 21 18  1  0  0  0  0
 22 18  1  0  0  0  0
 23 19  1  0  0  0  0
 26 25  1  0  0  0  0
 26 16  1  0  0  0  0
 27 28  1  0  0  0  0
 29 27  1  0  0  0  0
 29 28  1  0  0  0  0
 30 19  1  0  0  0  0
 30 31  1  0  0  0  0
M  END
>  <MODEL>
1

>  <REMARK>
 VINA RESULT:      -9.1      0.000      0.000
  Name = 
  2 active torsions:
  status: ('A' for Active; 'I' for Inactive)
    1  A    between atoms: C_4  and  C_24
    2  A    between atoms: C_5  and  C_21
                            x       y       z     vdW  Elec       q    Type
                         _______ _______ _______ _____ _____    ______ ____

>  <TORSDO>
F 2

$$$$
=
 OpenBabel11032419313D

 31 37  0  0  1  0  0  0  0  0999 V2000
  187.8870  177.4480  140.7560 C   0  0  2  0  0  3  0  0  0  0  0  0
  190.2570  176.9180  147.2070 C   0  0  0  0  0  1  0  0  0  0  0  0
  186.9880  178.0260  138.3720 C   0  0  0  0  0  2  0  0  0  0  0  0
  184.6500  178.0700  143.6250 C   0  0  1  0  0  3  0  0  0  0  0  0
  191.8890  176.0200  144.1370 C   0  0  0  0  0  3  0  0  0  0  0  0
  187.0040  178.2340  146.1970 C   0  0  0  0  0  3  0  0  0  0  0  0
  188.6330  177.0850  143.1940 C   0  0  1  0  0  3  0  0  0  0  0  0
  189.1300  176.7530  138.6560 C   0  0  0  0  0  2  0  0  0  0  0  0
  191.8280  175.9930  145.4300 N   0  0  0  0  0  0  0  0  0  0  0  0
  187.0070  178.2850  139.8530 C   0  0  0  0  0  0  0  0  0  0  0  0
  190.8490  176.9360  145.8390 C   0  0  1  0  0  3  0  0  0  0  0  0
  188.9220  177.7370  144.5080 C   0  0  0  0  0  0  0  0  0  0  0  0
  187.9940  177.9750  145.3940 C   0  0  0  0  0  0  0  0  0  0  0  0
  188.0710  178.0870  142.1540 C   0  0  2  0  0  3  0  0  0  0  0  0
  186.0400  179.0590  140.3480 C   0  0  0  0  0  3  0  0  0  0  0  0
  190.3230  177.5410  144.7810 C   0  0  2  0  0  3  0  0  0  0  0  0
  189.2560  177.2480  140.0950 C   0  0  0  0  0  2  0  0  0  0  0  0
  185.5870  177.9600  142.4830 N   0  0  2  0  0  0  0  0  0  0  0  0
  188.3790  177.7670  137.7910 C   0  0  2  0  0  0  0  0  0  0  0  0
  185.1640  177.5700  144.8470 O   0  0  0  0  0  0  0  0  0  0  0  0
  186.8010  178.7650  142.7410 C   0  0  2  0  0  3  0  0  0  0  0  0
  185.7840  179.2700  141.8120 C   0  0  1  0  0  3  0  0  0  0  0  0
  189.1550  179.0750  137.6930 C   0  0  0  0  0  1  0  0  0  0  0  0
  185.6910  178.6320  145.6060 C   0  0  0  0  0  2  0  0  0  0  0  0
  189.8990  176.4640  142.7500 N   0  0  0  0  0  2  0  0  0  0  0  0
  190.9710  177.0530  143.5600 C   0  0  2  0  0  3  0  0  0  0  0  0
  182.4180  178.9760  142.9620 C   0  0  0  0  0  2  0  0  0  0  0  0
  182.4610  178.9260  144.4750 C   0  0  0  0  0  2  0  0  0  0  0  0
  183.7090  179.2900  143.6950 C   0  0  0  0  0  3  0  0  0  0  0  0
  188.1940  177.1990  136.3910 C   0  0  0  0  0  2  0  0  0  0  0  0
  186.8710  176.8560  136.1590 F   0  0  0  0  0  0  0  0  0  0  0  0
  1 17  1  6  0  0  0
  1 14  1  0  0  0  0
  3 10  1  0  0  0  0
  4 29  1  1  0  0  0
  4 20  1  0  0  0  0
  5  9  2  0  0  0  0
  7 25  1  6  0  0  0
  7 12  1  0  0  0  0
  8 17  1  0  0  0  0
  9 11  1  0  0  0  0
 10 15  2  0  0  0  0
 10  1  1  0  0  0  0
 11  2  1  6  0  0  0
 12 16  1  0  0  0  0
 12 13  2  0  0  0  0
 13  6  2  0  0  0  0
 14 21  1  0  0  0  0
 14  7  1  0  0  0  0
 15 22  1  0  0  0  0
 16 11  1  0  0  0  0
 18 21  1  0  0  0  0
 18  4  1  0  0  0  0
 19  3  1  0  0  0  0
 19  8  1  0  0  0  0
 20 24  1  0  0  0  0
 22 18  1  0  0  0  0
 22 21  1  0  0  0  0
 23 19  1  0  0  0  0
 24  6  1  0  0  0  0
 25 26  1  0  0  0  0
 26  5  1  0  0  0  0
 26 16  1  0  0  0  0
 27 29  1  0  0  0  0
 27 28  1  0  0  0  0
 29 28  1  0  0  0  0
 30 19  1  0  0  0  0
 31 30  1  0  0  0  0
M  END
>  <MODEL>
2

>  <REMARK>
 VINA RESULT:      -9.0      2.276      5.635
  Name = 
  2 active torsions:
  status: ('A' for Active; 'I' for Inactive)
    1  A    between atoms: C_4  and  C_24
    2  A    between atoms: C_5  and  C_21
                            x       y       z     vdW  Elec       q    Type
                         _______ _______ _______ _____ _____    ______ ____

>  <TORSDO>
F 2

$$$$
=
 OpenBabel11032419313D

 31 37  0  0  1  0  0  0  0  0999 V2000
  189.1110  177.6430  141.0840 C   0  0  2  0  0  3  0  0  0  0  0  0
  182.8470  179.0040  143.6190 C   0  0  0  0  0  1  0  0  0  0  0  0
  191.4220  176.7680  140.2370 C   0  0  0  0  0  2  0  0  0  0  0  0
  189.2430  177.8420  145.4480 C   0  0  1  0  0  3  0  0  0  0  0  0
  183.9830  179.2040  140.2190 C   0  0  0  0  0  3  0  0  0  0  0  0
  185.7530  177.8740  145.5200 C   0  0  0  0  0  3  0  0  0  0  0  0
  186.8550  178.3320  142.1190 C   0  0  1  0  0  3  0  0  0  0  0  0
  189.8050  177.8460  138.6530 C   0  0  0  0  0  2  0  0  0  0  0  0
  183.0930  179.4530  141.1250 N   0  0  0  0  0  0  0  0  0  0  0  0
  190.3260  176.7600  141.2660 C   0  0  0  0  0  0  0  0  0  0  0  0
  183.4240  178.6960  142.2790 C   0  0  1  0  0  3  0  0  0  0  0  0
  185.6730  177.8830  142.9170 C   0  0  0  0  0  0  0  0  0  0  0  0
  185.6620  177.8930  144.2220 C   0  0  0  0  0  0  0  0  0  0  0  0
  187.9410  177.2320  142.0120 C   0  0  2  0  0  3  0  0  0  0  0  0
  190.5970  176.1820  142.4380 C   0  0  0  0  0  3  0  0  0  0  0  0
  184.5190  177.9790  142.0600 C   0  0  2  0  0  3  0  0  0  0  0  0
  188.6530  177.5890  139.6220 C   0  0  0  0  0  2  0  0  0  0  0  0
  189.4250  177.6640  143.9880 N   0  0  2  0  0  0  0  0  0  0  0  0
  190.8950  176.7830  138.8010 C   0  0  2  0  0  0  0  0  0  0  0  0
  188.0320  178.4850  145.8060 O   0  0  0  0  0  0  0  0  0  0  0  0
  188.3600  176.7940  143.4450 C   0  0  2  0  0  3  0  0  0  0  0  0
  189.7060  176.2470  143.6440 C   0  0  1  0  0  3  0  0  0  0  0  0
  190.3620  175.4050  138.4260 C   0  0  0  0  0  1  0  0  0  0  0  0
  187.0650  177.5180  146.1380 C   0  0  0  0  0  2  0  0  0  0  0  0
  186.3340  178.7380  140.7960 N   0  0  0  0  0  2  0  0  0  0  0  0
  184.9790  178.1880  140.6840 C   0  0  2  0  0  3  0  0  0  0  0  0
  191.2410  177.0190  146.7010 C   0  0  0  0  0  2  0  0  0  0  0  0
  190.1800  177.3830  147.7190 C   0  0  0  0  0  2  0  0  0  0  0  0
  189.7780  176.7530  146.3990 C   0  0  0  0  0  3  0  0  0  0  0  0
  192.0620  177.1240  137.8860 C   0  0  0  0  0  2  0  0  0  0  0  0
  193.2610  177.1280  138.5820 F   0  0  0  0  0  0  0  0  0  0  0  0
  1 17  1  6  0  0  0
  1 10  1  0  0  0  0
  1 14  1  0  0  0  0
  3 10  1  0  0  0  0
  4 20  1  0  0  0  0
  4 29  1  1  0  0  0
  5 26  1  0  0  0  0
  5  9  2  0  0  0  0
  6 24  1  0  0  0  0
  7 25  1  6  0  0  0
  7 12  1  0  0  0  0
  8 19  1  0  0  0  0
  8 17  1  0  0  0  0
  9 11  1  0  0  0  0
 10 15  2  0  0  0  0
 11  2  1  1  0  0  0
 12 13  2  0  0  0  0
 13  6  2  0  0  0  0
 14  7  1  0  0  0  0
 14 21  1  0  0  0  0
 15 22  1  0  0  0  0
 16 11  1  0  0  0  0
 16 12  1  0  0  0  0
 18  4  1  0  0  0  0
 19  3  1  0  0  0  0
 20 24  1  0  0  0  0
 21 22  1  0  0  0  0
 21 18  1  0  0  0  0
 22 18  1  0  0  0  0
 23 19  1  0  0  0  0
 26 25  1  0  0  0  0
 26 16  1  0  0  0  0
 27 28  1  0  0  0  0
 29 27  1  0  0  0  0
 29 28  1  0  0  0  0
 30 31  1  0  0  0  0
 30 19  1  0  0  0  0
M  END
>  <MODEL>
3

>  <REMARK>
 VINA RESULT:      -8.9      1.148      1.323
  Name = 
  2 active torsions:
  status: ('A' for Active; 'I' for Inactive)
    1  A    between atoms: C_4  and  C_24
    2  A    between atoms: C_5  and  C_21
                            x       y       z     vdW  Elec       q    Type
                         _______ _______ _______ _____ _____    ______ ____

>  <TORSDO>
F 2

$$$$
=
 OpenBabel11032419313D

 31 37  0  0  1  0  0  0  0  0999 V2000
  186.7050  177.7940  143.3340 C   0  0  2  0  0  3  0  0  0  0  0  0
  191.2180  177.1280  138.1680 C   0  0  0  0  0  1  0  0  0  0  0  0
  185.1970  178.3560  145.3930 C   0  0  0  0  0  2  0  0  0  0  0  0
  190.4870  176.1800  144.8130 C   0  0  1  0  0  3  0  0  0  0  0  0
  187.6920  177.7830  137.9950 C   0  0  0  0  0  3  0  0  0  0  0  0
  191.9650  176.9070  141.7350 C   0  0  0  0  0  3  0  0  0  0  0  0
  188.3970  177.3330  141.4480 C   0  0  1  0  0  3  0  0  0  0  0  0
  184.2190  178.2340  143.0870 C   0  0  0  0  0  2  0  0  0  0  0  0
  188.8070  177.4620  137.4220 N   0  0  0  0  0  0  0  0  0  0  0  0
  186.5600  178.2770  144.7620 C   0  0  0  0  0  0  0  0  0  0  0  0
  189.8580  177.7130  138.3420 C   0  0  1  0  0  3  0  0  0  0  0  0
  189.6820  177.7530  140.8110 C   0  0  0  0  0  0  0  0  0  0  0  0
  190.8440  177.3270  141.2240 C   0  0  0  0  0  0  0  0  0  0  0  0
  188.0920  178.1360  142.7380 C   0  0  2  0  0  3  0  0  0  0  0  0
  187.6130  178.3710  145.5750 C   0  0  0  0  0  3  0  0  0  0  0  0
  189.3700  178.1990  139.4770 C   0  0  2  0  0  3  0  0  0  0  0  0
  185.6030  178.4170  142.4690 C   0  0  0  0  0  2  0  0  0  0  0  0
  189.1540  176.7710  144.5560 N   0  0  2  0  0  0  0  0  0  0  0  0
  184.1320  178.9210  144.4510 C   0  0  2  0  0  0  0  0  0  0  0  0
  191.1620  175.7430  143.6460 O   0  0  0  0  0  0  0  0  0  0  0  0
  189.2880  177.9850  143.7210 C   0  0  2  0  0  3  0  0  0  0  0  0
  189.0340  178.1230  145.1590 C   0  0  1  0  0  3  0  0  0  0  0  0
  184.3080  180.4280  144.3110 C   0  0  0  0  0  1  0  0  0  0  0  0
  192.0560  176.7430  143.2170 C   0  0  0  0  0  2  0  0  0  0  0  0
  187.3470  177.5000  140.4200 N   0  0  0  0  0  2  0  0  0  0  0  0
  187.9150  178.3460  139.3650 C   0  0  2  0  0  3  0  0  0  0  0  0
  190.8190  176.2520  147.2880 C   0  0  0  0  0  2  0  0  0  0  0  0
  192.0560  175.6270  146.6790 C   0  0  0  0  0  2  0  0  0  0  0  0
  191.3450  176.7560  145.9570 C   0  0  0  0  0  3  0  0  0  0  0  0
  182.7720  178.6400  145.0740 C   0  0  0  0  0  2  0  0  0  0  0  0
  181.7730  178.6270  144.1120 F   0  0  0  0  0  0  0  0  0  0  0  0
  1 17  1  6  0  0  0
  1 10  1  0  0  0  0
  4 29  1  6  0  0  0
  5 26  1  0  0  0  0
  6 24  1  0  0  0  0
  7 25  1  6  0  0  0
  7 14  1  0  0  0  0
  8 19  1  0  0  0  0
  9  5  2  0  0  0  0
  9 11  1  0  0  0  0
 10  3  1  0  0  0  0
 10 15  2  0  0  0  0
 11  2  1  1  0  0  0
 11 16  1  0  0  0  0
 12 13  2  0  0  0  0
 12  7  1  0  0  0  0
 13  6  2  0  0  0  0
 14  1  1  0  0  0  0
 14 21  1  0  0  0  0
 16 12  1  0  0  0  0
 17  8  1  0  0  0  0
 18  4  1  0  0  0  0
 18 22  1  0  0  0  0
 19 30  1  0  0  0  0
 19  3  1  0  0  0  0
 20  4  1  0  0  0  0
 21 18  1  0  0  0  0
 21 22  1  0  0  0  0
 22 15  1  0  0  0  0
 23 19  1  0  0  0  0
 24 20  1  0  0  0  0
 26 16  1  0  0  0  0
 26 25  1  0  0  0  0
 28 27  1  0  0  0  0
 29 28  1  0  0  0  0
 29 27  1  0  0  0  0
 31 30  1  0  0  0  0
M  END
>  <MODEL>
4

>  <REMARK>
 VINA RESULT:      -8.5      3.062      6.178
  Name = 
  2 active torsions:
  status: ('A' for Active; 'I' for Inactive)
    1  A    between atoms: C_4  and  C_24
    2  A    between atoms: C_5  and  C_21
                            x       y       z     vdW  Elec       q    Type
                         _______ _______ _______ _____ _____    ______ ____

>  <TORSDO>
F 2

$$$$
=
 OpenBabel11032419313D

 31 37  0  0  1  0  0  0  0  0999 V2000
  189.4530  176.9880  142.9640 C   0  0  2  0  0  3  0  0  0  0  0  0
  184.0180  178.9190  139.1900 C   0  0  0  0  0  1  0  0  0  0  0  0
  191.6810  176.5750  144.2650 C   0  0  0  0  0  2  0  0  0  0  0  0
  190.1810  176.1980  138.7280 C   0  0  1  0  0  3  0  0  0  0  0  0
  184.2630  178.5710  142.7550 C   0  0  0  0  0  3  0  0  0  0  0  0
  187.3310  178.0480  137.9260 C   0  0  0  0  0  3  0  0  0  0  0  0
  187.4050  177.5030  141.4890 C   0  0  1  0  0  3  0  0  0  0  0  0
  189.4990  176.7530  145.4890 C   0  0  0  0  0  2  0  0  0  0  0  0
  183.5520  178.7290  141.6860 N   0  0  0  0  0  0  0  0  0  0  0  0
  190.9640  177.0430  143.0290 C   0  0  0  0  0  0  0  0  0  0  0  0
  184.4350  179.0330  140.6170 C   0  0  1  0  0  3  0  0  0  0  0  0
  186.8250  178.4130  140.4540 C   0  0  0  0  0  0  0  0  0  0  0  0
  187.0290  178.2450  139.1760 C   0  0  0  0  0  0  0  0  0  0  0  0
  188.8840  177.8440  141.8070 C   0  0  2  0  0  3  0  0  0  0  0  0
  191.7010  177.2290  141.9330 C   0  0  0  0  0  3  0  0  0  0  0  0
  185.6880  179.0660  141.0520 C   0  0  2  0  0  3  0  0  0  0  0  0
  188.8650  177.4660  144.2970 C   0  0  0  0  0  2  0  0  0  0  0  0
  190.1840  176.4320  140.1910 N   0  0  2  0  0  0  0  0  0  0  0  0
  191.0020  177.0300  145.5590 C   0  0  2  0  0  0  0  0  0  0  0  0
  188.8970  176.2710  138.1320 O   0  0  0  0  0  0  0  0  0  0  0  0
  189.7070  177.8000  140.4880 C   0  0  2  0  0  3  0  0  0  0  0  0
  191.1410  177.5030  140.5670 C   0  0  1  0  0  3  0  0  0  0  0  0
  191.2690  178.5110  145.7960 C   0  0  0  0  0  1  0  0  0  0  0  0
  188.7010  177.5560  137.5920 C   0  0  0  0  0  2  0  0  0  0  0  0
  186.5340  177.6140  142.6770 N   0  0  0  0  0  2  0  0  0  0  0  0
  185.7160  178.8190  142.4960 C   0  0  2  0  0  3  0  0  0  0  0  0
  192.4360  175.6060  137.8320 C   0  0  0  0  0  2  0  0  0  0  0  0
  191.5210  175.8420  136.6490 C   0  0  0  0  0  2  0  0  0  0  0  0
  191.3800  176.6940  137.8960 C   0  0  0  0  0  3  0  0  0  0  0  0
  191.6110  176.2310  146.7030 C   0  0  0  0  0  2  0  0  0  0  0  0
  192.4130  175.2050  146.2280 F   0  0  0  0  0  0  0  0  0  0  0  0
  1 10  1  0  0  0  0
  1 17  1  1  0  0  0
  3 19  1  0  0  0  0
  4 29  1  6  0  0  0
  4 18  1  0  0  0  0
  6 13  2  0  0  0  0
  7 12  1  6  0  0  0
  7 14  1  0  0  0  0
  7 25  1  0  0  0  0
  8 19  1  0  0  0  0
  9  5  2  0  0  0  0
 10  3  1  0  0  0  0
 11  2  1  6  0  0  0
 11 16  1  0  0  0  0
 11  9  1  0  0  0  0
 12 16  1  0  0  0  0
 13 12  2  0  0  0  0
 14  1  1  0  0  0  0
 15 10  2  0  0  0  0
 16 26  1  0  0  0  0
 17  8  1  0  0  0  0
 18 21  1  0  0  0  0
 18 22  1  0  0  0  0
 19 23  1  0  0  0  0
 19 30  1  0  0  0  0
 20  4  1  0  0  0  0
 21 22  1  0  0  0  0
 21 14  1  0  0  0  0
 22 15  1  0  0  0  0
 24  6  1  0  0  0  0
 24 20  1  0  0  0  0
 26 25  1  0  0  0  0
 26  5  1  0  0  0  0
 27 29  1  0  0  0  0
 28 27  1  0  0  0  0
 28 29  1  0  0  0  0
 31 30  1  0  0  0  0
M  END
>  <MODEL>
5

>  <REMARK>
 VINA RESULT:      -8.2      2.715      5.864
  Name = 
  2 active torsions:
  status: ('A' for Active; 'I' for Inactive)
    1  A    between atoms: C_4  and  C_24
    2  A    between atoms: C_5  and  C_21
                            x       y       z     vdW  Elec       q    Type
                         _______ _______ _______ _____ _____    ______ ____

>  <TORSDO>
F 2

$$$$
=
 OpenBabel11032419313D

 31 37  0  0  1  0  0  0  0  0999 V2000
  188.8950  177.3510  142.2650 C   0  0  2  0  0  3  0  0  0  0  0  0
  182.8350  179.0190  139.4370 C   0  0  0  0  0  1  0  0  0  0  0  0
  191.3240  177.0400  143.1760 C   0  0  0  0  0  2  0  0  0  0  0  0
  188.9220  176.4840  137.9820 C   0  0  1  0  0  3  0  0  0  0  0  0
  183.6920  178.7640  142.9140 C   0  0  0  0  0  3  0  0  0  0  0  0
  185.9140  178.2230  137.6440 C   0  0  0  0  0  3  0  0  0  0  0  0
  186.6100  177.7660  141.1510 C   0  0  1  0  0  3  0  0  0  0  0  0
  189.3760  177.1780  144.7500 C   0  0  0  0  0  2  0  0  0  0  0  0
  182.8050  178.8740  141.9780 N   0  0  0  0  0  0  0  0  0  0  0  0
  190.3920  177.4560  142.0710 C   0  0  0  0  0  0  0  0  0  0  0  0
  183.4830  179.1800  140.7700 C   0  0  1  0  0  3  0  0  0  0  0  0
  185.8320  178.6320  140.2140 C   0  0  0  0  0  0  0  0  0  0  0  0
  185.8220  178.4410  138.9230 C   0  0  0  0  0  0  0  0  0  0  0  0
  188.1080  178.1620  141.2060 C   0  0  2  0  0  3  0  0  0  0  0  0
  190.9260  177.6380  140.8620 C   0  0  0  0  0  3  0  0  0  0  0  0
  184.7900  179.2630  140.9840 C   0  0  2  0  0  3  0  0  0  0  0  0
  188.5250  177.8420  143.6700 C   0  0  0  0  0  2  0  0  0  0  0  0
  189.1650  176.7530  139.4190 N   0  0  2  0  0  0  0  0  0  0  0  0
  190.8590  177.5040  144.5580 C   0  0  2  0  0  0  0  0  0  0  0  0
  187.5540  176.5030  137.6120 O   0  0  0  0  0  0  0  0  0  0  0  0
  188.6970  178.1120  139.7680 C   0  0  2  0  0  3  0  0  0  0  0  0
  190.1340  177.8620  139.6070 C   0  0  1  0  0  3  0  0  0  0  0  0
  191.1100  178.9980  144.7180 C   0  0  0  0  0  1  0  0  0  0  0  0
  187.2240  177.7680  137.0900 C   0  0  0  0  0  2  0  0  0  0  0  0
  185.9500  177.8780  142.4680 N   0  0  0  0  0  2  0  0  0  0  0  0
  185.0710  179.0510  142.4070 C   0  0  2  0  0  3  0  0  0  0  0  0
  191.0080  175.9390  136.7200 C   0  0  0  0  0  2  0  0  0  0  0  0
  189.8970  176.1260  135.7090 C   0  0  0  0  0  2  0  0  0  0  0  0
  189.9450  176.9980  136.9490 C   0  0  0  0  0  3  0  0  0  0  0  0
  191.6800  176.7530  145.5960 C   0  0  0  0  0  2  0  0  0  0  0  0
  192.0550  175.5020  145.1300 F   0  0  0  0  0  0  0  0  0  0  0  0
  1 17  1  1  0  0  0
  3 19  1  0  0  0  0
  4 29  1  6  0  0  0
  4 18  1  0  0  0  0
  6 13  2  0  0  0  0
  7 12  1  6  0  0  0
  7 14  1  0  0  0  0
  7 25  1  0  0  0  0
  9  5  2  0  0  0  0
 10  1  1  0  0  0  0
 10  3  1  0  0  0  0
 11  2  1  6  0  0  0
 11 16  1  0  0  0  0
 11  9  1  0  0  0  0
 12 16  1  0  0  0  0
 13 12  2  0  0  0  0
 14  1  1  0  0  0  0
 15 10  2  0  0  0  0
 16 26  1  0  0  0  0
 17  8  1  0  0  0  0
 18 22  1  0  0  0  0
 18 21  1  0  0  0  0
 19 23  1  0  0  0  0
 19  8  1  0  0  0  0
 19 30  1  0  0  0  0
 20  4  1  0  0  0  0
 21 14  1  0  0  0  0
 22 21  1  0  0  0  0
 22 15  1  0  0  0  0
 24 20  1  0  0  0  0
 24  6  1  0  0  0  0
 26 25  1  0  0  0  0
 26  5  1  0  0  0  0
 27 29  1  0  0  0  0
 28 27  1  0  0  0  0
 28 29  1  0  0  0  0
 31 30  1  0  0  0  0
M  END
>  <MODEL>
6

>  <REMARK>
 VINA RESULT:      -8.0      2.717      5.762
  Name = 
  2 active torsions:
  status: ('A' for Active; 'I' for Inactive)
    1  A    between atoms: C_4  and  C_24
    2  A    between atoms: C_5  and  C_21
                            x       y       z     vdW  Elec       q    Type
                         _______ _______ _______ _____ _____    ______ ____

>  <TORSDO>
F 2

$$$$
=
 OpenBabel11032419313D

 31 37  0  0  1  0  0  0  0  0999 V2000
  189.2980  176.8770  144.7950 C   0  0  2  0  0  3  0  0  0  0  0  0
  183.4710  179.1530  141.9020 C   0  0  0  0  0  1  0  0  0  0  0  0
  191.6530  176.3560  145.8010 C   0  0  0  0  0  2  0  0  0  0  0  0
  189.6270  176.7940  140.4380 C   0  0  1  0  0  3  0  0  0  0  0  0
  184.0740  178.2590  145.3260 C   0  0  0  0  0  3  0  0  0  0  0  0
  186.6650  178.6290  140.2120 C   0  0  0  0  0  3  0  0  0  0  0  0
  187.1040  177.5330  143.6180 C   0  0  1  0  0  3  0  0  0  0  0  0
  189.5980  176.2490  147.2350 C   0  0  0  0  0  2  0  0  0  0  0  0
  183.2580  178.5540  144.3670 N   0  0  0  0  0  0  0  0  0  0  0  0
  190.8070  176.9830  144.7280 C   0  0  0  0  0  0  0  0  0  0  0  0
  184.0230  179.0580  143.2840 C   0  0  1  0  0  3  0  0  0  0  0  0
  186.4010  178.5700  142.8020 C   0  0  0  0  0  0  0  0  0  0  0  0
  186.4830  178.6150  141.5000 C   0  0  0  0  0  0  0  0  0  0  0  0
  188.5970  177.8810  143.8480 C   0  0  2  0  0  3  0  0  0  0  0  0
  191.4270  177.3690  143.6110 C   0  0  0  0  0  3  0  0  0  0  0  0
  185.3120  179.0740  143.5990 C   0  0  2  0  0  3  0  0  0  0  0  0
  188.8330  177.1150  146.2360 C   0  0  0  0  0  2  0  0  0  0  0  0
  189.7680  176.7950  141.9130 N   0  0  2  0  0  0  0  0  0  0  0  0
  191.0930  176.5730  147.2080 C   0  0  2  0  0  0  0  0  0  0  0  0
  188.2890  176.9080  139.9840 O   0  0  0  0  0  0  0  0  0  0  0  0
  189.2870  178.0790  142.4690 C   0  0  2  0  0  3  0  0  0  0  0  0
  190.7290  177.8320  142.3660 C   0  0  1  0  0  3  0  0  0  0  0  0
  191.3450  178.0090  147.6540 C   0  0  0  0  0  1  0  0  0  0  0  0
  188.0080  178.2530  139.6780 C   0  0  0  0  0  2  0  0  0  0  0  0
  186.3510  177.4200  144.8850 N   0  0  0  0  0  2  0  0  0  0  0  0
  185.4890  178.6040  144.9770 C   0  0  2  0  0  3  0  0  0  0  0  0
  191.6850  176.4050  139.0770 C   0  0  0  0  0  2  0  0  0  0  0  0
  190.6280  176.9770  138.1560 C   0  0  0  0  0  2  0  0  0  0  0  0
  190.7260  177.4640  139.5890 C   0  0  0  0  0  3  0  0  0  0  0  0
  191.8320  175.6300  148.1470 C   0  0  0  0  0  2  0  0  0  0  0  0
  193.1940  175.6260  147.8860 F   0  0  0  0  0  0  0  0  0  0  0  0
  1 17  1  1  0  0  0
  3 19  1  0  0  0  0
  4 29  1  6  0  0  0
  4 18  1  0  0  0  0
  6 13  2  0  0  0  0
  7 12  1  6  0  0  0
  7 14  1  0  0  0  0
  7 25  1  0  0  0  0
  9  5  2  0  0  0  0
 10  1  1  0  0  0  0
 10  3  1  0  0  0  0
 11  2  1  6  0  0  0
 11 16  1  0  0  0  0
 11  9  1  0  0  0  0
 12 16  1  0  0  0  0
 13 12  2  0  0  0  0
 14  1  1  0  0  0  0
 15 10  2  0  0  0  0
 16 26  1  0  0  0  0
 17  8  1  0  0  0  0
 18 22  1  0  0  0  0
 18 21  1  0  0  0  0
 19  8  1  0  0  0  0
 19 23  1  0  0  0  0
 19 30  1  0  0  0  0
 20  4  1  0  0  0  0
 21 14  1  0  0  0  0
 22 21  1  0  0  0  0
 22 15  1  0  0  0  0
 24 20  1  0  0  0  0
 24  6  1  0  0  0  0
 25 26  1  0  0  0  0
 26  5  1  0  0  0  0
 27 29  1  0  0  0  0
 28 27  1  0  0  0  0
 28 29  1  0  0  0  0
 31 30  1  0  0  0  0
M  END
>  <MODEL>
7

>  <REMARK>
 VINA RESULT:      -8.0      2.554      5.670
  Name = 
  2 active torsions:
  status: ('A' for Active; 'I' for Inactive)
    1  A    between atoms: C_4  and  C_24
    2  A    between atoms: C_5  and  C_21
                            x       y       z     vdW  Elec       q    Type
                         _______ _______ _______ _____ _____    ______ ____

>  <TORSDO>
F 2

$$$$
=
 OpenBabel11032419313D

 31 37  0  0  1  0  0  0  0  0999 V2000
  189.5140  177.6960  144.6970 C   0  0  2  0  0  3  0  0  0  0  0  0
  188.9100  177.9720  137.8370 C   0  0  0  0  0  1  0  0  0  0  0  0
  189.5290  177.2750  147.2760 C   0  0  0  0  0  2  0  0  0  0  0  0
  185.5480  179.1460  143.5740 C   0  0  1  0  0  3  0  0  0  0  0  0
  191.8730  177.5030  139.8100 C   0  0  0  0  0  3  0  0  0  0  0  0
  186.1950  178.2530  140.2620 C   0  0  0  0  0  3  0  0  0  0  0  0
  189.2530  178.0130  142.1550 C   0  0  1  0  0  3  0  0  0  0  0  0
  191.6770  177.3850  145.9860 C   0  0  0  0  0  2  0  0  0  0  0  0
  191.3040  177.7480  138.6740 N   0  0  0  0  0  0  0  0  0  0  0  0
  188.8020  177.2630  145.9600 C   0  0  0  0  0  0  0  0  0  0  0  0
  189.9200  177.4670  138.8110 C   0  0  1  0  0  3  0  0  0  0  0  0
  188.6040  177.5060  140.9070 C   0  0  0  0  0  0  0  0  0  0  0  0
  187.4110  177.8800  140.5330 C   0  0  0  0  0  0  0  0  0  0  0  0
  188.7580  177.2630  143.4180 C   0  0  2  0  0  3  0  0  0  0  0  0
  187.4740  177.1350  146.0010 C   0  0  0  0  0  3  0  0  0  0  0  0
  189.6560  177.0400  140.0400 C   0  0  2  0  0  3  0  0  0  0  0  0
  190.9310  177.1100  144.6830 C   0  0  0  0  0  2  0  0  0  0  0  0
  186.7910  178.6200  144.1850 N   0  0  2  0  0  0  0  0  0  0  0  0
  190.9600  176.7420  147.1750 C   0  0  2  0  0  0  0  0  0  0  0  0
  185.6820  179.5120  142.2120 O   0  0  0  0  0  0  0  0  0  0  0  0
  187.2090  177.3780  143.4980 C   0  0  2  0  0  3  0  0  0  0  0  0
  186.5680  177.2940  144.8150 C   0  0  1  0  0  3  0  0  0  0  0  0
  190.9420  175.2240  147.0400 C   0  0  0  0  0  1  0  0  0  0  0  0
  185.2410  178.4540  141.3940 C   0  0  0  0  0  2  0  0  0  0  0  0
  190.7100  177.8730  141.9530 N   0  0  0  0  0  2  0  0  0  0  0  0
  190.8990  176.9680  140.8140 C   0  0  2  0  0  3  0  0  0  0  0  0
  183.8940  179.0030  145.4410 C   0  0  0  0  0  2  0  0  0  0  0  0
  183.2090  179.6800  144.2740 C   0  0  0  0  0  2  0  0  0  0  0  0
  184.1960  178.5560  144.0230 C   0  0  0  0  0  3  0  0  0  0  0  0
  191.6810  177.1130  148.4620 C   0  0  0  0  0  2  0  0  0  0  0  0
  192.8210  176.3430  148.6390 F   0  0  0  0  0  0  0  0  0  0  0  0
  1 17  1  6  0  0  0
  1 10  1  0  0  0  0
  4 29  1  6  0  0  0
  4 18  1  0  0  0  0
  5 26  1  0  0  0  0
  6 13  2  0  0  0  0
  6 24  1  0  0  0  0
  7 12  1  6  0  0  0
  7 14  1  0  0  0  0
  8 19  1  0  0  0  0
  9 11  1  0  0  0  0
  9  5  2  0  0  0  0
 10 15  2  0  0  0  0
 10  3  1  0  0  0  0
 11  2  1  1  0  0  0
 11 16  1  0  0  0  0
 13 12  2  0  0  0  0
 14 21  1  0  0  0  0
 14  1  1  0  0  0  0
 16 26  1  0  0  0  0
 16 12  1  0  0  0  0
 17  8  1  0  0  0  0
 18 22  1  0  0  0  0
 19  3  1  0  0  0  0
 19 30  1  0  0  0  0
 20  4  1  0  0  0  0
 21 18  1  0  0  0  0
 21 22  1  0  0  0  0
 22 15  1  0  0  0  0
 23 19  1  0  0  0  0
 24 20  1  0  0  0  0
 25  7  1  0  0  0  0
 26 25  1  0  0  0  0
 28 27  1  0  0  0  0
 29 28  1  0  0  0  0
 29 27  1  0  0  0  0
 30 31  1  0  0  0  0
M  END
>  <MODEL>
8

>  <REMARK>
 VINA RESULT:      -7.9      2.537      5.845
  Name = 
  2 active torsions:
  status: ('A' for Active; 'I' for Inactive)
    1  A    between atoms: C_4  and  C_24
    2  A    between atoms: C_5  and  C_21
                            x       y       z     vdW  Elec       q    Type
                         _______ _______ _______ _____ _____    ______ ____

>  <TORSDO>
F 2

$$$$
=
 OpenBabel11032419313D

 31 37  0  0  1  0  0  0  0  0999 V2000
  188.1690  178.1580  144.5210 C   0  0  2  0  0  3  0  0  0  0  0  0
  190.5800  177.4700  138.1010 C   0  0  0  0  0  1  0  0  0  0  0  0
  187.0760  178.0860  146.8930 C   0  0  0  0  0  2  0  0  0  0  0  0
  185.0550  179.1280  141.6130 C   0  0  1  0  0  3  0  0  0  0  0  0
  192.4070  177.5030  141.1910 C   0  0  0  0  0  3  0  0  0  0  0  0
  187.0800  177.8560  139.0690 C   0  0  0  0  0  3  0  0  0  0  0  0
  189.0260  178.1110  142.0930 C   0  0  1  0  0  3  0  0  0  0  0  0
  189.5680  178.1910  146.6370 C   0  0  0  0  0  2  0  0  0  0  0  0
  192.3810  177.5490  139.8980 N   0  0  0  0  0  0  0  0  0  0  0  0
  186.9870  177.8410  145.4120 C   0  0  0  0  0  0  0  0  0  0  0  0
  191.0770  177.1800  139.4760 C   0  0  1  0  0  3  0  0  0  0  0  0
  188.9860  177.3940  140.7820 C   0  0  0  0  0  0  0  0  0  0  0  0
  188.0660  177.6200  139.8840 C   0  0  0  0  0  0  0  0  0  0  0  0
  188.0440  177.5000  143.1250 C   0  0  2  0  0  3  0  0  0  0  0  0
  185.7740  177.6160  144.9050 C   0  0  0  0  0  3  0  0  0  0  0  0
  190.3150  176.9010  140.5260 C   0  0  2  0  0  3  0  0  0  0  0  0
  189.4610  177.6880  145.1990 C   0  0  0  0  0  2  0  0  0  0  0  0
  185.9210  178.7870  142.7660 N   0  0  2  0  0  0  0  0  0  0  0  0
  188.4170  177.6580  147.4920 C   0  0  2  0  0  0  0  0  0  0  0  0
  185.7590  179.3190  140.3970 O   0  0  0  0  0  0  0  0  0  0  0  0
  186.6110  177.5020  142.5220 C   0  0  2  0  0  3  0  0  0  0  0  0
  185.4660  177.5440  143.4380 C   0  0  1  0  0  3  0  0  0  0  0  0
  188.4800  176.1390  147.5980 C   0  0  0  0  0  1  0  0  0  0  0  0
  185.7290  178.1300  139.6440 C   0  0  0  0  0  2  0  0  0  0  0  0
  190.4290  178.0620  142.5530 N   0  0  0  0  0  2  0  0  0  0  0  0
  191.1040  177.0310  141.7560 C   0  0  2  0  0  3  0  0  0  0  0  0
  182.6580  179.3780  142.2670 C   0  0  0  0  0  2  0  0  0  0  0  0
  182.7260  179.4190  140.7560 C   0  0  0  0  0  2  0  0  0  0  0  0
  183.6500  178.4990  141.5290 C   0  0  0  0  0  3  0  0  0  0  0  0
  188.5080  178.2530  148.8900 C   0  0  0  0  0  2  0  0  0  0  0  0
  189.8070  178.6280  149.1940 F   0  0  0  0  0  0  0  0  0  0  0  0
  1 17  1  1  0  0  0
  1 10  1  0  0  0  0
  3 19  1  0  0  0  0
  4 29  1  6  0  0  0
  4 18  1  0  0  0  0
  5 26  1  0  0  0  0
  6 24  1  0  0  0  0
  6 13  2  0  0  0  0
  7 12  1  6  0  0  0
  7 25  1  0  0  0  0
  7 14  1  0  0  0  0
  8 19  1  0  0  0  0
  9  5  2  0  0  0  0
 10  3  1  0  0  0  0
 11  2  1  1  0  0  0
 11  9  1  0  0  0  0
 11 16  1  0  0  0  0
 13 12  2  0  0  0  0
 14  1  1  0  0  0  0
 15 10  2  0  0  0  0
 16 12  1  0  0  0  0
 16 26  1  0  0  0  0
 17  8  1  0  0  0  0
 18 22  1  0  0  0  0
 19 23  1  0  0  0  0
 19 30  1  0  0  0  0
 20  4  1  0  0  0  0
 21 18  1  0  0  0  0
 21 14  1  0  0  0  0
 21 22  1  0  0  0  0
 22 15  1  0  0  0  0
 24 20  1  0  0  0  0
 26 25  1  0  0  0  0
 28 29  1  0  0  0  0
 28 27  1  0  0  0  0
 29 27  1  0  0  0  0
 30 31  1  0  0  0  0
M  END
>  <MODEL>
9

>  <REMARK>
 VINA RESULT:      -7.8      2.612      6.794
  Name = 
  2 active torsions:
  status: ('A' for Active; 'I' for Inactive)
    1  A    between atoms: C_4  and  C_24
    2  A    between atoms: C_5  and  C_21
                            x       y       z     vdW  Elec       q    Type
                         _______ _______ _______ _____ _____    ______ ____

>  <TORSDO>
F 2

$$$$
