=
 OpenBabel11032420323D

 53 58  0  0  1  0  0  0  0  0999 V2000
  189.2660  178.3060  139.5130 C   0  0  1  0  0  3  0  0  0  0  0  0
  189.5480  175.8980  139.2270 O   0  0  0  0  0  1  0  0  0  0  0  0
  190.2010  177.1350  139.1900 C   0  0  2  0  0  3  0  0  0  0  0  0
  191.3780  177.1290  140.0540 N   0  0  0  0  0  0  0  0  0  0  0  0
  192.6930  177.2340  139.4910 C   0  0  0  0  0  3  0  0  0  0  0  0
  193.0410  176.5940  138.3810 C   0  0  0  0  0  2  0  0  0  0  0  0
  191.1780  177.0590  141.4960 C   0  0  0  0  0  2  0  0  0  0  0  0
  192.0050  178.1230  142.2030 C   0  0  0  0  0  2  0  0  0  0  0  0
  190.3920  178.8320  144.0490 C   0  0  0  0  0  2  0  0  0  0  0  0
  191.7350  179.4920  144.3450 C   0  0  0  0  0  2  0  0  0  0  0  0
  191.6820  178.1260  143.6890 C   0  0  0  0  0  0  0  0  0  0  0  0
  191.3680  175.6530  144.0040 C   0  0  0  0  0  1  0  0  0  0  0  0
  192.0540  176.9000  144.5390 C   0  0  2  0  0  3  0  0  0  0  0  0
  191.7280  177.0810  145.9470 N   0  0  0  0  0  2  0  0  0  0  0  0
  191.9130  175.7970  146.5960 C   0  0  0  0  0  2  0  0  0  0  0  0
  192.3670  176.0020  147.9990 C   0  0  0  0  0  3  0  0  0  0  0  0
  192.4240  177.1270  148.4630 O   0  0  0  0  0  0  0  0  0  0  0  0
  189.0600  179.1060  138.3100 N   0  0  0  0  0  2  0  0  0  0  0  0
  189.4330  178.2020  136.2360 C   0  0  0  0  0  1  0  0  0  0  0  0
  188.4820  178.2790  137.3330 N   0  0  0  0  0  0  0  0  0  0  0  0
  187.3010  178.9560  136.8140 C   0  0  0  0  0  2  0  0  0  0  0  0
  186.7140  178.1660  135.6440 C   0  0  0  0  0  2  0  0  0  0  0  0
  185.7140  177.0930  136.0770 C   0  0  0  0  0  0  0  0  0  0  0  0
  186.2160  175.8470  135.6990 O   0  0  0  0  0  1  0  0  0  0  0  0
  184.4860  177.2970  135.4410 O   0  0  0  0  0  1  0  0  0  0  0  0
  185.5390  177.1340  137.5960 C   0  0  0  0  0  2  0  0  0  0  0  0
  180.9220  177.7970  139.9070 C   0  0  2  0  0  3  0  0  0  0  0  0
  181.1200  178.6200  141.0550 O   0  0  0  0  0  0  0  0  0  0  0  0
  183.2800  178.0750  140.2440 C   0  0  1  0  0  3  0  0  0  0  0  0
  184.2590  179.9610  139.0990 O   0  0  0  0  0  1  0  0  0  0  0  0
  184.2380  177.8170  138.0210 C   0  0  1  0  0  3  0  0  0  0  0  0
  182.9760  176.9190  138.1260 C   0  0  2  0  0  3  0  0  0  0  0  0
  182.2800  177.5130  139.3210 C   0  0  1  0  0  0  0  0  0  0  0  0
  184.3980  178.5930  139.3440 C   0  0  2  0  0  3  0  0  0  0  0  0
  182.4860  179.0170  141.1230 C   0  0  0  0  0  2  0  0  0  0  0  0
  181.3360  178.5500  138.6770 C   0  0  0  0  0  2  0  0  0  0  0  0
  182.9740  174.6700  137.1970 O   0  0  0  0  0  1  0  0  0  0  0  0
  183.2550  175.4250  138.3410 C   0  0  0  0  0  2  0  0  0  0  0  0
  187.9220  177.8790  140.1080 C   0  0  0  0  0  2  0  0  0  0  0  0
  185.8730  178.7380  142.9130 C   0  0  0  0  0  3  0  0  0  0  0  0
  186.3190  178.5430  146.4930 C   0  0  0  0  0  0  0  0  0  0  0  0
  188.4110  177.5360  147.0430 N   0  0  0  0  0  0  0  0  0  0  0  0
  186.7130  178.6300  142.0840 C   0  0  0  0  0  3  0  0  0  0  0  0
  187.9330  178.0290  141.6180 C   0  0  1  0  0  3  0  0  0  0  0  0
  188.5190  177.0000  145.8030 C   0  0  0  0  0  3  0  0  0  0  0  0
  185.3620  178.4550  144.1920 C   0  0  0  0  0  0  0  0  0  0  0  0
  185.2470  179.3870  146.9000 N   0  0  0  0  0  1  0  0  0  0  0  0
  187.3460  178.2940  147.3980 C   0  0  0  0  0  3  0  0  0  0  0  0
  187.7610  176.3810  143.5940 C   0  0  0  0  0  3  0  0  0  0  0  0
  187.9430  176.6750  142.2800 C   0  0  0  0  0  3  0  0  0  0  0  0
  186.3910  178.0200  145.1800 C   0  0  0  0  0  0  0  0  0  0  0  0
  184.0560  178.3430  144.4020 C   0  0  0  0  0  2  0  0  0  0  0  0
  187.5510  177.2300  144.8200 C   0  0  0  0  0  0  0  0  0  0  0  0
  1 39  1  6  0  0  0
  3  2  1  1  0  0  0
  3  1  1  0  0  0  0
  3  4  1  0  0  0  0
  4  7  1  0  0  0  0
  5  4  1  0  0  0  0
  6  5  2  0  0  0  0
  7  8  1  0  0  0  0
  8 11  1  0  0  0  0
  9 10  1  0  0  0  0
 11  9  1  0  0  0  0
 11 10  1  0  0  0  0
 11 13  1  0  0  0  0
 13 12  1  6  0  0  0
 13 14  1  0  0  0  0
 14 15  1  0  0  0  0
 15 16  1  0  0  0  0
 16 17  2  0  0  0  0
 18  1  1  0  0  0  0
 19 20  1  0  0  0  0
 20 18  1  0  0  0  0
 21 20  1  0  0  0  0
 22 23  1  0  0  0  0
 22 21  1  0  0  0  0
 23 26  1  0  0  0  0
 24 23  1  0  0  0  0
 25 23  1  0  0  0  0
 27 36  1  6  0  0  0
 27 28  1  0  0  0  0
 28 35  1  0  0  0  0
 29 35  1  6  0  0  0
 31 26  1  1  0  0  0
 31 32  1  0  0  0  0
 31 34  1  0  0  0  0
 32 38  1  1  0  0  0
 32 33  1  0  0  0  0
 33 36  1  6  0  0  0
 33 27  1  0  0  0  0
 33 29  1  0  0  0  0
 34 30  1  6  0  0  0
 34 29  1  0  0  0  0
 37 38  1  0  0  0  0
 40 46  1  0  0  0  0
 41 47  1  0  0  0  0
 41 48  1  0  0  0  0
 42 48  2  0  0  0  0
 43 40  2  0  0  0  0
 44 39  1  6  0  0  0
 44 43  1  0  0  0  0
 44 50  1  0  0  0  0
 45 42  1  0  0  0  0
 46 52  2  0  0  0  0
 46 51  1  0  0  0  0
 49 53  1  0  0  0  0
 50 49  2  0  0  0  0
 51 41  2  0  0  0  0
 53 51  1  0  0  0  0
 53 45  2  0  0  0  0
M  END
>  <MODEL>
1

>  <REMARK>
 VINA RESULT:      -7.7      0.000      0.000
  Name = 
  20 active torsions:
  status: ('A' for Active; 'I' for Inactive)
    1  A    between atoms: C_6  and  C_36
    2  A    between atoms: C_6  and  C_42
    3  A    between atoms: C_8  and  C_53
    4  A    between atoms: C_10  and  C_18
    5  A    between atoms: C_10  and  N_20
    6  A    between atoms: C_10  and  C_49
    7  A    between atoms: C_12  and  C_18
    8  A    between atoms: C_15  and  N_39
    9  A    between atoms: C_15  and  C_50
   10  A    between atoms: C_16  and  C_47
   11  A    between atoms: C_16  and  C_50
   12  A    between atoms: N_20  and  N_39
   13  A    between atoms: N_29  and  C_35
   14  A    between atoms: N_29  and  C_36
   15  A    between atoms: N_29  and  C_49
   16  A    between atoms: C_30  and  N_37
   17  A    between atoms: C_30  and  C_42
   18  A    between atoms: C_33  and  C_47
   19  A    between atoms: N_37  and  C_53
   20  A    between atoms: C_38  and  C_45
                            x       y       z     vdW  Elec       q    Type
                         _______ _______ _______ _____ _____    ______ ____

>  <TORSDO>
F 20

$$$$
=
 OpenBabel11032420323D

 53 58  0  0  1  0  0  0  0  0999 V2000
  187.9530  177.4810  138.2970 C   0  0  1  0  0  3  0  0  0  0  0  0
  187.0090  179.3860  137.0970 O   0  0  0  0  0  1  0  0  0  0  0  0
  186.8350  178.0320  137.4040 C   0  0  2  0  0  3  0  0  0  0  0  0
  185.5160  177.7930  137.9810 N   0  0  0  0  0  0  0  0  0  0  0  0
  184.6570  176.7820  137.4350 C   0  0  0  0  0  3  0  0  0  0  0  0
  184.0020  176.9500  136.2920 C   0  0  0  0  0  2  0  0  0  0  0  0
  185.1160  178.5750  139.1440 C   0  0  0  0  0  2  0  0  0  0  0  0
  184.0440  179.5860  138.7660 C   0  0  0  0  0  2  0  0  0  0  0  0
  181.6140  179.0400  138.2110 C   0  0  0  0  0  2  0  0  0  0  0  0
  181.6000  180.1720  139.2340 C   0  0  0  0  0  2  0  0  0  0  0  0
  182.6900  179.1180  139.2730 C   0  0  0  0  0  0  0  0  0  0  0  0
  181.7030  176.9210  139.9920 C   0  0  0  0  0  1  0  0  0  0  0  0
  182.6320  178.0590  140.3860 C   0  0  2  0  0  3  0  0  0  0  0  0
  182.2160  178.6180  141.6650 N   0  0  0  0  0  2  0  0  0  0  0  0
  183.4030  178.7230  142.4910 C   0  0  0  0  0  2  0  0  0  0  0  0
  183.0380  179.2550  143.8330 C   0  0  0  0  0  3  0  0  0  0  0  0
  183.3560  178.6450  144.8390 O   0  0  0  0  0  0  0  0  0  0  0  0
  188.5610  176.3210  137.6520 N   0  0  0  0  0  2  0  0  0  0  0  0
  188.5920  175.8440  135.4100 C   0  0  0  0  0  1  0  0  0  0  0  0
  189.1090  176.7420  136.4290 N   0  0  0  0  0  0  0  0  0  0  0  0
  190.5490  176.5250  136.4860 C   0  0  0  0  0  2  0  0  0  0  0  0
  190.8900  175.1320  135.9560 C   0  0  0  0  0  2  0  0  0  0  0  0
  191.3220  174.1540  137.0510 C   0  0  0  0  0  0  0  0  0  0  0  0
  190.2820  173.2510  137.2670 O   0  0  0  0  0  1  0  0  0  0  0  0
  191.5740  174.8470  138.2390 O   0  0  0  0  0  1  0  0  0  0  0  0
  192.5730  173.3970  136.6010 C   0  0  0  0  0  2  0  0  0  0  0  0
  197.6310  173.8430  137.7460 C   0  0  2  0  0  3  0  0  0  0  0  0
  198.1770  174.8760  136.9290 O   0  0  0  0  0  0  0  0  0  0  0  0
  195.9780  174.4870  136.1330 C   0  0  1  0  0  3  0  0  0  0  0  0
  194.4920  176.2520  136.8440 O   0  0  0  0  0  1  0  0  0  0  0  0
  193.8560  173.9660  137.2080 C   0  0  1  0  0  3  0  0  0  0  0  0
  194.9210  172.9410  137.6860 C   0  0  2  0  0  3  0  0  0  0  0  0
  196.2010  173.6410  137.3180 C   0  0  1  0  0  0  0  0  0  0  0  0
  194.5400  174.9800  136.2680 C   0  0  2  0  0  3  0  0  0  0  0  0
  197.1390  175.4560  136.1440 C   0  0  0  0  0  2  0  0  0  0  0  0
  196.5440  174.4120  138.6100 C   0  0  0  0  0  2  0  0  0  0  0  0
  195.0910  170.5270  137.9310 O   0  0  0  0  0  1  0  0  0  0  0  0
  194.8410  171.5600  137.0210 C   0  0  0  0  0  2  0  0  0  0  0  0
  189.0240  178.5140  138.6580 C   0  0  0  0  0  2  0  0  0  0  0  0
  187.7200  178.2100  141.9760 C   0  0  0  0  0  3  0  0  0  0  0  0
  189.2020  177.4920  145.1920 C   0  0  0  0  0  0  0  0  0  0  0  0
  191.5360  177.0460  144.9810 N   0  0  0  0  0  0  0  0  0  0  0  0
  188.2910  178.5050  140.9790 C   0  0  0  0  0  3  0  0  0  0  0  0
  189.4310  178.3780  140.1130 C   0  0  1  0  0  3  0  0  0  0  0  0
  191.4060  176.8040  143.6540 C   0  0  0  0  0  3  0  0  0  0  0  0
  187.6750  177.5610  143.2220 C   0  0  0  0  0  0  0  0  0  0  0  0
  188.1270  177.9010  146.0310 N   0  0  0  0  0  1  0  0  0  0  0  0
  190.4730  177.3860  145.7480 C   0  0  0  0  0  3  0  0  0  0  0  0
  190.2120  176.4130  141.5890 C   0  0  0  0  0  3  0  0  0  0  0  0
  189.9390  176.9860  140.3880 C   0  0  0  0  0  3  0  0  0  0  0  0
  189.0140  177.2650  143.8080 C   0  0  0  0  0  0  0  0  0  0  0  0
  186.5450  177.0410  143.6850 C   0  0  0  0  0  2  0  0  0  0  0  0
  190.1720  176.9240  143.0060 C   0  0  0  0  0  0  0  0  0  0  0  0
  1 39  1  6  0  0  0
  3  2  1  1  0  0  0
  3  4  1  0  0  0  0
  3  1  1  0  0  0  0
  4  7  1  0  0  0  0
  5  4  1  0  0  0  0
  6  5  2  0  0  0  0
  8  7  1  0  0  0  0
  8 11  1  0  0  0  0
  9 10  1  0  0  0  0
  9 11  1  0  0  0  0
 10 11  1  0  0  0  0
 11 13  1  0  0  0  0
 13 12  1  6  0  0  0
 13 14  1  0  0  0  0
 14 15  1  0  0  0  0
 15 16  1  0  0  0  0
 16 17  2  0  0  0  0
 18  1  1  0  0  0  0
 19 20  1  0  0  0  0
 20 21  1  0  0  0  0
 20 18  1  0  0  0  0
 22 21  1  0  0  0  0
 22 23  1  0  0  0  0
 23 24  1  0  0  0  0
 23 25  1  0  0  0  0
 26 23  1  0  0  0  0
 27 36  1  1  0  0  0
 28 27  1  0  0  0  0
 29 35  1  1  0  0  0
 29 34  1  0  0  0  0
 29 33  1  0  0  0  0
 31 26  1  6  0  0  0
 31 32  1  0  0  0  0
 32 38  1  6  0  0  0
 33 32  1  0  0  0  0
 33 27  1  0  0  0  0
 33 36  1  1  0  0  0
 34 30  1  1  0  0  0
 34 31  1  0  0  0  0
 35 28  1  0  0  0  0
 38 37  1  0  0  0  0
 40 46  1  0  0  0  0
 41 48  1  0  0  0  0
 41 47  1  0  0  0  0
 42 48  2  0  0  0  0
 43 40  2  0  0  0  0
 44 39  1  6  0  0  0
 44 50  1  0  0  0  0
 44 43  1  0  0  0  0
 45 42  1  0  0  0  0
 46 52  2  0  0  0  0
 46 51  1  0  0  0  0
 49 53  1  0  0  0  0
 50 49  2  0  0  0  0
 51 41  2  0  0  0  0
 53 45  2  0  0  0  0
 53 51  1  0  0  0  0
M  END
>  <MODEL>
2

>  <REMARK>
 VINA RESULT:      -7.5      3.196      8.782
  Name = 
  20 active torsions:
  status: ('A' for Active; 'I' for Inactive)
    1  A    between atoms: C_6  and  C_36
    2  A    between atoms: C_6  and  C_42
    3  A    between atoms: C_8  and  C_53
    4  A    between atoms: C_10  and  C_18
    5  A    between atoms: C_10  and  N_20
    6  A    between atoms: C_10  and  C_49
    7  A    between atoms: C_12  and  C_18
    8  A    between atoms: C_15  and  N_39
    9  A    between atoms: C_15  and  C_50
   10  A    between atoms: C_16  and  C_47
   11  A    between atoms: C_16  and  C_50
   12  A    between atoms: N_20  and  N_39
   13  A    between atoms: N_29  and  C_35
   14  A    between atoms: N_29  and  C_36
   15  A    between atoms: N_29  and  C_49
   16  A    between atoms: C_30  and  N_37
   17  A    between atoms: C_30  and  C_42
   18  A    between atoms: C_33  and  C_47
   19  A    between atoms: N_37  and  C_53
   20  A    between atoms: C_38  and  C_45
                            x       y       z     vdW  Elec       q    Type
                         _______ _______ _______ _____ _____    ______ ____

>  <TORSDO>
F 20

$$$$
=
 OpenBabel11032420323D

 53 58  0  0  1  0  0  0  0  0999 V2000
  187.6870  178.3860  141.0540 C   0  0  1  0  0  3  0  0  0  0  0  0
  187.0640  177.2520  143.1240 O   0  0  0  0  0  1  0  0  0  0  0  0
  188.0250  177.3280  142.1100 C   0  0  2  0  0  3  0  0  0  0  0  0
  189.3580  177.5290  142.6690 N   0  0  0  0  0  0  0  0  0  0  0  0
  190.5230  177.3720  141.8450 C   0  0  0  0  0  3  0  0  0  0  0  0
  191.7540  177.4640  142.3340 C   0  0  0  0  0  2  0  0  0  0  0  0
  189.4710  177.9330  144.0640 C   0  0  0  0  0  2  0  0  0  0  0  0
  189.4190  176.7180  144.9790 C   0  0  0  0  0  2  0  0  0  0  0  0
  190.6380  177.4430  147.1000 C   0  0  0  0  0  2  0  0  0  0  0  0
  189.8570  176.1770  147.4390 C   0  0  0  0  0  2  0  0  0  0  0  0
  189.3100  177.1660  146.4280 C   0  0  0  0  0  0  0  0  0  0  0  0
  188.1440  178.2810  148.3550 C   0  0  0  0  0  1  0  0  0  0  0  0
  188.1290  178.0550  146.8510 C   0  0  2  0  0  3  0  0  0  0  0  0
  186.8440  177.5030  146.4440 N   0  0  0  0  0  2  0  0  0  0  0  0
  185.8210  178.4280  146.8930 C   0  0  0  0  0  2  0  0  0  0  0  0
  185.0310  178.9090  145.7260 C   0  0  0  0  0  3  0  0  0  0  0  0
  183.8270  179.0700  145.8290 O   0  0  0  0  0  0  0  0  0  0  0  0
  187.4920  177.7360  139.7620 N   0  0  0  0  0  2  0  0  0  0  0  0
  187.2820  178.4170  137.5830 C   0  0  0  0  0  1  0  0  0  0  0  0
  188.1000  178.5340  138.7790 N   0  0  0  0  0  0  0  0  0  0  0  0
  189.3930  177.9430  138.4590 C   0  0  0  0  0  2  0  0  0  0  0  0
  189.2740  177.0620  137.2150 C   0  0  0  0  0  2  0  0  0  0  0  0
  189.9410  175.6940  137.3730 C   0  0  0  0  0  0  0  0  0  0  0  0
  188.9680  174.7090  137.2020 O   0  0  0  0  0  1  0  0  0  0  0  0
  190.4860  175.5730  138.6550 O   0  0  0  0  0  1  0  0  0  0  0  0
  191.0300  175.5260  136.3130 C   0  0  0  0  0  2  0  0  0  0  0  0
  195.6460  173.2140  136.9800 C   0  0  2  0  0  3  0  0  0  0  0  0
  196.6510  174.0820  136.4610 O   0  0  0  0  0  0  0  0  0  0  0  0
  194.5680  175.0210  135.8300 C   0  0  1  0  0  3  0  0  0  0  0  0
  194.0490  176.9380  137.2010 O   0  0  0  0  0  1  0  0  0  0  0  0
  192.4000  175.2170  136.9200 C   0  0  1  0  0  3  0  0  0  0  0  0
  192.8360  173.7270  136.9460 C   0  0  2  0  0  3  0  0  0  0  0  0
  194.3110  173.8390  136.6700 C   0  0  1  0  0  0  0  0  0  0  0  0
  193.5240  176.0450  136.2640 C   0  0  2  0  0  3  0  0  0  0  0  0
  196.0460  175.2890  136.0080 C   0  0  0  0  0  2  0  0  0  0  0  0
  194.9120  173.9090  138.0890 C   0  0  0  0  0  2  0  0  0  0  0  0
  192.7860  171.5880  135.7870 O   0  0  0  0  0  1  0  0  0  0  0  0
  192.1510  172.8300  135.9050 C   0  0  0  0  0  2  0  0  0  0  0  0
  186.4730  179.2490  141.4080 C   0  0  0  0  0  2  0  0  0  0  0  0
  183.0740  178.6310  142.3370 C   0  0  0  0  0  3  0  0  0  0  0  0
  180.2120  177.2680  140.6030 C   0  0  0  0  0  0  0  0  0  0  0  0
  180.7410  176.7770  138.3280 N   0  0  0  0  0  0  0  0  0  0  0  0
  184.2060  178.5790  141.9920 C   0  0  0  0  0  3  0  0  0  0  0  0
  185.1900  178.5850  140.9430 C   0  0  1  0  0  3  0  0  0  0  0  0
  181.8290  177.5820  138.3710 C   0  0  0  0  0  3  0  0  0  0  0  0
  181.6980  178.6550  142.0460 C   0  0  0  0  0  0  0  0  0  0  0  0
  179.3680  177.0180  141.7220 N   0  0  0  0  0  1  0  0  0  0  0  0
  179.9410  176.6080  139.4080 C   0  0  0  0  0  3  0  0  0  0  0  0
  183.3060  179.2480  139.3120 C   0  0  0  0  0  3  0  0  0  0  0  0
  184.5450  179.3960  139.8490 C   0  0  0  0  0  3  0  0  0  0  0  0
  181.3460  178.1090  140.7040 C   0  0  0  0  0  0  0  0  0  0  0  0
  180.8480  179.3400  142.8020 C   0  0  0  0  0  2  0  0  0  0  0  0
  182.1970  178.2550  139.5410 C   0  0  0  0  0  0  0  0  0  0  0  0
  1 39  1  1  0  0  0
  1  3  1  0  0  0  0
  3  4  1  0  0  0  0
  3  2  1  1  0  0  0
  4  7  1  0  0  0  0
  5  6  2  0  0  0  0
  5  4  1  0  0  0  0
  7  8  1  0  0  0  0
  8 11  1  0  0  0  0
  9 10  1  0  0  0  0
 11 13  1  0  0  0  0
 11  9  1  0  0  0  0
 11 10  1  0  0  0  0
 13 12  1  1  0  0  0
 14 13  1  0  0  0  0
 14 15  1  0  0  0  0
 16 17  2  0  0  0  0
 16 15  1  0  0  0  0
 18  1  1  0  0  0  0
 19 20  1  0  0  0  0
 20 18  1  0  0  0  0
 21 20  1  0  0  0  0
 22 23  1  0  0  0  0
 22 21  1  0  0  0  0
 23 25  1  0  0  0  0
 24 23  1  0  0  0  0
 26 23  1  0  0  0  0
 27 36  1  1  0  0  0
 28 27  1  0  0  0  0
 29 35  1  1  0  0  0
 29 34  1  0  0  0  0
 29 33  1  0  0  0  0
 31 26  1  6  0  0  0
 31 32  1  0  0  0  0
 32 38  1  6  0  0  0
 33 32  1  0  0  0  0
 33 27  1  0  0  0  0
 33 36  1  1  0  0  0
 34 31  1  0  0  0  0
 34 30  1  1  0  0  0
 35 28  1  0  0  0  0
 37 38  1  0  0  0  0
 41 51  1  0  0  0  0
 41 47  1  0  0  0  0
 42 45  2  0  0  0  0
 42 48  1  0  0  0  0
 43 40  2  0  0  0  0
 44 39  1  1  0  0  0
 44 43  1  0  0  0  0
 45 53  1  0  0  0  0
 46 40  1  0  0  0  0
 46 52  2  0  0  0  0
 48 41  2  0  0  0  0
 49 53  1  0  0  0  0
 49 50  2  0  0  0  0
 50 44  1  0  0  0  0
 51 46  1  0  0  0  0
 53 51  2  0  0  0  0
M  END
>  <MODEL>
3

>  <REMARK>
 VINA RESULT:      -7.5      3.128      7.758
  Name = 
  20 active torsions:
  status: ('A' for Active; 'I' for Inactive)
    1  A    between atoms: C_6  and  C_36
    2  A    between atoms: C_6  and  C_42
    3  A    between atoms: C_8  and  C_53
    4  A    between atoms: C_10  and  C_18
    5  A    between atoms: C_10  and  N_20
    6  A    between atoms: C_10  and  C_49
    7  A    between atoms: C_12  and  C_18
    8  A    between atoms: C_15  and  N_39
    9  A    between atoms: C_15  and  C_50
   10  A    between atoms: C_16  and  C_47
   11  A    between atoms: C_16  and  C_50
   12  A    between atoms: N_20  and  N_39
   13  A    between atoms: N_29  and  C_35
   14  A    between atoms: N_29  and  C_36
   15  A    between atoms: N_29  and  C_49
   16  A    between atoms: C_30  and  N_37
   17  A    between atoms: C_30  and  C_42
   18  A    between atoms: C_33  and  C_47
   19  A    between atoms: N_37  and  C_53
   20  A    between atoms: C_38  and  C_45
                            x       y       z     vdW  Elec       q    Type
                         _______ _______ _______ _____ _____    ______ ____

>  <TORSDO>
F 20

$$$$
=
 OpenBabel11032420323D

 53 58  0  0  1  0  0  0  0  0999 V2000
  189.2330  178.2240  139.5280 C   0  0  1  0  0  3  0  0  0  0  0  0
  189.5960  175.8110  139.4580 O   0  0  0  0  0  1  0  0  0  0  0  0
  190.1440  177.0570  139.1320 C   0  0  2  0  0  3  0  0  0  0  0  0
  191.4830  177.2010  139.6940 N   0  0  0  0  0  0  0  0  0  0  0  0
  191.6670  177.7930  140.9890 C   0  0  0  0  0  3  0  0  0  0  0  0
  191.7180  177.0660  142.0990 C   0  0  0  0  0  2  0  0  0  0  0  0
  192.6140  176.6910  138.9300 C   0  0  0  0  0  2  0  0  0  0  0  0
  192.2220  176.4700  137.4770 C   0  0  0  0  0  2  0  0  0  0  0  0
  193.7360  174.4650  137.9210 C   0  0  0  0  0  2  0  0  0  0  0  0
  194.1690  175.0710  136.5900 C   0  0  0  0  0  2  0  0  0  0  0  0
  192.7130  175.1090  137.0110 C   0  0  0  0  0  0  0  0  0  0  0  0
  192.4820  173.0290  135.6190 C   0  0  0  0  0  1  0  0  0  0  0  0
  191.7310  174.1600  136.3030 C   0  0  2  0  0  3  0  0  0  0  0  0
  190.8880  174.8520  135.3380 N   0  0  0  0  0  2  0  0  0  0  0  0
  189.7440  173.9970  135.0810 C   0  0  0  0  0  2  0  0  0  0  0  0
  188.4870  174.7260  135.4080 C   0  0  0  0  0  3  0  0  0  0  0  0
  188.1760  174.9140  136.5710 O   0  0  0  0  0  0  0  0  0  0  0  0
  188.9390  179.0310  138.3490 N   0  0  0  0  0  2  0  0  0  0  0  0
  189.2400  178.3310  136.1870 C   0  0  0  0  0  1  0  0  0  0  0  0
  188.4030  178.1830  137.3660 N   0  0  0  0  0  0  0  0  0  0  0  0
  187.0850  178.6910  137.0070 C   0  0  0  0  0  2  0  0  0  0  0  0
  186.0060  177.9570  137.8040 C   0  0  0  0  0  2  0  0  0  0  0  0
  184.9820  177.2390  136.9220 C   0  0  0  0  0  0  0  0  0  0  0  0
  184.9930  175.8840  137.2520 O   0  0  0  0  0  1  0  0  0  0  0  0
  185.3290  177.3790  135.5750 O   0  0  0  0  0  1  0  0  0  0  0  0
  183.5880  177.8160  137.1760 C   0  0  0  0  0  2  0  0  0  0  0  0
  181.1050  179.0460  141.5820 C   0  0  2  0  0  3  0  0  0  0  0  0
  180.1300  178.0360  141.8340 O   0  0  0  0  0  0  0  0  0  0  0  0
  180.9870  177.6120  139.6640 C   0  0  1  0  0  3  0  0  0  0  0  0
  182.5010  175.7330  139.7000 O   0  0  0  0  0  1  0  0  0  0  0  0
  183.1950  177.7780  138.6540 C   0  0  1  0  0  3  0  0  0  0  0  0
  182.8510  179.1370  139.3230 C   0  0  2  0  0  3  0  0  0  0  0  0
  181.7290  178.7440  140.2450 C   0  0  1  0  0  0  0  0  0  0  0  0
  182.0380  176.7950  138.9200 C   0  0  2  0  0  3  0  0  0  0  0  0
  180.2270  177.0260  140.8340 C   0  0  0  0  0  2  0  0  0  0  0  0
  182.4710  178.4260  141.5600 C   0  0  0  0  0  2  0  0  0  0  0  0
  182.9380  181.4900  138.7100 O   0  0  0  0  0  1  0  0  0  0  0  0
  182.4050  180.2450  138.3580 C   0  0  0  0  0  2  0  0  0  0  0  0
  187.9360  177.7910  140.2170 C   0  0  0  0  0  2  0  0  0  0  0  0
  186.0140  178.6130  143.1210 C   0  0  0  0  0  3  0  0  0  0  0  0
  186.6960  178.5760  146.6680 C   0  0  0  0  0  0  0  0  0  0  0  0
  188.8810  177.7270  147.1130 N   0  0  0  0  0  0  0  0  0  0  0  0
  186.8050  178.5310  142.2430 C   0  0  0  0  0  3  0  0  0  0  0  0
  188.0320  177.9950  141.7180 C   0  0  1  0  0  3  0  0  0  0  0  0
  188.9470  177.1560  145.8860 C   0  0  0  0  0  3  0  0  0  0  0  0
  185.6050  178.3440  144.4390 C   0  0  0  0  0  0  0  0  0  0  0  0
  185.5970  179.3620  147.1180 N   0  0  0  0  0  1  0  0  0  0  0  0
  187.7920  178.4260  147.5120 C   0  0  0  0  0  3  0  0  0  0  0  0
  188.0950  176.4100  143.7510 C   0  0  0  0  0  3  0  0  0  0  0  0
  188.1740  176.6680  142.4200 C   0  0  0  0  0  3  0  0  0  0  0  0
  186.7210  178.0120  145.3710 C   0  0  0  0  0  0  0  0  0  0  0  0
  184.3250  178.1550  144.7360 C   0  0  0  0  0  2  0  0  0  0  0  0
  187.9060  177.2870  144.9610 C   0  0  0  0  0  0  0  0  0  0  0  0
  1 39  1  6  0  0  0
  3  2  1  1  0  0  0
  3  1  1  0  0  0  0
  3  4  1  0  0  0  0
  4  5  1  0  0  0  0
  5  6  2  0  0  0  0
  7  4  1  0  0  0  0
  8  7  1  0  0  0  0
 10 11  1  0  0  0  0
 10  9  1  0  0  0  0
 11  8  1  0  0  0  0
 11  9  1  0  0  0  0
 13 12  1  6  0  0  0
 13 11  1  0  0  0  0
 14 13  1  0  0  0  0
 15 14  1  0  0  0  0
 15 16  1  0  0  0  0
 16 17  2  0  0  0  0
 18  1  1  0  0  0  0
 19 20  1  0  0  0  0
 20 18  1  0  0  0  0
 21 20  1  0  0  0  0
 21 22  1  0  0  0  0
 23 26  1  0  0  0  0
 23 24  1  0  0  0  0
 23 22  1  0  0  0  0
 25 23  1  0  0  0  0
 27 36  1  1  0  0  0
 27 28  1  0  0  0  0
 29 33  1  0  0  0  0
 29 35  1  1  0  0  0
 31 26  1  6  0  0  0
 31 34  1  0  0  0  0
 31 32  1  0  0  0  0
 32 38  1  6  0  0  0
 32 33  1  0  0  0  0
 33 36  1  1  0  0  0
 33 27  1  0  0  0  0
 34 29  1  0  0  0  0
 34 30  1  1  0  0  0
 35 28  1  0  0  0  0
 38 37  1  0  0  0  0
 40 46  1  0  0  0  0
 41 47  1  0  0  0  0
 41 48  1  0  0  0  0
 42 48  2  0  0  0  0
 43 40  2  0  0  0  0
 44 39  1  6  0  0  0
 44 43  1  0  0  0  0
 44 50  1  0  0  0  0
 45 42  1  0  0  0  0
 46 52  2  0  0  0  0
 46 51  1  0  0  0  0
 49 53  1  0  0  0  0
 50 49  2  0  0  0  0
 51 41  2  0  0  0  0
 53 51  1  0  0  0  0
 53 45  2  0  0  0  0
M  END
>  <MODEL>
4

>  <REMARK>
 VINA RESULT:      -7.2      1.959      4.711
  Name = 
  20 active torsions:
  status: ('A' for Active; 'I' for Inactive)
    1  A    between atoms: C_6  and  C_36
    2  A    between atoms: C_6  and  C_42
    3  A    between atoms: C_8  and  C_53
    4  A    between atoms: C_10  and  C_18
    5  A    between atoms: C_10  and  N_20
    6  A    between atoms: C_10  and  C_49
    7  A    between atoms: C_12  and  C_18
    8  A    between atoms: C_15  and  N_39
    9  A    between atoms: C_15  and  C_50
   10  A    between atoms: C_16  and  C_47
   11  A    between atoms: C_16  and  C_50
   12  A    between atoms: N_20  and  N_39
   13  A    between atoms: N_29  and  C_35
   14  A    between atoms: N_29  and  C_36
   15  A    between atoms: N_29  and  C_49
   16  A    between atoms: C_30  and  N_37
   17  A    between atoms: C_30  and  C_42
   18  A    between atoms: C_33  and  C_47
   19  A    between atoms: N_37  and  C_53
   20  A    between atoms: C_38  and  C_45
                            x       y       z     vdW  Elec       q    Type
                         _______ _______ _______ _____ _____    ______ ____

>  <TORSDO>
F 20

$$$$
=
 OpenBabel11032420323D

 53 58  0  0  1  0  0  0  0  0999 V2000
  189.7460  177.9700  139.2950 C   0  0  1  0  0  3  0  0  0  0  0  0
  189.9270  175.5670  138.9080 O   0  0  0  0  0  1  0  0  0  0  0  0
  190.4440  176.8200  138.5600 C   0  0  2  0  0  3  0  0  0  0  0  0
  191.8910  176.8580  138.7490 N   0  0  0  0  0  0  0  0  0  0  0  0
  192.4490  177.2540  140.0100 C   0  0  0  0  0  3  0  0  0  0  0  0
  193.7560  177.2420  140.2400 C   0  0  0  0  0  2  0  0  0  0  0  0
  192.7450  176.4420  137.6430 C   0  0  0  0  0  2  0  0  0  0  0  0
  192.9380  174.9330  137.6550 C   0  0  0  0  0  2  0  0  0  0  0  0
  193.9780  175.4840  135.3900 C   0  0  0  0  0  2  0  0  0  0  0  0
  193.2730  174.1380  135.2480 C   0  0  0  0  0  2  0  0  0  0  0  0
  193.9170  174.5300  136.5640 C   0  0  0  0  0  0  0  0  0  0  0  0
  194.9900  172.3830  137.3120 C   0  0  0  0  0  1  0  0  0  0  0  0
  195.2350  173.8410  136.9570 C   0  0  2  0  0  3  0  0  0  0  0  0
  195.9070  174.5150  138.0600 N   0  0  0  0  0  2  0  0  0  0  0  0
  197.3320  174.4280  137.8090 C   0  0  0  0  0  2  0  0  0  0  0  0
  198.0840  174.9490  138.9840 C   0  0  0  0  0  3  0  0  0  0  0  0
  197.4820  175.3970  139.9440 O   0  0  0  0  0  0  0  0  0  0  0  0
  189.1600  178.8840  138.3190 N   0  0  0  0  0  2  0  0  0  0  0  0
  188.9660  178.5450  136.0600 C   0  0  0  0  0  1  0  0  0  0  0  0
  188.4790  178.1160  137.3600 N   0  0  0  0  0  0  0  0  0  0  0  0
  187.0680  178.4770  137.4180 C   0  0  0  0  0  2  0  0  0  0  0  0
  186.2430  177.5050  136.5740 C   0  0  0  0  0  2  0  0  0  0  0  0
  184.8440  177.2490  137.1380 C   0  0  0  0  0  0  0  0  0  0  0  0
  184.7780  175.9230  137.5640 O   0  0  0  0  0  1  0  0  0  0  0  0
  183.8820  177.4530  136.1430 O   0  0  0  0  0  1  0  0  0  0  0  0
  184.5880  178.1800  138.3240 C   0  0  0  0  0  2  0  0  0  0  0  0
  180.6510  178.5790  141.7070 C   0  0  2  0  0  3  0  0  0  0  0  0
  179.7670  179.5940  141.2340 O   0  0  0  0  0  0  0  0  0  0  0  0
  181.6930  179.6900  139.8540 C   0  0  1  0  0  3  0  0  0  0  0  0
  181.2390  178.7140  137.6930 O   0  0  0  0  0  1  0  0  0  0  0  0
  183.1850  178.0140  138.9110 C   0  0  1  0  0  3  0  0  0  0  0  0
  183.0890  177.7880  140.4450 C   0  0  2  0  0  3  0  0  0  0  0  0
  181.8440  178.5610  140.7870 C   0  0  1  0  0  0  0  0  0  0  0  0
  182.2550  179.1830  138.5300 C   0  0  2  0  0  3  0  0  0  0  0  0
  180.2390  180.0870  139.9840 C   0  0  0  0  0  2  0  0  0  0  0  0
  180.7440  177.4840  140.6860 C   0  0  0  0  0  2  0  0  0  0  0  0
  184.0250  178.3090  142.6290 O   0  0  0  0  0  1  0  0  0  0  0  0
  184.2900  178.2970  141.2550 C   0  0  0  0  0  2  0  0  0  0  0  0
  188.6860  177.5110  140.3000 C   0  0  0  0  0  2  0  0  0  0  0  0
  187.6870  177.8840  143.7150 C   0  0  0  0  0  3  0  0  0  0  0  0
  189.4200  177.6160  146.8740 C   0  0  0  0  0  0  0  0  0  0  0  0
  191.6920  176.9610  146.5540 N   0  0  0  0  0  0  0  0  0  0  0  0
  188.1770  177.9580  142.6390 C   0  0  0  0  0  3  0  0  0  0  0  0
  189.2210  177.5960  141.7180 C   0  0  1  0  0  3  0  0  0  0  0  0
  191.4210  176.5050  145.3070 C   0  0  0  0  0  3  0  0  0  0  0  0
  187.7200  177.4640  145.0570 C   0  0  0  0  0  0  0  0  0  0  0  0
  188.4570  178.2450  147.7140 N   0  0  0  0  0  1  0  0  0  0  0  0
  190.7290  177.5090  147.3340 C   0  0  0  0  0  3  0  0  0  0  0  0
  190.0150  175.8600  143.4510 C   0  0  0  0  0  3  0  0  0  0  0  0
  189.6650  176.2370  142.1940 C   0  0  0  0  0  3  0  0  0  0  0  0
  189.0880  177.1700  145.5730 C   0  0  0  0  0  0  0  0  0  0  0  0
  186.6090  177.1200  145.6970 C   0  0  0  0  0  2  0  0  0  0  0  0
  190.1410  176.6070  144.7520 C   0  0  0  0  0  0  0  0  0  0  0  0
  1 39  1  1  0  0  0
  3  4  1  0  0  0  0
  3  2  1  1  0  0  0
  3  1  1  0  0  0  0
  4  5  1  0  0  0  0
  5  6  2  0  0  0  0
  7  8  1  0  0  0  0
  7  4  1  0  0  0  0
  9 11  1  0  0  0  0
 10  9  1  0  0  0  0
 10 11  1  0  0  0  0
 11 13  1  0  0  0  0
 11  8  1  0  0  0  0
 13 12  1  1  0  0  0
 13 14  1  0  0  0  0
 15 14  1  0  0  0  0
 15 16  1  0  0  0  0
 16 17  2  0  0  0  0
 18  1  1  0  0  0  0
 19 20  1  0  0  0  0
 20 21  1  0  0  0  0
 20 18  1  0  0  0  0
 22 23  1  0  0  0  0
 22 21  1  0  0  0  0
 23 24  1  0  0  0  0
 23 26  1  0  0  0  0
 25 23  1  0  0  0  0
 27 36  1  6  0  0  0
 28 27  1  0  0  0  0
 29 35  1  6  0  0  0
 29 33  1  0  0  0  0
 31 26  1  1  0  0  0
 31 32  1  0  0  0  0
 32 33  1  0  0  0  0
 32 38  1  1  0  0  0
 33 36  1  6  0  0  0
 33 27  1  0  0  0  0
 34 30  1  6  0  0  0
 34 31  1  0  0  0  0
 34 29  1  0  0  0  0
 35 28  1  0  0  0  0
 38 37  1  0  0  0  0
 40 46  1  0  0  0  0
 41 48  1  0  0  0  0
 41 47  1  0  0  0  0
 42 48  2  0  0  0  0
 43 40  2  0  0  0  0
 44 39  1  6  0  0  0
 44 50  1  0  0  0  0
 44 43  1  0  0  0  0
 45 42  1  0  0  0  0
 46 51  1  0  0  0  0
 46 52  2  0  0  0  0
 49 53  1  0  0  0  0
 50 49  2  0  0  0  0
 51 41  2  0  0  0  0
 53 45  2  0  0  0  0
 53 51  1  0  0  0  0
M  END
>  <MODEL>
5

>  <REMARK>
 VINA RESULT:      -6.9      2.401      4.621
  Name = 
  20 active torsions:
  status: ('A' for Active; 'I' for Inactive)
    1  A    between atoms: C_6  and  C_36
    2  A    between atoms: C_6  and  C_42
    3  A    between atoms: C_8  and  C_53
    4  A    between atoms: C_10  and  C_18
    5  A    between atoms: C_10  and  N_20
    6  A    between atoms: C_10  and  C_49
    7  A    between atoms: C_12  and  C_18
    8  A    between atoms: C_15  and  N_39
    9  A    between atoms: C_15  and  C_50
   10  A    between atoms: C_16  and  C_47
   11  A    between atoms: C_16  and  C_50
   12  A    between atoms: N_20  and  N_39
   13  A    between atoms: N_29  and  C_35
   14  A    between atoms: N_29  and  C_36
   15  A    between atoms: N_29  and  C_49
   16  A    between atoms: C_30  and  N_37
   17  A    between atoms: C_30  and  C_42
   18  A    between atoms: C_33  and  C_47
   19  A    between atoms: N_37  and  C_53
   20  A    between atoms: C_38  and  C_45
                            x       y       z     vdW  Elec       q    Type
                         _______ _______ _______ _____ _____    ______ ____

>  <TORSDO>
F 20

$$$$
=
 OpenBabel11032420323D

 53 58  0  0  1  0  0  0  0  0999 V2000
  188.6620  176.8910  138.1720 C   0  0  1  0  0  3  0  0  0  0  0  0
  189.1040  179.2230  138.7440 O   0  0  0  0  0  1  0  0  0  0  0  0
  188.6070  178.0060  139.2230 C   0  0  2  0  0  3  0  0  0  0  0  0
  189.2800  177.6180  140.4580 N   0  0  0  0  0  0  0  0  0  0  0  0
  190.4680  176.8130  140.4160 C   0  0  0  0  0  3  0  0  0  0  0  0
  191.6790  177.3450  140.3030 C   0  0  0  0  0  2  0  0  0  0  0  0
  188.7420  178.1030  141.7230 C   0  0  0  0  0  2  0  0  0  0  0  0
  188.7980  177.0110  142.7810 C   0  0  0  0  0  2  0  0  0  0  0  0
  190.6620  178.4490  143.7650 C   0  0  0  0  0  2  0  0  0  0  0  0
  190.8910  177.0210  144.2500 C   0  0  0  0  0  2  0  0  0  0  0  0
  189.4820  177.5390  144.0320 C   0  0  0  0  0  0  0  0  0  0  0  0
  189.1170  177.0710  146.4740 C   0  0  0  0  0  1  0  0  0  0  0  0
  188.6320  177.8640  145.2710 C   0  0  2  0  0  3  0  0  0  0  0  0
  187.2130  177.6160  145.0520 N   0  0  0  0  0  2  0  0  0  0  0  0
  186.4950  178.2670  146.1320 C   0  0  0  0  0  2  0  0  0  0  0  0
  185.2260  178.8480  145.6140 C   0  0  0  0  0  3  0  0  0  0  0  0
  184.2130  178.8040  146.2900 O   0  0  0  0  0  0  0  0  0  0  0  0
  187.3130  176.3960  137.9190 N   0  0  0  0  0  2  0  0  0  0  0  0
  185.7770  178.0820  137.6790 C   0  0  0  0  0  1  0  0  0  0  0  0
  186.7160  177.2330  136.9620 N   0  0  0  0  0  0  0  0  0  0  0  0
  185.9240  176.3980  136.0680 C   0  0  0  0  0  2  0  0  0  0  0  0
  184.4360  176.6980  136.2510 C   0  0  0  0  0  2  0  0  0  0  0  0
  183.5890  175.4450  136.4830 C   0  0  0  0  0  0  0  0  0  0  0  0
  184.2650  174.6190  137.3810 O   0  0  0  0  0  1  0  0  0  0  0  0
  183.4130  174.7560  135.2790 O   0  0  0  0  0  1  0  0  0  0  0  0
  182.2340  175.8400  137.0720 C   0  0  0  0  0  2  0  0  0  0  0  0
  180.6300  180.1450  139.5210 C   0  0  2  0  0  3  0  0  0  0  0  0
  180.5790  179.8620  140.9180 O   0  0  0  0  0  0  0  0  0  0  0  0
  180.9810  177.7930  139.8330 C   0  0  1  0  0  3  0  0  0  0  0  0
  183.2880  177.1320  140.0920 O   0  0  0  0  0  1  0  0  0  0  0  0
  182.3050  177.1230  137.9020 C   0  0  1  0  0  3  0  0  0  0  0  0
  181.3630  178.2840  137.4810 C   0  0  2  0  0  3  0  0  0  0  0  0
  180.9750  178.8590  138.8160 C   0  0  1  0  0  0  0  0  0  0  0  0
  182.1030  176.8520  139.4070 C   0  0  2  0  0  3  0  0  0  0  0  0
  181.0430  178.5350  141.1500 C   0  0  0  0  0  2  0  0  0  0  0  0
  182.0340  179.9610  139.0260 C   0  0  0  0  0  2  0  0  0  0  0  0
  179.1120  178.8290  136.7360 O   0  0  0  0  0  1  0  0  0  0  0  0
  180.1200  177.8590  136.6860 C   0  0  0  0  0  2  0  0  0  0  0  0
  189.3330  177.3090  136.8600 C   0  0  0  0  0  2  0  0  0  0  0  0
  192.6460  175.9700  137.0170 C   0  0  0  0  0  3  0  0  0  0  0  0
  194.1790  172.9310  135.8040 C   0  0  0  0  0  0  0  0  0  0  0  0
  192.5670  171.5140  134.7630 N   0  0  0  0  0  0  0  0  0  0  0  0
  191.5880  176.4050  136.7090 C   0  0  0  0  0  3  0  0  0  0  0  0
  190.2170  176.1950  136.3320 C   0  0  1  0  0  3  0  0  0  0  0  0
  191.5480  172.1680  135.3700 C   0  0  0  0  0  3  0  0  0  0  0  0
  193.5260  174.8880  137.2040 C   0  0  0  0  0  0  0  0  0  0  0  0
  195.5480  173.3000  135.9380 N   0  0  0  0  0  1  0  0  0  0  0  0
  193.8580  171.8730  134.9600 C   0  0  0  0  0  3  0  0  0  0  0  0
  190.5340  173.7070  136.9330 C   0  0  0  0  0  3  0  0  0  0  0  0
  189.8600  174.8850  136.9870 C   0  0  0  0  0  3  0  0  0  0  0  0
  193.1510  173.6570  136.4510 C   0  0  0  0  0  0  0  0  0  0  0  0
  194.4440  174.9060  138.1630 C   0  0  0  0  0  2  0  0  0  0  0  0
  191.7770  173.2650  136.2060 C   0  0  0  0  0  0  0  0  0  0  0  0
  1 39  1  6  0  0  0
  1  3  1  0  0  0  0
  3  2  1  6  0  0  0
  3  4  1  0  0  0  0
  4  7  1  0  0  0  0
  5  4  1  0  0  0  0
  6  5  2  0  0  0  0
  7  8  1  0  0  0  0
  8 11  1  0  0  0  0
  9 11  1  0  0  0  0
  9 10  1  0  0  0  0
 11 10  1  0  0  0  0
 11 13  1  0  0  0  0
 13 12  1  1  0  0  0
 14 13  1  0  0  0  0
 14 15  1  0  0  0  0
 16 15  1  0  0  0  0
 16 17  2  0  0  0  0
 18  1  1  0  0  0  0
 20 19  1  0  0  0  0
 20 18  1  0  0  0  0
 21 22  1  0  0  0  0
 21 20  1  0  0  0  0
 22 23  1  0  0  0  0
 23 26  1  0  0  0  0
 23 24  1  0  0  0  0
 25 23  1  0  0  0  0
 27 36  1  1  0  0  0
 27 28  1  0  0  0  0
 28 35  1  0  0  0  0
 29 35  1  1  0  0  0
 31 26  1  6  0  0  0
 31 34  1  0  0  0  0
 32 38  1  1  0  0  0
 32 31  1  0  0  0  0
 32 33  1  0  0  0  0
 33 36  1  1  0  0  0
 33 27  1  0  0  0  0
 33 29  1  0  0  0  0
 34 29  1  0  0  0  0
 34 30  1  1  0  0  0
 38 37  1  0  0  0  0
 40 46  1  0  0  0  0
 41 47  1  0  0  0  0
 41 51  1  0  0  0  0
 42 48  1  0  0  0  0
 42 45  2  0  0  0  0
 43 40  2  0  0  0  0
 44 43  1  0  0  0  0
 44 39  1  1  0  0  0
 44 50  1  0  0  0  0
 45 53  1  0  0  0  0
 46 52  2  0  0  0  0
 48 41  2  0  0  0  0
 49 50  2  0  0  0  0
 51 46  1  0  0  0  0
 53 51  2  0  0  0  0
 53 49  1  0  0  0  0
M  END
>  <MODEL>
6

>  <REMARK>
 VINA RESULT:      -6.9      2.838      6.664
  Name = 
  20 active torsions:
  status: ('A' for Active; 'I' for Inactive)
    1  A    between atoms: C_6  and  C_36
    2  A    between atoms: C_6  and  C_42
    3  A    between atoms: C_8  and  C_53
    4  A    between atoms: C_10  and  C_18
    5  A    between atoms: C_10  and  N_20
    6  A    between atoms: C_10  and  C_49
    7  A    between atoms: C_12  and  C_18
    8  A    between atoms: C_15  and  N_39
    9  A    between atoms: C_15  and  C_50
   10  A    between atoms: C_16  and  C_47
   11  A    between atoms: C_16  and  C_50
   12  A    between atoms: N_20  and  N_39
   13  A    between atoms: N_29  and  C_35
   14  A    between atoms: N_29  and  C_36
   15  A    between atoms: N_29  and  C_49
   16  A    between atoms: C_30  and  N_37
   17  A    between atoms: C_30  and  C_42
   18  A    between atoms: C_33  and  C_47
   19  A    between atoms: N_37  and  C_53
   20  A    between atoms: C_38  and  C_45
                            x       y       z     vdW  Elec       q    Type
                         _______ _______ _______ _____ _____    ______ ____

>  <TORSDO>
F 20

$$$$
=
 OpenBabel11032420323D

 53 58  0  0  1  0  0  0  0  0999 V2000
  188.8400  177.1330  137.6430 C   0  0  1  0  0  3  0  0  0  0  0  0
  189.2240  176.9710  135.2380 O   0  0  0  0  0  1  0  0  0  0  0  0
  189.7690  176.7110  136.5000 C   0  0  2  0  0  3  0  0  0  0  0  0
  190.1670  175.3110  136.6160 N   0  0  0  0  0  0  0  0  0  0  0  0
  189.2670  174.3440  137.1760 C   0  0  0  0  0  3  0  0  0  0  0  0
  188.1340  174.0010  136.5750 C   0  0  0  0  0  2  0  0  0  0  0  0
  191.4770  174.9190  136.1130 C   0  0  0  0  0  2  0  0  0  0  0  0
  192.3070  174.2840  137.2180 C   0  0  0  0  0  2  0  0  0  0  0  0
  193.2520  176.3340  138.4080 C   0  0  0  0  0  2  0  0  0  0  0  0
  193.4730  176.5390  136.9130 C   0  0  0  0  0  2  0  0  0  0  0  0
  193.5250  175.1460  137.5110 C   0  0  0  0  0  0  0  0  0  0  0  0
  195.3580  174.5160  139.1110 C   0  0  0  0  0  1  0  0  0  0  0  0
  194.9000  174.4750  137.6610 C   0  0  2  0  0  3  0  0  0  0  0  0
  195.9110  175.0790  136.8040 N   0  0  0  0  0  2  0  0  0  0  0  0
  196.8300  174.0250  136.4210 C   0  0  0  0  0  2  0  0  0  0  0  0
  198.2160  174.5660  136.3520 C   0  0  0  0  0  3  0  0  0  0  0  0
  198.4530  175.5560  135.6820 O   0  0  0  0  0  0  0  0  0  0  0  0
  189.6310  177.7320  138.7140 N   0  0  0  0  0  2  0  0  0  0  0  0
  188.5200  178.4390  140.5910 C   0  0  0  0  0  1  0  0  0  0  0  0
  189.1110  177.2820  139.9390 N   0  0  0  0  0  0  0  0  0  0  0  0
  190.2300  176.8610  140.7720 C   0  0  0  0  0  2  0  0  0  0  0  0
  190.1650  177.5600  142.1310 C   0  0  0  0  0  2  0  0  0  0  0  0
  189.9850  176.5930  143.3030 C   0  0  0  0  0  0  0  0  0  0  0  0
  191.1990  175.9430  143.5250 O   0  0  0  0  0  1  0  0  0  0  0  0
  189.0120  175.6390  142.9920 O   0  0  0  0  0  1  0  0  0  0  0  0
  189.5860  177.3730  144.5570 C   0  0  0  0  0  2  0  0  0  0  0  0
  185.0320  178.2140  146.9340 C   0  0  2  0  0  3  0  0  0  0  0  0
  184.2320  179.0240  146.0760 O   0  0  0  0  0  0  0  0  0  0  0  0
  186.3940  178.9570  145.1060 C   0  0  1  0  0  3  0  0  0  0  0  0
  186.4210  177.4880  143.1910 O   0  0  0  0  0  1  0  0  0  0  0  0
  188.0990  177.2330  144.8880 C   0  0  1  0  0  3  0  0  0  0  0  0
  187.7000  177.3510  146.3840 C   0  0  2  0  0  3  0  0  0  0  0  0
  186.3870  178.0820  146.2900 C   0  0  1  0  0  0  0  0  0  0  0  0
  187.2300  178.2110  144.0710 C   0  0  2  0  0  3  0  0  0  0  0  0
  184.9320  179.2590  144.8580 C   0  0  0  0  0  2  0  0  0  0  0  0
  185.3650  176.9280  146.2370 C   0  0  0  0  0  2  0  0  0  0  0  0
  188.0900  178.6050  148.4320 O   0  0  0  0  0  1  0  0  0  0  0  0
  188.6930  178.1220  147.2650 C   0  0  0  0  0  2  0  0  0  0  0  0
  187.7190  178.0830  137.2120 C   0  0  0  0  0  2  0  0  0  0  0  0
  184.5620  178.7910  138.7390 C   0  0  0  0  0  3  0  0  0  0  0  0
  181.3940  177.0580  138.8580 C   0  0  0  0  0  0  0  0  0  0  0  0
  181.4560  175.0660  137.5450 N   0  0  0  0  0  0  0  0  0  0  0  0
  185.6030  178.3470  138.3860 C   0  0  0  0  0  3  0  0  0  0  0  0
  186.3600  177.4830  137.5210 C   0  0  1  0  0  3  0  0  0  0  0  0
  182.5430  175.5050  136.8670 C   0  0  0  0  0  3  0  0  0  0  0  0
  183.1560  178.8130  138.6980 C   0  0  0  0  0  0  0  0  0  0  0  0
  180.7850  177.7750  139.9260 N   0  0  0  0  0  1  0  0  0  0  0  0
  180.8820  175.8080  138.5230 C   0  0  0  0  0  3  0  0  0  0  0  0
  184.2010  177.1150  136.1600 C   0  0  0  0  0  3  0  0  0  0  0  0
  185.5240  177.4040  136.2700 C   0  0  0  0  0  3  0  0  0  0  0  0
  182.5380  177.5550  138.1900 C   0  0  0  0  0  0  0  0  0  0  0  0
  182.4830  179.9470  138.8550 C   0  0  0  0  0  2  0  0  0  0  0  0
  183.1440  176.7320  137.1630 C   0  0  0  0  0  0  0  0  0  0  0  0
  1 39  1  6  0  0  0
  1 18  1  0  0  0  0
  3  2  1  6  0  0  0
  3  4  1  0  0  0  0
  3  1  1  0  0  0  0
  4  5  1  0  0  0  0
  6  5  2  0  0  0  0
  7  4  1  0  0  0  0
  7  8  1  0  0  0  0
  8 11  1  0  0  0  0
 10 11  1  0  0  0  0
 10  9  1  0  0  0  0
 11 13  1  0  0  0  0
 11  9  1  0  0  0  0
 13 12  1  1  0  0  0
 14 13  1  0  0  0  0
 15 14  1  0  0  0  0
 16 15  1  0  0  0  0
 17 16  2  0  0  0  0
 18 20  1  0  0  0  0
 20 19  1  0  0  0  0
 20 21  1  0  0  0  0
 21 22  1  0  0  0  0
 22 23  1  0  0  0  0
 23 24  1  0  0  0  0
 23 26  1  0  0  0  0
 25 23  1  0  0  0  0
 27 36  1  6  0  0  0
 28 27  1  0  0  0  0
 29 35  1  6  0  0  0
 29 33  1  0  0  0  0
 31 26  1  1  0  0  0
 31 32  1  0  0  0  0
 32 38  1  1  0  0  0
 33 36  1  6  0  0  0
 33 32  1  0  0  0  0
 33 27  1  0  0  0  0
 34 30  1  6  0  0  0
 34 31  1  0  0  0  0
 34 29  1  0  0  0  0
 35 28  1  0  0  0  0
 38 37  1  0  0  0  0
 41 47  1  0  0  0  0
 42 48  2  0  0  0  0
 43 40  2  0  0  0  0
 44 39  1  6  0  0  0
 44 43  1  0  0  0  0
 45 53  2  0  0  0  0
 45 42  1  0  0  0  0
 46 40  1  0  0  0  0
 46 52  2  0  0  0  0
 48 41  1  0  0  0  0
 49 50  2  0  0  0  0
 49 53  1  0  0  0  0
 50 44  1  0  0  0  0
 51 46  1  0  0  0  0
 51 41  2  0  0  0  0
 53 51  1  0  0  0  0
M  END
>  <MODEL>
7

>  <REMARK>
 VINA RESULT:      -6.8      3.322      7.764
  Name = 
  20 active torsions:
  status: ('A' for Active; 'I' for Inactive)
    1  A    between atoms: C_6  and  C_36
    2  A    between atoms: C_6  and  C_42
    3  A    between atoms: C_8  and  C_53
    4  A    between atoms: C_10  and  C_18
    5  A    between atoms: C_10  and  N_20
    6  A    between atoms: C_10  and  C_49
    7  A    between atoms: C_12  and  C_18
    8  A    between atoms: C_15  and  N_39
    9  A    between atoms: C_15  and  C_50
   10  A    between atoms: C_16  and  C_47
   11  A    between atoms: C_16  and  C_50
   12  A    between atoms: N_20  and  N_39
   13  A    between atoms: N_29  and  C_35
   14  A    between atoms: N_29  and  C_36
   15  A    between atoms: N_29  and  C_49
   16  A    between atoms: C_30  and  N_37
   17  A    between atoms: C_30  and  C_42
   18  A    between atoms: C_33  and  C_47
   19  A    between atoms: N_37  and  C_53
   20  A    between atoms: C_38  and  C_45
                            x       y       z     vdW  Elec       q    Type
                         _______ _______ _______ _____ _____    ______ ____

>  <TORSDO>
F 20

$$$$
=
 OpenBabel11032420323D

 53 58  0  0  1  0  0  0  0  0999 V2000
  184.4130  178.3600  142.3100 C   0  0  1  0  0  3  0  0  0  0  0  0
  185.1120  180.3850  143.4800 O   0  0  0  0  0  1  0  0  0  0  0  0
  184.5570  179.1100  143.6390 C   0  0  2  0  0  3  0  0  0  0  0  0
  185.3080  178.3330  144.6200 N   0  0  0  0  0  0  0  0  0  0  0  0
  184.9390  178.3630  146.0060 C   0  0  0  0  0  3  0  0  0  0  0  0
  185.6770  178.9800  146.9220 C   0  0  0  0  0  2  0  0  0  0  0  0
  186.4060  177.4980  144.1490 C   0  0  0  0  0  2  0  0  0  0  0  0
  187.6860  178.3130  144.0360 C   0  0  0  0  0  2  0  0  0  0  0  0
  189.5850  177.0740  142.8640 C   0  0  0  0  0  2  0  0  0  0  0  0
  188.7200  176.0240  143.5560 C   0  0  0  0  0  2  0  0  0  0  0  0
  188.8940  177.3990  144.1710 C   0  0  0  0  0  0  0  0  0  0  0  0
  191.2210  177.1160  145.0770 C   0  0  0  0  0  1  0  0  0  0  0  0
  189.7960  177.5280  145.4100 C   0  0  2  0  0  3  0  0  0  0  0  0
  189.3050  176.7500  146.5390 N   0  0  0  0  0  2  0  0  0  0  0  0
  189.9510  177.2700  147.7290 C   0  0  0  0  0  2  0  0  0  0  0  0
  189.0040  178.1450  148.4750 C   0  0  0  0  0  3  0  0  0  0  0  0
  187.9390  177.6990  148.8650 O   0  0  0  0  0  0  0  0  0  0  0  0
  183.0060  178.0520  142.0770 N   0  0  0  0  0  2  0  0  0  0  0  0
  181.5620  178.5320  143.7910 C   0  0  0  0  0  1  0  0  0  0  0  0
  182.2380  179.0890  142.6310 N   0  0  0  0  0  0  0  0  0  0  0  0
  181.1990  179.4390  141.6710 C   0  0  0  0  0  2  0  0  0  0  0  0
  181.1560  178.4050  140.5450 C   0  0  0  0  0  2  0  0  0  0  0  0
  181.0110  179.0280  139.1550 C   0  0  0  0  0  0  0  0  0  0  0  0
  181.0910  180.4150  139.2850 O   0  0  0  0  0  1  0  0  0  0  0  0
  179.7670  178.6970  138.6090 O   0  0  0  0  0  1  0  0  0  0  0  0
  182.1390  178.5340  138.2480 C   0  0  0  0  0  2  0  0  0  0  0  0
  182.8080  174.0990  135.6050 C   0  0  2  0  0  3  0  0  0  0  0  0
  183.6930  173.2700  136.3550 O   0  0  0  0  0  0  0  0  0  0  0  0
  183.6930  175.3860  137.4250 C   0  0  1  0  0  3  0  0  0  0  0  0
  182.3900  175.3130  139.4550 O   0  0  0  0  0  1  0  0  0  0  0  0
  181.9820  177.0620  137.8630 C   0  0  1  0  0  3  0  0  0  0  0  0
  181.9770  176.7300  136.3460 C   0  0  2  0  0  3  0  0  0  0  0  0
  182.7210  175.4230  136.3190 C   0  0  1  0  0  0  0  0  0  0  0  0
  183.0310  176.1670  138.5550 C   0  0  2  0  0  3  0  0  0  0  0  0
  184.0240  173.9180  137.5800 C   0  0  0  0  0  2  0  0  0  0  0  0
  181.5820  174.3870  136.4210 C   0  0  0  0  0  2  0  0  0  0  0  0
  183.7650  177.2310  134.7740 O   0  0  0  0  0  1  0  0  0  0  0  0
  182.6640  177.7700  135.4490 C   0  0  0  0  0  2  0  0  0  0  0  0
  185.0030  179.1060  141.1100 C   0  0  0  0  0  2  0  0  0  0  0  0
  186.1630  178.1740  137.8560 C   0  0  0  0  0  3  0  0  0  0  0  0
  188.9960  176.2810  136.6550 C   0  0  0  0  0  0  0  0  0  0  0  0
  190.4070  175.6110  138.4580 N   0  0  0  0  0  0  0  0  0  0  0  0
  185.7630  178.2260  138.9700 C   0  0  0  0  0  3  0  0  0  0  0  0
  186.0170  178.2390  140.3860 C   0  0  1  0  0  3  0  0  0  0  0  0
  189.8660  176.5460  139.2760 C   0  0  0  0  0  3  0  0  0  0  0  0
  187.2050  177.9930  136.9300 C   0  0  0  0  0  0  0  0  0  0  0  0
  188.5630  176.0520  135.3170 N   0  0  0  0  0  1  0  0  0  0  0  0
  189.9940  175.4640  137.1770 C   0  0  0  0  0  3  0  0  0  0  0  0
  188.5250  178.4770  139.8350 C   0  0  0  0  0  3  0  0  0  0  0  0
  187.3950  178.8380  140.4980 C   0  0  0  0  0  3  0  0  0  0  0  0
  188.3870  177.2620  137.4720 C   0  0  0  0  0  0  0  0  0  0  0  0
  187.2180  178.6460  135.7730 C   0  0  0  0  0  2  0  0  0  0  0  0
  188.8330  177.3840  138.8450 C   0  0  0  0  0  0  0  0  0  0  0  0
  1 39  1  6  0  0  0
  1  3  1  0  0  0  0
  3  2  1  6  0  0  0
  3  4  1  0  0  0  0
  4  5  1  0  0  0  0
  5  6  2  0  0  0  0
  7  4  1  0  0  0  0
  8  7  1  0  0  0  0
  8 11  1  0  0  0  0
  9 10  1  0  0  0  0
  9 11  1  0  0  0  0
 10 11  1  0  0  0  0
 11 13  1  0  0  0  0
 13 12  1  6  0  0  0
 13 14  1  0  0  0  0
 14 15  1  0  0  0  0
 15 16  1  0  0  0  0
 16 17  2  0  0  0  0
 18  1  1  0  0  0  0
 18 20  1  0  0  0  0
 20 19  1  0  0  0  0
 21 20  1  0  0  0  0
 22 21  1  0  0  0  0
 23 24  1  0  0  0  0
 23 22  1  0  0  0  0
 25 23  1  0  0  0  0
 26 23  1  0  0  0  0
 27 33  1  0  0  0  0
 27 28  1  0  0  0  0
 27 36  1  1  0  0  0
 28 35  1  0  0  0  0
 29 35  1  1  0  0  0
 29 34  1  0  0  0  0
 31 26  1  6  0  0  0
 31 34  1  0  0  0  0
 32 38  1  6  0  0  0
 32 31  1  0  0  0  0
 33 32  1  0  0  0  0
 33 36  1  1  0  0  0
 33 29  1  0  0  0  0
 34 30  1  1  0  0  0
 37 38  1  0  0  0  0
 40 43  2  0  0  0  0
 41 48  2  0  0  0  0
 41 51  1  0  0  0  0
 42 45  2  0  0  0  0
 43 44  1  0  0  0  0
 44 50  1  0  0  0  0
 44 39  1  1  0  0  0
 46 51  1  0  0  0  0
 46 40  1  0  0  0  0
 47 41  1  0  0  0  0
 48 42  1  0  0  0  0
 49 50  2  0  0  0  0
 51 53  2  0  0  0  0
 52 46  2  0  0  0  0
 53 45  1  0  0  0  0
 53 49  1  0  0  0  0
M  END
>  <MODEL>
8

>  <REMARK>
 VINA RESULT:      -6.8      2.202      6.407
  Name = 
  20 active torsions:
  status: ('A' for Active; 'I' for Inactive)
    1  A    between atoms: C_6  and  C_36
    2  A    between atoms: C_6  and  C_42
    3  A    between atoms: C_8  and  C_53
    4  A    between atoms: C_10  and  C_18
    5  A    between atoms: C_10  and  N_20
    6  A    between atoms: C_10  and  C_49
    7  A    between atoms: C_12  and  C_18
    8  A    between atoms: C_15  and  N_39
    9  A    between atoms: C_15  and  C_50
   10  A    between atoms: C_16  and  C_47
   11  A    between atoms: C_16  and  C_50
   12  A    between atoms: N_20  and  N_39
   13  A    between atoms: N_29  and  C_35
   14  A    between atoms: N_29  and  C_36
   15  A    between atoms: N_29  and  C_49
   16  A    between atoms: C_30  and  N_37
   17  A    between atoms: C_30  and  C_42
   18  A    between atoms: C_33  and  C_47
   19  A    between atoms: N_37  and  C_53
   20  A    between atoms: C_38  and  C_45
                            x       y       z     vdW  Elec       q    Type
                         _______ _______ _______ _____ _____    ______ ____

>  <TORSDO>
F 20

$$$$
=
 OpenBabel11032420323D

 53 58  0  0  1  0  0  0  0  0999 V2000
  184.9630  178.2530  142.7740 C   0  0  1  0  0  3  0  0  0  0  0  0
  184.7430  180.3610  143.9850 O   0  0  0  0  0  1  0  0  0  0  0  0
  184.7490  178.9680  144.1130 C   0  0  2  0  0  3  0  0  0  0  0  0
  185.7210  178.5410  145.1150 N   0  0  0  0  0  0  0  0  0  0  0  0
  185.6510  179.0460  146.4560 C   0  0  0  0  0  3  0  0  0  0  0  0
  185.3660  178.2660  147.4920 C   0  0  0  0  0  2  0  0  0  0  0  0
  186.7300  177.5630  144.7290 C   0  0  0  0  0  2  0  0  0  0  0  0
  188.0270  178.2570  144.3410 C   0  0  0  0  0  2  0  0  0  0  0  0
  188.7560  176.7240  146.2460 C   0  0  0  0  0  2  0  0  0  0  0  0
  189.0820  178.1540  146.6670 C   0  0  0  0  0  2  0  0  0  0  0  0
  189.1670  177.7480  145.2090 C   0  0  0  0  0  0  0  0  0  0  0  0
  190.5660  176.4100  143.6060 C   0  0  0  0  0  1  0  0  0  0  0  0
  190.5620  177.5720  144.5870 C   0  0  2  0  0  3  0  0  0  0  0  0
  191.5980  177.3770  145.5930 N   0  0  0  0  0  2  0  0  0  0  0  0
  191.8590  175.9520  145.6640 C   0  0  0  0  0  2  0  0  0  0  0  0
  192.4580  175.6160  146.9860 C   0  0  0  0  0  3  0  0  0  0  0  0
  192.2370  176.3230  147.9540 O   0  0  0  0  0  0  0  0  0  0  0  0
  183.6750  177.8060  142.2530 N   0  0  0  0  0  2  0  0  0  0  0  0
  181.7290  179.0150  142.3450 C   0  0  0  0  0  1  0  0  0  0  0  0
  183.0250  178.9190  141.6940 N   0  0  0  0  0  0  0  0  0  0  0  0
  182.7650  178.6270  140.2900 C   0  0  0  0  0  2  0  0  0  0  0  0
  182.2320  177.2010  140.1410 C   0  0  0  0  0  2  0  0  0  0  0  0
  180.9830  177.1090  139.2620 C   0  0  0  0  0  0  0  0  0  0  0  0
  180.7520  178.3630  138.6970 O   0  0  0  0  0  1  0  0  0  0  0  0
  179.8760  176.7520  140.0380 O   0  0  0  0  0  1  0  0  0  0  0  0
  181.2080  176.0810  138.1520 C   0  0  0  0  0  2  0  0  0  0  0  0
  185.4780  174.1150  135.9160 C   0  0  2  0  0  3  0  0  0  0  0  0
  185.8820  175.0070  134.8790 O   0  0  0  0  0  0  0  0  0  0  0  0
  183.7650  175.7680  135.6280 C   0  0  1  0  0  3  0  0  0  0  0  0
  184.0070  177.7380  137.0030 O   0  0  0  0  0  1  0  0  0  0  0  0
  182.6870  175.9010  137.8070 C   0  0  1  0  0  3  0  0  0  0  0  0
  183.1840  174.4460  137.5860 C   0  0  2  0  0  3  0  0  0  0  0  0
  184.1760  174.6320  136.4700 C   0  0  1  0  0  0  0  0  0  0  0  0
  183.1070  176.7520  136.5910 C   0  0  2  0  0  3  0  0  0  0  0  0
  185.0190  176.1410  134.8680 C   0  0  0  0  0  2  0  0  0  0  0  0
  185.5020  174.8350  137.2320 C   0  0  0  0  0  2  0  0  0  0  0  0
  181.8780  173.4240  135.8060 O   0  0  0  0  0  1  0  0  0  0  0  0
  182.0950  173.4390  137.1890 C   0  0  0  0  0  2  0  0  0  0  0  0
  185.6990  179.0980  141.7310 C   0  0  0  0  0  2  0  0  0  0  0  0
  186.6700  178.2450  138.3950 C   0  0  0  0  0  3  0  0  0  0  0  0
  189.4110  176.3560  136.9910 C   0  0  0  0  0  0  0  0  0  0  0  0
  190.9090  175.6210  138.6970 N   0  0  0  0  0  0  0  0  0  0  0  0
  186.3310  178.2700  139.5300 C   0  0  0  0  0  3  0  0  0  0  0  0
  186.6610  178.2410  140.9290 C   0  0  1  0  0  3  0  0  0  0  0  0
  190.4240  176.5390  139.5670 C   0  0  0  0  0  3  0  0  0  0  0  0
  187.6580  178.0790  137.4090 C   0  0  0  0  0  0  0  0  0  0  0  0
  188.9040  176.1690  135.6730 N   0  0  0  0  0  1  0  0  0  0  0  0
  190.4260  175.5140  137.4360 C   0  0  0  0  0  3  0  0  0  0  0  0
  189.1380  178.4680  140.2510 C   0  0  0  0  0  3  0  0  0  0  0  0
  188.0510  178.8220  140.9840 C   0  0  0  0  0  3  0  0  0  0  0  0
  188.8580  177.3210  137.8660 C   0  0  0  0  0  0  0  0  0  0  0  0
  187.6170  178.7630  136.2720 C   0  0  0  0  0  2  0  0  0  0  0  0
  189.3790  177.4000  139.2160 C   0  0  0  0  0  0  0  0  0  0  0  0
  1 39  1  6  0  0  0
  1  3  1  0  0  0  0
  3  2  1  6  0  0  0
  3  4  1  0  0  0  0
  4  5  1  0  0  0  0
  5  6  2  0  0  0  0
  7  4  1  0  0  0  0
  8  7  1  0  0  0  0
  8 11  1  0  0  0  0
  9 10  1  0  0  0  0
 11  9  1  0  0  0  0
 11 10  1  0  0  0  0
 13 12  1  6  0  0  0
 13 11  1  0  0  0  0
 13 14  1  0  0  0  0
 14 15  1  0  0  0  0
 15 16  1  0  0  0  0
 16 17  2  0  0  0  0
 18  1  1  0  0  0  0
 20 18  1  0  0  0  0
 20 19  1  0  0  0  0
 21 20  1  0  0  0  0
 22 21  1  0  0  0  0
 23 25  1  0  0  0  0
 23 22  1  0  0  0  0
 24 23  1  0  0  0  0
 26 23  1  0  0  0  0
 27 33  1  0  0  0  0
 27 36  1  1  0  0  0
 28 27  1  0  0  0  0
 29 35  1  1  0  0  0
 29 33  1  0  0  0  0
 29 34  1  0  0  0  0
 31 26  1  6  0  0  0
 32 38  1  6  0  0  0
 32 31  1  0  0  0  0
 33 36  1  1  0  0  0
 33 32  1  0  0  0  0
 34 30  1  1  0  0  0
 34 31  1  0  0  0  0
 35 28  1  0  0  0  0
 37 38  1  0  0  0  0
 40 43  2  0  0  0  0
 41 48  2  0  0  0  0
 41 51  1  0  0  0  0
 42 45  2  0  0  0  0
 43 44  1  0  0  0  0
 44 50  1  0  0  0  0
 44 39  1  1  0  0  0
 46 51  1  0  0  0  0
 46 40  1  0  0  0  0
 47 41  1  0  0  0  0
 48 42  1  0  0  0  0
 49 50  2  0  0  0  0
 51 53  2  0  0  0  0
 52 46  2  0  0  0  0
 53 45  1  0  0  0  0
 53 49  1  0  0  0  0
M  END
>  <MODEL>
9

>  <REMARK>
 VINA RESULT:      -6.8      1.993      6.210
  Name = 
  20 active torsions:
  status: ('A' for Active; 'I' for Inactive)
    1  A    between atoms: C_6  and  C_36
    2  A    between atoms: C_6  and  C_42
    3  A    between atoms: C_8  and  C_53
    4  A    between atoms: C_10  and  C_18
    5  A    between atoms: C_10  and  N_20
    6  A    between atoms: C_10  and  C_49
    7  A    between atoms: C_12  and  C_18
    8  A    between atoms: C_15  and  N_39
    9  A    between atoms: C_15  and  C_50
   10  A    between atoms: C_16  and  C_47
   11  A    between atoms: C_16  and  C_50
   12  A    between atoms: N_20  and  N_39
   13  A    between atoms: N_29  and  C_35
   14  A    between atoms: N_29  and  C_36
   15  A    between atoms: N_29  and  C_49
   16  A    between atoms: C_30  and  N_37
   17  A    between atoms: C_30  and  C_42
   18  A    between atoms: C_33  and  C_47
   19  A    between atoms: N_37  and  C_53
   20  A    between atoms: C_38  and  C_45
                            x       y       z     vdW  Elec       q    Type
                         _______ _______ _______ _____ _____    ______ ____

>  <TORSDO>
F 20

$$$$
