=
 OpenBabel11032420363D

 27 31  0  0  0  0  0  0  0  0999 V2000
  186.9570  177.9580  141.8420 C   0  0  0  0  0  3  0  0  0  0  0  0
  187.4420  177.8130  144.3060 C   0  0  0  0  0  0  0  0  0  0  0  0
  189.5870  177.2100  143.1190 C   0  0  0  0  0  3  0  0  0  0  0  0
  189.6670  177.1720  147.7530 N   0  0  0  0  0  0  0  0  0  0  0  0
  191.9940  176.4680  147.9410 N   0  0  0  0  0  1  0  0  0  0  0  0
  186.8520  178.0130  145.5850 C   0  0  0  0  0  3  0  0  0  0  0  0
  190.7730  176.8210  145.8030 C   0  0  0  0  0  0  0  0  0  0  0  0
  190.9050  177.2710  139.7100 C   0  0  0  0  0  3  0  0  0  0  0  0
  191.8880  176.4750  144.8720 C   0  0  0  0  0  1  0  0  0  0  0  0
  190.1550  178.0200  138.7950 O   0  0  0  0  0  0  0  0  0  0  0  0
  189.4770  177.2110  145.4930 C   0  0  0  0  0  0  0  0  0  0  0  0
  186.6030  178.0400  143.1850 C   0  0  0  0  0  0  0  0  0  0  0  0
  190.8380  176.8120  147.1840 C   0  0  0  0  0  0  0  0  0  0  0  0
  188.8570  177.4090  146.7040 C   0  0  0  0  0  0  0  0  0  0  0  0
  188.1290  177.6560  141.1720 C   0  0  0  0  0  0  0  0  0  0  0  0
  188.8160  177.4100  144.2590 C   0  0  0  0  0  0  0  0  0  0  0  0
  190.5730  176.9840  140.9760 C   0  0  0  0  0  3  0  0  0  0  0  0
  187.5400  177.8180  146.7830 C   0  0  0  0  0  3  0  0  0  0  0  0
  188.9390  178.6780  139.1020 C   0  0  0  0  0  2  0  0  0  0  0  0
  187.9690  177.6820  139.6910 C   0  0  0  0  0  2  0  0  0  0  0  0
  189.3570  177.3180  141.7580 C   0  0  0  0  0  0  0  0  0  0  0  0
  182.4630  179.0200  143.7380 C   0  0  0  0  0  3  0  0  0  0  0  0
  185.1750  178.3970  143.3750 C   0  0  0  0  0  0  0  0  0  0  0  0
  184.6920  178.7530  144.6440 C   0  0  0  0  0  3  0  0  0  0  0  0
  183.3430  179.0660  144.8240 C   0  0  0  0  0  3  0  0  0  0  0  0
  182.9330  178.6570  142.4730 C   0  0  0  0  0  3  0  0  0  0  0  0
  184.2840  178.3430  142.2920 C   0  0  0  0  0  3  0  0  0  0  0  0
  1 12  1  0  0  0  0
  2  6  1  0  0  0  0
  3 16  1  0  0  0  0
  6 18  2  0  0  0  0
  7 13  2  0  0  0  0
  8 17  2  0  0  0  0
  9  7  1  0  0  0  0
 10 19  1  0  0  0  0
 10  8  1  0  0  0  0
 11  7  1  0  0  0  0
 11 14  1  0  0  0  0
 12 23  1  0  0  0  0
 12  2  2  0  0  0  0
 13  4  1  0  0  0  0
 13  5  1  0  0  0  0
 14 18  1  0  0  0  0
 14  4  2  0  0  0  0
 15 21  1  0  0  0  0
 15  1  2  0  0  0  0
 16  2  1  0  0  0  0
 16 11  2  0  0  0  0
 17 21  1  0  0  0  0
 19 20  1  0  0  0  0
 20 15  1  0  0  0  0
 21  3  2  0  0  0  0
 22 25  1  0  0  0  0
 23 24  1  0  0  0  0
 24 25  2  0  0  0  0
 26 22  2  0  0  0  0
 27 26  1  0  0  0  0
 27 23  2  0  0  0  0
M  END
>  <MODEL>
1

>  <REMARK>
 VINA RESULT:     -12.1      0.000      0.000
  Name = 
  1 active torsions:
  status: ('A' for Active; 'I' for Inactive)
    1  A    between atoms: C_9  and  C_15
                            x       y       z     vdW  Elec       q    Type
                         _______ _______ _______ _____ _____    ______ ____

>  <TORSDO>
F 1

$$$$
=
 OpenBabel11032420363D

 27 31  0  0  0  0  0  0  0  0999 V2000
  189.9870  177.3530  142.9450 C   0  0  0  0  0  3  0  0  0  0  0  0
  187.8840  177.6820  144.2840 C   0  0  0  0  0  0  0  0  0  0  0  0
  187.2830  178.1630  141.8800 C   0  0  0  0  0  3  0  0  0  0  0  0
  183.8920  178.5610  145.0140 N   0  0  0  0  0  0  0  0  0  0  0  0
  182.1790  179.2470  143.4210 N   0  0  0  0  0  1  0  0  0  0  0  0
  187.3620  177.5900  145.6050 C   0  0  0  0  0  3  0  0  0  0  0  0
  184.5480  178.7450  142.8500 C   0  0  0  0  0  0  0  0  0  0  0  0
  188.8240  177.8210  138.5830 C   0  0  0  0  0  3  0  0  0  0  0  0
  184.4630  179.0030  141.3820 C   0  0  0  0  0  1  0  0  0  0  0  0
  189.9660  177.0130  138.5410 O   0  0  0  0  0  0  0  0  0  0  0  0
  185.6490  178.3490  143.5960 C   0  0  0  0  0  0  0  0  0  0  0  0
  189.2610  177.3790  144.1310 C   0  0  0  0  0  0  0  0  0  0  0  0
  183.5080  178.8600  143.7550 C   0  0  0  0  0  0  0  0  0  0  0  0
  185.1970  178.2530  144.8910 C   0  0  0  0  0  0  0  0  0  0  0  0
  189.6730  177.5860  141.6190 C   0  0  0  0  0  0  0  0  0  0  0  0
  186.9860  178.0620  143.2350 C   0  0  0  0  0  0  0  0  0  0  0  0
  188.1550  178.2090  139.6770 C   0  0  0  0  0  3  0  0  0  0  0  0
  186.0320  177.8690  145.9220 C   0  0  0  0  0  3  0  0  0  0  0  0
  190.5560  176.3960  139.6720 C   0  0  0  0  0  2  0  0  0  0  0  0
  190.8490  177.4470  140.7150 C   0  0  0  0  0  2  0  0  0  0  0  0
  188.4170  177.9530  141.1150 C   0  0  0  0  0  0  0  0  0  0  0  0
  191.6430  176.4070  147.5650 C   0  0  0  0  0  3  0  0  0  0  0  0
  190.0960  177.0570  145.3160 C   0  0  0  0  0  0  0  0  0  0  0  0
  191.2840  176.3230  145.1720 C   0  0  0  0  0  3  0  0  0  0  0  0
  192.0560  176.0030  146.2920 C   0  0  0  0  0  3  0  0  0  0  0  0
  190.4560  177.1300  147.7190 C   0  0  0  0  0  3  0  0  0  0  0  0
  189.6840  177.4510  146.5980 C   0  0  0  0  0  3  0  0  0  0  0  0
  1 12  1  0  0  0  0
  2  6  1  0  0  0  0
  3 16  1  0  0  0  0
  5 13  1  0  0  0  0
  6 18  2  0  0  0  0
  7 11  1  0  0  0  0
  7 13  2  0  0  0  0
  8 17  2  0  0  0  0
  9  7  1  0  0  0  0
 10  8  1  0  0  0  0
 10 19  1  0  0  0  0
 11 14  1  0  0  0  0
 12  2  2  0  0  0  0
 12 23  1  0  0  0  0
 13  4  1  0  0  0  0
 14  4  2  0  0  0  0
 14 18  1  0  0  0  0
 15  1  2  0  0  0  0
 16 11  2  0  0  0  0
 16  2  1  0  0  0  0
 17 21  1  0  0  0  0
 19 20  1  0  0  0  0
 20 15  1  0  0  0  0
 21 15  1  0  0  0  0
 21  3  2  0  0  0  0
 22 26  1  0  0  0  0
 23 27  1  0  0  0  0
 24 23  2  0  0  0  0
 24 25  1  0  0  0  0
 25 22  2  0  0  0  0
 27 26  2  0  0  0  0
M  END
>  <MODEL>
2

>  <REMARK>
 VINA RESULT:     -11.8      2.255      5.708
  Name = 
  1 active torsions:
  status: ('A' for Active; 'I' for Inactive)
    1  A    between atoms: C_9  and  C_15
                            x       y       z     vdW  Elec       q    Type
                         _______ _______ _______ _____ _____    ______ ____

>  <TORSDO>
F 1

$$$$
=
 OpenBabel11032420363D

 27 31  0  0  0  0  0  0  0  0999 V2000
  188.1880  177.3100  145.5550 C   0  0  0  0  0  3  0  0  0  0  0  0
  189.7120  177.2720  143.5550 C   0  0  0  0  0  0  0  0  0  0  0  0
  187.4160  177.8700  142.6930 C   0  0  0  0  0  3  0  0  0  0  0  0
  190.8280  177.5960  139.5690 N   0  0  0  0  0  0  0  0  0  0  0  0
  189.4250  178.1120  137.6430 N   0  0  0  0  0  1  0  0  0  0  0  0
  191.0690  177.0800  143.1750 C   0  0  0  0  0  3  0  0  0  0  0  0
  188.6280  177.9500  139.9930 C   0  0  0  0  0  0  0  0  0  0  0  0
  184.1540  178.7750  144.0740 C   0  0  0  0  0  3  0  0  0  0  0  0
  187.1870  178.2520  139.7410 C   0  0  0  0  0  1  0  0  0  0  0  0
  184.1580  179.1140  145.4330 O   0  0  0  0  0  0  0  0  0  0  0  0
  189.2550  177.6730  141.2010 C   0  0  0  0  0  0  0  0  0  0  0  0
  189.4190  177.1270  144.9360 C   0  0  0  0  0  0  0  0  0  0  0  0
  189.6230  177.8910  139.0350 C   0  0  0  0  0  0  0  0  0  0  0  0
  190.5780  177.4690  140.8860 C   0  0  0  0  0  0  0  0  0  0  0  0
  186.9270  177.6620  145.1080 C   0  0  0  0  0  0  0  0  0  0  0  0
  188.7700  177.5980  142.5270 C   0  0  0  0  0  0  0  0  0  0  0  0
  185.1820  178.2860  143.3670 C   0  0  0  0  0  3  0  0  0  0  0  0
  191.5150  177.1750  141.8560 C   0  0  0  0  0  3  0  0  0  0  0  0
  185.3000  179.0730  146.2690 C   0  0  0  0  0  2  0  0  0  0  0  0
  185.9160  177.6960  146.2010 C   0  0  0  0  0  2  0  0  0  0  0  0
  186.5630  177.9340  143.7810 C   0  0  0  0  0  0  0  0  0  0  0  0
  192.4590  175.9340  147.7190 C   0  0  0  0  0  3  0  0  0  0  0  0
  190.4830  176.7260  145.8910 C   0  0  0  0  0  0  0  0  0  0  0  0
  191.4450  175.7710  145.5260 C   0  0  0  0  0  3  0  0  0  0  0  0
  192.4310  175.3800  146.4360 C   0  0  0  0  0  3  0  0  0  0  0  0
  191.4980  176.8780  148.0940 C   0  0  0  0  0  3  0  0  0  0  0  0
  190.5120  177.2710  147.1840 C   0  0  0  0  0  3  0  0  0  0  0  0
  2 12  1  0  0  0  0
  3 21  1  0  0  0  0
  4 14  1  0  0  0  0
  5 13  1  0  0  0  0
  6  2  2  0  0  0  0
  7 11  2  0  0  0  0
  8 10  1  0  0  0  0
  9  7  1  0  0  0  0
 10 19  1  0  0  0  0
 11 16  1  0  0  0  0
 12  1  2  0  0  0  0
 12 23  1  0  0  0  0
 13  4  2  0  0  0  0
 13  7  1  0  0  0  0
 14 11  1  0  0  0  0
 14 18  2  0  0  0  0
 15  1  1  0  0  0  0
 15 20  1  0  0  0  0
 16  3  2  0  0  0  0
 16  2  1  0  0  0  0
 17 21  1  0  0  0  0
 17  8  2  0  0  0  0
 18  6  1  0  0  0  0
 20 19  1  0  0  0  0
 21 15  2  0  0  0  0
 22 26  1  0  0  0  0
 23 27  1  0  0  0  0
 24 23  2  0  0  0  0
 24 25  1  0  0  0  0
 25 22  2  0  0  0  0
 27 26  2  0  0  0  0
M  END
>  <MODEL>
3

>  <REMARK>
 VINA RESULT:     -11.4      3.223      6.993
  Name = 
  1 active torsions:
  status: ('A' for Active; 'I' for Inactive)
    1  A    between atoms: C_9  and  C_15
                            x       y       z     vdW  Elec       q    Type
                         _______ _______ _______ _____ _____    ______ ____

>  <TORSDO>
F 1

$$$$
=
 OpenBabel11032420363D

 27 31  0  0  0  0  0  0  0  0999 V2000
  188.6650  177.8950  143.7530 C   0  0  0  0  0  3  0  0  0  0  0  0
  186.2410  178.2360  144.3280 C   0  0  0  0  0  0  0  0  0  0  0  0
  186.3990  178.3420  141.8110 C   0  0  0  0  0  3  0  0  0  0  0  0
  182.1920  178.8910  143.6770 N   0  0  0  0  0  0  0  0  0  0  0  0
  181.0360  179.2220  141.5570 N   0  0  0  0  0  1  0  0  0  0  0  0
  185.3380  178.2810  145.4270 C   0  0  0  0  0  3  0  0  0  0  0  0
  183.4800  178.8330  141.8100 C   0  0  0  0  0  0  0  0  0  0  0  0
  188.8960  177.6810  139.2240 C   0  0  0  0  0  3  0  0  0  0  0  0
  183.8460  178.8840  140.3630 C   0  0  0  0  0  1  0  0  0  0  0  0
  190.0210  176.9660  139.6530 O   0  0  0  0  0  0  0  0  0  0  0  0
  184.3090  178.6280  142.9050 C   0  0  0  0  0  0  0  0  0  0  0  0
  187.6070  178.0240  144.6460 C   0  0  0  0  0  0  0  0  0  0  0  0
  182.2080  178.9880  142.3300 C   0  0  0  0  0  0  0  0  0  0  0  0
  183.4810  178.6720  144.0020 C   0  0  0  0  0  0  0  0  0  0  0  0
  188.7700  177.9230  142.3740 C   0  0  0  0  0  0  0  0  0  0  0  0
  185.7000  178.4010  143.0120 C   0  0  0  0  0  0  0  0  0  0  0  0
  187.9090  178.1590  139.9940 C   0  0  0  0  0  3  0  0  0  0  0  0
  183.9670  178.4960  145.2820 C   0  0  0  0  0  3  0  0  0  0  0  0
  190.2510  176.5550  140.9880 C   0  0  0  0  0  2  0  0  0  0  0  0
  190.1720  177.7560  141.8990 C   0  0  0  0  0  2  0  0  0  0  0  0
  187.7200  178.1190  141.4650 C   0  0  0  0  0  0  0  0  0  0  0  0
  188.8980  177.7950  148.7310 C   0  0  0  0  0  3  0  0  0  0  0  0
  188.0430  177.9300  146.0620 C   0  0  0  0  0  0  0  0  0  0  0  0
  187.2420  178.4490  147.0900 C   0  0  0  0  0  3  0  0  0  0  0  0
  187.6660  178.3780  148.4200 C   0  0  0  0  0  3  0  0  0  0  0  0
  189.7070  177.2850  147.7120 C   0  0  0  0  0  3  0  0  0  0  0  0
  189.2830  177.3550  146.3810 C   0  0  0  0  0  3  0  0  0  0  0  0
  1 12  1  0  0  0  0
  2 12  2  0  0  0  0
  2  6  1  0  0  0  0
  3 16  1  0  0  0  0
  4 14  2  0  0  0  0
  5 13  1  0  0  0  0
  7 13  2  0  0  0  0
  7 11  1  0  0  0  0
  8 10  1  0  0  0  0
  8 17  2  0  0  0  0
  9  7  1  0  0  0  0
 10 19  1  0  0  0  0
 11 16  2  0  0  0  0
 11 14  1  0  0  0  0
 12 23  1  0  0  0  0
 13  4  1  0  0  0  0
 14 18  1  0  0  0  0
 15  1  2  0  0  0  0
 16  2  1  0  0  0  0
 17 21  1  0  0  0  0
 18  6  2  0  0  0  0
 19 20  1  0  0  0  0
 20 15  1  0  0  0  0
 21  3  2  0  0  0  0
 21 15  1  0  0  0  0
 23 27  2  0  0  0  0
 23 24  1  0  0  0  0
 24 25  2  0  0  0  0
 25 22  1  0  0  0  0
 26 22  2  0  0  0  0
 27 26  1  0  0  0  0
M  END
>  <MODEL>
4

>  <REMARK>
 VINA RESULT:     -11.3      2.913      5.853
  Name = 
  1 active torsions:
  status: ('A' for Active; 'I' for Inactive)
    1  A    between atoms: C_9  and  C_15
                            x       y       z     vdW  Elec       q    Type
                         _______ _______ _______ _____ _____    ______ ____

>  <TORSDO>
F 1

$$$$
=
 OpenBabel11032420363D

 27 31  0  0  0  0  0  0  0  0999 V2000
  186.3340  178.3680  141.3150 C   0  0  0  0  0  3  0  0  0  0  0  0
  187.9210  177.8560  143.1970 C   0  0  0  0  0  0  0  0  0  0  0  0
  185.7070  178.4290  144.2650 C   0  0  0  0  0  3  0  0  0  0  0  0
  189.2000  177.3530  147.1160 N   0  0  0  0  0  0  0  0  0  0  0  0
  187.9300  177.6710  149.1730 N   0  0  0  0  0  1  0  0  0  0  0  0
  189.2550  177.4390  143.4660 C   0  0  0  0  0  3  0  0  0  0  0  0
  187.0400  178.0050  146.8740 C   0  0  0  0  0  0  0  0  0  0  0  0
  182.2560  179.0020  143.2050 C   0  0  0  0  0  3  0  0  0  0  0  0
  185.6520  178.4080  147.2500 C   0  0  0  0  0  1  0  0  0  0  0  0
  181.9620  178.6010  141.8960 O   0  0  0  0  0  0  0  0  0  0  0  0
  187.5910  177.8790  145.6060 C   0  0  0  0  0  0  0  0  0  0  0  0
  187.5770  178.0170  141.8300 C   0  0  0  0  0  0  0  0  0  0  0  0
  188.0550  177.6760  147.7540 C   0  0  0  0  0  0  0  0  0  0  0  0
  188.8920  177.4840  145.8110 C   0  0  0  0  0  0  0  0  0  0  0  0
  185.1050  178.6590  141.8780 C   0  0  0  0  0  0  0  0  0  0  0  0
  187.0500  178.0690  144.3130 C   0  0  0  0  0  0  0  0  0  0  0  0
  183.4640  179.0220  143.7850 C   0  0  0  0  0  3  0  0  0  0  0  0
  189.7520  177.2500  144.7560 C   0  0  0  0  0  3  0  0  0  0  0  0
  182.9060  178.0590  140.9900 C   0  0  0  0  0  2  0  0  0  0  0  0
  184.0730  179.0070  140.8620 C   0  0  0  0  0  2  0  0  0  0  0  0
  184.8030  178.6790  143.2480 C   0  0  0  0  0  0  0  0  0  0  0  0
  190.5030  177.4090  138.7520 C   0  0  0  0  0  3  0  0  0  0  0  0
  188.5980  177.8220  140.7700 C   0  0  0  0  0  0  0  0  0  0  0  0
  188.4790  178.4810  139.5360 C   0  0  0  0  0  3  0  0  0  0  0  0
  189.4300  178.2770  138.5330 C   0  0  0  0  0  3  0  0  0  0  0  0
  190.6240  176.7420  139.9740 C   0  0  0  0  0  3  0  0  0  0  0  0
  189.6730  176.9450  140.9790 C   0  0  0  0  0  3  0  0  0  0  0  0
  1 12  2  0  0  0  0
  1 15  1  0  0  0  0
  2  6  2  0  0  0  0
  2 16  1  0  0  0  0
  3 16  2  0  0  0  0
  4 13  2  0  0  0  0
  6 18  1  0  0  0  0
  7  9  1  0  0  0  0
  7 13  1  0  0  0  0
  8 17  2  0  0  0  0
 10  8  1  0  0  0  0
 11 14  1  0  0  0  0
 11  7  2  0  0  0  0
 12  2  1  0  0  0  0
 13  5  1  0  0  0  0
 14  4  1  0  0  0  0
 15 21  2  0  0  0  0
 16 11  1  0  0  0  0
 18 14  2  0  0  0  0
 19 10  1  0  0  0  0
 20 19  1  0  0  0  0
 20 15  1  0  0  0  0
 21 17  1  0  0  0  0
 21  3  1  0  0  0  0
 22 26  1  0  0  0  0
 23 27  1  0  0  0  0
 23 12  1  0  0  0  0
 24 23  2  0  0  0  0
 25 22  2  0  0  0  0
 25 24  1  0  0  0  0
 26 27  2  0  0  0  0
M  END
>  <MODEL>
5

>  <REMARK>
 VINA RESULT:     -11.2      2.062      5.441
  Name = 
  1 active torsions:
  status: ('A' for Active; 'I' for Inactive)
    1  A    between atoms: C_9  and  C_15
                            x       y       z     vdW  Elec       q    Type
                         _______ _______ _______ _____ _____    ______ ____

>  <TORSDO>
F 1

$$$$
=
 OpenBabel11032420363D

 27 31  0  0  0  0  0  0  0  0999 V2000
  187.1550  178.2530  141.5840 C   0  0  0  0  0  3  0  0  0  0  0  0
  189.3100  177.4630  142.6100 C   0  0  0  0  0  0  0  0  0  0  0  0
  187.7570  177.9890  144.5280 C   0  0  0  0  0  3  0  0  0  0  0  0
  191.9920  176.4520  145.6160 N   0  0  0  0  0  0  0  0  0  0  0  0
  191.6740  176.5740  148.0290 N   0  0  0  0  0  1  0  0  0  0  0  0
  190.6020  176.9660  142.2790 C   0  0  0  0  0  3  0  0  0  0  0  0
  189.9750  177.2100  146.3270 C   0  0  0  0  0  0  0  0  0  0  0  0
  184.2280  178.8160  145.0080 C   0  0  0  0  0  3  0  0  0  0  0  0
  188.8890  177.6190  147.2660 C   0  0  0  0  0  1  0  0  0  0  0  0
  183.4070  178.5830  143.8980 O   0  0  0  0  0  0  0  0  0  0  0  0
  189.9660  177.2130  144.9380 C   0  0  0  0  0  0  0  0  0  0  0  0
  188.4670  177.7970  141.5200 C   0  0  0  0  0  0  0  0  0  0  0  0
  191.2250  176.7420  146.6890 C   0  0  0  0  0  0  0  0  0  0  0  0
  191.2040  176.7470  144.5640 C   0  0  0  0  0  0  0  0  0  0  0  0
  186.2790  178.5230  142.6200 C   0  0  0  0  0  0  0  0  0  0  0  0
  188.9740  177.5760  143.9980 C   0  0  0  0  0  0  0  0  0  0  0  0
  185.5640  178.7210  145.0510 C   0  0  0  0  0  3  0  0  0  0  0  0
  191.5520  176.6070  143.2360 C   0  0  0  0  0  3  0  0  0  0  0  0
  183.8670  178.1160  142.6430 C   0  0  0  0  0  2  0  0  0  0  0  0
  184.9610  179.0270  142.1430 C   0  0  0  0  0  2  0  0  0  0  0  0
  186.5480  178.3920  143.9900 C   0  0  0  0  0  0  0  0  0  0  0  0
  189.8600  177.4570  137.4760 C   0  0  0  0  0  3  0  0  0  0  0  0
  188.9640  177.6890  140.1250 C   0  0  0  0  0  0  0  0  0  0  0  0
  188.7440  178.7290  139.2080 C   0  0  0  0  0  3  0  0  0  0  0  0
  189.1930  178.6140  137.8900 C   0  0  0  0  0  3  0  0  0  0  0  0
  190.0750  176.4130  138.3800 C   0  0  0  0  0  3  0  0  0  0  0  0
  189.6260  176.5270  139.6990 C   0  0  0  0  0  3  0  0  0  0  0  0
  1 15  1  0  0  0  0
  2 16  1  0  0  0  0
  4 13  2  0  0  0  0
  6  2  2  0  0  0  0
  6 18  1  0  0  0  0
  7 13  1  0  0  0  0
  7  9  1  0  0  0  0
  8 17  2  0  0  0  0
 10  8  1  0  0  0  0
 11  7  2  0  0  0  0
 12  1  2  0  0  0  0
 12  2  1  0  0  0  0
 13  5  1  0  0  0  0
 14 11  1  0  0  0  0
 14  4  1  0  0  0  0
 15 21  2  0  0  0  0
 16  3  2  0  0  0  0
 16 11  1  0  0  0  0
 18 14  2  0  0  0  0
 19 10  1  0  0  0  0
 20 15  1  0  0  0  0
 20 19  1  0  0  0  0
 21  3  1  0  0  0  0
 21 17  1  0  0  0  0
 22 25  2  0  0  0  0
 22 26  1  0  0  0  0
 23 12  1  0  0  0  0
 24 23  2  0  0  0  0
 25 24  1  0  0  0  0
 26 27  2  0  0  0  0
 27 23  1  0  0  0  0
M  END
>  <MODEL>
6

>  <REMARK>
 VINA RESULT:     -11.1      1.954      5.248
  Name = 
  1 active torsions:
  status: ('A' for Active; 'I' for Inactive)
    1  A    between atoms: C_9  and  C_15
                            x       y       z     vdW  Elec       q    Type
                         _______ _______ _______ _____ _____    ______ ____

>  <TORSDO>
F 1

$$$$
=
 OpenBabel11032420363D

 27 31  0  0  0  0  0  0  0  0999 V2000
  189.3800  177.4510  144.3410 C   0  0  0  0  0  3  0  0  0  0  0  0
  187.4560  178.0370  142.8310 C   0  0  0  0  0  0  0  0  0  0  0  0
  186.5460  178.0440  145.1850 C   0  0  0  0  0  3  0  0  0  0  0  0
  183.5680  179.0430  141.7770 N   0  0  0  0  0  0  0  0  0  0  0  0
  181.6320  179.3260  143.2320 N   0  0  0  0  0  1  0  0  0  0  0  0
  187.1230  178.2720  141.4680 C   0  0  0  0  0  3  0  0  0  0  0  0
  183.9210  178.7210  143.9950 C   0  0  0  0  0  0  0  0  0  0  0  0
  187.8500  177.8560  148.5950 C   0  0  0  0  0  3  0  0  0  0  0  0
  183.6310  178.6280  145.4570 C   0  0  0  0  0  1  0  0  0  0  0  0
  189.2310  178.0510  148.7140 O   0  0  0  0  0  0  0  0  0  0  0  0
  185.1270  178.5170  143.3380 C   0  0  0  0  0  0  0  0  0  0  0  0
  188.8040  177.6830  143.0960 C   0  0  0  0  0  0  0  0  0  0  0  0
  183.0080  179.0370  143.0060 C   0  0  0  0  0  0  0  0  0  0  0  0
  184.8560  178.7250  142.0060 C   0  0  0  0  0  0  0  0  0  0  0  0
  188.9080  177.4750  145.6400 C   0  0  0  0  0  0  0  0  0  0  0  0
  186.4180  178.1810  143.8070 C   0  0  0  0  0  0  0  0  0  0  0  0
  187.1510  177.7480  147.4570 C   0  0  0  0  0  3  0  0  0  0  0  0
  185.8390  178.6150  141.0420 C   0  0  0  0  0  3  0  0  0  0  0  0
  190.1120  178.2520  147.6230 C   0  0  0  0  0  2  0  0  0  0  0  0
  189.9530  177.1180  146.6400 C   0  0  0  0  0  2  0  0  0  0  0  0
  187.5950  177.7600  146.0410 C   0  0  0  0  0  0  0  0  0  0  0  0
  191.6020  177.1280  139.8910 C   0  0  0  0  0  3  0  0  0  0  0  0
  189.7690  177.5080  141.9810 C   0  0  0  0  0  0  0  0  0  0  0  0
  189.3220  177.1210  140.7080 C   0  0  0  0  0  3  0  0  0  0  0  0
  190.2360  176.9360  139.6670 C   0  0  0  0  0  3  0  0  0  0  0  0
  192.0560  177.5030  141.1590 C   0  0  0  0  0  3  0  0  0  0  0  0
  191.1420  177.6890  142.2020 C   0  0  0  0  0  3  0  0  0  0  0  0
  1 15  1  0  0  0  0
  2 12  1  0  0  0  0
  2 16  1  0  0  0  0
  3 21  1  0  0  0  0
  4 14  1  0  0  0  0
  4 13  2  0  0  0  0
  6  2  2  0  0  0  0
  7  9  1  0  0  0  0
  8 10  1  0  0  0  0
 11 16  1  0  0  0  0
 11  7  2  0  0  0  0
 12  1  2  0  0  0  0
 13  5  1  0  0  0  0
 13  7  1  0  0  0  0
 14 11  1  0  0  0  0
 15 21  2  0  0  0  0
 15 20  1  0  0  0  0
 16  3  2  0  0  0  0
 17  8  2  0  0  0  0
 18  6  1  0  0  0  0
 18 14  2  0  0  0  0
 19 10  1  0  0  0  0
 20 19  1  0  0  0  0
 21 17  1  0  0  0  0
 22 26  1  0  0  0  0
 23 27  1  0  0  0  0
 23 12  1  0  0  0  0
 24 23  2  0  0  0  0
 25 22  2  0  0  0  0
 25 24  1  0  0  0  0
 26 27  2  0  0  0  0
M  END
>  <MODEL>
7

>  <REMARK>
 VINA RESULT:     -10.9      3.456      7.130
  Name = 
  1 active torsions:
  status: ('A' for Active; 'I' for Inactive)
    1  A    between atoms: C_9  and  C_15
                            x       y       z     vdW  Elec       q    Type
                         _______ _______ _______ _____ _____    ______ ____

>  <TORSDO>
F 1

$$$$
=
 OpenBabel11032420363D

 27 31  0  0  0  0  0  0  0  0999 V2000
  189.7420  177.1280  142.5810 C   0  0  0  0  0  3  0  0  0  0  0  0
  187.4440  177.9630  141.9960 C   0  0  0  0  0  0  0  0  0  0  0  0
  187.4700  177.6380  144.4990 C   0  0  0  0  0  3  0  0  0  0  0  0
  183.5240  179.1830  142.6220 N   0  0  0  0  0  0  0  0  0  0  0  0
  182.2880  179.2810  144.7210 N   0  0  0  0  0  1  0  0  0  0  0  0
  186.6480  178.4040  140.9010 C   0  0  0  0  0  3  0  0  0  0  0  0
  184.6470  178.5300  144.4820 C   0  0  0  0  0  0  0  0  0  0  0  0
  189.9250  176.9260  147.1130 C   0  0  0  0  0  3  0  0  0  0  0  0
  184.9110  178.2260  145.9200 C   0  0  0  0  0  1  0  0  0  0  0  0
  191.2620  177.0760  146.7280 O   0  0  0  0  0  0  0  0  0  0  0  0
  185.5070  178.4040  143.3990 C   0  0  0  0  0  0  0  0  0  0  0  0
  188.7650  177.5510  141.6870 C   0  0  0  0  0  0  0  0  0  0  0  0
  183.4580  179.0040  143.9590 C   0  0  0  0  0  0  0  0  0  0  0  0
  184.7790  178.8110  142.3060 C   0  0  0  0  0  0  0  0  0  0  0  0
  189.7860  176.9670  143.9540 C   0  0  0  0  0  0  0  0  0  0  0  0
  186.8530  177.9800  143.3010 C   0  0  0  0  0  0  0  0  0  0  0  0
  188.8490  176.9990  146.3170 C   0  0  0  0  0  3  0  0  0  0  0  0
  185.3260  178.8270  141.0380 C   0  0  0  0  0  3  0  0  0  0  0  0
  191.6900  177.4220  145.4230 C   0  0  0  0  0  2  0  0  0  0  0  0
  191.0980  176.4480  144.4330 C   0  0  0  0  0  2  0  0  0  0  0  0
  188.7380  177.2130  144.8530 C   0  0  0  0  0  0  0  0  0  0  0  0
  190.1570  177.5130  137.6280 C   0  0  0  0  0  3  0  0  0  0  0  0
  189.2340  177.5250  140.2780 C   0  0  0  0  0  0  0  0  0  0  0  0
  190.1360  176.5400  139.8460 C   0  0  0  0  0  3  0  0  0  0  0  0
  190.5920  176.5330  138.5250 C   0  0  0  0  0  3  0  0  0  0  0  0
  189.2670  178.5040  138.0540 C   0  0  0  0  0  3  0  0  0  0  0  0
  188.8090  178.5120  139.3750 C   0  0  0  0  0  3  0  0  0  0  0  0
  1 15  1  0  0  0  0
  2 16  1  0  0  0  0
  3 21  1  0  0  0  0
  4 13  2  0  0  0  0
  6 18  1  0  0  0  0
  6  2  2  0  0  0  0
  7  9  1  0  0  0  0
 10  8  1  0  0  0  0
 11  7  2  0  0  0  0
 12  2  1  0  0  0  0
 12  1  2  0  0  0  0
 13  7  1  0  0  0  0
 13  5  1  0  0  0  0
 14  4  1  0  0  0  0
 14 11  1  0  0  0  0
 15 20  1  0  0  0  0
 15 21  2  0  0  0  0
 16 11  1  0  0  0  0
 16  3  2  0  0  0  0
 17  8  2  0  0  0  0
 18 14  2  0  0  0  0
 19 10  1  0  0  0  0
 20 19  1  0  0  0  0
 21 17  1  0  0  0  0
 22 26  2  0  0  0  0
 22 25  1  0  0  0  0
 23 12  1  0  0  0  0
 24 23  1  0  0  0  0
 25 24  2  0  0  0  0
 26 27  1  0  0  0  0
 27 23  2  0  0  0  0
M  END
>  <MODEL>
8

>  <REMARK>
 VINA RESULT:     -10.9      3.108      6.457
  Name = 
  1 active torsions:
  status: ('A' for Active; 'I' for Inactive)
    1  A    between atoms: C_9  and  C_15
                            x       y       z     vdW  Elec       q    Type
                         _______ _______ _______ _____ _____    ______ ____

>  <TORSDO>
F 1

$$$$
=
 OpenBabel11032420363D

 27 31  0  0  0  0  0  0  0  0999 V2000
  185.9950  178.0850  144.7670 C   0  0  0  0  0  3  0  0  0  0  0  0
  188.1400  177.8690  143.4730 C   0  0  0  0  0  0  0  0  0  0  0  0
  186.2890  178.0470  141.7650 C   0  0  0  0  0  3  0  0  0  0  0  0
  190.6100  177.6120  140.1440 N   0  0  0  0  0  0  0  0  0  0  0  0
  189.9800  177.6240  137.7900 N   0  0  0  0  0  1  0  0  0  0  0  0
  189.5500  177.7650  143.6350 C   0  0  0  0  0  3  0  0  0  0  0  0
  188.3920  177.7880  139.6980 C   0  0  0  0  0  0  0  0  0  0  0  0
  182.7150  178.8100  141.7140 C   0  0  0  0  0  3  0  0  0  0  0  0
  187.1300  177.8780  138.9060 C   0  0  0  0  0  1  0  0  0  0  0  0
  182.2120  179.3800  142.8900 O   0  0  0  0  0  0  0  0  0  0  0  0
  188.5510  177.7980  141.0770 C   0  0  0  0  0  0  0  0  0  0  0  0
  187.3740  177.9350  144.6650 C   0  0  0  0  0  0  0  0  0  0  0  0
  189.6690  177.6730  139.1780 C   0  0  0  0  0  0  0  0  0  0  0  0
  189.9050  177.6900  141.2890 C   0  0  0  0  0  0  0  0  0  0  0  0
  184.9680  178.2110  143.8490 C   0  0  0  0  0  0  0  0  0  0  0  0
  187.6220  177.9020  142.1380 C   0  0  0  0  0  0  0  0  0  0  0  0
  183.9480  178.3230  141.5230 C   0  0  0  0  0  3  0  0  0  0  0  0
  190.4390  177.6770  142.5630 C   0  0  0  0  0  3  0  0  0  0  0  0
  182.9750  179.6130  144.0600 C   0  0  0  0  0  2  0  0  0  0  0  0
  183.6290  178.3230  144.4920 C   0  0  0  0  0  2  0  0  0  0  0  0
  185.0990  178.2050  142.4520 C   0  0  0  0  0  0  0  0  0  0  0  0
  189.2530  177.5850  148.5060 C   0  0  0  0  0  3  0  0  0  0  0  0
  188.0340  177.8280  145.9900 C   0  0  0  0  0  0  0  0  0  0  0  0
  189.2670  177.1700  146.1200 C   0  0  0  0  0  3  0  0  0  0  0  0
  189.8750  177.0520  147.3730 C   0  0  0  0  0  3  0  0  0  0  0  0
  188.0210  178.2340  148.3860 C   0  0  0  0  0  3  0  0  0  0  0  0
  187.4120  178.3530  147.1330 C   0  0  0  0  0  3  0  0  0  0  0  0
  2  6  1  0  0  0  0
  2 12  2  0  0  0  0
  3 16  1  0  0  0  0
  3 21  2  0  0  0  0
  4 14  2  0  0  0  0
  5 13  1  0  0  0  0
  7 11  1  0  0  0  0
  8 10  1  0  0  0  0
  9  7  1  0  0  0  0
 10 19  1  0  0  0  0
 11 14  1  0  0  0  0
 11 16  2  0  0  0  0
 12  1  1  0  0  0  0
 12 23  1  0  0  0  0
 13  7  2  0  0  0  0
 13  4  1  0  0  0  0
 14 18  1  0  0  0  0
 15 20  1  0  0  0  0
 15  1  2  0  0  0  0
 16  2  1  0  0  0  0
 17  8  2  0  0  0  0
 17 21  1  0  0  0  0
 18  6  2  0  0  0  0
 19 20  1  0  0  0  0
 21 15  1  0  0  0  0
 23 24  2  0  0  0  0
 23 27  1  0  0  0  0
 24 25  1  0  0  0  0
 25 22  2  0  0  0  0
 26 22  1  0  0  0  0
 27 26  2  0  0  0  0
M  END
>  <MODEL>
9

>  <REMARK>
 VINA RESULT:     -10.8      3.120      6.266
  Name = 
  1 active torsions:
  status: ('A' for Active; 'I' for Inactive)
    1  A    between atoms: C_9  and  C_15
                            x       y       z     vdW  Elec       q    Type
                         _______ _______ _______ _____ _____    ______ ____

>  <TORSDO>
F 1

$$$$
