=
 OpenBabel11042412363D

 41 45  0  0  1  0  0  0  0  0999 V2000
  187.8340  177.1250  137.6450 C   0  0  0  0  0  0  0  0  0  0  0  0
  189.0500  176.9150  139.7640 C   0  0  0  0  0  0  0  0  0  0  0  0
  189.6240  177.3080  135.9040 C   0  0  0  0  0  2  0  0  0  0  0  0
  188.6370  178.2380  135.1760 C   0  0  0  0  0  2  0  0  0  0  0  0
  189.9380  175.7450  137.8460 C   0  0  0  0  0  0  0  0  0  0  0  0
  185.5020  176.7780  136.8410 C   0  0  0  0  0  1  0  0  0  0  0  0
  188.9470  176.3970  136.9360 C   0  0  0  0  0  0  0  0  0  0  0  0
  189.3630  177.2560  141.0320 C   0  0  2  0  0  3  0  0  0  0  0  0
  186.7350  177.6600  136.7470 C   0  0  2  0  0  3  0  0  0  0  0  0
  187.4900  178.8360  141.7490 C   0  0  0  0  0  3  0  0  0  0  0  0
  186.3540  178.6460  134.5940 O   0  0  0  0  0  1  0  0  0  0  0  0
  187.8790  177.4070  138.9710 C   0  0  0  0  0  0  0  0  0  0  0  0
  187.1850  177.7620  135.2810 C   0  0  1  0  0  3  0  0  0  0  0  0
  188.6770  178.2610  141.8690 C   0  0  0  0  0  3  0  0  0  0  0  0
  186.6860  178.0600  139.5420 C   0  0  0  0  0  3  0  0  0  0  0  0
  186.4820  178.6380  140.7180 C   0  0  0  0  0  0  0  0  0  0  0  0
  190.8840  174.8250  137.3110 N   0  0  0  0  0  1  0  0  0  0  0  0
  189.9610  176.0130  139.1130 N   0  0  0  0  0  0  0  0  0  0  0  0
  190.5270  176.6440  141.6100 N   0  0  0  0  0  2  0  0  0  0  0  0
  191.7130  176.2220  143.7020 C   0  0  1  0  0  3  0  0  0  0  0  0
  189.2690  176.1420  143.6120 C   0  0  0  0  0  2  0  0  0  0  0  0
  192.2160  175.0810  144.3280 O   0  0  0  0  0  1  0  0  0  0  0  0
  190.5260  175.8320  142.8200 C   0  0  1  0  0  3  0  0  0  0  0  0
  189.7240  177.0520  144.6940 C   0  0  0  0  0  0  0  0  0  0  0  0
  188.9120  177.6460  145.5710 C   0  0  0  0  0  3  0  0  0  0  0  0
  191.1990  177.1890  144.7560 C   0  0  2  0  0  3  0  0  0  0  0  0
  191.6160  178.6040  144.3900 C   0  0  0  0  0  1  0  0  0  0  0  0
  187.4410  177.5490  145.5340 C   0  0  0  0  0  3  0  0  0  0  0  0
  186.5900  177.9690  146.4810 C   0  0  0  0  0  3  0  0  0  0  0  0
  187.8530  178.0230  148.6150 C   0  0  0  0  0  2  0  0  0  0  0  0
  186.9130  178.5130  147.8160 C   0  0  0  0  0  3  0  0  0  0  0  0
  185.1380  179.2370  140.9740 C   0  0  0  0  0  2  0  0  0  0  0  0
  183.1410  177.9090  140.5780 N   0  0  0  0  0  0  0  0  0  0  0  0
  184.1700  178.2160  141.5640 C   0  0  2  0  0  3  0  0  0  0  0  0
  181.9850  178.2440  140.9910 N   0  0  0  0  0  0  0  0  0  0  0  0
  182.0880  178.8060  142.2890 C   0  0  0  0  0  0  0  0  0  0  0  0
  183.3580  178.8100  142.6720 C   0  0  0  0  0  0  0  0  0  0  0  0
  183.8870  179.2470  143.9990 C   0  0  0  0  0  1  0  0  0  0  0  0
  180.4070  180.3970  142.8520 O   0  0  0  0  0  0  0  0  0  0  0  0
  180.9180  179.2650  143.0590 C   0  0  0  0  0  0  0  0  0  0  0  0
  180.3570  178.4220  144.0600 N   0  0  0  0  0  1  0  0  0  0  0  0
  1 12  1  0  0  0  0
  2  8  1  0  0  0  0
  3  7  1  0  0  0  0
  4 13  1  0  0  0  0
  4  3  1  0  0  0  0
  5 18  2  0  0  0  0
  7  1  2  0  0  0  0
  7  5  1  0  0  0  0
  8 19  1  6  0  0  0
  8 14  1  0  0  0  0
  9  6  1  6  0  0  0
  9  1  1  0  0  0  0
 10 14  2  0  0  0  0
 12 15  1  0  0  0  0
 12  2  2  0  0  0  0
 13 11  1  6  0  0  0
 13  9  1  0  0  0  0
 15 16  2  0  0  0  0
 16 32  1  0  0  0  0
 16 10  1  0  0  0  0
 17  5  1  0  0  0  0
 18  2  1  0  0  0  0
 20 22  1  1  0  0  0
 20 26  1  0  0  0  0
 21 24  1  0  0  0  0
 23 19  1  6  0  0  0
 23 21  1  0  0  0  0
 23 20  1  0  0  0  0
 24 26  1  0  0  0  0
 24 25  2  0  0  0  0
 26 27  1  6  0  0  0
 28 25  1  0  0  0  0
 28 29  2  0  0  0  0
 29 31  1  0  0  0  0
 31 30  2  0  0  0  0
 33 35  2  0  0  0  0
 33 34  1  0  0  0  0
 34 32  1  6  0  0  0
 34 37  1  0  0  0  0
 35 36  1  0  0  0  0
 36 37  2  0  0  0  0
 36 40  1  0  0  0  0
 37 38  1  0  0  0  0
 39 40  2  0  0  0  0
 40 41  1  0  0  0  0
M  END
>  <MODEL>
1

>  <REMARK>
 VINA RESULT:     -10.1      0.000      0.000
  Name = 
  7 active torsions:
  status: ('A' for Active; 'I' for Inactive)
    1  A    between atoms: C_10  and  C_25
    2  A    between atoms: C_12  and  C_17
    3  A    between atoms: C_16  and  N_21
    4  A    between atoms: N_21  and  C_23
    5  A    between atoms: C_25  and  C_37
    6  A    between atoms: C_32  and  C_35
    7  A    between atoms: C_34  and  C_38
                            x       y       z     vdW  Elec       q    Type
                         _______ _______ _______ _____ _____    ______ ____

>  <TORSDO>
F 7

$$$$
=
 OpenBabel11042412363D

 41 45  0  0  1  0  0  0  0  0999 V2000
  188.9670  177.1050  138.4860 C   0  0  0  0  0  0  0  0  0  0  0  0
  186.9900  178.3320  139.2590 C   0  0  0  0  0  0  0  0  0  0  0  0
  188.0950  175.5330  136.7440 C   0  0  0  0  0  2  0  0  0  0  0  0
  189.1830  174.5710  137.2540 C   0  0  0  0  0  2  0  0  0  0  0  0
  187.1570  177.8590  136.8960 C   0  0  0  0  0  0  0  0  0  0  0  0
  191.4400  177.3350  138.6680 C   0  0  0  0  0  1  0  0  0  0  0  0
  188.3610  176.9980  137.1100 C   0  0  0  0  0  0  0  0  0  0  0  0
  186.1240  178.7950  140.1860 C   0  0  2  0  0  3  0  0  0  0  0  0
  190.2750  176.3610  138.6770 C   0  0  2  0  0  3  0  0  0  0  0  0
  187.3070  178.4100  142.4150 C   0  0  0  0  0  3  0  0  0  0  0  0
  191.4300  174.3560  138.0440 O   0  0  0  0  0  1  0  0  0  0  0  0
  188.3230  177.7010  139.5200 C   0  0  0  0  0  0  0  0  0  0  0  0
  190.4920  175.2880  137.5990 C   0  0  1  0  0  3  0  0  0  0  0  0
  186.2600  178.6840  141.6520 C   0  0  0  0  0  3  0  0  0  0  0  0
  189.0680  177.7950  140.7900 C   0  0  0  0  0  3  0  0  0  0  0  0
  188.6760  178.1230  142.0130 C   0  0  0  0  0  0  0  0  0  0  0  0
  186.6490  178.0390  135.5780 N   0  0  0  0  0  1  0  0  0  0  0  0
  186.5600  178.4340  137.8910 N   0  0  0  0  0  0  0  0  0  0  0  0
  184.9040  179.3860  139.7090 N   0  0  0  0  0  2  0  0  0  0  0  0
  183.2270  177.6500  140.0780 C   0  0  1  0  0  3  0  0  0  0  0  0
  182.7060  179.6270  138.7340 C   0  0  0  0  0  2  0  0  0  0  0  0
  182.8570  176.4880  139.4010 O   0  0  0  0  0  1  0  0  0  0  0  0
  183.8140  178.6500  139.0810 C   0  0  1  0  0  3  0  0  0  0  0  0
  181.6930  179.4390  139.8030 C   0  0  0  0  0  0  0  0  0  0  0  0
  180.5880  180.1770  139.9340 C   0  0  0  0  0  3  0  0  0  0  0  0
  181.9920  178.2900  140.6910 C   0  0  2  0  0  3  0  0  0  0  0  0
  182.3180  178.7750  142.0950 C   0  0  0  0  0  1  0  0  0  0  0  0
  180.2630  181.3360  139.0830 C   0  0  0  0  0  3  0  0  0  0  0  0
  179.7000  181.3000  137.8670 C   0  0  0  0  0  3  0  0  0  0  0  0
  180.0390  179.7690  135.9450 C   0  0  0  0  0  2  0  0  0  0  0  0
  179.3830  180.1120  137.0470 C   0  0  0  0  0  3  0  0  0  0  0  0
  189.6990  178.0930  143.1010 C   0  0  0  0  0  2  0  0  0  0  0  0
  188.8240  177.5320  145.2980 N   0  0  0  0  0  0  0  0  0  0  0  0
  189.4280  176.9690  144.0970 C   0  0  2  0  0  3  0  0  0  0  0  0
  189.5610  177.3500  146.3190 N   0  0  0  0  0  0  0  0  0  0  0  0
  190.7350  176.6500  145.9410 C   0  0  0  0  0  0  0  0  0  0  0  0
  190.7030  176.4000  144.6380 C   0  0  0  0  0  0  0  0  0  0  0  0
  191.7070  175.6200  143.8550 C   0  0  0  0  0  1  0  0  0  0  0  0
  192.4620  175.2110  146.7300 O   0  0  0  0  0  0  0  0  0  0  0  0
  191.7790  176.2550  146.9030 C   0  0  0  0  0  0  0  0  0  0  0  0
  192.0200  177.0600  148.0520 N   0  0  0  0  0  1  0  0  0  0  0  0
  1  9  1  0  0  0  0
  1 12  1  0  0  0  0
  2 12  2  0  0  0  0
  2  8  1  0  0  0  0
  3  7  1  0  0  0  0
  3  4  1  0  0  0  0
  4 13  1  0  0  0  0
  5  7  1  0  0  0  0
  5 18  2  0  0  0  0
  7  1  2  0  0  0  0
  8 19  1  6  0  0  0
  8 14  1  0  0  0  0
  9  6  1  6  0  0  0
 12 15  1  0  0  0  0
 13 11  1  1  0  0  0
 13  9  1  0  0  0  0
 14 10  2  0  0  0  0
 15 16  2  0  0  0  0
 16 10  1  0  0  0  0
 16 32  1  0  0  0  0
 17  5  1  0  0  0  0
 18  2  1  0  0  0  0
 20 22  1  6  0  0  0
 20 26  1  0  0  0  0
 21 23  1  0  0  0  0
 21 24  1  0  0  0  0
 23 19  1  1  0  0  0
 23 20  1  0  0  0  0
 24 25  2  0  0  0  0
 24 26  1  0  0  0  0
 26 27  1  1  0  0  0
 28 25  1  0  0  0  0
 29 28  2  0  0  0  0
 30 31  2  0  0  0  0
 31 29  1  0  0  0  0
 33 35  2  0  0  0  0
 34 32  1  6  0  0  0
 34 37  1  0  0  0  0
 34 33  1  0  0  0  0
 36 35  1  0  0  0  0
 36 40  1  0  0  0  0
 37 36  2  0  0  0  0
 38 37  1  0  0  0  0
 39 40  2  0  0  0  0
 40 41  1  0  0  0  0
M  END
>  <MODEL>
2

>  <REMARK>
 VINA RESULT:      -8.8      3.173      7.979
  Name = 
  7 active torsions:
  status: ('A' for Active; 'I' for Inactive)
    1  A    between atoms: C_10  and  C_25
    2  A    between atoms: C_12  and  C_17
    3  A    between atoms: C_16  and  N_21
    4  A    between atoms: N_21  and  C_23
    5  A    between atoms: C_25  and  C_37
    6  A    between atoms: C_32  and  C_35
    7  A    between atoms: C_34  and  C_38
                            x       y       z     vdW  Elec       q    Type
                         _______ _______ _______ _____ _____    ______ ____

>  <TORSDO>
F 7

$$$$
=
 OpenBabel11042412363D

 41 45  0  0  1  0  0  0  0  0999 V2000
  184.4640  178.9610  140.3830 C   0  0  0  0  0  0  0  0  0  0  0  0
  186.7100  178.5090  141.2580 C   0  0  0  0  0  0  0  0  0  0  0  0
  182.9120  178.0560  142.1280 C   0  0  0  0  0  2  0  0  0  0  0  0
  181.9950  177.7060  140.9420 C   0  0  0  0  0  2  0  0  0  0  0  0
  185.0230  179.2250  142.8310 C   0  0  0  0  0  0  0  0  0  0  0  0
  183.4570  180.3610  138.5870 C   0  0  0  0  0  1  0  0  0  0  0  0
  183.9520  179.1320  141.7910 C   0  0  1  0  0  3  0  0  0  0  0  0
  187.9640  178.0110  141.2060 C   0  0  0  0  0  0  0  0  0  0  0  0
  183.4070  179.0200  139.2980 C   0  0  2  0  0  3  0  0  0  0  0  0
  188.3190  177.4260  138.7470 C   0  0  0  0  0  3  0  0  0  0  0  0
  181.1380  178.4030  138.8220 O   0  0  0  0  0  1  0  0  0  0  0  0
  185.7530  178.6350  140.1130 C   0  0  0  0  0  0  0  0  0  0  0  0
  181.9940  178.7850  139.8550 C   0  0  1  0  0  3  0  0  0  0  0  0
  188.6190  177.3940  140.0360 C   0  0  0  0  0  3  0  0  0  0  0  0
  186.1270  178.5720  138.6870 C   0  0  0  0  0  3  0  0  0  0  0  0
  187.2120  178.1020  138.0870 C   0  0  0  0  0  0  0  0  0  0  0  0
  184.6840  179.6370  144.1520 N   0  0  0  0  0  1  0  0  0  0  0  0
  186.2520  178.9250  142.5560 N   0  0  0  0  0  0  0  0  0  0  0  0
  188.7190  178.0040  142.4290 N   0  0  0  0  0  2  0  0  0  0  0  0
  191.1530  177.9260  142.6100 C   0  0  1  0  0  3  0  0  0  0  0  0
  189.7430  176.6260  144.1300 C   0  0  0  0  0  2  0  0  0  0  0  0
  192.1490  177.1200  142.0590 O   0  0  0  0  0  1  0  0  0  0  0  0
  189.8510  177.1280  142.7020 C   0  0  1  0  0  3  0  0  0  0  0  0
  190.7070  177.4580  144.8930 C   0  0  0  0  0  0  0  0  0  0  0  0
  190.8610  177.4090  146.2190 C   0  0  0  0  0  3  0  0  0  0  0  0
  191.5480  178.3170  144.0250 C   0  0  2  0  0  3  0  0  0  0  0  0
  191.2210  179.7840  144.2540 C   0  0  0  0  0  1  0  0  0  0  0  0
  190.0360  176.5830  147.1180 C   0  0  0  0  0  3  0  0  0  0  0  0
  188.7630  176.8150  147.4700 C   0  0  0  0  0  3  0  0  0  0  0  0
  186.9280  177.9840  146.2790 C   0  0  0  0  0  2  0  0  0  0  0  0
  187.9320  177.9930  147.1480 C   0  0  0  0  0  3  0  0  0  0  0  0
  187.2630  178.1680  136.5960 C   0  0  0  0  0  2  0  0  0  0  0  0
  186.0520  176.0910  136.9540 N   0  0  0  0  0  0  0  0  0  0  0  0
  186.7760  176.8700  135.9580 C   0  0  2  0  0  3  0  0  0  0  0  0
  186.6240  174.9780  137.1810 N   0  0  0  0  0  0  0  0  0  0  0  0
  187.7860  174.8670  136.3750 C   0  0  0  0  0  0  0  0  0  0  0  0
  187.9180  175.9590  135.6330 C   0  0  0  0  0  0  0  0  0  0  0  0
  188.9640  176.2110  134.5970 C   0  0  0  0  0  1  0  0  0  0  0  0
  188.4170  172.6960  135.6260 O   0  0  0  0  0  0  0  0  0  0  0  0
  188.6550  173.6760  136.3800 C   0  0  0  0  0  0  0  0  0  0  0  0
  189.7780  173.6250  137.2530 N   0  0  0  0  0  1  0  0  0  0  0  0
  1  7  1  0  0  0  0
  2 18  1  0  0  0  0
  4  3  1  0  0  0  0
  5 17  1  0  0  0  0
  7  3  1  1  0  0  0
  7  5  1  0  0  0  0
  8  2  2  0  0  0  0
  8 19  1  0  0  0  0
  9  6  1  1  0  0  0
  9 13  1  0  0  0  0
  9  1  1  0  0  0  0
 10 14  2  0  0  0  0
 12  1  2  0  0  0  0
 12  2  1  0  0  0  0
 13 11  1  6  0  0  0
 13  4  1  0  0  0  0
 14  8  1  0  0  0  0
 15 12  1  0  0  0  0
 16 15  2  0  0  0  0
 16 10  1  0  0  0  0
 18  5  2  0  0  0  0
 20 22  1  1  0  0  0
 20 23  1  0  0  0  0
 20 26  1  0  0  0  0
 21 24  1  0  0  0  0
 23 19  1  1  0  0  0
 23 21  1  0  0  0  0
 24 25  2  0  0  0  0
 25 28  1  0  0  0  0
 26 27  1  1  0  0  0
 26 24  1  0  0  0  0
 28 29  2  0  0  0  0
 30 31  2  0  0  0  0
 31 29  1  0  0  0  0
 32 16  1  0  0  0  0
 33 35  2  0  0  0  0
 34 32  1  1  0  0  0
 34 33  1  0  0  0  0
 36 40  1  0  0  0  0
 36 35  1  0  0  0  0
 37 34  1  0  0  0  0
 37 36  2  0  0  0  0
 38 37  1  0  0  0  0
 39 40  2  0  0  0  0
 40 41  1  0  0  0  0
M  END
>  <MODEL>
3

>  <REMARK>
 VINA RESULT:      -8.7      2.343      6.188
  Name = 
  7 active torsions:
  status: ('A' for Active; 'I' for Inactive)
    1  A    between atoms: C_10  and  C_25
    2  A    between atoms: C_12  and  C_17
    3  A    between atoms: C_16  and  N_21
    4  A    between atoms: N_21  and  C_23
    5  A    between atoms: C_25  and  C_37
    6  A    between atoms: C_32  and  C_35
    7  A    between atoms: C_34  and  C_38
                            x       y       z     vdW  Elec       q    Type
                         _______ _______ _______ _____ _____    ______ ____

>  <TORSDO>
F 7

$$$$
=
 OpenBabel11042412363D

 41 45  0  0  1  0  0  0  0  0999 V2000
  188.5270  177.1460  143.5720 C   0  0  0  0  0  0  0  0  0  0  0  0
  186.4890  177.9930  142.5010 C   0  0  0  0  0  0  0  0  0  0  0  0
  188.5940  178.2910  145.7970 C   0  0  0  0  0  2  0  0  0  0  0  0
  190.1220  178.2680  145.6150 C   0  0  0  0  0  2  0  0  0  0  0  0
  186.3910  177.5170  144.8680 C   0  0  0  0  0  0  0  0  0  0  0  0
  190.1320  175.2770  143.2100 C   0  0  0  0  0  1  0  0  0  0  0  0
  187.8650  177.2650  144.9210 C   0  0  1  0  0  3  0  0  0  0  0  0
  185.7820  178.5750  141.5100 C   0  0  0  0  0  0  0  0  0  0  0  0
  189.9870  176.7370  143.6000 C   0  0  2  0  0  3  0  0  0  0  0  0
  187.3730  178.5940  139.5140 C   0  0  0  0  0  3  0  0  0  0  0  0
  192.0120  177.0170  144.8550 O   0  0  0  0  0  1  0  0  0  0  0  0
  187.9060  177.5140  142.4230 C   0  0  0  0  0  0  0  0  0  0  0  0
  190.6240  176.9680  144.9800 C   0  0  1  0  0  3  0  0  0  0  0  0
  186.2840  178.9570  140.1750 C   0  0  0  0  0  3  0  0  0  0  0  0
  188.6490  177.2730  141.1720 C   0  0  0  0  0  3  0  0  0  0  0  0
  188.4310  177.6850  139.9300 C   0  0  0  0  0  0  0  0  0  0  0  0
  185.6160  177.3990  146.0560 N   0  0  0  0  0  1  0  0  0  0  0  0
  185.8100  177.8540  143.7610 N   0  0  0  0  0  0  0  0  0  0  0  0
  184.4220  178.9380  141.7990 N   0  0  0  0  0  2  0  0  0  0  0  0
  182.1400  179.0470  140.9380 C   0  0  1  0  0  3  0  0  0  0  0  0
  183.6260  177.2080  140.3100 C   0  0  0  0  0  2  0  0  0  0  0  0
  180.9070  178.5530  141.3690 O   0  0  0  0  0  1  0  0  0  0  0  0
  183.2560  178.1360  141.4520 C   0  0  1  0  0  3  0  0  0  0  0  0
  183.0530  177.8530  139.1020 C   0  0  0  0  0  0  0  0  0  0  0  0
  183.2300  177.4110  137.8540 C   0  0  0  0  0  3  0  0  0  0  0  0
  182.1900  179.0170  139.4190 C   0  0  2  0  0  3  0  0  0  0  0  0
  182.8240  180.3010  138.9100 C   0  0  0  0  0  1  0  0  0  0  0  0
  184.0910  176.2700  137.4960 C   0  0  0  0  0  3  0  0  0  0  0  0
  185.2990  176.3330  136.9180 C   0  0  0  0  0  3  0  0  0  0  0  0
  187.2110  177.5090  135.8630 C   0  0  0  0  0  2  0  0  0  0  0  0
  185.9970  177.5270  136.4010 C   0  0  0  0  0  3  0  0  0  0  0  0
  189.4100  177.2740  138.8800 C   0  0  0  0  0  2  0  0  0  0  0  0
  191.4990  177.3430  140.1220 N   0  0  0  0  0  0  0  0  0  0  0  0
  190.5520  176.4490  139.4670 C   0  0  2  0  0  3  0  0  0  0  0  0
  192.6430  177.2950  139.5680 N   0  0  0  0  0  0  0  0  0  0  0  0
  192.6130  176.3730  138.4910 C   0  0  0  0  0  0  0  0  0  0  0  0
  191.3990  175.8460  138.3910 C   0  0  0  0  0  0  0  0  0  0  0  0
  190.9660  174.7810  137.4390 C   0  0  0  0  0  1  0  0  0  0  0  0
  193.9930  176.6530  136.5690 O   0  0  0  0  0  0  0  0  0  0  0  0
  193.7940  176.0640  137.6650 C   0  0  0  0  0  0  0  0  0  0  0  0
  194.7260  175.0820  138.1060 N   0  0  0  0  0  1  0  0  0  0  0  0
  1  9  1  0  0  0  0
  1  7  1  0  0  0  0
  2 18  1  0  0  0  0
  4  3  1  0  0  0  0
  5  7  1  0  0  0  0
  5 17  1  0  0  0  0
  7  3  1  6  0  0  0
  8 19  1  0  0  0  0
  8  2  2  0  0  0  0
  9  6  1  1  0  0  0
  9 13  1  0  0  0  0
 10 16  1  0  0  0  0
 10 14  2  0  0  0  0
 12  2  1  0  0  0  0
 12  1  2  0  0  0  0
 13 11  1  6  0  0  0
 13  4  1  0  0  0  0
 14  8  1  0  0  0  0
 15 12  1  0  0  0  0
 16 15  2  0  0  0  0
 18  5  2  0  0  0  0
 20 22  1  6  0  0  0
 20 23  1  0  0  0  0
 21 23  1  0  0  0  0
 23 19  1  6  0  0  0
 24 26  1  0  0  0  0
 24 21  1  0  0  0  0
 25 24  2  0  0  0  0
 26 27  1  1  0  0  0
 26 20  1  0  0  0  0
 28 25  1  0  0  0  0
 29 28  2  0  0  0  0
 30 31  2  0  0  0  0
 31 29  1  0  0  0  0
 32 16  1  0  0  0  0
 34 32  1  6  0  0  0
 34 33  1  0  0  0  0
 35 33  2  0  0  0  0
 36 35  1  0  0  0  0
 37 36  2  0  0  0  0
 37 34  1  0  0  0  0
 38 37  1  0  0  0  0
 39 40  2  0  0  0  0
 40 41  1  0  0  0  0
 40 36  1  0  0  0  0
M  END
>  <MODEL>
4

>  <REMARK>
 VINA RESULT:      -8.6      2.457      9.272
  Name = 
  7 active torsions:
  status: ('A' for Active; 'I' for Inactive)
    1  A    between atoms: C_10  and  C_25
    2  A    between atoms: C_12  and  C_17
    3  A    between atoms: C_16  and  N_21
    4  A    between atoms: N_21  and  C_23
    5  A    between atoms: C_25  and  C_37
    6  A    between atoms: C_32  and  C_35
    7  A    between atoms: C_34  and  C_38
                            x       y       z     vdW  Elec       q    Type
                         _______ _______ _______ _____ _____    ______ ____

>  <TORSDO>
F 7

$$$$
=
 OpenBabel11042412363D

 41 45  0  0  1  0  0  0  0  0999 V2000
  188.6650  177.3470  138.8790 C   0  0  0  0  0  0  0  0  0  0  0  0
  186.5560  178.3090  139.6820 C   0  0  0  0  0  0  0  0  0  0  0  0
  187.9860  175.7700  137.0570 C   0  0  0  0  0  2  0  0  0  0  0  0
  189.1720  174.9140  137.5360 C   0  0  0  0  0  2  0  0  0  0  0  0
  186.7930  177.9680  137.3020 C   0  0  0  0  0  0  0  0  0  0  0  0
  191.0950  177.8440  139.1010 C   0  0  0  0  0  1  0  0  0  0  0  0
  188.0840  177.2370  137.4920 C   0  0  0  0  0  0  0  0  0  0  0  0
  185.6380  178.6280  140.6190 C   0  0  2  0  0  3  0  0  0  0  0  0
  190.0460  176.7460  139.0520 C   0  0  2  0  0  3  0  0  0  0  0  0
  186.8410  178.2750  142.8420 C   0  0  0  0  0  3  0  0  0  0  0  0
  191.4230  174.9140  138.3440 O   0  0  0  0  0  1  0  0  0  0  0  0
  187.9500  177.8190  139.9310 C   0  0  0  0  0  0  0  0  0  0  0  0
  190.3900  175.7550  137.9290 C   0  0  1  0  0  3  0  0  0  0  0  0
  185.7750  178.4660  142.0790 C   0  0  0  0  0  3  0  0  0  0  0  0
  188.6710  177.9370  141.2130 C   0  0  0  0  0  3  0  0  0  0  0  0
  188.2360  178.1630  142.4450 C   0  0  0  0  0  0  0  0  0  0  0  0
  186.2770  178.1500  135.9880 N   0  0  0  0  0  1  0  0  0  0  0  0
  186.1280  178.4260  138.3150 N   0  0  0  0  0  0  0  0  0  0  0  0
  184.3630  179.1010  140.1540 N   0  0  0  0  0  2  0  0  0  0  0  0
  181.9500  179.4370  140.0010 C   0  0  1  0  0  3  0  0  0  0  0  0
  182.8960  177.1820  140.0680 C   0  0  0  0  0  2  0  0  0  0  0  0
  180.9190  179.5620  140.9330 O   0  0  0  0  0  1  0  0  0  0  0  0
  183.0740  178.5910  140.6010 C   0  0  1  0  0  3  0  0  0  0  0  0
  181.9890  177.3350  138.9020 C   0  0  0  0  0  0  0  0  0  0  0  0
  181.6450  176.3420  138.0780 C   0  0  0  0  0  3  0  0  0  0  0  0
  181.4330  178.7040  138.7740 C   0  0  2  0  0  3  0  0  0  0  0  0
  181.9660  179.3770  137.5200 C   0  0  0  0  0  1  0  0  0  0  0  0
  182.1870  174.9730  138.1620 C   0  0  0  0  0  3  0  0  0  0  0  0
  183.3160  174.5270  137.5920 C   0  0  0  0  0  3  0  0  0  0  0  0
  184.8140  174.6870  135.6220 C   0  0  0  0  0  2  0  0  0  0  0  0
  184.2120  175.2470  136.6650 C   0  0  0  0  0  3  0  0  0  0  0  0
  189.2480  178.1970  143.5420 C   0  0  0  0  0  2  0  0  0  0  0  0
  188.5610  177.2150  145.6580 N   0  0  0  0  0  0  0  0  0  0  0  0
  189.2090  176.9240  144.3840 C   0  0  2  0  0  3  0  0  0  0  0  0
  189.3550  177.0340  146.6350 N   0  0  0  0  0  0  0  0  0  0  0  0
  190.6160  176.6010  146.1510 C   0  0  0  0  0  0  0  0  0  0  0  0
  190.5800  176.5200  144.8270 C   0  0  0  0  0  0  0  0  0  0  0  0
  191.6720  176.0320  143.9340 C   0  0  0  0  0  1  0  0  0  0  0  0
  192.4450  175.2420  146.8470 O   0  0  0  0  0  0  0  0  0  0  0  0
  191.7470  176.2730  147.0380 C   0  0  0  0  0  0  0  0  0  0  0  0
  192.0550  177.1280  148.1340 N   0  0  0  0  0  1  0  0  0  0  0  0
  1  9  1  0  0  0  0
  1 12  1  0  0  0  0
  2 12  2  0  0  0  0
  2  8  1  0  0  0  0
  3  7  1  0  0  0  0
  3  4  1  0  0  0  0
  4 13  1  0  0  0  0
  5  7  1  0  0  0  0
  5 18  2  0  0  0  0
  7  1  2  0  0  0  0
  8 19  1  6  0  0  0
  8 14  1  0  0  0  0
  9  6  1  6  0  0  0
 12 15  1  0  0  0  0
 13 11  1  1  0  0  0
 13  9  1  0  0  0  0
 14 10  2  0  0  0  0
 15 16  2  0  0  0  0
 16 10  1  0  0  0  0
 16 32  1  0  0  0  0
 17  5  1  0  0  0  0
 18  2  1  0  0  0  0
 20 23  1  0  0  0  0
 20 22  1  1  0  0  0
 21 23  1  0  0  0  0
 23 19  1  6  0  0  0
 24 21  1  0  0  0  0
 25 28  1  0  0  0  0
 25 24  2  0  0  0  0
 26 27  1  6  0  0  0
 26 24  1  0  0  0  0
 26 20  1  0  0  0  0
 29 28  2  0  0  0  0
 30 31  2  0  0  0  0
 31 29  1  0  0  0  0
 33 35  2  0  0  0  0
 34 32  1  6  0  0  0
 34 37  1  0  0  0  0
 34 33  1  0  0  0  0
 36 35  1  0  0  0  0
 36 40  1  0  0  0  0
 37 36  2  0  0  0  0
 38 37  1  0  0  0  0
 39 40  2  0  0  0  0
 40 41  1  0  0  0  0
M  END
>  <MODEL>
5

>  <REMARK>
 VINA RESULT:      -8.5      2.829      8.019
  Name = 
  7 active torsions:
  status: ('A' for Active; 'I' for Inactive)
    1  A    between atoms: C_10  and  C_25
    2  A    between atoms: C_12  and  C_17
    3  A    between atoms: C_16  and  N_21
    4  A    between atoms: N_21  and  C_23
    5  A    between atoms: C_25  and  C_37
    6  A    between atoms: C_32  and  C_35
    7  A    between atoms: C_34  and  C_38
                            x       y       z     vdW  Elec       q    Type
                         _______ _______ _______ _____ _____    ______ ____

>  <TORSDO>
F 7

$$$$
=
 OpenBabel11042412363D

 41 45  0  0  1  0  0  0  0  0999 V2000
  189.1510  177.0160  143.2870 C   0  0  0  0  0  0  0  0  0  0  0  0
  187.6090  177.8210  141.5590 C   0  0  0  0  0  0  0  0  0  0  0  0
  188.5360  178.3130  145.3380 C   0  0  0  0  0  2  0  0  0  0  0  0
  190.0380  178.2500  145.6690 C   0  0  0  0  0  2  0  0  0  0  0  0
  186.7270  177.5140  143.7870 C   0  0  0  0  0  0  0  0  0  0  0  0
  190.7120  175.0980  143.5850 C   0  0  0  0  0  1  0  0  0  0  0  0
  188.0920  177.2410  144.3350 C   0  0  1  0  0  3  0  0  0  0  0  0
  187.2870  178.3450  140.3570 C   0  0  0  0  0  0  0  0  0  0  0  0
  190.5050  176.5850  143.8170 C   0  0  2  0  0  3  0  0  0  0  0  0
  189.4410  178.1970  138.9960 C   0  0  0  0  0  3  0  0  0  0  0  0
  192.0220  176.9160  145.6460 O   0  0  0  0  0  1  0  0  0  0  0  0
  188.9540  177.3130  141.9780 C   0  0  0  0  0  0  0  0  0  0  0  0
  190.6670  176.9000  145.3120 C   0  0  1  0  0  3  0  0  0  0  0  0
  188.2110  178.6240  139.2410 C   0  0  0  0  0  3  0  0  0  0  0  0
  190.0540  176.9730  141.0560 C   0  0  0  0  0  3  0  0  0  0  0  0
  190.2680  177.3000  139.7890 C   0  0  0  0  0  0  0  0  0  0  0  0
  185.6030  177.4940  144.6600 N   0  0  0  0  0  1  0  0  0  0  0  0
  186.5510  177.7830  142.5320 N   0  0  0  0  0  0  0  0  0  0  0  0
  185.9220  178.7510  140.1620 N   0  0  0  0  0  2  0  0  0  0  0  0
  184.7690  177.6120  138.3360 C   0  0  1  0  0  3  0  0  0  0  0  0
  184.0850  179.8530  139.0430 C   0  0  0  0  0  2  0  0  0  0  0  0
  184.9360  177.5660  136.9520 O   0  0  0  0  0  1  0  0  0  0  0  0
  185.2910  178.9500  138.8640 C   0  0  1  0  0  3  0  0  0  0  0  0
  182.9210  178.9300  139.0280 C   0  0  0  0  0  0  0  0  0  0  0  0
  181.6590  179.3040  139.2520 C   0  0  0  0  0  3  0  0  0  0  0  0
  183.2870  177.5390  138.6670 C   0  0  2  0  0  3  0  0  0  0  0  0
  183.0790  176.6110  139.8530 C   0  0  0  0  0  1  0  0  0  0  0  0
  181.2560  180.6710  139.6290 C   0  0  0  0  0  3  0  0  0  0  0  0
  180.7930  181.6220  138.8050 C   0  0  0  0  0  3  0  0  0  0  0  0
  180.8040  182.6340  136.5400 C   0  0  0  0  0  2  0  0  0  0  0  0
  180.6860  181.5750  137.3320 C   0  0  0  0  0  3  0  0  0  0  0  0
  191.5190  176.8000  139.1450 C   0  0  0  0  0  2  0  0  0  0  0  0
  190.4100  174.9860  137.9660 N   0  0  0  0  0  0  0  0  0  0  0  0
  191.2380  176.1710  137.7830 C   0  0  2  0  0  3  0  0  0  0  0  0
  191.0110  173.9340  137.5780 N   0  0  0  0  0  0  0  0  0  0  0  0
  192.2980  174.2730  137.0870 C   0  0  0  0  0  0  0  0  0  0  0  0
  192.4790  175.5850  137.1860 C   0  0  0  0  0  0  0  0  0  0  0  0
  193.6650  176.3580  136.7130 C   0  0  0  0  0  1  0  0  0  0  0  0
  194.4430  173.2590  136.8820 O   0  0  0  0  0  0  0  0  0  0  0  0
  193.2330  173.2790  136.5320 C   0  0  0  0  0  0  0  0  0  0  0  0
  192.7680  172.3290  135.5790 N   0  0  0  0  0  1  0  0  0  0  0  0
  1  9  1  0  0  0  0
  1  7  1  0  0  0  0
  2 12  1  0  0  0  0
  2 18  1  0  0  0  0
  3  4  1  0  0  0  0
  5  7  1  0  0  0  0
  5 17  1  0  0  0  0
  7  3  1  6  0  0  0
  8  2  2  0  0  0  0
  9  6  1  1  0  0  0
  9 13  1  0  0  0  0
 10 14  2  0  0  0  0
 10 16  1  0  0  0  0
 12  1  2  0  0  0  0
 13 11  1  6  0  0  0
 13  4  1  0  0  0  0
 14  8  1  0  0  0  0
 15 12  1  0  0  0  0
 16 15  2  0  0  0  0
 18  5  2  0  0  0  0
 19  8  1  0  0  0  0
 20 22  1  6  0  0  0
 20 26  1  0  0  0  0
 20 23  1  0  0  0  0
 23 21  1  0  0  0  0
 23 19  1  1  0  0  0
 24 21  1  0  0  0  0
 24 25  2  0  0  0  0
 25 28  1  0  0  0  0
 26 24  1  0  0  0  0
 26 27  1  1  0  0  0
 29 28  2  0  0  0  0
 30 31  2  0  0  0  0
 31 29  1  0  0  0  0
 32 16  1  0  0  0  0
 34 33  1  0  0  0  0
 34 32  1  1  0  0  0
 35 33  2  0  0  0  0
 36 37  2  0  0  0  0
 36 35  1  0  0  0  0
 37 34  1  0  0  0  0
 38 37  1  0  0  0  0
 40 39  2  0  0  0  0
 40 36  1  0  0  0  0
 41 40  1  0  0  0  0
M  END
>  <MODEL>
6

>  <REMARK>
 VINA RESULT:      -8.1      3.040      9.528
  Name = 
  7 active torsions:
  status: ('A' for Active; 'I' for Inactive)
    1  A    between atoms: C_10  and  C_25
    2  A    between atoms: C_12  and  C_17
    3  A    between atoms: C_16  and  N_21
    4  A    between atoms: N_21  and  C_23
    5  A    between atoms: C_25  and  C_37
    6  A    between atoms: C_32  and  C_35
    7  A    between atoms: C_34  and  C_38
                            x       y       z     vdW  Elec       q    Type
                         _______ _______ _______ _____ _____    ______ ____

>  <TORSDO>
F 7

$$$$
=
 OpenBabel11042412363D

 41 45  0  0  1  0  0  0  0  0999 V2000
  187.8410  177.0250  137.7850 C   0  0  0  0  0  0  0  0  0  0  0  0
  185.8410  178.2530  138.4990 C   0  0  0  0  0  0  0  0  0  0  0  0
  186.9620  175.1560  136.3690 C   0  0  0  0  0  2  0  0  0  0  0  0
  188.1380  174.3450  136.9410 C   0  0  0  0  0  2  0  0  0  0  0  0
  185.8930  177.4260  136.2300 C   0  0  0  0  0  0  0  0  0  0  0  0
  190.3010  177.4100  137.7550 C   0  0  0  0  0  1  0  0  0  0  0  0
  187.1590  176.6730  136.4880 C   0  0  0  0  0  0  0  0  0  0  0  0
  185.0070  178.8090  139.4030 C   0  0  2  0  0  3  0  0  0  0  0  0
  189.2020  176.3900  137.9950 C   0  0  2  0  0  3  0  0  0  0  0  0
  186.3470  178.8390  141.5760 C   0  0  0  0  0  3  0  0  0  0  0  0
  190.4380  174.3730  137.5950 O   0  0  0  0  0  1  0  0  0  0  0  0
  187.2250  177.7410  138.7590 C   0  0  0  0  0  0  0  0  0  0  0  0
  189.4190  175.1740  137.0800 C   0  0  1  0  0  3  0  0  0  0  0  0
  185.2400  178.9360  140.8550 C   0  0  0  0  0  3  0  0  0  0  0  0
  188.0400  178.0710  139.9430 C   0  0  0  0  0  3  0  0  0  0  0  0
  187.7040  178.5650  141.1270 C   0  0  0  0  0  0  0  0  0  0  0  0
  185.2940  177.3710  134.9390 N   0  0  0  0  0  1  0  0  0  0  0  0
  185.3230  178.1170  137.1650 N   0  0  0  0  0  0  0  0  0  0  0  0
  183.7260  179.2530  138.9290 N   0  0  0  0  0  2  0  0  0  0  0  0
  181.3770  179.9180  138.9870 C   0  0  1  0  0  3  0  0  0  0  0  0
  182.0360  177.6100  139.4630 C   0  0  0  0  0  2  0  0  0  0  0  0
  180.5210  180.3950  139.9800 O   0  0  0  0  0  1  0  0  0  0  0  0
  182.4650  179.0560  139.6310 C   0  0  1  0  0  3  0  0  0  0  0  0
  180.9910  177.6490  138.4090 C   0  0  0  0  0  0  0  0  0  0  0  0
  180.4080  176.5690  137.8840 C   0  0  0  0  0  3  0  0  0  0  0  0
  180.5960  179.0290  138.0340 C   0  0  2  0  0  3  0  0  0  0  0  0
  181.0160  179.3300  136.6040 C   0  0  0  0  0  1  0  0  0  0  0  0
  180.7820  175.1830  138.2180 C   0  0  0  0  0  3  0  0  0  0  0  0
  180.2140  174.4060  139.1520 C   0  0  0  0  0  3  0  0  0  0  0  0
  179.0220  174.1920  141.3160 C   0  0  0  0  0  2  0  0  0  0  0  0
  179.1770  174.7790  140.1350 C   0  0  0  0  0  3  0  0  0  0  0  0
  188.7920  178.7590  142.1320 C   0  0  0  0  0  2  0  0  0  0  0  0
  188.1140  176.8550  143.4840 N   0  0  0  0  0  0  0  0  0  0  0  0
  189.2320  177.4340  142.7480 C   0  0  2  0  0  3  0  0  0  0  0  0
  188.3790  176.7490  144.7240 N   0  0  0  0  0  0  0  0  0  0  0  0
  189.6900  177.2300  144.9740 C   0  0  0  0  0  0  0  0  0  0  0  0
  190.2360  177.6440  143.8380 C   0  0  0  0  0  0  0  0  0  0  0  0
  191.6270  178.1520  143.6510 C   0  0  0  0  0  1  0  0  0  0  0  0
  189.7910  177.8360  147.2760 O   0  0  0  0  0  0  0  0  0  0  0  0
  190.3090  177.2120  146.3120 C   0  0  0  0  0  0  0  0  0  0  0  0
  191.5160  176.4860  146.5210 N   0  0  0  0  0  1  0  0  0  0  0  0
  1  9  1  0  0  0  0
  1 12  1  0  0  0  0
  2 12  2  0  0  0  0
  2  8  1  0  0  0  0
  3  7  1  0  0  0  0
  3  4  1  0  0  0  0
  4 13  1  0  0  0  0
  5  7  1  0  0  0  0
  5 18  2  0  0  0  0
  7  1  2  0  0  0  0
  8 19  1  1  0  0  0
  8 14  1  0  0  0  0
  9  6  1  6  0  0  0
 12 15  1  0  0  0  0
 13 11  1  1  0  0  0
 13  9  1  0  0  0  0
 14 10  2  0  0  0  0
 15 16  2  0  0  0  0
 16 10  1  0  0  0  0
 16 32  1  0  0  0  0
 17  5  1  0  0  0  0
 18  2  1  0  0  0  0
 20 23  1  0  0  0  0
 20 22  1  1  0  0  0
 21 23  1  0  0  0  0
 23 19  1  6  0  0  0
 24 21  1  0  0  0  0
 25 28  1  0  0  0  0
 25 24  2  0  0  0  0
 26 27  1  6  0  0  0
 26 24  1  0  0  0  0
 26 20  1  0  0  0  0
 28 29  2  0  0  0  0
 29 31  1  0  0  0  0
 31 30  2  0  0  0  0
 33 35  2  0  0  0  0
 34 32  1  1  0  0  0
 34 33  1  0  0  0  0
 34 37  1  0  0  0  0
 35 36  1  0  0  0  0
 36 40  1  0  0  0  0
 37 36  2  0  0  0  0
 38 37  1  0  0  0  0
 40 41  1  0  0  0  0
 40 39  2  0  0  0  0
M  END
>  <MODEL>
7

>  <REMARK>
 VINA RESULT:      -8.1      3.330      7.900
  Name = 
  7 active torsions:
  status: ('A' for Active; 'I' for Inactive)
    1  A    between atoms: C_10  and  C_25
    2  A    between atoms: C_12  and  C_17
    3  A    between atoms: C_16  and  N_21
    4  A    between atoms: N_21  and  C_23
    5  A    between atoms: C_25  and  C_37
    6  A    between atoms: C_32  and  C_35
    7  A    between atoms: C_34  and  C_38
                            x       y       z     vdW  Elec       q    Type
                         _______ _______ _______ _____ _____    ______ ____

>  <TORSDO>
F 7

$$$$
=
 OpenBabel11042412363D

 41 45  0  0  1  0  0  0  0  0999 V2000
  188.0090  178.4010  140.5150 C   0  0  0  0  0  0  0  0  0  0  0  0
  185.7780  178.4770  139.5010 C   0  0  0  0  0  0  0  0  0  0  0  0
  189.2490  176.6770  139.1870 C   0  0  0  0  0  2  0  0  0  0  0  0
  189.9500  176.3470  140.5170 C   0  0  0  0  0  2  0  0  0  0  0  0
  187.6700  178.2450  138.0180 C   0  0  0  0  0  0  0  0  0  0  0  0
  189.3450  179.7980  142.0860 C   0  0  0  0  0  1  0  0  0  0  0  0
  188.6070  178.0710  139.1710 C   0  0  0  0  0  0  0  0  0  0  0  0
  184.4290  178.4210  139.5110 C   0  0  0  0  0  0  0  0  0  0  0  0
  188.9810  178.3810  141.6790 C   0  0  2  0  0  3  0  0  0  0  0  0
  183.8000  178.5670  141.9800 C   0  0  0  0  0  3  0  0  0  0  0  0
  190.9000  177.2190  142.5310 O   0  0  0  0  0  1  0  0  0  0  0  0
  186.6750  178.5640  140.6970 C   0  0  2  0  0  3  0  0  0  0  0  0
  190.2600  177.5950  141.3490 C   0  0  1  0  0  3  0  0  0  0  0  0
  183.5590  178.3290  140.7000 C   0  0  0  0  0  3  0  0  0  0  0  0
  186.2420  178.9560  142.0520 C   0  0  0  0  0  3  0  0  0  0  0  0
  185.0390  179.0000  142.6090 C   0  0  0  0  0  0  0  0  0  0  0  0
  188.1800  178.2100  136.6890 N   0  0  0  0  0  1  0  0  0  0  0  0
  186.4010  178.4150  138.2070 N   0  0  0  0  0  0  0  0  0  0  0  0
  183.7650  178.3630  138.2380 N   0  0  0  0  0  2  0  0  0  0  0  0
  182.1680  177.7560  136.4930 C   0  0  1  0  0  3  0  0  0  0  0  0
  182.9490  176.0910  138.1070 C   0  0  0  0  0  2  0  0  0  0  0  0
  180.7760  177.7360  136.4060 O   0  0  0  0  0  1  0  0  0  0  0  0
  182.5860  177.5560  137.9510 C   0  0  1  0  0  3  0  0  0  0  0  0
  183.1380  175.6030  136.7180 C   0  0  0  0  0  0  0  0  0  0  0  0
  183.5620  174.3770  136.4000 C   0  0  0  0  0  3  0  0  0  0  0  0
  182.7390  176.5970  135.6930 C   0  0  2  0  0  3  0  0  0  0  0  0
  183.9550  177.0720  134.9130 C   0  0  0  0  0  1  0  0  0  0  0  0
  183.9830  173.3660  137.3870 C   0  0  0  0  0  3  0  0  0  0  0  0
  185.2430  173.0250  137.6910 C   0  0  0  0  0  3  0  0  0  0  0  0
  186.9460  174.7270  137.0940 C   0  0  0  0  0  2  0  0  0  0  0  0
  186.4900  173.4810  137.0430 C   0  0  0  0  0  3  0  0  0  0  0  0
  184.9510  179.4260  144.0370 C   0  0  0  0  0  2  0  0  0  0  0  0
  184.2950  178.5930  146.2250 N   0  0  0  0  0  0  0  0  0  0  0  0
  184.9660  178.2280  144.9830 C   0  0  2  0  0  3  0  0  0  0  0  0
  185.0890  178.5350  147.2180 N   0  0  0  0  0  0  0  0  0  0  0  0
  186.3740  178.1250  146.7770 C   0  0  0  0  0  0  0  0  0  0  0  0
  186.3520  177.9300  145.4640 C   0  0  0  0  0  0  0  0  0  0  0  0
  187.4740  177.4240  144.6200 C   0  0  0  0  0  1  0  0  0  0  0  0
  187.8900  178.8490  148.4660 O   0  0  0  0  0  0  0  0  0  0  0  0
  187.5120  177.9290  147.6930 C   0  0  0  0  0  0  0  0  0  0  0  0
  188.2030  176.6840  147.7040 N   0  0  0  0  0  1  0  0  0  0  0  0
  1 12  1  0  0  0  0
  1  9  1  0  0  0  0
  2  8  2  0  0  0  0
  2 12  1  0  0  0  0
  3  4  1  0  0  0  0
  4 13  1  0  0  0  0
  5 18  2  0  0  0  0
  5  7  1  0  0  0  0
  7  3  1  0  0  0  0
  7  1  2  0  0  0  0
  8 14  1  0  0  0  0
  9  6  1  6  0  0  0
 10 16  1  0  0  0  0
 12 15  1  6  0  0  0
 13  9  1  0  0  0  0
 13 11  1  1  0  0  0
 14 10  2  0  0  0  0
 15 16  2  0  0  0  0
 16 32  1  0  0  0  0
 17  5  1  0  0  0  0
 18  2  1  0  0  0  0
 19  8  1  0  0  0  0
 20 22  1  1  0  0  0
 20 23  1  0  0  0  0
 23 21  1  0  0  0  0
 23 19  1  6  0  0  0
 24 21  1  0  0  0  0
 25 24  2  0  0  0  0
 25 28  1  0  0  0  0
 26 27  1  1  0  0  0
 26 20  1  0  0  0  0
 26 24  1  0  0  0  0
 28 29  2  0  0  0  0
 31 30  2  0  0  0  0
 31 29  1  0  0  0  0
 33 35  2  0  0  0  0
 34 32  1  6  0  0  0
 34 37  1  0  0  0  0
 34 33  1  0  0  0  0
 36 35  1  0  0  0  0
 36 40  1  0  0  0  0
 37 36  2  0  0  0  0
 38 37  1  0  0  0  0
 40 41  1  0  0  0  0
 40 39  2  0  0  0  0
M  END
>  <MODEL>
8

>  <REMARK>
 VINA RESULT:      -8.1      2.981      7.695
  Name = 
  7 active torsions:
  status: ('A' for Active; 'I' for Inactive)
    1  A    between atoms: C_10  and  C_25
    2  A    between atoms: C_12  and  C_17
    3  A    between atoms: C_16  and  N_21
    4  A    between atoms: N_21  and  C_23
    5  A    between atoms: C_25  and  C_37
    6  A    between atoms: C_32  and  C_35
    7  A    between atoms: C_34  and  C_38
                            x       y       z     vdW  Elec       q    Type
                         _______ _______ _______ _____ _____    ______ ____

>  <TORSDO>
F 7

$$$$
=
 OpenBabel11042412363D

 41 45  0  0  1  0  0  0  0  0999 V2000
  185.4140  178.2640  142.9800 C   0  0  0  0  0  0  0  0  0  0  0  0
  185.7780  178.2120  140.5550 C   0  0  0  0  0  0  0  0  0  0  0  0
  183.5280  179.8790  143.3020 C   0  0  0  0  0  2  0  0  0  0  0  0
  184.2440  180.2500  144.6130 C   0  0  0  0  0  2  0  0  0  0  0  0
  183.4950  178.3090  141.3390 C   0  0  0  0  0  0  0  0  0  0  0  0
  186.0880  176.9010  144.9530 C   0  0  0  0  0  1  0  0  0  0  0  0
  183.9440  178.5090  142.7520 C   0  0  1  0  0  3  0  0  0  0  0  0
  186.5140  178.3130  139.4280 C   0  0  0  0  0  0  0  0  0  0  0  0
  185.8610  178.3080  144.4280 C   0  0  2  0  0  3  0  0  0  0  0  0
  188.9340  178.3070  140.2410 C   0  0  0  0  0  3  0  0  0  0  0  0
  185.4670  179.4460  146.5030 O   0  0  0  0  0  1  0  0  0  0  0  0
  186.2990  178.1530  141.9580 C   0  0  0  0  0  0  0  0  0  0  0  0
  184.8460  179.0340  145.3240 C   0  0  1  0  0  3  0  0  0  0  0  0
  187.9770  178.4910  139.3440 C   0  0  0  0  0  3  0  0  0  0  0  0
  187.6930  177.8420  142.3300 C   0  0  0  0  0  3  0  0  0  0  0  0
  188.8140  177.8640  141.6220 C   0  0  0  0  0  0  0  0  0  0  0  0
  182.1030  178.2630  141.0450 N   0  0  0  0  0  1  0  0  0  0  0  0
  184.3520  178.1910  140.3750 N   0  0  0  0  0  0  0  0  0  0  0  0
  185.8040  178.3310  138.1790 N   0  0  0  0  0  2  0  0  0  0  0  0
  185.1470  177.4930  135.9820 C   0  0  1  0  0  3  0  0  0  0  0  0
  186.4740  176.1090  137.5020 C   0  0  0  0  0  2  0  0  0  0  0  0
  184.0540  176.7750  135.4950 O   0  0  0  0  0  1  0  0  0  0  0  0
  185.3650  177.1450  137.4550 C   0  0  1  0  0  3  0  0  0  0  0  0
  187.1270  176.1990  136.1720 C   0  0  0  0  0  0  0  0  0  0  0  0
  188.2210  175.5190  135.8210 C   0  0  0  0  0  3  0  0  0  0  0  0
  186.3990  177.0780  135.2250 C   0  0  2  0  0  3  0  0  0  0  0  0
  187.2270  178.3110  134.9030 C   0  0  0  0  0  1  0  0  0  0  0  0
  188.9820  174.6490  136.7360 C   0  0  0  0  0  3  0  0  0  0  0  0
  190.0490  175.0010  137.4680 C   0  0  0  0  0  3  0  0  0  0  0  0
  191.6460  176.6650  138.3810 C   0  0  0  0  0  2  0  0  0  0  0  0
  190.7810  176.2840  137.4490 C   0  0  0  0  0  3  0  0  0  0  0  0
  190.0840  177.5110  142.3230 C   0  0  0  0  0  2  0  0  0  0  0  0
  191.6270  178.7860  143.7030 N   0  0  0  0  0  0  0  0  0  0  0  0
  190.2530  178.3050  143.6160 C   0  0  2  0  0  3  0  0  0  0  0  0
  192.2270  178.2990  144.7140 N   0  0  0  0  0  0  0  0  0  0  0  0
  191.3460  177.4450  145.4260 C   0  0  0  0  0  0  0  0  0  0  0  0
  190.1670  177.4170  144.8170 C   0  0  0  0  0  0  0  0  0  0  0  0
  188.9410  176.7010  145.2820 C   0  0  0  0  0  1  0  0  0  0  0  0
  191.4960  177.2610  147.7960 O   0  0  0  0  0  0  0  0  0  0  0  0
  191.7300  176.7510  146.6680 C   0  0  0  0  0  0  0  0  0  0  0  0
  192.3810  175.4870  146.5980 N   0  0  0  0  0  1  0  0  0  0  0  0
  1  9  1  0  0  0  0
  2 12  1  0  0  0  0
  3  4  1  0  0  0  0
  4 13  1  0  0  0  0
  5  7  1  0  0  0  0
  7  1  1  0  0  0  0
  7  3  1  6  0  0  0
  8  2  2  0  0  0  0
  9  6  1  1  0  0  0
  9 13  1  0  0  0  0
 10 16  1  0  0  0  0
 12 15  1  0  0  0  0
 12  1  2  0  0  0  0
 13 11  1  1  0  0  0
 14  8  1  0  0  0  0
 14 10  2  0  0  0  0
 16 32  1  0  0  0  0
 16 15  2  0  0  0  0
 17  5  1  0  0  0  0
 18  2  1  0  0  0  0
 18  5  2  0  0  0  0
 19  8  1  0  0  0  0
 20 22  1  6  0  0  0
 20 23  1  0  0  0  0
 23 21  1  0  0  0  0
 23 19  1  1  0  0  0
 24 21  1  0  0  0  0
 25 24  2  0  0  0  0
 25 28  1  0  0  0  0
 26 27  1  1  0  0  0
 26 20  1  0  0  0  0
 26 24  1  0  0  0  0
 28 29  2  0  0  0  0
 31 29  1  0  0  0  0
 31 30  2  0  0  0  0
 33 35  2  0  0  0  0
 34 32  1  6  0  0  0
 34 33  1  0  0  0  0
 34 37  1  0  0  0  0
 35 36  1  0  0  0  0
 36 40  1  0  0  0  0
 37 38  1  0  0  0  0
 37 36  2  0  0  0  0
 40 39  2  0  0  0  0
 41 40  1  0  0  0  0
M  END
>  <MODEL>
9

>  <REMARK>
 VINA RESULT:      -7.9      2.404      8.687
  Name = 
  7 active torsions:
  status: ('A' for Active; 'I' for Inactive)
    1  A    between atoms: C_10  and  C_25
    2  A    between atoms: C_12  and  C_17
    3  A    between atoms: C_16  and  N_21
    4  A    between atoms: N_21  and  C_23
    5  A    between atoms: C_25  and  C_37
    6  A    between atoms: C_32  and  C_35
    7  A    between atoms: C_34  and  C_38
                            x       y       z     vdW  Elec       q    Type
                         _______ _______ _______ _____ _____    ______ ____

>  <TORSDO>
F 7

$$$$
