=
 OpenBabel11042412033D

 30 35  0  0  1  0  0  0  0  0999 V2000
  180.5690  175.3940  136.9110 C   0  0  2  0  0  3  0  0  0  0  0  0
  184.0160  178.5750  141.1610 C   0  0  1  0  0  0  0  0  0  0  0  0
  186.1080  178.0050  144.0410 C   0  0  0  0  0  1  0  0  0  0  0  0
  179.6560  177.4340  139.2390 C   0  0  0  0  0  0  0  0  0  0  0  0
  181.4520  174.1490  136.7800 C   0  0  0  0  0  2  0  0  0  0  0  0
  181.5650  178.5470  141.5010 C   0  0  1  0  0  3  0  0  0  0  0  0
  181.3550  178.3520  143.8650 O   0  0  0  0  0  1  0  0  0  0  0  0
  180.2290  179.1050  141.0070 C   0  0  1  0  0  0  0  0  0  0  0  0
  179.3110  177.9520  140.6060 C   0  0  0  0  0  2  0  0  0  0  0  0
  182.7610  174.5250  137.2760 N   0  0  0  0  0  0  0  0  0  0  0  0
  184.2090  178.1360  142.5240 N   0  0  0  0  0  0  0  0  0  0  0  0
  179.7810  181.0180  142.4850 O   0  0  0  0  0  1  0  0  0  0  0  0
  183.2950  177.6860  140.2940 C   0  0  2  0  0  3  0  0  0  0  0  0
  183.8970  177.7600  138.9090 C   0  0  1  0  0  3  0  0  0  0  0  0
  185.6500  178.2320  139.0890 S   0  0  0  0  0  0  0  0  0  0  0  0
  182.6890  178.9900  140.6850 N   0  0  2  0  0  0  0  0  0  0  0  0
  186.2010  178.9050  141.6490 N   0  0  0  0  0  2  0  0  0  0  0  0
  180.7970  176.6490  139.0380 O   0  0  0  0  0  0  0  0  0  0  0  0
  178.9310  177.7660  138.2670 O   0  0  0  0  0  0  0  0  0  0  0  0
  181.3870  179.2780  142.8230 C   0  0  2  0  0  3  0  0  0  0  0  0
  183.8270  176.3960  138.3030 C   0  0  0  0  0  2  0  0  0  0  0  0
  179.9620  179.6350  142.4200 C   0  0  2  0  0  3  0  0  0  0  0  0
  185.2520  179.1790  140.5830 C   0  0  2  0  0  3  0  0  0  0  0  0
  181.3600  176.4360  137.7380 C   0  0  1  0  0  3  0  0  0  0  0  0
  185.4690  178.3320  142.7390 C   0  0  0  0  0  0  0  0  0  0  0  0
  182.7150  175.8220  137.8320 C   0  0  0  0  0  0  0  0  0  0  0  0
  180.2810  180.2060  139.9130 C   0  0  0  0  0  2  0  0  0  0  0  0
  179.0200  180.7400  139.6320 O   0  0  0  0  0  1  0  0  0  0  0  0
  179.3470  175.0530  137.5020 O   0  0  0  0  0  0  0  0  0  0  0  0
  179.3770  173.6630  137.6210 C   0  0  0  0  0  1  0  0  0  0  0  0
  1 29  1  1  0  0  0
  1 24  1  0  0  0  0
  2 11  1  1  0  0  0
  4  9  1  0  0  0  0
  5  1  1  0  0  0  0
  5 10  1  0  0  0  0
  6 20  1  0  0  0  0
  8  6  1  0  0  0  0
  8 22  1  0  0  0  0
  9  8  1  0  0  0  0
 10 26  2  0  0  0  0
 11 25  2  0  0  0  0
 13 16  1  0  0  0  0
 13  2  1  0  0  0  0
 14 15  1  0  0  0  0
 14 13  1  0  0  0  0
 15 23  1  0  0  0  0
 16  2  1  0  0  0  0
 16  6  1  0  0  0  0
 17 25  1  0  0  0  0
 18  4  1  0  0  0  0
 19  4  2  0  0  0  0
 20  7  1  0  0  0  0
 21 14  1  0  0  0  0
 22 12  1  0  0  0  0
 22 20  1  0  0  0  0
 23  2  1  0  0  0  0
 23 17  1  0  0  0  0
 24 26  1  0  0  0  0
 24 18  1  0  0  0  0
 25  3  1  0  0  0  0
 26 21  1  0  0  0  0
 27  8  1  0  0  0  0
 28 27  1  0  0  0  0
 29 30  1  0  0  0  0
M  END
>  <MODEL>
1

>  <REMARK>
 VINA RESULT:      -5.9      0.000      0.000
  Name = 
  2 active torsions:
  status: ('A' for Active; 'I' for Inactive)
    1  A    between atoms: C_1  and  O_16
    2  A    between atoms: C_8  and  C_13
                            x       y       z     vdW  Elec       q    Type
                         _______ _______ _______ _____ _____    ______ ____

>  <TORSDO>
F 2

$$$$
=
 OpenBabel11042412033D

 30 35  0  0  1  0  0  0  0  0999 V2000
  188.6020  178.1250  142.5220 C   0  0  2  0  0  3  0  0  0  0  0  0
  183.9910  177.9070  138.1910 C   0  0  1  0  0  0  0  0  0  0  0  0
  181.0980  175.9520  137.2970 C   0  0  0  0  0  1  0  0  0  0  0  0
  188.7350  177.5180  139.3550 C   0  0  0  0  0  0  0  0  0  0  0  0
  187.8040  177.6350  143.7350 C   0  0  0  0  0  3  0  0  0  0  0  0
  186.2100  177.0480  137.5100 C   0  0  1  0  0  3  0  0  0  0  0  0
  185.6630  175.1510  136.1780 O   0  0  0  0  0  1  0  0  0  0  0  0
  187.6340  177.4420  137.1130 C   0  0  1  0  0  0  0  0  0  0  0  0
  188.6310  176.7710  138.0560 C   0  0  0  0  0  2  0  0  0  0  0  0
  186.4060  177.8320  143.4100 N   0  0  0  0  0  0  0  0  0  0  0  0
  183.3780  176.6800  137.7370 N   0  0  0  0  0  0  0  0  0  0  0  0
  187.5940  177.4850  134.6550 O   0  0  0  0  0  1  0  0  0  0  0  0
  184.9490  177.7930  139.2550 C   0  0  2  0  0  3  0  0  0  0  0  0
  184.8140  178.9940  140.1630 C   0  0  1  0  0  3  0  0  0  0  0  0
  183.0940  179.5910  140.0450 S   0  0  0  0  0  0  0  0  0  0  0  0
  185.4010  178.1980  137.8940 N   0  0  2  0  0  0  0  0  0  0  0  0
  181.7640  178.2920  138.0820 N   0  0  0  0  0  2  0  0  0  0  0  0
  187.7150  177.4380  140.3110 O   0  0  0  0  0  0  0  0  0  0  0  0
  189.7290  178.2630  139.5460 O   0  0  0  0  0  0  0  0  0  0  0  0
  185.9630  176.5110  136.1090 C   0  0  2  0  0  3  0  0  0  0  0  0
  185.0710  178.5440  141.5640 C   0  0  0  0  0  3  0  0  0  0  0  0
  187.4420  176.6890  135.7920 C   0  0  2  0  0  3  0  0  0  0  0  0
  183.0010  179.0150  138.3290 C   0  0  2  0  0  3  0  0  0  0  0  0
  187.5910  178.3830  141.3790 C   0  0  1  0  0  3  0  0  0  0  0  0
  182.1140  176.9540  137.7100 C   0  0  0  0  0  0  0  0  0  0  0  0
  186.2740  178.2490  142.0670 C   0  0  0  0  0  0  0  0  0  0  0  0
  187.9300  178.9570  136.9450 C   0  0  0  0  0  2  0  0  0  0  0  0
  189.2710  179.2090  136.6410 O   0  0  0  0  0  1  0  0  0  0  0  0
  189.5750  177.1800  142.1780 O   0  0  0  0  0  0  0  0  0  0  0  0
  189.4100  176.1390  143.0910 C   0  0  0  0  0  1  0  0  0  0  0  0
  1 29  1  6  0  0  0
  1  5  1  0  0  0  0
  2 11  1  6  0  0  0
  2 23  1  0  0  0  0
  2 13  1  0  0  0  0
  3 25  1  0  0  0  0
  4 19  2  0  0  0  0
  4 18  1  0  0  0  0
  6 16  1  0  0  0  0
  8  6  1  0  0  0  0
  8  9  1  0  0  0  0
  9  4  1  0  0  0  0
 10  5  2  0  0  0  0
 12 22  1  0  0  0  0
 13 14  1  0  0  0  0
 14 21  1  0  0  0  0
 15 14  1  0  0  0  0
 16  2  1  0  0  0  0
 16 13  1  0  0  0  0
 17 23  1  0  0  0  0
 18 24  1  0  0  0  0
 20  7  1  0  0  0  0
 20  6  1  0  0  0  0
 21 26  2  0  0  0  0
 22 20  1  0  0  0  0
 22  8  1  0  0  0  0
 23 15  1  0  0  0  0
 24 26  1  0  0  0  0
 24  1  1  0  0  0  0
 25 11  2  0  0  0  0
 25 17  1  0  0  0  0
 26 10  1  0  0  0  0
 27  8  1  0  0  0  0
 28 27  1  0  0  0  0
 29 30  1  0  0  0  0
M  END
>  <MODEL>
2

>  <REMARK>
 VINA RESULT:      -5.6      4.418      7.991
  Name = 
  2 active torsions:
  status: ('A' for Active; 'I' for Inactive)
    1  A    between atoms: C_1  and  O_16
    2  A    between atoms: C_8  and  C_13
                            x       y       z     vdW  Elec       q    Type
                         _______ _______ _______ _____ _____    ______ ____

>  <TORSDO>
F 2

$$$$
=
 OpenBabel11042412033D

 30 35  0  0  1  0  0  0  0  0999 V2000
  179.1450  182.2200  136.7420 C   0  0  2  0  0  3  0  0  0  0  0  0
  181.1240  178.8200  141.7010 C   0  0  1  0  0  0  0  0  0  0  0  0
  183.4040  179.0200  144.4850 C   0  0  0  0  0  1  0  0  0  0  0  0
  180.8440  179.4780  136.8530 C   0  0  0  0  0  0  0  0  0  0  0  0
  179.2030  183.6130  137.3780 C   0  0  0  0  0  2  0  0  0  0  0  0
  182.0650  178.2290  139.4900 C   0  0  1  0  0  3  0  0  0  0  0  0
  184.3370  177.7250  139.9920 O   0  0  0  0  0  1  0  0  0  0  0  0
  181.7730  177.5530  138.1480 C   0  0  1  0  0  0  0  0  0  0  0  0
  182.0120  178.5470  137.0130 C   0  0  0  0  0  2  0  0  0  0  0  0
  179.2020  183.4070  138.8120 N   0  0  0  0  0  0  0  0  0  0  0  0
  182.4600  178.9030  142.2460 N   0  0  0  0  0  0  0  0  0  0  0  0
  182.6190  175.2610  138.4210 O   0  0  0  0  0  1  0  0  0  0  0  0
  180.8020  179.7340  140.6420 C   0  0  2  0  0  3  0  0  0  0  0  0
  179.3630  180.1710  140.7950 C   0  0  1  0  0  3  0  0  0  0  0  0
  178.9310  180.0540  142.5630 S   0  0  0  0  0  0  0  0  0  0  0  0
  180.8930  178.2750  140.3550 N   0  0  2  0  0  0  0  0  0  0  0  0
  180.9090  178.8460  143.9540 N   0  0  0  0  0  2  0  0  0  0  0  0
  180.6230  180.5140  137.7690 O   0  0  0  0  0  0  0  0  0  0  0  0
  180.0340  179.2750  135.9130 O   0  0  0  0  0  0  0  0  0  0  0  0
  183.0800  177.1460  139.8190 C   0  0  2  0  0  3  0  0  0  0  0  0
  179.2660  181.6000  140.3700 C   0  0  0  0  0  2  0  0  0  0  0  0
  182.9590  176.6140  138.3970 C   0  0  2  0  0  3  0  0  0  0  0  0
  180.0890  178.6740  142.7660 C   0  0  2  0  0  3  0  0  0  0  0  0
  179.3640  181.1880  137.8740 C   0  0  1  0  0  3  0  0  0  0  0  0
  182.2740  178.9300  143.5250 C   0  0  0  0  0  0  0  0  0  0  0  0
  179.3040  182.0280  139.1040 C   0  0  0  0  0  0  0  0  0  0  0  0
  180.4070  176.8280  138.0010 C   0  0  0  0  0  2  0  0  0  0  0  0
  180.3000  176.1300  136.7950 O   0  0  0  0  0  1  0  0  0  0  0  0
  180.1040  182.1180  135.7280 O   0  0  0  0  0  0  0  0  0  0  0  0
  180.5460  183.4230  135.5140 C   0  0  0  0  0  1  0  0  0  0  0  0
  1 29  1  6  0  0  0
  1  5  1  0  0  0  0
  1 24  1  0  0  0  0
  2 11  1  1  0  0  0
  2 23  1  0  0  0  0
  4  9  1  0  0  0  0
  4 18  1  0  0  0  0
  5 10  1  0  0  0  0
  6 20  1  0  0  0  0
  6 16  1  0  0  0  0
  8 22  1  0  0  0  0
  8  6  1  0  0  0  0
  9  8  1  0  0  0  0
 10 26  2  0  0  0  0
 11 25  2  0  0  0  0
 13 14  1  0  0  0  0
 13  2  1  0  0  0  0
 14 15  1  0  0  0  0
 15 23  1  0  0  0  0
 16 13  1  0  0  0  0
 16  2  1  0  0  0  0
 18 24  1  0  0  0  0
 19  4  2  0  0  0  0
 20  7  1  0  0  0  0
 21 14  1  0  0  0  0
 22 12  1  0  0  0  0
 22 20  1  0  0  0  0
 23 17  1  0  0  0  0
 24 26  1  0  0  0  0
 25 17  1  0  0  0  0
 25  3  1  0  0  0  0
 26 21  1  0  0  0  0
 27  8  1  0  0  0  0
 28 27  1  0  0  0  0
 30 29  1  0  0  0  0
M  END
>  <MODEL>
3

>  <REMARK>
 VINA RESULT:      -5.5      3.079      5.711
  Name = 
  2 active torsions:
  status: ('A' for Active; 'I' for Inactive)
    1  A    between atoms: C_1  and  O_16
    2  A    between atoms: C_8  and  C_13
                            x       y       z     vdW  Elec       q    Type
                         _______ _______ _______ _____ _____    ______ ____

>  <TORSDO>
F 2

$$$$
=
 OpenBabel11042412033D

 30 35  0  0  1  0  0  0  0  0999 V2000
  185.6850  179.1590  142.1930 C   0  0  2  0  0  3  0  0  0  0  0  0
  184.1080  176.7930  136.5380 C   0  0  1  0  0  0  0  0  0  0  0  0
  182.5620  173.8890  135.0660 C   0  0  0  0  0  1  0  0  0  0  0  0
  187.5450  178.1550  139.7530 C   0  0  0  0  0  0  0  0  0  0  0  0
  184.5010  178.6270  143.0060 C   0  0  0  0  0  3  0  0  0  0  0  0
  186.4840  176.6120  137.2060 C   0  0  1  0  0  3  0  0  0  0  0  0
  187.1050  174.4610  136.3930 O   0  0  0  0  0  1  0  0  0  0  0  0
  187.7920  177.3840  137.3890 C   0  0  1  0  0  0  0  0  0  0  0  0
  188.2790  177.2270  138.8290 C   0  0  0  0  0  2  0  0  0  0  0  0
  183.4620  178.3050  142.0490 N   0  0  0  0  0  0  0  0  0  0  0  0
  184.0850  175.3780  136.2410 N   0  0  0  0  0  0  0  0  0  0  0  0
  189.0080  177.0370  135.2820 O   0  0  0  0  0  1  0  0  0  0  0  0
  184.3840  177.1610  137.8980 C   0  0  2  0  0  3  0  0  0  0  0  0
  183.5560  178.3750  138.2530 C   0  0  1  0  0  3  0  0  0  0  0  0
  182.0600  178.3520  137.2100 S   0  0  0  0  0  0  0  0  0  0  0  0
  185.3740  177.4790  136.8310 N   0  0  2  0  0  0  0  0  0  0  0  0
  182.2270  176.4090  135.3390 N   0  0  0  0  0  2  0  0  0  0  0  0
  186.2220  177.8920  140.1300 O   0  0  0  0  0  0  0  0  0  0  0  0
  188.1210  179.2040  140.1400 O   0  0  0  0  0  0  0  0  0  0  0  0
  187.1070  175.8180  136.0680 C   0  0  2  0  0  3  0  0  0  0  0  0
  183.1460  178.2520  139.6840 C   0  0  0  0  0  3  0  0  0  0  0  0
  188.4660  176.4180  136.4080 C   0  0  2  0  0  3  0  0  0  0  0  0
  182.9820  177.5240  135.8870 C   0  0  2  0  0  3  0  0  0  0  0  0
  185.3740  178.8960  140.7000 C   0  0  1  0  0  3  0  0  0  0  0  0
  182.9880  175.2180  135.5740 C   0  0  0  0  0  0  0  0  0  0  0  0
  183.9530  178.4460  140.7330 C   0  0  0  0  0  0  0  0  0  0  0  0
  187.8090  178.8690  136.9340 C   0  0  0  0  0  2  0  0  0  0  0  0
  189.0380  179.4880  137.1780 O   0  0  0  0  0  1  0  0  0  0  0  0
  186.8690  178.5430  142.6130 O   0  0  0  0  0  0  0  0  0  0  0  0
  186.5180  177.8250  143.7560 C   0  0  0  0  0  1  0  0  0  0  0  0
  1 29  1  1  0  0  0
  1  5  1  0  0  0  0
  2 11  1  6  0  0  0
  2 16  1  0  0  0  0
  2 13  1  0  0  0  0
  3 25  1  0  0  0  0
  4 18  1  0  0  0  0
  4 19  2  0  0  0  0
  6  8  1  0  0  0  0
  8  9  1  0  0  0  0
  9  4  1  0  0  0  0
 10  5  2  0  0  0  0
 12 22  1  0  0  0  0
 13 14  1  0  0  0  0
 14 21  1  0  0  0  0
 15 14  1  0  0  0  0
 16  6  1  0  0  0  0
 16 13  1  0  0  0  0
 17 25  1  0  0  0  0
 17 23  1  0  0  0  0
 18 24  1  0  0  0  0
 20  7  1  0  0  0  0
 20 22  1  0  0  0  0
 20  6  1  0  0  0  0
 21 26  2  0  0  0  0
 22  8  1  0  0  0  0
 23  2  1  0  0  0  0
 23 15  1  0  0  0  0
 24 26  1  0  0  0  0
 24  1  1  0  0  0  0
 25 11  2  0  0  0  0
 26 10  1  0  0  0  0
 27 28  1  0  0  0  0
 27  8  1  0  0  0  0
 29 30  1  0  0  0  0
M  END
>  <MODEL>
4

>  <REMARK>
 VINA RESULT:      -5.4      4.148      7.849
  Name = 
  2 active torsions:
  status: ('A' for Active; 'I' for Inactive)
    1  A    between atoms: C_1  and  O_16
    2  A    between atoms: C_8  and  C_13
                            x       y       z     vdW  Elec       q    Type
                         _______ _______ _______ _____ _____    ______ ____

>  <TORSDO>
F 2

$$$$
=
 OpenBabel11042412033D

 30 35  0  0  1  0  0  0  0  0999 V2000
  184.3140  178.9160  142.7640 C   0  0  2  0  0  3  0  0  0  0  0  0
  189.8450  177.2580  140.1700 C   0  0  1  0  0  0  0  0  0  0  0  0
  191.2930  174.6860  138.1010 C   0  0  0  0  0  1  0  0  0  0  0  0
  187.0620  177.9380  144.1460 C   0  0  0  0  0  0  0  0  0  0  0  0
  183.3820  178.4450  141.6430 C   0  0  0  0  0  3  0  0  0  0  0  0
  189.5400  176.7570  142.5750 C   0  0  1  0  0  3  0  0  0  0  0  0
  190.5910  174.6340  142.8170 O   0  0  0  0  0  1  0  0  0  0  0  0
  189.4880  177.3620  143.9790 C   0  0  1  0  0  0  0  0  0  0  0  0
  188.1490  177.0220  144.6320 C   0  0  0  0  0  2  0  0  0  0  0  0
  184.2010  178.3270  140.4540 N   0  0  0  0  0  0  0  0  0  0  0  0
  190.2400  175.8870  139.9360 N   0  0  0  0  0  0  0  0  0  0  0  0
  191.7680  177.0750  144.8530 O   0  0  0  0  0  1  0  0  0  0  0  0
  188.5150  177.4690  140.6690 C   0  0  2  0  0  3  0  0  0  0  0  0
  187.9560  178.7300  140.0490 C   0  0  1  0  0  3  0  0  0  0  0  0
  188.7730  178.9660  138.4350 S   0  0  0  0  0  0  0  0  0  0  0  0
  189.6870  177.7720  141.5380 N   0  0  2  0  0  0  0  0  0  0  0  0
  190.7880  177.1930  138.1140 N   0  0  0  0  0  2  0  0  0  0  0  0
  186.5210  177.7890  142.8630 O   0  0  0  0  0  0  0  0  0  0  0  0
  186.6850  178.8770  144.8910 O   0  0  0  0  0  0  0  0  0  0  0  0
  190.8100  176.0060  142.9400 C   0  0  2  0  0  3  0  0  0  0  0  0
  186.4940  178.5240  139.8220 C   0  0  0  0  0  3  0  0  0  0  0  0
  190.6250  176.4200  144.3940 C   0  0  2  0  0  3  0  0  0  0  0  0
  190.2720  178.1640  139.0650 C   0  0  2  0  0  3  0  0  0  0  0  0
  185.7630  178.8240  142.2270 C   0  0  1  0  0  3  0  0  0  0  0  0
  190.7540  175.9100  138.7500 C   0  0  0  0  0  0  0  0  0  0  0  0
  185.5600  178.5320  140.7790 C   0  0  0  0  0  0  0  0  0  0  0  0
  189.8300  178.8700  144.1160 C   0  0  0  0  0  2  0  0  0  0  0  0
  191.1220  179.1680  143.6750 O   0  0  0  0  0  1  0  0  0  0  0  0
  184.1140  178.1370  143.9100 O   0  0  0  0  0  0  0  0  0  0  0  0
  183.1990  178.8530  144.6800 C   0  0  0  0  0  1  0  0  0  0  0  0
  1 29  1  1  0  0  0
  2 11  1  6  0  0  0
  2 13  1  0  0  0  0
  2 16  1  0  0  0  0
  3 25  1  0  0  0  0
  4  9  1  0  0  0  0
  4 19  2  0  0  0  0
  5  1  1  0  0  0  0
  6 20  1  0  0  0  0
  6  8  1  0  0  0  0
  7 20  1  0  0  0  0
  8 27  1  0  0  0  0
  8 22  1  0  0  0  0
  8  9  1  0  0  0  0
 10 26  1  0  0  0  0
 10  5  2  0  0  0  0
 13 16  1  0  0  0  0
 14 13  1  0  0  0  0
 15 23  1  0  0  0  0
 15 14  1  0  0  0  0
 16  6  1  0  0  0  0
 17 25  1  0  0  0  0
 17 23  1  0  0  0  0
 18  4  1  0  0  0  0
 20 22  1  0  0  0  0
 21 14  1  0  0  0  0
 21 26  2  0  0  0  0
 22 12  1  0  0  0  0
 23  2  1  0  0  0  0
 24  1  1  0  0  0  0
 24 18  1  0  0  0  0
 25 11  2  0  0  0  0
 26 24  1  0  0  0  0
 28 27  1  0  0  0  0
 29 30  1  0  0  0  0
M  END
>  <MODEL>
5

>  <REMARK>
 VINA RESULT:      -5.4      5.014      8.214
  Name = 
  2 active torsions:
  status: ('A' for Active; 'I' for Inactive)
    1  A    between atoms: C_1  and  O_16
    2  A    between atoms: C_8  and  C_13
                            x       y       z     vdW  Elec       q    Type
                         _______ _______ _______ _____ _____    ______ ____

>  <TORSDO>
F 2

$$$$
=
 OpenBabel11042412033D

 30 35  0  0  1  0  0  0  0  0999 V2000
  184.0570  179.3330  139.3640 C   0  0  2  0  0  3  0  0  0  0  0  0
  183.9650  174.0020  135.9520 C   0  0  1  0  0  0  0  0  0  0  0  0
  183.4380  170.4580  136.3350 C   0  0  0  0  0  1  0  0  0  0  0  0
  186.4430  177.7880  137.8330 C   0  0  0  0  0  0  0  0  0  0  0  0
  182.9440  178.9910  140.3590 C   0  0  0  0  0  3  0  0  0  0  0  0
  186.1880  174.9030  136.5630 C   0  0  1  0  0  3  0  0  0  0  0  0
  187.4460  172.9400  137.0450 O   0  0  0  0  0  1  0  0  0  0  0  0
  187.2150  175.9980  136.2700 C   0  0  1  0  0  0  0  0  0  0  0  0
  187.5140  176.7740  137.5520 C   0  0  0  0  0  2  0  0  0  0  0  0
  182.1700  177.9270  139.7530 N   0  0  0  0  0  0  0  0  0  0  0  0
  184.3460  172.7100  136.4760 N   0  0  0  0  0  0  0  0  0  0  0  0
  188.7710  174.9650  134.6710 O   0  0  0  0  0  1  0  0  0  0  0  0
  183.9400  175.0940  136.8840 C   0  0  2  0  0  3  0  0  0  0  0  0
  182.7880  176.0090  136.5340 C   0  0  1  0  0  3  0  0  0  0  0  0
  181.5130  175.0040  135.7020 S   0  0  0  0  0  0  0  0  0  0  0  0
  184.9600  175.0740  135.7970 N   0  0  2  0  0  0  0  0  0  0  0  0
  182.4370  172.5150  135.1930 N   0  0  0  0  0  2  0  0  0  0  0  0
  185.1900  177.3900  138.3180 O   0  0  0  0  0  0  0  0  0  0  0  0
  186.6710  178.9960  137.5740 O   0  0  0  0  0  0  0  0  0  0  0  0
  187.1500  173.8520  136.0330 C   0  0  2  0  0  3  0  0  0  0  0  0
  182.2220  176.5460  137.8070 C   0  0  0  0  0  3  0  0  0  0  0  0
  188.2470  174.9060  135.9630 C   0  0  2  0  0  3  0  0  0  0  0  0
  182.7960  173.9140  135.0290 C   0  0  2  0  0  3  0  0  0  0  0  0
  184.0430  178.2450  138.2630 C   0  0  1  0  0  3  0  0  0  0  0  0
  183.4340  171.9110  136.0260 C   0  0  0  0  0  0  0  0  0  0  0  0
  182.7930  177.4880  138.5640 C   0  0  0  0  0  0  0  0  0  0  0  0
  186.9200  176.9480  135.0780 C   0  0  0  0  0  2  0  0  0  0  0  0
  187.9830  177.8140  134.8090 O   0  0  0  0  0  1  0  0  0  0  0  0
  185.2860  179.4080  140.0300 O   0  0  0  0  0  0  0  0  0  0  0  0
  184.9960  179.1130  141.3620 C   0  0  0  0  0  1  0  0  0  0  0  0
  1 29  1  1  0  0  0
  1  5  1  0  0  0  0
  2 11  1  1  0  0  0
  2 13  1  0  0  0  0
  4 18  1  0  0  0  0
  8  6  1  0  0  0  0
  8  9  1  0  0  0  0
  9  4  1  0  0  0  0
 10  5  2  0  0  0  0
 12 22  1  0  0  0  0
 14 13  1  0  0  0  0
 14 21  1  0  0  0  0
 15 14  1  0  0  0  0
 16  2  1  0  0  0  0
 16  6  1  0  0  0  0
 16 13  1  0  0  0  0
 17 25  1  0  0  0  0
 19  4  2  0  0  0  0
 20  6  1  0  0  0  0
 20  7  1  0  0  0  0
 21 26  2  0  0  0  0
 22 20  1  0  0  0  0
 22  8  1  0  0  0  0
 23 17  1  0  0  0  0
 23 15  1  0  0  0  0
 23  2  1  0  0  0  0
 24 18  1  0  0  0  0
 24 26  1  0  0  0  0
 24  1  1  0  0  0  0
 25  3  1  0  0  0  0
 25 11  2  0  0  0  0
 26 10  1  0  0  0  0
 27  8  1  0  0  0  0
 28 27  1  0  0  0  0
 29 30  1  0  0  0  0
M  END
>  <MODEL>
6

>  <REMARK>
 VINA RESULT:      -5.3      4.257      7.991
  Name = 
  2 active torsions:
  status: ('A' for Active; 'I' for Inactive)
    1  A    between atoms: C_1  and  O_16
    2  A    between atoms: C_8  and  C_13
                            x       y       z     vdW  Elec       q    Type
                         _______ _______ _______ _____ _____    ______ ____

>  <TORSDO>
F 2

$$$$
=
 OpenBabel11042412033D

 30 35  0  0  1  0  0  0  0  0999 V2000
  181.8900  172.9580  136.8370 C   0  0  2  0  0  3  0  0  0  0  0  0
  186.0690  177.6990  137.1900 C   0  0  1  0  0  0  0  0  0  0  0  0
  189.0900  178.6280  138.9230 C   0  0  0  0  0  1  0  0  0  0  0  0
  181.5410  175.9770  137.9250 C   0  0  0  0  0  0  0  0  0  0  0  0
  182.8520  171.7850  137.0470 C   0  0  0  0  0  3  0  0  0  0  0  0
  183.9230  178.0060  138.3830 C   0  0  1  0  0  3  0  0  0  0  0  0
  184.5780  179.1150  140.3860 O   0  0  0  0  0  1  0  0  0  0  0  0
  182.4300  178.2940  138.2140 C   0  0  1  0  0  0  0  0  0  0  0  0
  181.6170  177.1640  138.8420 C   0  0  0  0  0  2  0  0  0  0  0  0
  184.1780  172.2860  136.7470 N   0  0  0  0  0  0  0  0  0  0  0  0
  186.7870  178.0440  138.3960 N   0  0  0  0  0  0  0  0  0  0  0  0
  182.2360  180.7240  138.5380 O   0  0  0  0  0  1  0  0  0  0  0  0
  185.2360  176.5310  137.2480 C   0  0  2  0  0  3  0  0  0  0  0  0
  185.3020  175.8170  135.9170 C   0  0  1  0  0  3  0  0  0  0  0  0
  186.9150  176.2060  135.1570 S   0  0  0  0  0  0  0  0  0  0  0  0
  184.6120  177.8770  137.1060 N   0  0  2  0  0  0  0  0  0  0  0  0
  188.2100  178.1050  136.5800 N   0  0  0  0  0  2  0  0  0  0  0  0
  182.6470  175.1380  137.7470 O   0  0  0  0  0  0  0  0  0  0  0  0
  180.4820  175.7820  137.2750 O   0  0  0  0  0  0  0  0  0  0  0  0
  184.1040  179.3380  139.0940 C   0  0  2  0  0  3  0  0  0  0  0  0
  185.2350  174.3480  136.1770 C   0  0  0  0  0  3  0  0  0  0  0  0
  182.5910  179.5120  139.1320 C   0  0  2  0  0  3  0  0  0  0  0  0
  186.9200  177.8260  135.9710 C   0  0  2  0  0  3  0  0  0  0  0  0
  182.7500  174.2300  136.6440 C   0  0  1  0  0  3  0  0  0  0  0  0
  187.9980  178.2480  137.9890 C   0  0  0  0  0  0  0  0  0  0  0  0
  184.1310  173.6800  136.5250 C   0  0  0  0  0  0  0  0  0  0  0  0
  181.9300  178.6370  136.7840 C   0  0  0  0  0  2  0  0  0  0  0  0
  180.5830  179.0070  136.7630 O   0  0  0  0  0  1  0  0  0  0  0  0
  181.0160  173.0600  137.9260 O   0  0  0  0  0  0  0  0  0  0  0  0
  179.9280  172.2540  137.5940 C   0  0  0  0  0  1  0  0  0  0  0  0
  1  5  1  0  0  0  0
  1 29  1  1  0  0  0
  2 13  1  0  0  0  0
  2 11  1  1  0  0  0
  4  9  1  0  0  0  0
  6 20  1  0  0  0  0
  8  6  1  0  0  0  0
  8  9  1  0  0  0  0
  8 22  1  0  0  0  0
 10  5  2  0  0  0  0
 12 22  1  0  0  0  0
 14 21  1  0  0  0  0
 14 13  1  0  0  0  0
 15 14  1  0  0  0  0
 15 23  1  0  0  0  0
 16  2  1  0  0  0  0
 16 13  1  0  0  0  0
 16  6  1  0  0  0  0
 17 25  1  0  0  0  0
 18  4  1  0  0  0  0
 19  4  2  0  0  0  0
 20 22  1  0  0  0  0
 20  7  1  0  0  0  0
 21 26  2  0  0  0  0
 23 17  1  0  0  0  0
 23  2  1  0  0  0  0
 24  1  1  0  0  0  0
 24 18  1  0  0  0  0
 25 11  2  0  0  0  0
 25  3  1  0  0  0  0
 26 24  1  0  0  0  0
 26 10  1  0  0  0  0
 27  8  1  0  0  0  0
 28 27  1  0  0  0  0
 30 29  1  0  0  0  0
M  END
>  <MODEL>
7

>  <REMARK>
 VINA RESULT:      -5.3      3.106      3.935
  Name = 
  2 active torsions:
  status: ('A' for Active; 'I' for Inactive)
    1  A    between atoms: C_1  and  O_16
    2  A    between atoms: C_8  and  C_13
                            x       y       z     vdW  Elec       q    Type
                         _______ _______ _______ _____ _____    ______ ____

>  <TORSDO>
F 2

$$$$
=
 OpenBabel11042412033D

 30 35  0  0  1  0  0  0  0  0999 V2000
  190.7500  177.8760  141.5560 C   0  0  2  0  0  3  0  0  0  0  0  0
  187.2040  175.9740  136.6700 C   0  0  1  0  0  0  0  0  0  0  0  0
  184.3710  173.8710  135.9350 C   0  0  0  0  0  1  0  0  0  0  0  0
  191.5020  176.0220  139.0230 C   0  0  0  0  0  0  0  0  0  0  0  0
  189.6560  177.9400  142.6260 C   0  0  0  0  0  3  0  0  0  0  0  0
  189.4040  174.8760  136.9530 C   0  0  1  0  0  3  0  0  0  0  0  0
  188.9470  172.6090  136.3860 O   0  0  0  0  0  1  0  0  0  0  0  0
  190.9160  175.0500  136.7970 C   0  0  1  0  0  0  0  0  0  0  0  0
  191.5990  174.8090  138.1420 C   0  0  0  0  0  2  0  0  0  0  0  0
  188.3950  178.0090  141.9160 N   0  0  0  0  0  0  0  0  0  0  0  0
  186.5680  174.6790  136.6000 N   0  0  0  0  0  0  0  0  0  0  0  0
  191.4190  174.0820  134.5940 O   0  0  0  0  0  1  0  0  0  0  0  0
  187.8870  176.2920  137.8930 C   0  0  2  0  0  3  0  0  0  0  0  0
  187.6960  177.7620  138.1910 C   0  0  1  0  0  3  0  0  0  0  0  0
  186.1240  178.2850  137.4270 S   0  0  0  0  0  0  0  0  0  0  0  0
  188.6690  176.0950  136.6400 N   0  0  2  0  0  0  0  0  0  0  0  0
  185.1140  176.3170  135.8730 N   0  0  0  0  0  2  0  0  0  0  0  0
  190.2950  176.3560  139.6500 O   0  0  0  0  0  0  0  0  0  0  0  0
  192.5090  176.7630  139.1440 O   0  0  0  0  0  0  0  0  0  0  0  0
  189.4090  173.8160  135.8620 C   0  0  2  0  0  3  0  0  0  0  0  0
  187.5870  177.9220  139.6720 C   0  0  0  0  0  3  0  0  0  0  0  0
  190.9320  173.8240  135.8760 C   0  0  2  0  0  3  0  0  0  0  0  0
  186.3420  177.0570  136.1120 C   0  0  2  0  0  3  0  0  0  0  0  0
  190.0500  177.6580  140.1930 C   0  0  1  0  0  3  0  0  0  0  0  0
  185.3810  174.9380  136.1570 C   0  0  0  0  0  0  0  0  0  0  0  0
  188.6090  177.8390  140.5300 C   0  0  0  0  0  0  0  0  0  0  0  0
  191.4140  176.3580  136.1240 C   0  0  0  0  0  2  0  0  0  0  0  0
  192.7920  176.3480  135.8930 O   0  0  0  0  0  1  0  0  0  0  0  0
  191.6590  176.8570  141.8630 O   0  0  0  0  0  0  0  0  0  0  0  0
  191.2990  176.4210  143.1370 C   0  0  0  0  0  1  0  0  0  0  0  0
  1 29  1  1  0  0  0
  1  5  1  0  0  0  0
  2 11  1  6  0  0  0
  2 13  1  0  0  0  0
  3 25  1  0  0  0  0
  4 19  2  0  0  0  0
  4 18  1  0  0  0  0
  8  6  1  0  0  0  0
  8  9  1  0  0  0  0
  9  4  1  0  0  0  0
 10  5  2  0  0  0  0
 12 22  1  0  0  0  0
 13 14  1  0  0  0  0
 14 21  1  0  0  0  0
 15 14  1  0  0  0  0
 16  2  1  0  0  0  0
 16  6  1  0  0  0  0
 16 13  1  0  0  0  0
 17 23  1  0  0  0  0
 17 25  1  0  0  0  0
 18 24  1  0  0  0  0
 20 22  1  0  0  0  0
 20  7  1  0  0  0  0
 20  6  1  0  0  0  0
 21 26  2  0  0  0  0
 22  8  1  0  0  0  0
 23  2  1  0  0  0  0
 23 15  1  0  0  0  0
 24 26  1  0  0  0  0
 24  1  1  0  0  0  0
 25 11  2  0  0  0  0
 26 10  1  0  0  0  0
 27  8  1  0  0  0  0
 28 27  1  0  0  0  0
 29 30  1  0  0  0  0
M  END
>  <MODEL>
8

>  <REMARK>
 VINA RESULT:      -5.0      6.738     10.258
  Name = 
  2 active torsions:
  status: ('A' for Active; 'I' for Inactive)
    1  A    between atoms: C_1  and  O_16
    2  A    between atoms: C_8  and  C_13
                            x       y       z     vdW  Elec       q    Type
                         _______ _______ _______ _____ _____    ______ ____

>  <TORSDO>
F 2

$$$$
=
 OpenBabel11042412033D

 30 35  0  0  1  0  0  0  0  0999 V2000
  191.0670  177.8440  141.4050 C   0  0  2  0  0  3  0  0  0  0  0  0
  189.0870  175.4320  135.8980 C   0  0  1  0  0  0  0  0  0  0  0  0
  186.9820  172.8100  134.6000 C   0  0  0  0  0  1  0  0  0  0  0  0
  192.7000  176.2910  139.0940 C   0  0  0  0  0  0  0  0  0  0  0  0
  189.7900  177.6340  142.2230 C   0  0  0  0  0  3  0  0  0  0  0  0
  191.3650  174.8120  136.6390 C   0  0  1  0  0  3  0  0  0  0  0  0
  191.5300  172.5230  136.0010 O   0  0  0  0  0  1  0  0  0  0  0  0
  192.8040  175.3060  136.8000 C   0  0  1  0  0  0  0  0  0  0  0  0
  193.2330  175.1620  138.2590 C   0  0  0  0  0  2  0  0  0  0  0  0
  188.7160  177.4640  141.2660 N   0  0  0  0  0  0  0  0  0  0  0  0
  188.7710  174.0350  135.7040 N   0  0  0  0  0  0  0  0  0  0  0  0
  193.9430  174.5530  134.7560 O   0  0  0  0  0  1  0  0  0  0  0  0
  189.4210  175.8380  137.2340 C   0  0  2  0  0  3  0  0  0  0  0  0
  188.8630  177.2220  137.4780 C   0  0  1  0  0  3  0  0  0  0  0  0
  187.4050  177.4320  136.4010 S   0  0  0  0  0  0  0  0  0  0  0  0
  190.4670  175.8600  136.1730 N   0  0  2  0  0  0  0  0  0  0  0  0
  187.1810  175.3580  134.6810 N   0  0  0  0  0  2  0  0  0  0  0  0
  191.3480  176.3390  139.4540 O   0  0  0  0  0  0  0  0  0  0  0  0
  193.4790  177.2220  139.4190 O   0  0  0  0  0  0  0  0  0  0  0  0
  191.8200  173.8200  135.5790 C   0  0  2  0  0  3  0  0  0  0  0  0
  188.4210  177.2970  138.9030 C   0  0  0  0  0  3  0  0  0  0  0  0
  193.2710  174.1480  135.9100 C   0  0  2  0  0  3  0  0  0  0  0  0
  188.1470  176.3300  135.1660 C   0  0  2  0  0  3  0  0  0  0  0  0
  190.7240  177.5380  139.9270 C   0  0  1  0  0  3  0  0  0  0  0  0
  187.6730  174.0570  135.0210 C   0  0  0  0  0  0  0  0  0  0  0  0
  189.2400  177.3980  139.9560 C   0  0  0  0  0  0  0  0  0  0  0  0
  193.1380  176.7150  136.2390 C   0  0  0  0  0  2  0  0  0  0  0  0
  194.4700  177.0760  136.4580 O   0  0  0  0  0  1  0  0  0  0  0  0
  192.0910  177.0280  141.9000 O   0  0  0  0  0  0  0  0  0  0  0  0
  191.6220  176.5630  143.1280 C   0  0  0  0  0  1  0  0  0  0  0  0
  1 29  1  1  0  0  0
  1  5  1  0  0  0  0
  2 11  1  6  0  0  0
  2 16  1  0  0  0  0
  2 13  1  0  0  0  0
  3 25  1  0  0  0  0
  4 19  2  0  0  0  0
  4 18  1  0  0  0  0
  6  8  1  0  0  0  0
  8  9  1  0  0  0  0
  9  4  1  0  0  0  0
 10  5  2  0  0  0  0
 12 22  1  0  0  0  0
 13 14  1  0  0  0  0
 14 21  1  0  0  0  0
 15 14  1  0  0  0  0
 16  6  1  0  0  0  0
 16 13  1  0  0  0  0
 17 25  1  0  0  0  0
 17 23  1  0  0  0  0
 18 24  1  0  0  0  0
 20 22  1  0  0  0  0
 20  7  1  0  0  0  0
 20  6  1  0  0  0  0
 21 26  2  0  0  0  0
 22  8  1  0  0  0  0
 23  2  1  0  0  0  0
 23 15  1  0  0  0  0
 24 26  1  0  0  0  0
 24  1  1  0  0  0  0
 25 11  2  0  0  0  0
 26 10  1  0  0  0  0
 27 28  1  0  0  0  0
 27  8  1  0  0  0  0
 29 30  1  0  0  0  0
M  END
>  <MODEL>
9

>  <REMARK>
 VINA RESULT:      -5.0      8.104     11.408
  Name = 
  2 active torsions:
  status: ('A' for Active; 'I' for Inactive)
    1  A    between atoms: C_1  and  O_16
    2  A    between atoms: C_8  and  C_13
                            x       y       z     vdW  Elec       q    Type
                         _______ _______ _______ _____ _____    ______ ____

>  <TORSDO>
F 2

$$$$
