=
 OpenBabel11032420083D

 28 31  0  0  1  0  0  0  0  0999 V2000
  185.9070  176.9940  145.9050 O   0  0  0  0  0  0  0  0  0  0  0  0
  191.4290  176.3100  146.3980 N   0  0  0  0  0  1  0  0  0  0  0  0
  187.9100  177.6650  147.7280 C   0  0  0  0  0  2  0  0  0  0  0  0
  188.4360  178.0270  143.5410 C   0  0  2  0  0  3  0  0  0  0  0  0
  189.6570  177.8240  144.4150 C   0  0  0  0  0  0  0  0  0  0  0  0
  191.0400  177.7960  143.8040 C   0  0  0  0  0  2  0  0  0  0  0  0
  190.1100  177.4390  141.6750 C   0  0  1  0  0  0  0  0  0  0  0  0
  187.0490  177.2300  145.4210 C   0  0  0  0  0  0  0  0  0  0  0  0
  190.6880  177.5300  146.6710 C   0  0  1  0  0  3  0  0  0  0  0  0
  189.4890  177.6360  145.7430 C   0  0  0  0  0  0  0  0  0  0  0  0
  191.0780  178.1460  142.4330 O   0  0  0  0  0  0  0  0  0  0  0  0
  189.0670  178.3620  148.4240 C   0  0  0  0  0  2  0  0  0  0  0  0
  187.2780  177.1020  143.9420 C   0  0  1  0  0  3  0  0  0  0  0  0
  188.5490  179.2830  141.5240 O   0  0  0  0  0  1  0  0  0  0  0  0
  188.1500  177.5550  146.2870 N   0  0  0  0  0  0  0  0  0  0  0  0
  190.1550  175.9200  141.9340 C   0  0  0  0  0  1  0  0  0  0  0  0
  188.7170  177.9920  142.0330 C   0  0  2  0  0  3  0  0  0  0  0  0
  190.3280  177.5610  148.1570 C   0  0  0  0  0  2  0  0  0  0  0  0
  191.5390  176.1520  138.6340 N   0  0  0  0  0  0  0  0  0  0  0  0
  191.6670  177.0820  139.6920 C   0  0  0  0  0  0  0  0  0  0  0  0
  190.3930  177.6960  140.1730 C   0  0  1  0  0  3  0  0  0  0  0  0
  189.9600  175.0850  137.1440 C   0  0  0  0  0  1  0  0  0  0  0  0
  192.7940  177.3850  140.1680 O   0  0  0  0  0  0  0  0  0  0  0  0
  189.0840  177.0200  139.0740 S   0  0  0  0  0  0  0  0  0  0  0  0
  190.3190  176.0220  138.2410 C   0  0  0  0  0  0  0  0  0  0  0  0
  186.0640  177.4620  143.2200 N   0  0  0  0  0  0  0  0  0  0  0  0
  184.3390  178.9600  142.6640 N   0  0  0  0  0  1  0  0  0  0  0  0
  185.5240  178.6260  143.3740 C   0  0  0  0  0  3  0  0  0  0  0  0
  3 12  1  0  0  0  0
  4 13  1  0  0  0  0
  4  5  1  1  0  0  0
  5 10  2  0  0  0  0
  6  5  1  0  0  0  0
  7 16  1  1  0  0  0
  7 17  1  0  0  0  0
  7 11  1  0  0  0  0
  8  1  2  0  0  0  0
  8 15  1  0  0  0  0
  9  2  1  6  0  0  0
  9 18  1  0  0  0  0
 10 15  1  0  0  0  0
 10  9  1  0  0  0  0
 11  6  1  0  0  0  0
 13 26  1  6  0  0  0
 13  8  1  0  0  0  0
 15  3  1  0  0  0  0
 17 14  1  1  0  0  0
 17  4  1  0  0  0  0
 18 12  1  0  0  0  0
 19 20  1  0  0  0  0
 20 23  2  0  0  0  0
 20 21  1  0  0  0  0
 21 24  1  6  0  0  0
 21  7  1  0  0  0  0
 22 25  1  0  0  0  0
 25 19  2  0  0  0  0
 25 24  1  0  0  0  0
 26 28  2  0  0  0  0
 27 28  1  0  0  0  0
M  END
>  <MODEL>
1

>  <REMARK>
 VINA RESULT:      -7.7      0.000      0.000
  Name = 
  2 active torsions:
  status: ('A' for Active; 'I' for Inactive)
    1  A    between atoms: C_8  and  C_14
    2  A    between atoms: N_16  and  C_19
                            x       y       z     vdW  Elec       q    Type
                         _______ _______ _______ _____ _____    ______ ____

>  <TORSDO>
F 2

$$$$
=
 OpenBabel11032420083D

 28 31  0  0  1  0  0  0  0  0999 V2000
  187.8600  178.8740  138.6120 O   0  0  0  0  0  0  0  0  0  0  0  0
  193.0430  177.6320  140.2830 N   0  0  0  0  0  1  0  0  0  0  0  0
  190.1040  177.5810  137.5730 C   0  0  0  0  0  2  0  0  0  0  0  0
  188.7950  177.0060  141.5610 C   0  0  2  0  0  3  0  0  0  0  0  0
  190.2590  176.7900  141.2340 C   0  0  0  0  0  0  0  0  0  0  0  0
  191.2230  176.3350  142.3070 C   0  0  0  0  0  2  0  0  0  0  0  0
  189.6890  176.9620  143.9750 C   0  0  1  0  0  0  0  0  0  0  0  0
  188.5840  178.2550  139.4410 C   0  0  0  0  0  0  0  0  0  0  0  0
  192.1320  176.7430  139.5830 C   0  0  1  0  0  3  0  0  0  0  0  0
  190.6960  177.0420  139.9810 C   0  0  0  0  0  0  0  0  0  0  0  0
  190.6070  175.9750  143.5300 O   0  0  0  0  0  0  0  0  0  0  0  0
  191.1630  176.5390  137.2560 C   0  0  0  0  0  2  0  0  0  0  0  0
  188.2380  178.2770  140.9030 C   0  0  1  0  0  3  0  0  0  0  0  0
  187.7080  175.7620  143.2710 O   0  0  0  0  0  1  0  0  0  0  0  0
  189.7770  177.5840  139.0010 N   0  0  0  0  0  0  0  0  0  0  0  0
  190.3010  178.3760  143.9750 C   0  0  0  0  0  1  0  0  0  0  0  0
  188.4540  176.9240  143.0540 C   0  0  2  0  0  3  0  0  0  0  0  0
  192.3980  176.8570  138.0810 C   0  0  0  0  0  2  0  0  0  0  0  0
  189.6680  177.9710  147.4270 N   0  0  0  0  0  0  0  0  0  0  0  0
  190.2140  177.0930  146.4630 C   0  0  0  0  0  0  0  0  0  0  0  0
  189.2620  176.6030  145.4200 C   0  0  1  0  0  3  0  0  0  0  0  0
  187.6390  179.0730  148.1490 C   0  0  0  0  0  1  0  0  0  0  0  0
  191.4200  176.7310  146.5100 O   0  0  0  0  0  0  0  0  0  0  0  0
  187.6320  177.3170  145.8800 S   0  0  0  0  0  0  0  0  0  0  0  0
  188.4080  178.1730  147.2510 C   0  0  0  0  0  0  0  0  0  0  0  0
  186.7910  178.3450  141.0680 N   0  0  0  0  0  0  0  0  0  0  0  0
  184.8330  179.3650  141.8740 N   0  0  0  0  0  1  0  0  0  0  0  0
  186.2450  179.3160  141.7220 C   0  0  0  0  0  3  0  0  0  0  0  0
  1  8  2  0  0  0  0
  3 15  1  0  0  0  0
  4  5  1  1  0  0  0
  4 17  1  0  0  0  0
  5  6  1  0  0  0  0
  6 11  1  0  0  0  0
  7 16  1  6  0  0  0
  7 21  1  0  0  0  0
  8 13  1  0  0  0  0
  9 10  1  0  0  0  0
  9  2  1  1  0  0  0
 10  5  2  0  0  0  0
 11  7  1  0  0  0  0
 12  3  1  0  0  0  0
 12 18  1  0  0  0  0
 13 26  1  6  0  0  0
 13  4  1  0  0  0  0
 15  8  1  0  0  0  0
 15 10  1  0  0  0  0
 17 14  1  6  0  0  0
 17  7  1  0  0  0  0
 18  9  1  0  0  0  0
 20 23  2  0  0  0  0
 20 19  1  0  0  0  0
 21 24  1  1  0  0  0
 21 20  1  0  0  0  0
 24 25  1  0  0  0  0
 25 19  2  0  0  0  0
 25 22  1  0  0  0  0
 26 28  2  0  0  0  0
 28 27  1  0  0  0  0
M  END
>  <MODEL>
2

>  <REMARK>
 VINA RESULT:      -7.5      2.298      6.548
  Name = 
  2 active torsions:
  status: ('A' for Active; 'I' for Inactive)
    1  A    between atoms: C_8  and  C_14
    2  A    between atoms: N_16  and  C_19
                            x       y       z     vdW  Elec       q    Type
                         _______ _______ _______ _____ _____    ______ ____

>  <TORSDO>
F 2

$$$$
=
 OpenBabel11032420083D

 28 31  0  0  1  0  0  0  0  0999 V2000
  188.1370  175.8040  136.9600 O   0  0  0  0  0  0  0  0  0  0  0  0
  185.4940  178.0040  141.3620 N   0  0  0  0  0  1  0  0  0  0  0  0
  186.2350  177.7900  137.4380 C   0  0  0  0  0  2  0  0  0  0  0  0
  189.6600  177.2890  139.8800 C   0  0  2  0  0  3  0  0  0  0  0  0
  188.4230  177.9260  140.4800 C   0  0  0  0  0  0  0  0  0  0  0  0
  188.4300  178.4120  141.9120 C   0  0  0  0  0  2  0  0  0  0  0  0
  190.3490  177.1270  142.3560 C   0  0  1  0  0  0  0  0  0  0  0  0
  188.2410  176.4280  138.0520 C   0  0  0  0  0  0  0  0  0  0  0  0
  186.0740  178.7430  140.2530 C   0  0  1  0  0  3  0  0  0  0  0  0
  187.3050  178.0220  139.7280 C   0  0  0  0  0  0  0  0  0  0  0  0
  189.7020  178.3780  142.5320 O   0  0  0  0  0  0  0  0  0  0  0  0
  185.5690  179.1060  137.8020 C   0  0  0  0  0  2  0  0  0  0  0  0
  189.3210  176.0570  139.0290 C   0  0  1  0  0  3  0  0  0  0  0  0
  191.8430  177.8900  140.6100 O   0  0  0  0  0  1  0  0  0  0  0  0
  187.2880  177.4490  138.3990 N   0  0  0  0  0  0  0  0  0  0  0  0
  189.4400  175.9390  142.7270 C   0  0  0  0  0  1  0  0  0  0  0  0
  190.7880  177.0140  140.8830 C   0  0  2  0  0  3  0  0  0  0  0  0
  184.9900  178.9710  139.1980 C   0  0  0  0  0  2  0  0  0  0  0  0
  191.6690  177.7380  145.6460 N   0  0  0  0  0  0  0  0  0  0  0  0
  191.6080  178.1780  144.3030 C   0  0  0  0  0  0  0  0  0  0  0  0
  191.6010  177.1010  143.2680 C   0  0  1  0  0  3  0  0  0  0  0  0
  191.8040  175.7830  147.0630 C   0  0  0  0  0  1  0  0  0  0  0  0
  191.5930  179.4040  144.0120 O   0  0  0  0  0  0  0  0  0  0  0  0
  191.7670  175.5280  144.2050 S   0  0  0  0  0  0  0  0  0  0  0  0
  191.7420  176.4560  145.7390 C   0  0  0  0  0  0  0  0  0  0  0  0
  190.5010  175.5950  138.3070 N   0  0  0  0  0  0  0  0  0  0  0  0
  192.3020  175.9240  136.8320 N   0  0  0  0  0  1  0  0  0  0  0  0
  191.1550  176.3930  137.5290 C   0  0  0  0  0  3  0  0  0  0  0  0
  1  8  2  0  0  0  0
  3 12  1  0  0  0  0
  3 15  1  0  0  0  0
  4  5  1  1  0  0  0
  4 17  1  0  0  0  0
  5  6  1  0  0  0  0
  6 11  1  0  0  0  0
  7 11  1  0  0  0  0
  7 16  1  1  0  0  0
  7 21  1  0  0  0  0
  8 15  1  0  0  0  0
  8 13  1  0  0  0  0
  9  2  1  1  0  0  0
 10  9  1  0  0  0  0
 10  5  2  0  0  0  0
 12 18  1  0  0  0  0
 13 26  1  6  0  0  0
 13  4  1  0  0  0  0
 15 10  1  0  0  0  0
 17 14  1  6  0  0  0
 17  7  1  0  0  0  0
 18  9  1  0  0  0  0
 19 25  2  0  0  0  0
 20 19  1  0  0  0  0
 21 24  1  1  0  0  0
 21 20  1  0  0  0  0
 23 20  2  0  0  0  0
 24 25  1  0  0  0  0
 25 22  1  0  0  0  0
 27 28  1  0  0  0  0
 28 26  2  0  0  0  0
M  END
>  <MODEL>
3

>  <REMARK>
 VINA RESULT:      -6.6      2.780      6.925
  Name = 
  2 active torsions:
  status: ('A' for Active; 'I' for Inactive)
    1  A    between atoms: C_8  and  C_14
    2  A    between atoms: N_16  and  C_19
                            x       y       z     vdW  Elec       q    Type
                         _______ _______ _______ _____ _____    ______ ____

>  <TORSDO>
F 2

$$$$
=
 OpenBabel11032420083D

 28 31  0  0  1  0  0  0  0  0999 V2000
  186.3390  179.0130  139.6350 O   0  0  0  0  0  0  0  0  0  0  0  0
  191.8040  177.8790  139.8560 N   0  0  0  0  0  1  0  0  0  0  0  0
  188.2700  177.8580  137.9850 C   0  0  0  0  0  2  0  0  0  0  0  0
  188.0400  177.0330  142.1330 C   0  0  2  0  0  3  0  0  0  0  0  0
  189.3760  176.8880  141.4330 C   0  0  0  0  0  0  0  0  0  0  0  0
  190.5920  176.4140  142.1970 C   0  0  0  0  0  2  0  0  0  0  0  0
  189.5230  176.8980  144.2340 C   0  0  1  0  0  0  0  0  0  0  0  0
  187.2650  178.3790  140.2150 C   0  0  0  0  0  0  0  0  0  0  0  0
  190.7640  176.9930  139.3590 C   0  0  1  0  0  3  0  0  0  0  0  0
  189.4710  177.2190  140.1270 C   0  0  0  0  0  0  0  0  0  0  0  0
  190.3180  175.9700  143.5130 O   0  0  0  0  0  0  0  0  0  0  0  0
  189.2370  176.8740  137.3480 C   0  0  0  0  0  2  0  0  0  0  0  0
  187.3050  178.3150  141.7150 C   0  0  1  0  0  3  0  0  0  0  0  0
  187.4560  175.6630  143.9880 O   0  0  0  0  0  1  0  0  0  0  0  0
  188.3210  177.7760  139.4470 N   0  0  0  0  0  0  0  0  0  0  0  0
  190.0830  178.3320  144.1620 C   0  0  0  0  0  1  0  0  0  0  0  0
  188.0950  176.8620  143.6570 C   0  0  2  0  0  3  0  0  0  0  0  0
  190.6330  177.1940  137.8490 C   0  0  0  0  0  2  0  0  0  0  0  0
  190.5320  177.6360  147.6070 N   0  0  0  0  0  0  0  0  0  0  0  0
  190.7250  176.8070  146.4770 C   0  0  0  0  0  0  0  0  0  0  0  0
  189.4890  176.4510  145.7170 C   0  0  1  0  0  3  0  0  0  0  0  0
  188.8670  178.7820  148.9350 C   0  0  0  0  0  1  0  0  0  0  0  0
  191.8670  176.3810  146.1610 O   0  0  0  0  0  0  0  0  0  0  0  0
  188.1050  177.2100  146.6590 S   0  0  0  0  0  0  0  0  0  0  0  0
  189.2900  177.9150  147.8050 C   0  0  0  0  0  0  0  0  0  0  0  0
  185.9470  178.3210  142.2460 N   0  0  0  0  0  0  0  0  0  0  0  0
  184.1580  179.3450  143.3750 N   0  0  0  0  0  1  0  0  0  0  0  0
  185.4840  179.3570  142.8630 C   0  0  0  0  0  3  0  0  0  0  0  0
  1  8  2  0  0  0  0
  3 15  1  0  0  0  0
  4  5  1  1  0  0  0
  4 17  1  0  0  0  0
  5  6  1  0  0  0  0
  6 11  1  0  0  0  0
  7 16  1  6  0  0  0
  7 21  1  0  0  0  0
  8 13  1  0  0  0  0
  9  2  1  1  0  0  0
  9 10  1  0  0  0  0
 10  5  2  0  0  0  0
 11  7  1  0  0  0  0
 12 18  1  0  0  0  0
 12  3  1  0  0  0  0
 13  4  1  0  0  0  0
 13 26  1  1  0  0  0
 15 10  1  0  0  0  0
 15  8  1  0  0  0  0
 17 14  1  6  0  0  0
 17  7  1  0  0  0  0
 18  9  1  0  0  0  0
 19 25  2  0  0  0  0
 20 19  1  0  0  0  0
 21 20  1  1  0  0  0
 21 24  1  0  0  0  0
 23 20  2  0  0  0  0
 24 25  1  0  0  0  0
 25 22  1  0  0  0  0
 26 28  2  0  0  0  0
 28 27  1  0  0  0  0
M  END
>  <MODEL>
4

>  <REMARK>
 VINA RESULT:      -6.4      2.347      6.444
  Name = 
  2 active torsions:
  status: ('A' for Active; 'I' for Inactive)
    1  A    between atoms: C_8  and  C_14
    2  A    between atoms: N_16  and  C_19
                            x       y       z     vdW  Elec       q    Type
                         _______ _______ _______ _____ _____    ______ ____

>  <TORSDO>
F 2

$$$$
=
 OpenBabel11032420083D

 28 31  0  0  1  0  0  0  0  0999 V2000
  186.3240  178.2480  144.0130 O   0  0  0  0  0  0  0  0  0  0  0  0
  191.0350  175.2970  143.4670 N   0  0  0  0  0  1  0  0  0  0  0  0
  188.6610  177.8120  145.4740 C   0  0  0  0  0  2  0  0  0  0  0  0
  188.6830  178.4210  141.2820 C   0  0  2  0  0  3  0  0  0  0  0  0
  189.8130  177.6310  141.9110 C   0  0  0  0  0  0  0  0  0  0  0  0
  190.9480  177.1100  141.0590 C   0  0  0  0  0  2  0  0  0  0  0  0
  189.6590  177.4240  139.1190 C   0  0  1  0  0  0  0  0  0  0  0  0
  187.3750  178.0490  143.3420 C   0  0  0  0  0  0  0  0  0  0  0  0
  190.9330  176.6720  143.9270 C   0  0  1  0  0  3  0  0  0  0  0  0
  189.7730  177.3720  143.2360 C   0  0  0  0  0  0  0  0  0  0  0  0
  190.9350  177.5740  139.7220 O   0  0  0  0  0  0  0  0  0  0  0  0
  190.0910  177.8820  145.9810 C   0  0  0  0  0  2  0  0  0  0  0  0
  187.3120  178.0150  141.8410 C   0  0  1  0  0  3  0  0  0  0  0  0
  189.0290  179.7500  139.3400 O   0  0  0  0  0  1  0  0  0  0  0  0
  188.6210  177.7850  144.0100 N   0  0  0  0  0  0  0  0  0  0  0  0
  189.0900  176.0020  139.2930 C   0  0  0  0  0  1  0  0  0  0  0  0
  188.7020  178.4540  139.7490 C   0  0  2  0  0  3  0  0  0  0  0  0
  190.8380  176.6700  145.4540 C   0  0  0  0  0  2  0  0  0  0  0  0
  189.8560  176.0390  135.8040 N   0  0  0  0  0  0  0  0  0  0  0  0
  190.5590  176.6640  136.8610 C   0  0  0  0  0  0  0  0  0  0  0  0
  189.8060  177.7190  137.6050 C   0  0  1  0  0  3  0  0  0  0  0  0
  187.7620  176.0050  134.5940 C   0  0  0  0  0  1  0  0  0  0  0  0
  191.7520  176.3600  137.1270 O   0  0  0  0  0  0  0  0  0  0  0  0
  188.1880  177.8560  136.7440 S   0  0  0  0  0  0  0  0  0  0  0  0
  188.6740  176.5260  135.6450 C   0  0  0  0  0  0  0  0  0  0  0  0
  186.2770  178.9270  141.3700 N   0  0  0  0  0  0  0  0  0  0  0  0
  184.5820  179.5540  139.8670 N   0  0  0  0  0  1  0  0  0  0  0  0
  185.5860  178.6520  140.3130 C   0  0  0  0  0  3  0  0  0  0  0  0
  3 12  1  0  0  0  0
  4 13  1  0  0  0  0
  4  5  1  6  0  0  0
  5 10  2  0  0  0  0
  6  5  1  0  0  0  0
  7 16  1  1  0  0  0
  7 11  1  0  0  0  0
  7 17  1  0  0  0  0
  8 15  1  0  0  0  0
  8  1  2  0  0  0  0
  9  2  1  6  0  0  0
  9 18  1  0  0  0  0
 10  9  1  0  0  0  0
 10 15  1  0  0  0  0
 11  6  1  0  0  0  0
 13 26  1  6  0  0  0
 13  8  1  0  0  0  0
 15  3  1  0  0  0  0
 17 14  1  1  0  0  0
 17  4  1  0  0  0  0
 18 12  1  0  0  0  0
 19 20  1  0  0  0  0
 20 23  2  0  0  0  0
 20 21  1  0  0  0  0
 21 24  1  6  0  0  0
 21  7  1  0  0  0  0
 22 25  1  0  0  0  0
 25 19  2  0  0  0  0
 25 24  1  0  0  0  0
 27 28  1  0  0  0  0
 28 26  2  0  0  0  0
M  END
>  <MODEL>
5

>  <REMARK>
 VINA RESULT:      -6.4      2.117      2.741
  Name = 
  2 active torsions:
  status: ('A' for Active; 'I' for Inactive)
    1  A    between atoms: C_8  and  C_14
    2  A    between atoms: N_16  and  C_19
                            x       y       z     vdW  Elec       q    Type
                         _______ _______ _______ _____ _____    ______ ____

>  <TORSDO>
F 2

$$$$
=
 OpenBabel11032420083D

 28 31  0  0  1  0  0  0  0  0999 V2000
  187.4600  178.1000  147.7120 O   0  0  0  0  0  0  0  0  0  0  0  0
  185.3130  180.1350  142.9740 N   0  0  0  0  0  1  0  0  0  0  0  0
  184.9290  178.5740  146.6360 C   0  0  0  0  0  2  0  0  0  0  0  0
  188.0890  176.9050  144.3610 C   0  0  2  0  0  3  0  0  0  0  0  0
  186.9960  177.6680  143.6420 C   0  0  0  0  0  0  0  0  0  0  0  0
  187.0140  177.7910  142.1350 C   0  0  0  0  0  2  0  0  0  0  0  0
  189.2800  177.1660  142.0940 C   0  0  1  0  0  0  0  0  0  0  0  0
  187.3510  177.9730  146.4610 C   0  0  0  0  0  0  0  0  0  0  0  0
  184.8550  178.9530  143.6850 C   0  0  1  0  0  3  0  0  0  0  0  0
  186.0250  178.2640  144.3680 C   0  0  0  0  0  0  0  0  0  0  0  0
  188.0020  177.0030  141.4970 O   0  0  0  0  0  0  0  0  0  0  0  0
  183.6400  178.4430  145.8430 C   0  0  0  0  0  2  0  0  0  0  0  0
  188.5560  177.6260  145.6340 C   0  0  1  0  0  3  0  0  0  0  0  0
  189.2190  175.0840  143.3280 O   0  0  0  0  0  1  0  0  0  0  0  0
  186.0920  178.2270  145.8140 N   0  0  0  0  0  0  0  0  0  0  0  0
  189.6690  178.6480  142.2540 C   0  0  0  0  0  1  0  0  0  0  0  0
  189.2610  176.4740  143.4700 C   0  0  2  0  0  3  0  0  0  0  0  0
  183.7310  179.3620  144.6390 C   0  0  0  0  0  2  0  0  0  0  0  0
  191.4910  177.5030  139.2760 N   0  0  0  0  0  0  0  0  0  0  0  0
  190.2890  176.9410  139.7670 C   0  0  0  0  0  0  0  0  0  0  0  0
  190.3260  176.4720  141.1850 C   0  0  1  0  0  3  0  0  0  0  0  0
  193.7820  178.0320  139.8430 C   0  0  0  0  0  1  0  0  0  0  0  0
  189.2710  176.8230  139.0350 O   0  0  0  0  0  0  0  0  0  0  0  0
  192.0540  176.7530  141.7440 S   0  0  0  0  0  0  0  0  0  0  0  0
  192.4370  177.4800  140.1500 C   0  0  0  0  0  0  0  0  0  0  0  0
  189.4540  176.7740  146.4040 N   0  0  0  0  0  0  0  0  0  0  0  0
  191.5470  176.2720  147.3500 N   0  0  0  0  0  1  0  0  0  0  0  0
  190.6850  177.1160  146.5980 C   0  0  0  0  0  3  0  0  0  0  0  0
  4  5  1  6  0  0  0
  4 13  1  0  0  0  0
  5 10  2  0  0  0  0
  6  5  1  0  0  0  0
  7 16  1  1  0  0  0
  7 17  1  0  0  0  0
  8  1  2  0  0  0  0
  9  2  1  1  0  0  0
  9 10  1  0  0  0  0
  9 18  1  0  0  0  0
 10 15  1  0  0  0  0
 11  7  1  0  0  0  0
 11  6  1  0  0  0  0
 12  3  1  0  0  0  0
 13 26  1  1  0  0  0
 13  8  1  0  0  0  0
 15  8  1  0  0  0  0
 15  3  1  0  0  0  0
 17 14  1  6  0  0  0
 17  4  1  0  0  0  0
 18 12  1  0  0  0  0
 19 20  1  0  0  0  0
 19 25  2  0  0  0  0
 21 20  1  6  0  0  0
 21 24  1  0  0  0  0
 21  7  1  0  0  0  0
 22 25  1  0  0  0  0
 23 20  2  0  0  0  0
 25 24  1  0  0  0  0
 26 28  2  0  0  0  0
 28 27  1  0  0  0  0
M  END
>  <MODEL>
6

>  <REMARK>
 VINA RESULT:      -6.1      2.008      4.402
  Name = 
  2 active torsions:
  status: ('A' for Active; 'I' for Inactive)
    1  A    between atoms: C_8  and  C_14
    2  A    between atoms: N_16  and  C_19
                            x       y       z     vdW  Elec       q    Type
                         _______ _______ _______ _____ _____    ______ ____

>  <TORSDO>
F 2

$$$$
=
 OpenBabel11032420083D

 28 31  0  0  1  0  0  0  0  0999 V2000
  191.8220  177.0250  139.9910 O   0  0  0  0  0  0  0  0  0  0  0  0
  190.9800  174.0620  135.3310 N   0  0  0  0  0  1  0  0  0  0  0  0
  193.2430  176.3760  137.6780 C   0  0  0  0  0  2  0  0  0  0  0  0
  189.1500  177.4640  137.5990 C   0  0  2  0  0  3  0  0  0  0  0  0
  189.6940  176.5840  136.4920 C   0  0  0  0  0  0  0  0  0  0  0  0
  188.7970  176.1410  135.3570 C   0  0  0  0  0  2  0  0  0  0  0  0
  186.8940  176.7030  136.6200 C   0  0  1  0  0  0  0  0  0  0  0  0
  191.1420  176.8830  138.9370 C   0  0  0  0  0  0  0  0  0  0  0  0
  191.5940  175.3770  135.4120 C   0  0  1  0  0  3  0  0  0  0  0  0
  190.9800  176.1740  136.5510 C   0  0  0  0  0  0  0  0  0  0  0  0
  187.5220  176.7560  135.3480 O   0  0  0  0  0  0  0  0  0  0  0  0
  193.7670  176.3580  136.2530 C   0  0  0  0  0  2  0  0  0  0  0  0
  189.6470  177.0230  138.9830 C   0  0  1  0  0  3  0  0  0  0  0  0
  187.3770  179.0010  137.2070 O   0  0  0  0  0  1  0  0  0  0  0  0
  191.7850  176.5190  137.7030 N   0  0  0  0  0  0  0  0  0  0  0  0
  186.8990  175.2820  137.2170 C   0  0  0  0  0  1  0  0  0  0  0  0
  187.6310  177.6730  137.5630 C   0  0  2  0  0  3  0  0  0  0  0  0
  193.1100  175.2010  135.5240 C   0  0  0  0  0  2  0  0  0  0  0  0
  183.4370  175.7160  136.5040 N   0  0  0  0  0  0  0  0  0  0  0  0
  184.5570  176.1630  135.7650 C   0  0  0  0  0  0  0  0  0  0  0  0
  185.4260  177.1670  136.4510 C   0  0  1  0  0  3  0  0  0  0  0  0
  182.2420  175.9600  138.5930 C   0  0  0  0  0  1  0  0  0  0  0  0
  184.7790  175.7550  134.5940 O   0  0  0  0  0  0  0  0  0  0  0  0
  184.5970  177.5090  138.0550 S   0  0  0  0  0  0  0  0  0  0  0  0
  183.3440  176.2920  137.6520 C   0  0  0  0  0  0  0  0  0  0  0  0
  189.2750  178.0040  139.9960 N   0  0  0  0  0  0  0  0  0  0  0  0
  188.3130  178.6110  142.0530 N   0  0  0  0  0  1  0  0  0  0  0  0
  188.6700  177.6400  141.0780 C   0  0  0  0  0  3  0  0  0  0  0  0
  3 15  1  0  0  0  0
  4  5  1  6  0  0  0
  4 13  1  0  0  0  0
  5 10  2  0  0  0  0
  6  5  1  0  0  0  0
  7 16  1  1  0  0  0
  7 17  1  0  0  0  0
  8 13  1  0  0  0  0
  8  1  2  0  0  0  0
  9  2  1  1  0  0  0
  9 18  1  0  0  0  0
  9 10  1  0  0  0  0
 10 15  1  0  0  0  0
 11  6  1  0  0  0  0
 11  7  1  0  0  0  0
 12  3  1  0  0  0  0
 13 26  1  1  0  0  0
 15  8  1  0  0  0  0
 17 14  1  6  0  0  0
 17  4  1  0  0  0  0
 18 12  1  0  0  0  0
 19 25  2  0  0  0  0
 20 19  1  0  0  0  0
 21 20  1  1  0  0  0
 21  7  1  0  0  0  0
 21 24  1  0  0  0  0
 23 20  2  0  0  0  0
 25 24  1  0  0  0  0
 25 22  1  0  0  0  0
 26 28  2  0  0  0  0
 28 27  1  0  0  0  0
M  END
>  <MODEL>
7

>  <REMARK>
 VINA RESULT:      -5.9      4.241      8.216
  Name = 
  2 active torsions:
  status: ('A' for Active; 'I' for Inactive)
    1  A    between atoms: C_8  and  C_14
    2  A    between atoms: N_16  and  C_19
                            x       y       z     vdW  Elec       q    Type
                         _______ _______ _______ _____ _____    ______ ____

>  <TORSDO>
F 2

$$$$
=
 OpenBabel11032420083D

 28 31  0  0  1  0  0  0  0  0999 V2000
  189.0440  176.0080  143.5980 O   0  0  0  0  0  0  0  0  0  0  0  0
  187.4780  177.1730  138.3640 N   0  0  0  0  0  1  0  0  0  0  0  0
  190.2470  176.8720  141.2330 C   0  0  0  0  0  2  0  0  0  0  0  0
  186.5220  178.3820  142.5700 C   0  0  2  0  0  3  0  0  0  0  0  0
  186.8320  178.4100  141.0870 C   0  0  0  0  0  0  0  0  0  0  0  0
  185.8430  179.0080  140.1110 C   0  0  0  0  0  2  0  0  0  0  0  0
  184.1400  178.8710  141.7260 C   0  0  1  0  0  0  0  0  0  0  0  0
  188.3380  176.7310  142.8420 C   0  0  0  0  0  0  0  0  0  0  0  0
  188.3840  177.9600  139.1840 C   0  0  1  0  0  3  0  0  0  0  0  0
  187.9860  177.8640  140.6480 C   0  0  0  0  0  0  0  0  0  0  0  0
  184.7480  179.6660  140.7200 O   0  0  0  0  0  0  0  0  0  0  0  0
  190.7360  177.7380  140.0840 C   0  0  0  0  0  2  0  0  0  0  0  0
  186.9180  177.0470  143.2180 C   0  0  1  0  0  3  0  0  0  0  0  0
  185.1540  180.0430  143.5850 O   0  0  0  0  0  1  0  0  0  0  0  0
  188.8630  177.1990  141.5880 N   0  0  0  0  0  0  0  0  0  0  0  0
  183.8180  177.4460  141.2340 C   0  0  0  0  0  1  0  0  0  0  0  0
  185.0940  178.8070  142.9340 C   0  0  2  0  0  3  0  0  0  0  0  0
  189.8180  177.5090  138.8980 C   0  0  0  0  0  2  0  0  0  0  0  0
  180.5550  178.6250  141.9010 N   0  0  0  0  0  0  0  0  0  0  0  0
  181.6620  179.2330  141.2640 C   0  0  0  0  0  0  0  0  0  0  0  0
  182.8190  179.5610  142.1500 C   0  0  1  0  0  3  0  0  0  0  0  0
  179.6940  177.8620  144.0290 C   0  0  0  0  0  1  0  0  0  0  0  0
  181.6470  179.5020  140.0340 O   0  0  0  0  0  0  0  0  0  0  0  0
  182.2810  179.0900  143.8440 S   0  0  0  0  0  0  0  0  0  0  0  0
  180.7320  178.4880  143.1690 C   0  0  0  0  0  0  0  0  0  0  0  0
  186.7970  177.1280  144.6680 N   0  0  0  0  0  0  0  0  0  0  0  0
  187.4520  177.9520  146.7700 N   0  0  0  0  0  1  0  0  0  0  0  0
  187.5830  177.8880  145.3560 C   0  0  0  0  0  3  0  0  0  0  0  0
  3 15  1  0  0  0  0
  4  5  1  6  0  0  0
  4 17  1  0  0  0  0
  4 13  1  0  0  0  0
  6 11  1  0  0  0  0
  6  5  1  0  0  0  0
  7 16  1  6  0  0  0
  7 21  1  0  0  0  0
  7 17  1  0  0  0  0
  8 13  1  0  0  0  0
  8  1  2  0  0  0  0
  9  2  1  6  0  0  0
  9 10  1  0  0  0  0
 10  5  2  0  0  0  0
 10 15  1  0  0  0  0
 11  7  1  0  0  0  0
 12  3  1  0  0  0  0
 13 26  1  1  0  0  0
 15  8  1  0  0  0  0
 17 14  1  6  0  0  0
 18  9  1  0  0  0  0
 18 12  1  0  0  0  0
 19 25  2  0  0  0  0
 20 19  1  0  0  0  0
 21 20  1  6  0  0  0
 21 24  1  0  0  0  0
 23 20  2  0  0  0  0
 25 24  1  0  0  0  0
 25 22  1  0  0  0  0
 26 28  2  0  0  0  0
 28 27  1  0  0  0  0
M  END
>  <MODEL>
8

>  <REMARK>
 VINA RESULT:      -5.9      3.500      7.276
  Name = 
  2 active torsions:
  status: ('A' for Active; 'I' for Inactive)
    1  A    between atoms: C_8  and  C_14
    2  A    between atoms: N_16  and  C_19
                            x       y       z     vdW  Elec       q    Type
                         _______ _______ _______ _____ _____    ______ ____

>  <TORSDO>
F 2

$$$$
=
 OpenBabel11032420083D

 28 31  0  0  1  0  0  0  0  0999 V2000
  188.4850  178.4090  141.7300 O   0  0  0  0  0  0  0  0  0  0  0  0
  187.4300  175.3610  137.1690 N   0  0  0  0  0  1  0  0  0  0  0  0
  189.8040  177.7050  139.3750 C   0  0  0  0  0  2  0  0  0  0  0  0
  185.7190  178.8210  139.4420 C   0  0  2  0  0  3  0  0  0  0  0  0
  186.2100  177.9160  138.3310 C   0  0  0  0  0  0  0  0  0  0  0  0
  185.2640  177.4570  137.2440 C   0  0  0  0  0  2  0  0  0  0  0  0
  183.4190  178.0570  138.5720 C   0  0  1  0  0  0  0  0  0  0  0  0
  187.7610  178.2510  140.7080 C   0  0  0  0  0  0  0  0  0  0  0  0
  188.0560  176.6730  137.1990 C   0  0  1  0  0  3  0  0  0  0  0  0
  187.4950  177.4970  138.3450 C   0  0  0  0  0  0  0  0  0  0  0  0
  183.9940  178.0810  137.2750 O   0  0  0  0  0  0  0  0  0  0  0  0
  190.2690  177.6550  137.9290 C   0  0  0  0  0  2  0  0  0  0  0  0
  186.2700  178.4040  140.8140 C   0  0  1  0  0  3  0  0  0  0  0  0
  183.9420  180.3630  139.0930 O   0  0  0  0  0  1  0  0  0  0  0  0
  188.3500  177.8590  139.4560 N   0  0  0  0  0  0  0  0  0  0  0  0
  183.4390  176.6490  139.1970 C   0  0  0  0  0  1  0  0  0  0  0  0
  184.2010  179.0400  139.4650 C   0  0  2  0  0  3  0  0  0  0  0  0
  189.5740  176.4880  137.2510 C   0  0  0  0  0  2  0  0  0  0  0  0
  179.9510  177.1490  138.8670 N   0  0  0  0  0  0  0  0  0  0  0  0
  181.0140  177.4610  137.9870 C   0  0  0  0  0  0  0  0  0  0  0  0
  181.9480  178.5290  138.4550 C   0  0  1  0  0  3  0  0  0  0  0  0
  178.9330  177.7100  140.9870 C   0  0  0  0  0  1  0  0  0  0  0  0
  181.1350  176.8880  136.8720 O   0  0  0  0  0  0  0  0  0  0  0  0
  181.2560  179.1120  140.0550 S   0  0  0  0  0  0  0  0  0  0  0  0
  179.9580  177.8810  139.9260 C   0  0  0  0  0  0  0  0  0  0  0  0
  185.9460  179.4070  141.8210 N   0  0  0  0  0  0  0  0  0  0  0  0
  184.9300  180.0910  143.8270 N   0  0  0  0  0  1  0  0  0  0  0  0
  185.2370  179.1000  142.8560 C   0  0  0  0  0  3  0  0  0  0  0  0
  3 15  1  0  0  0  0
  4  5  1  6  0  0  0
  4 17  1  0  0  0  0
  4 13  1  0  0  0  0
  5 10  2  0  0  0  0
  6 11  1  0  0  0  0
  6  5  1  0  0  0  0
  7 16  1  1  0  0  0
  7 17  1  0  0  0  0
  8 13  1  0  0  0  0
  8  1  2  0  0  0  0
  9  2  1  1  0  0  0
  9 18  1  0  0  0  0
  9 10  1  0  0  0  0
 10 15  1  0  0  0  0
 11  7  1  0  0  0  0
 12  3  1  0  0  0  0
 13 26  1  1  0  0  0
 15  8  1  0  0  0  0
 17 14  1  6  0  0  0
 18 12  1  0  0  0  0
 19 25  2  0  0  0  0
 20 19  1  0  0  0  0
 21 20  1  1  0  0  0
 21  7  1  0  0  0  0
 21 24  1  0  0  0  0
 23 20  2  0  0  0  0
 25 24  1  0  0  0  0
 25 22  1  0  0  0  0
 26 28  2  0  0  0  0
 28 27  1  0  0  0  0
M  END
>  <MODEL>
9

>  <REMARK>
 VINA RESULT:      -5.9      4.790      8.175
  Name = 
  2 active torsions:
  status: ('A' for Active; 'I' for Inactive)
    1  A    between atoms: C_8  and  C_14
    2  A    between atoms: N_16  and  C_19
                            x       y       z     vdW  Elec       q    Type
                         _______ _______ _______ _____ _____    ______ ____

>  <TORSDO>
F 2

$$$$
