=
 OpenBabel11032421093D

 50 56  0  0  1  0  0  0  0  0999 V2000
  188.7270  177.9610  140.7090 C   0  0  0  0  0  0  0  0  0  0  0  0
  185.8100  178.6000  140.9200 C   0  0  0  0  0  2  0  0  0  0  0  0
  185.8880  178.2620  143.1010 C   0  0  0  0  0  0  0  0  0  0  0  0
  187.9480  177.8480  141.8830 C   0  0  0  0  0  0  0  0  0  0  0  0
  186.5890  178.2210  141.9260 C   0  0  0  0  0  0  0  0  0  0  0  0
  184.6380  178.6410  142.9250 C   0  0  0  0  0  2  0  0  0  0  0  0
  190.0400  177.4730  140.6880 C   0  0  0  0  0  0  0  0  0  0  0  0
  188.5470  177.4000  143.0970 C   0  0  0  0  0  0  0  0  0  0  0  0
  188.4680  177.4450  145.5450 O   0  0  0  0  0  1  0  0  0  0  0  0
  184.4500  178.9120  141.4640 C   0  0  2  0  0  3  0  0  0  0  0  0
  187.8350  177.5900  144.3180 C   0  0  0  0  0  0  0  0  0  0  0  0
  189.8620  176.8620  143.0430 C   0  0  0  0  0  0  0  0  0  0  0  0
  186.4940  177.9850  144.3150 C   0  0  0  0  0  3  0  0  0  0  0  0
  190.5800  176.9140  141.8480 C   0  0  0  0  0  3  0  0  0  0  0  0
  190.4800  176.1860  144.1440 N   0  0  0  0  0  2  0  0  0  0  0  0
  191.9460  176.0080  146.1960 C   0  0  0  0  0  1  0  0  0  0  0  0
  191.3990  176.7950  145.0590 C   0  0  0  0  0  0  0  0  0  0  0  0
  191.7630  177.9930  144.9060 O   0  0  0  0  0  0  0  0  0  0  0  0
  188.2380  178.6860  139.6100 O   0  0  0  0  0  0  0  0  0  0  0  0
  186.3370  177.4990  136.9050 C   0  0  2  0  0  3  0  0  0  0  0  0
  187.5620  179.5110  136.4510 O   0  0  0  0  0  1  0  0  0  0  0  0
  187.0690  178.6970  137.4670 C   0  0  2  0  0  3  0  0  0  0  0  0
  184.8510  177.6480  137.1750 C   0  0  0  0  0  1  0  0  0  0  0  0
  186.8530  176.3790  137.6390 N   0  0  0  0  0  2  0  0  0  0  0  0
  188.2200  178.1210  138.2910 C   0  0  2  0  0  3  0  0  0  0  0  0
  187.8580  176.6780  138.3680 C   0  0  0  0  0  2  0  0  0  0  0  0
  183.4230  177.9360  140.8830 C   0  0  0  0  0  2  0  0  0  0  0  0
  181.0860  177.6510  140.5370 N   0  0  0  0  0  2  0  0  0  0  0  0
  182.2200  179.0320  139.1080 C   0  0  0  0  0  2  0  0  0  0  0  0
  182.1500  178.5730  140.4880 N   0  0  0  0  0  0  0  0  0  0  0  0
  180.7970  178.9510  138.6410 C   0  0  2  0  0  3  0  0  0  0  0  0
  180.1270  178.0640  139.5870 N   0  0  0  0  0  2  0  0  0  0  0  0
  180.7050  178.3870  137.2510 C   0  0  0  0  0  0  0  0  0  0  0  0
  180.9970  177.1390  137.0760 N   0  0  0  0  0  0  0  0  0  0  0  0
  180.9160  180.5730  136.3250 O   0  0  0  0  0  1  0  0  0  0  0  0
  180.3920  179.2990  136.0910 C   0  0  0  0  0  2  0  0  0  0  0  0
  181.0510  176.5200  135.7720 C   0  0  0  0  0  2  0  0  0  0  0  0
  182.2550  174.9570  137.2490 C   0  0  0  0  0  2  0  0  0  0  0  0
  181.7400  175.1640  135.8580 C   0  0  2  0  0  3  0  0  0  0  0  0
  184.0330  174.4340  135.7330 N   0  0  0  0  0  2  0  0  0  0  0  0
  183.4940  174.1240  137.0520 C   0  0  0  0  0  2  0  0  0  0  0  0
  182.9980  175.1740  135.0170 C   0  0  0  0  0  2  0  0  0  0  0  0
  190.8080  177.5800  139.4850 N   0  0  0  0  0  2  0  0  0  0  0  0
  190.8030  175.3020  138.8740 O   0  0  0  0  0  0  0  0  0  0  0  0
  191.4610  175.5360  136.7530 N   0  0  0  0  0  0  0  0  0  0  0  0
  190.8300  174.7960  137.5910 C   0  0  0  0  0  0  0  0  0  0  0  0
  191.5840  176.4860  138.9150 C   0  0  1  0  0  3  0  0  0  0  0  0
  191.8980  176.7480  137.4350 C   0  0  0  0  0  2  0  0  0  0  0  0
  188.9770  173.3710  136.8060 C   0  0  0  0  0  1  0  0  0  0  0  0
  190.3100  173.5400  137.2650 O   0  0  0  0  0  0  0  0  0  0  0  0
  1  4  1  0  0  0  0
  2 10  1  0  0  0  0
  2  5  1  0  0  0  0
  3 13  1  0  0  0  0
  4  5  1  0  0  0  0
  4  8  2  0  0  0  0
  5  3  2  0  0  0  0
  6  3  1  0  0  0  0
  7  1  2  0  0  0  0
  7 14  1  0  0  0  0
  8 11  1  0  0  0  0
 10 27  1  6  0  0  0
 10  6  1  0  0  0  0
 11  9  1  0  0  0  0
 12  8  1  0  0  0  0
 12 15  1  0  0  0  0
 13 11  2  0  0  0  0
 14 12  2  0  0  0  0
 15 17  1  0  0  0  0
 17 16  1  0  0  0  0
 18 17  2  0  0  0  0
 19  1  1  0  0  0  0
 20 23  1  1  0  0  0
 20 22  1  0  0  0  0
 20 24  1  0  0  0  0
 22 21  1  6  0  0  0
 22 25  1  0  0  0  0
 24 26  1  0  0  0  0
 25 26  1  0  0  0  0
 25 19  1  1  0  0  0
 29 30  1  0  0  0  0
 30 28  1  0  0  0  0
 30 27  1  0  0  0  0
 31 33  1  6  0  0  0
 31 29  1  0  0  0  0
 31 32  1  0  0  0  0
 32 28  1  0  0  0  0
 34 33  2  0  0  0  0
 36 35  1  0  0  0  0
 36 33  1  0  0  0  0
 37 34  1  0  0  0  0
 39 37  1  1  0  0  0
 39 38  1  0  0  0  0
 40 41  1  0  0  0  0
 41 38  1  0  0  0  0
 42 40  1  0  0  0  0
 42 39  1  0  0  0  0
 43  7  1  0  0  0  0
 44 47  1  0  0  0  0
 45 48  1  0  0  0  0
 45 46  2  0  0  0  0
 46 44  1  0  0  0  0
 47 43  1  6  0  0  0
 48 47  1  0  0  0  0
 49 50  1  0  0  0  0
 50 46  1  0  0  0  0
M  END
>  <MODEL>
1

>  <REMARK>
 VINA RESULT:      -8.2      0.000      0.000
  Name = 
  12 active torsions:
  status: ('A' for Active; 'I' for Inactive)
    1  A    between atoms: C_1  and  O_10
    2  A    between atoms: N_2  and  C_39
    3  A    between atoms: CA_3  and  C_37
    4  A    between atoms: CA_3  and  C_46
    5  A    between atoms: C_8  and  C_15
    6  A    between atoms: C_8  and  N_25
    7  A    between atoms: O_10  and  C_41
    8  A    between atoms: C_12  and  N_34
    9  A    between atoms: C_12  and  C_35
   10  A    between atoms: C_19  and  N_21
   11  A    between atoms: N_21  and  C_49
   12  A    between atoms: O_28  and  C_47
                            x       y       z     vdW  Elec       q    Type
                         _______ _______ _______ _____ _____    ______ ____

>  <TORSDO>
F 12

$$$$
=
 OpenBabel11032421093D

 50 56  0  0  1  0  0  0  0  0999 V2000
  188.7410  177.9790  141.0730 C   0  0  0  0  0  0  0  0  0  0  0  0
  185.8200  178.6240  141.1980 C   0  0  0  0  0  2  0  0  0  0  0  0
  185.8350  178.2890  143.3810 C   0  0  0  0  0  0  0  0  0  0  0  0
  187.9280  177.8700  142.2240 C   0  0  0  0  0  0  0  0  0  0  0  0
  186.5690  178.2450  142.2270 C   0  0  0  0  0  0  0  0  0  0  0  0
  184.5910  178.6710  143.1690 C   0  0  0  0  0  2  0  0  0  0  0  0
  190.0530  177.4890  141.0910 C   0  0  0  0  0  0  0  0  0  0  0  0
  188.4910  177.4230  143.4560 C   0  0  0  0  0  0  0  0  0  0  0  0
  188.3410  177.4730  145.9010 O   0  0  0  0  0  1  0  0  0  0  0  0
  184.4450  178.9390  141.7020 C   0  0  2  0  0  3  0  0  0  0  0  0
  187.7440  177.6160  144.6560 C   0  0  0  0  0  0  0  0  0  0  0  0
  189.8060  176.8830  143.4410 C   0  0  0  0  0  0  0  0  0  0  0  0
  186.4050  178.0130  144.6130 C   0  0  0  0  0  3  0  0  0  0  0  0
  190.5580  176.9320  142.2670 C   0  0  0  0  0  3  0  0  0  0  0  0
  190.3910  176.2080  144.5600 N   0  0  0  0  0  2  0  0  0  0  0  0
  191.9130  175.9870  146.5670 C   0  0  0  0  0  1  0  0  0  0  0  0
  191.4100  176.7620  145.4010 C   0  0  0  0  0  0  0  0  0  0  0  0
  191.8990  177.8990  145.1590 O   0  0  0  0  0  0  0  0  0  0  0  0
  188.2850  178.7030  139.9590 O   0  0  0  0  0  0  0  0  0  0  0  0
  186.7990  177.5430  136.9950 C   0  0  2  0  0  3  0  0  0  0  0  0
  187.9310  179.6470  136.7810 O   0  0  0  0  0  1  0  0  0  0  0  0
  187.3780  178.7530  137.6940 C   0  0  2  0  0  3  0  0  0  0  0  0
  185.2860  177.5850  137.0910 C   0  0  0  0  0  1  0  0  0  0  0  0
  187.3000  176.4200  137.7360 N   0  0  0  0  0  2  0  0  0  0  0  0
  188.4600  178.2070  138.6230 C   0  0  2  0  0  3  0  0  0  0  0  0
  188.1900  176.7420  138.5920 C   0  0  0  0  0  2  0  0  0  0  0  0
  183.4340  177.9630  141.0930 C   0  0  0  0  0  2  0  0  0  0  0  0
  183.5440  179.5600  139.3320 N   0  0  0  0  0  2  0  0  0  0  0  0
  181.5870  178.4070  139.6130 C   0  0  0  0  0  2  0  0  0  0  0  0
  183.0360  178.3020  139.7110 N   0  0  0  0  0  0  0  0  0  0  0  0
  181.3840  179.4000  138.5070 C   0  0  2  0  0  3  0  0  0  0  0  0
  182.6590  180.0980  138.3730 N   0  0  0  0  0  2  0  0  0  0  0  0
  180.2930  180.3780  138.8390 C   0  0  0  0  0  0  0  0  0  0  0  0
  180.1260  181.3970  138.0600 N   0  0  0  0  0  0  0  0  0  0  0  0
  180.1510  180.8740  141.1670 O   0  0  0  0  0  1  0  0  0  0  0  0
  179.5040  180.2180  140.1150 C   0  0  0  0  0  2  0  0  0  0  0  0
  179.1840  182.4560  138.3420 C   0  0  0  0  0  2  0  0  0  0  0  0
  179.3880  183.1520  135.9860 C   0  0  0  0  0  2  0  0  0  0  0  0
  179.4160  183.6340  137.4040 C   0  0  2  0  0  3  0  0  0  0  0  0
  181.3440  184.5080  136.2510 N   0  0  0  0  0  2  0  0  0  0  0  0
  180.3520  184.0660  135.2780 C   0  0  0  0  0  2  0  0  0  0  0  0
  180.8290  184.1490  137.5700 C   0  0  0  0  0  2  0  0  0  0  0  0
  190.8550  177.5920  139.9100 N   0  0  0  0  0  2  0  0  0  0  0  0
  191.5030  176.1510  138.1590 O   0  0  0  0  0  0  0  0  0  0  0  0
  193.6420  176.7730  138.0050 N   0  0  0  0  0  0  0  0  0  0  0  0
  192.6410  176.2570  137.3870 C   0  0  0  0  0  0  0  0  0  0  0  0
  191.8040  176.5730  139.4790 C   0  0  1  0  0  3  0  0  0  0  0  0
  193.2160  177.1600  139.3450 C   0  0  0  0  0  2  0  0  0  0  0  0
  193.9630  175.5670  135.4230 C   0  0  0  0  0  1  0  0  0  0  0  0
  192.7220  175.7470  136.0890 O   0  0  0  0  0  0  0  0  0  0  0  0
  1  7  2  0  0  0  0
  1  4  1  0  0  0  0
  2 10  1  0  0  0  0
  2  5  1  0  0  0  0
  3 13  1  0  0  0  0
  4  5  1  0  0  0  0
  4  8  2  0  0  0  0
  5  3  2  0  0  0  0
  6  3  1  0  0  0  0
  7 14  1  0  0  0  0
  8 11  1  0  0  0  0
 10 27  1  6  0  0  0
 10  6  1  0  0  0  0
 11  9  1  0  0  0  0
 12  8  1  0  0  0  0
 12 15  1  0  0  0  0
 13 11  2  0  0  0  0
 14 12  2  0  0  0  0
 15 17  1  0  0  0  0
 17 16  1  0  0  0  0
 18 17  2  0  0  0  0
 19  1  1  0  0  0  0
 20 23  1  1  0  0  0
 20 22  1  0  0  0  0
 20 24  1  0  0  0  0
 22 21  1  6  0  0  0
 22 25  1  0  0  0  0
 24 26  1  0  0  0  0
 25 19  1  1  0  0  0
 26 25  1  0  0  0  0
 28 30  1  0  0  0  0
 29 30  1  0  0  0  0
 30 27  1  0  0  0  0
 31 33  1  1  0  0  0
 31 29  1  0  0  0  0
 32 31  1  0  0  0  0
 32 28  1  0  0  0  0
 33 36  1  0  0  0  0
 34 37  1  0  0  0  0
 34 33  2  0  0  0  0
 36 35  1  0  0  0  0
 38 39  1  0  0  0  0
 39 42  1  0  0  0  0
 39 37  1  1  0  0  0
 40 42  1  0  0  0  0
 41 38  1  0  0  0  0
 41 40  1  0  0  0  0
 43  7  1  0  0  0  0
 44 47  1  0  0  0  0
 45 48  1  0  0  0  0
 46 45  2  0  0  0  0
 46 44  1  0  0  0  0
 47 43  1  6  0  0  0
 48 47  1  0  0  0  0
 49 50  1  0  0  0  0
 50 46  1  0  0  0  0
M  END
>  <MODEL>
2

>  <REMARK>
 VINA RESULT:      -8.2      2.256      3.682
  Name = 
  12 active torsions:
  status: ('A' for Active; 'I' for Inactive)
    1  A    between atoms: C_1  and  O_10
    2  A    between atoms: N_2  and  C_39
    3  A    between atoms: CA_3  and  C_37
    4  A    between atoms: CA_3  and  C_46
    5  A    between atoms: C_8  and  C_15
    6  A    between atoms: C_8  and  N_25
    7  A    between atoms: O_10  and  C_41
    8  A    between atoms: C_12  and  N_34
    9  A    between atoms: C_12  and  C_35
   10  A    between atoms: C_19  and  N_21
   11  A    between atoms: N_21  and  C_49
   12  A    between atoms: O_28  and  C_47
                            x       y       z     vdW  Elec       q    Type
                         _______ _______ _______ _____ _____    ______ ____

>  <TORSDO>
F 12

$$$$
=
 OpenBabel11032421093D

 50 56  0  0  1  0  0  0  0  0999 V2000
  186.7990  178.5340  141.4100 C   0  0  0  0  0  0  0  0  0  0  0  0
  188.7870  177.6580  139.3500 C   0  0  0  0  0  2  0  0  0  0  0  0
  187.2300  177.7830  137.7880 C   0  0  0  0  0  0  0  0  0  0  0  0
  186.5040  178.2500  140.0570 C   0  0  0  0  0  0  0  0  0  0  0  0
  187.5000  177.8970  139.1250 C   0  0  0  0  0  0  0  0  0  0  0  0
  188.2980  177.4520  137.0890 C   0  0  0  0  0  2  0  0  0  0  0  0
  185.7610  178.7710  142.3200 C   0  0  0  0  0  0  0  0  0  0  0  0
  185.1660  178.3760  139.5770 C   0  0  0  0  0  0  0  0  0  0  0  0
  183.7300  178.7930  137.6370 O   0  0  0  0  0  1  0  0  0  0  0  0
  189.4460  177.3380  138.0440 C   0  0  2  0  0  3  0  0  0  0  0  0
  184.9480  178.3910  138.1670 C   0  0  0  0  0  0  0  0  0  0  0  0
  184.1230  178.5660  140.5240 C   0  0  0  0  0  0  0  0  0  0  0  0
  185.9730  178.0570  137.2780 C   0  0  0  0  0  3  0  0  0  0  0  0
  184.4400  178.7640  141.8680 C   0  0  0  0  0  3  0  0  0  0  0  0
  182.7330  178.4880  140.1880 N   0  0  0  0  0  2  0  0  0  0  0  0
  180.5640  177.3030  139.6590 C   0  0  0  0  0  1  0  0  0  0  0  0
  182.0210  177.2670  139.9560 C   0  0  0  0  0  0  0  0  0  0  0  0
  182.6170  176.1560  139.9880 O   0  0  0  0  0  0  0  0  0  0  0  0
  188.1310  178.7180  141.8130 O   0  0  0  0  0  0  0  0  0  0  0  0
  190.8850  176.9620  143.1080 C   0  0  2  0  0  3  0  0  0  0  0  0
  190.3720  178.9990  144.2670 O   0  0  0  0  0  1  0  0  0  0  0  0
  190.1750  178.2970  143.0800 C   0  0  2  0  0  3  0  0  0  0  0  0
  192.0560  176.9980  142.1440 C   0  0  0  0  0  1  0  0  0  0  0  0
  189.9060  176.0200  142.6450 N   0  0  0  0  0  2  0  0  0  0  0  0
  188.6940  177.9670  142.8990 C   0  0  2  0  0  3  0  0  0  0  0  0
  188.7370  176.5220  142.5410 C   0  0  0  0  0  2  0  0  0  0  0  0
  189.9640  175.8970  138.0650 C   0  0  0  0  0  2  0  0  0  0  0  0
  192.0480  176.9880  138.4230 N   0  0  0  0  0  2  0  0  0  0  0  0
  192.0850  174.8040  137.7410 C   0  0  0  0  0  2  0  0  0  0  0  0
  191.3540  175.7690  138.5500 N   0  0  0  0  0  0  0  0  0  0  0  0
  193.5030  175.2890  137.8170 C   0  0  2  0  0  3  0  0  0  0  0  0
  193.4150  176.6780  138.2570 N   0  0  0  0  0  2  0  0  0  0  0  0
  194.1830  175.2130  136.4790 C   0  0  0  0  0  0  0  0  0  0  0  0
  194.9330  174.1890  136.2310 N   0  0  0  0  0  0  0  0  0  0  0  0
  195.0550  177.3230  135.7940 O   0  0  0  0  0  1  0  0  0  0  0  0
  194.0730  176.3680  135.5150 C   0  0  0  0  0  2  0  0  0  0  0  0
  195.7210  174.0650  135.0260 C   0  0  0  0  0  2  0  0  0  0  0  0
  197.3050  172.9900  136.5790 C   0  0  0  0  0  2  0  0  0  0  0  0
  197.1920  173.8720  135.3740 C   0  0  2  0  0  3  0  0  0  0  0  0
  198.6950  174.9050  136.9510 N   0  0  0  0  0  2  0  0  0  0  0  0
  198.5420  173.4910  137.2750 C   0  0  0  0  0  2  0  0  0  0  0  0
  197.7830  175.1840  135.8440 C   0  0  0  0  0  2  0  0  0  0  0  0
  186.0780  179.0390  143.6900 N   0  0  0  0  0  2  0  0  0  0  0  0
  186.8080  178.0310  145.6940 O   0  0  0  0  0  0  0  0  0  0  0  0
  185.1520  178.7200  147.0230 N   0  0  0  0  0  0  0  0  0  0  0  0
  186.3730  178.3290  146.9680 C   0  0  0  0  0  0  0  0  0  0  0  0
  185.7170  178.1610  144.7960 C   0  0  1  0  0  3  0  0  0  0  0  0
  184.6230  178.7950  145.6660 C   0  0  0  0  0  2  0  0  0  0  0  0
  188.5790  178.0640  148.0380 C   0  0  0  0  0  1  0  0  0  0  0  0
  187.1620  178.1170  148.1030 O   0  0  0  0  0  0  0  0  0  0  0  0
  1 19  1  0  0  0  0
  1  7  1  0  0  0  0
  3  5  2  0  0  0  0
  4  1  2  0  0  0  0
  5  2  1  0  0  0  0
  5  4  1  0  0  0  0
  6  3  1  0  0  0  0
  6 10  1  0  0  0  0
  7 43  1  0  0  0  0
  8  4  1  0  0  0  0
  8 12  2  0  0  0  0
  9 11  1  0  0  0  0
 10 27  1  1  0  0  0
 10  2  1  0  0  0  0
 11  8  1  0  0  0  0
 12 14  1  0  0  0  0
 13  3  1  0  0  0  0
 13 11  2  0  0  0  0
 14  7  2  0  0  0  0
 15 12  1  0  0  0  0
 16 17  1  0  0  0  0
 17 18  2  0  0  0  0
 17 15  1  0  0  0  0
 20 23  1  6  0  0  0
 22 20  1  0  0  0  0
 22 21  1  1  0  0  0
 24 20  1  0  0  0  0
 25 19  1  6  0  0  0
 25 22  1  0  0  0  0
 26 24  1  0  0  0  0
 26 25  1  0  0  0  0
 27 30  1  0  0  0  0
 28 30  1  0  0  0  0
 29 31  1  0  0  0  0
 29 30  1  0  0  0  0
 31 33  1  6  0  0  0
 31 32  1  0  0  0  0
 32 28  1  0  0  0  0
 34 33  2  0  0  0  0
 36 35  1  0  0  0  0
 36 33  1  0  0  0  0
 37 34  1  0  0  0  0
 38 41  1  0  0  0  0
 39 37  1  1  0  0  0
 39 42  1  0  0  0  0
 39 38  1  0  0  0  0
 40 41  1  0  0  0  0
 42 40  1  0  0  0  0
 44 46  1  0  0  0  0
 46 45  2  0  0  0  0
 46 50  1  0  0  0  0
 47 43  1  6  0  0  0
 47 48  1  0  0  0  0
 47 44  1  0  0  0  0
 48 45  1  0  0  0  0
 49 50  1  0  0  0  0
M  END
>  <MODEL>
3

>  <REMARK>
 VINA RESULT:      -8.1      3.299     10.059
  Name = 
  12 active torsions:
  status: ('A' for Active; 'I' for Inactive)
    1  A    between atoms: C_1  and  O_10
    2  A    between atoms: N_2  and  C_39
    3  A    between atoms: CA_3  and  C_37
    4  A    between atoms: CA_3  and  C_46
    5  A    between atoms: C_8  and  C_15
    6  A    between atoms: C_8  and  N_25
    7  A    between atoms: O_10  and  C_41
    8  A    between atoms: C_12  and  N_34
    9  A    between atoms: C_12  and  C_35
   10  A    between atoms: C_19  and  N_21
   11  A    between atoms: N_21  and  C_49
   12  A    between atoms: O_28  and  C_47
                            x       y       z     vdW  Elec       q    Type
                         _______ _______ _______ _____ _____    ______ ____

>  <TORSDO>
F 12

$$$$
=
 OpenBabel11032421093D

 50 56  0  0  1  0  0  0  0  0999 V2000
  189.4620  177.3550  138.3020 C   0  0  0  0  0  0  0  0  0  0  0  0
  186.5610  178.0950  138.3080 C   0  0  0  0  0  2  0  0  0  0  0  0
  186.6950  178.6270  140.4470 C   0  0  0  0  0  0  0  0  0  0  0  0
  188.7140  177.7250  139.4430 C   0  0  0  0  0  0  0  0  0  0  0  0
  187.3620  178.1170  139.3660 C   0  0  0  0  0  0  0  0  0  0  0  0
  185.4460  178.9390  140.1630 C   0  0  0  0  0  2  0  0  0  0  0  0
  190.7660  176.8670  138.4460 C   0  0  0  0  0  0  0  0  0  0  0  0
  189.3410  177.7690  140.7240 C   0  0  0  0  0  0  0  0  0  0  0  0
  189.3310  178.7620  142.9630 O   0  0  0  0  0  1  0  0  0  0  0  0
  185.2210  178.6260  138.7150 C   0  0  2  0  0  3  0  0  0  0  0  0
  188.6660  178.4350  141.7900 C   0  0  0  0  0  0  0  0  0  0  0  0
  190.6460  177.2210  140.8560 C   0  0  0  0  0  0  0  0  0  0  0  0
  187.3310  178.8290  141.6600 C   0  0  0  0  0  3  0  0  0  0  0  0
  191.3310  176.7890  139.7210 C   0  0  0  0  0  3  0  0  0  0  0  0
  191.2850  177.0110  142.1200 N   0  0  0  0  0  2  0  0  0  0  0  0
  191.6790  175.8390  144.3250 C   0  0  0  0  0  1  0  0  0  0  0  0
  190.9130  175.9960  143.0610 C   0  0  0  0  0  0  0  0  0  0  0  0
  189.9300  175.2380  142.8350 O   0  0  0  0  0  0  0  0  0  0  0  0
  188.9520  177.6080  137.0180 O   0  0  0  0  0  0  0  0  0  0  0  0
  188.9240  174.2640  135.9430 C   0  0  2  0  0  3  0  0  0  0  0  0
  187.1320  174.8450  137.4270 O   0  0  0  0  0  1  0  0  0  0  0  0
  188.3890  175.2330  136.9730 C   0  0  2  0  0  3  0  0  0  0  0  0
  190.0850  173.4890  136.5400 C   0  0  0  0  0  1  0  0  0  0  0  0
  189.3970  175.0940  134.8720 N   0  0  0  0  0  2  0  0  0  0  0  0
  188.3020  176.5800  136.2570 C   0  0  2  0  0  3  0  0  0  0  0  0
  189.0680  176.3200  135.0060 C   0  0  0  0  0  2  0  0  0  0  0  0
  184.1650  177.5250  138.5800 C   0  0  0  0  0  2  0  0  0  0  0  0
  182.7380  179.4250  138.7040 N   0  0  0  0  0  2  0  0  0  0  0  0
  182.1480  177.5620  139.8950 C   0  0  0  0  0  2  0  0  0  0  0  0
  182.7740  178.0180  138.6620 N   0  0  0  0  0  0  0  0  0  0  0  0
  181.1490  178.6400  140.1960 C   0  0  2  0  0  3  0  0  0  0  0  0
  181.5730  179.7940  139.4110 N   0  0  0  0  0  2  0  0  0  0  0  0
  181.1370  178.9870  141.6580 C   0  0  0  0  0  0  0  0  0  0  0  0
  182.1980  178.7390  142.3540 N   0  0  0  0  0  0  0  0  0  0  0  0
  179.7530  180.8780  142.0990 O   0  0  0  0  0  1  0  0  0  0  0  0
  179.8700  179.4990  142.2980 C   0  0  0  0  0  2  0  0  0  0  0  0
  182.2610  178.9270  143.7860 C   0  0  0  0  0  2  0  0  0  0  0  0
  184.6290  178.2720  143.5920 C   0  0  0  0  0  2  0  0  0  0  0  0
  183.6860  179.2550  144.2140 C   0  0  2  0  0  3  0  0  0  0  0  0
  185.1620  178.4130  145.9230 N   0  0  0  0  0  2  0  0  0  0  0  0
  185.7330  178.1430  144.6090 C   0  0  0  0  0  2  0  0  0  0  0  0
  183.8450  179.0030  145.6980 C   0  0  0  0  0  2  0  0  0  0  0  0
  191.5020  176.4790  137.2800 N   0  0  0  0  0  2  0  0  0  0  0  0
  193.1920  174.9010  137.7430 O   0  0  0  0  0  0  0  0  0  0  0  0
  194.2050  174.9220  135.7540 N   0  0  0  0  0  0  0  0  0  0  0  0
  193.9760  174.2430  136.8190 C   0  0  0  0  0  0  0  0  0  0  0  0
  192.9350  176.2150  137.2720 C   0  0  1  0  0  3  0  0  0  0  0  0
  193.4790  176.1830  135.8370 C   0  0  0  0  0  2  0  0  0  0  0  0
  194.1080  171.8120  136.4270 C   0  0  0  0  0  1  0  0  0  0  0  0
  194.5530  172.9950  137.0720 O   0  0  0  0  0  0  0  0  0  0  0  0
  1  7  2  0  0  0  0
  1  4  1  0  0  0  0
  2 10  1  0  0  0  0
  2  5  1  0  0  0  0
  3 13  1  0  0  0  0
  4  8  2  0  0  0  0
  5  4  1  0  0  0  0
  5  3  2  0  0  0  0
  6  3  1  0  0  0  0
  7 14  1  0  0  0  0
  8 12  1  0  0  0  0
  8 11  1  0  0  0  0
 10 27  1  1  0  0  0
 10  6  1  0  0  0  0
 11  9  1  0  0  0  0
 12 15  1  0  0  0  0
 13 11  2  0  0  0  0
 14 12  2  0  0  0  0
 15 17  1  0  0  0  0
 17 16  1  0  0  0  0
 18 17  2  0  0  0  0
 19  1  1  0  0  0  0
 20 23  1  1  0  0  0
 20 22  1  0  0  0  0
 22 21  1  6  0  0  0
 24 26  1  0  0  0  0
 24 20  1  0  0  0  0
 25 22  1  0  0  0  0
 25 19  1  1  0  0  0
 26 25  1  0  0  0  0
 27 30  1  0  0  0  0
 28 32  1  0  0  0  0
 29 31  1  0  0  0  0
 30 28  1  0  0  0  0
 30 29  1  0  0  0  0
 31 33  1  1  0  0  0
 32 31  1  0  0  0  0
 33 36  1  0  0  0  0
 33 34  2  0  0  0  0
 34 37  1  0  0  0  0
 35 36  1  0  0  0  0
 38 39  1  0  0  0  0
 38 41  1  0  0  0  0
 39 37  1  6  0  0  0
 39 42  1  0  0  0  0
 41 40  1  0  0  0  0
 42 40  1  0  0  0  0
 43  7  1  0  0  0  0
 45 48  1  0  0  0  0
 45 46  2  0  0  0  0
 46 50  1  0  0  0  0
 46 44  1  0  0  0  0
 47 43  1  6  0  0  0
 47 44  1  0  0  0  0
 48 47  1  0  0  0  0
 49 50  1  0  0  0  0
M  END
>  <MODEL>
4

>  <REMARK>
 VINA RESULT:      -7.9      2.526      4.619
  Name = 
  12 active torsions:
  status: ('A' for Active; 'I' for Inactive)
    1  A    between atoms: C_1  and  O_10
    2  A    between atoms: N_2  and  C_39
    3  A    between atoms: CA_3  and  C_37
    4  A    between atoms: CA_3  and  C_46
    5  A    between atoms: C_8  and  C_15
    6  A    between atoms: C_8  and  N_25
    7  A    between atoms: O_10  and  C_41
    8  A    between atoms: C_12  and  N_34
    9  A    between atoms: C_12  and  C_35
   10  A    between atoms: C_19  and  N_21
   11  A    between atoms: N_21  and  C_49
   12  A    between atoms: O_28  and  C_47
                            x       y       z     vdW  Elec       q    Type
                         _______ _______ _______ _____ _____    ______ ____

>  <TORSDO>
F 12

$$$$
=
 OpenBabel11032421093D

 50 56  0  0  1  0  0  0  0  0999 V2000
  186.8380  178.6370  141.4390 C   0  0  0  0  0  0  0  0  0  0  0  0
  189.1880  177.8420  139.7620 C   0  0  0  0  0  2  0  0  0  0  0  0
  187.9010  177.8050  137.9680 C   0  0  0  0  0  0  0  0  0  0  0  0
  186.7860  178.2900  140.0690 C   0  0  0  0  0  0  0  0  0  0  0  0
  187.9420  177.9800  139.3250 C   0  0  0  0  0  0  0  0  0  0  0  0
  189.0880  177.5310  137.4630 C   0  0  0  0  0  2  0  0  0  0  0  0
  185.6530  178.8260  142.1600 C   0  0  0  0  0  0  0  0  0  0  0  0
  185.5390  178.3040  139.3760 C   0  0  0  0  0  0  0  0  0  0  0  0
  184.4130  178.5560  137.2150 O   0  0  0  0  0  1  0  0  0  0  0  0
  190.0710  177.5300  138.5930 C   0  0  2  0  0  3  0  0  0  0  0  0
  185.5530  178.2590  137.9510 C   0  0  0  0  0  0  0  0  0  0  0  0
  184.3460  178.4470  140.1360 C   0  0  0  0  0  0  0  0  0  0  0  0
  186.7280  177.9720  137.2510 C   0  0  0  0  0  3  0  0  0  0  0  0
  184.4260  178.7090  141.5030 C   0  0  0  0  0  3  0  0  0  0  0  0
  183.0370  178.2590  139.5850 N   0  0  0  0  0  2  0  0  0  0  0  0
  181.0060  176.9160  138.9050 C   0  0  0  0  0  1  0  0  0  0  0  0
  182.3880  176.9890  139.4490 C   0  0  0  0  0  0  0  0  0  0  0  0
  182.9800  175.9240  139.7740 O   0  0  0  0  0  0  0  0  0  0  0  0
  188.0720  178.9290  142.0420 O   0  0  0  0  0  0  0  0  0  0  0  0
  190.6620  176.9180  143.3010 C   0  0  2  0  0  3  0  0  0  0  0  0
  190.3840  179.0090  144.4430 O   0  0  0  0  0  1  0  0  0  0  0  0
  190.0900  178.3180  143.2710 C   0  0  2  0  0  3  0  0  0  0  0  0
  191.8100  176.8240  142.3130 C   0  0  0  0  0  1  0  0  0  0  0  0
  189.5830  176.0740  142.8720 N   0  0  0  0  0  2  0  0  0  0  0  0
  188.5800  178.1370  143.1250 C   0  0  2  0  0  3  0  0  0  0  0  0
  188.4690  176.6900  142.7860 C   0  0  0  0  0  2  0  0  0  0  0  0
  190.6720  176.1320  138.7580 C   0  0  0  0  0  2  0  0  0  0  0  0
  190.6070  174.0850  137.5450 N   0  0  0  0  0  2  0  0  0  0  0  0
  192.3810  175.4850  137.1900 C   0  0  0  0  0  2  0  0  0  0  0  0
  190.9550  175.4490  137.4790 N   0  0  0  0  0  0  0  0  0  0  0  0
  192.6050  174.2400  136.3840 C   0  0  2  0  0  3  0  0  0  0  0  0
  191.4470  173.3930  136.6470 N   0  0  0  0  0  2  0  0  0  0  0  0
  193.8660  173.5350  136.7990 C   0  0  0  0  0  0  0  0  0  0  0  0
  194.4280  173.8890  137.9090 N   0  0  0  0  0  0  0  0  0  0  0  0
  193.9210  171.2710  136.0540 O   0  0  0  0  0  1  0  0  0  0  0  0
  194.5030  172.5290  135.8730 C   0  0  0  0  0  2  0  0  0  0  0  0
  195.6980  173.3600  138.3500 C   0  0  0  0  0  2  0  0  0  0  0  0
  197.9040  173.3730  137.2490 C   0  0  0  0  0  2  0  0  0  0  0  0
  196.8390  174.2370  137.8500 C   0  0  2  0  0  3  0  0  0  0  0  0
  198.9730  174.8960  138.7570 N   0  0  0  0  0  2  0  0  0  0  0  0
  199.1780  174.1210  137.5390 C   0  0  0  0  0  2  0  0  0  0  0  0
  197.5370  174.8870  139.0260 C   0  0  0  0  0  2  0  0  0  0  0  0
  185.7240  179.1580  143.5510 N   0  0  0  0  0  2  0  0  0  0  0  0
  186.5910  178.1660  145.5070 O   0  0  0  0  0  0  0  0  0  0  0  0
  184.8930  178.6270  146.8810 N   0  0  0  0  0  0  0  0  0  0  0  0
  186.1480  178.3710  146.7970 C   0  0  0  0  0  0  0  0  0  0  0  0
  185.4770  178.2090  144.6290 C   0  0  1  0  0  3  0  0  0  0  0  0
  184.3370  178.6930  145.5350 C   0  0  0  0  0  2  0  0  0  0  0  0
  188.2950  177.6990  147.8060 C   0  0  0  0  0  1  0  0  0  0  0  0
  186.9730  178.2060  147.9130 O   0  0  0  0  0  0  0  0  0  0  0  0
  1 19  1  0  0  0  0
  1  7  1  0  0  0  0
  3  5  2  0  0  0  0
  4  1  2  0  0  0  0
  5  2  1  0  0  0  0
  5  4  1  0  0  0  0
  6  3  1  0  0  0  0
  6 10  1  0  0  0  0
  7 43  1  0  0  0  0
  8  4  1  0  0  0  0
  8 12  2  0  0  0  0
  9 11  1  0  0  0  0
 10 27  1  1  0  0  0
 10  2  1  0  0  0  0
 11  8  1  0  0  0  0
 12 14  1  0  0  0  0
 13 11  2  0  0  0  0
 13  3  1  0  0  0  0
 14  7  2  0  0  0  0
 15 12  1  0  0  0  0
 16 17  1  0  0  0  0
 17 15  1  0  0  0  0
 17 18  2  0  0  0  0
 20 23  1  6  0  0  0
 22 20  1  0  0  0  0
 22 21  1  1  0  0  0
 24 20  1  0  0  0  0
 25 19  1  6  0  0  0
 25 22  1  0  0  0  0
 26 24  1  0  0  0  0
 26 25  1  0  0  0  0
 29 30  1  0  0  0  0
 30 28  1  0  0  0  0
 30 27  1  0  0  0  0
 31 32  1  0  0  0  0
 31 33  1  1  0  0  0
 31 29  1  0  0  0  0
 32 28  1  0  0  0  0
 33 34  2  0  0  0  0
 34 37  1  0  0  0  0
 36 35  1  0  0  0  0
 36 33  1  0  0  0  0
 38 41  1  0  0  0  0
 38 39  1  0  0  0  0
 39 37  1  1  0  0  0
 39 42  1  0  0  0  0
 40 42  1  0  0  0  0
 41 40  1  0  0  0  0
 44 46  1  0  0  0  0
 46 45  2  0  0  0  0
 46 50  1  0  0  0  0
 47 43  1  6  0  0  0
 47 44  1  0  0  0  0
 47 48  1  0  0  0  0
 48 45  1  0  0  0  0
 49 50  1  0  0  0  0
M  END
>  <MODEL>
5

>  <REMARK>
 VINA RESULT:      -7.8      3.297     10.172
  Name = 
  12 active torsions:
  status: ('A' for Active; 'I' for Inactive)
    1  A    between atoms: C_1  and  O_10
    2  A    between atoms: N_2  and  C_39
    3  A    between atoms: CA_3  and  C_37
    4  A    between atoms: CA_3  and  C_46
    5  A    between atoms: C_8  and  C_15
    6  A    between atoms: C_8  and  N_25
    7  A    between atoms: O_10  and  C_41
    8  A    between atoms: C_12  and  N_34
    9  A    between atoms: C_12  and  C_35
   10  A    between atoms: C_19  and  N_21
   11  A    between atoms: N_21  and  C_49
   12  A    between atoms: O_28  and  C_47
                            x       y       z     vdW  Elec       q    Type
                         _______ _______ _______ _____ _____    ______ ____

>  <TORSDO>
F 12

$$$$
=
 OpenBabel11032421093D

 50 56  0  0  1  0  0  0  0  0999 V2000
  186.0620  176.5820  136.9300 C   0  0  0  0  0  0  0  0  0  0  0  0
  187.7890  177.9200  138.9770 C   0  0  0  0  0  2  0  0  0  0  0  0
  189.5510  176.8330  138.2090 C   0  0  0  0  0  0  0  0  0  0  0  0
  187.4270  176.2960  137.1620 C   0  0  0  0  0  0  0  0  0  0  0  0
  188.1970  177.0060  138.1060 C   0  0  0  0  0  0  0  0  0  0  0  0
  190.0830  177.5940  139.1450 C   0  0  0  0  0  2  0  0  0  0  0  0
  185.3140  175.7760  136.0640 C   0  0  0  0  0  0  0  0  0  0  0  0
  188.0890  175.2990  136.3870 C   0  0  0  0  0  0  0  0  0  0  0  0
  190.2240  174.5050  135.4840 O   0  0  0  0  0  1  0  0  0  0  0  0
  188.9770  178.4010  139.7530 C   0  0  2  0  0  3  0  0  0  0  0  0
  189.5140  175.2460  136.4190 C   0  0  0  0  0  0  0  0  0  0  0  0
  187.3020  174.4590  135.5530 C   0  0  0  0  0  0  0  0  0  0  0  0
  190.2400  175.9860  137.3570 C   0  0  0  0  0  3  0  0  0  0  0  0
  185.9390  174.7160  135.4040 C   0  0  0  0  0  3  0  0  0  0  0  0
  187.8180  173.2930  134.9010 N   0  0  0  0  0  2  0  0  0  0  0  0
  188.4180  170.8440  134.7170 C   0  0  0  0  0  1  0  0  0  0  0  0
  187.9070  171.9960  135.5050 C   0  0  0  0  0  0  0  0  0  0  0  0
  187.5680  171.8210  136.7070 O   0  0  0  0  0  0  0  0  0  0  0  0
  185.4930  177.7540  137.4540 O   0  0  0  0  0  0  0  0  0  0  0  0
  182.9960  179.3450  139.3460 C   0  0  2  0  0  3  0  0  0  0  0  0
  182.2740  177.3500  138.2270 O   0  0  0  0  0  1  0  0  0  0  0  0
  183.2600  178.3330  138.2540 C   0  0  2  0  0  3  0  0  0  0  0  0
  182.5960  180.6670  138.7190 C   0  0  0  0  0  1  0  0  0  0  0  0
  184.2560  179.4910  140.0190 N   0  0  0  0  0  2  0  0  0  0  0  0
  184.6160  177.7150  138.5900 C   0  0  2  0  0  3  0  0  0  0  0  0
  185.1250  178.6310  139.6490 C   0  0  0  0  0  2  0  0  0  0  0  0
  188.8140  178.0300  141.2300 C   0  0  0  0  0  2  0  0  0  0  0  0
  189.8840  176.1090  142.1390 N   0  0  0  0  0  2  0  0  0  0  0  0
  190.3070  178.1340  143.1170 C   0  0  0  0  0  2  0  0  0  0  0  0
  190.0390  177.4780  141.8450 N   0  0  0  0  0  0  0  0  0  0  0  0
  191.0210  177.0790  143.9090 C   0  0  2  0  0  3  0  0  0  0  0  0
  190.7190  175.8180  143.2400 N   0  0  0  0  0  2  0  0  0  0  0  0
  190.5390  177.0380  145.3310 C   0  0  0  0  0  0  0  0  0  0  0  0
  189.2820  177.2410  145.5570 N   0  0  0  0  0  0  0  0  0  0  0  0
  192.0610  175.5870  146.4540 O   0  0  0  0  0  1  0  0  0  0  0  0
  191.5320  176.8800  146.4560 C   0  0  0  0  0  2  0  0  0  0  0  0
  188.7280  177.3340  146.8890 C   0  0  0  0  0  2  0  0  0  0  0  0
  186.8130  177.8910  145.4400 C   0  0  0  0  0  2  0  0  0  0  0  0
  187.2120  177.4740  146.8220 C   0  0  2  0  0  3  0  0  0  0  0  0
  185.6880  179.3340  146.9860 N   0  0  0  0  0  2  0  0  0  0  0  0
  185.5840  178.7330  145.6610 C   0  0  0  0  0  2  0  0  0  0  0  0
  186.7670  178.6380  147.6810 C   0  0  0  0  0  2  0  0  0  0  0  0
  183.9280  176.0700  135.8550 N   0  0  0  0  0  2  0  0  0  0  0  0
  182.6410  174.2560  136.6370 O   0  0  0  0  0  0  0  0  0  0  0  0
  180.6240  175.0140  136.0500 N   0  0  0  0  0  0  0  0  0  0  0  0
  181.2770  174.2460  136.8440 C   0  0  0  0  0  0  0  0  0  0  0  0
  182.9260  175.0690  135.5110 C   0  0  1  0  0  3  0  0  0  0  0  0
  181.5740  175.7290  135.2050 C   0  0  0  0  0  2  0  0  0  0  0  0
  179.3900  173.6800  138.3280 C   0  0  0  0  0  1  0  0  0  0  0  0
  180.6610  173.3920  137.7640 O   0  0  0  0  0  0  0  0  0  0  0  0
  1  4  1  0  0  0  0
  1 19  1  0  0  0  0
  2 10  1  0  0  0  0
  3  6  1  0  0  0  0
  4  5  2  0  0  0  0
  5  3  1  0  0  0  0
  5  2  1  0  0  0  0
  6 10  1  0  0  0  0
  7  1  2  0  0  0  0
  8 11  2  0  0  0  0
  8  4  1  0  0  0  0
  9 11  1  0  0  0  0
 10 27  1  1  0  0  0
 11 13  1  0  0  0  0
 12  8  1  0  0  0  0
 13  3  2  0  0  0  0
 14 12  2  0  0  0  0
 14  7  1  0  0  0  0
 15 17  1  0  0  0  0
 15 12  1  0  0  0  0
 16 17  1  0  0  0  0
 17 18  2  0  0  0  0
 20 23  1  6  0  0  0
 20 24  1  0  0  0  0
 22 21  1  1  0  0  0
 22 25  1  0  0  0  0
 22 20  1  0  0  0  0
 25 19  1  6  0  0  0
 25 26  1  0  0  0  0
 26 24  1  0  0  0  0
 27 30  1  0  0  0  0
 28 32  1  0  0  0  0
 29 31  1  0  0  0  0
 30 28  1  0  0  0  0
 30 29  1  0  0  0  0
 31 33  1  1  0  0  0
 32 31  1  0  0  0  0
 33 34  2  0  0  0  0
 33 36  1  0  0  0  0
 34 37  1  0  0  0  0
 35 36  1  0  0  0  0
 38 41  1  0  0  0  0
 38 39  1  0  0  0  0
 39 37  1  6  0  0  0
 39 42  1  0  0  0  0
 40 42  1  0  0  0  0
 41 40  1  0  0  0  0
 43  7  1  0  0  0  0
 44 46  1  0  0  0  0
 45 46  2  0  0  0  0
 46 50  1  0  0  0  0
 47 43  1  1  0  0  0
 47 44  1  0  0  0  0
 48 47  1  0  0  0  0
 48 45  1  0  0  0  0
 50 49  1  0  0  0  0
M  END
>  <MODEL>
6

>  <REMARK>
 VINA RESULT:      -7.7      2.632      9.236
  Name = 
  12 active torsions:
  status: ('A' for Active; 'I' for Inactive)
    1  A    between atoms: C_1  and  O_10
    2  A    between atoms: N_2  and  C_39
    3  A    between atoms: CA_3  and  C_37
    4  A    between atoms: CA_3  and  C_46
    5  A    between atoms: C_8  and  C_15
    6  A    between atoms: C_8  and  N_25
    7  A    between atoms: O_10  and  C_41
    8  A    between atoms: C_12  and  N_34
    9  A    between atoms: C_12  and  C_35
   10  A    between atoms: C_19  and  N_21
   11  A    between atoms: N_21  and  C_49
   12  A    between atoms: O_28  and  C_47
                            x       y       z     vdW  Elec       q    Type
                         _______ _______ _______ _____ _____    ______ ____

>  <TORSDO>
F 12

$$$$
=
 OpenBabel11032421093D

 50 56  0  0  1  0  0  0  0  0999 V2000
  187.1400  178.5080  142.3860 C   0  0  0  0  0  0  0  0  0  0  0  0
  188.4730  178.2090  139.7210 C   0  0  0  0  0  2  0  0  0  0  0  0
  186.5120  178.3590  138.7170 C   0  0  0  0  0  0  0  0  0  0  0  0
  186.4720  178.3900  141.1450 C   0  0  0  0  0  0  0  0  0  0  0  0
  187.1650  178.3100  139.9200 C   0  0  0  0  0  0  0  0  0  0  0  0
  187.3400  178.2760  137.6950 C   0  0  0  0  0  2  0  0  0  0  0  0
  186.4120  178.4730  143.5810 C   0  0  0  0  0  0  0  0  0  0  0  0
  185.0470  178.4110  141.0970 C   0  0  0  0  0  0  0  0  0  0  0  0
  183.0610  178.9200  139.7550 O   0  0  0  0  0  1  0  0  0  0  0  0
  188.7290  178.1730  138.2460 C   0  0  2  0  0  3  0  0  0  0  0  0
  184.4110  178.6050  139.8350 C   0  0  0  0  0  0  0  0  0  0  0  0
  184.3290  178.3230  142.3210 C   0  0  0  0  0  0  0  0  0  0  0  0
  185.1410  178.5410  138.6450 C   0  0  0  0  0  3  0  0  0  0  0  0
  185.0210  178.3610  143.5310 C   0  0  0  0  0  3  0  0  0  0  0  0
  182.9130  178.1160  142.3880 N   0  0  0  0  0  2  0  0  0  0  0  0
  180.5360  178.7020  143.0190 C   0  0  0  0  0  1  0  0  0  0  0  0
  181.9940  178.9920  143.0530 C   0  0  0  0  0  0  0  0  0  0  0  0
  182.4080  180.0040  143.6800 O   0  0  0  0  0  0  0  0  0  0  0  0
  188.5130  178.8020  142.4170 O   0  0  0  0  0  0  0  0  0  0  0  0
  191.6010  177.1330  142.2800 C   0  0  2  0  0  3  0  0  0  0  0  0
  191.4730  178.8490  143.9510 O   0  0  0  0  0  1  0  0  0  0  0  0
  190.8870  178.3670  142.7840 C   0  0  2  0  0  3  0  0  0  0  0  0
  192.3480  177.4730  141.0040 C   0  0  0  0  0  1  0  0  0  0  0  0
  190.5520  176.1970  141.9920 N   0  0  0  0  0  2  0  0  0  0  0  0
  189.4500  177.9230  143.0560 C   0  0  2  0  0  3  0  0  0  0  0  0
  189.4070  176.5840  142.4060 C   0  0  0  0  0  2  0  0  0  0  0  0
  189.3420  176.8230  137.8610 C   0  0  0  0  0  2  0  0  0  0  0  0
  190.1680  176.2280  135.7100 N   0  0  0  0  0  2  0  0  0  0  0  0
  191.6580  176.3110  137.4450 C   0  0  0  0  0  2  0  0  0  0  0  0
  190.4580  176.9280  136.8980 N   0  0  0  0  0  0  0  0  0  0  0  0
  192.3930  175.8380  136.2250 C   0  0  2  0  0  3  0  0  0  0  0  0
  191.3980  175.8090  135.1580 N   0  0  0  0  0  2  0  0  0  0  0  0
  192.9720  174.4670  136.4290 C   0  0  0  0  0  0  0  0  0  0  0  0
  194.1010  174.3650  137.0530 N   0  0  0  0  0  0  0  0  0  0  0  0
  191.0900  173.0040  136.4620 O   0  0  0  0  0  1  0  0  0  0  0  0
  192.2980  173.2680  135.8100 C   0  0  0  0  0  2  0  0  0  0  0  0
  194.8030  173.1120  137.2080 C   0  0  0  0  0  2  0  0  0  0  0  0
  196.0830  174.0440  139.0970 C   0  0  0  0  0  2  0  0  0  0  0  0
  196.1970  173.3530  137.7730 C   0  0  2  0  0  3  0  0  0  0  0  0
  197.6980  175.2400  137.7930 N   0  0  0  0  0  2  0  0  0  0  0  0
  197.3180  174.9030  139.1600 C   0  0  0  0  0  2  0  0  0  0  0  0
  196.9300  174.3610  136.9140 C   0  0  0  0  0  2  0  0  0  0  0  0
  187.1070  178.5750  144.8280 N   0  0  0  0  0  2  0  0  0  0  0  0
  188.6630  177.1620  145.8980 O   0  0  0  0  0  0  0  0  0  0  0  0
  188.0080  177.4990  148.0060 N   0  0  0  0  0  0  0  0  0  0  0  0
  188.9800  177.1580  147.2410 C   0  0  0  0  0  0  0  0  0  0  0  0
  187.2840  177.4640  145.7550 C   0  0  1  0  0  3  0  0  0  0  0  0
  186.8650  177.8630  147.1770 C   0  0  0  0  0  2  0  0  0  0  0  0
  191.2940  176.3960  146.8550 C   0  0  0  0  0  1  0  0  0  0  0  0
  190.2160  176.7170  147.7220 O   0  0  0  0  0  0  0  0  0  0  0  0
  1 19  1  0  0  0  0
  1  7  1  0  0  0  0
  2  5  1  0  0  0  0
  3  5  2  0  0  0  0
  4  1  2  0  0  0  0
  5  4  1  0  0  0  0
  6 10  1  0  0  0  0
  6  3  1  0  0  0  0
  7 43  1  0  0  0  0
  8  4  1  0  0  0  0
  8 12  2  0  0  0  0
  9 11  1  0  0  0  0
 10 27  1  1  0  0  0
 10  2  1  0  0  0  0
 11  8  1  0  0  0  0
 12 15  1  0  0  0  0
 12 14  1  0  0  0  0
 13  3  1  0  0  0  0
 13 11  2  0  0  0  0
 14  7  2  0  0  0  0
 15 17  1  0  0  0  0
 16 17  1  0  0  0  0
 17 18  2  0  0  0  0
 20 23  1  6  0  0  0
 20 22  1  0  0  0  0
 22 25  1  0  0  0  0
 22 21  1  1  0  0  0
 24 20  1  0  0  0  0
 24 26  1  0  0  0  0
 25 19  1  6  0  0  0
 26 25  1  0  0  0  0
 28 30  1  0  0  0  0
 30 29  1  0  0  0  0
 30 27  1  0  0  0  0
 31 33  1  1  0  0  0
 31 29  1  0  0  0  0
 32 28  1  0  0  0  0
 32 31  1  0  0  0  0
 33 34  2  0  0  0  0
 34 37  1  0  0  0  0
 36 33  1  0  0  0  0
 36 35  1  0  0  0  0
 38 41  1  0  0  0  0
 39 37  1  6  0  0  0
 39 38  1  0  0  0  0
 40 41  1  0  0  0  0
 42 39  1  0  0  0  0
 42 40  1  0  0  0  0
 44 46  1  0  0  0  0
 46 50  1  0  0  0  0
 46 45  2  0  0  0  0
 47 43  1  6  0  0  0
 47 44  1  0  0  0  0
 47 48  1  0  0  0  0
 48 45  1  0  0  0  0
 49 50  1  0  0  0  0
M  END
>  <MODEL>
7

>  <REMARK>
 VINA RESULT:      -7.6      3.025      9.345
  Name = 
  12 active torsions:
  status: ('A' for Active; 'I' for Inactive)
    1  A    between atoms: C_1  and  O_10
    2  A    between atoms: N_2  and  C_39
    3  A    between atoms: CA_3  and  C_37
    4  A    between atoms: CA_3  and  C_46
    5  A    between atoms: C_8  and  C_15
    6  A    between atoms: C_8  and  N_25
    7  A    between atoms: O_10  and  C_41
    8  A    between atoms: C_12  and  N_34
    9  A    between atoms: C_12  and  C_35
   10  A    between atoms: C_19  and  N_21
   11  A    between atoms: N_21  and  C_49
   12  A    between atoms: O_28  and  C_47
                            x       y       z     vdW  Elec       q    Type
                         _______ _______ _______ _____ _____    ______ ____

>  <TORSDO>
F 12

$$$$
=
 OpenBabel11032421093D

 50 56  0  0  1  0  0  0  0  0999 V2000
  187.3550  177.5520  138.2910 C   0  0  0  0  0  0  0  0  0  0  0  0
  189.1100  177.0780  140.6700 C   0  0  0  0  0  2  0  0  0  0  0  0
  187.5390  177.8850  141.9960 C   0  0  0  0  0  0  0  0  0  0  0  0
  187.0620  177.9480  139.6160 C   0  0  0  0  0  0  0  0  0  0  0  0
  187.9080  177.6410  140.7010 C   0  0  0  0  0  0  0  0  0  0  0  0
  188.4670  177.5190  142.8580 C   0  0  0  0  0  2  0  0  0  0  0  0
  186.5400  177.9770  137.2350 C   0  0  0  0  0  0  0  0  0  0  0  0
  185.8430  178.6300  139.9030 C   0  0  0  0  0  0  0  0  0  0  0  0
  184.1350  179.1280  141.5880 O   0  0  0  0  0  1  0  0  0  0  0  0
  189.6060  176.9410  142.0770 C   0  0  2  0  0  3  0  0  0  0  0  0
  185.4280  178.7390  141.2640 C   0  0  0  0  0  0  0  0  0  0  0  0
  185.0570  179.0970  138.8150 C   0  0  0  0  0  0  0  0  0  0  0  0
  186.2920  178.4000  142.3090 C   0  0  0  0  0  3  0  0  0  0  0  0
  185.4160  178.7580  137.5100 C   0  0  0  0  0  3  0  0  0  0  0  0
  183.9380  179.9760  138.9730 N   0  0  0  0  0  2  0  0  0  0  0  0
  181.4920  180.6120  138.9040 C   0  0  0  0  0  1  0  0  0  0  0  0
  182.5830  179.6330  138.6550 C   0  0  0  0  0  0  0  0  0  0  0  0
  182.3030  178.5110  138.1530 O   0  0  0  0  0  0  0  0  0  0  0  0
  188.3780  176.6210  138.0480 O   0  0  0  0  0  0  0  0  0  0  0  0
  191.3780  175.5710  136.5520 C   0  0  2  0  0  3  0  0  0  0  0  0
  189.5930  175.9920  135.0070 O   0  0  0  0  0  1  0  0  0  0  0  0
  189.8900  175.7440  136.3440 C   0  0  2  0  0  3  0  0  0  0  0  0
  191.6720  174.1190  136.8800 C   0  0  0  0  0  1  0  0  0  0  0  0
  191.6860  176.3950  137.6860 N   0  0  0  0  0  2  0  0  0  0  0  0
  189.4960  176.9420  137.2070 C   0  0  2  0  0  3  0  0  0  0  0  0
  190.7130  177.1410  138.0430 C   0  0  0  0  0  2  0  0  0  0  0  0
  190.8590  177.8010  142.2690 C   0  0  0  0  0  2  0  0  0  0  0  0
  191.5950  175.8760  143.4590 N   0  0  0  0  0  2  0  0  0  0  0  0
  191.6270  177.8870  144.5500 C   0  0  0  0  0  2  0  0  0  0  0  0
  191.8150  177.2520  143.2530 N   0  0  0  0  0  0  0  0  0  0  0  0
  192.0530  176.8260  145.5220 C   0  0  2  0  0  3  0  0  0  0  0  0
  192.0160  175.5750  144.7720 N   0  0  0  0  0  2  0  0  0  0  0  0
  191.1210  176.7510  146.6980 C   0  0  0  0  0  0  0  0  0  0  0  0
  190.0530  177.4810  146.6800 N   0  0  0  0  0  0  0  0  0  0  0  0
  192.8830  175.9810  148.1070 O   0  0  0  0  0  1  0  0  0  0  0  0
  191.5000  175.9300  147.9050 C   0  0  0  0  0  2  0  0  0  0  0  0
  189.1450  177.5730  147.8010 C   0  0  0  0  0  2  0  0  0  0  0  0
  187.6260  177.8780  145.8830 C   0  0  0  0  0  2  0  0  0  0  0  0
  187.7020  177.4690  147.3220 C   0  0  2  0  0  3  0  0  0  0  0  0
  185.9010  179.0490  147.0610 N   0  0  0  0  0  2  0  0  0  0  0  0
  186.2600  178.4990  145.7590 C   0  0  0  0  0  2  0  0  0  0  0  0
  186.8530  178.5060  148.0260 C   0  0  0  0  0  2  0  0  0  0  0  0
  186.8640  177.5820  135.8970 N   0  0  0  0  0  2  0  0  0  0  0  0
  186.2780  175.3020  135.7540 O   0  0  0  0  0  0  0  0  0  0  0  0
  184.0600  175.5440  135.6570 N   0  0  0  0  0  0  0  0  0  0  0  0
  185.0280  174.7600  135.9690 C   0  0  0  0  0  0  0  0  0  0  0  0
  186.1270  176.5740  135.1450 C   0  0  1  0  0  3  0  0  0  0  0  0
  184.6140  176.8240  135.2300 C   0  0  0  0  0  2  0  0  0  0  0  0
  185.1800  173.0040  137.6930 C   0  0  0  0  0  1  0  0  0  0  0  0
  184.8400  173.4390  136.3860 O   0  0  0  0  0  0  0  0  0  0  0  0
  1  4  1  0  0  0  0
  2  5  1  0  0  0  0
  2 10  1  0  0  0  0
  3 13  1  0  0  0  0
  3  6  1  0  0  0  0
  4  8  2  0  0  0  0
  4  5  1  0  0  0  0
  5  3  2  0  0  0  0
  7 14  1  0  0  0  0
  7  1  2  0  0  0  0
  8 11  1  0  0  0  0
 10 27  1  6  0  0  0
 10  6  1  0  0  0  0
 11  9  1  0  0  0  0
 11 13  2  0  0  0  0
 12 15  1  0  0  0  0
 12  8  1  0  0  0  0
 14 12  2  0  0  0  0
 17 16  1  0  0  0  0
 17 15  1  0  0  0  0
 18 17  2  0  0  0  0
 19  1  1  0  0  0  0
 20 23  1  1  0  0  0
 20 24  1  0  0  0  0
 22 21  1  6  0  0  0
 22 20  1  0  0  0  0
 22 25  1  0  0  0  0
 24 26  1  0  0  0  0
 25 26  1  0  0  0  0
 25 19  1  1  0  0  0
 27 30  1  0  0  0  0
 28 32  1  0  0  0  0
 29 31  1  0  0  0  0
 30 28  1  0  0  0  0
 30 29  1  0  0  0  0
 31 33  1  1  0  0  0
 32 31  1  0  0  0  0
 33 36  1  0  0  0  0
 34 33  2  0  0  0  0
 34 37  1  0  0  0  0
 36 35  1  0  0  0  0
 38 39  1  0  0  0  0
 39 37  1  1  0  0  0
 39 42  1  0  0  0  0
 40 42  1  0  0  0  0
 41 38  1  0  0  0  0
 41 40  1  0  0  0  0
 43  7  1  0  0  0  0
 44 46  1  0  0  0  0
 45 46  2  0  0  0  0
 46 50  1  0  0  0  0
 47 48  1  0  0  0  0
 47 44  1  0  0  0  0
 47 43  1  1  0  0  0
 48 45  1  0  0  0  0
 50 49  1  0  0  0  0
M  END
>  <MODEL>
8

>  <REMARK>
 VINA RESULT:      -7.5      2.377      8.862
  Name = 
  12 active torsions:
  status: ('A' for Active; 'I' for Inactive)
    1  A    between atoms: C_1  and  O_10
    2  A    between atoms: N_2  and  C_39
    3  A    between atoms: CA_3  and  C_37
    4  A    between atoms: CA_3  and  C_46
    5  A    between atoms: C_8  and  C_15
    6  A    between atoms: C_8  and  N_25
    7  A    between atoms: O_10  and  C_41
    8  A    between atoms: C_12  and  N_34
    9  A    between atoms: C_12  and  C_35
   10  A    between atoms: C_19  and  N_21
   11  A    between atoms: N_21  and  C_49
   12  A    between atoms: O_28  and  C_47
                            x       y       z     vdW  Elec       q    Type
                         _______ _______ _______ _____ _____    ______ ____

>  <TORSDO>
F 12

$$$$
=
 OpenBabel11032421093D

 50 56  0  0  1  0  0  0  0  0999 V2000
  188.4850  178.0910  141.5020 C   0  0  0  0  0  0  0  0  0  0  0  0
  185.5410  178.5320  141.1820 C   0  0  0  0  0  2  0  0  0  0  0  0
  185.2700  178.3460  143.3660 C   0  0  0  0  0  0  0  0  0  0  0  0
  187.5270  178.0010  142.5370 C   0  0  0  0  0  0  0  0  0  0  0  0
  186.1610  178.2780  142.3280 C   0  0  0  0  0  0  0  0  0  0  0  0
  184.0480  178.6230  142.9580 C   0  0  0  0  0  2  0  0  0  0  0  0
  189.8090  177.6980  141.7350 C   0  0  0  0  0  0  0  0  0  0  0  0
  187.9380  177.6790  143.8640 C   0  0  0  0  0  0  0  0  0  0  0  0
  187.4450  177.8810  146.2560 O   0  0  0  0  0  1  0  0  0  0  0  0
  184.0920  178.7820  141.4690 C   0  0  2  0  0  3  0  0  0  0  0  0
  187.0200  177.8980  144.9340 C   0  0  0  0  0  0  0  0  0  0  0  0
  189.2730  177.2340  144.0690 C   0  0  0  0  0  0  0  0  0  0  0  0
  185.6780  178.1950  144.6800 C   0  0  0  0  0  3  0  0  0  0  0  0
  190.1770  177.2580  143.0080 C   0  0  0  0  0  3  0  0  0  0  0  0
  189.7360  176.6790  145.3050 N   0  0  0  0  0  2  0  0  0  0  0  0
  191.3340  176.4160  147.2460 C   0  0  0  0  0  1  0  0  0  0  0  0
  190.9750  177.0220  145.9370 C   0  0  0  0  0  0  0  0  0  0  0  0
  191.7770  177.8260  145.3890 O   0  0  0  0  0  0  0  0  0  0  0  0
  188.1460  178.7040  140.2850 O   0  0  0  0  0  0  0  0  0  0  0  0
  187.4880  177.9040  136.9280 C   0  0  2  0  0  3  0  0  0  0  0  0
  188.9910  179.7490  137.2330 O   0  0  0  0  0  1  0  0  0  0  0  0
  188.0250  178.9660  137.8610 C   0  0  2  0  0  3  0  0  0  0  0  0
  186.0560  178.2400  136.5580 C   0  0  0  0  0  1  0  0  0  0  0  0
  187.5170  176.6940  137.6990 N   0  0  0  0  0  2  0  0  0  0  0  0
  188.6410  178.2040  139.0340 C   0  0  2  0  0  3  0  0  0  0  0  0
  188.1340  176.8210  138.8090 C   0  0  0  0  0  2  0  0  0  0  0  0
  183.2390  177.6980  140.8050 C   0  0  0  0  0  2  0  0  0  0  0  0
  181.1360  177.5320  139.7030 N   0  0  0  0  0  2  0  0  0  0  0  0
  182.9880  177.9390  138.4220 C   0  0  0  0  0  2  0  0  0  0  0  0
  182.3750  178.2010  139.7170 N   0  0  0  0  0  0  0  0  0  0  0  0
  181.8110  177.7970  137.5030 C   0  0  2  0  0  3  0  0  0  0  0  0
  180.6660  177.5440  138.3720 N   0  0  0  0  0  2  0  0  0  0  0  0
  181.9950  176.6540  136.5450 C   0  0  0  0  0  0  0  0  0  0  0  0
  182.7070  175.6440  136.9280 N   0  0  0  0  0  0  0  0  0  0  0  0
  181.2050  178.0930  134.8170 O   0  0  0  0  0  1  0  0  0  0  0  0
  181.4540  176.7560  135.1410 C   0  0  0  0  0  2  0  0  0  0  0  0
  183.0430  174.5430  136.0540 C   0  0  0  0  0  2  0  0  0  0  0  0
  184.0310  172.3010  136.3230 C   0  0  0  0  0  2  0  0  0  0  0  0
  182.9570  173.2230  136.8110 C   0  0  2  0  0  3  0  0  0  0  0  0
  181.9740  171.0740  136.3350 N   0  0  0  0  0  2  0  0  0  0  0  0
  183.4190  170.9320  136.4650 C   0  0  0  0  0  2  0  0  0  0  0  0
  181.6800  172.5010  136.4380 C   0  0  0  0  0  2  0  0  0  0  0  0
  190.7610  177.7780  140.6690 N   0  0  0  0  0  2  0  0  0  0  0  0
  191.4420  176.1360  139.1200 O   0  0  0  0  0  0  0  0  0  0  0  0
  193.5610  176.7930  138.8650 N   0  0  0  0  0  0  0  0  0  0  0  0
  192.5730  176.1700  138.3310 C   0  0  0  0  0  0  0  0  0  0  0  0
  191.7370  176.7390  140.3690 C   0  0  1  0  0  3  0  0  0  0  0  0
  193.1310  177.3430  140.1450 C   0  0  0  0  0  2  0  0  0  0  0  0
  191.6920  175.6520  136.0870 C   0  0  0  0  0  1  0  0  0  0  0  0
  192.6620  175.4940  137.1110 O   0  0  0  0  0  0  0  0  0  0  0  0
  1  7  2  0  0  0  0
  1  4  1  0  0  0  0
  2 10  1  0  0  0  0
  2  5  1  0  0  0  0
  3 13  1  0  0  0  0
  4  8  2  0  0  0  0
  5  4  1  0  0  0  0
  5  3  2  0  0  0  0
  6  3  1  0  0  0  0
  7 14  1  0  0  0  0
  8 12  1  0  0  0  0
  8 11  1  0  0  0  0
 10 27  1  6  0  0  0
 10  6  1  0  0  0  0
 11  9  1  0  0  0  0
 12 15  1  0  0  0  0
 13 11  2  0  0  0  0
 14 12  2  0  0  0  0
 15 17  1  0  0  0  0
 17 16  1  0  0  0  0
 18 17  2  0  0  0  0
 19  1  1  0  0  0  0
 20 23  1  1  0  0  0
 20 24  1  0  0  0  0
 20 22  1  0  0  0  0
 22 21  1  6  0  0  0
 22 25  1  0  0  0  0
 24 26  1  0  0  0  0
 25 19  1  1  0  0  0
 26 25  1  0  0  0  0
 28 30  1  0  0  0  0
 29 30  1  0  0  0  0
 30 27  1  0  0  0  0
 31 33  1  6  0  0  0
 31 32  1  0  0  0  0
 31 29  1  0  0  0  0
 32 28  1  0  0  0  0
 33 34  2  0  0  0  0
 35 36  1  0  0  0  0
 36 33  1  0  0  0  0
 37 34  1  0  0  0  0
 38 41  1  0  0  0  0
 38 39  1  0  0  0  0
 39 37  1  6  0  0  0
 40 42  1  0  0  0  0
 40 41  1  0  0  0  0
 42 39  1  0  0  0  0
 43  7  1  0  0  0  0
 44 47  1  0  0  0  0
 45 48  1  0  0  0  0
 46 45  2  0  0  0  0
 46 44  1  0  0  0  0
 47 43  1  6  0  0  0
 48 47  1  0  0  0  0
 49 50  1  0  0  0  0
 50 46  1  0  0  0  0
M  END
>  <MODEL>
9

>  <REMARK>
 VINA RESULT:      -7.5      1.502      1.889
  Name = 
  12 active torsions:
  status: ('A' for Active; 'I' for Inactive)
    1  A    between atoms: C_1  and  O_10
    2  A    between atoms: N_2  and  C_39
    3  A    between atoms: CA_3  and  C_37
    4  A    between atoms: CA_3  and  C_46
    5  A    between atoms: C_8  and  C_15
    6  A    between atoms: C_8  and  N_25
    7  A    between atoms: O_10  and  C_41
    8  A    between atoms: C_12  and  N_34
    9  A    between atoms: C_12  and  C_35
   10  A    between atoms: C_19  and  N_21
   11  A    between atoms: N_21  and  C_49
   12  A    between atoms: O_28  and  C_47
                            x       y       z     vdW  Elec       q    Type
                         _______ _______ _______ _____ _____    ______ ____

>  <TORSDO>
F 12

$$$$
