=
 OpenBabel11042412533D

 43 48  0  0  1  0  0  0  0  0999 V2000
  187.4060  177.5740  144.4150 C   0  0  0  0  0  0  0  0  0  0  0  0
  183.4070  178.9290  143.8070 C   0  0  0  0  0  0  0  0  0  0  0  0
  187.9700  177.6490  145.7280 C   0  0  0  0  0  0  0  0  0  0  0  0
  184.0070  178.9790  145.0770 C   0  0  0  0  0  3  0  0  0  0  0  0
  185.8910  178.6480  146.5350 C   0  0  0  0  0  3  0  0  0  0  0  0
  191.0340  176.8770  147.7560 O   0  0  0  0  0  1  0  0  0  0  0  0
  186.0780  178.0430  144.1950 C   0  0  0  0  0  0  0  0  0  0  0  0
  189.7600  177.3080  147.3860 C   0  0  0  0  0  0  0  0  0  0  0  0
  184.1540  178.4610  142.7300 C   0  0  0  0  0  3  0  0  0  0  0  0
  189.2800  177.1650  146.0570 C   0  0  0  0  0  0  0  0  0  0  0  0
  187.1850  178.2100  146.7730 C   0  0  0  0  0  0  0  0  0  0  0  0
  185.3240  178.5580  145.2700 C   0  0  0  0  0  0  0  0  0  0  0  0
  187.6850  178.3310  148.0660 C   0  0  0  0  0  3  0  0  0  0  0  0
  185.4760  178.0280  142.9220 C   0  0  0  0  0  3  0  0  0  0  0  0
  188.9610  177.8860  148.3670 C   0  0  0  0  0  3  0  0  0  0  0  0
  182.0260  179.2360  143.5980 N   0  0  0  0  0  0  0  0  0  0  0  0
  181.3210  178.9880  142.5330 C   0  0  0  0  0  0  0  0  0  0  0  0
  179.9090  179.4400  142.5110 C   0  0  0  0  0  0  0  0  0  0  0  0
  178.9580  178.6200  142.5710 O   0  0  0  0  0  1  0  0  0  0  0  0
  179.6330  180.7980  142.4310 O   0  0  0  0  0  0  0  0  0  0  0  0
  181.8820  178.2580  141.4720 O   0  0  0  0  0  0  0  0  0  0  0  0
  182.7440  176.5130  139.5020 C   0  0  0  0  0  2  0  0  0  0  0  0
  182.5240  176.1790  137.1320 O   0  0  0  0  0  0  0  0  0  0  0  0
  182.3220  178.4710  137.8070 C   0  0  0  0  0  2  0  0  0  0  0  0
  181.9030  178.7160  140.1700 N   0  0  0  0  0  0  0  0  0  0  0  0
  182.3560  177.9510  139.2150 C   0  0  0  0  0  0  0  0  0  0  0  0
  182.9590  177.4900  136.8510 C   0  0  0  0  0  2  0  0  0  0  0  0
  183.2640  175.7950  138.2660 C   0  0  0  0  0  2  0  0  0  0  0  0
  191.3560  176.8720  144.6670 C   0  0  0  0  0  2  0  0  0  0  0  0
  190.1280  176.5100  145.0210 C   0  0  0  0  0  3  0  0  0  0  0  0
  188.1890  177.0580  143.3610 O   0  0  0  0  0  0  0  0  0  0  0  0
  189.3950  178.6520  142.0400 C   0  0  0  0  0  2  0  0  0  0  0  0
  188.2860  177.6190  142.0590 C   0  0  1  0  0  3  0  0  0  0  0  0
  189.6450  177.2620  141.4710 C   0  0  1  0  0  3  0  0  0  0  0  0
  189.5530  177.2490  139.9750 C   0  0  0  0  0  0  0  0  0  0  0  0
  189.4810  177.3680  137.1670 C   0  0  0  0  0  3  0  0  0  0  0  0
  188.3800  177.8210  137.9160 C   0  0  0  0  0  0  0  0  0  0  0  0
  190.6130  176.8630  137.8160 C   0  0  0  0  0  3  0  0  0  0  0  0
  190.6500  176.8080  139.2160 C   0  0  0  0  0  3  0  0  0  0  0  0
  188.4270  177.7660  139.3190 C   0  0  0  0  0  3  0  0  0  0  0  0
  186.0760  178.7490  137.9950 O   0  0  0  0  0  1  0  0  0  0  0  0
  187.1860  178.5430  135.9900 O   0  0  0  0  0  0  0  0  0  0  0  0
  187.1940  178.3750  137.2420 C   0  0  0  0  0  0  0  0  0  0  0  0
  1  3  1  0  0  0  0
  2  4  2  0  0  0  0
  3 10  2  0  0  0  0
  3 11  1  0  0  0  0
  4 12  1  0  0  0  0
  5 11  1  0  0  0  0
  7  1  2  0  0  0  0
  7 12  1  0  0  0  0
  8  6  1  0  0  0  0
  8 15  2  0  0  0  0
  9 14  2  0  0  0  0
  9  2  1  0  0  0  0
 10  8  1  0  0  0  0
 11 13  2  0  0  0  0
 12  5  2  0  0  0  0
 13 15  1  0  0  0  0
 14  7  1  0  0  0  0
 16  2  1  0  0  0  0
 17 16  2  0  0  0  0
 18 17  1  0  0  0  0
 18 19  1  0  0  0  0
 20 18  2  0  0  0  0
 21 17  1  0  0  0  0
 23 28  1  0  0  0  0
 24 26  1  0  0  0  0
 25 21  1  0  0  0  0
 26 22  1  0  0  0  0
 26 25  2  0  0  0  0
 27 23  1  0  0  0  0
 27 24  1  0  0  0  0
 28 22  1  0  0  0  0
 29 30  2  0  0  0  0
 30 10  1  0  0  0  0
 31  1  1  0  0  0  0
 32 33  1  0  0  0  0
 33 31  1  1  0  0  0
 34 35  1  6  0  0  0
 34 32  1  0  0  0  0
 34 33  1  0  0  0  0
 36 38  2  0  0  0  0
 36 37  1  0  0  0  0
 37 40  2  0  0  0  0
 38 39  1  0  0  0  0
 39 35  2  0  0  0  0
 40 35  1  0  0  0  0
 42 43  2  0  0  0  0
 43 37  1  0  0  0  0
 43 41  1  0  0  0  0
M  END
>  <MODEL>
1

>  <REMARK>
 VINA RESULT:     -11.4      0.000      0.000
  Name = 
  9 active torsions:
  status: ('A' for Active; 'I' for Inactive)
    1  A    between atoms: C_2  and  O_43
    2  A    between atoms: C_3  and  N_10
    3  A    between atoms: C_6  and  C_36
    4  A    between atoms: C_11  and  O_43
    5  A    between atoms: C_18  and  C_31
    6  A    between atoms: C_19  and  C_32
    7  A    between atoms: C_20  and  C_38
    8  A    between atoms: N_22  and  O_35
    9  A    between atoms: C_31  and  O_35
                            x       y       z     vdW  Elec       q    Type
                         _______ _______ _______ _____ _____    ______ ____

>  <TORSDO>
F 9

$$$$
=
 OpenBabel11042412533D

 43 48  0  0  1  0  0  0  0  0999 V2000
  187.4150  177.5450  144.4030 C   0  0  0  0  0  0  0  0  0  0  0  0
  183.4180  178.9120  143.8130 C   0  0  0  0  0  0  0  0  0  0  0  0
  187.9900  177.6310  145.7110 C   0  0  0  0  0  0  0  0  0  0  0  0
  184.0290  178.9730  145.0780 C   0  0  0  0  0  3  0  0  0  0  0  0
  185.9220  178.6480  146.5240 C   0  0  0  0  0  3  0  0  0  0  0  0
  191.0670  176.8660  147.7220 O   0  0  0  0  0  1  0  0  0  0  0  0
  186.0880  178.0180  144.1890 C   0  0  0  0  0  0  0  0  0  0  0  0
  189.7920  177.2990  147.3580 C   0  0  0  0  0  0  0  0  0  0  0  0
  184.1540  178.4300  142.7350 C   0  0  0  0  0  3  0  0  0  0  0  0
  189.3010  177.1450  146.0350 C   0  0  0  0  0  0  0  0  0  0  0  0
  187.2160  178.2070  146.7570 C   0  0  0  0  0  0  0  0  0  0  0  0
  185.3450  178.5480  145.2640 C   0  0  0  0  0  0  0  0  0  0  0  0
  187.7270  178.3380  148.0440 C   0  0  0  0  0  3  0  0  0  0  0  0
  185.4760  177.9930  142.9200 C   0  0  0  0  0  3  0  0  0  0  0  0
  189.0040  177.8910  148.3400 C   0  0  0  0  0  3  0  0  0  0  0  0
  182.0370  179.2230  143.6110 N   0  0  0  0  0  0  0  0  0  0  0  0
  181.3320  179.0010  142.5410 C   0  0  0  0  0  0  0  0  0  0  0  0
  179.9200  179.4520  142.5300 C   0  0  0  0  0  0  0  0  0  0  0  0
  178.9710  178.6370  142.6510 O   0  0  0  0  0  1  0  0  0  0  0  0
  179.6410  180.8050  142.3920 O   0  0  0  0  0  0  0  0  0  0  0  0
  181.8930  178.2970  141.4630 O   0  0  0  0  0  0  0  0  0  0  0  0
  182.7580  176.5590  139.4870 C   0  0  0  0  0  2  0  0  0  0  0  0
  182.3690  176.0980  137.1610 O   0  0  0  0  0  0  0  0  0  0  0  0
  181.9890  178.3870  137.7680 C   0  0  0  0  0  2  0  0  0  0  0  0
  181.7540  178.6950  140.1480 N   0  0  0  0  0  0  0  0  0  0  0  0
  182.2000  177.9380  139.1850 C   0  0  0  0  0  0  0  0  0  0  0  0
  182.6400  177.4320  136.7940 C   0  0  0  0  0  2  0  0  0  0  0  0
  183.2420  175.8420  138.2360 C   0  0  0  0  0  2  0  0  0  0  0  0
  191.3430  176.8600  144.5940 C   0  0  0  0  0  2  0  0  0  0  0  0
  190.1380  176.4750  144.9990 C   0  0  0  0  0  3  0  0  0  0  0  0
  188.1880  177.0150  143.3490 O   0  0  0  0  0  0  0  0  0  0  0  0
  188.9010  178.8840  142.0290 C   0  0  0  0  0  2  0  0  0  0  0  0
  188.2280  177.5260  142.0230 C   0  0  1  0  0  3  0  0  0  0  0  0
  189.6840  177.6530  141.5910 C   0  0  1  0  0  3  0  0  0  0  0  0
  189.7700  177.5520  140.0970 C   0  0  0  0  0  0  0  0  0  0  0  0
  189.7670  177.3000  137.2980 C   0  0  0  0  0  3  0  0  0  0  0  0
  190.4320  176.3440  138.0860 C   0  0  0  0  0  0  0  0  0  0  0  0
  189.1030  178.3730  137.9030 C   0  0  0  0  0  3  0  0  0  0  0  0
  189.1010  178.4950  139.2980 C   0  0  0  0  0  3  0  0  0  0  0  0
  190.4220  176.4730  139.4850 C   0  0  0  0  0  3  0  0  0  0  0  0
  190.5610  173.9190  137.5610 O   0  0  0  0  0  1  0  0  0  0  0  0
  192.1800  175.3680  136.8030 O   0  0  0  0  0  0  0  0  0  0  0  0
  191.1130  175.2000  137.4590 C   0  0  0  0  0  0  0  0  0  0  0  0
  1  3  1  0  0  0  0
  2  4  2  0  0  0  0
  3 10  2  0  0  0  0
  3 11  1  0  0  0  0
  4 12  1  0  0  0  0
  5 11  1  0  0  0  0
  7  1  2  0  0  0  0
  7 12  1  0  0  0  0
  8  6  1  0  0  0  0
  8 15  2  0  0  0  0
  9 14  2  0  0  0  0
  9  2  1  0  0  0  0
 10  8  1  0  0  0  0
 11 13  2  0  0  0  0
 12  5  2  0  0  0  0
 13 15  1  0  0  0  0
 14  7  1  0  0  0  0
 16  2  1  0  0  0  0
 17 16  2  0  0  0  0
 18 17  1  0  0  0  0
 18 19  1  0  0  0  0
 20 18  2  0  0  0  0
 21 17  1  0  0  0  0
 23 28  1  0  0  0  0
 24 26  1  0  0  0  0
 25 21  1  0  0  0  0
 26 22  1  0  0  0  0
 26 25  2  0  0  0  0
 27 23  1  0  0  0  0
 27 24  1  0  0  0  0
 28 22  1  0  0  0  0
 29 30  2  0  0  0  0
 30 10  1  0  0  0  0
 31  1  1  0  0  0  0
 33 32  1  0  0  0  0
 33 31  1  1  0  0  0
 34 35  1  6  0  0  0
 34 33  1  0  0  0  0
 34 32  1  0  0  0  0
 36 38  2  0  0  0  0
 36 37  1  0  0  0  0
 37 40  2  0  0  0  0
 38 39  1  0  0  0  0
 39 35  2  0  0  0  0
 40 35  1  0  0  0  0
 42 43  2  0  0  0  0
 43 41  1  0  0  0  0
 43 37  1  0  0  0  0
M  END
>  <MODEL>
2

>  <REMARK>
 VINA RESULT:     -11.3      1.343      1.724
  Name = 
  9 active torsions:
  status: ('A' for Active; 'I' for Inactive)
    1  A    between atoms: C_2  and  O_43
    2  A    between atoms: C_3  and  N_10
    3  A    between atoms: C_6  and  C_36
    4  A    between atoms: C_11  and  O_43
    5  A    between atoms: C_18  and  C_31
    6  A    between atoms: C_19  and  C_32
    7  A    between atoms: C_20  and  C_38
    8  A    between atoms: N_22  and  O_35
    9  A    between atoms: C_31  and  O_35
                            x       y       z     vdW  Elec       q    Type
                         _______ _______ _______ _____ _____    ______ ____

>  <TORSDO>
F 9

$$$$
=
 OpenBabel11042412533D

 43 48  0  0  1  0  0  0  0  0999 V2000
  188.1500  177.9520  143.8880 C   0  0  0  0  0  0  0  0  0  0  0  0
  190.6710  177.2240  140.5240 C   0  0  0  0  0  0  0  0  0  0  0  0
  188.6600  177.7000  145.2010 C   0  0  0  0  0  0  0  0  0  0  0  0
  191.1220  176.9940  141.8350 C   0  0  0  0  0  3  0  0  0  0  0  0
  190.7630  176.9450  144.2120 C   0  0  0  0  0  3  0  0  0  0  0  0
  187.8260  177.8770  148.8570 O   0  0  0  0  0  1  0  0  0  0  0  0
  188.9750  177.6930  142.7550 C   0  0  0  0  0  0  0  0  0  0  0  0
  188.5060  177.6590  147.6600 C   0  0  0  0  0  0  0  0  0  0  0  0
  189.3630  177.6610  140.3320 C   0  0  0  0  0  3  0  0  0  0  0  0
  187.9220  177.9670  146.4030 C   0  0  0  0  0  0  0  0  0  0  0  0
  189.9770  177.1780  145.3300 C   0  0  0  0  0  0  0  0  0  0  0  0
  190.2880  177.2090  142.9340 C   0  0  0  0  0  0  0  0  0  0  0  0
  190.5200  176.8910  146.5790 C   0  0  0  0  0  3  0  0  0  0  0  0
  188.5240  177.8890  141.4350 C   0  0  0  0  0  3  0  0  0  0  0  0
  189.7890  177.1270  147.7310 C   0  0  0  0  0  3  0  0  0  0  0  0
  191.5330  177.1310  139.3870 N   0  0  0  0  0  0  0  0  0  0  0  0
  191.5520  176.1860  138.4930 C   0  0  0  0  0  0  0  0  0  0  0  0
  192.5690  176.2660  137.4170 C   0  0  0  0  0  0  0  0  0  0  0  0
  192.2380  176.3000  136.2050 O   0  0  0  0  0  0  0  0  0  0  0  0
  193.9140  176.3120  137.7570 O   0  0  0  0  0  1  0  0  0  0  0  0
  190.5890  175.1640  138.5290 O   0  0  0  0  0  0  0  0  0  0  0  0
  188.3520  174.9230  136.9160 C   0  0  0  0  0  2  0  0  0  0  0  0
  187.7160  173.9690  134.8030 O   0  0  0  0  0  0  0  0  0  0  0  0
  189.5270  172.8200  135.8750 C   0  0  0  0  0  2  0  0  0  0  0  0
  190.5590  174.1250  137.6210 N   0  0  0  0  0  0  0  0  0  0  0  0
  189.5020  173.9340  136.8810 C   0  0  0  0  0  0  0  0  0  0  0  0
  188.1950  172.6960  135.1710 C   0  0  0  0  0  2  0  0  0  0  0  0
  187.2090  174.5150  135.9980 C   0  0  0  0  0  2  0  0  0  0  0  0
  185.4280  178.0010  146.7280 C   0  0  0  0  0  2  0  0  0  0  0  0
  186.5610  178.5730  146.3370 C   0  0  0  0  0  3  0  0  0  0  0  0
  186.8310  178.4300  143.7450 O   0  0  0  0  0  0  0  0  0  0  0  0
  184.4850  178.3630  143.2590 C   0  0  0  0  0  2  0  0  0  0  0  0
  185.8710  177.9290  142.8240 C   0  0  1  0  0  3  0  0  0  0  0  0
  185.1940  179.1050  142.1330 C   0  0  1  0  0  3  0  0  0  0  0  0
  184.6990  178.6720  140.7850 C   0  0  0  0  0  0  0  0  0  0  0  0
  183.7920  177.6950  138.3110 C   0  0  0  0  0  3  0  0  0  0  0  0
  185.1050  178.1830  138.4320 C   0  0  0  0  0  0  0  0  0  0  0  0
  182.9380  177.6890  139.4190 C   0  0  0  0  0  3  0  0  0  0  0  0
  183.3930  178.1720  140.6530 C   0  0  0  0  0  3  0  0  0  0  0  0
  185.5540  178.6630  139.6740 C   0  0  0  0  0  3  0  0  0  0  0  0
  187.2690  178.7860  137.3710 O   0  0  0  0  0  1  0  0  0  0  0  0
  185.6900  177.5860  136.2050 O   0  0  0  0  0  0  0  0  0  0  0  0
  186.0170  178.1710  137.2760 C   0  0  0  0  0  0  0  0  0  0  0  0
  1  3  1  0  0  0  0
  2  4  2  0  0  0  0
  3 11  2  0  0  0  0
  3 10  1  0  0  0  0
  4 12  1  0  0  0  0
  5 11  1  0  0  0  0
  7 12  1  0  0  0  0
  7  1  2  0  0  0  0
  8 15  1  0  0  0  0
  8  6  1  0  0  0  0
  9  2  1  0  0  0  0
  9 14  2  0  0  0  0
 10  8  2  0  0  0  0
 11 13  1  0  0  0  0
 12  5  2  0  0  0  0
 13 15  2  0  0  0  0
 14  7  1  0  0  0  0
 16  2  1  0  0  0  0
 17 21  1  0  0  0  0
 17 16  2  0  0  0  0
 18 20  1  0  0  0  0
 18 17  1  0  0  0  0
 19 18  2  0  0  0  0
 23 27  1  0  0  0  0
 23 28  1  0  0  0  0
 24 26  1  0  0  0  0
 25 21  1  0  0  0  0
 26 22  1  0  0  0  0
 26 25  2  0  0  0  0
 27 24  1  0  0  0  0
 28 22  1  0  0  0  0
 30 10  1  0  0  0  0
 30 29  2  0  0  0  0
 31  1  1  0  0  0  0
 33 32  1  0  0  0  0
 33 31  1  1  0  0  0
 34 35  1  6  0  0  0
 34 33  1  0  0  0  0
 34 32  1  0  0  0  0
 36 37  2  0  0  0  0
 36 38  1  0  0  0  0
 37 40  1  0  0  0  0
 38 39  2  0  0  0  0
 39 35  1  0  0  0  0
 40 35  2  0  0  0  0
 42 43  2  0  0  0  0
 43 41  1  0  0  0  0
 43 37  1  0  0  0  0
M  END
>  <MODEL>
3

>  <REMARK>
 VINA RESULT:     -11.0      3.367      6.880
  Name = 
  9 active torsions:
  status: ('A' for Active; 'I' for Inactive)
    1  A    between atoms: C_2  and  O_43
    2  A    between atoms: C_3  and  N_10
    3  A    between atoms: C_6  and  C_36
    4  A    between atoms: C_11  and  O_43
    5  A    between atoms: C_18  and  C_31
    6  A    between atoms: C_19  and  C_32
    7  A    between atoms: C_20  and  C_38
    8  A    between atoms: N_22  and  O_35
    9  A    between atoms: C_31  and  O_35
                            x       y       z     vdW  Elec       q    Type
                         _______ _______ _______ _____ _____    ______ ____

>  <TORSDO>
F 9

$$$$
=
 OpenBabel11042412533D

 43 48  0  0  1  0  0  0  0  0999 V2000
  188.3570  177.8690  143.7470 C   0  0  0  0  0  0  0  0  0  0  0  0
  188.3920  177.9400  139.4820 C   0  0  0  0  0  0  0  0  0  0  0  0
  189.4920  177.3390  144.4400 C   0  0  0  0  0  0  0  0  0  0  0  0
  189.4810  177.4330  140.2110 C   0  0  0  0  0  3  0  0  0  0  0  0
  190.5450  176.8540  142.2880 C   0  0  0  0  0  3  0  0  0  0  0  0
  190.9280  176.6910  147.8470 O   0  0  0  0  0  1  0  0  0  0  0  0
  188.3480  177.8780  142.3220 C   0  0  0  0  0  0  0  0  0  0  0  0
  190.7690  176.7530  146.4630 C   0  0  0  0  0  0  0  0  0  0  0  0
  187.2720  178.3890  140.1760 C   0  0  0  0  0  3  0  0  0  0  0  0
  189.6120  177.3240  145.8700 C   0  0  0  0  0  0  0  0  0  0  0  0
  190.5740  176.8210  143.6740 C   0  0  0  0  0  0  0  0  0  0  0  0
  189.4590  177.3870  141.6060 C   0  0  0  0  0  0  0  0  0  0  0  0
  191.6950  176.2740  144.2890 C   0  0  0  0  0  3  0  0  0  0  0  0
  187.2490  178.3550  141.5800 C   0  0  0  0  0  3  0  0  0  0  0  0
  191.7890  176.2380  145.6700 C   0  0  0  0  0  3  0  0  0  0  0  0
  188.4300  178.1140  138.0630 N   0  0  0  0  0  0  0  0  0  0  0  0
  187.9450  177.3110  137.1620 C   0  0  0  0  0  0  0  0  0  0  0  0
  188.1410  177.6650  135.7360 C   0  0  0  0  0  0  0  0  0  0  0  0
  189.2030  177.3770  135.1290 O   0  0  0  0  0  1  0  0  0  0  0  0
  187.1240  178.3200  135.0540 O   0  0  0  0  0  0  0  0  0  0  0  0
  187.2070  176.1800  137.5510 O   0  0  0  0  0  0  0  0  0  0  0  0
  184.6290  177.1820  137.6850 C   0  0  0  0  0  2  0  0  0  0  0  0
  182.6350  177.2810  136.3460 O   0  0  0  0  0  0  0  0  0  0  0  0
  184.0010  175.3600  135.9030 C   0  0  0  0  0  2  0  0  0  0  0  0
  186.2470  175.5960  136.7510 N   0  0  0  0  0  0  0  0  0  0  0  0
  185.0060  175.9930  136.8210 C   0  0  0  0  0  0  0  0  0  0  0  0
  182.6100  175.8810  136.1810 C   0  0  0  0  0  2  0  0  0  0  0  0
  183.1370  177.4750  137.6470 C   0  0  0  0  0  2  0  0  0  0  0  0
  187.9120  177.2970  147.7230 C   0  0  0  0  0  2  0  0  0  0  0  0
  188.5420  177.9090  146.7260 C   0  0  0  0  0  3  0  0  0  0  0  0
  187.2600  178.3470  144.4940 O   0  0  0  0  0  0  0  0  0  0  0  0
  185.0890  178.3870  145.5080 C   0  0  0  0  0  2  0  0  0  0  0  0
  185.9060  177.9620  144.3030 C   0  0  1  0  0  3  0  0  0  0  0  0
  185.0450  179.2160  144.2310 C   0  0  1  0  0  3  0  0  0  0  0  0
  183.8140  178.9290  143.4250 C   0  0  0  0  0  0  0  0  0  0  0  0
  181.5140  178.5560  141.8520 C   0  0  0  0  0  3  0  0  0  0  0  0
  181.3880  178.7740  143.2360 C   0  0  0  0  0  0  0  0  0  0  0  0
  182.7790  178.5300  141.2560 C   0  0  0  0  0  3  0  0  0  0  0  0
  183.9250  178.7210  142.0400 C   0  0  0  0  0  3  0  0  0  0  0  0
  182.5420  178.9680  144.0140 C   0  0  0  0  0  3  0  0  0  0  0  0
  179.2930  179.9930  143.7810 O   0  0  0  0  0  0  0  0  0  0  0  0
  179.5920  177.8170  144.4660 O   0  0  0  0  0  1  0  0  0  0  0  0
  180.0590  178.8270  143.8680 C   0  0  0  0  0  0  0  0  0  0  0  0
  1  3  1  0  0  0  0
  1 31  1  0  0  0  0
  2  9  1  0  0  0  0
  2  4  2  0  0  0  0
  3 10  1  0  0  0  0
  4 12  1  0  0  0  0
  5 11  1  0  0  0  0
  7  1  2  0  0  0  0
  8  6  1  0  0  0  0
  9 14  2  0  0  0  0
 10  8  2  0  0  0  0
 10 30  1  0  0  0  0
 11 13  1  0  0  0  0
 11  3  2  0  0  0  0
 12  5  2  0  0  0  0
 12  7  1  0  0  0  0
 13 15  2  0  0  0  0
 14  7  1  0  0  0  0
 15  8  1  0  0  0  0
 16  2  1  0  0  0  0
 17 21  1  0  0  0  0
 17 16  2  0  0  0  0
 18 17  1  0  0  0  0
 19 18  1  0  0  0  0
 20 18  2  0  0  0  0
 23 28  1  0  0  0  0
 24 27  1  0  0  0  0
 24 26  1  0  0  0  0
 25 26  2  0  0  0  0
 25 21  1  0  0  0  0
 26 22  1  0  0  0  0
 27 23  1  0  0  0  0
 28 22  1  0  0  0  0
 30 29  2  0  0  0  0
 33 31  1  1  0  0  0
 33 32  1  0  0  0  0
 34 35  1  6  0  0  0
 34 33  1  0  0  0  0
 34 32  1  0  0  0  0
 35 40  1  0  0  0  0
 36 37  1  0  0  0  0
 37 43  1  0  0  0  0
 37 40  2  0  0  0  0
 38 36  2  0  0  0  0
 38 39  1  0  0  0  0
 39 35  2  0  0  0  0
 41 43  2  0  0  0  0
 43 42  1  0  0  0  0
M  END
>  <MODEL>
4

>  <REMARK>
 VINA RESULT:     -10.9      2.161      6.444
  Name = 
  9 active torsions:
  status: ('A' for Active; 'I' for Inactive)
    1  A    between atoms: C_2  and  O_43
    2  A    between atoms: C_3  and  N_10
    3  A    between atoms: C_6  and  C_36
    4  A    between atoms: C_11  and  O_43
    5  A    between atoms: C_18  and  C_31
    6  A    between atoms: C_19  and  C_32
    7  A    between atoms: C_20  and  C_38
    8  A    between atoms: N_22  and  O_35
    9  A    between atoms: C_31  and  O_35
                            x       y       z     vdW  Elec       q    Type
                         _______ _______ _______ _____ _____    ______ ____

>  <TORSDO>
F 9

$$$$
=
 OpenBabel11042412533D

 43 48  0  0  1  0  0  0  0  0999 V2000
  188.1950  177.8870  144.0260 C   0  0  0  0  0  0  0  0  0  0  0  0
  188.0260  178.0470  139.7670 C   0  0  0  0  0  0  0  0  0  0  0  0
  189.3790  177.3830  144.6530 C   0  0  0  0  0  0  0  0  0  0  0  0
  189.1640  177.5620  140.4320 C   0  0  0  0  0  3  0  0  0  0  0  0
  190.3440  176.9770  142.4450 C   0  0  0  0  0  3  0  0  0  0  0  0
  190.9950  176.7140  147.9750 O   0  0  0  0  0  1  0  0  0  0  0  0
  188.1180  177.9260  142.6030 C   0  0  0  0  0  0  0  0  0  0  0  0
  190.7680  176.7990  146.6020 C   0  0  0  0  0  0  0  0  0  0  0  0
  186.9260  178.4440  140.5220 C   0  0  0  0  0  3  0  0  0  0  0  0
  189.5670  177.3420  146.0750 C   0  0  0  0  0  0  0  0  0  0  0  0
  190.4390  176.9170  143.8270 C   0  0  0  0  0  0  0  0  0  0  0  0
  189.2100  177.4870  141.8250 C   0  0  0  0  0  0  0  0  0  0  0  0
  191.6060  176.3950  144.3760 C   0  0  0  0  0  3  0  0  0  0  0  0
  186.9710  178.3800  141.9240 C   0  0  0  0  0  3  0  0  0  0  0  0
  191.7670  176.3340  145.7500 C   0  0  0  0  0  3  0  0  0  0  0  0
  187.9910  178.2510  138.3520 N   0  0  0  0  0  0  0  0  0  0  0  0
  188.1380  177.3500  137.4260 C   0  0  0  0  0  0  0  0  0  0  0  0
  188.1150  177.7930  136.0120 C   0  0  0  0  0  0  0  0  0  0  0  0
  187.0390  178.0980  135.4380 O   0  0  0  0  0  1  0  0  0  0  0  0
  189.3100  177.8810  135.3090 O   0  0  0  0  0  0  0  0  0  0  0  0
  188.2520  175.9940  137.7770 O   0  0  0  0  0  0  0  0  0  0  0  0
  190.9940  175.6710  137.9880 C   0  0  0  0  0  2  0  0  0  0  0  0
  192.6790  174.0130  137.5490 O   0  0  0  0  0  0  0  0  0  0  0  0
  190.7610  173.8430  136.1190 C   0  0  0  0  0  2  0  0  0  0  0  0
  188.8550  175.0540  136.9650 N   0  0  0  0  0  0  0  0  0  0  0  0
  190.1500  174.9060  136.9850 C   0  0  0  0  0  0  0  0  0  0  0  0
  192.2700  173.8720  136.2080 C   0  0  0  0  0  2  0  0  0  0  0  0
  192.4800  175.3760  137.8390 C   0  0  0  0  0  2  0  0  0  0  0  0
  187.8810  177.1870  147.9360 C   0  0  0  0  0  2  0  0  0  0  0  0
  188.5190  177.8720  146.9940 C   0  0  0  0  0  3  0  0  0  0  0  0
  187.1200  178.3130  144.8340 O   0  0  0  0  0  0  0  0  0  0  0  0
  184.9440  178.4350  145.8300 C   0  0  0  0  0  2  0  0  0  0  0  0
  185.7590  177.9520  144.6460 C   0  0  1  0  0  3  0  0  0  0  0  0
  184.9270  179.2220  144.5250 C   0  0  1  0  0  3  0  0  0  0  0  0
  183.6950  178.9360  143.7200 C   0  0  0  0  0  0  0  0  0  0  0  0
  181.3840  178.5680  142.1620 C   0  0  0  0  0  3  0  0  0  0  0  0
  181.2760  178.6790  143.5600 C   0  0  0  0  0  0  0  0  0  0  0  0
  182.6380  178.6450  141.5450 C   0  0  0  0  0  3  0  0  0  0  0  0
  183.7880  178.8330  142.3220 C   0  0  0  0  0  3  0  0  0  0  0  0
  182.4350  178.8710  144.3310 C   0  0  0  0  0  3  0  0  0  0  0  0
  179.1550  179.7660  144.2620 O   0  0  0  0  0  0  0  0  0  0  0  0
  179.5340  177.5420  144.7130 O   0  0  0  0  0  1  0  0  0  0  0  0
  179.9580  178.6230  144.2150 C   0  0  0  0  0  0  0  0  0  0  0  0
  1  3  1  0  0  0  0
  1 31  1  0  0  0  0
  2  4  2  0  0  0  0
  2  9  1  0  0  0  0
  3 10  1  0  0  0  0
  4 12  1  0  0  0  0
  5 11  1  0  0  0  0
  7  1  2  0  0  0  0
  8  6  1  0  0  0  0
  9 14  2  0  0  0  0
 10  8  2  0  0  0  0
 10 30  1  0  0  0  0
 11 13  1  0  0  0  0
 11  3  2  0  0  0  0
 12  5  2  0  0  0  0
 12  7  1  0  0  0  0
 13 15  2  0  0  0  0
 14  7  1  0  0  0  0
 15  8  1  0  0  0  0
 16  2  1  0  0  0  0
 17 21  1  0  0  0  0
 17 16  2  0  0  0  0
 18 17  1  0  0  0  0
 19 18  1  0  0  0  0
 20 18  2  0  0  0  0
 23 28  1  0  0  0  0
 24 27  1  0  0  0  0
 24 26  1  0  0  0  0
 25 26  2  0  0  0  0
 25 21  1  0  0  0  0
 26 22  1  0  0  0  0
 27 23  1  0  0  0  0
 28 22  1  0  0  0  0
 30 29  2  0  0  0  0
 33 31  1  1  0  0  0
 33 32  1  0  0  0  0
 34 35  1  6  0  0  0
 34 33  1  0  0  0  0
 34 32  1  0  0  0  0
 35 40  1  0  0  0  0
 36 37  1  0  0  0  0
 37 43  1  0  0  0  0
 37 40  2  0  0  0  0
 38 36  2  0  0  0  0
 38 39  1  0  0  0  0
 39 35  2  0  0  0  0
 43 41  2  0  0  0  0
 43 42  1  0  0  0  0
M  END
>  <MODEL>
5

>  <REMARK>
 VINA RESULT:     -10.9      2.533      7.340
  Name = 
  9 active torsions:
  status: ('A' for Active; 'I' for Inactive)
    1  A    between atoms: C_2  and  O_43
    2  A    between atoms: C_3  and  N_10
    3  A    between atoms: C_6  and  C_36
    4  A    between atoms: C_11  and  O_43
    5  A    between atoms: C_18  and  C_31
    6  A    between atoms: C_19  and  C_32
    7  A    between atoms: C_20  and  C_38
    8  A    between atoms: N_22  and  O_35
    9  A    between atoms: C_31  and  O_35
                            x       y       z     vdW  Elec       q    Type
                         _______ _______ _______ _____ _____    ______ ____

>  <TORSDO>
F 9

$$$$
=
 OpenBabel11042412533D

 43 48  0  0  1  0  0  0  0  0999 V2000
  185.8770  178.2040  142.3480 C   0  0  0  0  0  0  0  0  0  0  0  0
  189.8450  177.8130  140.8320 C   0  0  0  0  0  0  0  0  0  0  0  0
  184.8190  178.5330  141.4420 C   0  0  0  0  0  0  0  0  0  0  0  0
  188.7700  178.1320  139.9850 C   0  0  0  0  0  3  0  0  0  0  0  0
  186.4460  178.6270  139.6200 C   0  0  0  0  0  3  0  0  0  0  0  0
  181.1190  179.1150  141.1910 O   0  0  0  0  0  1  0  0  0  0  0  0
  187.2110  178.0910  141.8570 C   0  0  0  0  0  0  0  0  0  0  0  0
  182.4680  178.9860  140.8620 C   0  0  0  0  0  0  0  0  0  0  0  0
  189.6030  177.6600  142.1940 C   0  0  0  0  0  3  0  0  0  0  0  0
  183.4420  178.6280  141.8320 C   0  0  0  0  0  0  0  0  0  0  0  0
  185.1420  178.7550  140.0740 C   0  0  0  0  0  0  0  0  0  0  0  0
  187.4760  178.2850  140.4860 C   0  0  0  0  0  0  0  0  0  0  0  0
  184.1610  179.0990  139.1490 C   0  0  0  0  0  3  0  0  0  0  0  0
  188.3010  177.8020  142.7010 C   0  0  0  0  0  3  0  0  0  0  0  0
  182.8380  179.2160  139.5410 C   0  0  0  0  0  3  0  0  0  0  0  0
  191.1570  177.5300  140.3370 N   0  0  0  0  0  0  0  0  0  0  0  0
  191.4620  176.8480  139.2720 C   0  0  0  0  0  0  0  0  0  0  0  0
  192.8980  176.6350  138.9690 C   0  0  0  0  0  0  0  0  0  0  0  0
  193.2650  176.0230  137.9340 O   0  0  0  0  0  0  0  0  0  0  0  0
  193.8560  177.1290  139.8440 O   0  0  0  0  0  1  0  0  0  0  0  0
  190.4480  176.3900  138.4150 O   0  0  0  0  0  0  0  0  0  0  0  0
  187.9160  175.9940  137.3650 C   0  0  0  0  0  2  0  0  0  0  0  0
  186.3820  177.0500  135.8450 O   0  0  0  0  0  0  0  0  0  0  0  0
  188.6870  177.5030  135.3600 C   0  0  0  0  0  2  0  0  0  0  0  0
  190.1480  176.9950  137.2110 N   0  0  0  0  0  0  0  0  0  0  0  0
  188.9890  176.7910  136.6470 C   0  0  0  0  0  0  0  0  0  0  0  0
  187.3420  177.0840  134.8130 C   0  0  0  0  0  2  0  0  0  0  0  0
  186.6480  175.8520  136.5360 C   0  0  0  0  0  2  0  0  0  0  0  0
  182.4440  179.1980  144.0700 C   0  0  0  0  0  2  0  0  0  0  0  0
  183.0310  178.3460  143.2370 C   0  0  0  0  0  3  0  0  0  0  0  0
  185.5770  178.0230  143.7140 O   0  0  0  0  0  0  0  0  0  0  0  0
  185.5100  178.6830  146.0170 C   0  0  0  0  0  2  0  0  0  0  0  0
  186.3840  178.4630  144.7980 C   0  0  1  0  0  3  0  0  0  0  0  0
  186.3420  177.4120  145.9000 C   0  0  1  0  0  3  0  0  0  0  0  0
  187.5990  177.4940  146.7140 C   0  0  0  0  0  0  0  0  0  0  0  0
  189.9630  177.8180  148.1990 C   0  0  0  0  0  3  0  0  0  0  0  0
  190.0120  177.2250  146.9250 C   0  0  0  0  0  0  0  0  0  0  0  0
  188.7430  178.2530  148.7260 C   0  0  0  0  0  3  0  0  0  0  0  0
  187.5650  178.0950  147.9830 C   0  0  0  0  0  3  0  0  0  0  0  0
  188.8270  177.0730  146.1860 C   0  0  0  0  0  3  0  0  0  0  0  0
  192.3240  176.3560  147.1970 O   0  0  0  0  0  1  0  0  0  0  0  0
  191.4690  176.7670  145.1010 O   0  0  0  0  0  0  0  0  0  0  0  0
  191.2960  176.7860  146.3530 C   0  0  0  0  0  0  0  0  0  0  0  0
  1 31  1  0  0  0  0
  2  9  1  0  0  0  0
  3 10  1  0  0  0  0
  3  1  2  0  0  0  0
  4 12  1  0  0  0  0
  4  2  2  0  0  0  0
  5 11  2  0  0  0  0
  5 12  1  0  0  0  0
  7  1  1  0  0  0  0
  7 14  1  0  0  0  0
  8  6  1  0  0  0  0
  8 10  2  0  0  0  0
  9 14  2  0  0  0  0
 10 30  1  0  0  0  0
 11  3  1  0  0  0  0
 12  7  2  0  0  0  0
 13 15  2  0  0  0  0
 13 11  1  0  0  0  0
 15  8  1  0  0  0  0
 16  2  1  0  0  0  0
 17 16  2  0  0  0  0
 18 17  1  0  0  0  0
 18 20  1  0  0  0  0
 19 18  2  0  0  0  0
 21 17  1  0  0  0  0
 23 28  1  0  0  0  0
 24 26  1  0  0  0  0
 25 21  1  0  0  0  0
 26 25  2  0  0  0  0
 26 22  1  0  0  0  0
 27 24  1  0  0  0  0
 27 23  1  0  0  0  0
 28 22  1  0  0  0  0
 30 29  2  0  0  0  0
 33 31  1  6  0  0  0
 33 34  1  0  0  0  0
 33 32  1  0  0  0  0
 34 32  1  0  0  0  0
 34 35  1  1  0  0  0
 35 39  1  0  0  0  0
 36 38  1  0  0  0  0
 37 36  2  0  0  0  0
 39 38  2  0  0  0  0
 40 35  2  0  0  0  0
 40 37  1  0  0  0  0
 42 43  2  0  0  0  0
 43 37  1  0  0  0  0
 43 41  1  0  0  0  0
M  END
>  <MODEL>
6

>  <REMARK>
 VINA RESULT:     -10.8      2.951      8.495
  Name = 
  9 active torsions:
  status: ('A' for Active; 'I' for Inactive)
    1  A    between atoms: C_2  and  O_43
    2  A    between atoms: C_3  and  N_10
    3  A    between atoms: C_6  and  C_36
    4  A    between atoms: C_11  and  O_43
    5  A    between atoms: C_18  and  C_31
    6  A    between atoms: C_19  and  C_32
    7  A    between atoms: C_20  and  C_38
    8  A    between atoms: N_22  and  O_35
    9  A    between atoms: C_31  and  O_35
                            x       y       z     vdW  Elec       q    Type
                         _______ _______ _______ _____ _____    ______ ____

>  <TORSDO>
F 9

$$$$
=
 OpenBabel11042412533D

 43 48  0  0  1  0  0  0  0  0999 V2000
  188.2810  177.8600  143.9130 C   0  0  0  0  0  0  0  0  0  0  0  0
  187.9960  178.0290  139.6600 C   0  0  0  0  0  0  0  0  0  0  0  0
  189.4750  177.3390  144.5060 C   0  0  0  0  0  0  0  0  0  0  0  0
  189.1460  177.5290  140.2930 C   0  0  0  0  0  3  0  0  0  0  0  0
  190.3730  176.9250  142.2710 C   0  0  0  0  0  3  0  0  0  0  0  0
  191.1730  176.6440  147.7810 O   0  0  0  0  0  1  0  0  0  0  0  0
  188.1650  177.9020  142.4930 C   0  0  0  0  0  0  0  0  0  0  0  0
  190.9100  176.7340  146.4150 C   0  0  0  0  0  0  0  0  0  0  0  0
  186.9230  178.4390  140.4450 C   0  0  0  0  0  3  0  0  0  0  0  0
  189.7010  177.2940  145.9220 C   0  0  0  0  0  0  0  0  0  0  0  0
  190.5060  176.8610  143.6500 C   0  0  0  0  0  0  0  0  0  0  0  0
  189.2290  177.4500  141.6840 C   0  0  0  0  0  0  0  0  0  0  0  0
  191.6800  176.3230  144.1670 C   0  0  0  0  0  3  0  0  0  0  0  0
  187.0050  178.3720  141.8460 C   0  0  0  0  0  3  0  0  0  0  0  0
  191.8780  176.2580  145.5360 C   0  0  0  0  0  3  0  0  0  0  0  0
  187.9250  178.2360  138.2470 N   0  0  0  0  0  0  0  0  0  0  0  0
  187.9020  177.3230  137.3210 C   0  0  0  0  0  0  0  0  0  0  0  0
  187.8750  177.7640  135.9060 C   0  0  0  0  0  0  0  0  0  0  0  0
  186.7950  178.0450  135.3270 O   0  0  0  0  0  1  0  0  0  0  0  0
  189.0710  177.8790  135.2090 O   0  0  0  0  0  0  0  0  0  0  0  0
  187.8410  175.9640  137.6750 O   0  0  0  0  0  0  0  0  0  0  0  0
  190.5700  175.5100  137.7890 C   0  0  0  0  0  2  0  0  0  0  0  0
  192.1490  173.7480  137.3660 O   0  0  0  0  0  0  0  0  0  0  0  0
  190.1650  173.6100  136.0250 C   0  0  0  0  0  2  0  0  0  0  0  0
  188.3600  174.9560  136.8870 N   0  0  0  0  0  0  0  0  0  0  0  0
  189.6460  174.7430  136.8620 C   0  0  0  0  0  0  0  0  0  0  0  0
  191.6760  173.5650  136.0510 C   0  0  0  0  0  2  0  0  0  0  0  0
  192.0310  175.1320  137.5950 C   0  0  0  0  0  2  0  0  0  0  0  0
  188.1120  177.1750  147.8690 C   0  0  0  0  0  2  0  0  0  0  0  0
  188.6870  177.8360  146.8700 C   0  0  0  0  0  3  0  0  0  0  0  0
  187.2340  178.2980  144.7510 O   0  0  0  0  0  0  0  0  0  0  0  0
  185.1240  178.2600  145.8850 C   0  0  0  0  0  2  0  0  0  0  0  0
  185.8620  177.9620  144.5960 C   0  0  1  0  0  3  0  0  0  0  0  0
  185.0290  179.2310  144.7150 C   0  0  1  0  0  3  0  0  0  0  0  0
  183.7490  179.0600  143.9540 C   0  0  0  0  0  0  0  0  0  0  0  0
  181.3470  178.5710  142.5790 C   0  0  0  0  0  3  0  0  0  0  0  0
  182.5600  178.6270  141.8700 C   0  0  0  0  0  0  0  0  0  0  0  0
  181.3330  178.7520  143.9660 C   0  0  0  0  0  3  0  0  0  0  0  0
  182.5310  178.9910  144.6510 C   0  0  0  0  0  3  0  0  0  0  0  0
  183.7580  178.8640  142.5660 C   0  0  0  0  0  3  0  0  0  0  0  0
  183.4010  177.4150  139.8710 O   0  0  0  0  0  1  0  0  0  0  0  0
  181.8590  179.1090  139.6490 O   0  0  0  0  0  0  0  0  0  0  0  0
  182.5870  178.4140  140.4140 C   0  0  0  0  0  0  0  0  0  0  0  0
  1  3  1  0  0  0  0
  1 31  1  0  0  0  0
  2  4  2  0  0  0  0
  2  9  1  0  0  0  0
  3 10  1  0  0  0  0
  4 12  1  0  0  0  0
  5 11  1  0  0  0  0
  7  1  2  0  0  0  0
  8  6  1  0  0  0  0
  9 14  2  0  0  0  0
 10  8  2  0  0  0  0
 10 30  1  0  0  0  0
 11 13  1  0  0  0  0
 11  3  2  0  0  0  0
 12  5  2  0  0  0  0
 12  7  1  0  0  0  0
 13 15  2  0  0  0  0
 14  7  1  0  0  0  0
 15  8  1  0  0  0  0
 16  2  1  0  0  0  0
 17 21  1  0  0  0  0
 17 16  2  0  0  0  0
 18 17  1  0  0  0  0
 19 18  1  0  0  0  0
 20 18  2  0  0  0  0
 23 28  1  0  0  0  0
 24 27  1  0  0  0  0
 24 26  1  0  0  0  0
 25 21  1  0  0  0  0
 26 25  2  0  0  0  0
 26 22  1  0  0  0  0
 27 23  1  0  0  0  0
 28 22  1  0  0  0  0
 30 29  2  0  0  0  0
 33 34  1  0  0  0  0
 33 31  1  1  0  0  0
 33 32  1  0  0  0  0
 34 35  1  6  0  0  0
 34 32  1  0  0  0  0
 35 39  1  0  0  0  0
 36 38  1  0  0  0  0
 37 40  1  0  0  0  0
 37 36  2  0  0  0  0
 38 39  2  0  0  0  0
 40 35  2  0  0  0  0
 41 43  1  0  0  0  0
 42 43  2  0  0  0  0
 43 37  1  0  0  0  0
M  END
>  <MODEL>
7

>  <REMARK>
 VINA RESULT:     -10.7      2.468      6.912
  Name = 
  9 active torsions:
  status: ('A' for Active; 'I' for Inactive)
    1  A    between atoms: C_2  and  O_43
    2  A    between atoms: C_3  and  N_10
    3  A    between atoms: C_6  and  C_36
    4  A    between atoms: C_11  and  O_43
    5  A    between atoms: C_18  and  C_31
    6  A    between atoms: C_19  and  C_32
    7  A    between atoms: C_20  and  C_38
    8  A    between atoms: N_22  and  O_35
    9  A    between atoms: C_31  and  O_35
                            x       y       z     vdW  Elec       q    Type
                         _______ _______ _______ _____ _____    ______ ____

>  <TORSDO>
F 9

$$$$
=
 OpenBabel11042412533D

 43 48  0  0  1  0  0  0  0  0999 V2000
  188.4790  177.7850  143.8390 C   0  0  0  0  0  0  0  0  0  0  0  0
  188.3520  177.9010  139.5770 C   0  0  0  0  0  0  0  0  0  0  0  0
  189.6200  177.2070  144.4820 C   0  0  0  0  0  0  0  0  0  0  0  0
  189.4490  177.3470  140.2580 C   0  0  0  0  0  3  0  0  0  0  0  0
  190.5710  176.7080  142.2870 C   0  0  0  0  0  3  0  0  0  0  0  0
  191.1620  176.4710  147.8250 O   0  0  0  0  0  1  0  0  0  0  0  0
  188.4150  177.8100  142.4160 C   0  0  0  0  0  0  0  0  0  0  0  0
  190.9520  176.5540  146.4490 C   0  0  0  0  0  0  0  0  0  0  0  0
  187.2770  178.3830  140.3180 C   0  0  0  0  0  3  0  0  0  0  0  0
  189.7940  177.1720  145.9060 C   0  0  0  0  0  0  0  0  0  0  0  0
  190.6520  176.6590  143.6700 C   0  0  0  0  0  0  0  0  0  0  0  0
  189.4790  177.2870  141.6520 C   0  0  0  0  0  0  0  0  0  0  0  0
  191.7750  176.0650  144.2360 C   0  0  0  0  0  3  0  0  0  0  0  0
  187.3070  178.3340  141.7220 C   0  0  0  0  0  3  0  0  0  0  0  0
  191.9220  176.0110  145.6120 C   0  0  0  0  0  3  0  0  0  0  0  0
  188.3410  178.0890  138.1600 N   0  0  0  0  0  0  0  0  0  0  0  0
  187.7480  177.3430  137.2740 C   0  0  0  0  0  0  0  0  0  0  0  0
  187.9100  177.6970  135.8440 C   0  0  0  0  0  0  0  0  0  0  0  0
  186.9150  177.9150  135.1060 O   0  0  0  0  0  0  0  0  0  0  0  0
  189.1880  177.7980  135.3100 O   0  0  0  0  0  1  0  0  0  0  0  0
  186.9330  176.2760  137.6870 O   0  0  0  0  0  0  0  0  0  0  0  0
  184.6260  174.7920  137.3040 C   0  0  0  0  0  2  0  0  0  0  0  0
  183.8480  172.9250  136.0060 O   0  0  0  0  0  0  0  0  0  0  0  0
  186.1990  172.8600  136.4790 C   0  0  0  0  0  2  0  0  0  0  0  0
  187.0660  174.9920  137.1970 N   0  0  0  0  0  0  0  0  0  0  0  0
  186.0150  174.2340  137.0560 C   0  0  0  0  0  0  0  0  0  0  0  0
  184.8930  172.0980  136.4670 C   0  0  0  0  0  2  0  0  0  0  0  0
  183.5370  173.7480  137.1040 C   0  0  0  0  0  2  0  0  0  0  0  0
  188.1540  177.1800  147.8130 C   0  0  0  0  0  2  0  0  0  0  0  0
  188.7800  177.7850  146.8090 C   0  0  0  0  0  3  0  0  0  0  0  0
  187.4300  178.2940  144.6330 O   0  0  0  0  0  0  0  0  0  0  0  0
  185.3220  178.2850  145.7740 C   0  0  0  0  0  2  0  0  0  0  0  0
  186.0550  177.9660  144.4860 C   0  0  1  0  0  3  0  0  0  0  0  0
  185.2320  179.2440  144.5940 C   0  0  1  0  0  3  0  0  0  0  0  0
  183.9480  179.0750  143.8380 C   0  0  0  0  0  0  0  0  0  0  0  0
  181.5430  178.5890  142.4670 C   0  0  0  0  0  3  0  0  0  0  0  0
  182.7490  178.6910  141.7510 C   0  0  0  0  0  0  0  0  0  0  0  0
  181.5380  178.7230  143.8600 C   0  0  0  0  0  3  0  0  0  0  0  0
  182.7380  178.9600  144.5430 C   0  0  0  0  0  3  0  0  0  0  0  0
  183.9480  178.9270  142.4440 C   0  0  0  0  0  3  0  0  0  0  0  0
  183.6140  179.3230  139.5090 O   0  0  0  0  0  0  0  0  0  0  0  0
  182.0420  177.6580  139.7290 O   0  0  0  0  0  1  0  0  0  0  0  0
  182.7670  178.5290  140.2880 C   0  0  0  0  0  0  0  0  0  0  0  0
  1  3  1  0  0  0  0
  1 31  1  0  0  0  0
  2  4  2  0  0  0  0
  2  9  1  0  0  0  0
  3 10  1  0  0  0  0
  4 12  1  0  0  0  0
  5 11  1  0  0  0  0
  7  1  2  0  0  0  0
  8  6  1  0  0  0  0
  9 14  2  0  0  0  0
 10  8  2  0  0  0  0
 10 30  1  0  0  0  0
 11 13  1  0  0  0  0
 11  3  2  0  0  0  0
 12  5  2  0  0  0  0
 12  7  1  0  0  0  0
 13 15  2  0  0  0  0
 14  7  1  0  0  0  0
 15  8  1  0  0  0  0
 16  2  1  0  0  0  0
 17 21  1  0  0  0  0
 17 16  2  0  0  0  0
 18 17  1  0  0  0  0
 19 18  2  0  0  0  0
 20 18  1  0  0  0  0
 23 27  1  0  0  0  0
 23 28  1  0  0  0  0
 24 26  1  0  0  0  0
 25 21  1  0  0  0  0
 26 25  2  0  0  0  0
 26 22  1  0  0  0  0
 27 24  1  0  0  0  0
 28 22  1  0  0  0  0
 30 29  2  0  0  0  0
 33 34  1  0  0  0  0
 33 31  1  1  0  0  0
 33 32  1  0  0  0  0
 34 35  1  6  0  0  0
 34 32  1  0  0  0  0
 35 39  1  0  0  0  0
 36 38  1  0  0  0  0
 37 40  1  0  0  0  0
 37 36  2  0  0  0  0
 38 39  2  0  0  0  0
 40 35  2  0  0  0  0
 41 43  2  0  0  0  0
 42 43  1  0  0  0  0
 43 37  1  0  0  0  0
M  END
>  <MODEL>
8

>  <REMARK>
 VINA RESULT:     -10.7      2.414      6.246
  Name = 
  9 active torsions:
  status: ('A' for Active; 'I' for Inactive)
    1  A    between atoms: C_2  and  O_43
    2  A    between atoms: C_3  and  N_10
    3  A    between atoms: C_6  and  C_36
    4  A    between atoms: C_11  and  O_43
    5  A    between atoms: C_18  and  C_31
    6  A    between atoms: C_19  and  C_32
    7  A    between atoms: C_20  and  C_38
    8  A    between atoms: N_22  and  O_35
    9  A    between atoms: C_31  and  O_35
                            x       y       z     vdW  Elec       q    Type
                         _______ _______ _______ _____ _____    ______ ____

>  <TORSDO>
F 9

$$$$
=
 OpenBabel11042412533D

 43 48  0  0  1  0  0  0  0  0999 V2000
  186.5000  178.5680  142.3810 C   0  0  0  0  0  0  0  0  0  0  0  0
  189.9300  177.6020  140.0350 C   0  0  0  0  0  0  0  0  0  0  0  0
  186.5310  178.3130  143.7890 C   0  0  0  0  0  0  0  0  0  0  0  0
  189.9080  177.3740  141.4220 C   0  0  0  0  0  3  0  0  0  0  0  0
  188.7860  177.4030  143.5480 C   0  0  0  0  0  3  0  0  0  0  0  0
  184.5550  178.6270  146.9660 O   0  0  0  0  0  1  0  0  0  0  0  0
  187.6320  178.2300  141.5830 C   0  0  0  0  0  0  0  0  0  0  0  0
  185.5750  178.3390  146.0590 C   0  0  0  0  0  0  0  0  0  0  0  0
  188.7920  178.1190  139.4230 C   0  0  0  0  0  3  0  0  0  0  0  0
  185.4590  178.6560  144.6800 C   0  0  0  0  0  0  0  0  0  0  0  0
  187.6930  177.7100  144.3450 C   0  0  0  0  0  0  0  0  0  0  0  0
  188.7770  177.6670  142.1850 C   0  0  0  0  0  0  0  0  0  0  0  0
  187.7750  177.4180  145.7020 C   0  0  0  0  0  3  0  0  0  0  0  0
  187.6540  178.4250  140.1880 C   0  0  0  0  0  3  0  0  0  0  0  0
  186.7240  177.7260  146.5500 C   0  0  0  0  0  3  0  0  0  0  0  0
  191.1090  177.4280  139.2460 N   0  0  0  0  0  0  0  0  0  0  0  0
  191.4990  176.3410  138.6480 C   0  0  0  0  0  0  0  0  0  0  0  0
  192.7880  176.3700  137.9180 C   0  0  0  0  0  0  0  0  0  0  0  0
  193.8870  176.3800  138.5280 O   0  0  0  0  0  1  0  0  0  0  0  0
  192.7820  176.3780  136.5290 O   0  0  0  0  0  0  0  0  0  0  0  0
  190.6760  175.2020  138.6540 O   0  0  0  0  0  0  0  0  0  0  0  0
  188.3900  175.2540  137.0920 C   0  0  0  0  0  2  0  0  0  0  0  0
  187.6770  174.6600  134.8750 O   0  0  0  0  0  0  0  0  0  0  0  0
  189.4950  173.3270  135.6950 C   0  0  0  0  0  2  0  0  0  0  0  0
  190.6000  174.3210  137.5930 N   0  0  0  0  0  0  0  0  0  0  0  0
  189.5200  174.2670  136.8650 C   0  0  0  0  0  0  0  0  0  0  0  0
  188.1420  173.3370  135.0200 C   0  0  0  0  0  2  0  0  0  0  0  0
  187.2150  175.0160  136.1560 C   0  0  0  0  0  2  0  0  0  0  0  0
  182.9840  178.9480  144.3370 C   0  0  0  0  0  2  0  0  0  0  0  0
  184.2410  179.3460  144.1700 C   0  0  0  0  0  3  0  0  0  0  0  0
  185.3370  179.1270  141.8110 O   0  0  0  0  0  0  0  0  0  0  0  0
  183.7290  177.5620  140.9690 C   0  0  0  0  0  2  0  0  0  0  0  0
  184.7040  178.6710  140.6240 C   0  0  1  0  0  3  0  0  0  0  0  0
  183.2130  178.9730  140.7160 C   0  0  1  0  0  3  0  0  0  0  0  0
  182.6480  179.1170  139.3340 C   0  0  0  0  0  0  0  0  0  0  0  0
  181.4370  179.3270  136.8060 C   0  0  0  0  0  3  0  0  0  0  0  0
  182.3050  178.2540  137.0800 C   0  0  0  0  0  0  0  0  0  0  0  0
  181.1710  180.2850  137.7900 C   0  0  0  0  0  3  0  0  0  0  0  0
  181.7710  180.1780  139.0510 C   0  0  0  0  0  3  0  0  0  0  0  0
  182.9010  178.1530  138.3490 C   0  0  0  0  0  3  0  0  0  0  0  0
  181.5700  176.3210  135.7050 O   0  0  0  0  0  1  0  0  0  0  0  0
  183.6940  177.1770  135.4780 O   0  0  0  0  0  0  0  0  0  0  0  0
  182.5730  177.2280  136.0590 C   0  0  0  0  0  0  0  0  0  0  0  0
  1  3  1  0  0  0  0
  2  4  2  0  0  0  0
  3 11  2  0  0  0  0
  3 10  1  0  0  0  0
  4 12  1  0  0  0  0
  5 11  1  0  0  0  0
  7 12  1  0  0  0  0
  7  1  2  0  0  0  0
  8 15  1  0  0  0  0
  8  6  1  0  0  0  0
  9  2  1  0  0  0  0
  9 14  2  0  0  0  0
 10  8  2  0  0  0  0
 11 13  1  0  0  0  0
 12  5  2  0  0  0  0
 13 15  2  0  0  0  0
 14  7  1  0  0  0  0
 16  2  1  0  0  0  0
 17 21  1  0  0  0  0
 17 16  2  0  0  0  0
 18 19  1  0  0  0  0
 18 17  1  0  0  0  0
 20 18  2  0  0  0  0
 23 27  1  0  0  0  0
 23 28  1  0  0  0  0
 24 26  1  0  0  0  0
 25 21  1  0  0  0  0
 26 22  1  0  0  0  0
 26 25  2  0  0  0  0
 27 24  1  0  0  0  0
 28 22  1  0  0  0  0
 30 29  2  0  0  0  0
 30 10  1  0  0  0  0
 31  1  1  0  0  0  0
 33 34  1  0  0  0  0
 33 32  1  0  0  0  0
 33 31  1  1  0  0  0
 34 35  1  6  0  0  0
 34 32  1  0  0  0  0
 36 37  2  0  0  0  0
 36 38  1  0  0  0  0
 37 40  1  0  0  0  0
 38 39  2  0  0  0  0
 39 35  1  0  0  0  0
 40 35  2  0  0  0  0
 41 43  1  0  0  0  0
 42 43  2  0  0  0  0
 43 37  1  0  0  0  0
M  END
>  <MODEL>
9

>  <REMARK>
 VINA RESULT:     -10.1      3.378      7.455
  Name = 
  9 active torsions:
  status: ('A' for Active; 'I' for Inactive)
    1  A    between atoms: C_2  and  O_43
    2  A    between atoms: C_3  and  N_10
    3  A    between atoms: C_6  and  C_36
    4  A    between atoms: C_11  and  O_43
    5  A    between atoms: C_18  and  C_31
    6  A    between atoms: C_19  and  C_32
    7  A    between atoms: C_20  and  C_38
    8  A    between atoms: N_22  and  O_35
    9  A    between atoms: C_31  and  O_35
                            x       y       z     vdW  Elec       q    Type
                         _______ _______ _______ _____ _____    ______ ____

>  <TORSDO>
F 9

$$$$
