=
 OpenBabel11042410243D

 29 32  0  0  1  0  0  0  0  0999 V2000
  190.0590  177.3070  144.7250 C   0  0  0  0  0  3  0  0  0  0  0  0
  188.6200  177.6480  146.6450 C   0  0  0  0  0  0  0  0  0  0  0  0
  186.2310  177.3440  143.3700 S   0  0  0  0  0  0  0  0  0  0  0  0
  187.5030  177.6750  145.8040 C   0  0  0  0  0  3  0  0  0  0  0  0
  189.8960  177.4460  146.1080 C   0  0  0  0  0  3  0  0  0  0  0  0
  188.1930  178.0220  141.5810 C   0  0  2  0  0  3  0  0  0  0  0  0
  186.9290  178.2630  141.9830 C   0  0  1  0  0  3  0  0  0  0  0  0
  188.9460  177.3550  143.8810 C   0  0  0  0  0  0  0  0  0  0  0  0
  187.6660  177.5240  144.4240 C   0  0  0  0  0  0  0  0  0  0  0  0
  189.1350  177.3930  142.4630 N   0  0  0  0  0  2  0  0  0  0  0  0
  188.4560  177.8030  148.0620 C   0  0  0  0  0  0  0  0  0  0  0  0
  188.3230  177.9270  149.2060 N   0  0  0  0  0  0  0  0  0  0  0  0
  186.0190  179.1530  141.1930 C   0  0  2  0  0  3  0  0  0  0  0  0
  185.3980  180.0620  142.0320 F   0  0  0  0  0  0  0  0  0  0  0  0
  184.9810  178.3260  140.4480 C   0  0  0  0  0  2  0  0  0  0  0  0
  184.8020  178.8360  139.0290 C   0  0  0  0  0  2  0  0  0  0  0  0
  182.9370  180.0140  138.9440 C   0  0  0  0  0  1  0  0  0  0  0  0
  184.3210  180.1470  139.0470 O   0  0  0  0  0  0  0  0  0  0  0  0
  188.7120  178.5680  140.2840 C   0  0  0  0  0  2  0  0  0  0  0  0
  190.1630  176.8220  139.2190 C   0  0  0  0  0  3  0  0  0  0  0  0
  189.8080  174.2480  136.3850 S   0  0  0  0  0  0  0  0  0  0  0  0
  191.3430  174.2130  137.1000 C   0  0  0  0  0  0  0  0  0  0  0  0
  192.3850  173.3320  136.7000 N   0  0  0  0  0  1  0  0  0  0  0  0
  190.3370  175.8180  138.2690 C   0  0  0  0  0  0  0  0  0  0  0  0
  189.3010  175.4770  137.4100 C   0  0  0  0  0  0  0  0  0  0  0  0
  187.8760  177.1170  138.4140 C   0  0  0  0  0  3  0  0  0  0  0  0
  191.4840  175.1130  138.1010 N   0  0  0  0  0  0  0  0  0  0  0  0
  188.0600  176.1060  137.4590 C   0  0  0  0  0  3  0  0  0  0  0  0
  188.9190  177.4730  139.2940 C   0  0  0  0  0  0  0  0  0  0  0  0
  1  5  1  0  0  0  0
  2 11  1  0  0  0  0
  3  9  1  0  0  0  0
  4  2  1  0  0  0  0
  5  2  2  0  0  0  0
  6 19  1  1  0  0  0
  6  7  1  0  0  0  0
  6 10  1  0  0  0  0
  7 13  1  6  0  0  0
  7  3  1  0  0  0  0
  8  9  1  0  0  0  0
  8  1  2  0  0  0  0
  9  4  2  0  0  0  0
 10  8  1  0  0  0  0
 11 12  3  0  0  0  0
 13 14  1  1  0  0  0
 15 13  1  0  0  0  0
 16 18  1  0  0  0  0
 16 15  1  0  0  0  0
 17 18  1  0  0  0  0
 20 29  1  0  0  0  0
 21 22  1  0  0  0  0
 21 25  1  0  0  0  0
 22 27  2  0  0  0  0
 23 22  1  0  0  0  0
 24 20  2  0  0  0  0
 25 28  2  0  0  0  0
 25 24  1  0  0  0  0
 26 29  2  0  0  0  0
 27 24  1  0  0  0  0
 28 26  1  0  0  0  0
 29 19  1  0  0  0  0
M  END
>  <MODEL>
1

>  <REMARK>
 VINA RESULT:      -7.2      0.000      0.000
  Name = 
  7 active torsions:
  status: ('A' for Active; 'I' for Inactive)
    1  A    between atoms: C_2  and  C_5
    2  A    between atoms: C_7  and  C_21
    3  A    between atoms: C_7  and  O_28
    4  A    between atoms: C_12  and  C_16
    5  A    between atoms: C_12  and  C_29
    6  A    between atoms: C_13  and  C_18
    7  A    between atoms: C_13  and  C_21
                            x       y       z     vdW  Elec       q    Type
                         _______ _______ _______ _____ _____    ______ ____

>  <TORSDO>
F 7

$$$$
=
 OpenBabel11042410243D

 29 32  0  0  1  0  0  0  0  0999 V2000
  184.1270  177.8940  141.2170 C   0  0  0  0  0  3  0  0  0  0  0  0
  181.9560  178.7400  141.8840 C   0  0  0  0  0  0  0  0  0  0  0  0
  184.5900  179.6730  144.8370 S   0  0  0  0  0  0  0  0  0  0  0  0
  182.4960  179.1640  143.1030 C   0  0  0  0  0  3  0  0  0  0  0  0
  182.7760  178.1220  140.9340 C   0  0  0  0  0  3  0  0  0  0  0  0
  186.4020  177.7320  144.1620 C   0  0  2  0  0  3  0  0  0  0  0  0
  185.6970  178.2870  145.1670 C   0  0  1  0  0  3  0  0  0  0  0  0
  184.6630  178.2980  142.4420 C   0  0  0  0  0  0  0  0  0  0  0  0
  183.8490  178.9480  143.3790 C   0  0  0  0  0  0  0  0  0  0  0  0
  185.9930  177.9040  142.7970 N   0  0  0  0  0  2  0  0  0  0  0  0
  180.5680  178.9610  141.5980 C   0  0  0  0  0  0  0  0  0  0  0  0
  179.4470  179.1400  141.3670 N   0  0  0  0  0  0  0  0  0  0  0  0
  185.9400  177.9000  146.5940 C   0  0  2  0  0  3  0  0  0  0  0  0
  184.8270  178.1940  147.3620 F   0  0  0  0  0  0  0  0  0  0  0  0
  187.1650  178.6190  147.1390 C   0  0  0  0  0  2  0  0  0  0  0  0
  187.7190  177.8950  148.3540 C   0  0  0  0  0  2  0  0  0  0  0  0
  189.7440  177.3490  147.6640 C   0  0  0  0  0  1  0  0  0  0  0  0
  189.0680  178.2100  148.5270 O   0  0  0  0  0  0  0  0  0  0  0  0
  187.5150  176.7650  144.4370 C   0  0  0  0  0  2  0  0  0  0  0  0
  188.7750  176.5160  142.2830 C   0  0  0  0  0  3  0  0  0  0  0  0
  192.1390  177.7220  140.8620 S   0  0  0  0  0  0  0  0  0  0  0  0
  191.2810  176.7610  139.7630 C   0  0  0  0  0  0  0  0  0  0  0  0
  191.7490  176.4350  138.4600 N   0  0  0  0  0  1  0  0  0  0  0  0
  189.9020  176.7890  141.5090 C   0  0  0  0  0  0  0  0  0  0  0  0
  190.9270  177.5770  142.0150 C   0  0  0  0  0  0  0  0  0  0  0  0
  189.7460  177.8590  144.0780 C   0  0  0  0  0  3  0  0  0  0  0  0
  190.0940  176.3290  140.2470 N   0  0  0  0  0  0  0  0  0  0  0  0
  190.8770  178.1270  143.2920 C   0  0  0  0  0  3  0  0  0  0  0  0
  188.6970  177.0610  143.5770 C   0  0  0  0  0  0  0  0  0  0  0  0
  1  8  1  0  0  0  0
  2  4  2  0  0  0  0
  3  7  1  0  0  0  0
  4  9  1  0  0  0  0
  5  1  2  0  0  0  0
  5  2  1  0  0  0  0
  6 19  1  1  0  0  0
  6  7  1  0  0  0  0
  7 13  1  1  0  0  0
  8 10  1  0  0  0  0
  8  9  2  0  0  0  0
  9  3  1  0  0  0  0
 10  6  1  0  0  0  0
 11  2  1  0  0  0  0
 12 11  3  0  0  0  0
 13 15  1  0  0  0  0
 13 14  1  1  0  0  0
 15 16  1  0  0  0  0
 16 18  1  0  0  0  0
 17 18  1  0  0  0  0
 20 29  1  0  0  0  0
 21 25  1  0  0  0  0
 22 27  2  0  0  0  0
 22 21  1  0  0  0  0
 23 22  1  0  0  0  0
 24 25  1  0  0  0  0
 24 20  2  0  0  0  0
 25 28  2  0  0  0  0
 27 24  1  0  0  0  0
 28 26  1  0  0  0  0
 29 26  2  0  0  0  0
 29 19  1  0  0  0  0
M  END
>  <MODEL>
2

>  <REMARK>
 VINA RESULT:      -7.2      3.754      6.585
  Name = 
  7 active torsions:
  status: ('A' for Active; 'I' for Inactive)
    1  A    between atoms: C_2  and  C_5
    2  A    between atoms: C_7  and  C_21
    3  A    between atoms: C_7  and  O_28
    4  A    between atoms: C_12  and  C_16
    5  A    between atoms: C_12  and  C_29
    6  A    between atoms: C_13  and  C_18
    7  A    between atoms: C_13  and  C_21
                            x       y       z     vdW  Elec       q    Type
                         _______ _______ _______ _____ _____    ______ ____

>  <TORSDO>
F 7

$$$$
=
 OpenBabel11042410243D

 29 32  0  0  1  0  0  0  0  0999 V2000
  188.6370  178.3090  141.4690 C   0  0  0  0  0  3  0  0  0  0  0  0
  188.9360  177.6630  139.1520 C   0  0  0  0  0  0  0  0  0  0  0  0
  185.1120  178.9760  139.5670 S   0  0  0  0  0  0  0  0  0  0  0  0
  187.5910  177.9480  138.8990 C   0  0  0  0  0  3  0  0  0  0  0  0
  189.4640  177.8600  140.4330 C   0  0  0  0  0  3  0  0  0  0  0  0
  185.0080  178.5560  142.2740 C   0  0  2  0  0  3  0  0  0  0  0  0
  184.3840  178.3520  141.0960 C   0  0  1  0  0  3  0  0  0  0  0  0
  187.2870  178.5750  141.2220 C   0  0  0  0  0  0  0  0  0  0  0  0
  186.7690  178.4090  139.9310 C   0  0  0  0  0  0  0  0  0  0  0  0
  186.4110  178.8590  142.3170 N   0  0  0  0  0  2  0  0  0  0  0  0
  189.7820  177.1900  138.0940 C   0  0  0  0  0  0  0  0  0  0  0  0
  190.4650  176.8090  137.2390 N   0  0  0  0  0  0  0  0  0  0  0  0
  183.0040  177.7710  141.0380 C   0  0  2  0  0  3  0  0  0  0  0  0
  182.9840  176.6800  140.1880 F   0  0  0  0  0  0  0  0  0  0  0  0
  182.0050  178.8220  140.5760 C   0  0  0  0  0  2  0  0  0  0  0  0
  180.7970  178.8580  141.4960 C   0  0  0  0  0  2  0  0  0  0  0  0
  180.4600  178.6440  143.6670 C   0  0  0  0  0  1  0  0  0  0  0  0
  181.1490  179.4120  142.7290 O   0  0  0  0  0  0  0  0  0  0  0  0
  184.3140  178.2870  143.5760 C   0  0  0  0  0  2  0  0  0  0  0  0
  186.5180  177.5970  144.5530 C   0  0  0  0  0  3  0  0  0  0  0  0
  188.3250  178.0010  147.9230 S   0  0  0  0  0  0  0  0  0  0  0  0
  189.2380  177.1180  146.8030 C   0  0  0  0  0  0  0  0  0  0  0  0
  190.5290  176.5850  147.0740 N   0  0  0  0  0  1  0  0  0  0  0  0
  187.4040  177.5750  145.6290 C   0  0  0  0  0  0  0  0  0  0  0  0
  187.0720  178.1990  146.8240 C   0  0  0  0  0  0  0  0  0  0  0  0
  184.9680  178.8980  145.9210 C   0  0  0  0  0  3  0  0  0  0  0  0
  188.6170  176.9680  145.6100 N   0  0  0  0  0  0  0  0  0  0  0  0
  185.8650  178.8700  147.0000 C   0  0  0  0  0  3  0  0  0  0  0  0
  185.2920  178.2690  144.7020 C   0  0  0  0  0  0  0  0  0  0  0  0
  2  5  1  0  0  0  0
  3  9  1  0  0  0  0
  3  7  1  0  0  0  0
  4  2  2  0  0  0  0
  4  9  1  0  0  0  0
  5  1  2  0  0  0  0
  6 10  1  0  0  0  0
  6 19  1  1  0  0  0
  7 13  1  1  0  0  0
  7  6  1  0  0  0  0
  8  1  1  0  0  0  0
  8 10  1  0  0  0  0
  9  8  2  0  0  0  0
 11  2  1  0  0  0  0
 12 11  3  0  0  0  0
 13 14  1  6  0  0  0
 15 13  1  0  0  0  0
 15 16  1  0  0  0  0
 16 18  1  0  0  0  0
 18 17  1  0  0  0  0
 19 29  1  0  0  0  0
 20 29  2  0  0  0  0
 20 24  1  0  0  0  0
 22 23  1  0  0  0  0
 22 21  1  0  0  0  0
 24 25  2  0  0  0  0
 25 28  1  0  0  0  0
 25 21  1  0  0  0  0
 26 28  2  0  0  0  0
 27 24  1  0  0  0  0
 27 22  2  0  0  0  0
 29 26  1  0  0  0  0
M  END
>  <MODEL>
3

>  <REMARK>
 VINA RESULT:      -7.2      2.756      7.186
  Name = 
  7 active torsions:
  status: ('A' for Active; 'I' for Inactive)
    1  A    between atoms: C_2  and  C_5
    2  A    between atoms: C_7  and  C_21
    3  A    between atoms: C_7  and  O_28
    4  A    between atoms: C_12  and  C_16
    5  A    between atoms: C_12  and  C_29
    6  A    between atoms: C_13  and  C_18
    7  A    between atoms: C_13  and  C_21
                            x       y       z     vdW  Elec       q    Type
                         _______ _______ _______ _____ _____    ______ ____

>  <TORSDO>
F 7

$$$$
=
 OpenBabel11042410243D

 29 32  0  0  1  0  0  0  0  0999 V2000
  184.1690  178.2520  142.2260 C   0  0  0  0  0  3  0  0  0  0  0  0
  182.2940  178.7890  143.6640 C   0  0  0  0  0  0  0  0  0  0  0  0
  185.6880  179.3140  145.8390 S   0  0  0  0  0  0  0  0  0  0  0  0
  183.1730  179.0040  144.7300 C   0  0  0  0  0  3  0  0  0  0  0  0
  182.7940  178.4320  142.4070 C   0  0  0  0  0  3  0  0  0  0  0  0
  187.2310  177.6810  144.2690 C   0  0  2  0  0  3  0  0  0  0  0  0
  186.8570  177.9740  145.5310 C   0  0  1  0  0  3  0  0  0  0  0  0
  185.0480  178.4450  143.2960 C   0  0  0  0  0  0  0  0  0  0  0  0
  184.5480  178.8370  144.5450 C   0  0  0  0  0  0  0  0  0  0  0  0
  186.4260  178.0880  143.1530 N   0  0  0  0  0  2  0  0  0  0  0  0
  180.8820  178.9610  143.8520 C   0  0  0  0  0  0  0  0  0  0  0  0
  179.7420  179.0990  144.0040 N   0  0  0  0  0  0  0  0  0  0  0  0
  187.5250  177.3320  146.7090 C   0  0  2  0  0  3  0  0  0  0  0  0
  186.7880  177.5640  147.8570 F   0  0  0  0  0  0  0  0  0  0  0  0
  188.9410  177.8640  146.8720 C   0  0  0  0  0  2  0  0  0  0  0  0
  189.8790  176.7660  147.3440 C   0  0  0  0  0  2  0  0  0  0  0  0
  191.9400  175.9800  147.2900 C   0  0  0  0  0  1  0  0  0  0  0  0
  191.0370  176.7560  146.5650 O   0  0  0  0  0  0  0  0  0  0  0  0
  188.3850  176.7630  143.9960 C   0  0  0  0  0  2  0  0  0  0  0  0
  188.1870  177.7440  141.6970 C   0  0  0  0  0  3  0  0  0  0  0  0
  190.2650  177.7150  138.4620 S   0  0  0  0  0  0  0  0  0  0  0  0
  188.8350  178.6090  138.3020 C   0  0  0  0  0  0  0  0  0  0  0  0
  188.4440  179.2750  137.1090 N   0  0  0  0  0  1  0  0  0  0  0  0
  188.7010  177.9160  140.4130 C   0  0  0  0  0  0  0  0  0  0  0  0
  189.9130  177.3390  140.0590 C   0  0  0  0  0  0  0  0  0  0  0  0
  190.1520  176.4020  142.2500 C   0  0  0  0  0  3  0  0  0  0  0  0
  188.0920  178.6300  139.4330 N   0  0  0  0  0  0  0  0  0  0  0  0
  190.6620  176.5790  140.9540 C   0  0  0  0  0  3  0  0  0  0  0  0
  188.9230  176.9840  142.6230 C   0  0  0  0  0  0  0  0  0  0  0  0
  1  5  2  0  0  0  0
  1  8  1  0  0  0  0
  2 11  1  0  0  0  0
  2  4  2  0  0  0  0
  5  2  1  0  0  0  0
  6 19  1  1  0  0  0
  6  7  1  0  0  0  0
  7  3  1  0  0  0  0
  7 13  1  1  0  0  0
  8  9  2  0  0  0  0
  9  4  1  0  0  0  0
  9  3  1  0  0  0  0
 10  8  1  0  0  0  0
 10  6  1  0  0  0  0
 11 12  3  0  0  0  0
 13 15  1  0  0  0  0
 13 14  1  1  0  0  0
 15 16  1  0  0  0  0
 18 17  1  0  0  0  0
 18 16  1  0  0  0  0
 20 29  1  0  0  0  0
 21 25  1  0  0  0  0
 22 21  1  0  0  0  0
 22 27  2  0  0  0  0
 23 22  1  0  0  0  0
 24 20  2  0  0  0  0
 25 24  1  0  0  0  0
 25 28  2  0  0  0  0
 26 29  2  0  0  0  0
 27 24  1  0  0  0  0
 28 26  1  0  0  0  0
 29 19  1  0  0  0  0
M  END
>  <MODEL>
4

>  <REMARK>
 VINA RESULT:      -7.2      3.921      6.328
  Name = 
  7 active torsions:
  status: ('A' for Active; 'I' for Inactive)
    1  A    between atoms: C_2  and  C_5
    2  A    between atoms: C_7  and  C_21
    3  A    between atoms: C_7  and  O_28
    4  A    between atoms: C_12  and  C_16
    5  A    between atoms: C_12  and  C_29
    6  A    between atoms: C_13  and  C_18
    7  A    between atoms: C_13  and  C_21
                            x       y       z     vdW  Elec       q    Type
                         _______ _______ _______ _____ _____    ______ ____

>  <TORSDO>
F 7

$$$$
=
 OpenBabel11042410243D

 29 32  0  0  1  0  0  0  0  0999 V2000
  188.5490  178.3900  141.3230 C   0  0  0  0  0  3  0  0  0  0  0  0
  188.8880  177.6930  139.0270 C   0  0  0  0  0  0  0  0  0  0  0  0
  185.0360  178.9470  139.3650 S   0  0  0  0  0  0  0  0  0  0  0  0
  187.5410  177.9480  138.7500 C   0  0  0  0  0  3  0  0  0  0  0  0
  189.3960  177.9310  140.3080 C   0  0  0  0  0  3  0  0  0  0  0  0
  184.9070  178.5910  142.0790 C   0  0  2  0  0  3  0  0  0  0  0  0
  184.3010  178.3480  140.9000 C   0  0  1  0  0  3  0  0  0  0  0  0
  187.1980  178.6260  141.0540 C   0  0  0  0  0  0  0  0  0  0  0  0
  186.6990  178.4190  139.7620 C   0  0  0  0  0  0  0  0  0  0  0  0
  186.3030  178.9210  142.1320 N   0  0  0  0  0  2  0  0  0  0  0  0
  189.7550  177.2100  137.9900 C   0  0  0  0  0  0  0  0  0  0  0  0
  190.4540  176.8200  137.1540 N   0  0  0  0  0  0  0  0  0  0  0  0
  182.9320  177.7410  140.8400 C   0  0  2  0  0  3  0  0  0  0  0  0
  182.9720  176.5480  140.1410 F   0  0  0  0  0  0  0  0  0  0  0  0
  181.9520  178.7050  140.1870 C   0  0  0  0  0  2  0  0  0  0  0  0
  181.2300  178.0380  139.0290 C   0  0  0  0  0  2  0  0  0  0  0  0
  182.2110  177.7870  137.0680 C   0  0  0  0  0  1  0  0  0  0  0  0
  181.5080  178.7120  137.8380 O   0  0  0  0  0  0  0  0  0  0  0  0
  184.2020  178.3420  143.3790 C   0  0  0  0  0  2  0  0  0  0  0  0
  186.4050  177.6440  144.3530 C   0  0  0  0  0  3  0  0  0  0  0  0
  188.1950  177.9890  147.7390 S   0  0  0  0  0  0  0  0  0  0  0  0
  189.1180  177.1350  146.6050 C   0  0  0  0  0  0  0  0  0  0  0  0
  190.4100  176.6030  146.8710 N   0  0  0  0  0  1  0  0  0  0  0  0
  187.2860  177.6050  145.4320 C   0  0  0  0  0  0  0  0  0  0  0  0
  186.9460  178.2030  146.6380 C   0  0  0  0  0  0  0  0  0  0  0  0
  184.8410  178.9080  145.7400 C   0  0  0  0  0  3  0  0  0  0  0  0
  188.5030  177.0050  145.4060 N   0  0  0  0  0  0  0  0  0  0  0  0
  185.7340  178.8630  146.8220 C   0  0  0  0  0  3  0  0  0  0  0  0
  185.1750  178.3060  144.5100 C   0  0  0  0  0  0  0  0  0  0  0  0
  2  5  1  0  0  0  0
  3  9  1  0  0  0  0
  3  7  1  0  0  0  0
  4  2  2  0  0  0  0
  4  9  1  0  0  0  0
  5  1  2  0  0  0  0
  6 10  1  0  0  0  0
  6 19  1  1  0  0  0
  7 13  1  1  0  0  0
  7  6  1  0  0  0  0
  8  1  1  0  0  0  0
  8 10  1  0  0  0  0
  9  8  2  0  0  0  0
 11  2  1  0  0  0  0
 12 11  3  0  0  0  0
 13 14  1  6  0  0  0
 15 13  1  0  0  0  0
 16 15  1  0  0  0  0
 17 18  1  0  0  0  0
 18 16  1  0  0  0  0
 19 29  1  0  0  0  0
 20 29  2  0  0  0  0
 20 24  1  0  0  0  0
 22 23  1  0  0  0  0
 22 21  1  0  0  0  0
 24 25  2  0  0  0  0
 25 28  1  0  0  0  0
 25 21  1  0  0  0  0
 26 28  2  0  0  0  0
 27 24  1  0  0  0  0
 27 22  2  0  0  0  0
 29 26  1  0  0  0  0
M  END
>  <MODEL>
5

>  <REMARK>
 VINA RESULT:      -6.9      2.643      7.069
  Name = 
  7 active torsions:
  status: ('A' for Active; 'I' for Inactive)
    1  A    between atoms: C_2  and  C_5
    2  A    between atoms: C_7  and  C_21
    3  A    between atoms: C_7  and  O_28
    4  A    between atoms: C_12  and  C_16
    5  A    between atoms: C_12  and  C_29
    6  A    between atoms: C_13  and  C_18
    7  A    between atoms: C_13  and  C_21
                            x       y       z     vdW  Elec       q    Type
                         _______ _______ _______ _____ _____    ______ ____

>  <TORSDO>
F 7

$$$$
=
 OpenBabel11042410243D

 29 32  0  0  1  0  0  0  0  0999 V2000
  190.1660  177.3110  144.6990 C   0  0  0  0  0  3  0  0  0  0  0  0
  188.7940  177.6420  146.6690 C   0  0  0  0  0  0  0  0  0  0  0  0
  186.2970  177.4230  143.4680 S   0  0  0  0  0  0  0  0  0  0  0  0
  187.6510  177.6980  145.8640 C   0  0  0  0  0  3  0  0  0  0  0  0
  190.0490  177.4310  146.0880 C   0  0  0  0  0  3  0  0  0  0  0  0
  188.2110  178.1010  141.6270 C   0  0  2  0  0  3  0  0  0  0  0  0
  186.9640  178.3530  142.0730 C   0  0  1  0  0  3  0  0  0  0  0  0
  189.0280  177.3880  143.8910 C   0  0  0  0  0  0  0  0  0  0  0  0
  187.7680  177.5660  144.4780 C   0  0  0  0  0  0  0  0  0  0  0  0
  189.1720  177.4450  142.4690 N   0  0  0  0  0  2  0  0  0  0  0  0
  188.6770  177.7770  148.0930 C   0  0  0  0  0  0  0  0  0  0  0  0
  188.5820  177.8860  149.2420 N   0  0  0  0  0  0  0  0  0  0  0  0
  186.0420  179.2680  141.3260 C   0  0  2  0  0  3  0  0  0  0  0  0
  185.3850  180.1050  142.2110 F   0  0  0  0  0  0  0  0  0  0  0  0
  185.0380  178.4630  140.5140 C   0  0  0  0  0  2  0  0  0  0  0  0
  184.9550  178.9860  139.0900 C   0  0  0  0  0  2  0  0  0  0  0  0
  182.9050  179.7150  139.4580 C   0  0  0  0  0  1  0  0  0  0  0  0
  184.1670  180.1370  139.0460 O   0  0  0  0  0  0  0  0  0  0  0  0
  188.6970  178.6600  140.3230 C   0  0  0  0  0  2  0  0  0  0  0  0
  188.2610  177.0140  138.4820 C   0  0  0  0  0  3  0  0  0  0  0  0
  190.2460  174.2620  136.6720 S   0  0  0  0  0  0  0  0  0  0  0  0
  188.6600  174.4010  136.0940 C   0  0  0  0  0  0  0  0  0  0  0  0
  188.1200  173.5930  135.0560 N   0  0  0  0  0  1  0  0  0  0  0  0
  188.7080  175.9780  137.6620 C   0  0  0  0  0  0  0  0  0  0  0  0
  190.0060  175.5020  137.7780 C   0  0  0  0  0  0  0  0  0  0  0  0
  190.4700  177.0730  139.5240 C   0  0  0  0  0  3  0  0  0  0  0  0
  187.9480  175.3660  136.7200 N   0  0  0  0  0  0  0  0  0  0  0  0
  190.9100  176.0290  138.6960 C   0  0  0  0  0  3  0  0  0  0  0  0
  189.1540  177.5680  139.4170 C   0  0  0  0  0  0  0  0  0  0  0  0
  1  5  1  0  0  0  0
  2 11  1  0  0  0  0
  3  9  1  0  0  0  0
  4  2  1  0  0  0  0
  5  2  2  0  0  0  0
  6 19  1  1  0  0  0
  6  7  1  0  0  0  0
  6 10  1  0  0  0  0
  7 13  1  6  0  0  0
  7  3  1  0  0  0  0
  8  9  1  0  0  0  0
  8  1  2  0  0  0  0
  9  4  2  0  0  0  0
 10  8  1  0  0  0  0
 11 12  3  0  0  0  0
 13 14  1  1  0  0  0
 15 13  1  0  0  0  0
 16 15  1  0  0  0  0
 18 16  1  0  0  0  0
 18 17  1  0  0  0  0
 20 29  1  0  0  0  0
 21 25  1  0  0  0  0
 22 21  1  0  0  0  0
 22 27  2  0  0  0  0
 23 22  1  0  0  0  0
 24 25  1  0  0  0  0
 24 20  2  0  0  0  0
 25 28  2  0  0  0  0
 27 24  1  0  0  0  0
 28 26  1  0  0  0  0
 29 26  2  0  0  0  0
 29 19  1  0  0  0  0
M  END
>  <MODEL>
6

>  <REMARK>
 VINA RESULT:      -6.7      1.210      1.558
  Name = 
  7 active torsions:
  status: ('A' for Active; 'I' for Inactive)
    1  A    between atoms: C_2  and  C_5
    2  A    between atoms: C_7  and  C_21
    3  A    between atoms: C_7  and  O_28
    4  A    between atoms: C_12  and  C_16
    5  A    between atoms: C_12  and  C_29
    6  A    between atoms: C_13  and  C_18
    7  A    between atoms: C_13  and  C_21
                            x       y       z     vdW  Elec       q    Type
                         _______ _______ _______ _____ _____    ______ ____

>  <TORSDO>
F 7

$$$$
=
 OpenBabel11042410243D

 29 32  0  0  1  0  0  0  0  0999 V2000
  184.1980  179.0620  139.5750 C   0  0  0  0  0  3  0  0  0  0  0  0
  182.2920  178.3550  140.8940 C   0  0  0  0  0  0  0  0  0  0  0  0
  185.4460  178.7540  143.4270 S   0  0  0  0  0  0  0  0  0  0  0  0
  183.1000  178.2990  142.0330 C   0  0  0  0  0  3  0  0  0  0  0  0
  182.8360  178.7550  139.6690 C   0  0  0  0  0  3  0  0  0  0  0  0
  187.3520  178.4990  141.4750 C   0  0  2  0  0  3  0  0  0  0  0  0
  186.9470  178.0770  142.6900 C   0  0  1  0  0  3  0  0  0  0  0  0
  185.0130  178.9860  140.7080 C   0  0  0  0  0  0  0  0  0  0  0  0
  184.4580  178.6190  141.9410 C   0  0  0  0  0  0  0  0  0  0  0  0
  186.4300  179.1260  140.5710 N   0  0  0  0  0  2  0  0  0  0  0  0
  180.8980  178.0280  140.9860 C   0  0  0  0  0  0  0  0  0  0  0  0
  179.7720  177.7640  141.0600 N   0  0  0  0  0  0  0  0  0  0  0  0
  187.8080  177.1850  143.5300 C   0  0  2  0  0  3  0  0  0  0  0  0
  187.5710  175.8590  143.2130 F   0  0  0  0  0  0  0  0  0  0  0  0
  187.5450  177.4310  145.0090 C   0  0  0  0  0  2  0  0  0  0  0  0
  188.8480  177.4860  145.7870 C   0  0  0  0  0  2  0  0  0  0  0  0
  187.7950  177.8700  147.6890 C   0  0  0  0  0  1  0  0  0  0  0  0
  188.6630  176.9710  147.0710 O   0  0  0  0  0  0  0  0  0  0  0  0
  188.7160  178.1590  140.9520 C   0  0  0  0  0  2  0  0  0  0  0  0
  188.3040  176.7110  138.9470 C   0  0  0  0  0  3  0  0  0  0  0  0
  188.5770  177.0860  135.1290 S   0  0  0  0  0  0  0  0  0  0  0  0
  188.0570  175.5420  135.5910 C   0  0  0  0  0  0  0  0  0  0  0  0
  187.7540  174.4990  134.6720 N   0  0  0  0  0  1  0  0  0  0  0  0
  188.3030  176.5430  137.5630 C   0  0  0  0  0  0  0  0  0  0  0  0
  188.6740  177.5880  136.7290 C   0  0  0  0  0  0  0  0  0  0  0  0
  189.0570  179.0110  138.6150 C   0  0  0  0  0  3  0  0  0  0  0  0
  187.9550  175.3930  136.9320 N   0  0  0  0  0  0  0  0  0  0  0  0
  189.0540  178.8320  137.2230 C   0  0  0  0  0  3  0  0  0  0  0  0
  188.6810  177.9580  139.4750 C   0  0  0  0  0  0  0  0  0  0  0  0
  1  5  2  0  0  0  0
  1  8  1  0  0  0  0
  2 11  1  0  0  0  0
  2  4  2  0  0  0  0
  5  2  1  0  0  0  0
  6 19  1  6  0  0  0
  6  7  1  0  0  0  0
  7  3  1  0  0  0  0
  7 13  1  1  0  0  0
  8  9  2  0  0  0  0
  9  4  1  0  0  0  0
  9  3  1  0  0  0  0
 10  8  1  0  0  0  0
 10  6  1  0  0  0  0
 11 12  3  0  0  0  0
 13 14  1  6  0  0  0
 13 15  1  0  0  0  0
 15 16  1  0  0  0  0
 16 18  1  0  0  0  0
 18 17  1  0  0  0  0
 20 29  1  0  0  0  0
 21 22  1  0  0  0  0
 21 25  1  0  0  0  0
 22 27  2  0  0  0  0
 23 22  1  0  0  0  0
 24 20  2  0  0  0  0
 25 28  2  0  0  0  0
 25 24  1  0  0  0  0
 26 29  2  0  0  0  0
 27 24  1  0  0  0  0
 28 26  1  0  0  0  0
 29 19  1  0  0  0  0
M  END
>  <MODEL>
7

>  <REMARK>
 VINA RESULT:      -6.5      3.357      5.863
  Name = 
  7 active torsions:
  status: ('A' for Active; 'I' for Inactive)
    1  A    between atoms: C_2  and  C_5
    2  A    between atoms: C_7  and  C_21
    3  A    between atoms: C_7  and  O_28
    4  A    between atoms: C_12  and  C_16
    5  A    between atoms: C_12  and  C_29
    6  A    between atoms: C_13  and  C_18
    7  A    between atoms: C_13  and  C_21
                            x       y       z     vdW  Elec       q    Type
                         _______ _______ _______ _____ _____    ______ ____

>  <TORSDO>
F 7

$$$$
=
 OpenBabel11042410243D

 29 32  0  0  1  0  0  0  0  0999 V2000
  187.6760  178.5060  140.5240 C   0  0  0  0  0  3  0  0  0  0  0  0
  189.9090  177.6770  140.9710 C   0  0  0  0  0  0  0  0  0  0  0  0
  187.5430  176.5420  144.0760 S   0  0  0  0  0  0  0  0  0  0  0  0
  189.4790  177.1830  142.2060 C   0  0  0  0  0  3  0  0  0  0  0  0
  189.0030  178.3230  140.1220 C   0  0  0  0  0  3  0  0  0  0  0  0
  185.6460  178.4730  143.6480 C   0  0  2  0  0  3  0  0  0  0  0  0
  186.4420  177.8860  144.5640 C   0  0  1  0  0  3  0  0  0  0  0  0
  187.2490  178.0310  141.7670 C   0  0  0  0  0  0  0  0  0  0  0  0
  188.1490  177.3550  142.6010 C   0  0  0  0  0  0  0  0  0  0  0  0
  185.9460  178.3770  142.2470 N   0  0  0  0  0  2  0  0  0  0  0  0
  191.2730  177.5010  140.5630 C   0  0  0  0  0  0  0  0  0  0  0  0
  192.3750  177.3600  140.2340 N   0  0  0  0  0  0  0  0  0  0  0  0
  186.3090  178.1980  146.0230 C   0  0  2  0  0  3  0  0  0  0  0  0
  186.4260  179.5610  146.2300 F   0  0  0  0  0  0  0  0  0  0  0  0
  187.3620  177.4480  146.8250 C   0  0  0  0  0  2  0  0  0  0  0  0
  187.7040  178.1980  148.1010 C   0  0  0  0  0  2  0  0  0  0  0  0
  189.5830  177.2460  147.4410 C   0  0  0  0  0  1  0  0  0  0  0  0
  189.0890  178.2510  148.2700 O   0  0  0  0  0  0  0  0  0  0  0  0
  184.5420  179.4000  144.0600 C   0  0  0  0  0  2  0  0  0  0  0  0
  183.2100  178.6700  142.0640 C   0  0  0  0  0  3  0  0  0  0  0  0
  179.5290  177.8510  141.3130 S   0  0  0  0  0  0  0  0  0  0  0  0
  180.5170  177.6930  139.9470 C   0  0  0  0  0  0  0  0  0  0  0  0
  180.0420  177.3020  138.6650 N   0  0  0  0  0  1  0  0  0  0  0  0
  181.9870  178.3190  141.4960 C   0  0  0  0  0  0  0  0  0  0  0  0
  180.8330  178.3040  142.2680 C   0  0  0  0  0  0  0  0  0  0  0  0
  182.0710  178.9790  144.2030 C   0  0  0  0  0  3  0  0  0  0  0  0
  181.8170  177.9770  140.1940 N   0  0  0  0  0  0  0  0  0  0  0  0
  180.8430  178.6260  143.6220 C   0  0  0  0  0  3  0  0  0  0  0  0
  183.2510  178.9980  143.4310 C   0  0  0  0  0  0  0  0  0  0  0  0
  1  8  1  0  0  0  0
  2  4  2  0  0  0  0
  3  7  1  0  0  0  0
  4  9  1  0  0  0  0
  5  1  2  0  0  0  0
  5  2  1  0  0  0  0
  6 19  1  1  0  0  0
  6  7  1  0  0  0  0
  7 13  1  1  0  0  0
  8 10  1  0  0  0  0
  8  9  2  0  0  0  0
  9  3  1  0  0  0  0
 10  6  1  0  0  0  0
 11  2  1  0  0  0  0
 12 11  3  0  0  0  0
 13 14  1  6  0  0  0
 13 15  1  0  0  0  0
 15 16  1  0  0  0  0
 16 18  1  0  0  0  0
 17 18  1  0  0  0  0
 20 29  1  0  0  0  0
 21 25  1  0  0  0  0
 22 27  2  0  0  0  0
 22 21  1  0  0  0  0
 23 22  1  0  0  0  0
 24 20  2  0  0  0  0
 24 25  1  0  0  0  0
 25 28  2  0  0  0  0
 27 24  1  0  0  0  0
 28 26  1  0  0  0  0
 29 19  1  0  0  0  0
 29 26  2  0  0  0  0
M  END
>  <MODEL>
8

>  <REMARK>
 VINA RESULT:      -6.5      4.166      7.865
  Name = 
  7 active torsions:
  status: ('A' for Active; 'I' for Inactive)
    1  A    between atoms: C_2  and  C_5
    2  A    between atoms: C_7  and  C_21
    3  A    between atoms: C_7  and  O_28
    4  A    between atoms: C_12  and  C_16
    5  A    between atoms: C_12  and  C_29
    6  A    between atoms: C_13  and  C_18
    7  A    between atoms: C_13  and  C_21
                            x       y       z     vdW  Elec       q    Type
                         _______ _______ _______ _____ _____    ______ ____

>  <TORSDO>
F 7

$$$$
=
 OpenBabel11042410243D

 29 32  0  0  1  0  0  0  0  0999 V2000
  183.8290  178.7980  145.3790 C   0  0  0  0  0  3  0  0  0  0  0  0
  186.1300  178.0370  145.3470 C   0  0  0  0  0  0  0  0  0  0  0  0
  185.1080  178.9930  141.5300 S   0  0  0  0  0  0  0  0  0  0  0  0
  186.1550  178.1730  143.9550 C   0  0  0  0  0  3  0  0  0  0  0  0
  184.9730  178.3680  146.0610 C   0  0  0  0  0  3  0  0  0  0  0  0
  182.4100  178.7390  141.9350 C   0  0  2  0  0  3  0  0  0  0  0  0
  183.4480  178.4000  141.1460 C   0  0  1  0  0  3  0  0  0  0  0  0
  183.8460  178.9140  143.9870 C   0  0  0  0  0  0  0  0  0  0  0  0
  185.0170  178.6160  143.2770 C   0  0  0  0  0  0  0  0  0  0  0  0
  182.6280  179.1810  143.2840 N   0  0  0  0  0  2  0  0  0  0  0  0
  187.2980  177.5830  146.0460 C   0  0  0  0  0  0  0  0  0  0  0  0
  188.2410  177.2170  146.6100 N   0  0  0  0  0  0  0  0  0  0  0  0
  183.2350  177.6840  139.8470 C   0  0  2  0  0  3  0  0  0  0  0  0
  183.0550  176.3320  140.0740 F   0  0  0  0  0  0  0  0  0  0  0  0
  184.4160  177.9130  138.9140 C   0  0  0  0  0  2  0  0  0  0  0  0
  184.1730  177.2580  137.5660 C   0  0  0  0  0  2  0  0  0  0  0  0
  186.0460  176.3400  136.8460 C   0  0  0  0  0  1  0  0  0  0  0  0
  185.2590  177.4830  136.7190 O   0  0  0  0  0  0  0  0  0  0  0  0
  180.9950  178.4880  141.5070 C   0  0  0  0  0  2  0  0  0  0  0  0
  180.8560  180.0600  139.5580 C   0  0  0  0  0  3  0  0  0  0  0  0
  178.9310  183.2750  138.6980 S   0  0  0  0  0  0  0  0  0  0  0  0
  179.9680  182.7910  137.4500 C   0  0  0  0  0  0  0  0  0  0  0  0
  180.1130  183.4920  136.2210 N   0  0  0  0  0  1  0  0  0  0  0  0
  180.3200  181.2050  138.9710 C   0  0  0  0  0  0  0  0  0  0  0  0
  179.3820  181.9690  139.6510 C   0  0  0  0  0  0  0  0  0  0  0  0
  179.4670  180.4800  141.5230 C   0  0  0  0  0  3  0  0  0  0  0  0
  180.6530  181.6600  137.7360 N   0  0  0  0  0  0  0  0  0  0  0  0
  178.9340  181.6320  140.9250 C   0  0  0  0  0  3  0  0  0  0  0  0
  180.4200  179.6940  140.8440 C   0  0  0  0  0  0  0  0  0  0  0  0
  1  5  1  0  0  0  0
  2 11  1  0  0  0  0
  2  5  2  0  0  0  0
  3  9  1  0  0  0  0
  4  2  1  0  0  0  0
  6 19  1  1  0  0  0
  6 10  1  0  0  0  0
  7 13  1  6  0  0  0
  7  3  1  0  0  0  0
  7  6  1  0  0  0  0
  8  1  2  0  0  0  0
  9  4  2  0  0  0  0
  9  8  1  0  0  0  0
 10  8  1  0  0  0  0
 11 12  3  0  0  0  0
 13 14  1  1  0  0  0
 15 13  1  0  0  0  0
 16 15  1  0  0  0  0
 18 17  1  0  0  0  0
 18 16  1  0  0  0  0
 20 29  1  0  0  0  0
 21 25  1  0  0  0  0
 22 27  2  0  0  0  0
 22 21  1  0  0  0  0
 23 22  1  0  0  0  0
 24 20  2  0  0  0  0
 24 25  1  0  0  0  0
 25 28  2  0  0  0  0
 27 24  1  0  0  0  0
 28 26  1  0  0  0  0
 29 19  1  0  0  0  0
 29 26  2  0  0  0  0
M  END
>  <MODEL>
9

>  <REMARK>
 VINA RESULT:      -6.5      4.778      8.027
  Name = 
  7 active torsions:
  status: ('A' for Active; 'I' for Inactive)
    1  A    between atoms: C_2  and  C_5
    2  A    between atoms: C_7  and  C_21
    3  A    between atoms: C_7  and  O_28
    4  A    between atoms: C_12  and  C_16
    5  A    between atoms: C_12  and  C_29
    6  A    between atoms: C_13  and  C_18
    7  A    between atoms: C_13  and  C_21
                            x       y       z     vdW  Elec       q    Type
                         _______ _______ _______ _____ _____    ______ ____

>  <TORSDO>
F 7

$$$$
