=
 OpenBabel11042411433D

 40 44  0  0  1  0  0  0  0  0999 V2000
  184.9350  179.0780  145.2740 C   0  0  0  0  0  3  0  0  0  0  0  0
  185.6750  178.2640  144.4890 C   0  0  0  0  0  0  0  0  0  0  0  0
  187.7010  176.6890  144.1410 C   0  0  0  0  0  1  0  0  0  0  0  0
  186.5170  178.7100  147.1490 C   0  0  0  0  0  0  0  0  0  0  0  0
  185.2440  179.3700  146.7290 C   0  0  0  0  0  2  0  0  0  0  0  0
  187.1040  178.7780  148.3360 C   0  0  0  0  0  3  0  0  0  0  0  0
  188.3110  177.9320  148.2840 C   0  0  0  0  0  3  0  0  0  0  0  0
  186.9010  177.5980  145.0160 C   0  0  0  0  0  0  0  0  0  0  0  0
  187.2670  177.8400  146.2780 C   0  0  0  0  0  0  0  0  0  0  0  0
  188.4030  177.3880  147.0710 C   0  0  0  0  0  0  0  0  0  0  0  0
  183.4430  177.9620  141.3820 C   0  0  0  0  0  2  0  0  0  0  0  0
  184.0600  179.0540  140.6180 N   0  0  0  0  0  0  0  0  0  0  0  0
  185.5140  178.8620  140.7040 C   0  0  0  0  0  2  0  0  0  0  0  0
  185.9860  179.0700  142.1390 C   0  0  0  0  0  2  0  0  0  0  0  0
  185.2870  178.0630  143.0530 C   0  0  2  0  0  3  0  0  0  0  0  0
  183.7710  178.1070  142.8640 C   0  0  0  0  0  2  0  0  0  0  0  0
  183.6400  178.9490  139.2090 C   0  0  1  0  0  3  0  0  0  0  0  0
  181.6870  179.9230  138.0410 C   0  0  0  0  0  2  0  0  0  0  0  0
  182.9490  180.2350  138.7490 C   0  0  1  0  0  3  0  0  0  0  0  0
  181.6970  180.3440  139.3830 O   0  0  0  0  0  0  0  0  0  0  0  0
  184.8480  178.7300  138.2920 C   0  0  0  0  0  2  0  0  0  0  0  0
  183.8740  176.5190  137.9900 N   0  0  0  0  0  1  0  0  0  0  0  0
  184.5950  177.5890  137.3230 C   0  0  0  0  0  2  0  0  0  0  0  0
  189.4750  176.4360  146.6520 C   0  0  0  0  0  2  0  0  0  0  0  0
  190.7950  176.7800  147.3290 C   0  0  0  0  0  2  0  0  0  0  0  0
  191.9790  176.4320  146.4390 C   0  0  0  0  0  2  0  0  0  0  0  0
  191.5460  178.0000  144.5350 C   0  0  0  0  0  3  0  0  0  0  0  0
  191.2210  178.2370  143.1960 C   0  0  0  0  0  3  0  0  0  0  0  0
  191.1170  175.8530  142.7970 C   0  0  0  0  0  3  0  0  0  0  0  0
  191.0060  177.1660  142.3180 C   0  0  0  0  0  0  0  0  0  0  0  0
  191.6590  176.6890  145.0050 C   0  0  0  0  0  0  0  0  0  0  0  0
  191.4400  175.6150  144.1360 C   0  0  0  0  0  3  0  0  0  0  0  0
  190.6550  177.4210  140.9110 C   0  0  0  0  0  0  0  0  0  0  0  0
  191.5680  177.5790  140.0520 O   0  0  0  0  0  0  0  0  0  0  0  0
  189.3100  177.4850  140.5320 O   0  0  0  0  0  0  0  0  0  0  0  0
  188.8420  178.3700  139.5210 C   0  0  0  0  0  2  0  0  0  0  0  0
  188.3050  177.5890  138.3290 C   0  0  2  0  0  3  0  0  0  0  0  0
  188.9910  176.3820  138.2080 O   0  0  0  0  0  1  0  0  0  0  0  0
  188.4310  178.3930  137.0420 C   0  0  0  0  0  2  0  0  0  0  0  0
  189.3630  177.8070  136.1840 O   0  0  0  0  0  1  0  0  0  0  0  0
  1  5  1  0  0  0  0
  2  8  1  0  0  0  0
  2  1  2  0  0  0  0
  3  8  1  0  0  0  0
  4  6  2  0  0  0  0
  5  4  1  0  0  0  0
  7  6  1  0  0  0  0
  8  9  2  0  0  0  0
  9 10  1  0  0  0  0
  9  4  1  0  0  0  0
 10  7  2  0  0  0  0
 11 16  1  0  0  0  0
 12 13  1  0  0  0  0
 12 11  1  0  0  0  0
 13 14  1  0  0  0  0
 14 15  1  0  0  0  0
 15  2  1  1  0  0  0
 16 15  1  0  0  0  0
 17 21  1  6  0  0  0
 17 12  1  0  0  0  0
 18 19  1  0  0  0  0
 18 20  1  0  0  0  0
 19 17  1  1  0  0  0
 19 20  1  0  0  0  0
 23 22  1  0  0  0  0
 23 21  1  0  0  0  0
 24 10  1  0  0  0  0
 24 25  1  0  0  0  0
 26 25  1  0  0  0  0
 27 31  1  0  0  0  0
 28 27  2  0  0  0  0
 29 32  1  0  0  0  0
 30 29  2  0  0  0  0
 30 28  1  0  0  0  0
 31 26  1  0  0  0  0
 32 31  2  0  0  0  0
 33 30  1  0  0  0  0
 34 33  2  0  0  0  0
 35 33  1  0  0  0  0
 36 35  1  0  0  0  0
 37 38  1  6  0  0  0
 37 36  1  0  0  0  0
 39 37  1  0  0  0  0
 40 39  1  0  0  0  0
M  END
>  <MODEL>
1

>  <REMARK>
 VINA RESULT:      -8.4      0.000      0.000
  Name = 
  14 active torsions:
  status: ('A' for Active; 'I' for Inactive)
    1  A    between atoms: C_1  and  C_24
    2  A    between atoms: C_1  and  C_35
    3  A    between atoms: O_2  and  C_12
    4  A    between atoms: O_2  and  C_25
    5  A    between atoms: N_7  and  C_32
    6  A    between atoms: C_9  and  C_39
    7  A    between atoms: C_12  and  C_17
    8  A    between atoms: C_13  and  C_15
    9  A    between atoms: C_17  and  C_19
   10  A    between atoms: C_21  and  C_32
   11  A    between atoms: C_23  and  C_24
   12  A    between atoms: C_23  and  C_40
   13  A    between atoms: C_25  and  C_34
   14  A    between atoms: C_32  and  C_39
                            x       y       z     vdW  Elec       q    Type
                         _______ _______ _______ _____ _____    ______ ____

>  <TORSDO>
F 14

$$$$
=
 OpenBabel11042411433D

 40 44  0  0  1  0  0  0  0  0999 V2000
  191.7280  175.5430  143.5290 C   0  0  0  0  0  3  0  0  0  0  0  0
  191.0670  176.7210  143.5570 C   0  0  0  0  0  0  0  0  0  0  0  0
  190.0740  178.7260  144.8610 C   0  0  0  0  0  1  0  0  0  0  0  0
  191.8950  175.5790  146.0040 C   0  0  0  0  0  0  0  0  0  0  0  0
  192.2680  174.8400  144.7590 C   0  0  0  0  0  2  0  0  0  0  0  0
  192.1710  175.2350  147.2550 C   0  0  0  0  0  3  0  0  0  0  0  0
  191.6350  176.2920  148.1340 C   0  0  0  0  0  3  0  0  0  0  0  0
  190.7930  177.4170  144.8470 C   0  0  0  0  0  0  0  0  0  0  0  0
  191.1980  176.8400  145.9820 C   0  0  0  0  0  0  0  0  0  0  0  0
  191.0610  177.2290  147.3800 C   0  0  0  0  0  0  0  0  0  0  0  0
  190.9030  177.6140  139.8280 C   0  0  0  0  0  2  0  0  0  0  0  0
  189.6020  176.9880  139.5560 N   0  0  0  0  0  0  0  0  0  0  0  0
  188.6930  177.4200  140.6260 C   0  0  0  0  0  2  0  0  0  0  0  0
  189.1400  176.8350  141.9620 C   0  0  0  0  0  2  0  0  0  0  0  0
  190.5570  177.3160  142.2760 C   0  0  2  0  0  3  0  0  0  0  0  0
  191.5040  177.0430  141.1080 C   0  0  0  0  0  2  0  0  0  0  0  0
  189.0960  177.4790  138.2620 C   0  0  1  0  0  3  0  0  0  0  0  0
  190.2570  176.0050  136.6460 C   0  0  0  0  0  2  0  0  0  0  0  0
  188.9500  176.3300  137.2620 C   0  0  1  0  0  3  0  0  0  0  0  0
  189.7220  175.2350  137.6950 O   0  0  0  0  0  0  0  0  0  0  0  0
  187.7130  178.1200  138.4230 C   0  0  0  0  0  2  0  0  0  0  0  0
  185.5980  177.5720  137.3470 N   0  0  0  0  0  1  0  0  0  0  0  0
  186.9400  178.0780  137.1160 C   0  0  0  0  0  2  0  0  0  0  0  0
  190.4430  178.4790  147.9130 C   0  0  0  0  0  2  0  0  0  0  0  0
  189.0500  178.1990  148.4620 C   0  0  0  0  0  2  0  0  0  0  0  0
  188.3970  177.0300  147.7390 C   0  0  0  0  0  2  0  0  0  0  0  0
  187.2150  177.0790  145.5320 C   0  0  0  0  0  3  0  0  0  0  0  0
  186.1870  177.5430  144.7060 C   0  0  0  0  0  3  0  0  0  0  0  0
  185.3040  178.8540  146.5380 C   0  0  0  0  0  3  0  0  0  0  0  0
  185.2240  178.4320  145.2030 C   0  0  0  0  0  0  0  0  0  0  0  0
  187.2870  177.5010  146.8620 C   0  0  0  0  0  0  0  0  0  0  0  0
  186.3320  178.3920  147.3640 C   0  0  0  0  0  3  0  0  0  0  0  0
  184.1480  178.9250  144.3260 C   0  0  0  0  0  0  0  0  0  0  0  0
  182.9800  179.0690  144.7820 O   0  0  0  0  0  0  0  0  0  0  0  0
  184.4280  179.2320  142.9910 O   0  0  0  0  0  0  0  0  0  0  0  0
  183.6940  178.6730  141.9080 C   0  0  0  0  0  2  0  0  0  0  0  0
  184.4820  178.7840  140.6100 C   0  0  2  0  0  3  0  0  0  0  0  0
  185.6240  179.5550  140.8160 O   0  0  0  0  0  1  0  0  0  0  0  0
  183.6340  179.3930  139.5020 C   0  0  0  0  0  2  0  0  0  0  0  0
  184.3100  180.4490  138.8860 O   0  0  0  0  0  1  0  0  0  0  0  0
  1  2  2  0  0  0  0
  1  5  1  0  0  0  0
  2  8  1  0  0  0  0
  4  6  2  0  0  0  0
  5  4  1  0  0  0  0
  6  7  1  0  0  0  0
  8  3  1  0  0  0  0
  8  9  2  0  0  0  0
  9  4  1  0  0  0  0
  9 10  1  0  0  0  0
 10 24  1  0  0  0  0
 10  7  2  0  0  0  0
 11 16  1  0  0  0  0
 12 11  1  0  0  0  0
 12 13  1  0  0  0  0
 13 14  1  0  0  0  0
 14 15  1  0  0  0  0
 15  2  1  1  0  0  0
 16 15  1  0  0  0  0
 17 21  1  1  0  0  0
 17 12  1  0  0  0  0
 18 19  1  0  0  0  0
 18 20  1  0  0  0  0
 19 20  1  0  0  0  0
 19 17  1  1  0  0  0
 23 22  1  0  0  0  0
 23 21  1  0  0  0  0
 24 25  1  0  0  0  0
 26 25  1  0  0  0  0
 27 31  1  0  0  0  0
 28 30  1  0  0  0  0
 28 27  2  0  0  0  0
 29 32  1  0  0  0  0
 30 29  2  0  0  0  0
 31 32  2  0  0  0  0
 31 26  1  0  0  0  0
 33 34  2  0  0  0  0
 33 30  1  0  0  0  0
 35 33  1  0  0  0  0
 36 35  1  0  0  0  0
 37 38  1  1  0  0  0
 37 36  1  0  0  0  0
 39 37  1  0  0  0  0
 40 39  1  0  0  0  0
M  END
>  <MODEL>
2

>  <REMARK>
 VINA RESULT:      -8.2      2.059      5.910
  Name = 
  14 active torsions:
  status: ('A' for Active; 'I' for Inactive)
    1  A    between atoms: C_1  and  C_24
    2  A    between atoms: C_1  and  C_35
    3  A    between atoms: O_2  and  C_12
    4  A    between atoms: O_2  and  C_25
    5  A    between atoms: N_7  and  C_32
    6  A    between atoms: C_9  and  C_39
    7  A    between atoms: C_12  and  C_17
    8  A    between atoms: C_13  and  C_15
    9  A    between atoms: C_17  and  C_19
   10  A    between atoms: C_21  and  C_32
   11  A    between atoms: C_23  and  C_24
   12  A    between atoms: C_23  and  C_40
   13  A    between atoms: C_25  and  C_34
   14  A    between atoms: C_32  and  C_39
                            x       y       z     vdW  Elec       q    Type
                         _______ _______ _______ _____ _____    ______ ____

>  <TORSDO>
F 14

$$$$
=
 OpenBabel11042411433D

 40 44  0  0  1  0  0  0  0  0999 V2000
  185.2140  178.8440  146.3900 C   0  0  0  0  0  3  0  0  0  0  0  0
  185.6430  178.1550  145.3090 C   0  0  0  0  0  0  0  0  0  0  0  0
  187.4650  176.7860  144.0790 C   0  0  0  0  0  1  0  0  0  0  0  0
  187.4040  178.4770  147.4950 C   0  0  0  0  0  0  0  0  0  0  0  0
  186.0340  179.0560  147.6470 C   0  0  0  0  0  2  0  0  0  0  0  0
  188.3920  178.5090  148.3790 C   0  0  0  0  0  3  0  0  0  0  0  0
  189.5310  177.7730  147.7980 C   0  0  0  0  0  3  0  0  0  0  0  0
  187.0100  177.5590  145.2740 C   0  0  0  0  0  0  0  0  0  0  0  0
  187.8120  177.7390  146.3260 C   0  0  0  0  0  0  0  0  0  0  0  0
  189.1860  177.3280  146.5910 C   0  0  0  0  0  0  0  0  0  0  0  0
  182.5430  178.5430  143.0810 C   0  0  0  0  0  2  0  0  0  0  0  0
  183.2080  179.2520  141.9800 N   0  0  0  0  0  0  0  0  0  0  0  0
  184.4420  178.5130  141.6840 C   0  0  0  0  0  2  0  0  0  0  0  0
  185.4080  178.6150  142.8600 C   0  0  0  0  0  2  0  0  0  0  0  0
  184.7520  178.0260  144.1090 C   0  0  2  0  0  3  0  0  0  0  0  0
  183.3770  178.6480  144.3530 C   0  0  0  0  0  2  0  0  0  0  0  0
  182.3310  179.2260  140.7960 C   0  0  1  0  0  3  0  0  0  0  0  0
  182.5290  179.8140  138.3990 C   0  0  0  0  0  2  0  0  0  0  0  0
  183.1510  179.0630  139.5140 C   0  0  1  0  0  3  0  0  0  0  0  0
  183.6330  180.3220  139.1070 O   0  0  0  0  0  0  0  0  0  0  0  0
  181.3550  178.0460  140.8630 C   0  0  0  0  0  2  0  0  0  0  0  0
  179.0140  177.4330  141.1380 N   0  0  0  0  0  1  0  0  0  0  0  0
  179.9790  178.5050  141.3130 C   0  0  0  0  0  2  0  0  0  0  0  0
  190.0670  176.5040  145.7120 C   0  0  0  0  0  2  0  0  0  0  0  0
  191.2460  177.3260  145.2080 C   0  0  0  0  0  2  0  0  0  0  0  0
  190.7820  178.4610  144.3060 C   0  0  0  0  0  2  0  0  0  0  0  0
  191.7630  177.4810  142.2200 C   0  0  0  0  0  3  0  0  0  0  0  0
  191.6440  177.0720  140.8890 C   0  0  0  0  0  3  0  0  0  0  0  0
  189.3070  177.7010  140.9020 C   0  0  0  0  0  3  0  0  0  0  0  0
  190.4160  177.1780  140.2210 C   0  0  0  0  0  0  0  0  0  0  0  0
  190.6530  177.9980  142.8940 C   0  0  0  0  0  0  0  0  0  0  0  0
  189.4250  178.1110  142.2330 C   0  0  0  0  0  3  0  0  0  0  0  0
  190.2980  176.7530  138.8160 C   0  0  0  0  0  0  0  0  0  0  0  0
  190.4690  175.5410  138.5070 O   0  0  0  0  0  0  0  0  0  0  0  0
  189.9960  177.6980  137.8290 O   0  0  0  0  0  0  0  0  0  0  0  0
  189.1130  177.4190  136.7490 C   0  0  0  0  0  2  0  0  0  0  0  0
  187.8960  178.3330  136.8000 C   0  0  2  0  0  3  0  0  0  0  0  0
  188.2890  179.6230  137.1510 O   0  0  0  0  0  1  0  0  0  0  0  0
  186.8600  177.8150  137.7890 C   0  0  0  0  0  2  0  0  0  0  0  0
  186.6190  178.7590  138.7900 O   0  0  0  0  0  1  0  0  0  0  0  0
  1  5  1  0  0  0  0
  2  1  2  0  0  0  0
  3  8  1  0  0  0  0
  4  5  1  0  0  0  0
  4  6  2  0  0  0  0
  7  6  1  0  0  0  0
  8  2  1  0  0  0  0
  8  9  2  0  0  0  0
  9 10  1  0  0  0  0
  9  4  1  0  0  0  0
 10  7  2  0  0  0  0
 11 16  1  0  0  0  0
 12 11  1  0  0  0  0
 13 12  1  0  0  0  0
 13 14  1  0  0  0  0
 14 15  1  0  0  0  0
 15 16  1  0  0  0  0
 15  2  1  1  0  0  0
 17 21  1  1  0  0  0
 17 12  1  0  0  0  0
 18 20  1  0  0  0  0
 18 19  1  0  0  0  0
 19 17  1  1  0  0  0
 20 19  1  0  0  0  0
 21 23  1  0  0  0  0
 22 23  1  0  0  0  0
 24 10  1  0  0  0  0
 25 24  1  0  0  0  0
 26 25  1  0  0  0  0
 27 31  1  0  0  0  0
 28 27  2  0  0  0  0
 29 32  1  0  0  0  0
 30 28  1  0  0  0  0
 30 29  2  0  0  0  0
 31 26  1  0  0  0  0
 32 31  2  0  0  0  0
 33 30  1  0  0  0  0
 34 33  2  0  0  0  0
 35 33  1  0  0  0  0
 36 37  1  0  0  0  0
 36 35  1  0  0  0  0
 37 38  1  1  0  0  0
 37 39  1  0  0  0  0
 39 40  1  0  0  0  0
M  END
>  <MODEL>
3

>  <REMARK>
 VINA RESULT:      -8.2      1.672      2.520
  Name = 
  14 active torsions:
  status: ('A' for Active; 'I' for Inactive)
    1  A    between atoms: C_1  and  C_24
    2  A    between atoms: C_1  and  C_35
    3  A    between atoms: O_2  and  C_12
    4  A    between atoms: O_2  and  C_25
    5  A    between atoms: N_7  and  C_32
    6  A    between atoms: C_9  and  C_39
    7  A    between atoms: C_12  and  C_17
    8  A    between atoms: C_13  and  C_15
    9  A    between atoms: C_17  and  C_19
   10  A    between atoms: C_21  and  C_32
   11  A    between atoms: C_23  and  C_24
   12  A    between atoms: C_23  and  C_40
   13  A    between atoms: C_25  and  C_34
   14  A    between atoms: C_32  and  C_39
                            x       y       z     vdW  Elec       q    Type
                         _______ _______ _______ _____ _____    ______ ____

>  <TORSDO>
F 14

$$$$
=
 OpenBabel11042411433D

 40 44  0  0  1  0  0  0  0  0999 V2000
  191.6030  176.5170  143.9730 C   0  0  0  0  0  3  0  0  0  0  0  0
  190.6080  177.2400  143.4130 C   0  0  0  0  0  0  0  0  0  0  0  0
  188.3980  178.5760  143.6090 C   0  0  0  0  0  1  0  0  0  0  0  0
  190.5010  176.7140  146.1870 C   0  0  0  0  0  0  0  0  0  0  0  0
  191.6960  176.1990  145.4520 C   0  0  0  0  0  2  0  0  0  0  0  0
  190.2360  176.5860  147.4800 C   0  0  0  0  0  3  0  0  0  0  0  0
  188.9670  177.2920  147.7440 C   0  0  0  0  0  3  0  0  0  0  0  0
  189.4840  177.7660  144.2400 C   0  0  0  0  0  0  0  0  0  0  0  0
  189.4690  177.4900  145.5460 C   0  0  0  0  0  0  0  0  0  0  0  0
  188.5200  177.8160  146.6040 C   0  0  0  0  0  0  0  0  0  0  0  0
  191.9050  177.4280  139.8060 C   0  0  0  0  0  2  0  0  0  0  0  0
  190.9420  176.4830  139.2260 N   0  0  0  0  0  0  0  0  0  0  0  0
  189.6150  176.8680  139.7260 C   0  0  0  0  0  2  0  0  0  0  0  0
  189.5370  176.6370  141.2320 C   0  0  0  0  0  2  0  0  0  0  0  0
  190.6060  177.4770  141.9310 C   0  0  2  0  0  3  0  0  0  0  0  0
  191.9850  177.2350  141.3160 C   0  0  0  0  0  2  0  0  0  0  0  0
  190.9630  176.6190  137.7580 C   0  0  1  0  0  3  0  0  0  0  0  0
  192.3220  174.7620  136.8420 C   0  0  0  0  0  2  0  0  0  0  0  0
  190.9420  175.2450  137.0830 C   0  0  1  0  0  3  0  0  0  0  0  0
  191.5560  174.3020  137.9290 O   0  0  0  0  0  0  0  0  0  0  0  0
  189.7340  177.3870  137.2610 C   0  0  0  0  0  2  0  0  0  0  0  0
  188.3530  177.7190  135.2820 N   0  0  0  0  0  1  0  0  0  0  0  0
  189.1740  176.7570  135.9980 C   0  0  0  0  0  2  0  0  0  0  0  0
  187.2810  178.6400  146.4830 C   0  0  0  0  0  2  0  0  0  0  0  0
  186.0830  177.7630  146.1430 C   0  0  0  0  0  2  0  0  0  0  0  0
  184.7900  178.5660  146.1510 C   0  0  0  0  0  2  0  0  0  0  0  0
  184.8990  178.2410  143.6700 C   0  0  0  0  0  3  0  0  0  0  0  0
  184.2960  178.2510  142.4090 C   0  0  0  0  0  3  0  0  0  0  0  0
  182.1880  178.8790  143.4180 C   0  0  0  0  0  3  0  0  0  0  0  0
  182.9370  178.5680  142.2740 C   0  0  0  0  0  0  0  0  0  0  0  0
  184.1450  178.5490  144.8070 C   0  0  0  0  0  0  0  0  0  0  0  0
  182.7900  178.8720  144.6790 C   0  0  0  0  0  3  0  0  0  0  0  0
  182.3100  178.5850  140.9420 C   0  0  0  0  0  0  0  0  0  0  0  0
  181.4010  179.4230  140.6840 O   0  0  0  0  0  0  0  0  0  0  0  0
  182.7260  177.6720  139.9680 O   0  0  0  0  0  0  0  0  0  0  0  0
  183.3650  178.0780  138.7630 C   0  0  0  0  0  2  0  0  0  0  0  0
  184.7940  178.5230  139.0360 C   0  0  2  0  0  3  0  0  0  0  0  0
  184.8450  179.9110  139.1410 O   0  0  0  0  0  1  0  0  0  0  0  0
  185.7380  178.0470  137.9400 C   0  0  0  0  0  2  0  0  0  0  0  0
  186.5860  179.0810  137.5360 O   0  0  0  0  0  1  0  0  0  0  0  0
  1  5  1  0  0  0  0
  2  1  2  0  0  0  0
  2  8  1  0  0  0  0
  3  8  1  0  0  0  0
  4  6  2  0  0  0  0
  5  4  1  0  0  0  0
  6  7  1  0  0  0  0
  8  9  2  0  0  0  0
  9  4  1  0  0  0  0
  9 10  1  0  0  0  0
 10  7  2  0  0  0  0
 11 16  1  0  0  0  0
 12 13  1  0  0  0  0
 12 11  1  0  0  0  0
 13 14  1  0  0  0  0
 14 15  1  0  0  0  0
 15  2  1  1  0  0  0
 16 15  1  0  0  0  0
 17 21  1  6  0  0  0
 17 12  1  0  0  0  0
 18 19  1  0  0  0  0
 18 20  1  0  0  0  0
 19 17  1  1  0  0  0
 19 20  1  0  0  0  0
 22 23  1  0  0  0  0
 23 21  1  0  0  0  0
 24 10  1  0  0  0  0
 25 26  1  0  0  0  0
 25 24  1  0  0  0  0
 27 31  1  0  0  0  0
 28 27  2  0  0  0  0
 29 32  1  0  0  0  0
 30 28  1  0  0  0  0
 30 29  2  0  0  0  0
 31 26  1  0  0  0  0
 32 31  2  0  0  0  0
 33 30  1  0  0  0  0
 34 33  2  0  0  0  0
 35 33  1  0  0  0  0
 36 37  1  0  0  0  0
 36 35  1  0  0  0  0
 37 38  1  6  0  0  0
 39 37  1  0  0  0  0
 40 39  1  0  0  0  0
M  END
>  <MODEL>
4

>  <REMARK>
 VINA RESULT:      -8.0      2.376      6.653
  Name = 
  14 active torsions:
  status: ('A' for Active; 'I' for Inactive)
    1  A    between atoms: C_1  and  C_24
    2  A    between atoms: C_1  and  C_35
    3  A    between atoms: O_2  and  C_12
    4  A    between atoms: O_2  and  C_25
    5  A    between atoms: N_7  and  C_32
    6  A    between atoms: C_9  and  C_39
    7  A    between atoms: C_12  and  C_17
    8  A    between atoms: C_13  and  C_15
    9  A    between atoms: C_17  and  C_19
   10  A    between atoms: C_21  and  C_32
   11  A    between atoms: C_23  and  C_24
   12  A    between atoms: C_23  and  C_40
   13  A    between atoms: C_25  and  C_34
   14  A    between atoms: C_32  and  C_39
                            x       y       z     vdW  Elec       q    Type
                         _______ _______ _______ _____ _____    ______ ____

>  <TORSDO>
F 14

$$$$
=
 OpenBabel11042411433D

 40 44  0  0  1  0  0  0  0  0999 V2000
  191.0030  177.0680  144.4140 C   0  0  0  0  0  3  0  0  0  0  0  0
  189.8270  176.9610  143.7570 C   0  0  0  0  0  0  0  0  0  0  0  0
  187.2380  177.0220  143.7330 C   0  0  0  0  0  1  0  0  0  0  0  0
  189.7820  177.4740  146.5350 C   0  0  0  0  0  0  0  0  0  0  0  0
  191.1280  177.3840  145.8910 C   0  0  0  0  0  2  0  0  0  0  0  0
  189.5180  177.7020  147.8140 C   0  0  0  0  0  3  0  0  0  0  0  0
  188.0500  177.7420  147.9630 C   0  0  0  0  0  3  0  0  0  0  0  0
  188.5300  177.1280  144.4750 C   0  0  0  0  0  0  0  0  0  0  0  0
  188.5540  177.3640  145.7890 C   0  0  0  0  0  0  0  0  0  0  0  0
  187.4910  177.5380  146.7720 C   0  0  0  0  0  0  0  0  0  0  0  0
  188.7060  176.9150  140.0870 C   0  0  0  0  0  2  0  0  0  0  0  0
  189.9450  177.4610  139.5200 N   0  0  0  0  0  0  0  0  0  0  0  0
  191.0550  176.7180  140.1320 C   0  0  0  0  0  2  0  0  0  0  0  0
  191.1340  177.0280  141.6230 C   0  0  0  0  0  2  0  0  0  0  0  0
  189.8210  176.6230  142.2950 C   0  0  2  0  0  3  0  0  0  0  0  0
  188.6210  177.2380  141.5750 C   0  0  0  0  0  2  0  0  0  0  0  0
  189.9490  177.2280  138.0650 C   0  0  1  0  0  3  0  0  0  0  0  0
  188.4880  178.4630  136.4940 C   0  0  0  0  0  2  0  0  0  0  0  0
  189.7270  178.5350  137.3020 C   0  0  1  0  0  3  0  0  0  0  0  0
  188.5250  179.1280  137.7330 O   0  0  0  0  0  0  0  0  0  0  0  0
  191.2960  176.6580  137.6060 C   0  0  0  0  0  2  0  0  0  0  0  0
  190.7980  174.2740  137.5690 N   0  0  0  0  0  1  0  0  0  0  0  0
  191.0980  175.4280  136.7380 C   0  0  0  0  0  2  0  0  0  0  0  0
  186.0200  177.5490  146.5170 C   0  0  0  0  0  2  0  0  0  0  0  0
  185.5490  178.9480  146.1430 C   0  0  0  0  0  2  0  0  0  0  0  0
  184.1380  178.9210  145.5710 C   0  0  0  0  0  2  0  0  0  0  0  0
  185.3240  179.3630  143.4100 C   0  0  0  0  0  3  0  0  0  0  0  0
  185.3400  179.4130  142.0120 C   0  0  0  0  0  3  0  0  0  0  0  0
  183.0480  178.6410  141.9550 C   0  0  0  0  0  3  0  0  0  0  0  0
  184.2040  179.0510  141.2760 C   0  0  0  0  0  0  0  0  0  0  0  0
  184.1690  178.9500  144.0800 C   0  0  0  0  0  0  0  0  0  0  0  0
  183.0300  178.5920  143.3520 C   0  0  0  0  0  3  0  0  0  0  0  0
  184.2240  179.1140  139.8050 C   0  0  0  0  0  0  0  0  0  0  0  0
  184.1050  180.2260  139.2200 O   0  0  0  0  0  0  0  0  0  0  0  0
  184.3760  177.9380  139.0630 O   0  0  0  0  0  0  0  0  0  0  0  0
  185.3620  177.7970  138.0470 C   0  0  0  0  0  2  0  0  0  0  0  0
  184.7570  177.1890  136.7900 C   0  0  2  0  0  3  0  0  0  0  0  0
  183.4120  177.5410  136.6970 O   0  0  0  0  0  1  0  0  0  0  0  0
  184.9020  175.6730  136.7870 C   0  0  0  0  0  2  0  0  0  0  0  0
  183.7700  175.0680  137.3370 O   0  0  0  0  0  1  0  0  0  0  0  0
  1  5  1  0  0  0  0
  2  1  2  0  0  0  0
  2  8  1  0  0  0  0
  3  8  1  0  0  0  0
  4  6  2  0  0  0  0
  5  4  1  0  0  0  0
  6  7  1  0  0  0  0
  8  9  2  0  0  0  0
  9  4  1  0  0  0  0
  9 10  1  0  0  0  0
 10  7  2  0  0  0  0
 11 16  1  0  0  0  0
 12 11  1  0  0  0  0
 12 13  1  0  0  0  0
 13 14  1  0  0  0  0
 14 15  1  0  0  0  0
 15  2  1  1  0  0  0
 16 15  1  0  0  0  0
 17 21  1  6  0  0  0
 17 12  1  0  0  0  0
 18 19  1  0  0  0  0
 18 20  1  0  0  0  0
 19 20  1  0  0  0  0
 19 17  1  1  0  0  0
 23 22  1  0  0  0  0
 23 21  1  0  0  0  0
 24 10  1  0  0  0  0
 25 24  1  0  0  0  0
 26 25  1  0  0  0  0
 27 31  1  0  0  0  0
 28 27  2  0  0  0  0
 29 32  1  0  0  0  0
 30 29  2  0  0  0  0
 30 28  1  0  0  0  0
 31 26  1  0  0  0  0
 32 31  2  0  0  0  0
 33 30  1  0  0  0  0
 34 33  2  0  0  0  0
 35 33  1  0  0  0  0
 36 35  1  0  0  0  0
 37 38  1  1  0  0  0
 37 36  1  0  0  0  0
 39 37  1  0  0  0  0
 39 40  1  0  0  0  0
M  END
>  <MODEL>
5

>  <REMARK>
 VINA RESULT:      -7.7      2.419      5.866
  Name = 
  14 active torsions:
  status: ('A' for Active; 'I' for Inactive)
    1  A    between atoms: C_1  and  C_24
    2  A    between atoms: C_1  and  C_35
    3  A    between atoms: O_2  and  C_12
    4  A    between atoms: O_2  and  C_25
    5  A    between atoms: N_7  and  C_32
    6  A    between atoms: C_9  and  C_39
    7  A    between atoms: C_12  and  C_17
    8  A    between atoms: C_13  and  C_15
    9  A    between atoms: C_17  and  C_19
   10  A    between atoms: C_21  and  C_32
   11  A    between atoms: C_23  and  C_24
   12  A    between atoms: C_23  and  C_40
   13  A    between atoms: C_25  and  C_34
   14  A    between atoms: C_32  and  C_39
                            x       y       z     vdW  Elec       q    Type
                         _______ _______ _______ _____ _____    ______ ____

>  <TORSDO>
F 14

$$$$
=
 OpenBabel11042411433D

 40 44  0  0  1  0  0  0  0  0999 V2000
  184.5100  178.8210  145.8380 C   0  0  0  0  0  3  0  0  0  0  0  0
  184.7910  178.6410  144.5280 C   0  0  0  0  0  0  0  0  0  0  0  0
  186.3930  177.8700  142.6460 C   0  0  0  0  0  1  0  0  0  0  0  0
  186.7550  177.9540  146.4400 C   0  0  0  0  0  0  0  0  0  0  0  0
  185.4500  178.4540  146.9690 C   0  0  0  0  0  2  0  0  0  0  0  0
  187.8150  177.5780  147.1410 C   0  0  0  0  0  3  0  0  0  0  0  0
  188.8420  177.1240  146.1840 C   0  0  0  0  0  3  0  0  0  0  0  0
  186.1020  178.0760  144.0970 C   0  0  0  0  0  0  0  0  0  0  0  0
  187.0040  177.7690  145.0320 C   0  0  0  0  0  0  0  0  0  0  0  0
  188.3610  177.2440  144.9480 C   0  0  0  0  0  0  0  0  0  0  0  0
  182.8470  178.6660  141.2200 C   0  0  0  0  0  2  0  0  0  0  0  0
  181.5150  178.4460  141.7990 N   0  0  0  0  0  0  0  0  0  0  0  0
  181.3840  179.3780  142.9270 C   0  0  0  0  0  2  0  0  0  0  0  0
  182.3630  179.0010  144.0340 C   0  0  0  0  0  2  0  0  0  0  0  0
  183.7910  179.0600  143.4910 C   0  0  2  0  0  3  0  0  0  0  0  0
  183.9270  178.2400  142.2080 C   0  0  0  0  0  2  0  0  0  0  0  0
  180.4940  178.7650  140.7850 C   0  0  1  0  0  3  0  0  0  0  0  0
  179.2500  176.9660  139.6240 C   0  0  0  0  0  2  0  0  0  0  0  0
  179.3250  177.7800  140.8590 C   0  0  1  0  0  3  0  0  0  0  0  0
  179.8220  176.4630  140.8070 O   0  0  0  0  0  0  0  0  0  0  0  0
  179.9190  180.1680  141.0110 C   0  0  0  0  0  2  0  0  0  0  0  0
  180.5520  180.2570  138.6600 N   0  0  0  0  0  1  0  0  0  0  0  0
  180.1840  181.0620  139.8120 C   0  0  0  0  0  2  0  0  0  0  0  0
  189.0990  176.8430  143.7130 C   0  0  0  0  0  2  0  0  0  0  0  0
  189.9920  177.9780  143.2280 C   0  0  0  0  0  2  0  0  0  0  0  0
  190.9730  177.4940  142.1690 C   0  0  0  0  0  2  0  0  0  0  0  0
  190.8700  176.6970  139.7970 C   0  0  0  0  0  3  0  0  0  0  0  0
  190.2860  176.7130  138.5270 C   0  0  0  0  0  3  0  0  0  0  0  0
  188.6410  178.3090  139.3000 C   0  0  0  0  0  3  0  0  0  0  0  0
  189.1680  177.5170  138.2700 C   0  0  0  0  0  0  0  0  0  0  0  0
  190.3380  177.4870  140.8200 C   0  0  0  0  0  0  0  0  0  0  0  0
  189.2250  178.2960  140.5700 C   0  0  0  0  0  3  0  0  0  0  0  0
  188.5620  177.5360  136.9280 C   0  0  0  0  0  0  0  0  0  0  0  0
  189.2770  177.3130  135.9110 O   0  0  0  0  0  0  0  0  0  0  0  0
  187.1960  177.8010  136.7870 O   0  0  0  0  0  0  0  0  0  0  0  0
  186.1960  176.8290  137.0660 C   0  0  0  0  0  2  0  0  0  0  0  0
  184.8990  177.5000  137.4960 C   0  0  2  0  0  3  0  0  0  0  0  0
  185.1550  178.4110  138.5190 O   0  0  0  0  0  1  0  0  0  0  0  0
  183.8740  176.4730  137.9570 C   0  0  0  0  0  2  0  0  0  0  0  0
  182.6340  177.0770  138.1750 O   0  0  0  0  0  1  0  0  0  0  0  0
  1  5  1  0  0  0  0
  2  1  2  0  0  0  0
  3  8  1  0  0  0  0
  4  5  1  0  0  0  0
  4  6  2  0  0  0  0
  7  6  1  0  0  0  0
  8  2  1  0  0  0  0
  8  9  2  0  0  0  0
  9  4  1  0  0  0  0
 10  9  1  0  0  0  0
 10  7  2  0  0  0  0
 11 12  1  0  0  0  0
 11 16  1  0  0  0  0
 12 13  1  0  0  0  0
 13 14  1  0  0  0  0
 15 14  1  0  0  0  0
 15  2  1  1  0  0  0
 16 15  1  0  0  0  0
 17 21  1  1  0  0  0
 17 12  1  0  0  0  0
 18 20  1  0  0  0  0
 18 19  1  0  0  0  0
 19 17  1  6  0  0  0
 20 19  1  0  0  0  0
 22 23  1  0  0  0  0
 23 21  1  0  0  0  0
 24 10  1  0  0  0  0
 25 24  1  0  0  0  0
 26 25  1  0  0  0  0
 27 31  1  0  0  0  0
 28 27  2  0  0  0  0
 29 32  1  0  0  0  0
 30 28  1  0  0  0  0
 30 29  2  0  0  0  0
 31 26  1  0  0  0  0
 32 31  2  0  0  0  0
 33 30  1  0  0  0  0
 34 33  2  0  0  0  0
 35 33  1  0  0  0  0
 35 36  1  0  0  0  0
 36 37  1  0  0  0  0
 37 39  1  0  0  0  0
 37 38  1  1  0  0  0
 39 40  1  0  0  0  0
M  END
>  <MODEL>
6

>  <REMARK>
 VINA RESULT:      -7.5      2.147      3.931
  Name = 
  14 active torsions:
  status: ('A' for Active; 'I' for Inactive)
    1  A    between atoms: C_1  and  C_24
    2  A    between atoms: C_1  and  C_35
    3  A    between atoms: O_2  and  C_12
    4  A    between atoms: O_2  and  C_25
    5  A    between atoms: N_7  and  C_32
    6  A    between atoms: C_9  and  C_39
    7  A    between atoms: C_12  and  C_17
    8  A    between atoms: C_13  and  C_15
    9  A    between atoms: C_17  and  C_19
   10  A    between atoms: C_21  and  C_32
   11  A    between atoms: C_23  and  C_24
   12  A    between atoms: C_23  and  C_40
   13  A    between atoms: C_25  and  C_34
   14  A    between atoms: C_32  and  C_39
                            x       y       z     vdW  Elec       q    Type
                         _______ _______ _______ _____ _____    ______ ____

>  <TORSDO>
F 14

$$$$
=
 OpenBabel11042411433D

 40 44  0  0  1  0  0  0  0  0999 V2000
  190.8820  177.5860  143.8870 C   0  0  0  0  0  3  0  0  0  0  0  0
  189.6910  177.2630  143.3360 C   0  0  0  0  0  0  0  0  0  0  0  0
  187.1430  176.8470  143.5410 C   0  0  0  0  0  1  0  0  0  0  0  0
  189.8010  177.7670  146.1130 C   0  0  0  0  0  0  0  0  0  0  0  0
  191.0780  177.9240  145.3520 C   0  0  0  0  0  2  0  0  0  0  0  0
  189.6150  177.9450  147.4140 C   0  0  0  0  0  3  0  0  0  0  0  0
  188.1850  177.7150  147.6930 C   0  0  0  0  0  3  0  0  0  0  0  0
  188.4550  177.1910  144.1680 C   0  0  0  0  0  0  0  0  0  0  0  0
  188.5520  177.4310  145.4780 C   0  0  0  0  0  0  0  0  0  0  0  0
  187.5680  177.4090  146.5520 C   0  0  0  0  0  0  0  0  0  0  0  0
  188.7950  177.5840  139.6180 C   0  0  0  0  0  2  0  0  0  0  0  0
  190.1720  177.5980  139.1080 N   0  0  0  0  0  0  0  0  0  0  0  0
  190.8810  176.4960  139.7710 C   0  0  0  0  0  2  0  0  0  0  0  0
  191.0110  176.7790  141.2640 C   0  0  0  0  0  2  0  0  0  0  0  0
  189.6170  176.9260  141.8750 C   0  0  2  0  0  3  0  0  0  0  0  0
  188.7800  177.9430  141.1000 C   0  0  0  0  0  2  0  0  0  0  0  0
  190.1470  177.3540  137.6540 C   0  0  1  0  0  3  0  0  0  0  0  0
  191.1820  175.9980  135.8600 C   0  0  0  0  0  2  0  0  0  0  0  0
  190.8740  176.0530  137.3080 C   0  0  1  0  0  3  0  0  0  0  0  0
  192.1570  176.3540  136.8100 O   0  0  0  0  0  0  0  0  0  0  0  0
  188.7070  177.2180  137.1470 C   0  0  0  0  0  2  0  0  0  0  0  0
  187.1850  179.0930  136.8370 N   0  0  0  0  0  1  0  0  0  0  0  0
  188.3270  178.3970  136.2700 C   0  0  0  0  0  2  0  0  0  0  0  0
  186.1030  177.1490  146.4290 C   0  0  0  0  0  2  0  0  0  0  0  0
  185.3090  178.4330  146.6320 C   0  0  0  0  0  2  0  0  0  0  0  0
  185.4900  179.3860  145.4600 C   0  0  0  0  0  2  0  0  0  0  0  0
  183.0870  179.0020  144.8700 C   0  0  0  0  0  3  0  0  0  0  0  0
  182.0770  178.8040  143.9240 C   0  0  0  0  0  3  0  0  0  0  0  0
  183.7040  179.0010  142.1430 C   0  0  0  0  0  3  0  0  0  0  0  0
  182.3780  178.8030  142.5550 C   0  0  0  0  0  0  0  0  0  0  0  0
  184.4060  179.2010  144.4530 C   0  0  0  0  0  0  0  0  0  0  0  0
  184.7140  179.1970  143.0880 C   0  0  0  0  0  3  0  0  0  0  0  0
  181.3120  178.5860  141.5620 C   0  0  0  0  0  0  0  0  0  0  0  0
  180.4640  177.6670  141.7390 O   0  0  0  0  0  0  0  0  0  0  0  0
  181.2430  179.4010  140.4280 O   0  0  0  0  0  0  0  0  0  0  0  0
  181.4750  178.9050  139.1150 C   0  0  0  0  0  2  0  0  0  0  0  0
  181.8910  180.0320  138.1800 C   0  0  2  0  0  3  0  0  0  0  0  0
  182.9620  180.7320  138.7320 O   0  0  0  0  0  1  0  0  0  0  0  0
  180.7310  180.9790  137.9080 C   0  0  0  0  0  2  0  0  0  0  0  0
  180.8210  181.5140  136.6210 O   0  0  0  0  0  1  0  0  0  0  0  0
  1  5  1  0  0  0  0
  2  1  2  0  0  0  0
  2  8  1  0  0  0  0
  3  8  1  0  0  0  0
  4  6  2  0  0  0  0
  5  4  1  0  0  0  0
  6  7  1  0  0  0  0
  8  9  2  0  0  0  0
  9  4  1  0  0  0  0
  9 10  1  0  0  0  0
 10  7  2  0  0  0  0
 11 16  1  0  0  0  0
 12 11  1  0  0  0  0
 12 13  1  0  0  0  0
 13 14  1  0  0  0  0
 14 15  1  0  0  0  0
 15  2  1  1  0  0  0
 16 15  1  0  0  0  0
 17 21  1  1  0  0  0
 17 12  1  0  0  0  0
 18 20  1  0  0  0  0
 18 19  1  0  0  0  0
 19 17  1  6  0  0  0
 20 19  1  0  0  0  0
 23 22  1  0  0  0  0
 23 21  1  0  0  0  0
 24 10  1  0  0  0  0
 24 25  1  0  0  0  0
 26 25  1  0  0  0  0
 28 27  2  0  0  0  0
 29 30  2  0  0  0  0
 29 32  1  0  0  0  0
 30 28  1  0  0  0  0
 31 27  1  0  0  0  0
 31 26  1  0  0  0  0
 32 31  2  0  0  0  0
 33 34  2  0  0  0  0
 33 30  1  0  0  0  0
 35 33  1  0  0  0  0
 36 35  1  0  0  0  0
 37 38  1  1  0  0  0
 37 36  1  0  0  0  0
 39 37  1  0  0  0  0
 40 39  1  0  0  0  0
M  END
>  <MODEL>
7

>  <REMARK>
 VINA RESULT:      -7.5      2.148      6.800
  Name = 
  14 active torsions:
  status: ('A' for Active; 'I' for Inactive)
    1  A    between atoms: C_1  and  C_24
    2  A    between atoms: C_1  and  C_35
    3  A    between atoms: O_2  and  C_12
    4  A    between atoms: O_2  and  C_25
    5  A    between atoms: N_7  and  C_32
    6  A    between atoms: C_9  and  C_39
    7  A    between atoms: C_12  and  C_17
    8  A    between atoms: C_13  and  C_15
    9  A    between atoms: C_17  and  C_19
   10  A    between atoms: C_21  and  C_32
   11  A    between atoms: C_23  and  C_24
   12  A    between atoms: C_23  and  C_40
   13  A    between atoms: C_25  and  C_34
   14  A    between atoms: C_32  and  C_39
                            x       y       z     vdW  Elec       q    Type
                         _______ _______ _______ _____ _____    ______ ____

>  <TORSDO>
F 14

$$$$
=
 OpenBabel11042411433D

 40 44  0  0  1  0  0  0  0  0999 V2000
  191.5460  176.6010  144.0760 C   0  0  0  0  0  3  0  0  0  0  0  0
  190.5160  177.2930  143.5400 C   0  0  0  0  0  0  0  0  0  0  0  0
  188.2900  178.5920  143.7950 C   0  0  0  0  0  1  0  0  0  0  0  0
  190.5270  176.8250  146.3260 C   0  0  0  0  0  0  0  0  0  0  0  0
  191.7030  176.3160  145.5560 C   0  0  0  0  0  2  0  0  0  0  0  0
  190.3150  176.7200  147.6310 C   0  0  0  0  0  3  0  0  0  0  0  0
  189.0450  177.4070  147.9310 C   0  0  0  0  0  3  0  0  0  0  0  0
  189.4150  177.8160  144.4000 C   0  0  0  0  0  0  0  0  0  0  0  0
  189.4560  177.5680  145.7110 C   0  0  0  0  0  0  0  0  0  0  0  0
  188.5440  177.8990  146.7990 C   0  0  0  0  0  0  0  0  0  0  0  0
  191.6830  177.4900  139.8900 C   0  0  0  0  0  2  0  0  0  0  0  0
  190.7680  176.4710  139.3590 N   0  0  0  0  0  0  0  0  0  0  0  0
  189.4350  176.7790  139.8960 C   0  0  0  0  0  2  0  0  0  0  0  0
  189.4200  176.5740  141.4070 C   0  0  0  0  0  2  0  0  0  0  0  0
  190.4520  177.4980  142.0550 C   0  0  2  0  0  3  0  0  0  0  0  0
  191.8240  177.3350  141.4000 C   0  0  0  0  0  2  0  0  0  0  0  0
  190.7340  176.5770  137.8890 C   0  0  1  0  0  3  0  0  0  0  0  0
  192.4450  175.0840  136.9020 C   0  0  0  0  0  2  0  0  0  0  0  0
  191.0090  175.2200  137.2390 C   0  0  1  0  0  3  0  0  0  0  0  0
  191.8950  174.4850  138.0500 O   0  0  0  0  0  0  0  0  0  0  0  0
  189.3570  177.0420  137.4050 C   0  0  0  0  0  2  0  0  0  0  0  0
  188.8550  179.3980  137.7630 N   0  0  0  0  0  1  0  0  0  0  0  0
  189.4280  178.4440  136.8290 C   0  0  0  0  0  2  0  0  0  0  0  0
  187.2850  178.6970  146.7090 C   0  0  0  0  0  2  0  0  0  0  0  0
  186.1250  177.8230  146.2520 C   0  0  0  0  0  2  0  0  0  0  0  0
  184.8260  178.6140  146.1940 C   0  0  0  0  0  2  0  0  0  0  0  0
  182.9250  178.9390  144.5960 C   0  0  0  0  0  3  0  0  0  0  0  0
  182.4000  178.9190  143.3010 C   0  0  0  0  0  3  0  0  0  0  0  0
  184.5610  178.2590  142.4340 C   0  0  0  0  0  3  0  0  0  0  0  0
  183.2140  178.5800  142.2110 C   0  0  0  0  0  0  0  0  0  0  0  0
  184.2690  178.6210  144.8110 C   0  0  0  0  0  0  0  0  0  0  0  0
  185.0860  178.2770  143.7290 C   0  0  0  0  0  3  0  0  0  0  0  0
  182.6540  178.5530  140.8490 C   0  0  0  0  0  0  0  0  0  0  0  0
  181.8420  179.4470  140.4830 O   0  0  0  0  0  0  0  0  0  0  0  0
  183.0270  177.5340  139.9670 O   0  0  0  0  0  0  0  0  0  0  0  0
  182.2860  176.3270  139.8350 C   0  0  0  0  0  2  0  0  0  0  0  0
  181.4080  176.3680  138.5920 C   0  0  2  0  0  3  0  0  0  0  0  0
  181.7120  177.4980  137.8360 O   0  0  0  0  0  1  0  0  0  0  0  0
  179.9310  176.3680  138.9610 C   0  0  0  0  0  2  0  0  0  0  0  0
  179.7660  176.2060  140.3390 O   0  0  0  0  0  1  0  0  0  0  0  0
  1  5  1  0  0  0  0
  2  1  2  0  0  0  0
  2  8  1  0  0  0  0
  3  8  1  0  0  0  0
  4  6  2  0  0  0  0
  5  4  1  0  0  0  0
  6  7  1  0  0  0  0
  8  9  2  0  0  0  0
  9  4  1  0  0  0  0
  9 10  1  0  0  0  0
 10  7  2  0  0  0  0
 11 16  1  0  0  0  0
 12 11  1  0  0  0  0
 12 13  1  0  0  0  0
 13 14  1  0  0  0  0
 14 15  1  0  0  0  0
 15  2  1  1  0  0  0
 16 15  1  0  0  0  0
 17 21  1  1  0  0  0
 17 12  1  0  0  0  0
 18 19  1  0  0  0  0
 18 20  1  0  0  0  0
 19 17  1  1  0  0  0
 19 20  1  0  0  0  0
 23 21  1  0  0  0  0
 23 22  1  0  0  0  0
 24 10  1  0  0  0  0
 25 24  1  0  0  0  0
 26 25  1  0  0  0  0
 27 31  1  0  0  0  0
 28 27  2  0  0  0  0
 29 32  1  0  0  0  0
 30 29  2  0  0  0  0
 30 28  1  0  0  0  0
 31 26  1  0  0  0  0
 32 31  2  0  0  0  0
 33 30  1  0  0  0  0
 34 33  2  0  0  0  0
 35 33  1  0  0  0  0
 36 35  1  0  0  0  0
 37 38  1  1  0  0  0
 37 39  1  0  0  0  0
 37 36  1  0  0  0  0
 39 40  1  0  0  0  0
M  END
>  <MODEL>
8

>  <REMARK>
 VINA RESULT:      -7.4      2.557      6.998
  Name = 
  14 active torsions:
  status: ('A' for Active; 'I' for Inactive)
    1  A    between atoms: C_1  and  C_24
    2  A    between atoms: C_1  and  C_35
    3  A    between atoms: O_2  and  C_12
    4  A    between atoms: O_2  and  C_25
    5  A    between atoms: N_7  and  C_32
    6  A    between atoms: C_9  and  C_39
    7  A    between atoms: C_12  and  C_17
    8  A    between atoms: C_13  and  C_15
    9  A    between atoms: C_17  and  C_19
   10  A    between atoms: C_21  and  C_32
   11  A    between atoms: C_23  and  C_24
   12  A    between atoms: C_23  and  C_40
   13  A    between atoms: C_25  and  C_34
   14  A    between atoms: C_32  and  C_39
                            x       y       z     vdW  Elec       q    Type
                         _______ _______ _______ _____ _____    ______ ____

>  <TORSDO>
F 14

$$$$
=
 OpenBabel11042411433D

 40 44  0  0  1  0  0  0  0  0999 V2000
  191.4630  176.6610  144.1520 C   0  0  0  0  0  3  0  0  0  0  0  0
  190.4140  177.3440  143.6410 C   0  0  0  0  0  0  0  0  0  0  0  0
  188.1790  178.6140  143.9470 C   0  0  0  0  0  1  0  0  0  0  0  0
  190.4860  176.8620  146.4240 C   0  0  0  0  0  0  0  0  0  0  0  0
  191.6530  176.3710  145.6280 C   0  0  0  0  0  2  0  0  0  0  0  0
  190.3020  176.7470  147.7320 C   0  0  0  0  0  3  0  0  0  0  0  0
  189.0290  177.4170  148.0600 C   0  0  0  0  0  3  0  0  0  0  0  0
  189.3240  177.8490  144.5250 C   0  0  0  0  0  0  0  0  0  0  0  0
  189.3950  177.5950  145.8340 C   0  0  0  0  0  0  0  0  0  0  0  0
  188.5000  177.9090  146.9410 C   0  0  0  0  0  0  0  0  0  0  0  0
  191.4200  177.3140  139.9380 C   0  0  0  0  0  2  0  0  0  0  0  0
  190.3050  176.4860  139.4610 N   0  0  0  0  0  0  0  0  0  0  0  0
  189.0820  177.0380  140.0570 C   0  0  0  0  0  2  0  0  0  0  0  0
  189.1010  176.8420  141.5690 C   0  0  0  0  0  2  0  0  0  0  0  0
  190.3180  177.5550  142.1580 C   0  0  2  0  0  3  0  0  0  0  0  0
  191.6020  177.1370  141.4410 C   0  0  0  0  0  2  0  0  0  0  0  0
  190.2220  176.5940  137.9930 C   0  0  1  0  0  3  0  0  0  0  0  0
  191.6510  175.0730  136.6620 C   0  0  0  0  0  2  0  0  0  0  0  0
  190.3400  175.2170  137.3370 C   0  0  1  0  0  3  0  0  0  0  0  0
  191.4050  174.5100  137.9280 O   0  0  0  0  0  0  0  0  0  0  0  0
  188.8750  177.1870  137.5650 C   0  0  0  0  0  2  0  0  0  0  0  0
  187.8500  179.2760  136.8480 N   0  0  0  0  0  1  0  0  0  0  0  0
  189.0700  178.4890  136.8090 C   0  0  0  0  0  2  0  0  0  0  0  0
  187.2300  178.6920  146.8810 C   0  0  0  0  0  2  0  0  0  0  0  0
  186.0880  177.8270  146.3630 C   0  0  0  0  0  2  0  0  0  0  0  0
  184.8060  178.6340  146.2190 C   0  0  0  0  0  2  0  0  0  0  0  0
  185.1770  178.2640  143.7700 C   0  0  0  0  0  3  0  0  0  0  0  0
  184.7130  178.2520  142.4520 C   0  0  0  0  0  3  0  0  0  0  0  0
  182.5130  178.9050  143.2180 C   0  0  0  0  0  3  0  0  0  0  0  0
  183.3780  178.5710  142.1670 C   0  0  0  0  0  0  0  0  0  0  0  0
  184.3080  178.5940  144.8140 C   0  0  0  0  0  0  0  0  0  0  0  0
  182.9760  178.9180  144.5370 C   0  0  0  0  0  3  0  0  0  0  0  0
  182.8960  178.5660  140.7750 C   0  0  0  0  0  0  0  0  0  0  0  0
  183.0000  177.5200  140.0760 O   0  0  0  0  0  0  0  0  0  0  0  0
  182.3240  179.7220  140.2350 O   0  0  0  0  0  0  0  0  0  0  0  0
  180.9370  179.8210  139.9360 C   0  0  0  0  0  2  0  0  0  0  0  0
  180.7280  180.2670  138.4960 C   0  0  2  0  0  3  0  0  0  0  0  0
  181.4930  179.4770  137.6400 O   0  0  0  0  0  1  0  0  0  0  0  0
  181.0920  181.7350  138.3160 C   0  0  0  0  0  2  0  0  0  0  0  0
  180.8290  182.1520  137.0090 O   0  0  0  0  0  1  0  0  0  0  0  0
  1  5  1  0  0  0  0
  2  1  2  0  0  0  0
  2  8  1  0  0  0  0
  3  8  1  0  0  0  0
  4  6  2  0  0  0  0
  5  4  1  0  0  0  0
  6  7  1  0  0  0  0
  8  9  2  0  0  0  0
  9  4  1  0  0  0  0
  9 10  1  0  0  0  0
 10  7  2  0  0  0  0
 11 16  1  0  0  0  0
 12 11  1  0  0  0  0
 12 13  1  0  0  0  0
 13 14  1  0  0  0  0
 14 15  1  0  0  0  0
 15  2  1  1  0  0  0
 16 15  1  0  0  0  0
 17 21  1  1  0  0  0
 17 12  1  0  0  0  0
 18 19  1  0  0  0  0
 18 20  1  0  0  0  0
 19 20  1  0  0  0  0
 19 17  1  1  0  0  0
 23 22  1  0  0  0  0
 23 21  1  0  0  0  0
 24 10  1  0  0  0  0
 25 24  1  0  0  0  0
 26 25  1  0  0  0  0
 27 31  1  0  0  0  0
 28 27  2  0  0  0  0
 29 32  1  0  0  0  0
 30 28  1  0  0  0  0
 30 29  2  0  0  0  0
 31 26  1  0  0  0  0
 32 31  2  0  0  0  0
 33 30  1  0  0  0  0
 34 33  2  0  0  0  0
 35 33  1  0  0  0  0
 36 35  1  0  0  0  0
 37 38  1  6  0  0  0
 37 36  1  0  0  0  0
 39 37  1  0  0  0  0
 40 39  1  0  0  0  0
M  END
>  <MODEL>
9

>  <REMARK>
 VINA RESULT:      -7.3      2.181      6.829
  Name = 
  14 active torsions:
  status: ('A' for Active; 'I' for Inactive)
    1  A    between atoms: C_1  and  C_24
    2  A    between atoms: C_1  and  C_35
    3  A    between atoms: O_2  and  C_12
    4  A    between atoms: O_2  and  C_25
    5  A    between atoms: N_7  and  C_32
    6  A    between atoms: C_9  and  C_39
    7  A    between atoms: C_12  and  C_17
    8  A    between atoms: C_13  and  C_15
    9  A    between atoms: C_17  and  C_19
   10  A    between atoms: C_21  and  C_32
   11  A    between atoms: C_23  and  C_24
   12  A    between atoms: C_23  and  C_40
   13  A    between atoms: C_25  and  C_34
   14  A    between atoms: C_32  and  C_39
                            x       y       z     vdW  Elec       q    Type
                         _______ _______ _______ _____ _____    ______ ____

>  <TORSDO>
F 14

$$$$
