=
 OpenBabel11042411373D

 57 62  0  0  1  0  0  0  0  0999 V2000
  188.4370  176.1440  136.7840 C   0  0  1  0  0  3  0  0  0  0  0  0
  189.8650  176.6790  136.9960 C   0  0  1  0  0  3  0  0  0  0  0  0
  192.2280  175.8950  137.2780 C   0  0  0  0  0  0  0  0  0  0  0  0
  190.3190  176.4480  138.4400 C   0  0  1  0  0  3  0  0  0  0  0  0
  193.6250  175.6800  137.0720 N   0  0  0  0  0  2  0  0  0  0  0  0
  191.7530  176.2200  138.4300 N   0  0  0  0  0  0  0  0  0  0  0  0
  191.0760  175.8210  135.9270 S   0  0  0  0  0  0  0  0  0  0  0  0
  189.9400  177.5970  139.3700 C   0  0  0  0  0  2  0  0  0  0  0  0
  190.7170  177.5790  140.6810 C   0  0  0  0  0  2  0  0  0  0  0  0
  190.1630  174.8750  143.0730 O   0  0  0  0  0  0  0  0  0  0  0  0
  190.3260  176.0500  142.6500 C   0  0  0  0  0  0  0  0  0  0  0  0
  190.6300  176.2560  141.2710 N   0  0  0  0  0  2  0  0  0  0  0  0
  190.2320  177.2070  143.5980 C   0  0  1  0  0  3  0  0  0  0  0  0
  189.0150  177.0830  144.5270 C   0  0  0  0  0  2  0  0  0  0  0  0
  189.2980  177.7680  145.7850 N   0  0  0  0  0  0  0  0  0  0  0  0
  191.5050  176.6210  145.5750 C   0  0  0  0  0  2  0  0  0  0  0  0
  190.3450  177.0310  146.5010 C   0  0  0  0  0  2  0  0  0  0  0  0
  191.4940  177.4010  144.3310 N   0  0  0  0  0  2  0  0  0  0  0  0
  188.0900  177.7100  146.5960 C   0  0  0  0  0  2  0  0  0  0  0  0
  187.7570  177.3170  148.9250 O   0  0  0  0  0  1  0  0  0  0  0  0
  188.4380  177.8900  148.0340 C   0  0  0  0  0  0  0  0  0  0  0  0
  189.4710  178.7440  148.3910 O   0  0  0  0  0  0  0  0  0  0  0  0
  194.5340  175.6880  138.1380 N   0  0  0  0  0  2  0  0  0  0  0  0
  194.8940  174.3010  138.3980 C   0  0  0  0  0  2  0  0  0  0  0  0
  197.2850  174.9140  138.2150 O   0  0  0  0  0  0  0  0  0  0  0  0
  196.3130  174.0620  138.0080 C   0  0  0  0  0  0  0  0  0  0  0  0
  196.7750  172.9410  137.3560 C   0  0  0  0  0  3  0  0  0  0  0  0
  198.3990  174.4100  137.7370 C   0  0  0  0  0  3  0  0  0  0  0  0
  198.1310  173.1660  137.1850 C   0  0  0  0  0  3  0  0  0  0  0  0
  188.3450  174.6450  136.9380 C   0  0  0  0  0  3  0  0  0  0  0  0
  187.6230  173.8800  136.1190 C   0  0  0  0  0  2  0  0  0  0  0  0
  187.3550  176.8710  137.5990 C   0  0  0  0  0  2  0  0  0  0  0  0
  186.4140  177.6740  136.7430 C   0  0  0  0  0  3  0  0  0  0  0  0
  185.1410  177.3100  136.5380 C   0  0  0  0  0  3  0  0  0  0  0  0
  184.5510  176.0810  137.1540 C   0  0  0  0  0  2  0  0  0  0  0  0
  183.1350  176.3550  137.6100 C   0  0  0  0  0  2  0  0  0  0  0  0
  181.7110  178.0850  136.4700 C   0  0  1  0  0  3  0  0  0  0  0  0
  182.5920  178.5870  138.8180 C   0  0  2  0  0  3  0  0  0  0  0  0
  180.7160  179.8620  138.0170 C   0  0  2  0  0  3  0  0  0  0  0  0
  181.2090  181.2630  138.3840 C   0  0  0  0  0  2  0  0  0  0  0  0
  180.1650  182.3130  138.0220 C   0  0  0  0  0  2  0  0  0  0  0  0
  180.2670  181.9580  135.4800 C   0  0  0  0  0  2  0  0  0  0  0  0
  179.3230  180.9610  135.7730 O   0  0  0  0  0  0  0  0  0  0  0  0
  180.4030  182.9410  136.6470 C   0  0  0  0  0  2  0  0  0  0  0  0
  181.1700  178.8730  139.0080 N   0  0  0  0  0  2  0  0  0  0  0  0
  182.8530  177.8500  137.4780 C   0  0  1  0  0  3  0  0  0  0  0  0
  181.1320  179.5080  136.5750 C   0  0  2  0  0  3  0  0  0  0  0  0
  179.9740  179.7230  135.5870 C   0  0  0  0  0  2  0  0  0  0  0  0
  182.0440  177.7000  135.1480 O   0  0  0  0  0  0  0  0  0  0  0  0
  181.2360  176.6100  134.7690 C   0  0  0  0  0  1  0  0  0  0  0  0
  183.1510  177.8920  140.0520 C   0  0  0  0  0  2  0  0  0  0  0  0
  183.5470  178.8710  141.0550 N   0  0  0  0  0  2  0  0  0  0  0  0
  184.9350  178.5910  141.4210 C   0  0  2  0  0  3  0  0  0  0  0  0
  183.8530  178.1320  143.6450 F   0  0  0  0  0  0  0  0  0  0  0  0
  185.0090  178.1940  142.8820 C   0  0  2  0  0  0  0  0  0  0  0  0
  185.4280  179.5850  142.4780 C   0  0  0  0  0  2  0  0  0  0  0  0
  186.0790  177.3710  143.2360 O   0  0  0  0  0  1  0  0  0  0  0  0
  1 30  1  1  0  0  0
  1 32  1  0  0  0  0
  2  1  1  1  0  0  0
  2  4  1  0  0  0  0
  3  6  2  0  0  0  0
  4  8  1  1  0  0  0
  5  3  1  0  0  0  0
  5 23  1  0  0  0  0
  6  4  1  0  0  0  0
  7  2  1  0  0  0  0
  7  3  1  0  0  0  0
  8  9  1  0  0  0  0
  9 12  1  0  0  0  0
 11 10  2  0  0  0  0
 12 11  1  0  0  0  0
 13 11  1  1  0  0  0
 13 18  1  0  0  0  0
 13 14  1  0  0  0  0
 14 15  1  0  0  0  0
 15 17  1  0  0  0  0
 15 19  1  0  0  0  0
 16 17  1  0  0  0  0
 18 16  1  0  0  0  0
 19 21  1  0  0  0  0
 21 22  2  0  0  0  0
 21 20  1  0  0  0  0
 23 24  1  0  0  0  0
 26 25  1  0  0  0  0
 26 24  1  0  0  0  0
 27 26  2  0  0  0  0
 28 25  1  0  0  0  0
 29 27  1  0  0  0  0
 29 28  2  0  0  0  0
 31 30  2  0  0  0  0
 33 32  1  0  0  0  0
 34 33  2  0  0  0  0
 34 35  1  0  0  0  0
 35 36  1  0  0  0  0
 37 49  1  6  0  0  0
 37 47  1  0  0  0  0
 37 46  1  0  0  0  0
 38 45  1  0  0  0  0
 38 51  1  1  0  0  0
 39 40  1  1  0  0  0
 39 45  1  0  0  0  0
 41 40  1  0  0  0  0
 42 43  1  0  0  0  0
 42 44  1  0  0  0  0
 44 41  1  0  0  0  0
 46 36  1  1  0  0  0
 46 38  1  0  0  0  0
 47 48  1  6  0  0  0
 47 39  1  0  0  0  0
 48 43  1  0  0  0  0
 50 49  1  0  0  0  0
 51 52  1  0  0  0  0
 53 52  1  1  0  0  0
 53 56  1  0  0  0  0
 53 55  1  0  0  0  0
 55 57  1  1  0  0  0
 55 54  1  0  0  0  0
 56 55  1  0  0  0  0
M  END
>  <MODEL>
1

>  <REMARK>
 VINA RESULT:      -7.1      0.000      0.000
  Name = 
  20 active torsions:
  status: ('A' for Active; 'I' for Inactive)
    1  A    between atoms: C_1  and  N_13
    2  A    between atoms: C_1  and  C_28
    3  A    between atoms: C_2  and  C_34
    4  A    between atoms: C_3  and  O_9
    5  A    between atoms: C_4  and  C_32
    6  A    between atoms: C_5  and  C_56
    7  A    between atoms: C_7  and  N_51
    8  A    between atoms: N_11  and  C_45
    9  A    between atoms: N_13  and  N_23
   10  A    between atoms: C_14  and  C_29
   11  A    between atoms: C_14  and  N_35
   12  A    between atoms: C_17  and  C_29
   13  A    between atoms: C_19  and  C_21
   14  A    between atoms: C_19  and  C_54
   15  A    between atoms: C_21  and  C_39
   16  A    between atoms: C_25  and  C_34
   17  A    between atoms: C_34  and  C_42
   18  A    between atoms: C_36  and  C_42
   19  A    between atoms: C_45  and  C_46
   20  A    between atoms: N_51  and  C_56
                            x       y       z     vdW  Elec       q    Type
                         _______ _______ _______ _____ _____    ______ ____

>  <TORSDO>
F 20

$$$$
=
 OpenBabel11042411373D

 57 62  0  0  1  0  0  0  0  0999 V2000
  189.5060  175.2870  136.5110 C   0  0  1  0  0  3  0  0  0  0  0  0
  188.3120  174.3330  136.7000 C   0  0  1  0  0  3  0  0  0  0  0  0
  186.8690  172.7260  135.4290 C   0  0  0  0  0  0  0  0  0  0  0  0
  187.0430  174.9260  136.0810 C   0  0  1  0  0  3  0  0  0  0  0  0
  186.2180  171.5320  134.9960 N   0  0  0  0  0  2  0  0  0  0  0  0
  186.2290  173.8320  135.5860 N   0  0  0  0  0  0  0  0  0  0  0  0
  188.5900  172.7260  135.8720 S   0  0  0  0  0  0  0  0  0  0  0  0
  186.2670  175.8080  137.0560 C   0  0  0  0  0  2  0  0  0  0  0  0
  185.5500  176.9630  136.3670 C   0  0  0  0  0  2  0  0  0  0  0  0
  182.0070  176.2940  135.7810 O   0  0  0  0  0  0  0  0  0  0  0  0
  183.0470  176.6460  136.3990 C   0  0  0  0  0  0  0  0  0  0  0  0
  184.3180  176.4770  135.7740 N   0  0  0  0  0  2  0  0  0  0  0  0
  182.9400  177.2040  137.7860 C   0  0  1  0  0  3  0  0  0  0  0  0
  181.7120  178.1150  137.9390 C   0  0  0  0  0  2  0  0  0  0  0  0
  181.2630  178.0870  139.3280 N   0  0  0  0  0  0  0  0  0  0  0  0
  181.6420  175.6310  139.0950 C   0  0  0  0  0  2  0  0  0  0  0  0
  180.7310  176.7520  139.6270 C   0  0  0  0  0  2  0  0  0  0  0  0
  182.9890  176.1350  138.7970 N   0  0  0  0  0  2  0  0  0  0  0  0
  180.1620  179.0320  139.4500 C   0  0  0  0  0  2  0  0  0  0  0  0
  181.4540  180.9200  138.7770 O   0  0  0  0  0  1  0  0  0  0  0  0
  180.4210  180.2230  138.5930 C   0  0  0  0  0  0  0  0  0  0  0  0
  179.4910  180.6010  137.6370 O   0  0  0  0  0  0  0  0  0  0  0  0
  184.8740  171.5320  134.5980 N   0  0  0  0  0  2  0  0  0  0  0  0
  184.1220  170.8510  135.6430 C   0  0  0  0  0  2  0  0  0  0  0  0
  182.1100  172.1130  134.9470 O   0  0  0  0  0  0  0  0  0  0  0  0
  182.8330  171.5590  135.8860 C   0  0  0  0  0  0  0  0  0  0  0  0
  182.2560  171.7480  137.1230 C   0  0  0  0  0  3  0  0  0  0  0  0
  181.0540  172.6670  135.4950 C   0  0  0  0  0  3  0  0  0  0  0  0
  181.0990  172.4640  136.8660 C   0  0  0  0  0  3  0  0  0  0  0  0
  189.5540  175.8970  135.1310 C   0  0  0  0  0  3  0  0  0  0  0  0
  190.6750  176.3830  134.5980 C   0  0  0  0  0  2  0  0  0  0  0  0
  189.6550  176.3490  137.6120 C   0  0  0  0  0  2  0  0  0  0  0  0
  189.3030  177.7350  137.1430 C   0  0  0  0  0  3  0  0  0  0  0  0
  189.0860  178.7480  137.9910 C   0  0  0  0  0  3  0  0  0  0  0  0
  189.1860  178.5840  139.4750 C   0  0  0  0  0  2  0  0  0  0  0  0
  187.9290  177.9350  140.0130 C   0  0  0  0  0  2  0  0  0  0  0  0
  186.2780  178.4860  141.8270 C   0  0  1  0  0  3  0  0  0  0  0  0
  188.4730  177.3490  142.4820 C   0  0  2  0  0  3  0  0  0  0  0  0
  186.6390  177.2490  144.0360 C   0  0  2  0  0  3  0  0  0  0  0  0
  187.3830  177.6610  145.3070 C   0  0  0  0  0  2  0  0  0  0  0  0
  186.4470  177.6400  146.5100 C   0  0  0  0  0  2  0  0  0  0  0  0
  184.9080  179.5360  145.7120 C   0  0  0  0  0  2  0  0  0  0  0  0
  184.2630  178.4780  145.0510 O   0  0  0  0  0  0  0  0  0  0  0  0
  185.8350  179.0090  146.8120 C   0  0  0  0  0  2  0  0  0  0  0  0
  187.5140  176.4670  143.1480 N   0  0  0  0  0  2  0  0  0  0  0  0
  187.7710  178.3080  141.4850 C   0  0  1  0  0  3  0  0  0  0  0  0
  186.0300  178.4860  143.3460 C   0  0  2  0  0  3  0  0  0  0  0  0
  184.5350  178.6340  143.6760 C   0  0  0  0  0  2  0  0  0  0  0  0
  185.6760  179.5760  141.1490 O   0  0  0  0  0  0  0  0  0  0  0  0
  184.6210  179.0940  140.3500 C   0  0  0  0  0  1  0  0  0  0  0  0
  189.6090  176.5280  141.8890 C   0  0  0  0  0  2  0  0  0  0  0  0
  190.8440  176.7540  142.6290 N   0  0  0  0  0  2  0  0  0  0  0  0
  190.6130  176.3370  144.0110 C   0  0  2  0  0  3  0  0  0  0  0  0
  191.4470  178.6690  144.4510 F   0  0  0  0  0  0  0  0  0  0  0  0
  190.9820  177.4630  144.9550 C   0  0  2  0  0  0  0  0  0  0  0  0
  191.9290  176.3020  144.7940 C   0  0  0  0  0  2  0  0  0  0  0  0
  190.3160  177.4730  146.1820 O   0  0  0  0  0  1  0  0  0  0  0  0
  1 30  1  6  0  0  0
  1 32  1  0  0  0  0
  2  1  1  6  0  0  0
  3  6  2  0  0  0  0
  3  7  1  0  0  0  0
  4  2  1  0  0  0  0
  4  8  1  1  0  0  0
  5  3  1  0  0  0  0
  6  4  1  0  0  0  0
  7  2  1  0  0  0  0
  9  8  1  0  0  0  0
 10 11  2  0  0  0  0
 12  9  1  0  0  0  0
 12 11  1  0  0  0  0
 13 11  1  6  0  0  0
 13 14  1  0  0  0  0
 13 18  1  0  0  0  0
 14 15  1  0  0  0  0
 15 19  1  0  0  0  0
 15 17  1  0  0  0  0
 16 17  1  0  0  0  0
 18 16  1  0  0  0  0
 21 20  1  0  0  0  0
 21 19  1  0  0  0  0
 22 21  2  0  0  0  0
 23  5  1  0  0  0  0
 23 24  1  0  0  0  0
 24 26  1  0  0  0  0
 25 28  1  0  0  0  0
 25 26  1  0  0  0  0
 26 27  2  0  0  0  0
 28 29  2  0  0  0  0
 29 27  1  0  0  0  0
 31 30  2  0  0  0  0
 33 32  1  0  0  0  0
 33 34  2  0  0  0  0
 34 35  1  0  0  0  0
 35 36  1  0  0  0  0
 37 49  1  1  0  0  0
 37 47  1  0  0  0  0
 38 51  1  6  0  0  0
 38 45  1  0  0  0  0
 39 40  1  1  0  0  0
 40 41  1  0  0  0  0
 41 44  1  0  0  0  0
 42 44  1  0  0  0  0
 43 42  1  0  0  0  0
 45 39  1  0  0  0  0
 46 36  1  6  0  0  0
 46 37  1  0  0  0  0
 46 38  1  0  0  0  0
 47 48  1  6  0  0  0
 47 39  1  0  0  0  0
 48 43  1  0  0  0  0
 50 49  1  0  0  0  0
 51 52  1  0  0  0  0
 53 52  1  6  0  0  0
 53 56  1  0  0  0  0
 53 55  1  0  0  0  0
 55 54  1  6  0  0  0
 55 57  1  0  0  0  0
 56 55  1  0  0  0  0
M  END
>  <MODEL>
2

>  <REMARK>
 VINA RESULT:      -6.9      3.640      9.388
  Name = 
  20 active torsions:
  status: ('A' for Active; 'I' for Inactive)
    1  A    between atoms: C_1  and  N_13
    2  A    between atoms: C_1  and  C_28
    3  A    between atoms: C_2  and  C_34
    4  A    between atoms: C_3  and  O_9
    5  A    between atoms: C_4  and  C_32
    6  A    between atoms: C_5  and  C_56
    7  A    between atoms: C_7  and  N_51
    8  A    between atoms: N_11  and  C_45
    9  A    between atoms: N_13  and  N_23
   10  A    between atoms: C_14  and  C_29
   11  A    between atoms: C_14  and  N_35
   12  A    between atoms: C_17  and  C_29
   13  A    between atoms: C_19  and  C_21
   14  A    between atoms: C_19  and  C_54
   15  A    between atoms: C_21  and  C_39
   16  A    between atoms: C_25  and  C_34
   17  A    between atoms: C_34  and  C_42
   18  A    between atoms: C_36  and  C_42
   19  A    between atoms: C_45  and  C_46
   20  A    between atoms: N_51  and  C_56
                            x       y       z     vdW  Elec       q    Type
                         _______ _______ _______ _____ _____    ______ ____

>  <TORSDO>
F 20

$$$$
=
 OpenBabel11042411373D

 57 62  0  0  1  0  0  0  0  0999 V2000
  185.2840  178.2000  140.1710 C   0  0  1  0  0  3  0  0  0  0  0  0
  186.4820  178.5870  139.2840 C   0  0  1  0  0  3  0  0  0  0  0  0
  187.8400  177.7470  137.3530 C   0  0  0  0  0  0  0  0  0  0  0  0
  187.7160  177.7590  139.6510 C   0  0  1  0  0  3  0  0  0  0  0  0
  188.4590  177.6350  136.0710 N   0  0  0  0  0  2  0  0  0  0  0  0
  188.4950  177.5500  138.4440 N   0  0  0  0  0  0  0  0  0  0  0  0
  186.1480  178.2630  137.5150 S   0  0  0  0  0  0  0  0  0  0  0  0
  188.5520  178.4010  140.7550 C   0  0  0  0  0  2  0  0  0  0  0  0
  190.0290  178.0350  140.6680 C   0  0  0  0  0  2  0  0  0  0  0  0
  190.1460  175.1020  142.8420 O   0  0  0  0  0  0  0  0  0  0  0  0
  190.0750  176.3160  142.5160 C   0  0  0  0  0  0  0  0  0  0  0  0
  190.2140  176.6750  141.1420 N   0  0  0  0  0  2  0  0  0  0  0  0
  189.8800  177.3650  143.5690 C   0  0  1  0  0  3  0  0  0  0  0  0
  188.9910  176.8590  144.7150 C   0  0  0  0  0  2  0  0  0  0  0  0
  189.3490  177.5580  145.9460 N   0  0  0  0  0  0  0  0  0  0  0  0
  191.6810  177.1170  145.1710 C   0  0  0  0  0  2  0  0  0  0  0  0
  190.6960  177.1390  146.3540 C   0  0  0  0  0  2  0  0  0  0  0  0
  191.1700  177.8970  144.0370 N   0  0  0  0  0  2  0  0  0  0  0  0
  188.4240  177.1220  146.9820 C   0  0  0  0  0  2  0  0  0  0  0  0
  186.9000  178.7360  147.8530 O   0  0  0  0  0  1  0  0  0  0  0  0
  187.1780  177.9360  146.9210 C   0  0  0  0  0  0  0  0  0  0  0  0
  186.2910  177.7630  145.8690 O   0  0  0  0  0  0  0  0  0  0  0  0
  189.7780  177.1820  135.9310 N   0  0  0  0  0  2  0  0  0  0  0  0
  189.7260  175.7270  135.9030 C   0  0  0  0  0  2  0  0  0  0  0  0
  191.3910  173.9350  136.2790 O   0  0  0  0  0  0  0  0  0  0  0  0
  190.9800  175.1620  136.4760 C   0  0  0  0  0  0  0  0  0  0  0  0
  191.8460  175.8410  137.3060 C   0  0  0  0  0  3  0  0  0  0  0  0
  192.5130  173.7530  136.9370 C   0  0  0  0  0  3  0  0  0  0  0  0
  192.8430  174.9250  137.6000 C   0  0  0  0  0  3  0  0  0  0  0  0
  185.1890  179.0400  141.4230 C   0  0  0  0  0  3  0  0  0  0  0  0
  185.5530  178.5870  142.6220 C   0  0  0  0  0  2  0  0  0  0  0  0
  183.9390  178.1220  139.4310 C   0  0  0  0  0  2  0  0  0  0  0  0
  183.1620  179.4100  139.4870 C   0  0  0  0  0  3  0  0  0  0  0  0
  182.3530  179.8050  138.4970 C   0  0  0  0  0  3  0  0  0  0  0  0
  182.1480  178.9900  137.2580 C   0  0  0  0  0  2  0  0  0  0  0  0
  180.6750  178.9220  136.9170 C   0  0  0  0  0  2  0  0  0  0  0  0
  181.2840  176.5780  136.2430 C   0  0  1  0  0  3  0  0  0  0  0  0
  179.8580  176.9100  138.3400 C   0  0  2  0  0  3  0  0  0  0  0  0
  181.0110  174.8150  138.0760 C   0  0  2  0  0  3  0  0  0  0  0  0
  179.8520  173.8670  138.3930 C   0  0  0  0  0  2  0  0  0  0  0  0
  180.3160  172.4160  138.3460 C   0  0  0  0  0  2  0  0  0  0  0  0
  180.8620  172.3670  135.8360 C   0  0  0  0  0  2  0  0  0  0  0  0
  182.0950  172.8630  136.2890 O   0  0  0  0  0  0  0  0  0  0  0  0
  180.0640  171.7530  136.9910 C   0  0  0  0  0  2  0  0  0  0  0  0
  180.9110  176.0470  138.8760 N   0  0  0  0  0  2  0  0  0  0  0  0
  180.2290  177.4610  136.9380 C   0  0  1  0  0  3  0  0  0  0  0  0
  181.0850  175.0840  136.5600 C   0  0  2  0  0  3  0  0  0  0  0  0
  182.1600  174.2140  135.8870 C   0  0  0  0  0  2  0  0  0  0  0  0
  181.4230  176.8550  134.8600 O   0  0  0  0  0  0  0  0  0  0  0  0
  182.7610  177.2040  134.5940 C   0  0  0  0  0  1  0  0  0  0  0  0
  179.4840  177.9710  139.3660 C   0  0  0  0  0  2  0  0  0  0  0  0
  180.0680  177.6540  140.6630 N   0  0  0  0  0  2  0  0  0  0  0  0
  179.5230  178.6010  141.6350 C   0  0  2  0  0  3  0  0  0  0  0  0
  181.9670  178.8820  142.1580 F   0  0  0  0  0  0  0  0  0  0  0  0
  180.6520  179.2300  142.4260 C   0  0  2  0  0  0  0  0  0  0  0  0
  179.8260  178.1440  143.0660 C   0  0  0  0  0  2  0  0  0  0  0  0
  180.3980  180.5020  142.9450 O   0  0  0  0  0  1  0  0  0  0  0  0
  1 32  1  6  0  0  0
  1 30  1  0  0  0  0
  2  4  1  0  0  0  0
  2  1  1  1  0  0  0
  3  7  1  0  0  0  0
  3  6  2  0  0  0  0
  4  8  1  1  0  0  0
  5  3  1  0  0  0  0
  6  4  1  0  0  0  0
  7  2  1  0  0  0  0
  9  8  1  0  0  0  0
  9 12  1  0  0  0  0
 11 10  2  0  0  0  0
 12 11  1  0  0  0  0
 13 11  1  6  0  0  0
 13 18  1  0  0  0  0
 13 14  1  0  0  0  0
 14 15  1  0  0  0  0
 15 17  1  0  0  0  0
 15 19  1  0  0  0  0
 16 17  1  0  0  0  0
 18 16  1  0  0  0  0
 21 19  1  0  0  0  0
 21 20  1  0  0  0  0
 22 21  2  0  0  0  0
 23  5  1  0  0  0  0
 24 23  1  0  0  0  0
 24 26  1  0  0  0  0
 25 26  1  0  0  0  0
 25 28  1  0  0  0  0
 26 27  2  0  0  0  0
 27 29  1  0  0  0  0
 28 29  2  0  0  0  0
 30 31  2  0  0  0  0
 32 33  1  0  0  0  0
 34 33  2  0  0  0  0
 35 34  1  0  0  0  0
 36 35  1  0  0  0  0
 37 49  1  6  0  0  0
 37 47  1  0  0  0  0
 37 46  1  0  0  0  0
 38 45  1  0  0  0  0
 38 51  1  1  0  0  0
 39 40  1  6  0  0  0
 39 45  1  0  0  0  0
 41 40  1  0  0  0  0
 42 43  1  0  0  0  0
 42 44  1  0  0  0  0
 44 41  1  0  0  0  0
 46 36  1  1  0  0  0
 46 38  1  0  0  0  0
 47 48  1  1  0  0  0
 47 39  1  0  0  0  0
 48 43  1  0  0  0  0
 50 49  1  0  0  0  0
 51 52  1  0  0  0  0
 53 52  1  6  0  0  0
 53 55  1  0  0  0  0
 53 56  1  0  0  0  0
 55 54  1  6  0  0  0
 55 57  1  0  0  0  0
 55 56  1  0  0  0  0
M  END
>  <MODEL>
3

>  <REMARK>
 VINA RESULT:      -6.5      2.775      4.853
  Name = 
  20 active torsions:
  status: ('A' for Active; 'I' for Inactive)
    1  A    between atoms: C_1  and  N_13
    2  A    between atoms: C_1  and  C_28
    3  A    between atoms: C_2  and  C_34
    4  A    between atoms: C_3  and  O_9
    5  A    between atoms: C_4  and  C_32
    6  A    between atoms: C_5  and  C_56
    7  A    between atoms: C_7  and  N_51
    8  A    between atoms: N_11  and  C_45
    9  A    between atoms: N_13  and  N_23
   10  A    between atoms: C_14  and  C_29
   11  A    between atoms: C_14  and  N_35
   12  A    between atoms: C_17  and  C_29
   13  A    between atoms: C_19  and  C_21
   14  A    between atoms: C_19  and  C_54
   15  A    between atoms: C_21  and  C_39
   16  A    between atoms: C_25  and  C_34
   17  A    between atoms: C_34  and  C_42
   18  A    between atoms: C_36  and  C_42
   19  A    between atoms: C_45  and  C_46
   20  A    between atoms: N_51  and  C_56
                            x       y       z     vdW  Elec       q    Type
                         _______ _______ _______ _____ _____    ______ ____

>  <TORSDO>
F 20

$$$$
=
 OpenBabel11042411373D

 57 62  0  0  1  0  0  0  0  0999 V2000
  189.1030  176.5280  136.4200 C   0  0  1  0  0  3  0  0  0  0  0  0
  190.5920  176.7970  136.7070 C   0  0  1  0  0  3  0  0  0  0  0  0
  192.7980  175.6210  136.8740 C   0  0  0  0  0  0  0  0  0  0  0  0
  190.9720  176.2960  138.1020 C   0  0  1  0  0  3  0  0  0  0  0  0
  194.1490  175.2230  136.6390 N   0  0  0  0  0  2  0  0  0  0  0  0
  192.3530  175.8500  138.0600 N   0  0  0  0  0  0  0  0  0  0  0  0
  191.6800  175.9210  135.5260 S   0  0  0  0  0  0  0  0  0  0  0  0
  190.7540  177.3460  139.1880 C   0  0  0  0  0  2  0  0  0  0  0  0
  190.0700  176.7830  140.4280 C   0  0  0  0  0  2  0  0  0  0  0  0
  187.3010  178.3680  142.2050 O   0  0  0  0  0  0  0  0  0  0  0  0
  188.2740  177.5940  142.0040 C   0  0  0  0  0  0  0  0  0  0  0  0
  188.8750  177.5560  140.7100 N   0  0  0  0  0  2  0  0  0  0  0  0
  188.7660  176.7070  143.1070 C   0  0  1  0  0  3  0  0  0  0  0  0
  190.1090  177.1930  143.6710 C   0  0  0  0  0  2  0  0  0  0  0  0
  190.2200  176.7840  145.0690 N   0  0  0  0  0  0  0  0  0  0  0  0
  187.8520  177.5670  145.1800 C   0  0  0  0  0  2  0  0  0  0  0  0
  189.2330  177.5290  145.8600 C   0  0  0  0  0  2  0  0  0  0  0  0
  187.7390  176.5300  144.1470 N   0  0  0  0  0  2  0  0  0  0  0  0
  191.5420  177.1790  145.5360 C   0  0  0  0  0  2  0  0  0  0  0  0
  192.0880  175.1180  146.6040 O   0  0  0  0  0  0  0  0  0  0  0  0
  191.9230  176.3610  146.7220 C   0  0  0  0  0  0  0  0  0  0  0  0
  192.0280  176.9590  147.9680 O   0  0  0  0  0  1  0  0  0  0  0  0
  195.0240  174.9370  137.6960 N   0  0  0  0  0  2  0  0  0  0  0  0
  194.8140  173.5410  138.0540 C   0  0  0  0  0  2  0  0  0  0  0  0
  197.0790  173.2270  137.1080 O   0  0  0  0  0  0  0  0  0  0  0  0
  196.0160  172.7370  137.6940 C   0  0  0  0  0  0  0  0  0  0  0  0
  196.1510  171.3810  137.8990 C   0  0  0  0  0  3  0  0  0  0  0  0
  197.9410  172.2560  136.9130 C   0  0  0  0  0  3  0  0  0  0  0  0
  197.4040  171.0720  137.3950 C   0  0  0  0  0  3  0  0  0  0  0  0
  188.7310  176.7800  134.9780 C   0  0  0  0  0  3  0  0  0  0  0  0
  187.8800  177.7390  134.6120 C   0  0  0  0  0  2  0  0  0  0  0  0
  188.5950  175.1620  136.9110 C   0  0  0  0  0  2  0  0  0  0  0  0
  187.5740  174.5490  135.9900 C   0  0  0  0  0  3  0  0  0  0  0  0
  186.2600  174.7560  136.1350 C   0  0  0  0  0  3  0  0  0  0  0  0
  185.7010  175.6230  137.2190 C   0  0  0  0  0  2  0  0  0  0  0  0
  184.6010  176.5040  136.6670 C   0  0  0  0  0  2  0  0  0  0  0  0
  183.3630  178.2220  138.0220 C   0  0  1  0  0  3  0  0  0  0  0  0
  182.1870  176.0150  137.4850 C   0  0  2  0  0  3  0  0  0  0  0  0
  180.8300  177.8900  138.1420 C   0  0  2  0  0  3  0  0  0  0  0  0
  179.9570  177.1950  139.1880 C   0  0  0  0  0  2  0  0  0  0  0  0
  178.9320  178.1640  139.7650 C   0  0  0  0  0  2  0  0  0  0  0  0
  180.6220  179.7330  140.8980 C   0  0  0  0  0  2  0  0  0  0  0  0
  180.6340  180.3280  139.6270 O   0  0  0  0  0  0  0  0  0  0  0  0
  179.4000  178.8240  141.0630 C   0  0  0  0  0  2  0  0  0  0  0  0
  181.1660  176.9680  137.0460 N   0  0  0  0  0  2  0  0  0  0  0  0
  183.5460  176.7150  137.7500 C   0  0  1  0  0  3  0  0  0  0  0  0
  182.0730  178.5140  138.8090 C   0  0  2  0  0  3  0  0  0  0  0  0
  181.8840  180.0210  139.0490 C   0  0  0  0  0  2  0  0  0  0  0  0
  184.5180  178.8350  138.5700 O   0  0  0  0  0  0  0  0  0  0  0  0
  184.6580  178.4330  139.9120 C   0  0  0  0  0  1  0  0  0  0  0  0
  182.2490  174.8390  136.5200 C   0  0  0  0  0  2  0  0  0  0  0  0
  182.7720  173.6560  137.1900 N   0  0  0  0  0  2  0  0  0  0  0  0
  182.5640  172.5160  136.2980 C   0  0  2  0  0  3  0  0  0  0  0  0
  180.5680  172.1970  137.7960 F   0  0  0  0  0  0  0  0  0  0  0  0
  181.3190  171.7590  136.7150 C   0  0  2  0  0  0  0  0  0  0  0  0
  182.6720  171.1970  137.0690 C   0  0  0  0  0  2  0  0  0  0  0  0
  180.6680  171.0500  135.7040 O   0  0  0  0  0  1  0  0  0  0  0  0
  1 30  1  6  0  0  0
  1 32  1  0  0  0  0
  2  1  1  6  0  0  0
  2  4  1  0  0  0  0
  3  6  2  0  0  0  0
  4  8  1  1  0  0  0
  5  3  1  0  0  0  0
  5 23  1  0  0  0  0
  6  4  1  0  0  0  0
  7  2  1  0  0  0  0
  7  3  1  0  0  0  0
  8  9  1  0  0  0  0
  9 12  1  0  0  0  0
 11 10  2  0  0  0  0
 12 11  1  0  0  0  0
 13 11  1  6  0  0  0
 13 14  1  0  0  0  0
 13 18  1  0  0  0  0
 14 15  1  0  0  0  0
 15 19  1  0  0  0  0
 15 17  1  0  0  0  0
 16 17  1  0  0  0  0
 18 16  1  0  0  0  0
 19 21  1  0  0  0  0
 20 21  2  0  0  0  0
 21 22  1  0  0  0  0
 23 24  1  0  0  0  0
 25 26  1  0  0  0  0
 26 27  2  0  0  0  0
 26 24  1  0  0  0  0
 28 25  1  0  0  0  0
 28 29  2  0  0  0  0
 29 27  1  0  0  0  0
 31 30  2  0  0  0  0
 33 34  2  0  0  0  0
 33 32  1  0  0  0  0
 34 35  1  0  0  0  0
 36 35  1  0  0  0  0
 37 49  1  1  0  0  0
 37 47  1  0  0  0  0
 38 51  1  6  0  0  0
 38 46  1  0  0  0  0
 39 47  1  0  0  0  0
 39 40  1  1  0  0  0
 40 41  1  0  0  0  0
 41 44  1  0  0  0  0
 42 44  1  0  0  0  0
 43 42  1  0  0  0  0
 45 38  1  0  0  0  0
 45 39  1  0  0  0  0
 46 36  1  6  0  0  0
 46 37  1  0  0  0  0
 47 48  1  6  0  0  0
 48 43  1  0  0  0  0
 49 50  1  0  0  0  0
 51 52  1  0  0  0  0
 53 55  1  0  0  0  0
 53 56  1  0  0  0  0
 53 52  1  1  0  0  0
 55 57  1  6  0  0  0
 55 56  1  0  0  0  0
 55 54  1  0  0  0  0
M  END
>  <MODEL>
4

>  <REMARK>
 VINA RESULT:      -6.5      2.717      4.193
  Name = 
  20 active torsions:
  status: ('A' for Active; 'I' for Inactive)
    1  A    between atoms: C_1  and  N_13
    2  A    between atoms: C_1  and  C_28
    3  A    between atoms: C_2  and  C_34
    4  A    between atoms: C_3  and  O_9
    5  A    between atoms: C_4  and  C_32
    6  A    between atoms: C_5  and  C_56
    7  A    between atoms: C_7  and  N_51
    8  A    between atoms: N_11  and  C_45
    9  A    between atoms: N_13  and  N_23
   10  A    between atoms: C_14  and  C_29
   11  A    between atoms: C_14  and  N_35
   12  A    between atoms: C_17  and  C_29
   13  A    between atoms: C_19  and  C_21
   14  A    between atoms: C_19  and  C_54
   15  A    between atoms: C_21  and  C_39
   16  A    between atoms: C_25  and  C_34
   17  A    between atoms: C_34  and  C_42
   18  A    between atoms: C_36  and  C_42
   19  A    between atoms: C_45  and  C_46
   20  A    between atoms: N_51  and  C_56
                            x       y       z     vdW  Elec       q    Type
                         _______ _______ _______ _____ _____    ______ ____

>  <TORSDO>
F 20

$$$$
=
 OpenBabel11042411373D

 57 62  0  0  1  0  0  0  0  0999 V2000
  189.5690  176.0490  136.6280 C   0  0  1  0  0  3  0  0  0  0  0  0
  188.2080  175.5460  137.1460 C   0  0  1  0  0  3  0  0  0  0  0  0
  186.4480  173.8250  136.6760 C   0  0  0  0  0  0  0  0  0  0  0  0
  187.0770  175.9910  136.2150 C   0  0  1  0  0  3  0  0  0  0  0  0
  185.5600  172.7160  136.8100 N   0  0  0  0  0  2  0  0  0  0  0  0
  186.0490  174.9670  136.2340 N   0  0  0  0  0  0  0  0  0  0  0  0
  188.1400  173.7200  137.2090 S   0  0  0  0  0  0  0  0  0  0  0  0
  186.5130  177.3610  136.5840 C   0  0  0  0  0  2  0  0  0  0  0  0
  185.4480  177.2890  137.6730 C   0  0  0  0  0  2  0  0  0  0  0  0
  184.1090  180.2080  139.4120 O   0  0  0  0  0  0  0  0  0  0  0  0
  184.1090  179.1380  138.7470 C   0  0  0  0  0  0  0  0  0  0  0  0
  185.3550  178.5750  138.3380 N   0  0  0  0  0  2  0  0  0  0  0  0
  182.8110  178.4920  138.3680 C   0  0  1  0  0  3  0  0  0  0  0  0
  182.4510  177.3400  139.3190 C   0  0  0  0  0  2  0  0  0  0  0  0
  180.9990  177.1950  139.3700 N   0  0  0  0  0  0  0  0  0  0  0  0
  181.0490  179.6860  139.5260 C   0  0  0  0  0  2  0  0  0  0  0  0
  180.4290  178.3730  140.0360 C   0  0  0  0  0  2  0  0  0  0  0  0
  181.7350  179.4880  138.2430 N   0  0  0  0  0  2  0  0  0  0  0  0
  180.7040  176.0370  140.2030 C   0  0  0  0  0  2  0  0  0  0  0  0
  179.8130  175.0860  138.2060 O   0  0  0  0  0  0  0  0  0  0  0  0
  179.8120  175.0990  139.4650 C   0  0  0  0  0  0  0  0  0  0  0  0
  178.9330  174.2890  140.1670 O   0  0  0  0  0  1  0  0  0  0  0  0
  184.2380  172.7750  136.3480 N   0  0  0  0  0  2  0  0  0  0  0  0
  183.4960  171.7390  137.0540 C   0  0  0  0  0  2  0  0  0  0  0  0
  181.1080  171.4860  137.6540 O   0  0  0  0  0  0  0  0  0  0  0  0
  182.0330  171.9240  136.8380 C   0  0  0  0  0  0  0  0  0  0  0  0
  181.4680  172.5460  135.7460 C   0  0  0  0  0  3  0  0  0  0  0  0
  179.9300  171.7950  137.1640 C   0  0  0  0  0  3  0  0  0  0  0  0
  180.1020  172.4650  135.9620 C   0  0  0  0  0  3  0  0  0  0  0  0
  189.4850  176.6330  135.2380 C   0  0  0  0  0  3  0  0  0  0  0  0
  190.2890  177.6100  134.8190 C   0  0  0  0  0  2  0  0  0  0  0  0
  190.3160  176.9800  137.5960 C   0  0  0  0  0  2  0  0  0  0  0  0
  189.4280  178.0340  138.2000 C   0  0  0  0  0  3  0  0  0  0  0  0
  189.4350  178.3150  139.5090 C   0  0  0  0  0  3  0  0  0  0  0  0
  190.3360  177.6100  140.4740 C   0  0  0  0  0  2  0  0  0  0  0  0
  189.5260  176.7010  141.3730 C   0  0  0  0  0  2  0  0  0  0  0  0
  187.4180  177.4410  142.5240 C   0  0  1  0  0  3  0  0  0  0  0  0
  189.5440  177.1890  143.9220 C   0  0  2  0  0  3  0  0  0  0  0  0
  187.4300  177.2040  145.0710 C   0  0  2  0  0  3  0  0  0  0  0  0
  187.7670  178.2120  146.1710 C   0  0  0  0  0  2  0  0  0  0  0  0
  186.5840  178.3930  147.1150 C   0  0  0  0  0  2  0  0  0  0  0  0
  184.9950  179.4400  145.3890 C   0  0  0  0  0  2  0  0  0  0  0  0
  184.7110  178.0930  145.1150 O   0  0  0  0  0  0  0  0  0  0  0  0
  185.7010  179.5850  146.7410 C   0  0  0  0  0  2  0  0  0  0  0  0
  188.6110  176.3960  144.7240 N   0  0  0  0  0  2  0  0  0  0  0  0
  188.9570  177.5240  142.5260 C   0  0  1  0  0  3  0  0  0  0  0  0
  186.8120  177.9240  143.8550 C   0  0  2  0  0  3  0  0  0  0  0  0
  185.2790  177.8090  143.8540 C   0  0  0  0  0  2  0  0  0  0  0  0
  186.8270  178.0340  141.3800 O   0  0  0  0  0  0  0  0  0  0  0  0
  186.5400  179.3840  141.6580 C   0  0  0  0  0  1  0  0  0  0  0  0
  190.9090  176.5140  143.8980 C   0  0  0  0  0  2  0  0  0  0  0  0
  191.6760  176.8710  145.0850 N   0  0  0  0  0  2  0  0  0  0  0  0
  191.7020  175.7000  145.9610 C   0  0  2  0  0  3  0  0  0  0  0  0
  190.4690  177.2840  147.4770 F   0  0  0  0  0  0  0  0  0  0  0  0
  191.0150  176.0260  147.2710 C   0  0  2  0  0  0  0  0  0  0  0  0
  192.5210  175.9870  147.2240 C   0  0  0  0  0  2  0  0  0  0  0  0
  190.4500  174.9430  147.9490 O   0  0  0  0  0  1  0  0  0  0  0  0
  1 30  1  6  0  0  0
  1 32  1  0  0  0  0
  2  1  1  6  0  0  0
  2  7  1  0  0  0  0
  3  5  1  0  0  0  0
  3  7  1  0  0  0  0
  4  6  1  0  0  0  0
  4  8  1  1  0  0  0
  4  2  1  0  0  0  0
  6  3  2  0  0  0  0
  8  9  1  0  0  0  0
  9 12  1  0  0  0  0
 11 10  2  0  0  0  0
 12 11  1  0  0  0  0
 13 11  1  1  0  0  0
 13 14  1  0  0  0  0
 14 15  1  0  0  0  0
 15 17  1  0  0  0  0
 15 19  1  0  0  0  0
 16 17  1  0  0  0  0
 18 13  1  0  0  0  0
 18 16  1  0  0  0  0
 20 21  2  0  0  0  0
 21 22  1  0  0  0  0
 21 19  1  0  0  0  0
 23  5  1  0  0  0  0
 23 24  1  0  0  0  0
 26 24  1  0  0  0  0
 26 25  1  0  0  0  0
 27 29  1  0  0  0  0
 27 26  2  0  0  0  0
 28 25  1  0  0  0  0
 29 28  2  0  0  0  0
 31 30  2  0  0  0  0
 32 33  1  0  0  0  0
 33 34  2  0  0  0  0
 34 35  1  0  0  0  0
 35 36  1  0  0  0  0
 37 49  1  6  0  0  0
 37 46  1  0  0  0  0
 37 47  1  0  0  0  0
 38 51  1  6  0  0  0
 38 45  1  0  0  0  0
 39 40  1  1  0  0  0
 40 41  1  0  0  0  0
 42 44  1  0  0  0  0
 43 42  1  0  0  0  0
 44 41  1  0  0  0  0
 45 39  1  0  0  0  0
 46 36  1  6  0  0  0
 46 38  1  0  0  0  0
 47 48  1  6  0  0  0
 47 39  1  0  0  0  0
 48 43  1  0  0  0  0
 49 50  1  0  0  0  0
 51 52  1  0  0  0  0
 53 52  1  6  0  0  0
 53 56  1  0  0  0  0
 53 55  1  0  0  0  0
 55 54  1  1  0  0  0
 55 57  1  0  0  0  0
 56 55  1  0  0  0  0
M  END
>  <MODEL>
5

>  <REMARK>
 VINA RESULT:      -6.1      4.041      9.793
  Name = 
  20 active torsions:
  status: ('A' for Active; 'I' for Inactive)
    1  A    between atoms: C_1  and  N_13
    2  A    between atoms: C_1  and  C_28
    3  A    between atoms: C_2  and  C_34
    4  A    between atoms: C_3  and  O_9
    5  A    between atoms: C_4  and  C_32
    6  A    between atoms: C_5  and  C_56
    7  A    between atoms: C_7  and  N_51
    8  A    between atoms: N_11  and  C_45
    9  A    between atoms: N_13  and  N_23
   10  A    between atoms: C_14  and  C_29
   11  A    between atoms: C_14  and  N_35
   12  A    between atoms: C_17  and  C_29
   13  A    between atoms: C_19  and  C_21
   14  A    between atoms: C_19  and  C_54
   15  A    between atoms: C_21  and  C_39
   16  A    between atoms: C_25  and  C_34
   17  A    between atoms: C_34  and  C_42
   18  A    between atoms: C_36  and  C_42
   19  A    between atoms: C_45  and  C_46
   20  A    between atoms: N_51  and  C_56
                            x       y       z     vdW  Elec       q    Type
                         _______ _______ _______ _____ _____    ______ ____

>  <TORSDO>
F 20

$$$$
=
 OpenBabel11042411373D

 57 62  0  0  1  0  0  0  0  0999 V2000
  186.7220  177.7910  138.2200 C   0  0  1  0  0  3  0  0  0  0  0  0
  185.2380  177.6540  138.6100 C   0  0  1  0  0  3  0  0  0  0  0  0
  182.9320  178.0330  137.7070 C   0  0  0  0  0  0  0  0  0  0  0  0
  184.6290  179.0280  138.9040 C   0  0  1  0  0  3  0  0  0  0  0  0
  181.5950  177.8160  137.2550 N   0  0  0  0  0  2  0  0  0  0  0  0
  183.2320  178.9930  138.5110 N   0  0  0  0  0  0  0  0  0  0  0  0
  184.2460  176.9230  137.2600 S   0  0  0  0  0  0  0  0  0  0  0  0
  184.7920  179.4480  140.3620 C   0  0  0  0  0  2  0  0  0  0  0  0
  184.4340  178.3380  141.3420 C   0  0  0  0  0  2  0  0  0  0  0  0
  184.6480  179.2800  144.8640 O   0  0  0  0  0  0  0  0  0  0  0  0
  184.9090  178.6600  143.7990 C   0  0  0  0  0  0  0  0  0  0  0  0
  184.1260  178.9200  142.6350 N   0  0  0  0  0  2  0  0  0  0  0  0
  186.0070  177.6410  143.7760 C   0  0  1  0  0  3  0  0  0  0  0  0
  187.2840  178.1980  143.1290 C   0  0  0  0  0  2  0  0  0  0  0  0
  188.4460  177.5140  143.6920 N   0  0  0  0  0  0  0  0  0  0  0  0
  187.2410  177.8680  145.8490 C   0  0  0  0  0  2  0  0  0  0  0  0
  188.5860  177.9010  145.1010 C   0  0  0  0  0  2  0  0  0  0  0  0
  186.2430  177.0790  145.1160 N   0  0  0  0  0  2  0  0  0  0  0  0
  189.6230  178.0010  142.9870 C   0  0  0  0  0  2  0  0  0  0  0  0
  190.4370  175.9580  142.0640 O   0  0  0  0  0  0  0  0  0  0  0  0
  190.6290  176.9070  142.8690 C   0  0  0  0  0  0  0  0  0  0  0  0
  191.7410  176.9010  143.6960 O   0  0  0  0  0  1  0  0  0  0  0  0
  180.5630  178.7130  137.5620 N   0  0  0  0  0  2  0  0  0  0  0  0
  180.3170  179.5030  136.3630 C   0  0  0  0  0  2  0  0  0  0  0  0
  181.0980  181.4030  137.7440 O   0  0  0  0  0  0  0  0  0  0  0  0
  180.5310  180.9490  136.6550 C   0  0  0  0  0  0  0  0  0  0  0  0
  180.1360  181.9870  135.8400 C   0  0  0  0  0  3  0  0  0  0  0  0
  181.1130  182.7150  137.6990 C   0  0  0  0  0  3  0  0  0  0  0  0
  180.5190  183.1330  136.5180 C   0  0  0  0  0  3  0  0  0  0  0  0
  187.6070  178.1330  139.3940 C   0  0  0  0  0  3  0  0  0  0  0  0
  188.8690  177.7160  139.4900 C   0  0  0  0  0  2  0  0  0  0  0  0
  187.2800  176.6100  137.4080 C   0  0  0  0  0  2  0  0  0  0  0  0
  187.4650  176.9350  135.9500 C   0  0  0  0  0  3  0  0  0  0  0  0
  188.6490  177.2930  135.4380 C   0  0  0  0  0  3  0  0  0  0  0  0
  189.8860  177.3900  136.2750 C   0  0  0  0  0  2  0  0  0  0  0  0
  190.2870  176.0170  136.7710 C   0  0  0  0  0  2  0  0  0  0  0  0
  192.7110  175.4900  137.1750 C   0  0  1  0  0  3  0  0  0  0  0  0
  191.5290  174.3560  135.2120 C   0  0  2  0  0  3  0  0  0  0  0  0
  193.5680  173.3720  136.0270 C   0  0  2  0  0  3  0  0  0  0  0  0
  194.2860  173.1750  134.6900 C   0  0  0  0  0  2  0  0  0  0  0  0
  195.6370  172.5010  134.8990 C   0  0  0  0  0  2  0  0  0  0  0  0
  196.7140  174.4180  136.2270 C   0  0  0  0  0  2  0  0  0  0  0  0
  196.0970  173.7640  137.3050 O   0  0  0  0  0  0  0  0  0  0  0  0
  196.7910  173.5000  135.0040 C   0  0  0  0  0  2  0  0  0  0  0  0
  192.1160  173.1880  135.8710 N   0  0  0  0  0  2  0  0  0  0  0  0
  191.6040  175.6180  136.1100 C   0  0  1  0  0  3  0  0  0  0  0  0
  193.9430  174.7360  136.6410 C   0  0  2  0  0  3  0  0  0  0  0  0
  195.0280  174.5870  137.7190 C   0  0  0  0  0  2  0  0  0  0  0  0
  193.0250  176.7200  137.8070 O   0  0  0  0  0  0  0  0  0  0  0  0
  192.5490  176.6910  139.1320 C   0  0  0  0  0  1  0  0  0  0  0  0
  190.1370  174.0160  134.6980 C   0  0  0  0  0  2  0  0  0  0  0  0
  189.4070  173.2290  135.6840 N   0  0  0  0  0  2  0  0  0  0  0  0
  188.1180  172.8700  135.0950 C   0  0  2  0  0  3  0  0  0  0  0  0
  187.4550  172.8270  137.5210 F   0  0  0  0  0  0  0  0  0  0  0  0
  187.0950  172.6590  136.1920 C   0  0  2  0  0  0  0  0  0  0  0  0
  187.7040  171.4560  135.5170 C   0  0  0  0  0  2  0  0  0  0  0  0
  185.7640  172.8830  135.8360 O   0  0  0  0  0  1  0  0  0  0  0  0
  1 32  1  1  0  0  0
  1 30  1  0  0  0  0
  2  1  1  6  0  0  0
  2  4  1  0  0  0  0
  3  6  2  0  0  0  0
  4  8  1  1  0  0  0
  5 23  1  0  0  0  0
  5  3  1  0  0  0  0
  6  4  1  0  0  0  0
  7  3  1  0  0  0  0
  7  2  1  0  0  0  0
  8  9  1  0  0  0  0
  9 12  1  0  0  0  0
 11 10  2  0  0  0  0
 12 11  1  0  0  0  0
 13 11  1  1  0  0  0
 13 18  1  0  0  0  0
 14 15  1  0  0  0  0
 14 13  1  0  0  0  0
 15 17  1  0  0  0  0
 17 16  1  0  0  0  0
 18 16  1  0  0  0  0
 19 15  1  0  0  0  0
 20 21  2  0  0  0  0
 21 19  1  0  0  0  0
 21 22  1  0  0  0  0
 24 26  1  0  0  0  0
 24 23  1  0  0  0  0
 26 25  1  0  0  0  0
 27 29  1  0  0  0  0
 27 26  2  0  0  0  0
 28 25  1  0  0  0  0
 29 28  2  0  0  0  0
 30 31  2  0  0  0  0
 33 32  1  0  0  0  0
 34 33  2  0  0  0  0
 34 35  1  0  0  0  0
 35 36  1  0  0  0  0
 37 49  1  6  0  0  0
 38 51  1  1  0  0  0
 38 45  1  0  0  0  0
 38 46  1  0  0  0  0
 39 40  1  6  0  0  0
 39 47  1  0  0  0  0
 40 41  1  0  0  0  0
 41 44  1  0  0  0  0
 42 43  1  0  0  0  0
 43 48  1  0  0  0  0
 44 42  1  0  0  0  0
 45 39  1  0  0  0  0
 46 36  1  1  0  0  0
 46 37  1  0  0  0  0
 47 37  1  0  0  0  0
 47 48  1  1  0  0  0
 49 50  1  0  0  0  0
 51 52  1  0  0  0  0
 53 56  1  0  0  0  0
 53 52  1  1  0  0  0
 53 55  1  0  0  0  0
 55 57  1  6  0  0  0
 55 54  1  0  0  0  0
 56 55  1  0  0  0  0
M  END
>  <MODEL>
6

>  <REMARK>
 VINA RESULT:      -6.0      2.694     10.976
  Name = 
  20 active torsions:
  status: ('A' for Active; 'I' for Inactive)
    1  A    between atoms: C_1  and  N_13
    2  A    between atoms: C_1  and  C_28
    3  A    between atoms: C_2  and  C_34
    4  A    between atoms: C_3  and  O_9
    5  A    between atoms: C_4  and  C_32
    6  A    between atoms: C_5  and  C_56
    7  A    between atoms: C_7  and  N_51
    8  A    between atoms: N_11  and  C_45
    9  A    between atoms: N_13  and  N_23
   10  A    between atoms: C_14  and  C_29
   11  A    between atoms: C_14  and  N_35
   12  A    between atoms: C_17  and  C_29
   13  A    between atoms: C_19  and  C_21
   14  A    between atoms: C_19  and  C_54
   15  A    between atoms: C_21  and  C_39
   16  A    between atoms: C_25  and  C_34
   17  A    between atoms: C_34  and  C_42
   18  A    between atoms: C_36  and  C_42
   19  A    between atoms: C_45  and  C_46
   20  A    between atoms: N_51  and  C_56
                            x       y       z     vdW  Elec       q    Type
                         _______ _______ _______ _____ _____    ______ ____

>  <TORSDO>
F 20

$$$$
=
 OpenBabel11042411373D

 57 62  0  0  1  0  0  0  0  0999 V2000
  184.5600  179.3700  143.2790 C   0  0  1  0  0  3  0  0  0  0  0  0
  183.1600  179.4830  142.6470 C   0  0  1  0  0  3  0  0  0  0  0  0
  180.9890  178.2460  142.4620 C   0  0  0  0  0  0  0  0  0  0  0  0
  183.0330  178.5430  141.4450 C   0  0  1  0  0  3  0  0  0  0  0  0
  179.6070  177.9020  142.5560 N   0  0  0  0  0  2  0  0  0  0  0  0
  181.6560  178.0900  141.3710 N   0  0  0  0  0  0  0  0  0  0  0  0
  181.8440  179.0040  143.8220 S   0  0  0  0  0  0  0  0  0  0  0  0
  183.4830  179.1890  140.1380 C   0  0  0  0  0  2  0  0  0  0  0  0
  182.3210  179.7400  139.3190 C   0  0  0  0  0  2  0  0  0  0  0  0
  181.3720  178.7390  135.9370 O   0  0  0  0  0  0  0  0  0  0  0  0
  181.3520  179.3890  137.0160 C   0  0  0  0  0  0  0  0  0  0  0  0
  182.1980  178.9790  138.0900 N   0  0  0  0  0  2  0  0  0  0  0  0
  180.4250  180.5570  137.1690 C   0  0  1  0  0  3  0  0  0  0  0  0
  181.0970  181.8740  136.7540 C   0  0  0  0  0  2  0  0  0  0  0  0
  180.0770  182.8050  136.2790 N   0  0  0  0  0  0  0  0  0  0  0  0
  179.2140  180.7900  135.0840 C   0  0  0  0  0  2  0  0  0  0  0  0
  179.5230  182.2970  135.0180 C   0  0  0  0  0  2  0  0  0  0  0  0
  179.1500  180.3200  136.4730 N   0  0  0  0  0  2  0  0  0  0  0  0
  180.7400  184.0680  135.9870 C   0  0  0  0  0  2  0  0  0  0  0  0
  180.0620  185.3190  137.9010 O   0  0  0  0  0  1  0  0  0  0  0  0
  181.0120  184.8010  137.2560 C   0  0  0  0  0  0  0  0  0  0  0  0
  182.3180  184.9690  137.6890 O   0  0  0  0  0  0  0  0  0  0  0  0
  178.9370  177.2600  141.5060 N   0  0  0  0  0  2  0  0  0  0  0  0
  179.4190  177.8560  140.2680 C   0  0  0  0  0  2  0  0  0  0  0  0
  179.1900  177.0090  137.9530 O   0  0  0  0  0  0  0  0  0  0  0  0
  179.5160  176.8150  139.2060 C   0  0  0  0  0  0  0  0  0  0  0  0
  179.9260  175.5150  139.4080 C   0  0  0  0  0  3  0  0  0  0  0  0
  179.3710  175.8920  137.2890 C   0  0  0  0  0  3  0  0  0  0  0  0
  179.8360  174.9190  138.1610 C   0  0  0  0  0  3  0  0  0  0  0  0
  184.6350  178.3050  144.3480 C   0  0  0  0  0  3  0  0  0  0  0  0
  185.0380  178.5620  145.5920 C   0  0  0  0  0  2  0  0  0  0  0  0
  185.7100  179.2460  142.2670 C   0  0  0  0  0  2  0  0  0  0  0  0
  186.2520  177.8460  142.1620 C   0  0  0  0  0  3  0  0  0  0  0  0
  187.5220  177.5900  141.8230 C   0  0  0  0  0  3  0  0  0  0  0  0
  188.5060  178.6780  141.5300 C   0  0  0  0  0  2  0  0  0  0  0  0
  188.7780  178.7490  140.0430 C   0  0  0  0  0  2  0  0  0  0  0  0
  188.4450  177.1430  138.1380 C   0  0  1  0  0  3  0  0  0  0  0  0
  190.5820  176.9540  139.5300 C   0  0  2  0  0  3  0  0  0  0  0  0
  190.5590  175.9410  137.3480 C   0  0  2  0  0  3  0  0  0  0  0  0
  191.1340  174.5720  137.7170 C   0  0  0  0  0  2  0  0  0  0  0  0
  191.2830  173.6990  136.4770 C   0  0  0  0  0  2  0  0  0  0  0  0
  188.7750  173.5130  135.9500 C   0  0  0  0  0  2  0  0  0  0  0  0
  189.0230  174.7150  135.2690 O   0  0  0  0  0  0  0  0  0  0  0  0
  190.0840  172.7760  136.2500 C   0  0  0  0  0  2  0  0  0  0  0  0
  191.1520  176.9980  138.1830 N   0  0  0  0  0  2  0  0  0  0  0  0
  189.0800  177.3430  139.5280 C   0  0  1  0  0  3  0  0  0  0  0  0
  189.0190  175.9120  137.4130 C   0  0  2  0  0  3  0  0  0  0  0  0
  188.4010  175.7380  136.0160 C   0  0  0  0  0  2  0  0  0  0  0  0
  187.0280  177.1830  138.1600 O   0  0  0  0  0  0  0  0  0  0  0  0
  186.5920  178.3570  137.5160 C   0  0  0  0  0  1  0  0  0  0  0  0
  191.4510  177.7570  140.4880 C   0  0  0  0  0  2  0  0  0  0  0  0
  192.0050  176.8920  141.5220 N   0  0  0  0  0  2  0  0  0  0  0  0
  190.9330  176.6000  142.4730 C   0  0  2  0  0  3  0  0  0  0  0  0
  192.2840  178.1760  143.8940 F   0  0  0  0  0  0  0  0  0  0  0  0
  191.1750  177.3520  143.7660 C   0  0  2  0  0  0  0  0  0  0  0  0
  191.4850  175.8780  143.7060 C   0  0  0  0  0  2  0  0  0  0  0  0
  190.0380  177.6530  144.5180 O   0  0  0  0  0  1  0  0  0  0  0  0
  1 32  1  6  0  0  0
  1 30  1  0  0  0  0
  2  1  1  1  0  0  0
  2  7  1  0  0  0  0
  3  5  1  0  0  0  0
  3  7  1  0  0  0  0
  4  8  1  6  0  0  0
  4  2  1  0  0  0  0
  6  4  1  0  0  0  0
  6  3  2  0  0  0  0
  9  8  1  0  0  0  0
 10 11  2  0  0  0  0
 11 12  1  0  0  0  0
 12  9  1  0  0  0  0
 13 11  1  6  0  0  0
 14 13  1  0  0  0  0
 15 14  1  0  0  0  0
 16 18  1  0  0  0  0
 17 16  1  0  0  0  0
 17 15  1  0  0  0  0
 18 13  1  0  0  0  0
 19 15  1  0  0  0  0
 19 21  1  0  0  0  0
 21 22  2  0  0  0  0
 21 20  1  0  0  0  0
 23  5  1  0  0  0  0
 24 23  1  0  0  0  0
 25 26  1  0  0  0  0
 26 27  2  0  0  0  0
 26 24  1  0  0  0  0
 28 25  1  0  0  0  0
 28 29  2  0  0  0  0
 29 27  1  0  0  0  0
 30 31  2  0  0  0  0
 33 32  1  0  0  0  0
 34 33  2  0  0  0  0
 35 34  1  0  0  0  0
 36 35  1  0  0  0  0
 37 49  1  1  0  0  0
 37 46  1  0  0  0  0
 38 51  1  1  0  0  0
 39 47  1  0  0  0  0
 39 40  1  1  0  0  0
 39 45  1  0  0  0  0
 41 40  1  0  0  0  0
 42 44  1  0  0  0  0
 43 42  1  0  0  0  0
 43 48  1  0  0  0  0
 44 41  1  0  0  0  0
 45 38  1  0  0  0  0
 46 38  1  0  0  0  0
 46 36  1  6  0  0  0
 47 48  1  6  0  0  0
 47 37  1  0  0  0  0
 50 49  1  0  0  0  0
 51 52  1  0  0  0  0
 53 52  1  6  0  0  0
 53 56  1  0  0  0  0
 53 55  1  0  0  0  0
 55 54  1  1  0  0  0
 55 57  1  0  0  0  0
 56 55  1  0  0  0  0
M  END
>  <MODEL>
7

>  <REMARK>
 VINA RESULT:      -5.8      3.627     11.710
  Name = 
  20 active torsions:
  status: ('A' for Active; 'I' for Inactive)
    1  A    between atoms: C_1  and  N_13
    2  A    between atoms: C_1  and  C_28
    3  A    between atoms: C_2  and  C_34
    4  A    between atoms: C_3  and  O_9
    5  A    between atoms: C_4  and  C_32
    6  A    between atoms: C_5  and  C_56
    7  A    between atoms: C_7  and  N_51
    8  A    between atoms: N_11  and  C_45
    9  A    between atoms: N_13  and  N_23
   10  A    between atoms: C_14  and  C_29
   11  A    between atoms: C_14  and  N_35
   12  A    between atoms: C_17  and  C_29
   13  A    between atoms: C_19  and  C_21
   14  A    between atoms: C_19  and  C_54
   15  A    between atoms: C_21  and  C_39
   16  A    between atoms: C_25  and  C_34
   17  A    between atoms: C_34  and  C_42
   18  A    between atoms: C_36  and  C_42
   19  A    between atoms: C_45  and  C_46
   20  A    between atoms: N_51  and  C_56
                            x       y       z     vdW  Elec       q    Type
                         _______ _______ _______ _____ _____    ______ ____

>  <TORSDO>
F 20

$$$$
=
 OpenBabel11042411373D

 57 62  0  0  1  0  0  0  0  0999 V2000
  181.9540  177.1770  138.0320 C   0  0  1  0  0  3  0  0  0  0  0  0
  182.1940  175.9630  137.1160 C   0  0  1  0  0  3  0  0  0  0  0  0
  181.4820  173.5820  136.7920 C   0  0  0  0  0  0  0  0  0  0  0  0
  183.0510  174.9120  137.8260 C   0  0  1  0  0  3  0  0  0  0  0  0
  180.9390  172.3890  136.2260 N   0  0  0  0  0  2  0  0  0  0  0  0
  182.6400  173.6020  137.3550 N   0  0  0  0  0  0  0  0  0  0  0  0
  180.6280  175.1350  136.6610 S   0  0  0  0  0  0  0  0  0  0  0  0
  184.5480  175.1360  137.6270 C   0  0  0  0  0  2  0  0  0  0  0  0
  184.9240  175.3580  136.1670 C   0  0  0  0  0  2  0  0  0  0  0  0
  187.1700  178.1940  135.6620 O   0  0  0  0  0  0  0  0  0  0  0  0
  186.8130  177.0120  135.9110 C   0  0  0  0  0  0  0  0  0  0  0  0
  185.4210  176.7110  136.0000 N   0  0  0  0  0  2  0  0  0  0  0  0
  187.8460  175.9500  136.1410 C   0  0  1  0  0  3  0  0  0  0  0  0
  189.1710  176.2860  135.4400 C   0  0  0  0  0  2  0  0  0  0  0  0
  190.2730  175.6710  136.1760 N   0  0  0  0  0  0  0  0  0  0  0  0
  189.0390  176.5360  138.1660 C   0  0  0  0  0  2  0  0  0  0  0  0
  190.4020  176.3360  137.4780 C   0  0  0  0  0  2  0  0  0  0  0  0
  188.0120  175.6690  137.5760 N   0  0  0  0  0  2  0  0  0  0  0  0
  191.4960  175.9320  135.4300 C   0  0  0  0  0  2  0  0  0  0  0  0
  193.7160  176.3310  136.2020 O   0  0  0  0  0  0  0  0  0  0  0  0
  192.6800  175.6180  136.2770 C   0  0  0  0  0  0  0  0  0  0  0  0
  192.6650  174.5020  137.0990 O   0  0  0  0  0  1  0  0  0  0  0  0
  181.5810  171.1520  136.3660 N   0  0  0  0  0  2  0  0  0  0  0  0
  182.0130  170.7450  135.0360 C   0  0  0  0  0  2  0  0  0  0  0  0
  184.1750  171.8670  134.5940 O   0  0  0  0  0  0  0  0  0  0  0  0
  183.5000  170.8020  134.9450 C   0  0  0  0  0  0  0  0  0  0  0  0
  184.3470  169.7420  135.1840 C   0  0  0  0  0  3  0  0  0  0  0  0
  185.4550  171.5760  134.5940 C   0  0  0  0  0  3  0  0  0  0  0  0
  185.6170  170.2490  134.9600 C   0  0  0  0  0  3  0  0  0  0  0  0
  180.6690  177.0710  138.8180 C   0  0  0  0  0  3  0  0  0  0  0  0
  180.5260  177.5920  140.0360 C   0  0  0  0  0  2  0  0  0  0  0  0
  183.1460  177.5460  138.9300 C   0  0  0  0  0  2  0  0  0  0  0  0
  183.6480  178.9450  138.6950 C   0  0  0  0  0  3  0  0  0  0  0  0
  184.3170  179.6340  139.6270 C   0  0  0  0  0  3  0  0  0  0  0  0
  184.6280  179.0630  140.9750 C   0  0  0  0  0  2  0  0  0  0  0  0
  186.0740  178.6230  141.0330 C   0  0  0  0  0  2  0  0  0  0  0  0
  185.4550  178.6060  143.4700 C   0  0  1  0  0  3  0  0  0  0  0  0
  187.8480  177.9800  142.8160 C   0  0  2  0  0  3  0  0  0  0  0  0
  187.0550  177.3100  144.9870 C   0  0  2  0  0  3  0  0  0  0  0  0
  188.2440  177.7810  145.8270 C   0  0  0  0  0  2  0  0  0  0  0  0
  188.0350  177.4340  147.2970 C   0  0  0  0  0  2  0  0  0  0  0  0
  186.0050  178.9640  147.6700 C   0  0  0  0  0  2  0  0  0  0  0  0
  185.3110  177.8410  147.1920 O   0  0  0  0  0  0  0  0  0  0  0  0
  187.4250  178.5850  148.1000 C   0  0  0  0  0  2  0  0  0  0  0  0
  187.5030  176.8390  143.6670 N   0  0  0  0  0  2  0  0  0  0  0  0
  186.5960  178.8210  142.4550 C   0  0  1  0  0  3  0  0  0  0  0  0
  185.9860  178.4180  144.9030 C   0  0  2  0  0  3  0  0  0  0  0  0
  184.8440  178.1740  145.9030 C   0  0  0  0  0  2  0  0  0  0  0  0
  184.4230  179.5710  143.3650 O   0  0  0  0  0  0  0  0  0  0  0  0
  183.2200  179.0100  143.8330 C   0  0  0  0  0  1  0  0  0  0  0  0
  188.6690  177.5090  141.6250 C   0  0  0  0  0  2  0  0  0  0  0  0
  189.6700  176.5370  142.0460 N   0  0  0  0  0  2  0  0  0  0  0  0
  190.3200  177.0650  143.2450 C   0  0  2  0  0  3  0  0  0  0  0  0
  192.2820  177.1570  141.6730 F   0  0  0  0  0  0  0  0  0  0  0  0
  191.7730  177.3750  142.9450 C   0  0  2  0  0  0  0  0  0  0  0  0
  191.4350  176.1250  143.7150 C   0  0  0  0  0  2  0  0  0  0  0  0
  192.3570  178.3720  143.7280 O   0  0  0  0  0  1  0  0  0  0  0  0
  1 30  1  1  0  0  0
  1 32  1  0  0  0  0
  2  4  1  0  0  0  0
  2  1  1  1  0  0  0
  3  6  2  0  0  0  0
  4  8  1  6  0  0  0
  5 23  1  0  0  0  0
  5  3  1  0  0  0  0
  6  4  1  0  0  0  0
  7  3  1  0  0  0  0
  7  2  1  0  0  0  0
  9  8  1  0  0  0  0
 10 11  2  0  0  0  0
 11 12  1  0  0  0  0
 12  9  1  0  0  0  0
 13 11  1  1  0  0  0
 13 18  1  0  0  0  0
 14 13  1  0  0  0  0
 14 15  1  0  0  0  0
 15 17  1  0  0  0  0
 17 16  1  0  0  0  0
 18 16  1  0  0  0  0
 19 15  1  0  0  0  0
 19 21  1  0  0  0  0
 20 21  2  0  0  0  0
 21 22  1  0  0  0  0
 24 23  1  0  0  0  0
 25 26  1  0  0  0  0
 26 24  1  0  0  0  0
 26 27  2  0  0  0  0
 28 25  1  0  0  0  0
 28 29  2  0  0  0  0
 29 27  1  0  0  0  0
 30 31  2  0  0  0  0
 33 32  1  0  0  0  0
 33 34  2  0  0  0  0
 34 35  1  0  0  0  0
 35 36  1  0  0  0  0
 37 49  1  1  0  0  0
 37 47  1  0  0  0  0
 38 51  1  6  0  0  0
 38 45  1  0  0  0  0
 39 40  1  6  0  0  0
 40 41  1  0  0  0  0
 41 44  1  0  0  0  0
 42 44  1  0  0  0  0
 43 42  1  0  0  0  0
 45 39  1  0  0  0  0
 46 36  1  6  0  0  0
 46 38  1  0  0  0  0
 46 37  1  0  0  0  0
 47 39  1  0  0  0  0
 47 48  1  1  0  0  0
 48 43  1  0  0  0  0
 49 50  1  0  0  0  0
 51 52  1  0  0  0  0
 53 52  1  6  0  0  0
 53 56  1  0  0  0  0
 55 54  1  6  0  0  0
 55 53  1  0  0  0  0
 55 56  1  0  0  0  0
 55 57  1  0  0  0  0
M  END
>  <MODEL>
8

>  <REMARK>
 VINA RESULT:      -5.7      3.731      9.783
  Name = 
  20 active torsions:
  status: ('A' for Active; 'I' for Inactive)
    1  A    between atoms: C_1  and  N_13
    2  A    between atoms: C_1  and  C_28
    3  A    between atoms: C_2  and  C_34
    4  A    between atoms: C_3  and  O_9
    5  A    between atoms: C_4  and  C_32
    6  A    between atoms: C_5  and  C_56
    7  A    between atoms: C_7  and  N_51
    8  A    between atoms: N_11  and  C_45
    9  A    between atoms: N_13  and  N_23
   10  A    between atoms: C_14  and  C_29
   11  A    between atoms: C_14  and  N_35
   12  A    between atoms: C_17  and  C_29
   13  A    between atoms: C_19  and  C_21
   14  A    between atoms: C_19  and  C_54
   15  A    between atoms: C_21  and  C_39
   16  A    between atoms: C_25  and  C_34
   17  A    between atoms: C_34  and  C_42
   18  A    between atoms: C_36  and  C_42
   19  A    between atoms: C_45  and  C_46
   20  A    between atoms: N_51  and  C_56
                            x       y       z     vdW  Elec       q    Type
                         _______ _______ _______ _____ _____    ______ ____

>  <TORSDO>
F 20

$$$$
=
 OpenBabel11042411373D

 57 62  0  0  1  0  0  0  0  0999 V2000
  187.1250  177.0690  137.1390 C   0  0  1  0  0  3  0  0  0  0  0  0
  185.7380  176.7630  137.7340 C   0  0  1  0  0  3  0  0  0  0  0  0
  183.3710  176.3060  137.0500 C   0  0  0  0  0  0  0  0  0  0  0  0
  184.8270  177.9890  137.6390 C   0  0  1  0  0  3  0  0  0  0  0  0
  182.1080  175.6680  136.8630 N   0  0  0  0  0  2  0  0  0  0  0  0
  183.4640  177.5250  137.4550 N   0  0  0  0  0  0  0  0  0  0  0  0
  184.8930  175.4170  136.8290 S   0  0  0  0  0  0  0  0  0  0  0  0
  184.9480  178.9120  138.8490 C   0  0  0  0  0  2  0  0  0  0  0  0
  184.5760  178.2230  140.1570 C   0  0  0  0  0  2  0  0  0  0  0  0
  185.4480  180.0720  143.1840 O   0  0  0  0  0  0  0  0  0  0  0  0
  185.4440  179.1320  142.3450 C   0  0  0  0  0  0  0  0  0  0  0  0
  184.5600  179.2030  141.2270 N   0  0  0  0  0  2  0  0  0  0  0  0
  186.3360  177.9450  142.5470 C   0  0  1  0  0  3  0  0  0  0  0  0
  187.7890  178.2530  142.1570 C   0  0  0  0  0  2  0  0  0  0  0  0
  188.6870  177.4110  142.9420 N   0  0  0  0  0  0  0  0  0  0  0  0
  187.1710  178.0520  144.8190 C   0  0  0  0  0  2  0  0  0  0  0  0
  188.6190  177.8290  144.3480 C   0  0  0  0  0  2  0  0  0  0  0  0
  186.2110  177.4100  143.9120 N   0  0  0  0  0  2  0  0  0  0  0  0
  190.0430  177.6640  142.4760 C   0  0  0  0  0  2  0  0  0  0  0  0
  191.8080  177.7720  144.0760 O   0  0  0  0  0  1  0  0  0  0  0  0
  191.0220  177.0450  143.4130 C   0  0  0  0  0  0  0  0  0  0  0  0
  191.1130  175.6640  143.5030 O   0  0  0  0  0  0  0  0  0  0  0  0
  180.9030  176.3730  136.9880 N   0  0  0  0  0  2  0  0  0  0  0  0
  180.1960  175.8060  138.1280 C   0  0  0  0  0  2  0  0  0  0  0  0
  180.3410  178.1060  139.0320 O   0  0  0  0  0  0  0  0  0  0  0  0
  179.9900  176.8520  139.1700 C   0  0  0  0  0  0  0  0  0  0  0  0
  179.4380  176.6320  140.4130 C   0  0  0  0  0  3  0  0  0  0  0  0
  180.0400  178.7530  140.1330 C   0  0  0  0  0  3  0  0  0  0  0  0
  179.4670  177.8690  141.0350 C   0  0  0  0  0  3  0  0  0  0  0  0
  188.0150  177.8310  138.0920 C   0  0  0  0  0  3  0  0  0  0  0  0
  188.6970  178.9160  137.7280 C   0  0  0  0  0  2  0  0  0  0  0  0
  187.8430  175.8520  136.5340 C   0  0  0  0  0  2  0  0  0  0  0  0
  188.2900  176.0780  135.1150 C   0  0  0  0  0  3  0  0  0  0  0  0
  189.5300  176.4760  134.8070 C   0  0  0  0  0  3  0  0  0  0  0  0
  190.5750  176.7180  135.8500 C   0  0  0  0  0  2  0  0  0  0  0  0
  190.9450  175.4170  136.5280 C   0  0  0  0  0  2  0  0  0  0  0  0
  193.2010  175.1270  137.5980 C   0  0  1  0  0  3  0  0  0  0  0  0
  192.6980  173.8380  135.4470 C   0  0  2  0  0  3  0  0  0  0  0  0
  194.5100  173.0680  136.8300 C   0  0  2  0  0  3  0  0  0  0  0  0
  195.5800  172.9050  135.7480 C   0  0  0  0  0  2  0  0  0  0  0  0
  196.8730  172.3650  136.3470 C   0  0  0  0  0  2  0  0  0  0  0  0
  197.3850  174.4070  137.8200 C   0  0  0  0  0  2  0  0  0  0  0  0
  196.5520  173.7260  138.7220 O   0  0  0  0  0  0  0  0  0  0  0  0
  197.8680  173.4690  136.7100 C   0  0  0  0  0  2  0  0  0  0  0  0
  193.1760  172.7470  136.2970 N   0  0  0  0  0  2  0  0  0  0  0  0
  192.4200  175.1240  136.2680 C   0  0  1  0  0  3  0  0  0  0  0  0
  194.5890  174.4760  137.4540 C   0  0  2  0  0  3  0  0  0  0  0  0
  195.3470  174.4570  138.7910 C   0  0  0  0  0  2  0  0  0  0  0  0
  193.2280  176.3960  138.2280 O   0  0  0  0  0  0  0  0  0  0  0  0
  192.1480  176.4840  139.1290 C   0  0  0  0  0  1  0  0  0  0  0  0
  191.5320  173.3580  134.5940 C   0  0  0  0  0  2  0  0  0  0  0  0
  190.7780  172.3260  135.2950 N   0  0  0  0  0  2  0  0  0  0  0  0
  189.4980  172.1720  134.6060 C   0  0  2  0  0  3  0  0  0  0  0  0
  188.6410  172.3880  136.9610 F   0  0  0  0  0  0  0  0  0  0  0  0
  188.3660  172.2110  135.6130 C   0  0  2  0  0  0  0  0  0  0  0  0
  188.7970  170.8820  135.0470 C   0  0  0  0  0  2  0  0  0  0  0  0
  187.1330  172.6500  135.1280 O   0  0  0  0  0  1  0  0  0  0  0  0
  1 32  1  1  0  0  0
  1 30  1  0  0  0  0
  2  1  1  6  0  0  0
  3  6  2  0  0  0  0
  4  2  1  0  0  0  0
  4  8  1  1  0  0  0
  5 23  1  0  0  0  0
  5  3  1  0  0  0  0
  6  4  1  0  0  0  0
  7  3  1  0  0  0  0
  7  2  1  0  0  0  0
  8  9  1  0  0  0  0
  9 12  1  0  0  0  0
 11 10  2  0  0  0  0
 12 11  1  0  0  0  0
 13 11  1  1  0  0  0
 13 18  1  0  0  0  0
 14 13  1  0  0  0  0
 14 15  1  0  0  0  0
 15 17  1  0  0  0  0
 17 16  1  0  0  0  0
 18 16  1  0  0  0  0
 19 15  1  0  0  0  0
 19 21  1  0  0  0  0
 21 22  2  0  0  0  0
 21 20  1  0  0  0  0
 23 24  1  0  0  0  0
 24 26  1  0  0  0  0
 25 26  1  0  0  0  0
 25 28  1  0  0  0  0
 26 27  2  0  0  0  0
 27 29  1  0  0  0  0
 28 29  2  0  0  0  0
 31 30  2  0  0  0  0
 33 32  1  0  0  0  0
 34 33  2  0  0  0  0
 34 35  1  0  0  0  0
 35 36  1  0  0  0  0
 37 49  1  6  0  0  0
 38 51  1  1  0  0  0
 38 46  1  0  0  0  0
 38 45  1  0  0  0  0
 39 40  1  6  0  0  0
 39 47  1  0  0  0  0
 40 41  1  0  0  0  0
 41 44  1  0  0  0  0
 42 43  1  0  0  0  0
 43 48  1  0  0  0  0
 44 42  1  0  0  0  0
 45 39  1  0  0  0  0
 46 36  1  1  0  0  0
 46 37  1  0  0  0  0
 47 37  1  0  0  0  0
 47 48  1  1  0  0  0
 49 50  1  0  0  0  0
 51 52  1  0  0  0  0
 53 56  1  0  0  0  0
 53 52  1  1  0  0  0
 53 55  1  0  0  0  0
 55 57  1  6  0  0  0
 55 54  1  0  0  0  0
 56 55  1  0  0  0  0
M  END
>  <MODEL>
9

>  <REMARK>
 VINA RESULT:      -5.7      3.132     11.189
  Name = 
  20 active torsions:
  status: ('A' for Active; 'I' for Inactive)
    1  A    between atoms: C_1  and  N_13
    2  A    between atoms: C_1  and  C_28
    3  A    between atoms: C_2  and  C_34
    4  A    between atoms: C_3  and  O_9
    5  A    between atoms: C_4  and  C_32
    6  A    between atoms: C_5  and  C_56
    7  A    between atoms: C_7  and  N_51
    8  A    between atoms: N_11  and  C_45
    9  A    between atoms: N_13  and  N_23
   10  A    between atoms: C_14  and  C_29
   11  A    between atoms: C_14  and  N_35
   12  A    between atoms: C_17  and  C_29
   13  A    between atoms: C_19  and  C_21
   14  A    between atoms: C_19  and  C_54
   15  A    between atoms: C_21  and  C_39
   16  A    between atoms: C_25  and  C_34
   17  A    between atoms: C_34  and  C_42
   18  A    between atoms: C_36  and  C_42
   19  A    between atoms: C_45  and  C_46
   20  A    between atoms: N_51  and  C_56
                            x       y       z     vdW  Elec       q    Type
                         _______ _______ _______ _____ _____    ______ ____

>  <TORSDO>
F 20

$$$$
