=
 OpenBabel11032419273D

 30 33  0  0  1  0  0  0  0  0999 V2000
  188.0750  179.8380  141.0680 O   0  0  0  0  0  0  0  0  0  0  0  0
  184.8130  178.4740  144.2560 C   0  0  0  0  0  3  0  0  0  0  0  0
  185.2870  178.2040  146.5760 F   0  0  0  0  0  0  0  0  0  0  0  0
  185.2210  178.3730  142.9230 C   0  0  0  0  0  3  0  0  0  0  0  0
  190.3280  177.6160  140.5050 N   0  0  0  0  0  2  0  0  0  0  0  0
  185.6820  178.1010  145.2850 C   0  0  0  0  0  0  0  0  0  0  0  0
  191.7130  176.9260  142.2360 O   0  0  0  0  0  0  0  0  0  0  0  0
  189.7000  177.9850  142.9660 C   0  0  1  0  0  3  0  0  0  0  0  0
  187.3690  177.4990  143.6490 C   0  0  0  0  0  0  0  0  0  0  0  0
  187.9730  178.6260  140.7340 C   0  0  0  0  0  0  0  0  0  0  0  0
  190.6350  177.4880  141.9020 C   0  0  0  0  0  0  0  0  0  0  0  0
  186.9540  177.6070  144.9810 C   0  0  0  0  0  3  0  0  0  0  0  0
  188.5230  177.0740  138.8610 N   0  0  0  0  0  0  0  0  0  0  0  0
  188.7110  176.9010  143.3580 C   0  0  0  0  0  2  0  0  0  0  0  0
  186.5020  177.9060  142.6130 C   0  0  0  0  0  0  0  0  0  0  0  0
  189.1050  178.3860  138.5060 C   0  0  0  0  0  2  0  0  0  0  0  0
  189.0390  177.9940  139.9030 C   0  0  2  0  0  0  0  0  0  0  0  0
  186.9040  177.8270  141.2430 N   0  0  0  0  0  2  0  0  0  0  0  0
  189.5090  176.0740  138.4640 C   0  0  0  0  0  2  0  0  0  0  0  0
  189.0390  175.3470  137.2140 C   0  0  0  0  0  2  0  0  0  0  0  0
  190.9210  173.9430  137.6220 O   0  0  0  0  0  1  0  0  0  0  0  0
  189.8490  174.1180  136.9860 C   0  0  0  0  0  0  0  0  0  0  0  0
  189.4420  173.1800  136.0470 O   0  0  0  0  0  0  0  0  0  0  0  0
  190.4240  178.4550  144.1410 N   0  0  0  0  0  2  0  0  0  0  0  0
  191.9980  175.9630  146.3600 N   0  0  0  0  0  0  0  0  0  0  0  0
  190.1180  176.8770  147.5180 C   0  0  0  0  0  3  0  0  0  0  0  0
  189.8490  177.6930  146.4180 C   0  0  0  0  0  3  0  0  0  0  0  0
  191.7540  176.7520  145.2800 C   0  0  0  0  0  3  0  0  0  0  0  0
  190.6720  177.6370  145.2860 C   0  0  0  0  0  0  0  0  0  0  0  0
  191.2100  176.0080  147.4690 C   0  0  0  0  0  3  0  0  0  0  0  0
  2  6  1  0  0  0  0
  4  2  2  0  0  0  0
  5 11  1  0  0  0  0
  6  3  1  0  0  0  0
  8 14  1  0  0  0  0
  8 24  1  1  0  0  0
  9 12  1  0  0  0  0
 10  1  2  0  0  0  0
 10 18  1  0  0  0  0
 11  7  2  0  0  0  0
 11  8  1  0  0  0  0
 12  6  2  0  0  0  0
 13 17  1  0  0  0  0
 14  9  1  0  0  0  0
 15  4  1  0  0  0  0
 15  9  2  0  0  0  0
 16 13  1  0  0  0  0
 17 16  1  6  0  0  0
 17  5  1  0  0  0  0
 17 10  1  0  0  0  0
 18 15  1  0  0  0  0
 19 13  1  0  0  0  0
 20 19  1  0  0  0  0
 22 20  1  0  0  0  0
 22 21  1  0  0  0  0
 23 22  2  0  0  0  0
 24 29  1  0  0  0  0
 25 30  1  0  0  0  0
 27 26  1  0  0  0  0
 28 29  1  0  0  0  0
 28 25  2  0  0  0  0
 29 27  2  0  0  0  0
 30 26  2  0  0  0  0
M  END
>  <MODEL>
1

>  <REMARK>
 VINA RESULT:      -8.2      0.000      0.000
  Name = 
  5 active torsions:
  status: ('A' for Active; 'I' for Inactive)
    1  A    between atoms: C_4  and  C_5
    2  A    between atoms: C_4  and  N_21
    3  A    between atoms: C_5  and  C_15
    4  A    between atoms: C_11  and  N_30
    5  A    between atoms: C_27  and  N_30
                            x       y       z     vdW  Elec       q    Type
                         _______ _______ _______ _____ _____    ______ ____

>  <TORSDO>
F 5

$$$$
=
 OpenBabel11032419273D

 30 33  0  0  1  0  0  0  0  0999 V2000
  185.6260  180.3850  142.3830 O   0  0  0  0  0  0  0  0  0  0  0  0
  185.6600  178.2310  146.6280 C   0  0  0  0  0  3  0  0  0  0  0  0
  187.6610  177.5660  147.7390 F   0  0  0  0  0  0  0  0  0  0  0  0
  184.9430  178.4080  145.4410 C   0  0  0  0  0  3  0  0  0  0  0  0
  186.5150  178.4670  139.9620 N   0  0  0  0  0  2  0  0  0  0  0  0
  186.9660  177.7330  146.5890 C   0  0  0  0  0  0  0  0  0  0  0  0
  188.6530  177.5640  139.9430 O   0  0  0  0  0  0  0  0  0  0  0  0
  187.9400  178.3270  142.0920 C   0  0  1  0  0  3  0  0  0  0  0  0
  186.8360  177.5630  144.1740 C   0  0  0  0  0  0  0  0  0  0  0  0
  185.1990  179.2530  142.0280 C   0  0  0  0  0  0  0  0  0  0  0  0
  187.7370  178.1020  140.6210 C   0  0  0  0  0  0  0  0  0  0  0  0
  187.5480  177.3930  145.3660 C   0  0  0  0  0  3  0  0  0  0  0  0
  184.0450  178.1180  140.1310 N   0  0  0  0  0  0  0  0  0  0  0  0
  187.4650  177.1230  142.8870 C   0  0  0  0  0  2  0  0  0  0  0  0
  185.5290  178.0960  144.2110 C   0  0  0  0  0  0  0  0  0  0  0  0
  184.2950  179.5100  139.7010 C   0  0  0  0  0  2  0  0  0  0  0  0
  185.2430  178.8610  140.5890 C   0  0  2  0  0  0  0  0  0  0  0  0
  184.7830  178.3010  143.0090 N   0  0  0  0  0  2  0  0  0  0  0  0
  184.3190  177.2800  138.9690 C   0  0  0  0  0  2  0  0  0  0  0  0
  183.0370  177.0290  138.1920 C   0  0  0  0  0  2  0  0  0  0  0  0
  182.6860  174.6980  137.8420 O   0  0  0  0  0  0  0  0  0  0  0  0
  182.4520  175.7080  138.5550 C   0  0  0  0  0  0  0  0  0  0  0  0
  181.6220  175.5960  139.6620 O   0  0  0  0  0  1  0  0  0  0  0  0
  189.3340  178.6190  142.4030 N   0  0  0  0  0  2  0  0  0  0  0  0
  191.2700  175.6670  143.4800 N   0  0  0  0  0  0  0  0  0  0  0  0
  191.4080  177.2970  145.2220 C   0  0  0  0  0  3  0  0  0  0  0  0
  190.6130  178.1610  144.4650 C   0  0  0  0  0  3  0  0  0  0  0  0
  190.4970  176.4950  142.7270 C   0  0  0  0  0  3  0  0  0  0  0  0
  190.1520  177.7620  143.2040 C   0  0  0  0  0  0  0  0  0  0  0  0
  191.7290  176.0400  144.7060 C   0  0  0  0  0  3  0  0  0  0  0  0
  4  2  2  0  0  0  0
  5 17  1  0  0  0  0
  5 11  1  0  0  0  0
  6  2  1  0  0  0  0
  6  3  1  0  0  0  0
  7 11  2  0  0  0  0
  8 24  1  6  0  0  0
  8 14  1  0  0  0  0
  9 15  2  0  0  0  0
  9 12  1  0  0  0  0
 10  1  2  0  0  0  0
 10 18  1  0  0  0  0
 11  8  1  0  0  0  0
 12  6  2  0  0  0  0
 13 17  1  0  0  0  0
 14  9  1  0  0  0  0
 15  4  1  0  0  0  0
 16 13  1  0  0  0  0
 17 16  1  6  0  0  0
 17 10  1  0  0  0  0
 18 15  1  0  0  0  0
 19 13  1  0  0  0  0
 20 22  1  0  0  0  0
 20 19  1  0  0  0  0
 21 22  2  0  0  0  0
 22 23  1  0  0  0  0
 24 29  1  0  0  0  0
 25 30  1  0  0  0  0
 27 26  1  0  0  0  0
 28 29  1  0  0  0  0
 28 25  2  0  0  0  0
 29 27  2  0  0  0  0
 30 26  2  0  0  0  0
M  END
>  <MODEL>
2

>  <REMARK>
 VINA RESULT:      -8.2      3.066      4.030
  Name = 
  5 active torsions:
  status: ('A' for Active; 'I' for Inactive)
    1  A    between atoms: C_4  and  C_5
    2  A    between atoms: C_4  and  N_21
    3  A    between atoms: C_5  and  C_15
    4  A    between atoms: C_11  and  N_30
    5  A    between atoms: C_27  and  N_30
                            x       y       z     vdW  Elec       q    Type
                         _______ _______ _______ _____ _____    ______ ____

>  <TORSDO>
F 5

$$$$
=
 OpenBabel11032419273D

 30 33  0  0  1  0  0  0  0  0999 V2000
  188.0760  179.8560  141.2260 O   0  0  0  0  0  0  0  0  0  0  0  0
  184.9060  178.4210  144.4730 C   0  0  0  0  0  3  0  0  0  0  0  0
  185.4470  178.0930  146.7710 F   0  0  0  0  0  0  0  0  0  0  0  0
  185.2750  178.3520  143.1270 C   0  0  0  0  0  3  0  0  0  0  0  0
  190.3070  177.6450  140.5430 N   0  0  0  0  0  2  0  0  0  0  0  0
  185.8040  178.0210  145.4660 C   0  0  0  0  0  0  0  0  0  0  0  0
  191.7390  176.9100  142.2140 O   0  0  0  0  0  0  0  0  0  0  0  0
  189.7510  177.9540  143.0290 C   0  0  1  0  0  3  0  0  0  0  0  0
  187.4400  177.4560  143.7680 C   0  0  0  0  0  0  0  0  0  0  0  0
  187.9620  178.6530  140.8650 C   0  0  0  0  0  0  0  0  0  0  0  0
  190.6540  177.4820  141.9260 C   0  0  0  0  0  0  0  0  0  0  0  0
  187.0640  177.5320  145.1140 C   0  0  0  0  0  3  0  0  0  0  0  0
  188.4540  177.1460  138.9400 N   0  0  0  0  0  0  0  0  0  0  0  0
  188.7710  176.8620  143.4230 C   0  0  0  0  0  2  0  0  0  0  0  0
  186.5440  177.8900  142.7680 C   0  0  0  0  0  0  0  0  0  0  0  0
  189.0280  178.4660  138.6000 C   0  0  0  0  0  2  0  0  0  0  0  0
  189.0020  178.0400  139.9880 C   0  0  2  0  0  0  0  0  0  0  0  0
  186.9060  177.8440  141.3850 N   0  0  0  0  0  2  0  0  0  0  0  0
  189.4240  176.1550  138.4890 C   0  0  0  0  0  2  0  0  0  0  0  0
  189.3700  176.0220  136.9760 C   0  0  0  0  0  2  0  0  0  0  0  0
  187.4010  176.2150  135.6480 O   0  0  0  0  0  0  0  0  0  0  0  0
  188.0190  175.5730  136.5360 C   0  0  0  0  0  0  0  0  0  0  0  0
  187.4270  174.4670  137.1280 O   0  0  0  0  0  1  0  0  0  0  0  0
  190.5110  178.3940  144.1940 N   0  0  0  0  0  2  0  0  0  0  0  0
  190.2780  176.9210  147.5690 N   0  0  0  0  0  0  0  0  0  0  0  0
  192.0100  175.7690  146.3940 C   0  0  0  0  0  3  0  0  0  0  0  0
  191.7750  176.5710  145.2770 C   0  0  0  0  0  3  0  0  0  0  0  0
  190.0320  177.7110  146.4900 C   0  0  0  0  0  3  0  0  0  0  0  0
  190.7760  177.5520  145.3180 C   0  0  0  0  0  0  0  0  0  0  0  0
  191.2420  175.9610  147.5450 C   0  0  0  0  0  3  0  0  0  0  0  0
  2  6  1  0  0  0  0
  4  2  2  0  0  0  0
  5 11  1  0  0  0  0
  6  3  1  0  0  0  0
  8 14  1  0  0  0  0
  8 24  1  1  0  0  0
  9 12  1  0  0  0  0
 10  1  2  0  0  0  0
 10 18  1  0  0  0  0
 11  7  2  0  0  0  0
 11  8  1  0  0  0  0
 12  6  2  0  0  0  0
 13 17  1  0  0  0  0
 14  9  1  0  0  0  0
 15  4  1  0  0  0  0
 15  9  2  0  0  0  0
 16 13  1  0  0  0  0
 17 16  1  6  0  0  0
 17  5  1  0  0  0  0
 17 10  1  0  0  0  0
 18 15  1  0  0  0  0
 19 13  1  0  0  0  0
 20 19  1  0  0  0  0
 21 22  2  0  0  0  0
 22 20  1  0  0  0  0
 22 23  1  0  0  0  0
 24 29  1  0  0  0  0
 26 30  2  0  0  0  0
 27 29  2  0  0  0  0
 27 26  1  0  0  0  0
 28 25  2  0  0  0  0
 29 28  1  0  0  0  0
 30 25  1  0  0  0  0
M  END
>  <MODEL>
3

>  <REMARK>
 VINA RESULT:      -7.8      1.029      1.392
  Name = 
  5 active torsions:
  status: ('A' for Active; 'I' for Inactive)
    1  A    between atoms: C_4  and  C_5
    2  A    between atoms: C_4  and  N_21
    3  A    between atoms: C_5  and  C_15
    4  A    between atoms: C_11  and  N_30
    5  A    between atoms: C_27  and  N_30
                            x       y       z     vdW  Elec       q    Type
                         _______ _______ _______ _____ _____    ______ ____

>  <TORSDO>
F 5

$$$$
=
 OpenBabel11032419273D

 30 33  0  0  1  0  0  0  0  0999 V2000
  184.0430  177.2850  135.9950 O   0  0  0  0  0  0  0  0  0  0  0  0
  181.0930  173.9260  137.6290 C   0  0  0  0  0  3  0  0  0  0  0  0
  179.2060  174.4020  139.0070 F   0  0  0  0  0  0  0  0  0  0  0  0
  182.4080  174.2060  137.2490 C   0  0  0  0  0  3  0  0  0  0  0  0
  185.8600  178.6240  138.2830 N   0  0  0  0  0  2  0  0  0  0  0  0
  180.4830  174.6710  138.6420 C   0  0  0  0  0  0  0  0  0  0  0  0
  184.8440  179.7830  140.0190 O   0  0  0  0  0  0  0  0  0  0  0  0
  183.3830  178.2860  138.8650 C   0  0  1  0  0  3  0  0  0  0  0  0
  182.5140  175.9680  138.9200 C   0  0  0  0  0  0  0  0  0  0  0  0
  184.8030  176.7630  136.8550 C   0  0  0  0  0  0  0  0  0  0  0  0
  184.7150  178.9420  139.0890 C   0  0  0  0  0  0  0  0  0  0  0  0
  181.1950  175.6830  139.2910 C   0  0  0  0  0  3  0  0  0  0  0  0
  187.2040  176.6580  137.5200 N   0  0  0  0  0  0  0  0  0  0  0  0
  183.2700  177.0110  139.6830 C   0  0  0  0  0  2  0  0  0  0  0  0
  183.1180  175.2350  137.8750 C   0  0  0  0  0  0  0  0  0  0  0  0
  187.1160  177.6290  136.4080 C   0  0  0  0  0  2  0  0  0  0  0  0
  186.0040  177.5080  137.3340 C   0  0  2  0  0  0  0  0  0  0  0  0
  184.4570  175.5150  137.4580 N   0  0  0  0  0  2  0  0  0  0  0  0
  188.1460  177.2260  138.4790 C   0  0  0  0  0  2  0  0  0  0  0  0
  189.5680  177.0820  137.9620 C   0  0  0  0  0  2  0  0  0  0  0  0
  190.4660  176.3400  140.0410 O   0  0  0  0  0  1  0  0  0  0  0  0
  190.3390  176.1280  138.8070 C   0  0  0  0  0  0  0  0  0  0  0  0
  190.9480  175.0220  138.2300 O   0  0  0  0  0  0  0  0  0  0  0  0
  182.2810  179.1870  139.1800 N   0  0  0  0  0  2  0  0  0  0  0  0
  181.0430  182.2780  137.5890 N   0  0  0  0  0  0  0  0  0  0  0  0
  180.6010  180.4670  136.0940 C   0  0  0  0  0  3  0  0  0  0  0  0
  181.1760  179.5830  137.0080 C   0  0  0  0  0  3  0  0  0  0  0  0
  181.6100  181.4330  138.4910 C   0  0  0  0  0  3  0  0  0  0  0  0
  181.6890  180.0640  138.2190 C   0  0  0  0  0  0  0  0  0  0  0  0
  180.5430  181.8280  136.4050 C   0  0  0  0  0  3  0  0  0  0  0  0
  1 10  2  0  0  0  0
  2  6  1  0  0  0  0
  4  2  2  0  0  0  0
  4 15  1  0  0  0  0
  5 11  1  0  0  0  0
  6  3  1  0  0  0  0
  6 12  2  0  0  0  0
  8 11  1  0  0  0  0
  8 24  1  1  0  0  0
  8 14  1  0  0  0  0
  9 12  1  0  0  0  0
  9 14  1  0  0  0  0
 10 17  1  0  0  0  0
 10 18  1  0  0  0  0
 11  7  2  0  0  0  0
 13 19  1  0  0  0  0
 15  9  2  0  0  0  0
 16 13  1  0  0  0  0
 17 16  1  6  0  0  0
 17 13  1  0  0  0  0
 17  5  1  0  0  0  0
 18 15  1  0  0  0  0
 20 19  1  0  0  0  0
 20 22  1  0  0  0  0
 22 21  1  0  0  0  0
 23 22  2  0  0  0  0
 25 28  1  0  0  0  0
 26 30  1  0  0  0  0
 26 27  2  0  0  0  0
 27 29  1  0  0  0  0
 29 28  2  0  0  0  0
 29 24  1  0  0  0  0
 30 25  2  0  0  0  0
M  END
>  <MODEL>
4

>  <REMARK>
 VINA RESULT:      -6.9      5.614      8.549
  Name = 
  5 active torsions:
  status: ('A' for Active; 'I' for Inactive)
    1  A    between atoms: C_4  and  C_5
    2  A    between atoms: C_4  and  N_21
    3  A    between atoms: C_5  and  C_15
    4  A    between atoms: C_11  and  N_30
    5  A    between atoms: C_27  and  N_30
                            x       y       z     vdW  Elec       q    Type
                         _______ _______ _______ _____ _____    ______ ____

>  <TORSDO>
F 5

$$$$
=
 OpenBabel11032419273D

 30 33  0  0  1  0  0  0  0  0999 V2000
  190.4430  174.5570  138.3070 O   0  0  0  0  0  0  0  0  0  0  0  0
  189.2140  177.3740  141.9410 C   0  0  0  0  0  3  0  0  0  0  0  0
  187.1800  178.6160  142.0010 F   0  0  0  0  0  0  0  0  0  0  0  0
  190.2850  176.8510  141.2110 C   0  0  0  0  0  3  0  0  0  0  0  0
  191.1680  176.1660  135.6210 N   0  0  0  0  0  2  0  0  0  0  0  0
  188.2200  178.1140  141.2930 C   0  0  0  0  0  0  0  0  0  0  0  0
  189.5450  177.4700  134.5950 O   0  0  0  0  0  0  0  0  0  0  0  0
  189.0790  176.9620  136.8820 C   0  0  1  0  0  3  0  0  0  0  0  0
  189.3780  177.8320  139.1810 C   0  0  0  0  0  0  0  0  0  0  0  0
  191.2560  175.4990  138.1040 C   0  0  0  0  0  0  0  0  0  0  0  0
  189.9230  176.8820  135.6430 C   0  0  0  0  0  0  0  0  0  0  0  0
  188.3070  178.3490  139.9190 C   0  0  0  0  0  3  0  0  0  0  0  0
  193.3430  176.0270  136.8460 N   0  0  0  0  0  0  0  0  0  0  0  0
  189.4760  178.1620  137.7240 C   0  0  0  0  0  2  0  0  0  0  0  0
  190.3640  177.0590  139.8310 C   0  0  0  0  0  0  0  0  0  0  0  0
  192.9420  174.6630  136.4430 C   0  0  0  0  0  2  0  0  0  0  0  0
  191.9150  175.6360  136.7720 C   0  0  2  0  0  0  0  0  0  0  0  0
  191.4600  176.5010  139.1010 N   0  0  0  0  0  2  0  0  0  0  0  0
  193.8030  176.6900  135.6300 C   0  0  0  0  0  2  0  0  0  0  0  0
  195.0700  176.0230  135.1190 C   0  0  0  0  0  2  0  0  0  0  0  0
  197.3080  176.4100  135.8410 O   0  0  0  0  0  1  0  0  0  0  0  0
  196.2540  176.8960  135.3550 C   0  0  0  0  0  0  0  0  0  0  0  0
  196.1860  178.2530  135.0700 O   0  0  0  0  0  0  0  0  0  0  0  0
  187.6570  177.0190  136.5600 N   0  0  0  0  0  2  0  0  0  0  0  0
  184.5170  175.2120  137.2580 N   0  0  0  0  0  0  0  0  0  0  0  0
  186.2830  173.6030  137.2140 C   0  0  0  0  0  3  0  0  0  0  0  0
  187.1960  174.6250  136.9450 C   0  0  0  0  0  3  0  0  0  0  0  0
  185.3900  176.2210  136.9940 C   0  0  0  0  0  3  0  0  0  0  0  0
  186.7510  175.9480  136.8310 C   0  0  0  0  0  0  0  0  0  0  0  0
  184.9320  173.9210  137.3690 C   0  0  0  0  0  3  0  0  0  0  0  0
  4  2  2  0  0  0  0
  5 11  1  0  0  0  0
  5 17  1  0  0  0  0
  6  2  1  0  0  0  0
  6  3  1  0  0  0  0
  7 11  2  0  0  0  0
  8 24  1  6  0  0  0
  8 14  1  0  0  0  0
  9 15  2  0  0  0  0
  9 12  1  0  0  0  0
 10  1  2  0  0  0  0
 10 18  1  0  0  0  0
 11  8  1  0  0  0  0
 12  6  2  0  0  0  0
 14  9  1  0  0  0  0
 15  4  1  0  0  0  0
 16 13  1  0  0  0  0
 17 16  1  6  0  0  0
 17 13  1  0  0  0  0
 17 10  1  0  0  0  0
 18 15  1  0  0  0  0
 19 13  1  0  0  0  0
 20 22  1  0  0  0  0
 20 19  1  0  0  0  0
 22 21  1  0  0  0  0
 23 22  2  0  0  0  0
 24 29  1  0  0  0  0
 25 30  1  0  0  0  0
 26 30  2  0  0  0  0
 27 26  1  0  0  0  0
 28 25  2  0  0  0  0
 29 27  2  0  0  0  0
 29 28  1  0  0  0  0
M  END
>  <MODEL>
5

>  <REMARK>
 VINA RESULT:      -6.8      3.803      7.288
  Name = 
  5 active torsions:
  status: ('A' for Active; 'I' for Inactive)
    1  A    between atoms: C_4  and  C_5
    2  A    between atoms: C_4  and  N_21
    3  A    between atoms: C_5  and  C_15
    4  A    between atoms: C_11  and  N_30
    5  A    between atoms: C_27  and  N_30
                            x       y       z     vdW  Elec       q    Type
                         _______ _______ _______ _____ _____    ______ ____

>  <TORSDO>
F 5

$$$$
=
 OpenBabel11032419273D

 30 33  0  0  1  0  0  0  0  0999 V2000
  183.5820  177.6500  136.3890 O   0  0  0  0  0  0  0  0  0  0  0  0
  180.7460  174.1800  137.9940 C   0  0  0  0  0  3  0  0  0  0  0  0
  179.0600  174.5290  139.6430 F   0  0  0  0  0  0  0  0  0  0  0  0
  182.0130  174.4780  137.4860 C   0  0  0  0  0  3  0  0  0  0  0  0
  185.7090  178.6820  138.5670 N   0  0  0  0  0  2  0  0  0  0  0  0
  180.2900  174.8150  139.1530 C   0  0  0  0  0  0  0  0  0  0  0  0
  184.9530  179.6510  140.5360 O   0  0  0  0  0  0  0  0  0  0  0  0
  183.3130  178.3250  139.4140 C   0  0  1  0  0  3  0  0  0  0  0  0
  182.3810  176.0320  139.3170 C   0  0  0  0  0  0  0  0  0  0  0  0
  184.4240  177.0180  137.0830 C   0  0  0  0  0  0  0  0  0  0  0  0
  184.6830  178.9250  139.5410 C   0  0  0  0  0  0  0  0  0  0  0  0
  181.1090  175.7310  139.8170 C   0  0  0  0  0  3  0  0  0  0  0  0
  186.8840  176.7930  137.4240 N   0  0  0  0  0  0  0  0  0  0  0  0
  183.2590  176.9660  140.0910 C   0  0  0  0  0  2  0  0  0  0  0  0
  182.8280  175.4150  138.1280 C   0  0  0  0  0  0  0  0  0  0  0  0
  186.6920  177.8870  136.4480 C   0  0  0  0  0  2  0  0  0  0  0  0
  185.6990  177.6800  137.4880 C   0  0  2  0  0  0  0  0  0  0  0  0
  184.1140  175.7160  137.5810 N   0  0  0  0  0  2  0  0  0  0  0  0
  187.9550  177.2280  138.3150 C   0  0  0  0  0  2  0  0  0  0  0  0
  189.3070  176.9780  137.6660 C   0  0  0  0  0  2  0  0  0  0  0  0
  190.6480  177.3230  139.6060 O   0  0  0  0  0  1  0  0  0  0  0  0
  190.3030  176.5400  138.6830 C   0  0  0  0  0  0  0  0  0  0  0  0
  190.8790  175.2800  138.5950 O   0  0  0  0  0  0  0  0  0  0  0  0
  182.2880  179.2040  139.9650 N   0  0  0  0  0  2  0  0  0  0  0  0
  179.6430  178.5150  142.4440 N   0  0  0  0  0  0  0  0  0  0  0  0
  181.7070  178.7320  143.6290 C   0  0  0  0  0  3  0  0  0  0  0  0
  182.3660  178.9650  142.4200 C   0  0  0  0  0  3  0  0  0  0  0  0
  180.2680  178.7370  141.2570 C   0  0  0  0  0  3  0  0  0  0  0  0
  181.6460  178.9660  141.2190 C   0  0  0  0  0  0  0  0  0  0  0  0
  180.3290  178.5070  143.6200 C   0  0  0  0  0  3  0  0  0  0  0  0
  1 10  2  0  0  0  0
  2  6  1  0  0  0  0
  4  2  2  0  0  0  0
  4 15  1  0  0  0  0
  5 11  1  0  0  0  0
  6  3  1  0  0  0  0
  6 12  2  0  0  0  0
  8 11  1  0  0  0  0
  8 24  1  1  0  0  0
  8 14  1  0  0  0  0
  9 12  1  0  0  0  0
  9 14  1  0  0  0  0
 10 17  1  0  0  0  0
 10 18  1  0  0  0  0
 11  7  2  0  0  0  0
 13 17  1  0  0  0  0
 13 19  1  0  0  0  0
 15  9  2  0  0  0  0
 16 13  1  0  0  0  0
 17 16  1  6  0  0  0
 17  5  1  0  0  0  0
 18 15  1  0  0  0  0
 20 19  1  0  0  0  0
 20 22  1  0  0  0  0
 22 21  1  0  0  0  0
 23 22  2  0  0  0  0
 24 29  1  0  0  0  0
 25 30  1  0  0  0  0
 27 26  1  0  0  0  0
 28 25  2  0  0  0  0
 29 28  1  0  0  0  0
 29 27  2  0  0  0  0
 30 26  2  0  0  0  0
M  END
>  <MODEL>
6

>  <REMARK>
 VINA RESULT:      -6.6      5.260      7.453
  Name = 
  5 active torsions:
  status: ('A' for Active; 'I' for Inactive)
    1  A    between atoms: C_4  and  C_5
    2  A    between atoms: C_4  and  N_21
    3  A    between atoms: C_5  and  C_15
    4  A    between atoms: C_11  and  N_30
    5  A    between atoms: C_27  and  N_30
                            x       y       z     vdW  Elec       q    Type
                         _______ _______ _______ _____ _____    ______ ____

>  <TORSDO>
F 5

$$$$
=
 OpenBabel11032419273D

 30 33  0  0  1  0  0  0  0  0999 V2000
  184.5700  180.1280  139.4740 O   0  0  0  0  0  0  0  0  0  0  0  0
  184.3440  177.0500  135.8510 C   0  0  0  0  0  3  0  0  0  0  0  0
  182.3050  176.4470  134.7730 F   0  0  0  0  0  0  0  0  0  0  0  0
  185.0350  177.3960  137.0150 C   0  0  0  0  0  3  0  0  0  0  0  0
  183.2860  179.0040  142.1970 N   0  0  0  0  0  2  0  0  0  0  0  0
  182.9740  176.7790  135.9030 C   0  0  0  0  0  0  0  0  0  0  0  0
  181.0290  178.4640  142.2610 O   0  0  0  0  0  0  0  0  0  0  0  0
  181.9390  178.5730  140.0550 C   0  0  1  0  0  3  0  0  0  0  0  0
  182.9810  177.1750  138.2960 C   0  0  0  0  0  0  0  0  0  0  0  0
  184.7910  179.0630  140.1120 C   0  0  0  0  0  0  0  0  0  0  0  0
  182.0470  178.6800  141.5490 C   0  0  0  0  0  0  0  0  0  0  0  0
  182.2970  176.8330  137.1240 C   0  0  0  0  0  3  0  0  0  0  0  0
  185.6700  178.2550  142.3020 N   0  0  0  0  0  0  0  0  0  0  0  0
  182.2400  177.1570  139.5970 C   0  0  0  0  0  2  0  0  0  0  0  0
  184.3590  177.4800  138.2360 C   0  0  0  0  0  0  0  0  0  0  0  0
  185.6360  179.7320  142.3790 C   0  0  0  0  0  2  0  0  0  0  0  0
  184.6280  179.0390  141.5950 C   0  0  2  0  0  0  0  0  0  0  0  0
  185.0820  177.8520  139.4110 N   0  0  0  0  0  2  0  0  0  0  0  0
  185.2170  177.7720  143.6010 C   0  0  0  0  0  2  0  0  0  0  0  0
  186.0510  178.3930  144.7090 C   0  0  0  0  0  2  0  0  0  0  0  0
  185.6770  179.0990  146.9550 O   0  0  0  0  0  1  0  0  0  0  0  0
  185.1800  178.8610  145.8230 C   0  0  0  0  0  0  0  0  0  0  0  0
  183.8140  179.0030  145.6250 O   0  0  0  0  0  0  0  0  0  0  0  0
  180.6250  178.9890  139.5790 N   0  0  0  0  0  2  0  0  0  0  0  0
  179.2480  182.3800  139.1070 N   0  0  0  0  0  0  0  0  0  0  0  0
  180.6990  181.9250  137.2640 C   0  0  0  0  0  3  0  0  0  0  0  0
  180.9710  180.6650  137.8000 C   0  0  0  0  0  3  0  0  0  0  0  0
  179.5030  181.1580  139.6470 C   0  0  0  0  0  3  0  0  0  0  0  0
  180.3720  180.2720  139.0040 C   0  0  0  0  0  0  0  0  0  0  0  0
  179.8240  182.7780  137.9410 C   0  0  0  0  0  3  0  0  0  0  0  0
  1 10  2  0  0  0  0
  2  6  2  0  0  0  0
  2  4  1  0  0  0  0
  3  6  1  0  0  0  0
  4 15  2  0  0  0  0
  6 12  1  0  0  0  0
  8 24  1  1  0  0  0
  8 11  1  0  0  0  0
  9 14  1  0  0  0  0
 10 17  1  0  0  0  0
 11  5  1  0  0  0  0
 11  7  2  0  0  0  0
 12  9  2  0  0  0  0
 13 16  1  0  0  0  0
 13 19  1  0  0  0  0
 14  8  1  0  0  0  0
 15  9  1  0  0  0  0
 15 18  1  0  0  0  0
 17  5  1  0  0  0  0
 17 13  1  0  0  0  0
 17 16  1  1  0  0  0
 18 10  1  0  0  0  0
 19 20  1  0  0  0  0
 20 22  1  0  0  0  0
 22 21  1  0  0  0  0
 23 22  2  0  0  0  0
 25 28  1  0  0  0  0
 26 27  2  0  0  0  0
 26 30  1  0  0  0  0
 27 29  1  0  0  0  0
 29 24  1  0  0  0  0
 29 28  2  0  0  0  0
 30 25  2  0  0  0  0
M  END
>  <MODEL>
7

>  <REMARK>
 VINA RESULT:      -6.6      5.722      9.845
  Name = 
  5 active torsions:
  status: ('A' for Active; 'I' for Inactive)
    1  A    between atoms: C_4  and  C_5
    2  A    between atoms: C_4  and  N_21
    3  A    between atoms: C_5  and  C_15
    4  A    between atoms: C_11  and  N_30
    5  A    between atoms: C_27  and  N_30
                            x       y       z     vdW  Elec       q    Type
                         _______ _______ _______ _____ _____    ______ ____

>  <TORSDO>
F 5

$$$$
=
 OpenBabel11032419273D

 30 33  0  0  1  0  0  0  0  0999 V2000
  189.0380  179.5360  138.3660 O   0  0  0  0  0  0  0  0  0  0  0  0
  186.2550  178.6810  142.1310 C   0  0  0  0  0  3  0  0  0  0  0  0
  187.1020  178.3730  144.3390 F   0  0  0  0  0  0  0  0  0  0  0  0
  186.3970  178.5080  140.7520 C   0  0  0  0  0  3  0  0  0  0  0  0
  190.8290  177.0140  137.4920 N   0  0  0  0  0  2  0  0  0  0  0  0
  187.2380  178.2010  143.0020 C   0  0  0  0  0  0  0  0  0  0  0  0
  192.3980  176.1570  138.9720 O   0  0  0  0  0  0  0  0  0  0  0  0
  190.7140  177.4960  140.0100 C   0  0  1  0  0  3  0  0  0  0  0  0
  188.5020  177.3500  141.1160 C   0  0  0  0  0  0  0  0  0  0  0  0
  188.7140  178.3470  138.1000 C   0  0  0  0  0  0  0  0  0  0  0  0
  191.3640  176.8600  138.8160 C   0  0  0  0  0  0  0  0  0  0  0  0
  188.3540  177.5300  142.4950 C   0  0  0  0  0  3  0  0  0  0  0  0
  188.6990  176.7110  136.2170 N   0  0  0  0  0  0  0  0  0  0  0  0
  189.6750  176.5660  140.6120 C   0  0  0  0  0  2  0  0  0  0  0  0
  187.5240  177.8620  140.2360 C   0  0  0  0  0  0  0  0  0  0  0  0
  189.3790  177.9250  135.7160 C   0  0  0  0  0  2  0  0  0  0  0  0
  189.5160  177.5620  137.1160 C   0  0  2  0  0  0  0  0  0  0  0  0
  187.6570  177.7110  138.8200 N   0  0  0  0  0  2  0  0  0  0  0  0
  189.4510  175.5790  135.6870 C   0  0  0  0  0  2  0  0  0  0  0  0
  188.5910  174.3260  135.7090 C   0  0  0  0  0  2  0  0  0  0  0  0
  190.0520  173.6300  137.4580 O   0  0  0  0  0  1  0  0  0  0  0  0
  188.9570  173.4570  136.8620 C   0  0  0  0  0  0  0  0  0  0  0  0
  188.1080  172.4330  137.2590 O   0  0  0  0  0  0  0  0  0  0  0  0
  191.6970  177.8740  141.0190 N   0  0  0  0  0  2  0  0  0  0  0  0
  191.5910  175.8100  144.0770 N   0  0  0  0  0  0  0  0  0  0  0  0
  191.2270  178.0820  144.7240 C   0  0  0  0  0  3  0  0  0  0  0  0
  191.3380  178.4710  143.3880 C   0  0  0  0  0  3  0  0  0  0  0  0
  191.7050  176.1700  142.7710 C   0  0  0  0  0  3  0  0  0  0  0  0
  191.5810  177.5110  142.3970 C   0  0  0  0  0  0  0  0  0  0  0  0
  191.3590  176.7310  145.0520 C   0  0  0  0  0  3  0  0  0  0  0  0
  2  6  1  0  0  0  0
  4  2  2  0  0  0  0
  5 11  1  0  0  0  0
  6  3  1  0  0  0  0
  8 14  1  0  0  0  0
  8 24  1  1  0  0  0
  9 12  1  0  0  0  0
 10  1  2  0  0  0  0
 10 18  1  0  0  0  0
 11  7  2  0  0  0  0
 11  8  1  0  0  0  0
 12  6  2  0  0  0  0
 13 17  1  0  0  0  0
 14  9  1  0  0  0  0
 15  4  1  0  0  0  0
 15  9  2  0  0  0  0
 16 13  1  0  0  0  0
 17 16  1  6  0  0  0
 17  5  1  0  0  0  0
 17 10  1  0  0  0  0
 18 15  1  0  0  0  0
 19 20  1  0  0  0  0
 19 13  1  0  0  0  0
 20 22  1  0  0  0  0
 22 23  2  0  0  0  0
 22 21  1  0  0  0  0
 24 29  1  0  0  0  0
 25 30  1  0  0  0  0
 26 30  2  0  0  0  0
 27 26  1  0  0  0  0
 28 25  2  0  0  0  0
 29 28  1  0  0  0  0
 29 27  2  0  0  0  0
M  END
>  <MODEL>
8

>  <REMARK>
 VINA RESULT:      -6.5      1.945      2.749
  Name = 
  5 active torsions:
  status: ('A' for Active; 'I' for Inactive)
    1  A    between atoms: C_4  and  C_5
    2  A    between atoms: C_4  and  N_21
    3  A    between atoms: C_5  and  C_15
    4  A    between atoms: C_11  and  N_30
    5  A    between atoms: C_27  and  N_30
                            x       y       z     vdW  Elec       q    Type
                         _______ _______ _______ _____ _____    ______ ____

>  <TORSDO>
F 5

$$$$
=
 OpenBabel11032419273D

 30 33  0  0  1  0  0  0  0  0999 V2000
  184.5550  180.0980  139.4680 O   0  0  0  0  0  0  0  0  0  0  0  0
  183.0780  177.1410  136.0430 C   0  0  0  0  0  3  0  0  0  0  0  0
  180.7770  176.7570  135.5510 F   0  0  0  0  0  0  0  0  0  0  0  0
  184.0830  177.3940  136.9800 C   0  0  0  0  0  3  0  0  0  0  0  0
  183.9390  179.0350  142.4370 N   0  0  0  0  0  2  0  0  0  0  0  0
  181.7510  176.9980  136.4600 C   0  0  0  0  0  0  0  0  0  0  0  0
  181.7400  178.7070  143.1030 O   0  0  0  0  0  0  0  0  0  0  0  0
  182.0370  178.7830  140.7340 C   0  0  1  0  0  3  0  0  0  0  0  0
  182.4330  177.3360  138.7630 C   0  0  0  0  0  0  0  0  0  0  0  0
  184.8340  179.0030  140.0250 C   0  0  0  0  0  0  0  0  0  0  0  0
  182.5470  178.8430  142.1440 C   0  0  0  0  0  0  0  0  0  0  0  0
  181.4320  177.0870  137.8180 C   0  0  0  0  0  3  0  0  0  0  0  0
  186.1820  178.0650  141.9030 N   0  0  0  0  0  0  0  0  0  0  0  0
  182.0670  177.3550  140.2150 C   0  0  0  0  0  2  0  0  0  0  0  0
  183.7680  177.5120  138.3360 C   0  0  0  0  0  0  0  0  0  0  0  0
  186.3120  179.5360  141.9830 C   0  0  0  0  0  2  0  0  0  0  0  0
  185.0700  178.9590  141.4980 C   0  0  2  0  0  0  0  0  0  0  0  0
  184.8100  177.7870  139.2750 N   0  0  0  0  0  2  0  0  0  0  0  0
  186.0470  177.5950  143.2770 C   0  0  0  0  0  2  0  0  0  0  0  0
  187.2900  176.8250  143.6900 C   0  0  0  0  0  2  0  0  0  0  0  0
  187.3950  177.8080  145.8580 O   0  0  0  0  0  1  0  0  0  0  0  0
  188.0030  177.5300  144.7920 C   0  0  0  0  0  0  0  0  0  0  0  0
  189.3280  177.9100  144.6320 O   0  0  0  0  0  0  0  0  0  0  0  0
  180.6890  179.3300  140.6250 N   0  0  0  0  0  2  0  0  0  0  0  0
  178.9700  182.3790  139.4580 N   0  0  0  0  0  0  0  0  0  0  0  0
  180.7960  181.9650  137.9730 C   0  0  0  0  0  3  0  0  0  0  0  0
  181.1330  180.8330  138.7180 C   0  0  0  0  0  3  0  0  0  0  0  0
  179.2840  181.2820  140.1970 C   0  0  0  0  0  3  0  0  0  0  0  0
  180.3750  180.4840  139.8420 C   0  0  0  0  0  0  0  0  0  0  0  0
  179.6980  182.7340  138.3640 C   0  0  0  0  0  3  0  0  0  0  0  0
  1 10  2  0  0  0  0
  2  6  2  0  0  0  0
  2  4  1  0  0  0  0
  3  6  1  0  0  0  0
  4 15  2  0  0  0  0
  6 12  1  0  0  0  0
  8 24  1  1  0  0  0
  8 11  1  0  0  0  0
  9 14  1  0  0  0  0
 10 17  1  0  0  0  0
 11  5  1  0  0  0  0
 11  7  2  0  0  0  0
 12  9  2  0  0  0  0
 13 16  1  0  0  0  0
 13 19  1  0  0  0  0
 14  8  1  0  0  0  0
 15  9  1  0  0  0  0
 15 18  1  0  0  0  0
 17 13  1  0  0  0  0
 17 16  1  1  0  0  0
 17  5  1  0  0  0  0
 18 10  1  0  0  0  0
 19 20  1  0  0  0  0
 20 22  1  0  0  0  0
 22 21  1  0  0  0  0
 23 22  2  0  0  0  0
 25 28  1  0  0  0  0
 26 30  1  0  0  0  0
 26 27  2  0  0  0  0
 27 29  1  0  0  0  0
 29 28  2  0  0  0  0
 29 24  1  0  0  0  0
 30 25  2  0  0  0  0
M  END
>  <MODEL>
9

>  <REMARK>
 VINA RESULT:      -6.4      5.551      9.317
  Name = 
  5 active torsions:
  status: ('A' for Active; 'I' for Inactive)
    1  A    between atoms: C_4  and  C_5
    2  A    between atoms: C_4  and  N_21
    3  A    between atoms: C_5  and  C_15
    4  A    between atoms: C_11  and  N_30
    5  A    between atoms: C_27  and  N_30
                            x       y       z     vdW  Elec       q    Type
                         _______ _______ _______ _____ _____    ______ ____

>  <TORSDO>
F 5

$$$$
