=
 OpenBabel11032421123D

 50 57  0  0  1  0  0  0  0  0999 V2000
  191.2850  176.7380  148.0750 N   0  0  0  0  0  1  0  0  0  0  0  0
  188.5860  178.7130  138.9570 C   0  0  1  0  0  3  0  0  0  0  0  0
  187.1230  178.3700  140.9130 N   0  0  0  0  0  0  0  0  0  0  0  0
  187.3110  178.2200  138.2540 C   0  0  1  0  0  3  0  0  0  0  0  0
  186.1890  178.8810  138.7810 O   0  0  0  0  0  0  0  0  0  0  0  0
  188.0550  177.7230  143.1430 C   0  0  0  0  0  0  0  0  0  0  0  0
  189.6490  176.3030  139.2480 C   0  0  2  0  0  3  0  0  0  0  0  0
  185.9290  178.3180  140.0500 C   0  0  2  0  0  3  0  0  0  0  0  0
  189.0870  176.1480  140.6520 C   0  0  0  0  0  2  0  0  0  0  0  0
  188.3160  179.0630  140.4230 C   0  0  0  0  0  2  0  0  0  0  0  0
  186.7020  177.9560  145.1110 N   0  0  0  0  0  0  0  0  0  0  0  0
  186.9780  178.0890  142.3160 C   0  0  0  0  0  0  0  0  0  0  0  0
  191.4520  176.5830  144.2610 C   0  0  0  0  0  3  0  0  0  0  0  0
  189.7340  177.7480  138.8230 C   0  0  0  0  0  0  0  0  0  0  0  0
  189.9550  176.7880  141.6270 N   0  0  0  0  0  2  0  0  0  0  0  0
  187.8960  177.7280  144.5120 C   0  0  0  0  0  0  0  0  0  0  0  0
  184.4870  178.5080  142.1090 C   0  0  0  0  0  2  0  0  0  0  0  0
  190.8840  176.8250  146.7130 C   0  0  0  0  0  0  0  0  0  0  0  0
  190.7830  178.1550  138.3500 O   0  0  0  0  0  0  0  0  0  0  0  0
  191.7790  176.5500  145.7430 C   0  0  0  0  0  3  0  0  0  0  0  0
  189.4490  177.3060  142.8600 C   0  0  0  0  0  0  0  0  0  0  0  0
  185.6090  178.2170  144.3350 C   0  0  0  0  0  3  0  0  0  0  0  0
  189.1660  177.4000  145.1180 C   0  0  0  0  0  0  0  0  0  0  0  0
  189.4970  177.2330  146.3940 C   0  0  0  0  0  3  0  0  0  0  0  0
  190.0920  177.1670  144.0230 C   0  0  1  0  0  3  0  0  0  0  0  0
  184.7900  179.0860  140.7250 C   0  0  2  0  0  3  0  0  0  0  0  0
  185.7220  178.2930  142.9330 C   0  0  0  0  0  0  0  0  0  0  0  0
  187.3910  178.4380  136.7490 C   0  0  0  0  0  2  0  0  0  0  0  0
  187.6100  179.7860  136.4580 O   0  0  0  0  0  1  0  0  0  0  0  0
  188.8600  175.5780  138.3460 O   0  0  0  0  0  0  0  0  0  0  0  0
  188.7100  175.0090  136.1730 C   0  0  0  0  0  1  0  0  0  0  0  0
  189.6000  175.4950  137.2120 N   0  0  0  0  0  0  0  0  0  0  0  0
  190.5950  174.4580  137.4260 C   0  0  0  0  0  1  0  0  0  0  0  0
  183.5280  179.0320  139.8740 C   0  0  0  0  0  2  0  0  0  0  0  0
  182.2060  177.1820  138.9040 C   0  0  2  0  0  3  0  0  0  0  0  0
  180.6470  177.2000  140.6360 O   0  0  0  0  0  0  0  0  0  0  0  0
  181.5400  178.1530  140.8890 O   0  0  0  0  0  0  0  0  0  0  0  0
  179.9400  177.7920  138.5530 O   0  0  0  0  0  1  0  0  0  0  0  0
  182.6990  177.7920  140.1880 C   0  0  2  0  0  0  0  0  0  0  0  0
  180.7550  176.9090  139.2650 C   0  0  1  0  0  0  0  0  0  0  0  0
  183.4360  176.8920  140.9470 F   0  0  0  0  0  0  0  0  0  0  0  0
  180.2980  175.4940  139.0160 C   0  0  0  0  0  0  0  0  0  0  0  0
  180.3240  174.6460  139.9480 O   0  0  0  0  0  0  0  0  0  0  0  0
  179.8840  175.0890  137.7140 N   0  0  0  0  0  1  0  0  0  0  0  0
  183.0550  175.9860  138.4480 C   0  0  0  0  0  2  0  0  0  0  0  0
  184.0140  176.3850  137.3390 C   0  0  0  0  0  2  0  0  0  0  0  0
  185.0720  175.3130  137.1430 C   0  0  0  0  0  2  0  0  0  0  0  0
  184.6590  172.9600  136.5260 C   0  0  0  0  0  2  0  0  0  0  0  0
  184.5390  173.9840  137.6360 C   0  0  0  0  0  3  0  0  0  0  0  0
  185.6680  172.9740  137.6540 C   0  0  0  0  0  2  0  0  0  0  0  0
  2 10  1  1  0  0  0
  3 12  1  0  0  0  0
  4 28  1  6  0  0  0
  4  5  1  0  0  0  0
  4  2  1  0  0  0  0
  6 16  1  0  0  0  0
  7 30  1  6  0  0  0
  7  9  1  0  0  0  0
  8  5  1  6  0  0  0
  8 26  1  0  0  0  0
  8  3  1  0  0  0  0
  9 15  1  0  0  0  0
 10  3  1  0  0  0  0
 12 27  2  0  0  0  0
 12  6  1  0  0  0  0
 13 20  2  0  0  0  0
 14  2  1  0  0  0  0
 14  7  1  0  0  0  0
 15 21  1  0  0  0  0
 16 11  1  0  0  0  0
 16 23  2  0  0  0  0
 17 27  1  0  0  0  0
 18  1  1  0  0  0  0
 19 14  2  0  0  0  0
 20 18  1  0  0  0  0
 21  6  2  0  0  0  0
 21 25  1  0  0  0  0
 22 11  2  0  0  0  0
 23 24  1  0  0  0  0
 24 18  2  0  0  0  0
 25 13  1  1  0  0  0
 25 23  1  0  0  0  0
 26 34  1  6  0  0  0
 26 17  1  0  0  0  0
 27 22  1  0  0  0  0
 29 28  1  0  0  0  0
 31 32  1  0  0  0  0
 32 33  1  0  0  0  0
 32 30  1  0  0  0  0
 34 39  1  0  0  0  0
 35 45  1  1  0  0  0
 35 40  1  0  0  0  0
 35 39  1  0  0  0  0
 36 37  1  0  0  0  0
 39 37  1  0  0  0  0
 39 41  1  1  0  0  0
 40 38  1  6  0  0  0
 40 36  1  0  0  0  0
 42 40  1  0  0  0  0
 42 43  2  0  0  0  0
 44 42  1  0  0  0  0
 46 45  1  0  0  0  0
 47 46  1  0  0  0  0
 47 49  1  0  0  0  0
 48 49  1  0  0  0  0
 48 50  1  0  0  0  0
 49 50  1  0  0  0  0
M  END
>  <MODEL>
1

>  <REMARK>
 VINA RESULT:      -7.4      0.000      0.000
  Name = 
  10 active torsions:
  status: ('A' for Active; 'I' for Inactive)
    1  A    between atoms: C_4  and  C_19
    2  A    between atoms: O_7  and  C_8
    3  A    between atoms: O_7  and  N_41
    4  A    between atoms: C_9  and  C_14
    5  A    between atoms: C_12  and  C_38
    6  A    between atoms: C_12  and  C_47
    7  A    between atoms: C_13  and  C_27
    8  A    between atoms: C_13  and  C_50
    9  A    between atoms: C_14  and  C_50
   10  A    between atoms: C_15  and  C_43
                            x       y       z     vdW  Elec       q    Type
                         _______ _______ _______ _____ _____    ______ ____

>  <TORSDO>
F 10

$$$$
=
 OpenBabel11032421123D

 50 57  0  0  1  0  0  0  0  0999 V2000
  185.3410  178.6750  147.2850 N   0  0  0  0  0  1  0  0  0  0  0  0
  182.8790  177.1930  138.0080 C   0  0  1  0  0  3  0  0  0  0  0  0
  185.0910  177.8400  138.8880 N   0  0  0  0  0  0  0  0  0  0  0  0
  183.4510  177.9240  136.7830 C   0  0  1  0  0  3  0  0  0  0  0  0
  184.7720  177.5070  136.5500 O   0  0  0  0  0  0  0  0  0  0  0  0
  185.4420  178.3080  141.3200 C   0  0  0  0  0  0  0  0  0  0  0  0
  181.7550  179.3440  139.0710 C   0  0  2  0  0  3  0  0  0  0  0  0
  185.5840  178.1220  137.5270 C   0  0  2  0  0  3  0  0  0  0  0  0
  182.9590  179.6220  139.9560 C   0  0  0  0  0  2  0  0  0  0  0  0
  183.9660  176.9170  139.0520 C   0  0  0  0  0  2  0  0  0  0  0  0
  187.6700  178.3700  142.2100 N   0  0  0  0  0  0  0  0  0  0  0  0
  185.9320  178.1580  140.0100 C   0  0  0  0  0  0  0  0  0  0  0  0
  183.0830  178.7570  144.2040 C   0  0  0  0  0  3  0  0  0  0  0  0
  181.7010  177.9070  138.6140 C   0  0  0  0  0  0  0  0  0  0  0  0
  182.8950  178.8300  141.1740 N   0  0  0  0  0  2  0  0  0  0  0  0
  186.3250  178.3480  142.3780 C   0  0  0  0  0  0  0  0  0  0  0  0
  187.9270  178.2440  138.4490 C   0  0  0  0  0  2  0  0  0  0  0  0
  184.9360  178.6570  145.9220 C   0  0  0  0  0  0  0  0  0  0  0  0
  180.6530  177.2940  138.7440 O   0  0  0  0  0  0  0  0  0  0  0  0
  183.6240  178.7380  145.6220 C   0  0  0  0  0  3  0  0  0  0  0  0
  184.0750  178.4360  141.8780 C   0  0  0  0  0  0  0  0  0  0  0  0
  188.1830  178.3260  140.9450 C   0  0  0  0  0  3  0  0  0  0  0  0
  185.5640  178.4210  143.6030 C   0  0  0  0  0  0  0  0  0  0  0  0
  185.9650  178.5310  144.8640 C   0  0  0  0  0  3  0  0  0  0  0  0
  184.1640  178.4540  143.2110 C   0  0  1  0  0  3  0  0  0  0  0  0
  187.0190  177.6040  137.3980 C   0  0  2  0  0  3  0  0  0  0  0  0
  187.3330  178.2150  139.8270 C   0  0  0  0  0  0  0  0  0  0  0  0
  182.5960  177.6810  135.5460 C   0  0  0  0  0  2  0  0  0  0  0  0
  183.0830  176.5930  134.8180 O   0  0  0  0  0  1  0  0  0  0  0  0
  181.7790  180.2040  137.9660 O   0  0  0  0  0  0  0  0  0  0  0  0
  180.4590  180.5360  136.1720 C   0  0  0  0  0  1  0  0  0  0  0  0
  180.4800  180.3700  137.6150 N   0  0  0  0  0  0  0  0  0  0  0  0
  180.0430  181.6340  138.1840 C   0  0  0  0  0  1  0  0  0  0  0  0
  187.5740  177.9010  136.0110 C   0  0  0  0  0  2  0  0  0  0  0  0
  188.9410  175.8420  136.0540 C   0  0  2  0  0  3  0  0  0  0  0  0
  190.7870  176.9180  136.9870 O   0  0  0  0  0  0  0  0  0  0  0  0
  189.8230  177.8240  136.8420 O   0  0  0  0  0  0  0  0  0  0  0  0
  189.7250  175.3350  138.2360 O   0  0  0  0  0  1  0  0  0  0  0  0
  188.9770  177.3300  135.8400 C   0  0  2  0  0  0  0  0  0  0  0  0
  190.1570  175.6620  136.9480 C   0  0  1  0  0  0  0  0  0  0  0  0
  189.4910  177.6680  134.5940 F   0  0  0  0  0  0  0  0  0  0  0  0
  191.1420  174.6230  136.4730 C   0  0  0  0  0  0  0  0  0  0  0  0
  190.8790  173.3970  136.5980 O   0  0  0  0  0  0  0  0  0  0  0  0
  192.3980  175.0160  135.9280 N   0  0  0  0  0  1  0  0  0  0  0  0
  188.9120  175.0510  134.7380 C   0  0  0  0  0  2  0  0  0  0  0  0
  187.8440  173.9690  134.7730 C   0  0  0  0  0  2  0  0  0  0  0  0
  186.6110  174.4670  135.5060 C   0  0  0  0  0  2  0  0  0  0  0  0
  186.5310  172.9410  137.4430 C   0  0  0  0  0  2  0  0  0  0  0  0
  185.8810  173.2920  136.1200 C   0  0  0  0  0  3  0  0  0  0  0  0
  185.2400  173.7310  137.4210 C   0  0  0  0  0  2  0  0  0  0  0  0
  2 14  1  0  0  0  0
  2 10  1  1  0  0  0
  3 10  1  0  0  0  0
  3 12  1  0  0  0  0
  4 28  1  6  0  0  0
  4  2  1  0  0  0  0
  5  4  1  0  0  0  0
  6 21  2  0  0  0  0
  6 16  1  0  0  0  0
  7 30  1  6  0  0  0
  7  9  1  0  0  0  0
  8  5  1  6  0  0  0
  8  3  1  0  0  0  0
  9 15  1  0  0  0  0
 11 16  1  0  0  0  0
 12  6  1  0  0  0  0
 13 20  2  0  0  0  0
 14 19  2  0  0  0  0
 14  7  1  0  0  0  0
 15 21  1  0  0  0  0
 16 23  2  0  0  0  0
 17 27  1  0  0  0  0
 18  1  1  0  0  0  0
 20 18  1  0  0  0  0
 21 25  1  0  0  0  0
 22 11  2  0  0  0  0
 23 24  1  0  0  0  0
 24 18  2  0  0  0  0
 25 23  1  0  0  0  0
 25 13  1  6  0  0  0
 26 34  1  6  0  0  0
 26  8  1  0  0  0  0
 26 17  1  0  0  0  0
 27 12  2  0  0  0  0
 27 22  1  0  0  0  0
 29 28  1  0  0  0  0
 31 32  1  0  0  0  0
 32 30  1  0  0  0  0
 32 33  1  0  0  0  0
 35 45  1  6  0  0  0
 35 40  1  0  0  0  0
 37 36  1  0  0  0  0
 39 41  1  6  0  0  0
 39 34  1  0  0  0  0
 39 35  1  0  0  0  0
 39 37  1  0  0  0  0
 40 36  1  0  0  0  0
 40 38  1  1  0  0  0
 42 43  2  0  0  0  0
 42 40  1  0  0  0  0
 44 42  1  0  0  0  0
 45 46  1  0  0  0  0
 46 47  1  0  0  0  0
 47 49  1  0  0  0  0
 49 50  1  0  0  0  0
 49 48  1  0  0  0  0
 50 48  1  0  0  0  0
M  END
>  <MODEL>
2

>  <REMARK>
 VINA RESULT:      -7.1      2.874      7.075
  Name = 
  10 active torsions:
  status: ('A' for Active; 'I' for Inactive)
    1  A    between atoms: C_4  and  C_19
    2  A    between atoms: O_7  and  C_8
    3  A    between atoms: O_7  and  N_41
    4  A    between atoms: C_9  and  C_14
    5  A    between atoms: C_12  and  C_38
    6  A    between atoms: C_12  and  C_47
    7  A    between atoms: C_13  and  C_27
    8  A    between atoms: C_13  and  C_50
    9  A    between atoms: C_14  and  C_50
   10  A    between atoms: C_15  and  C_43
                            x       y       z     vdW  Elec       q    Type
                         _______ _______ _______ _____ _____    ______ ____

>  <TORSDO>
F 10

$$$$
=
 OpenBabel11032421123D

 50 57  0  0  1  0  0  0  0  0999 V2000
  191.1530  176.6760  147.7120 N   0  0  0  0  0  1  0  0  0  0  0  0
  188.7950  178.6400  138.4980 C   0  0  1  0  0  3  0  0  0  0  0  0
  187.2630  178.3550  140.4100 N   0  0  0  0  0  0  0  0  0  0  0  0
  187.5300  178.1760  137.7590 C   0  0  1  0  0  3  0  0  0  0  0  0
  186.4100  178.8710  138.2450 O   0  0  0  0  0  0  0  0  0  0  0  0
  188.1070  177.7030  142.6730 C   0  0  0  0  0  0  0  0  0  0  0  0
  189.7830  176.2060  138.8410 C   0  0  2  0  0  3  0  0  0  0  0  0
  186.0960  178.3270  139.5100 C   0  0  2  0  0  3  0  0  0  0  0  0
  189.1730  176.0780  140.2280 C   0  0  0  0  0  2  0  0  0  0  0  0
  188.4900  179.0110  139.9520 C   0  0  0  0  0  2  0  0  0  0  0  0
  186.7000  177.9900  144.5950 N   0  0  0  0  0  0  0  0  0  0  0  0
  187.0660  178.0910  141.8090 C   0  0  0  0  0  0  0  0  0  0  0  0
  191.4350  176.4820  143.9060 C   0  0  0  0  0  3  0  0  0  0  0  0
  189.9210  177.6440  138.4080 C   0  0  0  0  0  0  0  0  0  0  0  0
  190.0270  176.7030  141.2250 N   0  0  0  0  0  2  0  0  0  0  0  0
  187.9060  177.7250  144.0360 C   0  0  0  0  0  0  0  0  0  0  0  0
  184.5960  178.5740  141.5200 C   0  0  0  0  0  2  0  0  0  0  0  0
  190.7980  176.7610  146.3380 C   0  0  0  0  0  0  0  0  0  0  0  0
  190.9940  178.0180  137.9650 O   0  0  0  0  0  0  0  0  0  0  0  0
  191.7150  176.4540  145.3980 C   0  0  0  0  0  3  0  0  0  0  0  0
  189.4980  177.2460  142.4370 C   0  0  0  0  0  0  0  0  0  0  0  0
  185.6390  178.2730  143.7840 C   0  0  0  0  0  3  0  0  0  0  0  0
  189.1470  177.3680  144.6850 C   0  0  0  0  0  0  0  0  0  0  0  0
  189.4330  177.2040  145.9710 C   0  0  0  0  0  3  0  0  0  0  0  0
  190.1000  177.1010  143.6210 C   0  0  1  0  0  3  0  0  0  0  0  0
  184.9570  179.1310  140.1420 C   0  0  2  0  0  3  0  0  0  0  0  0
  185.7980  178.3330  142.3850 C   0  0  0  0  0  0  0  0  0  0  0  0
  187.6630  178.3780  136.2550 C   0  0  0  0  0  2  0  0  0  0  0  0
  186.9680  177.3830  135.5630 O   0  0  0  0  0  1  0  0  0  0  0  0
  189.0030  175.4940  137.9210 O   0  0  0  0  0  0  0  0  0  0  0  0
  189.0140  174.5960  135.8570 C   0  0  0  0  0  1  0  0  0  0  0  0
  189.8100  175.2940  136.8500 N   0  0  0  0  0  0  0  0  0  0  0  0
  190.8550  174.3740  137.2670 C   0  0  0  0  0  1  0  0  0  0  0  0
  183.7220  179.1040  139.2530 C   0  0  0  0  0  2  0  0  0  0  0  0
  181.9220  177.6860  138.3260 C   0  0  2  0  0  3  0  0  0  0  0  0
  182.3000  175.9640  139.8510 O   0  0  0  0  0  0  0  0  0  0  0  0
  183.1670  176.9360  140.1190 O   0  0  0  0  0  0  0  0  0  0  0  0
  180.3200  177.0860  139.9700 O   0  0  0  0  0  1  0  0  0  0  0  0
  183.2970  177.6750  138.9350 C   0  0  2  0  0  0  0  0  0  0  0  0
  181.2690  176.5490  139.0960 C   0  0  1  0  0  0  0  0  0  0  0  0
  184.2310  177.0620  138.1090 F   0  0  0  0  0  0  0  0  0  0  0  0
  180.6170  175.4960  138.2360 C   0  0  0  0  0  0  0  0  0  0  0  0
  179.4140  175.6220  137.8840 O   0  0  0  0  0  0  0  0  0  0  0  0
  181.3370  174.3260  137.8590 N   0  0  0  0  0  1  0  0  0  0  0  0
  181.9470  177.5730  136.7940 C   0  0  0  0  0  2  0  0  0  0  0  0
  181.3020  178.7870  136.1450 C   0  0  0  0  0  2  0  0  0  0  0  0
  180.6010  179.6360  137.1920 C   0  0  0  0  0  2  0  0  0  0  0  0
  179.9660  181.9460  137.7800 C   0  0  0  0  0  2  0  0  0  0  0  0
  180.8910  181.0990  136.9300 C   0  0  0  0  0  3  0  0  0  0  0  0
  181.4050  181.7380  138.2040 C   0  0  0  0  0  2  0  0  0  0  0  0
  2 10  1  1  0  0  0
  3 12  1  0  0  0  0
  4 28  1  6  0  0  0
  4  5  1  0  0  0  0
  4  2  1  0  0  0  0
  6 16  1  0  0  0  0
  7 30  1  6  0  0  0
  7  9  1  0  0  0  0
  8  5  1  6  0  0  0
  8 26  1  0  0  0  0
  8  3  1  0  0  0  0
  9 15  1  0  0  0  0
 10  3  1  0  0  0  0
 12 27  2  0  0  0  0
 12  6  1  0  0  0  0
 13 20  2  0  0  0  0
 14  2  1  0  0  0  0
 14  7  1  0  0  0  0
 15 21  1  0  0  0  0
 16 11  1  0  0  0  0
 16 23  2  0  0  0  0
 17 27  1  0  0  0  0
 18  1  1  0  0  0  0
 19 14  2  0  0  0  0
 20 18  1  0  0  0  0
 21  6  2  0  0  0  0
 21 25  1  0  0  0  0
 22 11  2  0  0  0  0
 23 24  1  0  0  0  0
 24 18  2  0  0  0  0
 25 13  1  1  0  0  0
 25 23  1  0  0  0  0
 26 34  1  6  0  0  0
 26 17  1  0  0  0  0
 27 22  1  0  0  0  0
 29 28  1  0  0  0  0
 31 32  1  0  0  0  0
 32 33  1  0  0  0  0
 32 30  1  0  0  0  0
 35 45  1  6  0  0  0
 35 39  1  0  0  0  0
 35 40  1  0  0  0  0
 36 37  1  0  0  0  0
 39 41  1  6  0  0  0
 39 34  1  0  0  0  0
 39 37  1  0  0  0  0
 40 36  1  0  0  0  0
 40 38  1  1  0  0  0
 42 40  1  0  0  0  0
 43 42  2  0  0  0  0
 44 42  1  0  0  0  0
 46 45  1  0  0  0  0
 46 47  1  0  0  0  0
 48 50  1  0  0  0  0
 49 47  1  0  0  0  0
 49 48  1  0  0  0  0
 49 50  1  0  0  0  0
M  END
>  <MODEL>
3

>  <REMARK>
 VINA RESULT:      -6.8      1.628      2.728
  Name = 
  10 active torsions:
  status: ('A' for Active; 'I' for Inactive)
    1  A    between atoms: C_4  and  C_19
    2  A    between atoms: O_7  and  C_8
    3  A    between atoms: O_7  and  N_41
    4  A    between atoms: C_9  and  C_14
    5  A    between atoms: C_12  and  C_38
    6  A    between atoms: C_12  and  C_47
    7  A    between atoms: C_13  and  C_27
    8  A    between atoms: C_13  and  C_50
    9  A    between atoms: C_14  and  C_50
   10  A    between atoms: C_15  and  C_43
                            x       y       z     vdW  Elec       q    Type
                         _______ _______ _______ _____ _____    ______ ____

>  <TORSDO>
F 10

$$$$
=
 OpenBabel11032421123D

 50 57  0  0  1  0  0  0  0  0999 V2000
  186.8330  178.3310  148.0400 N   0  0  0  0  0  1  0  0  0  0  0  0
  182.5080  177.2790  139.4090 C   0  0  1  0  0  3  0  0  0  0  0  0
  184.8550  177.8990  139.8440 N   0  0  0  0  0  0  0  0  0  0  0  0
  182.8160  178.0720  138.1290 C   0  0  1  0  0  3  0  0  0  0  0  0
  184.0600  177.6760  137.6090 O   0  0  0  0  0  0  0  0  0  0  0  0
  185.7010  178.2530  142.1720 C   0  0  0  0  0  0  0  0  0  0  0  0
  181.6320  179.3670  140.7840 C   0  0  2  0  0  3  0  0  0  0  0  0
  185.0580  178.2500  138.4270 C   0  0  2  0  0  3  0  0  0  0  0  0
  182.9940  179.6120  141.4140 C   0  0  0  0  0  2  0  0  0  0  0  0
  183.7850  176.9610  140.1920 C   0  0  0  0  0  2  0  0  0  0  0  0
  188.0650  178.2880  142.5850 N   0  0  0  0  0  0  0  0  0  0  0  0
  185.9100  178.1690  140.7830 C   0  0  0  0  0  0  0  0  0  0  0  0
  183.9880  178.5440  145.4990 C   0  0  0  0  0  3  0  0  0  0  0  0
  181.4810  177.9540  140.2790 C   0  0  0  0  0  0  0  0  0  0  0  0
  183.1800  178.7620  142.5790 N   0  0  0  0  0  2  0  0  0  0  0  0
  186.7840  178.2480  143.0260 C   0  0  0  0  0  0  0  0  0  0  0  0
  187.5410  178.3450  138.8510 C   0  0  0  0  0  2  0  0  0  0  0  0
  186.1550  178.3750  146.7910 C   0  0  0  0  0  0  0  0  0  0  0  0
  180.4820  177.3280  140.5910 O   0  0  0  0  0  0  0  0  0  0  0  0
  184.8100  178.4610  146.7720 C   0  0  0  0  0  3  0  0  0  0  0  0
  184.4790  178.3430  143.0060 C   0  0  0  0  0  0  0  0  0  0  0  0
  188.3060  178.3080  141.2420 C   0  0  0  0  0  3  0  0  0  0  0  0
  186.2910  178.2570  144.3840 C   0  0  0  0  0  0  0  0  0  0  0  0
  186.9440  178.3090  145.5390 C   0  0  0  0  0  3  0  0  0  0  0  0
  184.8410  178.2980  144.2910 C   0  0  1  0  0  3  0  0  0  0  0  0
  186.4340  177.7500  137.9790 C   0  0  2  0  0  3  0  0  0  0  0  0
  187.2430  178.2460  140.3190 C   0  0  0  0  0  0  0  0  0  0  0  0
  181.7240  177.8820  137.0840 C   0  0  0  0  0  2  0  0  0  0  0  0
  181.2380  176.5740  137.1140 O   0  0  0  0  0  1  0  0  0  0  0  0
  181.4310  180.2800  139.7400 O   0  0  0  0  0  0  0  0  0  0  0  0
  179.8570  181.0970  138.3530 C   0  0  0  0  0  1  0  0  0  0  0  0
  180.0870  180.3250  139.5610 N   0  0  0  0  0  0  0  0  0  0  0  0
  179.5350  181.0980  140.6600 C   0  0  0  0  0  1  0  0  0  0  0  0
  186.6920  178.1170  136.5250 C   0  0  0  0  0  2  0  0  0  0  0  0
  187.9120  175.9790  136.7570 C   0  0  2  0  0  3  0  0  0  0  0  0
  189.8880  176.8490  135.8780 O   0  0  0  0  0  0  0  0  0  0  0  0
  188.9870  177.8280  135.8880 O   0  0  0  0  0  0  0  0  0  0  0  0
  189.8780  176.2110  138.0660 O   0  0  0  0  0  1  0  0  0  0  0  0
  187.7340  177.2000  135.8960 C   0  0  2  0  0  0  0  0  0  0  0  0
  189.4280  175.8790  136.7850 C   0  0  1  0  0  0  0  0  0  0  0  0
  187.3740  176.8740  134.5940 F   0  0  0  0  0  0  0  0  0  0  0  0
  189.9780  174.5290  136.3960 C   0  0  0  0  0  0  0  0  0  0  0  0
  190.1220  173.6290  137.2660 O   0  0  0  0  0  0  0  0  0  0  0  0
  190.3910  174.2780  135.0560 N   0  0  0  0  0  1  0  0  0  0  0  0
  187.1350  174.7620  136.2340 C   0  0  0  0  0  2  0  0  0  0  0  0
  186.0850  174.3100  137.2360 C   0  0  0  0  0  2  0  0  0  0  0  0
  184.7470  174.1120  136.5470 C   0  0  0  0  0  2  0  0  0  0  0  0
  182.5490  173.0020  136.7030 C   0  0  0  0  0  2  0  0  0  0  0  0
  183.8230  173.3300  137.4550 C   0  0  0  0  0  3  0  0  0  0  0  0
  183.6170  171.9440  136.8780 C   0  0  0  0  0  2  0  0  0  0  0  0
  2 10  1  1  0  0  0
  2 14  1  0  0  0  0
  3 10  1  0  0  0  0
  3 12  1  0  0  0  0
  4 28  1  6  0  0  0
  4  2  1  0  0  0  0
  5  4  1  0  0  0  0
  6 21  2  0  0  0  0
  6 16  1  0  0  0  0
  7 30  1  6  0  0  0
  7  9  1  0  0  0  0
  8  5  1  6  0  0  0
  8  3  1  0  0  0  0
  9 15  1  0  0  0  0
 11 16  1  0  0  0  0
 12  6  1  0  0  0  0
 13 20  2  0  0  0  0
 14 19  2  0  0  0  0
 14  7  1  0  0  0  0
 15 21  1  0  0  0  0
 16 23  2  0  0  0  0
 17 27  1  0  0  0  0
 18  1  1  0  0  0  0
 20 18  1  0  0  0  0
 21 25  1  0  0  0  0
 22 11  2  0  0  0  0
 23 24  1  0  0  0  0
 24 18  2  0  0  0  0
 25 23  1  0  0  0  0
 25 13  1  1  0  0  0
 26 34  1  6  0  0  0
 26  8  1  0  0  0  0
 26 17  1  0  0  0  0
 27 12  2  0  0  0  0
 27 22  1  0  0  0  0
 28 29  1  0  0  0  0
 31 32  1  0  0  0  0
 32 30  1  0  0  0  0
 32 33  1  0  0  0  0
 35 45  1  6  0  0  0
 35 40  1  0  0  0  0
 36 37  1  0  0  0  0
 36 40  1  0  0  0  0
 37 39  1  0  0  0  0
 39 41  1  6  0  0  0
 39 34  1  0  0  0  0
 39 35  1  0  0  0  0
 40 38  1  1  0  0  0
 42 40  1  0  0  0  0
 42 43  2  0  0  0  0
 44 42  1  0  0  0  0
 45 46  1  0  0  0  0
 47 46  1  0  0  0  0
 47 49  1  0  0  0  0
 48 50  1  0  0  0  0
 48 49  1  0  0  0  0
 50 49  1  0  0  0  0
M  END
>  <MODEL>
4

>  <REMARK>
 VINA RESULT:      -6.7      2.569      6.718
  Name = 
  10 active torsions:
  status: ('A' for Active; 'I' for Inactive)
    1  A    between atoms: C_4  and  C_19
    2  A    between atoms: O_7  and  C_8
    3  A    between atoms: O_7  and  N_41
    4  A    between atoms: C_9  and  C_14
    5  A    between atoms: C_12  and  C_38
    6  A    between atoms: C_12  and  C_47
    7  A    between atoms: C_13  and  C_27
    8  A    between atoms: C_13  and  C_50
    9  A    between atoms: C_14  and  C_50
   10  A    between atoms: C_15  and  C_43
                            x       y       z     vdW  Elec       q    Type
                         _______ _______ _______ _____ _____    ______ ____

>  <TORSDO>
F 10

$$$$
=
 OpenBabel11032421123D

 50 57  0  0  1  0  0  0  0  0999 V2000
  191.0280  177.0600  147.9180 N   0  0  0  0  0  1  0  0  0  0  0  0
  188.7040  178.6430  138.6220 C   0  0  1  0  0  3  0  0  0  0  0  0
  187.1630  178.2530  140.5070 N   0  0  0  0  0  0  0  0  0  0  0  0
  187.5030  178.0540  137.8670 C   0  0  1  0  0  3  0  0  0  0  0  0
  186.3140  178.6530  138.3170 O   0  0  0  0  0  0  0  0  0  0  0  0
  188.0130  177.7200  142.7990 C   0  0  0  0  0  0  0  0  0  0  0  0
  189.9000  176.3150  139.0320 C   0  0  2  0  0  3  0  0  0  0  0  0
  186.0230  178.1040  139.5850 C   0  0  2  0  0  3  0  0  0  0  0  0
  189.2740  176.1560  140.4080 C   0  0  0  0  0  2  0  0  0  0  0  0
  188.3350  179.0100  140.0620 C   0  0  0  0  0  2  0  0  0  0  0  0
  186.5440  177.9120  144.6860 N   0  0  0  0  0  0  0  0  0  0  0  0
  186.9600  177.9970  141.9070 C   0  0  0  0  0  0  0  0  0  0  0  0
  191.4090  176.8270  144.1230 C   0  0  0  0  0  3  0  0  0  0  0  0
  189.9170  177.7520  138.5740 C   0  0  0  0  0  0  0  0  0  0  0  0
  190.0460  176.8740  141.4100 N   0  0  0  0  0  2  0  0  0  0  0  0
  187.7800  177.7470  144.1580 C   0  0  0  0  0  0  0  0  0  0  0  0
  184.4630  178.2490  141.5590 C   0  0  0  0  0  2  0  0  0  0  0  0
  190.6970  177.0890  146.5350 C   0  0  0  0  0  0  0  0  0  0  0  0
  190.9620  178.2140  138.1450 O   0  0  0  0  0  0  0  0  0  0  0  0
  191.6570  176.8500  145.6210 C   0  0  0  0  0  3  0  0  0  0  0  0
  189.4430  177.3870  142.6000 C   0  0  0  0  0  0  0  0  0  0  0  0
  185.4790  178.0830  143.8490 C   0  0  0  0  0  3  0  0  0  0  0  0
  189.0340  177.5160  144.8380 C   0  0  0  0  0  0  0  0  0  0  0  0
  189.3050  177.4000  146.1330 C   0  0  0  0  0  3  0  0  0  0  0  0
  190.0300  177.3170  143.7980 C   0  0  1  0  0  3  0  0  0  0  0  0
  184.8020  178.8130  140.1790 C   0  0  2  0  0  3  0  0  0  0  0  0
  185.6630  178.1330  142.4530 C   0  0  0  0  0  0  0  0  0  0  0  0
  187.6490  178.2410  136.3620 C   0  0  0  0  0  2  0  0  0  0  0  0
  186.4890  177.8330  135.7010 O   0  0  0  0  0  1  0  0  0  0  0  0
  189.2080  175.5190  138.1100 O   0  0  0  0  0  0  0  0  0  0  0  0
  190.1810  175.5060  136.0800 C   0  0  0  0  0  1  0  0  0  0  0  0
  190.1700  174.8870  137.3930 N   0  0  0  0  0  0  0  0  0  0  0  0
  189.7280  173.5160  137.2020 C   0  0  0  0  0  1  0  0  0  0  0  0
  183.5950  178.6580  139.2650 C   0  0  0  0  0  2  0  0  0  0  0  0
  181.3820  179.5630  138.6340 C   0  0  2  0  0  3  0  0  0  0  0  0
  182.1920  181.7310  138.3550 O   0  0  0  0  0  0  0  0  0  0  0  0
  183.2170  180.9620  138.7110 O   0  0  0  0  0  0  0  0  0  0  0  0
  181.4250  180.6280  136.5140 O   0  0  0  0  0  1  0  0  0  0  0  0
  182.6600  179.8570  139.3710 C   0  0  2  0  0  0  0  0  0  0  0  0
  181.1950  180.8650  137.8720 C   0  0  1  0  0  0  0  0  0  0  0  0
  182.4330  180.1820  140.7030 F   0  0  0  0  0  0  0  0  0  0  0  0
  179.8440  181.5100  138.0460 C   0  0  0  0  0  0  0  0  0  0  0  0
  178.9740  181.4130  137.1390 O   0  0  0  0  0  0  0  0  0  0  0  0
  179.5560  182.2780  139.2100 N   0  0  0  0  0  1  0  0  0  0  0  0
  180.2440  179.1240  139.5660 C   0  0  0  0  0  2  0  0  0  0  0  0
  179.7840  177.7120  139.2420 C   0  0  0  0  0  2  0  0  0  0  0  0
  180.5610  177.1610  138.0590 C   0  0  0  0  0  2  0  0  0  0  0  0
  181.4880  175.1190  137.0310 C   0  0  0  0  0  2  0  0  0  0  0  0
  180.8060  175.6810  138.2620 C   0  0  0  0  0  3  0  0  0  0  0  0
  182.2980  175.4220  138.2730 C   0  0  0  0  0  2  0  0  0  0  0  0
  2 10  1  1  0  0  0
  3 12  1  0  0  0  0
  4 28  1  6  0  0  0
  4  5  1  0  0  0  0
  4  2  1  0  0  0  0
  6 16  1  0  0  0  0
  7 30  1  6  0  0  0
  7  9  1  0  0  0  0
  8  5  1  6  0  0  0
  8 26  1  0  0  0  0
  8  3  1  0  0  0  0
  9 15  1  0  0  0  0
 10  3  1  0  0  0  0
 12 27  2  0  0  0  0
 12  6  1  0  0  0  0
 13 20  2  0  0  0  0
 14  2  1  0  0  0  0
 14  7  1  0  0  0  0
 15 21  1  0  0  0  0
 16 11  1  0  0  0  0
 16 23  2  0  0  0  0
 17 27  1  0  0  0  0
 18  1  1  0  0  0  0
 19 14  2  0  0  0  0
 20 18  1  0  0  0  0
 21  6  2  0  0  0  0
 21 25  1  0  0  0  0
 22 11  2  0  0  0  0
 23 24  1  0  0  0  0
 24 18  2  0  0  0  0
 25 13  1  1  0  0  0
 25 23  1  0  0  0  0
 26 34  1  6  0  0  0
 26 17  1  0  0  0  0
 27 22  1  0  0  0  0
 29 28  1  0  0  0  0
 31 32  1  0  0  0  0
 32 30  1  0  0  0  0
 33 32  1  0  0  0  0
 34 39  1  0  0  0  0
 35 39  1  0  0  0  0
 35 45  1  1  0  0  0
 36 37  1  0  0  0  0
 37 39  1  0  0  0  0
 39 41  1  1  0  0  0
 40 38  1  6  0  0  0
 40 42  1  0  0  0  0
 40 36  1  0  0  0  0
 40 35  1  0  0  0  0
 42 44  1  0  0  0  0
 43 42  2  0  0  0  0
 46 45  1  0  0  0  0
 47 49  1  0  0  0  0
 47 46  1  0  0  0  0
 48 49  1  0  0  0  0
 48 50  1  0  0  0  0
 49 50  1  0  0  0  0
M  END
>  <MODEL>
5

>  <REMARK>
 VINA RESULT:      -6.2      2.223      2.752
  Name = 
  10 active torsions:
  status: ('A' for Active; 'I' for Inactive)
    1  A    between atoms: C_4  and  C_19
    2  A    between atoms: O_7  and  C_8
    3  A    between atoms: O_7  and  N_41
    4  A    between atoms: C_9  and  C_14
    5  A    between atoms: C_12  and  C_38
    6  A    between atoms: C_12  and  C_47
    7  A    between atoms: C_13  and  C_27
    8  A    between atoms: C_13  and  C_50
    9  A    between atoms: C_14  and  C_50
   10  A    between atoms: C_15  and  C_43
                            x       y       z     vdW  Elec       q    Type
                         _______ _______ _______ _____ _____    ______ ____

>  <TORSDO>
F 10

$$$$
=
 OpenBabel11032421123D

 50 57  0  0  1  0  0  0  0  0999 V2000
  180.5520  179.4130  143.7080 N   0  0  0  0  0  1  0  0  0  0  0  0
  190.0990  178.6950  142.0760 C   0  0  1  0  0  3  0  0  0  0  0  0
  188.2660  178.1410  140.5220 N   0  0  0  0  0  0  0  0  0  0  0  0
  190.8000  177.6450  141.2010 C   0  0  1  0  0  3  0  0  0  0  0  0
  190.5380  177.9010  139.8440 O   0  0  0  0  0  0  0  0  0  0  0  0
  185.8700  178.2720  141.2290 C   0  0  0  0  0  0  0  0  0  0  0  0
  189.1970  176.9580  143.8620 C   0  0  2  0  0  3  0  0  0  0  0  0
  189.2090  177.4960  139.5900 C   0  0  2  0  0  3  0  0  0  0  0  0
  187.8530  176.8290  143.1620 C   0  0  0  0  0  2  0  0  0  0  0  0
  188.7750  179.1490  141.4540 C   0  0  0  0  0  2  0  0  0  0  0  0
  184.1380  178.2850  139.5680 N   0  0  0  0  0  0  0  0  0  0  0  0
  186.8560  178.0570  140.2500 C   0  0  0  0  0  0  0  0  0  0  0  0
  184.2090  178.7170  144.5660 C   0  0  0  0  0  3  0  0  0  0  0  0
  189.9110  178.2360  143.4980 C   0  0  0  0  0  0  0  0  0  0  0  0
  186.9590  177.9020  143.5660 N   0  0  0  0  0  2  0  0  0  0  0  0
  184.5550  178.4380  140.8480 C   0  0  0  0  0  0  0  0  0  0  0  0
  187.3890  177.4500  137.8480 C   0  0  0  0  0  2  0  0  0  0  0  0
  181.9330  179.1180  143.5410 C   0  0  0  0  0  0  0  0  0  0  0  0
  190.3560  178.9310  144.3970 O   0  0  0  0  0  0  0  0  0  0  0  0
  182.7300  179.0530  144.6260 C   0  0  0  0  0  3  0  0  0  0  0  0
  185.9200  178.3800  142.7070 C   0  0  0  0  0  0  0  0  0  0  0  0
  185.0530  177.9770  138.6030 C   0  0  0  0  0  3  0  0  0  0  0  0
  183.7730  178.7240  142.0290 C   0  0  1  0  0  3  0  0  0  0  0  0
  182.4650  178.9060  142.1750 C   0  0  0  0  0  3  0  0  0  0  0  0
  184.6980  178.6890  143.1490 C   0  0  0  0  0  0  0  0  0  0  0  0
  188.8280  177.8670  138.1550 C   0  0  2  0  0  3  0  0  0  0  0  0
  186.4220  177.8620  138.9190 C   0  0  0  0  0  0  0  0  0  0  0  0
  192.3020  177.6290  141.4520 C   0  0  0  0  0  2  0  0  0  0  0  0
  193.0010  177.5340  140.2470 O   0  0  0  0  0  1  0  0  0  0  0  0
  189.9940  175.8500  143.5500 O   0  0  0  0  0  0  0  0  0  0  0  0
  191.9720  174.8670  143.9850 C   0  0  0  0  0  1  0  0  0  0  0  0
  191.1460  176.0340  144.2410 N   0  0  0  0  0  0  0  0  0  0  0  0
  190.8060  176.0000  145.6540 C   0  0  0  0  0  1  0  0  0  0  0  0
  189.7650  177.1970  137.1600 C   0  0  0  0  0  2  0  0  0  0  0  0
  190.0090  175.1130  135.8520 C   0  0  2  0  0  3  0  0  0  0  0  0
  188.1340  174.1210  136.8190 O   0  0  0  0  0  0  0  0  0  0  0  0
  188.2670  175.3330  137.3500 O   0  0  0  0  0  0  0  0  0  0  0  0
  188.0600  174.6140  134.5950 O   0  0  0  0  0  1  0  0  0  0  0  0
  189.6150  175.6810  137.1890 C   0  0  2  0  0  0  0  0  0  0  0  0
  188.8730  174.1300  135.6230 C   0  0  1  0  0  0  0  0  0  0  0  0
  190.3590  175.1370  138.2290 F   0  0  0  0  0  0  0  0  0  0  0  0
  189.3110  172.7250  135.2940 C   0  0  0  0  0  0  0  0  0  0  0  0
  190.3410  172.5300  134.5940 O   0  0  0  0  0  0  0  0  0  0  0  0
  188.5370  171.6090  135.7250 N   0  0  0  0  0  1  0  0  0  0  0  0
  191.4390  174.5520  135.8410 C   0  0  0  0  0  2  0  0  0  0  0  0
  192.4640  175.6650  135.6990 C   0  0  0  0  0  2  0  0  0  0  0  0
  193.4160  175.6610  136.8820 C   0  0  0  0  0  2  0  0  0  0  0  0
  195.5330  174.7260  137.7370 C   0  0  0  0  0  2  0  0  0  0  0  0
  194.6970  174.9530  136.4940 C   0  0  0  0  0  3  0  0  0  0  0  0
  194.7280  173.5880  137.1500 C   0  0  0  0  0  2  0  0  0  0  0  0
  2 10  1  6  0  0  0
  2 14  1  0  0  0  0
  3 10  1  0  0  0  0
  4 28  1  6  0  0  0
  4  2  1  0  0  0  0
  5  4  1  0  0  0  0
  6 21  1  0  0  0  0
  7 30  1  6  0  0  0
  8  5  1  1  0  0  0
  8  3  1  0  0  0  0
  9 15  1  0  0  0  0
  9  7  1  0  0  0  0
 11 16  1  0  0  0  0
 12  3  1  0  0  0  0
 12  6  1  0  0  0  0
 13 20  2  0  0  0  0
 14  7  1  0  0  0  0
 14 19  2  0  0  0  0
 16  6  2  0  0  0  0
 16 23  1  0  0  0  0
 17 26  1  0  0  0  0
 17 27  1  0  0  0  0
 18  1  1  0  0  0  0
 18 20  1  0  0  0  0
 21 25  2  0  0  0  0
 21 15  1  0  0  0  0
 22 27  1  0  0  0  0
 22 11  2  0  0  0  0
 23 24  1  1  0  0  0
 23 25  1  0  0  0  0
 24 18  2  0  0  0  0
 25 13  1  0  0  0  0
 26 34  1  6  0  0  0
 26  8  1  0  0  0  0
 27 12  2  0  0  0  0
 29 28  1  0  0  0  0
 30 32  1  0  0  0  0
 31 32  1  0  0  0  0
 32 33  1  0  0  0  0
 34 39  1  0  0  0  0
 35 45  1  1  0  0  0
 35 39  1  0  0  0  0
 36 37  1  0  0  0  0
 39 37  1  0  0  0  0
 39 41  1  1  0  0  0
 40 38  1  6  0  0  0
 40 35  1  0  0  0  0
 40 36  1  0  0  0  0
 42 40  1  0  0  0  0
 42 44  1  0  0  0  0
 43 42  2  0  0  0  0
 46 45  1  0  0  0  0
 46 47  1  0  0  0  0
 49 47  1  0  0  0  0
 49 50  1  0  0  0  0
 49 48  1  0  0  0  0
 50 48  1  0  0  0  0
M  END
>  <MODEL>
6

>  <REMARK>
 VINA RESULT:      -4.9      3.557      7.262
  Name = 
  10 active torsions:
  status: ('A' for Active; 'I' for Inactive)
    1  A    between atoms: C_4  and  C_19
    2  A    between atoms: O_7  and  C_8
    3  A    between atoms: O_7  and  N_41
    4  A    between atoms: C_9  and  C_14
    5  A    between atoms: C_12  and  C_38
    6  A    between atoms: C_12  and  C_47
    7  A    between atoms: C_13  and  C_27
    8  A    between atoms: C_13  and  C_50
    9  A    between atoms: C_14  and  C_50
   10  A    between atoms: C_15  and  C_43
                            x       y       z     vdW  Elec       q    Type
                         _______ _______ _______ _____ _____    ______ ____

>  <TORSDO>
F 10

$$$$
=
 OpenBabel11032421123D

 50 57  0  0  1  0  0  0  0  0999 V2000
  188.4450  177.5740  148.9700 N   0  0  0  0  0  1  0  0  0  0  0  0
  189.2010  178.7190  139.3550 C   0  0  1  0  0  3  0  0  0  0  0  0
  187.1360  178.4310  140.6730 N   0  0  0  0  0  0  0  0  0  0  0  0
  188.2860  178.1010  138.2870 C   0  0  1  0  0  3  0  0  0  0  0  0
  187.0290  178.7290  138.3120 O   0  0  0  0  0  0  0  0  0  0  0  0
  187.2090  178.0040  143.1370 C   0  0  0  0  0  0  0  0  0  0  0  0
  190.1560  176.4060  140.2240 C   0  0  2  0  0  3  0  0  0  0  0  0
  186.3420  178.2440  139.4460 C   0  0  2  0  0  3  0  0  0  0  0  0
  189.1260  176.3180  141.3380 C   0  0  0  0  0  2  0  0  0  0  0  0
  188.4050  179.1580  140.5880 C   0  0  0  0  0  2  0  0  0  0  0  0
  185.2250  178.2960  144.4540 N   0  0  0  0  0  0  0  0  0  0  0  0
  186.4980  178.2440  141.9480 C   0  0  0  0  0  0  0  0  0  0  0  0
  189.9960  177.1550  145.5040 C   0  0  0  0  0  3  0  0  0  0  0  0
  190.3480  177.8190  139.7320 C   0  0  0  0  0  0  0  0  0  0  0  0
  189.5590  177.0780  142.5000 N   0  0  0  0  0  2  0  0  0  0  0  0
  186.5620  178.0990  144.3510 C   0  0  0  0  0  0  0  0  0  0  0  0
  184.2430  178.4950  140.8190 C   0  0  0  0  0  2  0  0  0  0  0  0
  188.5660  177.5390  147.5530 C   0  0  0  0  0  0  0  0  0  0  0  0
  191.4840  178.2530  139.6350 O   0  0  0  0  0  0  0  0  0  0  0  0
  189.7610  177.2490  147.0010 C   0  0  0  0  0  3  0  0  0  0  0  0
  188.6220  177.6530  143.4150 C   0  0  0  0  0  0  0  0  0  0  0  0
  184.4830  178.4340  143.3170 C   0  0  0  0  0  3  0  0  0  0  0  0
  187.5320  177.8930  145.4010 C   0  0  0  0  0  0  0  0  0  0  0  0
  187.3790  177.8380  146.7190 C   0  0  0  0  0  3  0  0  0  0  0  0
  188.8000  177.6370  144.7390 C   0  0  1  0  0  3  0  0  0  0  0  0
  185.0120  178.9890  139.5920 C   0  0  2  0  0  3  0  0  0  0  0  0
  185.0980  178.4150  142.0490 C   0  0  0  0  0  0  0  0  0  0  0  0
  188.9030  178.2140  136.8990 C   0  0  0  0  0  2  0  0  0  0  0  0
  188.1640  179.0910  136.1020 O   0  0  0  0  0  1  0  0  0  0  0  0
  189.7740  175.5700  139.1670 O   0  0  0  0  0  0  0  0  0  0  0  0
  190.2650  174.9980  137.0460 C   0  0  0  0  0  1  0  0  0  0  0  0
  190.6590  175.8260  138.1720 N   0  0  0  0  0  0  0  0  0  0  0  0
  191.9530  175.3360  138.6160 C   0  0  0  0  0  1  0  0  0  0  0  0
  184.1500  178.7970  138.3520 C   0  0  0  0  0  2  0  0  0  0  0  0
  182.0300  177.6080  137.9010 C   0  0  2  0  0  3  0  0  0  0  0  0
  180.7360  179.5330  138.1410 O   0  0  0  0  0  0  0  0  0  0  0  0
  182.0080  179.8760  138.3310 O   0  0  0  0  0  0  0  0  0  0  0  0
  180.8410  178.5610  136.0820 O   0  0  0  0  0  1  0  0  0  0  0  0
  182.6720  178.7020  138.7110 C   0  0  2  0  0  0  0  0  0  0  0  0
  180.7560  178.3070  137.4530 C   0  0  1  0  0  0  0  0  0  0  0  0
  182.5150  178.5040  140.0770 F   0  0  0  0  0  0  0  0  0  0  0  0
  179.4860  177.5490  137.7440 C   0  0  0  0  0  0  0  0  0  0  0  0
  178.9310  177.6520  138.8710 O   0  0  0  0  0  0  0  0  0  0  0  0
  178.9310  176.6700  136.7700 N   0  0  0  0  0  1  0  0  0  0  0  0
  181.8750  176.2980  138.6870 C   0  0  0  0  0  2  0  0  0  0  0  0
  182.8640  175.2490  138.2030 C   0  0  0  0  0  2  0  0  0  0  0  0
  183.2300  175.4980  136.7510 C   0  0  0  0  0  2  0  0  0  0  0  0
  183.0630  173.2610  135.7250 C   0  0  0  0  0  2  0  0  0  0  0  0
  184.0230  174.3220  136.2220 C   0  0  0  0  0  3  0  0  0  0  0  0
  183.7590  174.1720  134.7380 C   0  0  0  0  0  2  0  0  0  0  0  0
  2 14  1  0  0  0  0
  2 10  1  1  0  0  0
  3 12  1  0  0  0  0
  4 28  1  6  0  0  0
  4  5  1  0  0  0  0
  4  2  1  0  0  0  0
  6 21  2  0  0  0  0
  6 16  1  0  0  0  0
  7 30  1  6  0  0  0
  7  9  1  0  0  0  0
  8  5  1  6  0  0  0
  8 26  1  0  0  0  0
  8  3  1  0  0  0  0
  9 15  1  0  0  0  0
 10  3  1  0  0  0  0
 12 27  2  0  0  0  0
 12  6  1  0  0  0  0
 13 20  2  0  0  0  0
 14  7  1  0  0  0  0
 15 21  1  0  0  0  0
 16 11  1  0  0  0  0
 16 23  2  0  0  0  0
 17 27  1  0  0  0  0
 18  1  1  0  0  0  0
 19 14  2  0  0  0  0
 20 18  1  0  0  0  0
 21 25  1  0  0  0  0
 22 11  2  0  0  0  0
 23 24  1  0  0  0  0
 24 18  2  0  0  0  0
 25 23  1  0  0  0  0
 25 13  1  1  0  0  0
 26 34  1  6  0  0  0
 26 17  1  0  0  0  0
 27 22  1  0  0  0  0
 29 28  1  0  0  0  0
 31 32  1  0  0  0  0
 32 33  1  0  0  0  0
 32 30  1  0  0  0  0
 34 39  1  0  0  0  0
 35 45  1  1  0  0  0
 35 39  1  0  0  0  0
 36 37  1  0  0  0  0
 37 39  1  0  0  0  0
 39 41  1  1  0  0  0
 40 38  1  6  0  0  0
 40 42  1  0  0  0  0
 40 35  1  0  0  0  0
 40 36  1  0  0  0  0
 42 43  2  0  0  0  0
 44 42  1  0  0  0  0
 46 45  1  0  0  0  0
 47 46  1  0  0  0  0
 48 49  1  0  0  0  0
 49 47  1  0  0  0  0
 50 48  1  0  0  0  0
 50 49  1  0  0  0  0
M  END
>  <MODEL>
7

>  <REMARK>
 VINA RESULT:      -4.7      1.519      1.842
  Name = 
  10 active torsions:
  status: ('A' for Active; 'I' for Inactive)
    1  A    between atoms: C_4  and  C_19
    2  A    between atoms: O_7  and  C_8
    3  A    between atoms: O_7  and  N_41
    4  A    between atoms: C_9  and  C_14
    5  A    between atoms: C_12  and  C_38
    6  A    between atoms: C_12  and  C_47
    7  A    between atoms: C_13  and  C_27
    8  A    between atoms: C_13  and  C_50
    9  A    between atoms: C_14  and  C_50
   10  A    between atoms: C_15  and  C_43
                            x       y       z     vdW  Elec       q    Type
                         _______ _______ _______ _____ _____    ______ ____

>  <TORSDO>
F 10

$$$$
=
 OpenBabel11032421123D

 50 57  0  0  1  0  0  0  0  0999 V2000
  188.3430  177.9640  147.7520 N   0  0  0  0  0  1  0  0  0  0  0  0
  181.5350  177.4520  140.8450 C   0  0  1  0  0  3  0  0  0  0  0  0
  183.9300  177.9690  140.5550 N   0  0  0  0  0  0  0  0  0  0  0  0
  181.4740  178.2900  139.5590 C   0  0  1  0  0  3  0  0  0  0  0  0
  182.4780  177.8740  138.6680 O   0  0  0  0  0  0  0  0  0  0  0  0
  185.4650  178.1880  142.5180 C   0  0  0  0  0  0  0  0  0  0  0  0
  181.2230  179.5060  142.4880 C   0  0  2  0  0  3  0  0  0  0  0  0
  183.7050  178.3750  139.1560 C   0  0  2  0  0  3  0  0  0  0  0  0
  182.7230  179.6740  142.6760 C   0  0  0  0  0  2  0  0  0  0  0  0
  182.9750  177.0550  141.1860 C   0  0  0  0  0  2  0  0  0  0  0  0
  187.8400  178.1210  142.1850 N   0  0  0  0  0  0  0  0  0  0  0  0
  185.2330  178.1590  141.1310 C   0  0  0  0  0  0  0  0  0  0  0  0
  184.8700  178.3910  146.2190 C   0  0  0  0  0  3  0  0  0  0  0  0
  180.8580  178.1230  142.0100 C   0  0  0  0  0  0  0  0  0  0  0  0
  183.2170  178.7670  143.6990 N   0  0  0  0  0  2  0  0  0  0  0  0
  186.7550  178.1070  142.9970 C   0  0  0  0  0  0  0  0  0  0  0  0
  186.1990  178.3630  138.7970 C   0  0  0  0  0  2  0  0  0  0  0  0
  187.3180  178.0880  146.7740 C   0  0  0  0  0  0  0  0  0  0  0  0
  179.9740  177.5190  142.5960 O   0  0  0  0  0  0  0  0  0  0  0  0
  186.0380  178.2220  147.1740 C   0  0  0  0  0  3  0  0  0  0  0  0
  184.5620  178.2840  143.6910 C   0  0  0  0  0  0  0  0  0  0  0  0
  187.6580  178.1930  140.8330 C   0  0  0  0  0  3  0  0  0  0  0  0
  186.7040  178.0720  144.4400 C   0  0  1  0  0  3  0  0  0  0  0  0
  187.6810  178.0500  145.3390 C   0  0  0  0  0  3  0  0  0  0  0  0
  185.2990  178.1690  144.8000 C   0  0  0  0  0  0  0  0  0  0  0  0
  184.8520  177.8470  138.2910 C   0  0  2  0  0  3  0  0  0  0  0  0
  186.3620  178.2090  140.2810 C   0  0  0  0  0  0  0  0  0  0  0  0
  180.1070  178.1850  138.8950 C   0  0  0  0  0  2  0  0  0  0  0  0
  179.5560  176.9180  139.1010 O   0  0  0  0  0  1  0  0  0  0  0  0
  180.7550  180.4710  141.5870 O   0  0  0  0  0  0  0  0  0  0  0  0
  178.9320  181.7030  141.1110 C   0  0  0  0  0  1  0  0  0  0  0  0
  179.4090  180.4940  141.7570 N   0  0  0  0  0  0  0  0  0  0  0  0
  179.1620  180.6570  143.1800 C   0  0  0  0  0  1  0  0  0  0  0  0
  184.6680  178.2690  136.8400 C   0  0  0  0  0  2  0  0  0  0  0  0
  184.7080  175.8380  136.3930 C   0  0  2  0  0  3  0  0  0  0  0  0
  186.8610  175.8940  135.5020 O   0  0  0  0  0  0  0  0  0  0  0  0
  186.5430  177.1340  135.8630 O   0  0  0  0  0  0  0  0  0  0  0  0
  186.5380  174.7650  137.4550 O   0  0  0  0  0  1  0  0  0  0  0  0
  185.1420  177.1840  135.8800 C   0  0  2  0  0  0  0  0  0  0  0  0
  185.9880  175.0420  136.2010 C   0  0  1  0  0  0  0  0  0  0  0  0
  184.6730  177.4310  134.5960 F   0  0  0  0  0  0  0  0  0  0  0  0
  185.8220  173.7550  135.4320 C   0  0  0  0  0  0  0  0  0  0  0  0
  186.7830  172.9460  135.3360 O   0  0  0  0  0  0  0  0  0  0  0  0
  184.5980  173.4680  134.7630 N   0  0  0  0  0  1  0  0  0  0  0  0
  183.4430  175.3150  135.6970 C   0  0  0  0  0  2  0  0  0  0  0  0
  182.2090  176.0730  136.1610 C   0  0  0  0  0  2  0  0  0  0  0  0
  180.9680  175.2120  136.0010 C   0  0  0  0  0  2  0  0  0  0  0  0
  180.6370  173.7800  137.9820 C   0  0  0  0  0  2  0  0  0  0  0  0
  181.2270  173.8410  136.5880 C   0  0  0  0  0  3  0  0  0  0  0  0
  179.9030  173.1430  136.8220 C   0  0  0  0  0  2  0  0  0  0  0  0
  2 10  1  1  0  0  0
  2 14  1  0  0  0  0
  3 12  1  0  0  0  0
  3 10  1  0  0  0  0
  4 28  1  6  0  0  0
  4  2  1  0  0  0  0
  5  4  1  0  0  0  0
  6 16  2  0  0  0  0
  6 21  1  0  0  0  0
  7 30  1  6  0  0  0
  7  9  1  0  0  0  0
  8  5  1  6  0  0  0
  8  3  1  0  0  0  0
  9 15  1  0  0  0  0
 11 16  1  0  0  0  0
 12  6  1  0  0  0  0
 13 20  2  0  0  0  0
 14  7  1  0  0  0  0
 14 19  2  0  0  0  0
 16 23  1  0  0  0  0
 17 27  1  0  0  0  0
 18 20  1  0  0  0  0
 18  1  1  0  0  0  0
 21 15  1  0  0  0  0
 21 25  2  0  0  0  0
 22 11  2  0  0  0  0
 23 25  1  0  0  0  0
 23 24  1  1  0  0  0
 24 18  2  0  0  0  0
 25 13  1  0  0  0  0
 26 34  1  6  0  0  0
 26 17  1  0  0  0  0
 26  8  1  0  0  0  0
 27 22  1  0  0  0  0
 27 12  2  0  0  0  0
 28 29  1  0  0  0  0
 30 32  1  0  0  0  0
 31 32  1  0  0  0  0
 32 33  1  0  0  0  0
 35 45  1  6  0  0  0
 36 37  1  0  0  0  0
 36 40  1  0  0  0  0
 37 39  1  0  0  0  0
 39 41  1  6  0  0  0
 39 35  1  0  0  0  0
 39 34  1  0  0  0  0
 40 35  1  0  0  0  0
 40 38  1  1  0  0  0
 42 40  1  0  0  0  0
 43 42  2  0  0  0  0
 44 42  1  0  0  0  0
 45 46  1  0  0  0  0
 47 46  1  0  0  0  0
 47 49  1  0  0  0  0
 49 50  1  0  0  0  0
 49 48  1  0  0  0  0
 50 48  1  0  0  0  0
M  END
>  <MODEL>
8

>  <REMARK>
 VINA RESULT:      -4.5      2.836      6.524
  Name = 
  10 active torsions:
  status: ('A' for Active; 'I' for Inactive)
    1  A    between atoms: C_4  and  C_19
    2  A    between atoms: O_7  and  C_8
    3  A    between atoms: O_7  and  N_41
    4  A    between atoms: C_9  and  C_14
    5  A    between atoms: C_12  and  C_38
    6  A    between atoms: C_12  and  C_47
    7  A    between atoms: C_13  and  C_27
    8  A    between atoms: C_13  and  C_50
    9  A    between atoms: C_14  and  C_50
   10  A    between atoms: C_15  and  C_43
                            x       y       z     vdW  Elec       q    Type
                         _______ _______ _______ _____ _____    ______ ____

>  <TORSDO>
F 10

$$$$
=
 OpenBabel11032421123D

 50 57  0  0  1  0  0  0  0  0999 V2000
  187.7550  177.9330  146.5000 N   0  0  0  0  0  1  0  0  0  0  0  0
  189.1070  175.6310  137.1620 C   0  0  1  0  0  3  0  0  0  0  0  0
  190.7780  176.5180  138.7450 N   0  0  0  0  0  0  0  0  0  0  0  0
  190.0650  176.3230  136.1800 C   0  0  1  0  0  3  0  0  0  0  0  0
  191.3950  176.0020  136.5010 O   0  0  0  0  0  0  0  0  0  0  0  0
  190.1480  177.1760  141.0750 C   0  0  0  0  0  0  0  0  0  0  0  0
  187.5530  177.7470  137.5160 C   0  0  2  0  0  3  0  0  0  0  0  0
  191.7390  176.7480  137.6510 C   0  0  2  0  0  3  0  0  0  0  0  0
  188.3110  178.1840  138.7590 C   0  0  0  0  0  2  0  0  0  0  0  0
  189.7240  175.5180  138.5590 C   0  0  0  0  0  2  0  0  0  0  0  0
  191.8600  177.4830  142.7280 N   0  0  0  0  0  0  0  0  0  0  0  0
  191.1090  176.9790  140.0660 C   0  0  0  0  0  0  0  0  0  0  0  0
  186.8460  177.6200  142.8020 C   0  0  0  0  0  3  0  0  0  0  0  0
  187.7510  176.2840  137.2100 C   0  0  0  0  0  0  0  0  0  0  0  0
  187.8270  177.4730  139.9320 N   0  0  0  0  0  2  0  0  0  0  0  0
  190.5560  177.3610  142.3790 C   0  0  0  0  0  0  0  0  0  0  0  0
  193.5410  177.1260  139.3710 C   0  0  0  0  0  2  0  0  0  0  0  0
  187.9030  177.7900  145.0920 C   0  0  0  0  0  0  0  0  0  0  0  0
  186.7670  175.5960  136.9920 O   0  0  0  0  0  0  0  0  0  0  0  0
  186.8040  177.7410  144.3150 C   0  0  0  0  0  3  0  0  0  0  0  0
  188.6670  177.2270  141.0630 C   0  0  0  0  0  0  0  0  0  0  0  0
  192.8190  177.3970  141.7600 C   0  0  0  0  0  3  0  0  0  0  0  0
  189.3810  177.4520  143.2140 C   0  0  0  0  0  0  0  0  0  0  0  0
  189.2640  177.6800  144.5170 C   0  0  0  0  0  3  0  0  0  0  0  0
  188.2380  177.3420  142.3230 C   0  0  1  0  0  3  0  0  0  0  0  0
  193.1390  176.3440  138.1200 C   0  0  2  0  0  3  0  0  0  0  0  0
  192.4680  177.1410  140.4200 C   0  0  0  0  0  0  0  0  0  0  0  0
  189.7620  175.9270  134.7400 C   0  0  0  0  0  2  0  0  0  0  0  0
  189.0400  174.7320  134.7010 O   0  0  0  0  0  1  0  0  0  0  0  0
  187.9540  178.5300  136.4260 O   0  0  0  0  0  0  0  0  0  0  0  0
  185.7270  178.6290  136.7460 C   0  0  0  0  0  1  0  0  0  0  0  0
  186.8030  178.8970  135.8080 N   0  0  0  0  0  0  0  0  0  0  0  0
  186.6130  177.9920  134.6880 C   0  0  0  0  0  1  0  0  0  0  0  0
  194.1650  176.5920  137.0240 C   0  0  0  0  0  2  0  0  0  0  0  0
  196.1710  175.1840  136.6990 C   0  0  2  0  0  3  0  0  0  0  0  0
  195.4880  174.4490  134.5950 O   0  0  0  0  0  0  0  0  0  0  0  0
  194.5560  175.2810  135.0530 O   0  0  0  0  0  0  0  0  0  0  0  0
  197.3520  175.7530  134.7220 O   0  0  0  0  0  1  0  0  0  0  0  0
  194.6910  175.2820  136.4480 C   0  0  2  0  0  0  0  0  0  0  0  0
  196.6530  174.7120  135.3360 C   0  0  1  0  0  0  0  0  0  0  0  0
  193.9970  174.2020  136.9800 F   0  0  0  0  0  0  0  0  0  0  0  0
  197.5180  173.4770  135.3660 C   0  0  0  0  0  0  0  0  0  0  0  0
  198.6620  173.5180  135.8910 O   0  0  0  0  0  0  0  0  0  0  0  0
  197.0720  172.2710  134.7540 N   0  0  0  0  0  1  0  0  0  0  0  0
  196.5130  174.3020  137.9100 C   0  0  0  0  0  2  0  0  0  0  0  0
  195.4600  173.2260  138.1180 C   0  0  0  0  0  2  0  0  0  0  0  0
  196.0670  171.8480  137.9220 C   0  0  0  0  0  2  0  0  0  0  0  0
  194.2110  170.9610  136.5590 C   0  0  0  0  0  2  0  0  0  0  0  0
  194.9620  170.8140  137.8660 C   0  0  0  0  0  3  0  0  0  0  0  0
  195.2340  169.8580  136.7230 C   0  0  0  0  0  2  0  0  0  0  0  0
  2 14  1  0  0  0  0
  2 10  1  1  0  0  0
  3 12  1  0  0  0  0
  4 28  1  6  0  0  0
  4  5  1  0  0  0  0
  4  2  1  0  0  0  0
  6 16  1  0  0  0  0
  7 30  1  6  0  0  0
  7  9  1  0  0  0  0
  8  5  1  6  0  0  0
  8 26  1  0  0  0  0
  8  3  1  0  0  0  0
  9 15  1  0  0  0  0
 10  3  1  0  0  0  0
 12 27  2  0  0  0  0
 12  6  1  0  0  0  0
 13 20  2  0  0  0  0
 14  7  1  0  0  0  0
 15 21  1  0  0  0  0
 16 11  1  0  0  0  0
 16 23  2  0  0  0  0
 17 27  1  0  0  0  0
 18  1  1  0  0  0  0
 19 14  2  0  0  0  0
 20 18  1  0  0  0  0
 21  6  2  0  0  0  0
 21 25  1  0  0  0  0
 22 11  2  0  0  0  0
 23 24  1  0  0  0  0
 24 18  2  0  0  0  0
 25 13  1  6  0  0  0
 25 23  1  0  0  0  0
 26 34  1  6  0  0  0
 26 17  1  0  0  0  0
 27 22  1  0  0  0  0
 29 28  1  0  0  0  0
 32 30  1  0  0  0  0
 32 31  1  0  0  0  0
 33 32  1  0  0  0  0
 35 45  1  1  0  0  0
 36 37  1  0  0  0  0
 36 40  1  0  0  0  0
 37 39  1  0  0  0  0
 39 35  1  0  0  0  0
 39 41  1  1  0  0  0
 39 34  1  0  0  0  0
 40 38  1  6  0  0  0
 40 42  1  0  0  0  0
 40 35  1  0  0  0  0
 42 43  2  0  0  0  0
 44 42  1  0  0  0  0
 45 46  1  0  0  0  0
 47 46  1  0  0  0  0
 48 50  1  0  0  0  0
 48 49  1  0  0  0  0
 49 47  1  0  0  0  0
 50 49  1  0  0  0  0
M  END
>  <MODEL>
9

>  <REMARK>
 VINA RESULT:      -4.4      4.375      9.240
  Name = 
  10 active torsions:
  status: ('A' for Active; 'I' for Inactive)
    1  A    between atoms: C_4  and  C_19
    2  A    between atoms: O_7  and  C_8
    3  A    between atoms: O_7  and  N_41
    4  A    between atoms: C_9  and  C_14
    5  A    between atoms: C_12  and  C_38
    6  A    between atoms: C_12  and  C_47
    7  A    between atoms: C_13  and  C_27
    8  A    between atoms: C_13  and  C_50
    9  A    between atoms: C_14  and  C_50
   10  A    between atoms: C_15  and  C_43
                            x       y       z     vdW  Elec       q    Type
                         _______ _______ _______ _____ _____    ______ ____

>  <TORSDO>
F 10

$$$$
