=
 OpenBabel11042411433D

 40 45  0  0  1  0  0  0  0  0999 V2000
  184.9600  178.5910  143.1380 C   0  0  0  0  0  0  0  0  0  0  0  0
  184.2510  178.2930  145.4830 C   0  0  2  0  0  3  0  0  0  0  0  0
  186.4600  178.6800  145.1200 N   0  0  0  0  0  2  0  0  0  0  0  0
  186.1440  179.1520  146.2580 N   0  0  0  0  0  0  0  0  0  0  0  0
  185.3210  178.0200  144.4960 C   0  0  2  0  0  3  0  0  0  0  0  0
  182.8570  178.3280  145.0710 C   0  0  0  0  0  3  0  0  0  0  0  0
  182.6050  178.5130  143.8070 N   0  0  0  0  0  0  0  0  0  0  0  0
  183.6410  178.7500  142.8200 C   0  0  0  0  0  0  0  0  0  0  0  0
  184.7560  178.9550  146.5060 C   0  0  0  0  0  3  0  0  0  0  0  0
  183.7280  178.5190  138.9460 C   0  0  0  0  0  2  0  0  0  0  0  0
  183.2160  179.0950  141.4210 C   0  0  2  0  0  3  0  0  0  0  0  0
  181.0830  179.2270  139.9730 C   0  0  0  0  0  2  0  0  0  0  0  0
  182.9250  176.8060  140.5170 N   0  0  0  0  0  1  0  0  0  0  0  0
  181.7190  179.4540  141.3480 C   0  0  0  0  0  2  0  0  0  0  0  0
  183.7020  178.0350  140.4070 C   0  0  1  0  0  3  0  0  0  0  0  0
  183.2240  179.9520  138.7300 C   0  0  0  0  0  2  0  0  0  0  0  0
  181.6990  180.1020  138.8880 C   0  0  1  0  0  3  0  0  0  0  0  0
  180.6340  181.2530  136.8570 C   0  0  0  0  0  0  0  0  0  0  0  0
  179.8800  183.6130  136.7370 C   0  0  0  0  0  2  0  0  0  0  0  0
  180.1810  182.3580  137.4950 C   0  0  0  0  0  0  0  0  0  0  0  0
  180.7550  183.7380  135.4940 C   0  0  0  0  0  2  0  0  0  0  0  0
  181.5930  178.9610  136.7050 N   0  0  0  0  0  2  0  0  0  0  0  0
  180.7240  181.2570  135.3710 C   0  0  0  0  0  0  0  0  0  0  0  0
  179.7770  182.3320  138.9360 C   0  0  0  0  0  1  0  0  0  0  0  0
  180.8360  180.1060  134.7080 C   0  0  0  0  0  3  0  0  0  0  0  0
  180.8580  178.8050  135.4580 C   0  0  0  0  0  2  0  0  0  0  0  0
  180.9150  179.9240  137.5800 C   0  0  1  0  0  3  0  0  0  0  0  0
  180.5400  182.5270  134.5940 C   0  0  0  0  0  2  0  0  0  0  0  0
  188.1580  178.6110  140.1660 O   0  0  0  0  0  0  0  0  0  0  0  0
  188.2400  177.9160  141.2160 C   0  0  0  0  0  0  0  0  0  0  0  0
  186.0450  178.7700  142.1460 C   0  0  0  0  0  0  0  0  0  0  0  0
  187.1590  177.8730  142.1510 N   0  0  0  0  0  2  0  0  0  0  0  0
  186.0260  179.7490  141.3520 O   0  0  0  0  0  0  0  0  0  0  0  0
  189.4800  177.1440  141.4880 C   0  0  0  0  0  2  0  0  0  0  0  0
  191.1390  176.6330  144.6460 N   0  0  0  0  0  2  0  0  0  0  0  0
  191.5770  176.1000  143.3580 C   0  0  0  0  0  2  0  0  0  0  0  0
  190.4590  177.9810  142.1770 N   0  0  0  0  0  0  0  0  0  0  0  0
  189.9360  178.4080  143.4880 C   0  0  0  0  0  2  0  0  0  0  0  0
  191.7090  177.2300  142.3360 C   0  0  0  0  0  2  0  0  0  0  0  0
  189.8300  177.2380  144.4710 C   0  0  0  0  0  2  0  0  0  0  0  0
  2  6  1  6  0  0  0
  2  9  1  0  0  0  0
  3  4  1  0  0  0  0
  4  9  2  0  0  0  0
  5  1  1  6  0  0  0
  5  3  1  0  0  0  0
  5  2  1  0  0  0  0
  7  6  2  0  0  0  0
  8  1  2  0  0  0  0
  8  7  1  0  0  0  0
 10 15  1  0  0  0  0
 11  8  1  1  0  0  0
 12 14  1  0  0  0  0
 14 11  1  0  0  0  0
 15 13  1  6  0  0  0
 15 11  1  0  0  0  0
 16 10  1  0  0  0  0
 17 16  1  6  0  0  0
 17 12  1  0  0  0  0
 18 20  2  0  0  0  0
 18 27  1  0  0  0  0
 19 20  1  0  0  0  0
 20 24  1  0  0  0  0
 21 19  1  0  0  0  0
 23 18  1  0  0  0  0
 25 23  2  0  0  0  0
 25 26  1  0  0  0  0
 26 22  1  0  0  0  0
 27 22  1  6  0  0  0
 27 17  1  0  0  0  0
 28 23  1  0  0  0  0
 28 21  1  0  0  0  0
 29 30  2  0  0  0  0
 30 34  1  0  0  0  0
 30 32  1  0  0  0  0
 31 32  1  0  0  0  0
 31  1  1  0  0  0  0
 33 31  2  0  0  0  0
 34 37  1  0  0  0  0
 36 35  1  0  0  0  0
 37 39  1  0  0  0  0
 37 38  1  0  0  0  0
 38 40  1  0  0  0  0
 39 36  1  0  0  0  0
 40 35  1  0  0  0  0
M  END
>  <MODEL>
1

>  <REMARK>
 VINA RESULT:      -8.0      0.000      0.000
  Name = 
  5 active torsions:
  status: ('A' for Active; 'I' for Inactive)
    1  A    between atoms: C_1  and  C_20
    2  A    between atoms: N_13  and  C_29
    3  A    between atoms: C_15  and  C_34
    4  A    between atoms: C_19  and  C_29
    5  A    between atoms: C_36  and  C_39
                            x       y       z     vdW  Elec       q    Type
                         _______ _______ _______ _____ _____    ______ ____

>  <TORSDO>
F 5

$$$$
=
 OpenBabel11042411433D

 40 45  0  0  1  0  0  0  0  0999 V2000
  188.5250  176.8380  138.0230 C   0  0  0  0  0  0  0  0  0  0  0  0
  186.1970  176.9600  137.2130 C   0  0  2  0  0  3  0  0  0  0  0  0
  186.7900  178.4180  138.8510 N   0  0  0  0  0  2  0  0  0  0  0  0
  185.8860  178.9530  138.1350 N   0  0  0  0  0  0  0  0  0  0  0  0
  187.0730  177.0600  138.4030 C   0  0  2  0  0  3  0  0  0  0  0  0
  186.5200  176.0410  136.1330 C   0  0  0  0  0  3  0  0  0  0  0  0
  187.7500  175.6240  136.0430 N   0  0  0  0  0  0  0  0  0  0  0  0
  188.8090  176.0860  136.9200 C   0  0  0  0  0  0  0  0  0  0  0  0
  185.5100  178.0770  137.0780 C   0  0  0  0  0  3  0  0  0  0  0  0
  192.1480  174.2310  137.6110 C   0  0  0  0  0  2  0  0  0  0  0  0
  190.2140  175.6440  136.6210 C   0  0  2  0  0  3  0  0  0  0  0  0
  191.5760  174.4920  134.7550 C   0  0  0  0  0  2  0  0  0  0  0  0
  189.9730  173.2190  137.0700 N   0  0  0  0  0  1  0  0  0  0  0  0
  190.4520  175.4730  135.1080 C   0  0  0  0  0  2  0  0  0  0  0  0
  190.6270  174.4470  137.5060 C   0  0  1  0  0  3  0  0  0  0  0  0
  192.9990  175.2050  136.7850 C   0  0  0  0  0  2  0  0  0  0  0  0
  192.9370  174.9470  135.2670 C   0  0  1  0  0  3  0  0  0  0  0  0
  195.4340  174.3600  135.2440 C   0  0  0  0  0  0  0  0  0  0  0  0
  197.3120  175.9200  135.6800 C   0  0  0  0  0  2  0  0  0  0  0  0
  195.9150  175.6250  135.2300 C   0  0  0  0  0  0  0  0  0  0  0  0
  197.7830  174.9230  136.7330 C   0  0  0  0  0  2  0  0  0  0  0  0
  193.6780  172.6050  135.0700 N   0  0  0  0  0  2  0  0  0  0  0  0
  196.3450  173.2390  135.6060 C   0  0  0  0  0  0  0  0  0  0  0  0
  195.1630  176.7520  134.5940 C   0  0  0  0  0  1  0  0  0  0  0  0
  196.0080  171.9840  135.3060 C   0  0  0  0  0  3  0  0  0  0  0  0
  194.7160  171.7020  134.5940 C   0  0  0  0  0  2  0  0  0  0  0  0
  194.0230  173.9940  134.7500 C   0  0  1  0  0  3  0  0  0  0  0  0
  197.7100  173.5090  136.1680 C   0  0  0  0  0  2  0  0  0  0  0  0
  191.6230  177.6690  140.9860 O   0  0  0  0  0  0  0  0  0  0  0  0
  190.5380  177.1120  141.3070 C   0  0  0  0  0  0  0  0  0  0  0  0
  189.5700  177.2840  138.9740 C   0  0  0  0  0  0  0  0  0  0  0  0
  189.5570  176.7920  140.3160 N   0  0  0  0  0  2  0  0  0  0  0  0
  190.4200  178.1470  138.6250 O   0  0  0  0  0  0  0  0  0  0  0  0
  190.2710  176.7970  142.7350 C   0  0  0  0  0  2  0  0  0  0  0  0
  190.3190  177.2450  146.3100 N   0  0  0  0  0  2  0  0  0  0  0  0
  191.4940  177.1070  145.4540 C   0  0  0  0  0  2  0  0  0  0  0  0
  190.2210  178.0250  143.5240 N   0  0  0  0  0  0  0  0  0  0  0  0
  189.0310  178.0270  144.3960 C   0  0  0  0  0  2  0  0  0  0  0  0
  191.4480  178.1350  144.3230 C   0  0  0  0  0  2  0  0  0  0  0  0
  189.1350  176.9810  145.5110 C   0  0  0  0  0  2  0  0  0  0  0  0
  1 31  1  0  0  0  0
  2  6  1  6  0  0  0
  2  5  1  0  0  0  0
  4  3  1  0  0  0  0
  5  1  1  6  0  0  0
  5  3  1  0  0  0  0
  7  6  2  0  0  0  0
  7  8  1  0  0  0  0
  8  1  2  0  0  0  0
  9  2  1  0  0  0  0
  9  4  2  0  0  0  0
 11  8  1  6  0  0  0
 11 15  1  0  0  0  0
 12 14  1  0  0  0  0
 14 11  1  0  0  0  0
 15 13  1  6  0  0  0
 15 10  1  0  0  0  0
 16 10  1  0  0  0  0
 17 12  1  1  0  0  0
 17 16  1  0  0  0  0
 18 23  1  0  0  0  0
 19 21  1  0  0  0  0
 20 18  2  0  0  0  0
 20 19  1  0  0  0  0
 23 28  1  0  0  0  0
 24 20  1  0  0  0  0
 25 23  2  0  0  0  0
 26 22  1  0  0  0  0
 26 25  1  0  0  0  0
 27 22  1  1  0  0  0
 27 18  1  0  0  0  0
 27 17  1  0  0  0  0
 28 21  1  0  0  0  0
 29 30  2  0  0  0  0
 30 34  1  0  0  0  0
 31 32  1  0  0  0  0
 32 30  1  0  0  0  0
 33 31  2  0  0  0  0
 34 37  1  0  0  0  0
 36 35  1  0  0  0  0
 37 39  1  0  0  0  0
 37 38  1  0  0  0  0
 38 40  1  0  0  0  0
 39 36  1  0  0  0  0
 40 35  1  0  0  0  0
M  END
>  <MODEL>
2

>  <REMARK>
 VINA RESULT:      -8.0      5.974     10.995
  Name = 
  5 active torsions:
  status: ('A' for Active; 'I' for Inactive)
    1  A    between atoms: C_1  and  C_20
    2  A    between atoms: N_13  and  C_29
    3  A    between atoms: C_15  and  C_34
    4  A    between atoms: C_19  and  C_29
    5  A    between atoms: C_36  and  C_39
                            x       y       z     vdW  Elec       q    Type
                         _______ _______ _______ _____ _____    ______ ____

>  <TORSDO>
F 5

$$$$
=
 OpenBabel11042411433D

 40 45  0  0  1  0  0  0  0  0999 V2000
  188.7960  176.8550  137.6390 C   0  0  0  0  0  0  0  0  0  0  0  0
  190.3790  175.8750  136.0190 C   0  0  2  0  0  3  0  0  0  0  0  0
  189.0250  177.5320  135.2560 N   0  0  0  0  0  2  0  0  0  0  0  0
  190.1170  177.5640  134.6060 N   0  0  0  0  0  0  0  0  0  0  0  0
  189.0150  176.4230  136.2010 C   0  0  2  0  0  3  0  0  0  0  0  0
  191.0300  175.1410  137.0930 C   0  0  0  0  0  3  0  0  0  0  0  0
  190.5810  175.3160  138.3020 N   0  0  0  0  0  0  0  0  0  0  0  0
  189.5210  176.2500  138.6260 C   0  0  0  0  0  0  0  0  0  0  0  0
  191.0040  176.5570  135.0790 C   0  0  0  0  0  3  0  0  0  0  0  0
  190.1480  176.0700  142.4530 C   0  0  0  0  0  2  0  0  0  0  0  0
  189.1930  176.4700  140.0760 C   0  0  2  0  0  3  0  0  0  0  0  0
  188.5040  178.3650  141.6880 C   0  0  0  0  0  2  0  0  0  0  0  0
  191.3330  177.4760  140.8180 N   0  0  0  0  0  1  0  0  0  0  0  0
  188.3670  177.7530  140.2900 C   0  0  0  0  0  2  0  0  0  0  0  0
  190.4490  176.3250  140.9640 C   0  0  1  0  0  3  0  0  0  0  0  0
  188.6580  176.0500  142.8170 C   0  0  0  0  0  2  0  0  0  0  0  0
  187.9950  177.4410  142.7870 C   0  0  1  0  0  3  0  0  0  0  0  0
  186.6340  178.3990  144.7390 C   0  0  0  0  0  0  0  0  0  0  0  0
  184.2520  179.0910  144.6670 C   0  0  0  0  0  2  0  0  0  0  0  0
  185.5800  178.8500  144.0180 C   0  0  0  0  0  0  0  0  0  0  0  0
  184.0380  178.1670  145.8610 C   0  0  0  0  0  2  0  0  0  0  0  0
  188.9270  177.4910  145.0690 N   0  0  0  0  0  2  0  0  0  0  0  0
  186.4950  178.2520  146.2150 C   0  0  0  0  0  0  0  0  0  0  0  0
  185.7270  179.3090  142.6010 C   0  0  0  0  0  1  0  0  0  0  0  0
  187.5840  178.1430  146.9770 C   0  0  0  0  0  3  0  0  0  0  0  0
  188.9480  178.1810  146.3500 C   0  0  0  0  0  2  0  0  0  0  0  0
  188.0310  178.1780  144.1330 C   0  0  1  0  0  3  0  0  0  0  0  0
  185.1540  178.3760  146.8770 C   0  0  0  0  0  2  0  0  0  0  0  0
  185.2740  179.1800  138.7580 O   0  0  0  0  0  0  0  0  0  0  0  0
  185.1680  178.0510  138.2050 C   0  0  0  0  0  0  0  0  0  0  0  0
  187.6690  177.7730  137.9270 C   0  0  0  0  0  0  0  0  0  0  0  0
  186.3290  177.2740  137.8990 N   0  0  0  0  0  2  0  0  0  0  0  0
  187.8840  179.0000  138.1210 O   0  0  0  0  0  0  0  0  0  0  0  0
  183.8210  177.5280  137.8590 C   0  0  0  0  0  2  0  0  0  0  0  0
  180.6420  176.9740  139.4620 N   0  0  0  0  0  2  0  0  0  0  0  0
  181.0240  176.4890  138.1380 C   0  0  0  0  0  2  0  0  0  0  0  0
  183.4190  176.4920  138.8060 N   0  0  0  0  0  0  0  0  0  0  0  0
  182.9940  177.1000  140.0820 C   0  0  0  0  0  2  0  0  0  0  0  0
  182.3310  175.7000  138.2220 C   0  0  0  0  0  2  0  0  0  0  0  0
  181.6790  177.8720  139.9380 C   0  0  0  0  0  2  0  0  0  0  0  0
  1 31  1  0  0  0  0
  1  8  2  0  0  0  0
  2  9  1  1  0  0  0
  2  5  1  0  0  0  0
  2  6  1  0  0  0  0
  4  9  2  0  0  0  0
  4  3  1  0  0  0  0
  5  3  1  6  0  0  0
  5  1  1  0  0  0  0
  6  7  2  0  0  0  0
  7  8  1  0  0  0  0
 10 16  1  0  0  0  0
 11  8  1  6  0  0  0
 11 14  1  0  0  0  0
 11 15  1  0  0  0  0
 14 12  1  0  0  0  0
 15 13  1  1  0  0  0
 15 10  1  0  0  0  0
 17 12  1  6  0  0  0
 17 16  1  0  0  0  0
 17 27  1  0  0  0  0
 18 23  1  0  0  0  0
 19 21  1  0  0  0  0
 20 19  1  0  0  0  0
 20 18  2  0  0  0  0
 21 28  1  0  0  0  0
 22 26  1  0  0  0  0
 23 28  1  0  0  0  0
 23 25  2  0  0  0  0
 24 20  1  0  0  0  0
 26 25  1  0  0  0  0
 27 18  1  1  0  0  0
 27 22  1  0  0  0  0
 30 29  2  0  0  0  0
 31 33  2  0  0  0  0
 32 31  1  0  0  0  0
 32 30  1  0  0  0  0
 34 30  1  0  0  0  0
 34 37  1  0  0  0  0
 35 40  1  0  0  0  0
 36 39  1  0  0  0  0
 36 35  1  0  0  0  0
 37 38  1  0  0  0  0
 39 37  1  0  0  0  0
 40 38  1  0  0  0  0
M  END
>  <MODEL>
3

>  <REMARK>
 VINA RESULT:      -7.8      3.345      9.538
  Name = 
  5 active torsions:
  status: ('A' for Active; 'I' for Inactive)
    1  A    between atoms: C_1  and  C_20
    2  A    between atoms: N_13  and  C_29
    3  A    between atoms: C_15  and  C_34
    4  A    between atoms: C_19  and  C_29
    5  A    between atoms: C_36  and  C_39
                            x       y       z     vdW  Elec       q    Type
                         _______ _______ _______ _____ _____    ______ ____

>  <TORSDO>
F 5

$$$$
=
 OpenBabel11042411433D

 40 45  0  0  1  0  0  0  0  0999 V2000
  188.9200  175.8010  136.8720 C   0  0  0  0  0  0  0  0  0  0  0  0
  190.3110  173.9760  135.9630 C   0  0  2  0  0  3  0  0  0  0  0  0
  191.3480  175.4800  137.3150 N   0  0  0  0  0  2  0  0  0  0  0  0
  191.9280  174.3550  137.4340 N   0  0  0  0  0  0  0  0  0  0  0  0
  190.2810  175.4130  136.3240 C   0  0  2  0  0  3  0  0  0  0  0  0
  189.1200  173.3180  135.4510 C   0  0  0  0  0  3  0  0  0  0  0  0
  187.9700  173.8800  135.6890 N   0  0  0  0  0  0  0  0  0  0  0  0
  187.8260  175.0810  136.4900 C   0  0  0  0  0  0  0  0  0  0  0  0
  191.2840  173.3790  136.6230 C   0  0  0  0  0  3  0  0  0  0  0  0
  184.5720  177.1260  135.9440 C   0  0  0  0  0  2  0  0  0  0  0  0
  186.4350  175.5480  136.8150 C   0  0  2  0  0  3  0  0  0  0  0  0
  184.0920  174.5940  137.3270 C   0  0  0  0  0  2  0  0  0  0  0  0
  185.3820  175.2360  134.5940 N   0  0  0  0  0  1  0  0  0  0  0  0
  185.6070  174.4480  137.5060 C   0  0  0  0  0  2  0  0  0  0  0  0
  185.7690  176.2230  135.5950 C   0  0  1  0  0  3  0  0  0  0  0  0
  184.2070  177.1690  137.4330 C   0  0  0  0  0  2  0  0  0  0  0  0
  183.5470  175.8750  137.9470 C   0  0  1  0  0  3  0  0  0  0  0  0
  181.3780  177.1740  138.3810 C   0  0  0  0  0  0  0  0  0  0  0  0
  181.0670  178.9990  140.0330 C   0  0  0  0  0  2  0  0  0  0  0  0
  181.7500  177.7590  139.5440 C   0  0  0  0  0  0  0  0  0  0  0  0
  180.5380  179.8390  138.8760 C   0  0  0  0  0  2  0  0  0  0  0  0
  181.5850  175.5750  136.4860 N   0  0  0  0  0  2  0  0  0  0  0  0
  180.2010  177.7090  137.6420 C   0  0  0  0  0  0  0  0  0  0  0  0
  182.7130  177.1080  140.4870 C   0  0  0  0  0  1  0  0  0  0  0  0
  179.6150  176.9690  136.7010 C   0  0  0  0  0  3  0  0  0  0  0  0
  180.1320  175.5930  136.3950 C   0  0  0  0  0  2  0  0  0  0  0  0
  182.0140  175.8760  137.8550 C   0  0  1  0  0  3  0  0  0  0  0  0
  179.5680  179.0090  138.0420 C   0  0  0  0  0  2  0  0  0  0  0  0
  188.9380  179.3080  139.4730 O   0  0  0  0  0  0  0  0  0  0  0  0
  188.6820  178.1580  139.9220 C   0  0  0  0  0  0  0  0  0  0  0  0
  188.8140  177.0620  137.6440 C   0  0  0  0  0  0  0  0  0  0  0  0
  188.7390  177.0100  139.0710 N   0  0  0  0  0  2  0  0  0  0  0  0
  188.7160  178.1670  137.0450 O   0  0  0  0  0  0  0  0  0  0  0  0
  188.3050  177.9960  141.3500 C   0  0  0  0  0  2  0  0  0  0  0  0
  189.6560  177.7230  144.6800 N   0  0  0  0  0  2  0  0  0  0  0  0
  188.2980  177.3620  144.2800 C   0  0  0  0  0  2  0  0  0  0  0  0
  189.0790  176.9190  141.9600 N   0  0  0  0  0  0  0  0  0  0  0  0
  190.4040  177.4130  142.3820 C   0  0  0  0  0  2  0  0  0  0  0  0
  188.3370  176.3810  143.1070 C   0  0  0  0  0  2  0  0  0  0  0  0
  190.3030  178.3860  143.5610 C   0  0  0  0  0  2  0  0  0  0  0  0
  1 31  1  0  0  0  0
  2  6  1  1  0  0  0
  2  5  1  0  0  0  0
  2  9  1  0  0  0  0
  3  4  1  0  0  0  0
  5  1  1  1  0  0  0
  5  3  1  0  0  0  0
  6  7  2  0  0  0  0
  7  8  1  0  0  0  0
  8  1  2  0  0  0  0
  9  4  2  0  0  0  0
 10 16  1  0  0  0  0
 11  8  1  6  0  0  0
 11 14  1  0  0  0  0
 12 14  1  0  0  0  0
 15 13  1  6  0  0  0
 15 10  1  0  0  0  0
 15 11  1  0  0  0  0
 16 17  1  0  0  0  0
 17 12  1  6  0  0  0
 18 20  2  0  0  0  0
 20 19  1  0  0  0  0
 20 24  1  0  0  0  0
 21 19  1  0  0  0  0
 23 28  1  0  0  0  0
 23 18  1  0  0  0  0
 25 23  2  0  0  0  0
 26 22  1  0  0  0  0
 26 25  1  0  0  0  0
 27 22  1  6  0  0  0
 27 17  1  0  0  0  0
 27 18  1  0  0  0  0
 28 21  1  0  0  0  0
 29 30  2  0  0  0  0
 30 34  1  0  0  0  0
 31 32  1  0  0  0  0
 32 30  1  0  0  0  0
 33 31  2  0  0  0  0
 34 37  1  0  0  0  0
 36 35  1  0  0  0  0
 37 38  1  0  0  0  0
 37 39  1  0  0  0  0
 38 40  1  0  0  0  0
 39 36  1  0  0  0  0
 40 35  1  0  0  0  0
M  END
>  <MODEL>
4

>  <REMARK>
 VINA RESULT:      -7.6      3.872      6.455
  Name = 
  5 active torsions:
  status: ('A' for Active; 'I' for Inactive)
    1  A    between atoms: C_1  and  C_20
    2  A    between atoms: N_13  and  C_29
    3  A    between atoms: C_15  and  C_34
    4  A    between atoms: C_19  and  C_29
    5  A    between atoms: C_36  and  C_39
                            x       y       z     vdW  Elec       q    Type
                         _______ _______ _______ _____ _____    ______ ____

>  <TORSDO>
F 5

$$$$
=
 OpenBabel11042411433D

 40 45  0  0  1  0  0  0  0  0999 V2000
  182.4700  179.4340  139.7080 C   0  0  0  0  0  0  0  0  0  0  0  0
  180.0130  179.4180  139.4740 C   0  0  2  0  0  3  0  0  0  0  0  0
  181.2260  179.0770  137.5830 N   0  0  0  0  0  2  0  0  0  0  0  0
  180.1200  178.4580  137.4770 N   0  0  0  0  0  0  0  0  0  0  0  0
  181.2890  179.8180  138.8360 C   0  0  2  0  0  3  0  0  0  0  0  0
  179.8710  179.4410  140.9210 C   0  0  0  0  0  3  0  0  0  0  0  0
  180.9590  179.4280  141.6350 N   0  0  0  0  0  0  0  0  0  0  0  0
  182.2850  179.3220  141.0560 C   0  0  0  0  0  0  0  0  0  0  0  0
  179.3460  178.6240  138.6590 C   0  0  0  0  0  3  0  0  0  0  0  0
  184.1910  179.7090  144.4160 C   0  0  0  0  0  2  0  0  0  0  0  0
  183.4510  179.1680  141.9910 C   0  0  2  0  0  3  0  0  0  0  0  0
  185.0230  177.3400  142.9150 C   0  0  0  0  0  2  0  0  0  0  0  0
  182.2620  178.2520  143.9630 N   0  0  0  0  0  1  0  0  0  0  0  0
  184.2460  177.8780  141.7090 C   0  0  0  0  0  2  0  0  0  0  0  0
  183.0270  179.3870  143.4600 C   0  0  1  0  0  3  0  0  0  0  0  0
  185.5800  179.7110  143.7650 C   0  0  0  0  0  2  0  0  0  0  0  0
  186.0960  178.3060  143.4020 C   0  0  1  0  0  3  0  0  0  0  0  0
  188.4390  177.7860  144.3080 C   0  0  0  0  0  0  0  0  0  0  0  0
  190.5360  177.6890  142.9860 C   0  0  0  0  0  2  0  0  0  0  0  0
  189.0490  177.5750  143.1180 C   0  0  0  0  0  0  0  0  0  0  0  0
  191.1110  178.6860  143.9860 C   0  0  0  0  0  2  0  0  0  0  0  0
  186.4970  178.1250  145.8270 N   0  0  0  0  0  2  0  0  0  0  0  0
  189.2720  178.0230  145.5200 C   0  0  0  0  0  0  0  0  0  0  0  0
  188.3100  177.0360  141.9330 C   0  0  0  0  0  1  0  0  0  0  0  0
  188.7330  177.8970  146.7330 C   0  0  0  0  0  3  0  0  0  0  0  0
  187.2900  177.5040  146.8770 C   0  0  0  0  0  2  0  0  0  0  0  0
  186.9210  177.6370  144.5100 C   0  0  1  0  0  3  0  0  0  0  0  0
  190.7500  178.2550  145.4030 C   0  0  0  0  0  2  0  0  0  0  0  0
  186.2130  179.0030  137.5020 O   0  0  0  0  0  0  0  0  0  0  0  0
  185.5470  177.9970  137.8700 C   0  0  0  0  0  0  0  0  0  0  0  0
  183.8120  179.3870  139.0820 C   0  0  0  0  0  0  0  0  0  0  0  0
  184.2930  178.1540  138.5390 N   0  0  0  0  0  2  0  0  0  0  0  0
  184.5540  180.4050  139.0940 O   0  0  0  0  0  0  0  0  0  0  0  0
  186.0790  176.6330  137.6150 C   0  0  0  0  0  2  0  0  0  0  0  0
  186.6420  173.5330  135.8650 N   0  0  0  0  0  2  0  0  0  0  0  0
  186.1030  173.6620  137.2170 C   0  0  0  0  0  2  0  0  0  0  0  0
  185.2200  175.9220  136.6710 N   0  0  0  0  0  0  0  0  0  0  0  0
  185.8910  175.7960  135.3630 C   0  0  0  0  0  2  0  0  0  0  0  0
  184.8950  174.6000  137.2160 C   0  0  0  0  0  2  0  0  0  0  0  0
  187.0890  174.8430  135.4230 C   0  0  0  0  0  2  0  0  0  0  0  0
  1  8  2  0  0  0  0
  2  9  1  1  0  0  0
  2  6  1  0  0  0  0
  4  3  1  0  0  0  0
  4  9  2  0  0  0  0
  5  3  1  6  0  0  0
  5  2  1  0  0  0  0
  5  1  1  0  0  0  0
  6  7  2  0  0  0  0
  8  7  1  0  0  0  0
 11  8  1  6  0  0  0
 11 15  1  0  0  0  0
 14 11  1  0  0  0  0
 14 12  1  0  0  0  0
 15 13  1  1  0  0  0
 15 10  1  0  0  0  0
 16 10  1  0  0  0  0
 17 12  1  1  0  0  0
 17 16  1  0  0  0  0
 17 27  1  0  0  0  0
 18 23  1  0  0  0  0
 19 20  1  0  0  0  0
 19 21  1  0  0  0  0
 20 18  2  0  0  0  0
 21 28  1  0  0  0  0
 22 26  1  0  0  0  0
 23 25  2  0  0  0  0
 24 20  1  0  0  0  0
 25 26  1  0  0  0  0
 27 18  1  6  0  0  0
 27 22  1  0  0  0  0
 28 23  1  0  0  0  0
 29 30  2  0  0  0  0
 30 32  1  0  0  0  0
 31 33  2  0  0  0  0
 31  1  1  0  0  0  0
 32 31  1  0  0  0  0
 34 30  1  0  0  0  0
 35 36  1  0  0  0  0
 37 39  1  0  0  0  0
 37 34  1  0  0  0  0
 38 40  1  0  0  0  0
 38 37  1  0  0  0  0
 39 36  1  0  0  0  0
 40 35  1  0  0  0  0
M  END
>  <MODEL>
5

>  <REMARK>
 VINA RESULT:      -7.6      2.698      8.665
  Name = 
  5 active torsions:
  status: ('A' for Active; 'I' for Inactive)
    1  A    between atoms: C_1  and  C_20
    2  A    between atoms: N_13  and  C_29
    3  A    between atoms: C_15  and  C_34
    4  A    between atoms: C_19  and  C_29
    5  A    between atoms: C_36  and  C_39
                            x       y       z     vdW  Elec       q    Type
                         _______ _______ _______ _____ _____    ______ ____

>  <TORSDO>
F 5

$$$$
=
 OpenBabel11042411433D

 40 45  0  0  1  0  0  0  0  0999 V2000
  187.2470  177.2660  144.5180 C   0  0  0  0  0  0  0  0  0  0  0  0
  187.3110  177.9230  146.8970 C   0  0  2  0  0  3  0  0  0  0  0  0
  189.2660  177.2280  145.9720 N   0  0  0  0  0  2  0  0  0  0  0  0
  189.5240  178.0700  146.8900 N   0  0  0  0  0  0  0  0  0  0  0  0
  187.8340  176.9740  145.8870 C   0  0  2  0  0  3  0  0  0  0  0  0
  185.9540  178.4360  146.7960 C   0  0  0  0  0  3  0  0  0  0  0  0
  185.3680  178.3700  145.6340 N   0  0  0  0  0  0  0  0  0  0  0  0
  186.0290  177.8780  144.4410 C   0  0  0  0  0  0  0  0  0  0  0  0
  188.3180  178.5510  147.4720 C   0  0  0  0  0  3  0  0  0  0  0  0
  182.9070  178.2430  142.1630 C   0  0  0  0  0  2  0  0  0  0  0  0
  185.2980  177.9910  143.1330 C   0  0  2  0  0  3  0  0  0  0  0  0
  185.3160  179.3930  140.9660 C   0  0  0  0  0  2  0  0  0  0  0  0
  183.8750  179.9540  143.6420 N   0  0  0  0  0  1  0  0  0  0  0  0
  186.1400  178.7150  142.0650 C   0  0  0  0  0  2  0  0  0  0  0  0
  183.8640  178.5280  143.3360 C   0  0  1  0  0  3  0  0  0  0  0  0
  183.5440  177.5170  140.9710 C   0  0  0  0  0  2  0  0  0  0  0  0
  184.4990  178.4020  140.1460 C   0  0  1  0  0  3  0  0  0  0  0  0
  183.0580  178.1950  138.0340 C   0  0  0  0  0  0  0  0  0  0  0  0
  182.8080  176.1720  136.6200 C   0  0  0  0  0  2  0  0  0  0  0  0
  183.5760  177.0310  137.5780 C   0  0  0  0  0  0  0  0  0  0  0  0
  181.3030  176.3310  136.8100 C   0  0  0  0  0  2  0  0  0  0  0  0
  182.9610  180.2120  139.4880 N   0  0  0  0  0  2  0  0  0  0  0  0
  181.7590  178.6780  137.4880 C   0  0  0  0  0  0  0  0  0  0  0  0
  184.9940  176.6350  137.8430 C   0  0  0  0  0  1  0  0  0  0  0  0
  181.3980  179.9500  137.6560 C   0  0  0  0  0  3  0  0  0  0  0  0
  182.3050  180.8990  138.3850 C   0  0  0  0  0  2  0  0  0  0  0  0
  183.8210  179.1370  138.9820 C   0  0  1  0  0  3  0  0  0  0  0  0
  180.9150  177.7930  136.6180 C   0  0  0  0  0  2  0  0  0  0  0  0
  189.5760  176.0030  141.0480 O   0  0  0  0  0  0  0  0  0  0  0  0
  189.0560  177.1510  141.1090 C   0  0  0  0  0  0  0  0  0  0  0  0
  187.9320  176.7010  143.3320 C   0  0  0  0  0  0  0  0  0  0  0  0
  188.3470  177.5720  142.2770 N   0  0  0  0  0  2  0  0  0  0  0  0
  188.0800  175.4540  143.2180 O   0  0  0  0  0  0  0  0  0  0  0  0
  189.1730  178.0700  139.9480 C   0  0  0  0  0  2  0  0  0  0  0  0
  189.4340  178.2150  136.3570 N   0  0  0  0  0  2  0  0  0  0  0  0
  189.8730  177.1040  137.1980 C   0  0  0  0  0  2  0  0  0  0  0  0
  188.1920  177.7220  138.9240 N   0  0  0  0  0  0  0  0  0  0  0  0
  187.8730  178.9010  138.0970 C   0  0  0  0  0  2  0  0  0  0  0  0
  188.7260  176.6360  138.0940 C   0  0  0  0  0  2  0  0  0  0  0  0
  189.0560  179.3220  137.2180 C   0  0  0  0  0  2  0  0  0  0  0  0
  2  6  1  6  0  0  0
  2  9  1  0  0  0  0
  3  4  1  0  0  0  0
  4  9  2  0  0  0  0
  5  1  1  6  0  0  0
  5  3  1  0  0  0  0
  5  2  1  0  0  0  0
  7  6  2  0  0  0  0
  8  1  2  0  0  0  0
  8  7  1  0  0  0  0
 10 15  1  0  0  0  0
 11 15  1  0  0  0  0
 11  8  1  1  0  0  0
 12 14  1  0  0  0  0
 14 11  1  0  0  0  0
 15 13  1  6  0  0  0
 16 10  1  0  0  0  0
 17 12  1  1  0  0  0
 17 16  1  0  0  0  0
 19 21  1  0  0  0  0
 19 20  1  0  0  0  0
 20 24  1  0  0  0  0
 20 18  2  0  0  0  0
 23 25  2  0  0  0  0
 23 18  1  0  0  0  0
 25 26  1  0  0  0  0
 26 22  1  0  0  0  0
 27 18  1  1  0  0  0
 27 22  1  0  0  0  0
 27 17  1  0  0  0  0
 28 21  1  0  0  0  0
 28 23  1  0  0  0  0
 29 30  2  0  0  0  0
 30 32  1  0  0  0  0
 31  1  1  0  0  0  0
 32 31  1  0  0  0  0
 33 31  2  0  0  0  0
 34 30  1  0  0  0  0
 35 36  1  0  0  0  0
 35 40  1  0  0  0  0
 36 39  1  0  0  0  0
 37 34  1  0  0  0  0
 38 37  1  0  0  0  0
 39 37  1  0  0  0  0
 40 38  1  0  0  0  0
M  END
>  <MODEL>
6

>  <REMARK>
 VINA RESULT:      -7.5      2.519      4.573
  Name = 
  5 active torsions:
  status: ('A' for Active; 'I' for Inactive)
    1  A    between atoms: C_1  and  C_20
    2  A    between atoms: N_13  and  C_29
    3  A    between atoms: C_15  and  C_34
    4  A    between atoms: C_19  and  C_29
    5  A    between atoms: C_36  and  C_39
                            x       y       z     vdW  Elec       q    Type
                         _______ _______ _______ _____ _____    ______ ____

>  <TORSDO>
F 5

$$$$
=
 OpenBabel11042411433D

 40 45  0  0  1  0  0  0  0  0999 V2000
  189.2720  176.5510  137.4750 C   0  0  0  0  0  0  0  0  0  0  0  0
  190.7250  174.8870  136.3720 C   0  0  2  0  0  3  0  0  0  0  0  0
  191.6190  176.0330  138.1180 N   0  0  0  0  0  2  0  0  0  0  0  0
  192.1550  174.8810  138.0670 N   0  0  0  0  0  0  0  0  0  0  0  0
  190.6810  176.2190  137.0190 C   0  0  2  0  0  3  0  0  0  0  0  0
  189.5920  174.4040  135.5990 C   0  0  0  0  0  3  0  0  0  0  0  0
  188.4330  174.9580  135.8140 N   0  0  0  0  0  0  0  0  0  0  0  0
  188.2180  175.9750  136.8250 C   0  0  0  0  0  0  0  0  0  0  0  0
  191.5960  174.1220  137.0010 C   0  0  0  0  0  3  0  0  0  0  0  0
  185.3470  178.5720  137.1220 C   0  0  0  0  0  2  0  0  0  0  0  0
  186.8080  176.4310  137.0770 C   0  0  2  0  0  3  0  0  0  0  0  0
  184.3950  175.9280  136.3100 C   0  0  0  0  0  2  0  0  0  0  0  0
  186.4800  177.8400  135.0650 N   0  0  0  0  0  1  0  0  0  0  0  0
  185.7770  175.3650  136.6580 C   0  0  0  0  0  2  0  0  0  0  0  0
  186.5690  177.8520  136.5210 C   0  0  1  0  0  3  0  0  0  0  0  0
  184.5440  177.7460  138.1350 C   0  0  0  0  0  2  0  0  0  0  0  0
  183.7220  176.6100  137.4940 C   0  0  1  0  0  3  0  0  0  0  0  0
  181.5100  177.6550  138.2680 C   0  0  0  0  0  0  0  0  0  0  0  0
  180.6830  177.7780  140.6040 C   0  0  0  0  0  2  0  0  0  0  0  0
  181.4990  177.1420  139.5210 C   0  0  0  0  0  0  0  0  0  0  0  0
  180.5280  179.2780  140.3770 C   0  0  0  0  0  2  0  0  0  0  0  0
  182.3100  177.8780  135.9220 N   0  0  0  0  0  2  0  0  0  0  0  0
  180.6120  178.7970  137.9410 C   0  0  0  0  0  0  0  0  0  0  0  0
  182.1310  175.8250  139.8440 C   0  0  0  0  0  1  0  0  0  0  0  0
  180.3530  179.0960  136.6680 C   0  0  0  0  0  3  0  0  0  0  0  0
  180.9560  178.2750  135.5640 C   0  0  0  0  0  2  0  0  0  0  0  0
  182.2930  177.0150  137.1070 C   0  0  1  0  0  3  0  0  0  0  0  0
  179.8720  179.5260  139.0240 C   0  0  0  0  0  2  0  0  0  0  0  0
  188.9860  179.4180  140.7540 O   0  0  0  0  0  0  0  0  0  0  0  0
  188.5280  178.2480  140.8620 C   0  0  0  0  0  0  0  0  0  0  0  0
  189.0990  177.6300  138.4740 C   0  0  0  0  0  0  0  0  0  0  0  0
  188.6820  177.3010  139.8020 N   0  0  0  0  0  2  0  0  0  0  0  0
  189.2460  178.8360  138.1380 O   0  0  0  0  0  0  0  0  0  0  0  0
  187.8090  177.8540  142.1020 C   0  0  0  0  0  2  0  0  0  0  0  0
  189.2320  177.7290  145.4100 N   0  0  0  0  0  2  0  0  0  0  0  0
  187.8400  177.4440  145.0710 C   0  0  0  0  0  2  0  0  0  0  0  0
  188.5170  176.7690  142.7750 N   0  0  0  0  0  0  0  0  0  0  0  0
  189.8870  177.1890  143.1260 C   0  0  0  0  0  2  0  0  0  0  0  0
  187.7710  176.3780  143.9760 C   0  0  0  0  0  2  0  0  0  0  0  0
  189.8940  178.2540  144.2280 C   0  0  0  0  0  2  0  0  0  0  0  0
  1 31  1  0  0  0  0
  2  6  1  1  0  0  0
  2  9  1  0  0  0  0
  2  5  1  0  0  0  0
  4  3  1  0  0  0  0
  5  1  1  1  0  0  0
  5  3  1  0  0  0  0
  6  7  2  0  0  0  0
  7  8  1  0  0  0  0
  8  1  2  0  0  0  0
  9  4  2  0  0  0  0
 10 16  1  0  0  0  0
 11  8  1  6  0  0  0
 12 14  1  0  0  0  0
 14 11  1  0  0  0  0
 15 13  1  6  0  0  0
 15 11  1  0  0  0  0
 15 10  1  0  0  0  0
 17 12  1  6  0  0  0
 17 16  1  0  0  0  0
 18 20  2  0  0  0  0
 20 24  1  0  0  0  0
 20 19  1  0  0  0  0
 21 19  1  0  0  0  0
 23 18  1  0  0  0  0
 23 28  1  0  0  0  0
 25 23  2  0  0  0  0
 26 22  1  0  0  0  0
 26 25  1  0  0  0  0
 27 22  1  6  0  0  0
 27 17  1  0  0  0  0
 27 18  1  0  0  0  0
 28 21  1  0  0  0  0
 29 30  2  0  0  0  0
 30 34  1  0  0  0  0
 31 32  1  0  0  0  0
 32 30  1  0  0  0  0
 33 31  2  0  0  0  0
 34 37  1  0  0  0  0
 36 35  1  0  0  0  0
 37 38  1  0  0  0  0
 37 39  1  0  0  0  0
 38 40  1  0  0  0  0
 39 36  1  0  0  0  0
 40 35  1  0  0  0  0
M  END
>  <MODEL>
7

>  <REMARK>
 VINA RESULT:      -7.2      3.395      6.242
  Name = 
  5 active torsions:
  status: ('A' for Active; 'I' for Inactive)
    1  A    between atoms: C_1  and  C_20
    2  A    between atoms: N_13  and  C_29
    3  A    between atoms: C_15  and  C_34
    4  A    between atoms: C_19  and  C_29
    5  A    between atoms: C_36  and  C_39
                            x       y       z     vdW  Elec       q    Type
                         _______ _______ _______ _____ _____    ______ ____

>  <TORSDO>
F 5

$$$$
=
 OpenBabel11042411433D

 40 45  0  0  1  0  0  0  0  0999 V2000
  189.1900  176.4240  137.6740 C   0  0  0  0  0  0  0  0  0  0  0  0
  191.2110  175.9340  136.3440 C   0  0  2  0  0  3  0  0  0  0  0  0
  189.4590  176.8700  135.2410 N   0  0  0  0  0  2  0  0  0  0  0  0
  190.5390  177.2360  134.6790 N   0  0  0  0  0  0  0  0  0  0  0  0
  189.7290  175.9490  136.3380 C   0  0  2  0  0  3  0  0  0  0  0  0
  191.9410  175.6190  137.5620 C   0  0  0  0  0  3  0  0  0  0  0  0
  191.3100  175.7460  138.6940 N   0  0  0  0  0  0  0  0  0  0  0  0
  189.9530  176.2470  138.7930 C   0  0  0  0  0  0  0  0  0  0  0  0
  191.6610  176.6910  135.3640 C   0  0  0  0  0  3  0  0  0  0  0  0
  189.9280  176.1130  142.6720 C   0  0  0  0  0  2  0  0  0  0  0  0
  189.3880  176.4870  140.1640 C   0  0  2  0  0  3  0  0  0  0  0  0
  188.4520  178.4060  141.6150 C   0  0  0  0  0  2  0  0  0  0  0  0
  191.3800  177.4910  141.2440 N   0  0  0  0  0  1  0  0  0  0  0  0
  188.5470  177.7770  140.2210 C   0  0  0  0  0  2  0  0  0  0  0  0
  190.4760  176.3470  141.2520 C   0  0  1  0  0  3  0  0  0  0  0  0
  188.3980  176.1060  142.7810 C   0  0  0  0  0  2  0  0  0  0  0  0
  187.7590  177.4990  142.6240 C   0  0  1  0  0  3  0  0  0  0  0  0
  186.0990  178.5430  144.2780 C   0  0  0  0  0  0  0  0  0  0  0  0
  183.8070  179.3340  143.7540 C   0  0  0  0  0  2  0  0  0  0  0  0
  185.2210  179.0270  143.3690 C   0  0  0  0  0  0  0  0  0  0  0  0
  183.3310  178.4370  144.8920 C   0  0  0  0  0  2  0  0  0  0  0  0
  188.2470  177.5430  145.0400 N   0  0  0  0  0  2  0  0  0  0  0  0
  185.6800  178.4230  145.7020 C   0  0  0  0  0  0  0  0  0  0  0  0
  185.6520  179.4590  142.0020 C   0  0  0  0  0  1  0  0  0  0  0  0
  186.5990  178.2790  146.6570 C   0  0  0  0  0  3  0  0  0  0  0  0
  188.0580  178.2500  146.2980 C   0  0  0  0  0  2  0  0  0  0  0  0
  187.5740  178.2540  143.9480 C   0  0  1  0  0  3  0  0  0  0  0  0
  184.2450  178.6130  146.0990 C   0  0  0  0  0  2  0  0  0  0  0  0
  184.9330  177.3160  138.0530 O   0  0  0  0  0  0  0  0  0  0  0  0
  185.3380  176.2890  137.4420 C   0  0  0  0  0  0  0  0  0  0  0  0
  187.7820  176.8810  137.7340 C   0  0  0  0  0  0  0  0  0  0  0  0
  186.7320  175.9780  137.3780 N   0  0  0  0  0  2  0  0  0  0  0  0
  187.5150  178.0780  138.0260 O   0  0  0  0  0  0  0  0  0  0  0  0
  184.3540  175.4000  136.7720 C   0  0  0  0  0  2  0  0  0  0  0  0
  183.2180  172.0150  136.2820 N   0  0  0  0  0  2  0  0  0  0  0  0
  184.5960  172.4200  136.5490 C   0  0  0  0  0  2  0  0  0  0  0  0
  183.7890  174.4540  137.7310 N   0  0  0  0  0  0  0  0  0  0  0  0
  182.4240  174.0670  137.3280 C   0  0  0  0  0  2  0  0  0  0  0  0
  184.6590  173.2750  137.8150 C   0  0  0  0  0  2  0  0  0  0  0  0
  182.4230  173.2100  136.0580 C   0  0  0  0  0  2  0  0  0  0  0  0
  1 31  1  0  0  0  0
  1  8  2  0  0  0  0
  2  9  1  1  0  0  0
  2  6  1  0  0  0  0
  4  3  1  0  0  0  0
  4  9  2  0  0  0  0
  5  3  1  6  0  0  0
  5  2  1  0  0  0  0
  5  1  1  0  0  0  0
  6  7  2  0  0  0  0
  7  8  1  0  0  0  0
 10 16  1  0  0  0  0
 11  8  1  6  0  0  0
 11 14  1  0  0  0  0
 11 15  1  0  0  0  0
 14 12  1  0  0  0  0
 15 13  1  1  0  0  0
 15 10  1  0  0  0  0
 17 12  1  6  0  0  0
 17 16  1  0  0  0  0
 17 27  1  0  0  0  0
 18 23  1  0  0  0  0
 19 21  1  0  0  0  0
 20 19  1  0  0  0  0
 20 18  2  0  0  0  0
 21 28  1  0  0  0  0
 22 26  1  0  0  0  0
 23 28  1  0  0  0  0
 23 25  2  0  0  0  0
 24 20  1  0  0  0  0
 26 25  1  0  0  0  0
 27 18  1  1  0  0  0
 27 22  1  0  0  0  0
 30 29  2  0  0  0  0
 31 33  2  0  0  0  0
 32 30  1  0  0  0  0
 32 31  1  0  0  0  0
 34 30  1  0  0  0  0
 34 37  1  0  0  0  0
 35 36  1  0  0  0  0
 36 39  1  0  0  0  0
 37 39  1  0  0  0  0
 38 37  1  0  0  0  0
 40 35  1  0  0  0  0
 40 38  1  0  0  0  0
M  END
>  <MODEL>
8

>  <REMARK>
 VINA RESULT:      -7.2      4.419      9.499
  Name = 
  5 active torsions:
  status: ('A' for Active; 'I' for Inactive)
    1  A    between atoms: C_1  and  C_20
    2  A    between atoms: N_13  and  C_29
    3  A    between atoms: C_15  and  C_34
    4  A    between atoms: C_19  and  C_29
    5  A    between atoms: C_36  and  C_39
                            x       y       z     vdW  Elec       q    Type
                         _______ _______ _______ _____ _____    ______ ____

>  <TORSDO>
F 5

$$$$
=
 OpenBabel11042411433D

 40 45  0  0  1  0  0  0  0  0999 V2000
  185.5680  176.2680  136.7020 C   0  0  0  0  0  0  0  0  0  0  0  0
  183.2290  175.6480  136.2140 C   0  0  2  0  0  3  0  0  0  0  0  0
  183.6970  177.8680  136.3390 N   0  0  0  0  0  2  0  0  0  0  0  0
  182.7360  177.6980  135.5250 N   0  0  0  0  0  0  0  0  0  0  0  0
  184.1060  176.6010  136.9330 C   0  0  2  0  0  3  0  0  0  0  0  0
  183.6270  174.2600  136.0470 C   0  0  0  0  0  3  0  0  0  0  0  0
  184.8910  173.9740  136.1750 N   0  0  0  0  0  0  0  0  0  0  0  0
  185.9100  174.9790  136.4060 C   0  0  0  0  0  0  0  0  0  0  0  0
  182.4350  176.3130  135.3980 C   0  0  0  0  0  3  0  0  0  0  0  0
  188.8930  172.6250  137.1990 C   0  0  0  0  0  2  0  0  0  0  0  0
  187.3480  174.5420  136.3880 C   0  0  2  0  0  3  0  0  0  0  0  0
  189.2740  174.1300  134.7200 C   0  0  0  0  0  2  0  0  0  0  0  0
  187.0410  172.2010  135.6370 N   0  0  0  0  0  1  0  0  0  0  0  0
  188.0700  174.9960  135.1050 C   0  0  0  0  0  2  0  0  0  0  0  0
  187.4840  173.0440  136.7410 C   0  0  1  0  0  3  0  0  0  0  0  0
  189.9390  173.7480  137.1830 C   0  0  0  0  0  2  0  0  0  0  0  0
  190.3810  174.1630  135.7670 C   0  0  1  0  0  3  0  0  0  0  0  0
  192.8580  173.5930  136.1100 C   0  0  0  0  0  0  0  0  0  0  0  0
  194.5160  174.9500  137.3620 C   0  0  0  0  0  2  0  0  0  0  0  0
  193.2600  174.8060  136.5590 C   0  0  0  0  0  0  0  0  0  0  0  0
  194.8160  173.6880  138.1630 C   0  0  0  0  0  2  0  0  0  0  0  0
  191.2780  171.9740  135.0740 N   0  0  0  0  0  2  0  0  0  0  0  0
  193.7380  172.4110  136.3240 C   0  0  0  0  0  0  0  0  0  0  0  0
  192.5920  176.0730  136.1260 C   0  0  0  0  0  1  0  0  0  0  0  0
  193.5410  171.2990  135.6150 C   0  0  0  0  0  3  0  0  0  0  0  0
  192.4410  171.2430  134.5940 C   0  0  0  0  0  2  0  0  0  0  0  0
  191.6030  173.3940  135.2440 C   0  0  1  0  0  3  0  0  0  0  0  0
  194.9410  172.4990  137.2170 C   0  0  0  0  0  2  0  0  0  0  0  0
  188.8180  178.9750  137.7850 O   0  0  0  0  0  0  0  0  0  0  0  0
  188.2620  178.2370  138.6440 C   0  0  0  0  0  0  0  0  0  0  0  0
  186.5760  177.3120  136.9980 C   0  0  0  0  0  0  0  0  0  0  0  0
  187.2400  177.3120  138.2640 N   0  0  0  0  0  2  0  0  0  0  0  0
  186.7940  178.2370  136.1700 O   0  0  0  0  0  0  0  0  0  0  0  0
  188.6680  178.3390  140.0700 C   0  0  0  0  0  2  0  0  0  0  0  0
  191.5240  177.3980  142.0560 N   0  0  0  0  0  2  0  0  0  0  0  0
  190.2590  177.9110  142.5740 C   0  0  0  0  0  2  0  0  0  0  0  0
  189.0610  177.0290  140.5810 N   0  0  0  0  0  0  0  0  0  0  0  0
  190.3790  176.6420  140.0430 C   0  0  0  0  0  2  0  0  0  0  0  0
  189.0930  177.0730  142.0480 C   0  0  0  0  0  2  0  0  0  0  0  0
  191.5060  177.5110  140.6070 C   0  0  0  0  0  2  0  0  0  0  0  0
  1  5  1  0  0  0  0
  1 31  1  0  0  0  0
  2  9  1  6  0  0  0
  2  5  1  0  0  0  0
  4  3  1  0  0  0  0
  5  3  1  6  0  0  0
  6  7  2  0  0  0  0
  6  2  1  0  0  0  0
  7  8  1  0  0  0  0
  8  1  2  0  0  0  0
  9  4  2  0  0  0  0
 11  8  1  6  0  0  0
 11 15  1  0  0  0  0
 12 14  1  0  0  0  0
 14 11  1  0  0  0  0
 15 13  1  6  0  0  0
 15 10  1  0  0  0  0
 16 10  1  0  0  0  0
 17 12  1  6  0  0  0
 17 16  1  0  0  0  0
 18 23  1  0  0  0  0
 18 20  2  0  0  0  0
 19 21  1  0  0  0  0
 20 19  1  0  0  0  0
 23 28  1  0  0  0  0
 24 20  1  0  0  0  0
 25 23  2  0  0  0  0
 26 22  1  0  0  0  0
 26 25  1  0  0  0  0
 27 22  1  1  0  0  0
 27 17  1  0  0  0  0
 27 18  1  0  0  0  0
 28 21  1  0  0  0  0
 29 30  2  0  0  0  0
 30 34  1  0  0  0  0
 31 32  1  0  0  0  0
 32 30  1  0  0  0  0
 33 31  2  0  0  0  0
 34 37  1  0  0  0  0
 35 36  1  0  0  0  0
 37 39  1  0  0  0  0
 38 37  1  0  0  0  0
 38 40  1  0  0  0  0
 39 36  1  0  0  0  0
 40 35  1  0  0  0  0
M  END
>  <MODEL>
9

>  <REMARK>
 VINA RESULT:      -6.8      5.524     10.199
  Name = 
  5 active torsions:
  status: ('A' for Active; 'I' for Inactive)
    1  A    between atoms: C_1  and  C_20
    2  A    between atoms: N_13  and  C_29
    3  A    between atoms: C_15  and  C_34
    4  A    between atoms: C_19  and  C_29
    5  A    between atoms: C_36  and  C_39
                            x       y       z     vdW  Elec       q    Type
                         _______ _______ _______ _____ _____    ______ ____

>  <TORSDO>
F 5

$$$$
