=
 OpenBabel11042410413D

 44 51  0  0  1  0  0  0  0  0999 V2000
  188.4460  174.7830  136.0020 C   0  0  0  0  0  0  0  0  0  0  0  0
  185.3860  178.3220  144.4130 C   0  0  0  0  0  0  0  0  0  0  0  0
  185.5520  178.4870  142.0040 C   0  0  0  0  0  3  0  0  0  0  0  0
  187.2430  175.4410  136.1000 C   0  0  0  0  0  3  0  0  0  0  0  0
  186.1590  178.2140  143.2330 C   0  0  0  0  0  0  0  0  0  0  0  0
  184.4110  179.8260  139.6850 N   0  0  0  0  0  2  0  0  0  0  0  0
  184.2530  178.3590  139.5030 C   0  0  2  0  0  0  0  0  0  0  0  0
  185.0190  177.0400  137.6040 C   0  0  1  0  0  3  0  0  0  0  0  0
  184.0470  178.7320  144.3160 C   0  0  0  0  0  3  0  0  0  0  0  0
  189.8650  176.5120  140.8410 N   0  0  0  0  0  2  0  0  0  0  0  0
  190.1870  176.3790  139.4710 C   0  0  0  0  0  0  0  0  0  0  0  0
  186.4360  177.3550  137.3800 N   0  0  0  0  0  2  0  0  0  0  0  0
  183.4570  178.9970  143.0760 C   0  0  0  0  0  3  0  0  0  0  0  0
  187.3940  176.3800  137.0510 N   0  0  0  0  0  0  0  0  0  0  0  0
  189.3710  177.1850  138.5040 C   0  0  2  0  0  3  0  0  0  0  0  0
  191.1160  175.6200  139.0920 O   0  0  0  0  0  0  0  0  0  0  0  0
  188.7370  173.6740  135.0550 C   0  0  0  0  0  1  0  0  0  0  0  0
  184.2060  178.8650  141.9040 C   0  0  0  0  0  0  0  0  0  0  0  0
  183.1290  177.9660  138.7250 O   0  0  0  0  0  0  0  0  0  0  0  0
  183.5440  179.0990  140.5750 C   0  0  1  0  0  3  0  0  0  0  0  0
  188.8930  177.5160  141.0220 C   0  0  0  0  0  0  0  0  0  0  0  0
  187.5820  177.8090  143.2600 C   0  0  0  0  0  3  0  0  0  0  0  0
  188.2670  177.6530  142.1580 C   0  0  0  0  0  0  0  0  0  0  0  0
  189.3450  175.3050  136.8550 N   0  0  0  0  0  0  0  0  0  0  0  0
  188.2690  178.2570  139.5170 S   0  0  0  0  0  0  0  0  0  0  0  0
  184.2550  178.2950  138.0060 C   0  0  1  0  0  3  0  0  0  0  0  0
  188.6710  176.2830  137.5020 C   0  0  0  0  0  0  0  0  0  0  0  0
  187.0600  177.0200  145.9400 C   0  0  0  0  0  1  0  0  0  0  0  0
  185.9640  178.0580  145.7730 C   0  0  0  0  0  0  0  0  0  0  0  0
  186.0700  179.2510  146.6820 C   0  0  0  0  0  2  0  0  0  0  0  0
  185.0280  178.1850  146.9400 C   0  0  0  0  0  2  0  0  0  0  0  0
  184.3770  176.2540  136.4540 C   0  0  2  0  0  3  0  0  0  0  0  0
  184.3870  174.0640  137.6680 C   0  0  0  0  0  2  0  0  0  0  0  0
  184.7920  172.5930  137.6240 C   0  0  0  0  0  2  0  0  0  0  0  0
  184.1930  171.9280  136.4190 C   0  0  0  0  0  0  0  0  0  0  0  0
  183.9040  170.6650  136.4680 N   0  0  0  0  0  2  0  0  0  0  0  0
  185.6710  172.4250  134.6260 O   0  0  0  0  0  1  0  0  0  0  0  0
  184.3610  172.5890  135.0820 C   0  0  2  0  0  3  0  0  0  0  0  0
  184.0210  174.0710  135.1670 C   0  0  0  0  0  2  0  0  0  0  0  0
  184.7240  174.7670  136.3460 C   0  0  1  0  0  3  0  0  0  0  0  0
  184.3370  177.0480  135.1670 C   0  0  0  0  0  0  0  0  0  0  0  0
  185.4090  177.3930  134.6040 O   0  0  0  0  0  0  0  0  0  0  0  0
  181.8830  177.2470  135.2650 C   0  0  0  0  0  1  0  0  0  0  0  0
  183.1230  177.4630  134.6150 O   0  0  0  0  0  0  0  0  0  0  0  0
  1  4  2  0  0  0  0
  1 24  1  0  0  0  0
  2 29  1  0  0  0  0
  3  5  1  0  0  0  0
  4 14  1  0  0  0  0
  5 22  1  0  0  0  0
  5  2  2  0  0  0  0
  7 19  1  6  0  0  0
  7  6  1  0  0  0  0
  7 20  1  0  0  0  0
  8 32  1  6  0  0  0
  8 26  1  0  0  0  0
  9  2  1  0  0  0  0
 10 21  1  0  0  0  0
 11 10  1  0  0  0  0
 12  8  1  0  0  0  0
 13  9  2  0  0  0  0
 14 12  1  0  0  0  0
 14 27  1  0  0  0  0
 15 27  1  6  0  0  0
 15 11  1  0  0  0  0
 15 25  1  0  0  0  0
 16 11  2  0  0  0  0
 17  1  1  0  0  0  0
 18  3  2  0  0  0  0
 18 13  1  0  0  0  0
 20  6  1  6  0  0  0
 20 18  1  0  0  0  0
 21 23  2  0  0  0  0
 23 22  2  0  0  0  0
 24 27  2  0  0  0  0
 25 21  1  0  0  0  0
 26 19  1  1  0  0  0
 26  7  1  0  0  0  0
 29 28  1  0  0  0  0
 29 30  1  0  0  0  0
 29 31  1  0  0  0  0
 30 31  1  0  0  0  0
 32 41  1  6  0  0  0
 34 33  1  0  0  0  0
 35 36  2  0  0  0  0
 35 34  1  0  0  0  0
 38 37  1  1  0  0  0
 38 39  1  0  0  0  0
 38 35  1  0  0  0  0
 39 40  1  0  0  0  0
 40 32  1  1  0  0  0
 40 33  1  0  0  0  0
 42 41  2  0  0  0  0
 44 41  1  0  0  0  0
 44 43  1  0  0  0  0
M  END
>  <MODEL>
1

>  <REMARK>
 VINA RESULT:     -10.1      0.000      0.000
  Name = 
  5 active torsions:
  status: ('A' for Active; 'I' for Inactive)
    1  A    between atoms: C_1  and  C_38
    2  A    between atoms: C_1  and  O_43
    3  A    between atoms: C_5  and  C_12
    4  A    between atoms: C_13  and  C_38
    5  A    between atoms: C_38  and  C_42
                            x       y       z     vdW  Elec       q    Type
                         _______ _______ _______ _____ _____    ______ ____

>  <TORSDO>
F 5

$$$$
=
 OpenBabel11042410413D

 44 51  0  0  1  0  0  0  0  0999 V2000
  187.2940  175.1100  135.6950 C   0  0  0  0  0  0  0  0  0  0  0  0
  187.6810  177.7100  144.9530 C   0  0  0  0  0  0  0  0  0  0  0  0
  186.9700  178.1440  142.6810 C   0  0  0  0  0  3  0  0  0  0  0  0
  186.2440  175.7670  136.2930 C   0  0  0  0  0  3  0  0  0  0  0  0
  187.9670  177.7280  143.5680 C   0  0  0  0  0  0  0  0  0  0  0  0
  185.1370  179.7500  141.0890 N   0  0  0  0  0  2  0  0  0  0  0  0
  184.8480  178.3150  140.8300 C   0  0  2  0  0  0  0  0  0  0  0  0
  184.8030  177.2110  138.6590 C   0  0  1  0  0  3  0  0  0  0  0  0
  186.4210  178.1440  145.3960 C   0  0  0  0  0  3  0  0  0  0  0  0
  190.4590  176.2650  139.8260 N   0  0  0  0  0  2  0  0  0  0  0  0
  190.2550  176.2840  138.4270 C   0  0  0  0  0  0  0  0  0  0  0  0
  186.0560  177.5320  137.9660 N   0  0  0  0  0  2  0  0  0  0  0  0
  185.4370  178.5530  144.4910 C   0  0  0  0  0  3  0  0  0  0  0  0
  186.7790  176.5910  137.2120 N   0  0  0  0  0  0  0  0  0  0  0  0
  189.1870  177.2040  137.9130 C   0  0  2  0  0  3  0  0  0  0  0  0
  190.9420  175.5630  137.6590 O   0  0  0  0  0  0  0  0  0  0  0  0
  187.1630  174.1130  134.6000 C   0  0  0  0  0  1  0  0  0  0  0  0
  185.7020  178.5470  143.1190 C   0  0  0  0  0  0  0  0  0  0  0  0
  183.5000  178.0250  140.4830 O   0  0  0  0  0  0  0  0  0  0  0  0
  184.6160  178.9370  142.1560 C   0  0  1  0  0  3  0  0  0  0  0  0
  189.6720  177.2530  140.4510 C   0  0  0  0  0  0  0  0  0  0  0  0
  189.2790  177.3060  143.0310 C   0  0  0  0  0  3  0  0  0  0  0  0
  189.5090  177.2670  141.7450 C   0  0  0  0  0  0  0  0  0  0  0  0
  188.4660  175.5230  136.2070 N   0  0  0  0  0  0  0  0  0  0  0  0
  188.5840  178.1660  139.3620 S   0  0  0  0  0  0  0  0  0  0  0  0
  184.3040  178.4200  139.4380 C   0  0  1  0  0  3  0  0  0  0  0  0
  188.1250  176.4290  137.1510 C   0  0  0  0  0  0  0  0  0  0  0  0
  190.0640  176.7980  145.5220 C   0  0  0  0  0  1  0  0  0  0  0  0
  188.6990  177.2870  145.9730 C   0  0  0  0  0  0  0  0  0  0  0  0
  188.6910  178.0580  147.2640 C   0  0  0  0  0  2  0  0  0  0  0  0
  188.1740  176.6370  147.2200 C   0  0  0  0  0  2  0  0  0  0  0  0
  183.7480  176.5670  137.7510 C   0  0  2  0  0  3  0  0  0  0  0  0
  182.8380  177.3360  135.5490 C   0  0  0  0  0  2  0  0  0  0  0  0
  181.9070  178.3120  134.8330 C   0  0  0  0  0  2  0  0  0  0  0  0
  180.5120  178.1830  135.3710 C   0  0  0  0  0  0  0  0  0  0  0  0
  179.5060  178.4350  134.5940 N   0  0  0  0  0  2  0  0  0  0  0  0
  180.4670  179.5220  137.3330 O   0  0  0  0  0  1  0  0  0  0  0  0
  180.3140  178.2180  136.8590 C   0  0  2  0  0  3  0  0  0  0  0  0
  181.3010  177.2920  137.5560 C   0  0  0  0  0  2  0  0  0  0  0  0
  182.7470  177.5040  137.0720 C   0  0  1  0  0  3  0  0  0  0  0  0
  183.2060  175.2780  138.3250 C   0  0  0  0  0  0  0  0  0  0  0  0
  182.5670  175.2880  139.4100 O   0  0  0  0  0  0  0  0  0  0  0  0
  182.9220  173.7320  136.4260 C   0  0  0  0  0  1  0  0  0  0  0  0
  183.4520  174.0520  137.7010 O   0  0  0  0  0  0  0  0  0  0  0  0
  1 24  1  0  0  0  0
  1  4  2  0  0  0  0
  2  9  1  0  0  0  0
  2 29  1  0  0  0  0
  3 18  2  0  0  0  0
  3  5  1  0  0  0  0
  4 14  1  0  0  0  0
  5  2  2  0  0  0  0
  7 19  1  6  0  0  0
  7  6  1  0  0  0  0
  7 20  1  0  0  0  0
  8 32  1  6  0  0  0
  8 26  1  0  0  0  0
 10 21  1  0  0  0  0
 11 10  1  0  0  0  0
 12  8  1  0  0  0  0
 13  9  2  0  0  0  0
 14 12  1  0  0  0  0
 15 27  1  1  0  0  0
 15 11  1  0  0  0  0
 15 25  1  0  0  0  0
 16 11  2  0  0  0  0
 17  1  1  0  0  0  0
 18 13  1  0  0  0  0
 20  6  1  6  0  0  0
 20 18  1  0  0  0  0
 21 23  2  0  0  0  0
 22  5  1  0  0  0  0
 23 22  2  0  0  0  0
 24 27  2  0  0  0  0
 25 21  1  0  0  0  0
 26 19  1  1  0  0  0
 26  7  1  0  0  0  0
 27 14  1  0  0  0  0
 28 29  1  0  0  0  0
 29 31  1  0  0  0  0
 29 30  1  0  0  0  0
 31 30  1  0  0  0  0
 32 41  1  1  0  0  0
 33 40  1  0  0  0  0
 34 35  1  0  0  0  0
 34 33  1  0  0  0  0
 35 38  1  0  0  0  0
 36 35  2  0  0  0  0
 38 37  1  1  0  0  0
 38 39  1  0  0  0  0
 40 39  1  0  0  0  0
 40 32  1  1  0  0  0
 41 42  2  0  0  0  0
 43 44  1  0  0  0  0
 44 41  1  0  0  0  0
M  END
>  <MODEL>
2

>  <REMARK>
 VINA RESULT:     -10.0      2.011      3.583
  Name = 
  5 active torsions:
  status: ('A' for Active; 'I' for Inactive)
    1  A    between atoms: C_1  and  C_38
    2  A    between atoms: C_1  and  O_43
    3  A    between atoms: C_5  and  C_12
    4  A    between atoms: C_13  and  C_38
    5  A    between atoms: C_38  and  C_42
                            x       y       z     vdW  Elec       q    Type
                         _______ _______ _______ _____ _____    ______ ____

>  <TORSDO>
F 5

$$$$
=
 OpenBabel11042410413D

 44 51  0  0  1  0  0  0  0  0999 V2000
  186.7720  176.3890  136.4020 C   0  0  0  0  0  0  0  0  0  0  0  0
  187.6600  177.5740  145.9110 C   0  0  0  0  0  0  0  0  0  0  0  0
  186.8060  178.3240  143.7750 C   0  0  0  0  0  3  0  0  0  0  0  0
  185.7470  176.9170  137.1500 C   0  0  0  0  0  3  0  0  0  0  0  0
  187.8610  177.8080  144.5310 C   0  0  0  0  0  0  0  0  0  0  0  0
  184.8480  180.0980  142.5510 N   0  0  0  0  0  2  0  0  0  0  0  0
  184.5730  178.7100  142.0940 C   0  0  2  0  0  0  0  0  0  0  0  0
  184.4210  177.9450  139.7860 C   0  0  1  0  0  3  0  0  0  0  0  0
  186.4200  177.8980  146.4850 C   0  0  0  0  0  3  0  0  0  0  0  0
  190.1540  177.0000  140.4760 N   0  0  0  0  0  2  0  0  0  0  0  0
  189.8670  177.2240  139.1110 C   0  0  0  0  0  0  0  0  0  0  0  0
  185.6240  178.4040  139.0800 N   0  0  0  0  0  2  0  0  0  0  0  0
  185.3750  178.4110  145.7100 C   0  0  0  0  0  3  0  0  0  0  0  0
  186.3190  177.6090  138.1530 N   0  0  0  0  0  0  0  0  0  0  0  0
  188.7510  178.1790  138.8030 C   0  0  2  0  0  3  0  0  0  0  0  0
  190.5220  176.6470  138.2040 O   0  0  0  0  0  0  0  0  0  0  0  0
  186.5960  175.5650  135.1760 C   0  0  0  0  0  1  0  0  0  0  0  0
  185.5570  178.6190  144.3400 C   0  0  0  0  0  0  0  0  0  0  0  0
  183.2130  178.4370  141.7830 O   0  0  0  0  0  0  0  0  0  0  0  0
  184.4080  179.1180  143.5100 C   0  0  1  0  0  3  0  0  0  0  0  0
  189.3870  177.8590  141.2870 C   0  0  0  0  0  0  0  0  0  0  0  0
  189.1480  177.5110  143.8630 C   0  0  0  0  0  3  0  0  0  0  0  0
  189.3010  177.6730  142.5750 C   0  0  0  0  0  0  0  0  0  0  0  0
  187.9650  176.7540  136.9040 N   0  0  0  0  0  0  0  0  0  0  0  0
  188.2170  178.8940  140.4130 S   0  0  0  0  0  0  0  0  0  0  0  0
  183.9440  179.0080  140.7670 C   0  0  1  0  0  3  0  0  0  0  0  0
  187.6620  177.4970  137.9930 C   0  0  0  0  0  0  0  0  0  0  0  0
  189.9640  176.3680  146.1790 C   0  0  0  0  0  1  0  0  0  0  0  0
  188.7450  177.0310  146.7960 C   0  0  0  0  0  0  0  0  0  0  0  0
  189.0100  177.8070  148.0570 C   0  0  0  0  0  2  0  0  0  0  0  0
  188.3170  176.4650  148.1190 C   0  0  0  0  0  2  0  0  0  0  0  0
  183.3270  177.4150  138.8510 C   0  0  2  0  0  3  0  0  0  0  0  0
  182.7540  179.8060  138.3740 C   0  0  0  0  0  2  0  0  0  0  0  0
  181.6400  180.8080  138.0830 C   0  0  0  0  0  2  0  0  0  0  0  0
  180.8580  180.3740  136.8770 C   0  0  0  0  0  0  0  0  0  0  0  0
  180.3000  181.2710  136.1250 N   0  0  0  0  0  2  0  0  0  0  0  0
  179.2760  178.7970  137.6890 O   0  0  0  0  0  1  0  0  0  0  0  0
  180.3590  178.9600  136.8210 C   0  0  2  0  0  3  0  0  0  0  0  0
  181.4680  177.9820  137.1860 C   0  0  0  0  0  2  0  0  0  0  0  0
  182.1970  178.3800  138.4820 C   0  0  1  0  0  3  0  0  0  0  0  0
  182.9390  175.9890  139.1710 C   0  0  0  0  0  0  0  0  0  0  0  0
  182.1250  175.7490  140.1010 O   0  0  0  0  0  0  0  0  0  0  0  0
  182.9400  174.3650  137.3170 C   0  0  0  0  0  1  0  0  0  0  0  0
  183.5170  174.9160  138.4890 O   0  0  0  0  0  0  0  0  0  0  0  0
  1 24  1  0  0  0  0
  1  4  2  0  0  0  0
  2  9  1  0  0  0  0
  2 29  1  0  0  0  0
  3 18  2  0  0  0  0
  3  5  1  0  0  0  0
  4 14  1  0  0  0  0
  5  2  2  0  0  0  0
  7 19  1  1  0  0  0
  7  6  1  0  0  0  0
  7 20  1  0  0  0  0
  8 32  1  6  0  0  0
  8 26  1  0  0  0  0
 10 21  1  0  0  0  0
 11 10  1  0  0  0  0
 12  8  1  0  0  0  0
 13  9  2  0  0  0  0
 14 12  1  0  0  0  0
 15 27  1  1  0  0  0
 15 11  1  0  0  0  0
 15 25  1  0  0  0  0
 16 11  2  0  0  0  0
 17  1  1  0  0  0  0
 18 13  1  0  0  0  0
 20  6  1  6  0  0  0
 20 18  1  0  0  0  0
 21 23  2  0  0  0  0
 22  5  1  0  0  0  0
 23 22  2  0  0  0  0
 24 27  2  0  0  0  0
 25 21  1  0  0  0  0
 26 19  1  1  0  0  0
 26  7  1  0  0  0  0
 27 14  1  0  0  0  0
 28 29  1  0  0  0  0
 29 30  1  0  0  0  0
 29 31  1  0  0  0  0
 30 31  1  0  0  0  0
 32 41  1  1  0  0  0
 33 40  1  0  0  0  0
 34 33  1  0  0  0  0
 35 34  1  0  0  0  0
 36 35  2  0  0  0  0
 38 35  1  0  0  0  0
 38 39  1  0  0  0  0
 38 37  1  1  0  0  0
 39 40  1  0  0  0  0
 40 32  1  6  0  0  0
 41 42  2  0  0  0  0
 43 44  1  0  0  0  0
 44 41  1  0  0  0  0
M  END
>  <MODEL>
3

>  <REMARK>
 VINA RESULT:      -9.5      2.292      4.307
  Name = 
  5 active torsions:
  status: ('A' for Active; 'I' for Inactive)
    1  A    between atoms: C_1  and  C_38
    2  A    between atoms: C_1  and  O_43
    3  A    between atoms: C_5  and  C_12
    4  A    between atoms: C_13  and  C_38
    5  A    between atoms: C_38  and  C_42
                            x       y       z     vdW  Elec       q    Type
                         _______ _______ _______ _____ _____    ______ ____

>  <TORSDO>
F 5

$$$$
=
 OpenBabel11042410413D

 44 51  0  0  1  0  0  0  0  0999 V2000
  186.8370  175.2180  135.6860 C   0  0  0  0  0  0  0  0  0  0  0  0
  186.9530  177.8760  144.9350 C   0  0  0  0  0  0  0  0  0  0  0  0
  186.2480  178.2580  142.6510 C   0  0  0  0  0  3  0  0  0  0  0  0
  185.7440  175.8160  136.2660 C   0  0  0  0  0  3  0  0  0  0  0  0
  187.2550  177.9030  143.5540 C   0  0  0  0  0  0  0  0  0  0  0  0
  184.3470  179.7500  141.0280 N   0  0  0  0  0  2  0  0  0  0  0  0
  184.1440  178.2990  140.7730 C   0  0  2  0  0  0  0  0  0  0  0  0
  184.1910  177.1850  138.6070 C   0  0  1  0  0  3  0  0  0  0  0  0
  185.6640  178.2380  145.3590 C   0  0  0  0  0  3  0  0  0  0  0  0
  189.8760  176.5690  139.8510 N   0  0  0  0  0  2  0  0  0  0  0  0
  189.6900  176.5720  138.4500 C   0  0  0  0  0  0  0  0  0  0  0  0
  185.4330  177.5750  137.9280 N   0  0  0  0  0  2  0  0  0  0  0  0
  184.6700  178.5870  144.4400 C   0  0  0  0  0  3  0  0  0  0  0  0
  186.2180  176.6730  137.1880 N   0  0  0  0  0  0  0  0  0  0  0  0
  188.5780  177.4260  137.9180 C   0  0  2  0  0  3  0  0  0  0  0  0
  190.4270  175.8870  137.6950 O   0  0  0  0  0  0  0  0  0  0  0  0
  186.7780  174.2100  134.5940 C   0  0  0  0  0  1  0  0  0  0  0  0
  184.9530  178.5890  143.0710 C   0  0  0  0  0  0  0  0  0  0  0  0
  182.8190  177.9310  140.4090 O   0  0  0  0  0  0  0  0  0  0  0  0
  183.8590  178.9130  142.0920 C   0  0  1  0  0  3  0  0  0  0  0  0
  189.0260  177.5140  140.4610 C   0  0  0  0  0  0  0  0  0  0  0  0
  188.5970  177.5550  143.0350 C   0  0  0  0  0  3  0  0  0  0  0  0
  188.8450  177.5240  141.7520 C   0  0  0  0  0  0  0  0  0  0  0  0
  187.9770  175.6990  136.2110 N   0  0  0  0  0  0  0  0  0  0  0  0
  187.9010  178.3590  139.3530 S   0  0  0  0  0  0  0  0  0  0  0  0
  183.6130  178.3670  139.3730 C   0  0  1  0  0  3  0  0  0  0  0  0
  187.5720  176.5880  137.1460 C   0  0  0  0  0  0  0  0  0  0  0  0
  189.4520  177.4890  145.5980 C   0  0  0  0  0  1  0  0  0  0  0  0
  187.9790  177.5160  145.9700 C   0  0  0  0  0  0  0  0  0  0  0  0
  187.6830  177.9720  147.3720 C   0  0  0  0  0  2  0  0  0  0  0  0
  187.5690  176.5090  147.0060 C   0  0  0  0  0  2  0  0  0  0  0  0
  183.1870  176.4780  137.6890 C   0  0  2  0  0  3  0  0  0  0  0  0
  183.9470  174.1730  138.3040 C   0  0  0  0  0  2  0  0  0  0  0  0
  184.4280  172.8180  137.7910 C   0  0  0  0  0  2  0  0  0  0  0  0
  183.4190  172.2380  136.8440 C   0  0  0  0  0  0  0  0  0  0  0  0
  183.3030  170.9500  136.7480 N   0  0  0  0  0  2  0  0  0  0  0  0
  183.8820  173.2400  134.7390 O   0  0  0  0  0  1  0  0  0  0  0  0
  182.9060  173.1030  135.7290 C   0  0  2  0  0  3  0  0  0  0  0  0
  182.5010  174.4740  136.2530 C   0  0  0  0  0  2  0  0  0  0  0  0
  183.5880  175.1070  137.1400 C   0  0  1  0  0  3  0  0  0  0  0  0
  182.5140  177.4350  136.7300 C   0  0  0  0  0  0  0  0  0  0  0  0
  183.0790  177.7480  135.6490 O   0  0  0  0  0  0  0  0  0  0  0  0
  180.2190  177.3030  137.6200 C   0  0  0  0  0  1  0  0  0  0  0  0
  181.2920  178.0320  137.0480 O   0  0  0  0  0  0  0  0  0  0  0  0
  1 24  1  0  0  0  0
  1  4  2  0  0  0  0
  2  9  1  0  0  0  0
  2 29  1  0  0  0  0
  3 18  2  0  0  0  0
  3  5  1  0  0  0  0
  4 14  1  0  0  0  0
  5  2  2  0  0  0  0
  7 19  1  6  0  0  0
  7  6  1  0  0  0  0
  7 20  1  0  0  0  0
  8 32  1  6  0  0  0
  8 26  1  0  0  0  0
 10 21  1  0  0  0  0
 11 10  1  0  0  0  0
 12  8  1  0  0  0  0
 13  9  2  0  0  0  0
 14 12  1  0  0  0  0
 15 27  1  1  0  0  0
 15 11  1  0  0  0  0
 15 25  1  0  0  0  0
 16 11  2  0  0  0  0
 17  1  1  0  0  0  0
 18 13  1  0  0  0  0
 20  6  1  6  0  0  0
 20 18  1  0  0  0  0
 21 23  2  0  0  0  0
 22  5  1  0  0  0  0
 23 22  2  0  0  0  0
 24 27  2  0  0  0  0
 25 21  1  0  0  0  0
 26 19  1  1  0  0  0
 26  7  1  0  0  0  0
 27 14  1  0  0  0  0
 28 29  1  0  0  0  0
 29 31  1  0  0  0  0
 29 30  1  0  0  0  0
 31 30  1  0  0  0  0
 32 41  1  6  0  0  0
 34 33  1  0  0  0  0
 35 34  1  0  0  0  0
 36 35  2  0  0  0  0
 38 37  1  6  0  0  0
 38 39  1  0  0  0  0
 38 35  1  0  0  0  0
 39 40  1  0  0  0  0
 40 32  1  1  0  0  0
 40 33  1  0  0  0  0
 41 44  1  0  0  0  0
 42 41  2  0  0  0  0
 44 43  1  0  0  0  0
M  END
>  <MODEL>
4

>  <REMARK>
 VINA RESULT:      -7.7      1.334      1.681
  Name = 
  5 active torsions:
  status: ('A' for Active; 'I' for Inactive)
    1  A    between atoms: C_1  and  C_38
    2  A    between atoms: C_1  and  O_43
    3  A    between atoms: C_5  and  C_12
    4  A    between atoms: C_13  and  C_38
    5  A    between atoms: C_38  and  C_42
                            x       y       z     vdW  Elec       q    Type
                         _______ _______ _______ _____ _____    ______ ____

>  <TORSDO>
F 5

$$$$
=
 OpenBabel11042410413D

 44 51  0  0  1  0  0  0  0  0999 V2000
  188.5650  177.4950  146.2370 C   0  0  0  0  0  0  0  0  0  0  0  0
  181.4110  177.4910  139.7990 C   0  0  0  0  0  0  0  0  0  0  0  0
  183.5760  178.2910  140.5290 C   0  0  0  0  0  3  0  0  0  0  0  0
  188.8190  177.6240  144.8930 C   0  0  0  0  0  3  0  0  0  0  0  0
  182.2510  177.9650  140.8330 C   0  0  0  0  0  0  0  0  0  0  0  0
  185.9800  179.6480  139.6070 N   0  0  0  0  0  2  0  0  0  0  0  0
  186.3700  178.3170  140.1440 C   0  0  2  0  0  0  0  0  0  0  0  0
  188.0180  177.8790  141.8830 C   0  0  1  0  0  3  0  0  0  0  0  0
  181.9220  177.3940  138.4950 C   0  0  0  0  0  3  0  0  0  0  0  0
  183.3740  178.3770  145.4080 N   0  0  0  0  0  2  0  0  0  0  0  0
  184.5500  178.7120  146.1150 C   0  0  0  0  0  0  0  0  0  0  0  0
  187.6960  178.7330  143.0330 N   0  0  0  0  0  2  0  0  0  0  0  0
  183.2530  177.7210  138.2120 C   0  0  0  0  0  3  0  0  0  0  0  0
  187.7760  178.2890  144.3640 N   0  0  0  0  0  0  0  0  0  0  0  0
  185.6430  179.3760  145.3320 C   0  0  2  0  0  3  0  0  0  0  0  0
  184.6640  178.4630  147.3430 O   0  0  0  0  0  0  0  0  0  0  0  0
  189.4690  176.8390  147.2180 C   0  0  0  0  0  1  0  0  0  0  0  0
  184.0960  178.1640  139.2340 C   0  0  0  0  0  0  0  0  0  0  0  0
  187.5300  177.7450  139.5530 O   0  0  0  0  0  0  0  0  0  0  0  0
  185.5370  178.4600  138.9250 C   0  0  1  0  0  3  0  0  0  0  0  0
  183.4310  178.8800  144.0930 C   0  0  0  0  0  0  0  0  0  0  0  0
  181.7750  178.1140  142.2260 C   0  0  0  0  0  3  0  0  0  0  0  0
  182.5780  178.4950  143.1840 C   0  0  0  0  0  0  0  0  0  0  0  0
  187.3990  178.0830  146.5580 N   0  0  0  0  0  0  0  0  0  0  0  0
  184.9660  179.6870  143.6490 S   0  0  0  0  0  0  0  0  0  0  0  0
  187.7690  178.6280  140.5810 C   0  0  1  0  0  3  0  0  0  0  0  0
  186.9220  178.5570  145.3850 C   0  0  0  0  0  0  0  0  0  0  0  0
  178.9840  178.2030  140.4590 C   0  0  0  0  0  1  0  0  0  0  0  0
  179.9740  177.1300  140.0390 C   0  0  0  0  0  0  0  0  0  0  0  0
  179.4120  176.0550  139.1510 C   0  0  0  0  0  2  0  0  0  0  0  0
  179.7070  175.7650  140.6050 C   0  0  0  0  0  2  0  0  0  0  0  0
  189.4000  177.2220  141.9770 C   0  0  2  0  0  3  0  0  0  0  0  0
  191.7880  177.5030  141.2780 C   0  0  0  0  0  2  0  0  0  0  0  0
  192.7470  177.7580  140.1180 C   0  0  0  0  0  2  0  0  0  0  0  0
  192.5510  176.7220  139.0490 C   0  0  0  0  0  0  0  0  0  0  0  0
  193.5560  176.3780  138.3050 N   0  0  0  0  0  2  0  0  0  0  0  0
  190.7180  177.4970  137.7510 O   0  0  0  0  0  1  0  0  0  0  0  0
  191.1560  176.4500  138.5660 C   0  0  2  0  0  3  0  0  0  0  0  0
  190.2040  176.2720  139.7400 C   0  0  0  0  0  2  0  0  0  0  0  0
  190.3400  177.3980  140.7810 C   0  0  1  0  0  3  0  0  0  0  0  0
  189.3420  175.8510  142.6130 C   0  0  0  0  0  0  0  0  0  0  0  0
  188.2320  175.3470  142.9280 O   0  0  0  0  0  0  0  0  0  0  0  0
  191.3820  175.5420  143.9610 C   0  0  0  0  0  1  0  0  0  0  0  0
  190.5110  175.1470  142.9150 O   0  0  0  0  0  0  0  0  0  0  0  0
  1 24  1  0  0  0  0
  1 17  1  0  0  0  0
  2 29  1  0  0  0  0
  2  5  1  0  0  0  0
  3  5  2  0  0  0  0
  4  1  2  0  0  0  0
  5 22  1  0  0  0  0
  6  7  1  0  0  0  0
  7 19  1  6  0  0  0
  7 26  1  0  0  0  0
  8 32  1  1  0  0  0
  8 12  1  0  0  0  0
  9  2  2  0  0  0  0
 10 11  1  0  0  0  0
 11 16  2  0  0  0  0
 12 14  1  0  0  0  0
 13  9  1  0  0  0  0
 13 18  2  0  0  0  0
 14  4  1  0  0  0  0
 14 27  1  0  0  0  0
 15 25  1  6  0  0  0
 15 27  1  0  0  0  0
 15 11  1  0  0  0  0
 18  3  1  0  0  0  0
 20 18  1  1  0  0  0
 20  6  1  0  0  0  0
 20  7  1  0  0  0  0
 21 10  1  0  0  0  0
 22 23  2  0  0  0  0
 23 21  2  0  0  0  0
 25 21  1  0  0  0  0
 26 19  1  6  0  0  0
 26  8  1  0  0  0  0
 27 24  2  0  0  0  0
 29 28  1  0  0  0  0
 29 31  1  0  0  0  0
 30 29  1  0  0  0  0
 30 31  1  0  0  0  0
 32 41  1  6  0  0  0
 34 33  1  0  0  0  0
 35 34  1  0  0  0  0
 36 35  2  0  0  0  0
 38 37  1  6  0  0  0
 38 35  1  0  0  0  0
 38 39  1  0  0  0  0
 39 40  1  0  0  0  0
 40 33  1  0  0  0  0
 40 32  1  1  0  0  0
 41 44  1  0  0  0  0
 41 42  2  0  0  0  0
 44 43  1  0  0  0  0
M  END
>  <MODEL>
5

>  <REMARK>
 VINA RESULT:      -7.3      3.805      8.042
  Name = 
  5 active torsions:
  status: ('A' for Active; 'I' for Inactive)
    1  A    between atoms: C_1  and  C_38
    2  A    between atoms: C_1  and  O_43
    3  A    between atoms: C_5  and  C_12
    4  A    between atoms: C_13  and  C_38
    5  A    between atoms: C_38  and  C_42
                            x       y       z     vdW  Elec       q    Type
                         _______ _______ _______ _____ _____    ______ ____

>  <TORSDO>
F 5

$$$$
