=
 OpenBabel11042411123D

 54 59  0  0  1  0  0  0  0  0999 V2000
  183.7180  178.9340  142.3560 C   0  0  0  0  0  0  0  0  0  0  0  0
  182.5790  178.8160  141.5460 C   0  0  0  0  0  3  0  0  0  0  0  0
  182.2980  178.6620  144.3070 C   0  0  0  0  0  3  0  0  0  0  0  0
  183.5760  178.8410  143.7520 C   0  0  0  0  0  0  0  0  0  0  0  0
  181.3120  178.5950  142.1000 C   0  0  0  0  0  0  0  0  0  0  0  0
  181.1770  178.5350  143.4860 C   0  0  0  0  0  3  0  0  0  0  0  0
  180.0780  178.5350  141.2490 C   0  0  0  0  0  2  0  0  0  0  0  0
  179.7200  182.8780  138.6220 N   0  0  0  0  0  0  0  0  0  0  0  0
  179.7800  180.8190  140.0420 C   0  0  0  0  0  0  0  0  0  0  0  0
  180.7350  179.6430  137.6380 C   0  0  0  0  0  3  0  0  0  0  0  0
  179.4210  181.4540  138.7320 C   0  0  2  0  0  3  0  0  0  0  0  0
  180.2570  180.8870  137.6430 C   0  0  1  0  0  3  0  0  0  0  0  0
  180.5750  178.8240  138.8620 C   0  0  0  0  0  3  0  0  0  0  0  0
  179.6230  181.4350  141.1280 O   0  0  0  0  0  0  0  0  0  0  0  0
  180.3550  183.0670  137.5040 C   0  0  0  0  0  0  0  0  0  0  0  0
  180.1700  179.3850  140.0180 C   0  0  2  0  0  3  0  0  0  0  0  0
  180.6710  181.9030  136.8100 O   0  0  0  0  0  0  0  0  0  0  0  0
  180.9340  184.6160  135.7000 C   0  0  0  0  0  1  0  0  0  0  0  0
  180.7250  184.3380  137.0740 O   0  0  0  0  0  0  0  0  0  0  0  0
  184.9930  179.1600  141.8120 O   0  0  0  0  0  0  0  0  0  0  0  0
  186.5530  178.6710  140.1620 O   0  0  0  0  0  0  0  0  0  0  0  0
  185.3690  178.9770  140.4740 C   0  0  0  0  0  0  0  0  0  0  0  0
  184.3420  179.1610  139.4330 C   0  0  0  0  0  3  0  0  0  0  0  0
  184.2330  178.4670  138.2960 C   0  0  0  0  0  3  0  0  0  0  0  0
  184.5740  176.1190  137.4320 C   0  0  2  0  0  3  0  0  0  0  0  0
  185.2000  175.7610  134.9850 O   0  0  0  0  0  0  0  0  0  0  0  0
  185.7300  177.6540  136.5770 N   0  0  0  0  0  2  0  0  0  0  0  0
  185.1690  177.3660  137.8780 C   0  0  1  0  0  3  0  0  0  0  0  0
  185.1700  176.3780  136.0830 C   0  0  0  0  0  0  0  0  0  0  0  0
  182.4140  175.7830  138.9970 O   0  0  0  0  0  1  0  0  0  0  0  0
  182.6980  176.0560  137.3080 P   0  0  2  0  0  0  0  0  0  0  0  0
  182.5430  174.0100  136.7590 S   0  0  0  0  0  0  0  0  0  0  0  0
  181.3510  173.3950  137.4380 O   0  0  0  0  0  0  0  0  0  0  0  0
  182.3680  173.9080  135.2690 O   0  0  0  0  0  0  0  0  0  0  0  0
  183.8890  171.6680  136.8600 C   0  0  0  0  0  1  0  0  0  0  0  0
  184.0090  173.1280  137.2480 C   0  0  0  0  0  2  0  0  0  0  0  0
  184.7770  179.0530  144.6390 C   0  0  2  0  0  3  0  0  0  0  0  0
  186.7730  177.3840  144.0140 C   0  0  0  0  0  0  0  0  0  0  0  0
  185.8830  178.1380  144.3150 C   0  0  0  0  0  0  0  0  0  0  0  0
  187.8380  176.4650  143.6060 C   0  0  0  0  0  2  0  0  0  0  0  0
  189.9370  177.6780  147.1600 O   0  0  0  0  0  0  0  0  0  0  0  0
  190.9090  176.3190  144.7460 C   0  0  2  0  0  3  0  0  0  0  0  0
  191.2370  176.5640  147.1840 P   0  0  2  0  0  0  0  0  0  0  0  0
  190.6250  178.8260  144.6070 C   0  0  0  0  0  1  0  0  0  0  0  0
  189.1440  177.2400  143.4210 C   0  0  2  0  0  3  0  0  0  0  0  0
  190.7340  175.1890  147.5570 O   0  0  0  0  0  0  0  0  0  0  0  0
  192.3800  177.0650  148.3220 O   0  0  0  0  0  1  0  0  0  0  0  0
  189.1290  177.4010  146.0310 C   0  0  0  0  0  2  0  0  0  0  0  0
  191.9680  176.5280  145.6410 O   0  0  0  0  0  0  0  0  0  0  0  0
  191.3460  176.1260  143.3140 C   0  0  0  0  0  2  0  0  0  0  0  0
  190.0950  176.4540  142.5050 C   0  0  0  0  0  2  0  0  0  0  0  0
  189.9240  177.4720  144.7170 C   0  0  1  0  0  0  0  0  0  0  0  0
  185.5740  179.1530  146.7070 C   0  0  0  0  0  1  0  0  0  0  0  0
  184.4110  178.8900  145.9760 O   0  0  0  0  0  0  0  0  0  0  0  0
  1  4  1  0  0  0  0
  2  5  1  0  0  0  0
  2  1  2  0  0  0  0
  4  3  2  0  0  0  0
  4 37  1  0  0  0  0
  5  6  2  0  0  0  0
  6  3  1  0  0  0  0
  7  5  1  0  0  0  0
  9 14  2  0  0  0  0
 10 13  2  0  0  0  0
 11  8  1  1  0  0  0
 11  9  1  0  0  0  0
 12 10  1  1  0  0  0
 12 11  1  0  0  0  0
 13 16  1  0  0  0  0
 15  8  2  0  0  0  0
 16  9  1  0  0  0  0
 16  7  1  6  0  0  0
 17 15  1  0  0  0  0
 17 12  1  0  0  0  0
 18 19  1  0  0  0  0
 19 15  1  0  0  0  0
 20  1  1  0  0  0  0
 21 22  2  0  0  0  0
 22 20  1  0  0  0  0
 23 22  1  0  0  0  0
 24 23  2  0  0  0  0
 25 31  1  6  0  0  0
 25 28  1  0  0  0  0
 26 29  2  0  0  0  0
 27 28  1  0  0  0  0
 28 24  1  6  0  0  0
 29 27  1  0  0  0  0
 29 25  1  0  0  0  0
 31 30  1  1  0  0  0
 32 36  1  0  0  0  0
 32 31  1  0  0  0  0
 32 33  2  0  0  0  0
 34 32  2  0  0  0  0
 35 36  1  0  0  0  0
 37 39  1  6  0  0  0
 37 54  1  0  0  0  0
 38 39  3  0  0  0  0
 40 38  1  0  0  0  0
 41 43  1  0  0  0  0
 42 50  1  6  0  0  0
 42 49  1  0  0  0  0
 43 46  2  1  0  0  0
 43 47  1  0  0  0  0
 45 40  1  1  0  0  0
 45 52  1  0  0  0  0
 48 41  1  0  0  0  0
 49 43  1  0  0  0  0
 51 50  1  0  0  0  0
 51 45  1  0  0  0  0
 52 44  1  6  0  0  0
 52 42  1  0  0  0  0
 52 48  1  0  0  0  0
 54 53  1  0  0  0  0
M  END
>  <MODEL>
1

>  <REMARK>
 VINA RESULT:      -9.3      0.000      0.000
  Name = 
  15 active torsions:
  status: ('A' for Active; 'I' for Inactive)
    1  A    between atoms: C_2  and  C_9
    2  A    between atoms: C_7  and  P_23
    3  A    between atoms: C_9  and  C_22
    4  A    between atoms: C_14  and  O_21
    5  A    between atoms: C_17  and  C_37
    6  A    between atoms: C_17  and  C_51
    7  A    between atoms: C_19  and  C_44
    8  A    between atoms: O_21  and  C_35
    9  A    between atoms: P_23  and  S_27
   10  A    between atoms: C_24  and  C_44
   11  A    between atoms: S_27  and  C_36
   12  A    between atoms: C_32  and  C_35
   13  A    between atoms: O_42  and  C_44
   14  A    between atoms: C_43  and  O_45
   15  A    between atoms: C_46  and  C_47
                            x       y       z     vdW  Elec       q    Type
                         _______ _______ _______ _____ _____    ______ ____

>  <TORSDO>
F 15

$$$$
=
 OpenBabel11042411123D

 54 59  0  0  1  0  0  0  0  0999 V2000
  183.2180  178.6400  141.5120 C   0  0  0  0  0  0  0  0  0  0  0  0
  181.9780  178.2730  140.9680 C   0  0  0  0  0  3  0  0  0  0  0  0
  182.1480  178.8650  143.6790 C   0  0  0  0  0  3  0  0  0  0  0  0
  183.3060  178.9250  142.8860 C   0  0  0  0  0  0  0  0  0  0  0  0
  180.8340  178.1740  141.7710 C   0  0  0  0  0  0  0  0  0  0  0  0
  180.9240  178.4880  143.1260 C   0  0  0  0  0  3  0  0  0  0  0  0
  179.4890  177.8500  141.1900 C   0  0  0  0  0  2  0  0  0  0  0  0
  179.7510  173.3300  138.8690 N   0  0  0  0  0  0  0  0  0  0  0  0
  179.6870  175.4690  140.1660 C   0  0  0  0  0  0  0  0  0  0  0  0
  179.5740  176.6060  137.5650 C   0  0  0  0  0  3  0  0  0  0  0  0
  180.2490  174.6940  139.0110 C   0  0  2  0  0  3  0  0  0  0  0  0
  179.8180  175.3060  137.7280 C   0  0  1  0  0  3  0  0  0  0  0  0
  179.5610  177.4740  138.7650 C   0  0  0  0  0  3  0  0  0  0  0  0
  179.4630  174.9130  141.2730 O   0  0  0  0  0  0  0  0  0  0  0  0
  179.3920  173.1640  137.6310 C   0  0  0  0  0  0  0  0  0  0  0  0
  179.5640  176.9410  140.0020 C   0  0  2  0  0  3  0  0  0  0  0  0
  179.4590  174.3120  136.8460 O   0  0  0  0  0  0  0  0  0  0  0  0
  179.8110  171.0070  136.5530 C   0  0  0  0  0  1  0  0  0  0  0  0
  178.9310  171.9390  137.1570 O   0  0  0  0  0  0  0  0  0  0  0  0
  184.3720  178.7470  140.7170 O   0  0  0  0  0  0  0  0  0  0  0  0
  184.4900  180.4080  139.0970 O   0  0  0  0  0  0  0  0  0  0  0  0
  184.4250  179.1810  139.3840 C   0  0  0  0  0  0  0  0  0  0  0  0
  184.3950  178.1600  138.3200 C   0  0  0  0  0  3  0  0  0  0  0  0
  185.4550  177.5580  137.7710 C   0  0  0  0  0  3  0  0  0  0  0  0
  187.8990  176.9440  137.6210 C   0  0  2  0  0  3  0  0  0  0  0  0
  189.4410  178.2930  136.1010 O   0  0  0  0  0  0  0  0  0  0  0  0
  187.3840  178.9720  137.4090 N   0  0  0  0  0  2  0  0  0  0  0  0
  186.8830  177.8370  138.1500 C   0  0  1  0  0  3  0  0  0  0  0  0
  188.4580  178.1110  136.8670 C   0  0  0  0  0  0  0  0  0  0  0  0
  186.4150  174.7040  137.5800 O   0  0  0  0  0  1  0  0  0  0  0  0
  187.3330  175.6100  136.4220 P   0  0  2  0  0  0  0  0  0  0  0  0
  189.0650  174.3880  136.5580 S   0  0  0  0  0  0  0  0  0  0  0  0
  189.9040  174.8290  137.7240 O   0  0  0  0  0  0  0  0  0  0  0  0
  188.6470  172.9570  136.7630 O   0  0  0  0  0  0  0  0  0  0  0  0
  191.1420  175.5280  135.2560 C   0  0  0  0  0  1  0  0  0  0  0  0
  190.0290  174.5170  135.0670 C   0  0  0  0  0  2  0  0  0  0  0  0
  184.6130  179.4040  143.4660 C   0  0  2  0  0  3  0  0  0  0  0  0
  186.5160  177.5240  143.4800 C   0  0  0  0  0  0  0  0  0  0  0  0
  185.6440  178.3540  143.4720 C   0  0  0  0  0  0  0  0  0  0  0  0
  187.6070  176.5470  143.4980 C   0  0  0  0  0  2  0  0  0  0  0  0
  189.7390  177.8780  146.9900 O   0  0  0  0  0  0  0  0  0  0  0  0
  190.6660  176.3490  144.6610 C   0  0  2  0  0  3  0  0  0  0  0  0
  190.9960  176.7190  147.0830 P   0  0  2  0  0  0  0  0  0  0  0  0
  190.4780  178.8530  144.3800 C   0  0  0  0  0  1  0  0  0  0  0  0
  188.9420  177.2600  143.2770 C   0  0  2  0  0  3  0  0  0  0  0  0
  190.4400  175.3870  147.5300 O   0  0  0  0  0  0  0  0  0  0  0  0
  192.1530  177.2400  148.1970 O   0  0  0  0  0  1  0  0  0  0  0  0
  188.9250  177.5690  145.8740 C   0  0  0  0  0  2  0  0  0  0  0  0
  191.7290  176.5680  145.5480 O   0  0  0  0  0  0  0  0  0  0  0  0
  191.1000  176.0590  143.2450 C   0  0  0  0  0  2  0  0  0  0  0  0
  189.8660  176.3880  142.4110 C   0  0  0  0  0  2  0  0  0  0  0  0
  189.7260  177.5350  144.5620 C   0  0  1  0  0  0  0  0  0  0  0  0
  185.3890  179.2340  145.5370 C   0  0  0  0  0  1  0  0  0  0  0  0
  184.4090  179.8680  144.7660 O   0  0  0  0  0  0  0  0  0  0  0  0
  1  4  1  0  0  0  0
  2  1  2  0  0  0  0
  2  5  1  0  0  0  0
  4 37  1  0  0  0  0
  4  3  2  0  0  0  0
  5  6  2  0  0  0  0
  6  3  1  0  0  0  0
  7  5  1  0  0  0  0
  9 14  2  0  0  0  0
 10 13  2  0  0  0  0
 11  8  1  6  0  0  0
 11  9  1  0  0  0  0
 12 10  1  1  0  0  0
 12 11  1  0  0  0  0
 13 16  1  0  0  0  0
 15  8  2  0  0  0  0
 16  9  1  0  0  0  0
 16  7  1  1  0  0  0
 17 15  1  0  0  0  0
 17 12  1  0  0  0  0
 18 19  1  0  0  0  0
 19 15  1  0  0  0  0
 20  1  1  0  0  0  0
 21 22  2  0  0  0  0
 22 20  1  0  0  0  0
 23 22  1  0  0  0  0
 24 23  2  0  0  0  0
 25 31  1  6  0  0  0
 25 28  1  0  0  0  0
 26 29  2  0  0  0  0
 27 28  1  0  0  0  0
 28 24  1  6  0  0  0
 29 27  1  0  0  0  0
 29 25  1  0  0  0  0
 31 32  1  0  0  0  0
 31 30  1  1  0  0  0
 32 34  2  0  0  0  0
 32 33  2  0  0  0  0
 36 35  1  0  0  0  0
 36 32  1  0  0  0  0
 37 39  1  1  0  0  0
 37 54  1  0  0  0  0
 38 40  1  0  0  0  0
 39 38  3  0  0  0  0
 41 43  1  0  0  0  0
 42 50  1  6  0  0  0
 42 49  1  0  0  0  0
 43 46  2  1  0  0  0
 43 47  1  0  0  0  0
 45 40  1  1  0  0  0
 45 52  1  0  0  0  0
 48 41  1  0  0  0  0
 49 43  1  0  0  0  0
 51 50  1  0  0  0  0
 51 45  1  0  0  0  0
 52 44  1  6  0  0  0
 52 42  1  0  0  0  0
 52 48  1  0  0  0  0
 54 53  1  0  0  0  0
M  END
>  <MODEL>
2

>  <REMARK>
 VINA RESULT:      -8.9      2.973      4.650
  Name = 
  15 active torsions:
  status: ('A' for Active; 'I' for Inactive)
    1  A    between atoms: C_2  and  C_9
    2  A    between atoms: C_7  and  P_23
    3  A    between atoms: C_9  and  C_22
    4  A    between atoms: C_14  and  O_21
    5  A    between atoms: C_17  and  C_37
    6  A    between atoms: C_17  and  C_51
    7  A    between atoms: C_19  and  C_44
    8  A    between atoms: O_21  and  C_35
    9  A    between atoms: P_23  and  S_27
   10  A    between atoms: C_24  and  C_44
   11  A    between atoms: S_27  and  C_36
   12  A    between atoms: C_32  and  C_35
   13  A    between atoms: O_42  and  C_44
   14  A    between atoms: C_43  and  O_45
   15  A    between atoms: C_46  and  C_47
                            x       y       z     vdW  Elec       q    Type
                         _______ _______ _______ _____ _____    ______ ____

>  <TORSDO>
F 15

$$$$
=
 OpenBabel11042411123D

 54 59  0  0  1  0  0  0  0  0999 V2000
  183.8610  178.4140  142.2460 C   0  0  0  0  0  0  0  0  0  0  0  0
  184.7720  178.3910  143.3130 C   0  0  0  0  0  3  0  0  0  0  0  0
  182.0830  178.8610  143.8370 C   0  0  0  0  0  3  0  0  0  0  0  0
  182.5040  178.6670  142.5110 C   0  0  0  0  0  0  0  0  0  0  0  0
  184.3560  178.6270  144.6300 C   0  0  0  0  0  0  0  0  0  0  0  0
  183.0030  178.8460  144.8860 C   0  0  0  0  0  3  0  0  0  0  0  0
  185.3070  178.5370  145.7860 C   0  0  0  0  0  2  0  0  0  0  0  0
  190.1850  177.3520  146.6210 N   0  0  0  0  0  0  0  0  0  0  0  0
  187.7910  178.0370  146.3690 C   0  0  0  0  0  0  0  0  0  0  0  0
  188.2220  177.1930  143.6900 C   0  0  0  0  0  3  0  0  0  0  0  0
  189.1870  178.0530  145.8190 C   0  0  2  0  0  3  0  0  0  0  0  0
  189.2420  177.2960  144.5430 C   0  0  1  0  0  3  0  0  0  0  0  0
  186.9010  177.7150  144.1090 C   0  0  0  0  0  3  0  0  0  0  0  0
  187.5790  178.1340  147.6050 O   0  0  0  0  0  0  0  0  0  0  0  0
  190.8530  176.5690  145.8290 C   0  0  0  0  0  0  0  0  0  0  0  0
  186.6740  178.0700  145.3890 C   0  0  2  0  0  3  0  0  0  0  0  0
  190.3790  176.5200  144.5210 O   0  0  0  0  0  0  0  0  0  0  0  0
  192.3200  175.8260  147.6430 C   0  0  0  0  0  1  0  0  0  0  0  0
  191.9270  175.8070  146.2810 O   0  0  0  0  0  0  0  0  0  0  0  0
  184.2660  178.1750  140.9220 O   0  0  0  0  0  0  0  0  0  0  0  0
  184.8230  179.9270  139.5020 O   0  0  0  0  0  0  0  0  0  0  0  0
  185.1890  178.9320  140.1870 C   0  0  0  0  0  0  0  0  0  0  0  0
  186.6070  178.5290  140.2280 C   0  0  0  0  0  3  0  0  0  0  0  0
  187.3430  178.1160  139.1910 C   0  0  0  0  0  3  0  0  0  0  0  0
  187.6040  177.1620  136.8680 C   0  0  2  0  0  3  0  0  0  0  0  0
  186.1690  175.1770  136.1570 O   0  0  0  0  0  0  0  0  0  0  0  0
  185.6960  177.0860  137.7480 N   0  0  0  0  0  2  0  0  0  0  0  0
  186.8300  177.9820  137.7840 C   0  0  1  0  0  3  0  0  0  0  0  0
  186.4310  176.2350  136.7880 C   0  0  0  0  0  0  0  0  0  0  0  0
  190.1740  177.6170  137.5140 O   0  0  0  0  0  1  0  0  0  0  0  0
  189.0960  176.2590  137.5720 P   0  0  2  0  0  0  0  0  0  0  0  0
  189.7700  175.4080  135.7460 S   0  0  0  0  0  0  0  0  0  0  0  0
  189.1800  174.0360  135.5810 O   0  0  0  0  0  0  0  0  0  0  0  0
  189.3270  176.2760  134.6010 O   0  0  0  0  0  0  0  0  0  0  0  0
  191.9610  173.8340  135.5690 C   0  0  0  0  0  1  0  0  0  0  0  0
  191.5450  175.2810  135.7440 C   0  0  0  0  0  2  0  0  0  0  0  0
  181.5010  178.6090  141.3870 C   0  0  2  0  0  3  0  0  0  0  0  0
  181.9760  176.5780  139.7120 C   0  0  0  0  0  0  0  0  0  0  0  0
  181.7450  177.4810  140.4740 C   0  0  0  0  0  0  0  0  0  0  0  0
  182.2940  175.5000  138.7730 C   0  0  0  0  0  2  0  0  0  0  0  0
  182.8720  172.9600  135.3490 O   0  0  0  0  0  0  0  0  0  0  0  0
  180.8720  172.8350  137.4960 C   0  0  2  0  0  3  0  0  0  0  0  0
  182.1950  171.4870  135.9010 P   0  0  2  0  0  0  0  0  0  0  0  0
  180.4410  174.4830  135.6300 C   0  0  0  0  0  1  0  0  0  0  0  0
  181.0650  175.1810  137.9190 C   0  0  2  0  0  3  0  0  0  0  0  0
  183.1010  170.8540  136.9320 O   0  0  0  0  0  1  0  0  0  0  0  0
  182.0180  170.4310  134.5950 O   0  0  0  0  0  0  0  0  0  0  0  0
  182.7660  173.9180  136.3860 C   0  0  0  0  0  2  0  0  0  0  0  0
  180.6580  171.7990  136.5770 O   0  0  0  0  0  0  0  0  0  0  0  0
  179.6540  173.1920  138.3130 C   0  0  0  0  0  2  0  0  0  0  0  0
  179.9460  174.6070  138.8030 C   0  0  0  0  0  2  0  0  0  0  0  0
  181.3100  174.1290  136.8360 C   0  0  1  0  0  0  0  0  0  0  0  0
  180.1840  180.1560  140.4940 C   0  0  0  0  0  1  0  0  0  0  0  0
  181.5280  179.8070  140.6690 O   0  0  0  0  0  0  0  0  0  0  0  0
  1  4  2  0  0  0  0
  1  2  1  0  0  0  0
  2  5  2  0  0  0  0
  3  6  2  0  0  0  0
  4  3  1  0  0  0  0
  5  6  1  0  0  0  0
  5  7  1  0  0  0  0
  9 14  2  0  0  0  0
 10 13  2  0  0  0  0
 11  9  1  1  0  0  0
 11  8  1  0  0  0  0
 12 10  1  1  0  0  0
 12 11  1  0  0  0  0
 13 16  1  0  0  0  0
 15 19  1  0  0  0  0
 15  8  2  0  0  0  0
 16  7  1  6  0  0  0
 16  9  1  0  0  0  0
 17 12  1  0  0  0  0
 17 15  1  0  0  0  0
 19 18  1  0  0  0  0
 20  1  1  0  0  0  0
 21 22  2  0  0  0  0
 22 23  1  0  0  0  0
 22 20  1  0  0  0  0
 24 23  2  0  0  0  0
 25 31  1  1  0  0  0
 25 28  1  0  0  0  0
 26 29  2  0  0  0  0
 27 28  1  0  0  0  0
 28 24  1  1  0  0  0
 29 25  1  0  0  0  0
 29 27  1  0  0  0  0
 31 30  1  6  0  0  0
 32 31  1  0  0  0  0
 33 32  2  0  0  0  0
 34 32  2  0  0  0  0
 35 36  1  0  0  0  0
 36 32  1  0  0  0  0
 37 39  1  6  0  0  0
 37  4  1  0  0  0  0
 38 39  3  0  0  0  0
 40 38  1  0  0  0  0
 41 43  1  0  0  0  0
 41 48  1  0  0  0  0
 42 50  1  6  0  0  0
 43 47  2  6  0  0  0
 43 49  1  0  0  0  0
 43 46  1  0  0  0  0
 45 40  1  1  0  0  0
 45 51  1  0  0  0  0
 48 52  1  0  0  0  0
 49 42  1  0  0  0  0
 50 51  1  0  0  0  0
 52 44  1  6  0  0  0
 52 42  1  0  0  0  0
 52 45  1  0  0  0  0
 53 54  1  0  0  0  0
 54 37  1  0  0  0  0
M  END
>  <MODEL>
3

>  <REMARK>
 VINA RESULT:      -8.1      3.343      9.687
  Name = 
  15 active torsions:
  status: ('A' for Active; 'I' for Inactive)
    1  A    between atoms: C_2  and  C_9
    2  A    between atoms: C_7  and  P_23
    3  A    between atoms: C_9  and  C_22
    4  A    between atoms: C_14  and  O_21
    5  A    between atoms: C_17  and  C_37
    6  A    between atoms: C_17  and  C_51
    7  A    between atoms: C_19  and  C_44
    8  A    between atoms: O_21  and  C_35
    9  A    between atoms: P_23  and  S_27
   10  A    between atoms: C_24  and  C_44
   11  A    between atoms: S_27  and  C_36
   12  A    between atoms: C_32  and  C_35
   13  A    between atoms: O_42  and  C_44
   14  A    between atoms: C_43  and  O_45
   15  A    between atoms: C_46  and  C_47
                            x       y       z     vdW  Elec       q    Type
                         _______ _______ _______ _____ _____    ______ ____

>  <TORSDO>
F 15

$$$$
=
 OpenBabel11042411123D

 54 59  0  0  1  0  0  0  0  0999 V2000
  183.9410  178.3860  142.5230 C   0  0  0  0  0  0  0  0  0  0  0  0
  182.7750  178.3480  141.7440 C   0  0  0  0  0  3  0  0  0  0  0  0
  182.5910  179.0560  144.4260 C   0  0  0  0  0  3  0  0  0  0  0  0
  183.8450  178.7290  143.8830 C   0  0  0  0  0  0  0  0  0  0  0  0
  181.5210  178.6340  142.2990 C   0  0  0  0  0  0  0  0  0  0  0  0
  181.4390  179.0040  143.6400 C   0  0  0  0  0  3  0  0  0  0  0  0
  180.2760  178.6650  141.4620 C   0  0  0  0  0  2  0  0  0  0  0  0
  179.2720  182.5080  138.2820 N   0  0  0  0  0  0  0  0  0  0  0  0
  179.5990  180.6520  139.9280 C   0  0  0  0  0  0  0  0  0  0  0  0
  181.5560  179.8260  138.0400 C   0  0  0  0  0  3  0  0  0  0  0  0
  179.4510  181.0760  138.4960 C   0  0  2  0  0  3  0  0  0  0  0  0
  180.7090  180.8150  137.7530 C   0  0  1  0  0  3  0  0  0  0  0  0
  181.3270  179.0420  139.2750 C   0  0  0  0  0  3  0  0  0  0  0  0
  178.9320  181.2020  140.8410 O   0  0  0  0  0  0  0  0  0  0  0  0
  180.1060  182.8790  137.3570 C   0  0  0  0  0  0  0  0  0  0  0  0
  180.4360  179.4530  140.1980 C   0  0  2  0  0  3  0  0  0  0  0  0
  180.9850  181.8860  136.9320 O   0  0  0  0  0  0  0  0  0  0  0  0
  181.3010  184.9850  136.9990 C   0  0  0  0  0  1  0  0  0  0  0  0
  180.1380  184.1850  136.8760 O   0  0  0  0  0  0  0  0  0  0  0  0
  185.2050  178.1050  141.9770 O   0  0  0  0  0  0  0  0  0  0  0  0
  185.3190  179.8370  140.4340 O   0  0  0  0  0  0  0  0  0  0  0  0
  185.8780  178.8630  141.0080 C   0  0  0  0  0  0  0  0  0  0  0  0
  187.2630  178.4860  140.6710 C   0  0  0  0  0  3  0  0  0  0  0  0
  187.7140  178.1260  139.4650 C   0  0  0  0  0  3  0  0  0  0  0  0
  187.3280  177.1730  137.1590 C   0  0  2  0  0  3  0  0  0  0  0  0
  185.6350  175.2920  136.8460 O   0  0  0  0  0  0  0  0  0  0  0  0
  185.6970  177.2170  138.4850 N   0  0  0  0  0  2  0  0  0  0  0  0
  186.8610  178.0350  138.2300 C   0  0  1  0  0  3  0  0  0  0  0  0
  186.1140  176.3250  137.3820 C   0  0  0  0  0  0  0  0  0  0  0  0
  189.9900  177.4980  137.3400 O   0  0  0  0  0  1  0  0  0  0  0  0
  188.8860  176.1690  137.4800 P   0  0  2  0  0  0  0  0  0  0  0  0
  189.1670  175.4820  135.4900 S   0  0  0  0  0  0  0  0  0  0  0  0
  188.1220  176.0870  134.5950 O   0  0  0  0  0  0  0  0  0  0  0  0
  190.5290  175.8990  135.0090 O   0  0  0  0  0  0  0  0  0  0  0  0
  190.4100  173.0810  135.4700 C   0  0  0  0  0  1  0  0  0  0  0  0
  189.0310  173.7080  135.4250 C   0  0  0  0  0  2  0  0  0  0  0  0
  185.0990  178.8580  144.7100 C   0  0  2  0  0  3  0  0  0  0  0  0
  186.9720  177.0670  144.0470 C   0  0  0  0  0  0  0  0  0  0  0  0
  186.1150  177.8560  144.3500 C   0  0  0  0  0  0  0  0  0  0  0  0
  188.0420  176.1400  143.6720 C   0  0  0  0  0  2  0  0  0  0  0  0
  190.0780  177.5290  147.1990 O   0  0  0  0  0  0  0  0  0  0  0  0
  191.0960  176.0660  144.8650 C   0  0  2  0  0  3  0  0  0  0  0  0
  191.3840  176.4250  147.2940 P   0  0  2  0  0  0  0  0  0  0  0  0
  190.8000  178.5620  144.6070 C   0  0  0  0  0  1  0  0  0  0  0  0
  189.3470  176.9140  143.4720 C   0  0  2  0  0  3  0  0  0  0  0  0
  190.8830  175.0650  147.7220 O   0  0  0  0  0  0  0  0  0  0  0  0
  192.5060  176.9850  148.4260 O   0  0  0  0  0  1  0  0  0  0  0  0
  189.2900  177.1950  146.0710 C   0  0  0  0  0  2  0  0  0  0  0  0
  192.1390  176.3230  145.7660 O   0  0  0  0  0  0  0  0  0  0  0  0
  191.5570  175.8100  143.4510 C   0  0  0  0  0  2  0  0  0  0  0  0
  190.3170  176.0930  142.6080 C   0  0  0  0  0  2  0  0  0  0  0  0
  190.1050  177.2100  144.7680 C   0  0  1  0  0  0  0  0  0  0  0  0
  185.8120  179.4100  146.7370 C   0  0  0  0  0  1  0  0  0  0  0  0
  184.7840  178.7410  146.0650 O   0  0  0  0  0  0  0  0  0  0  0  0
  1  4  1  0  0  0  0
  2  5  1  0  0  0  0
  2  1  2  0  0  0  0
  4  3  2  0  0  0  0
  4 37  1  0  0  0  0
  5  6  2  0  0  0  0
  6  3  1  0  0  0  0
  7  5  1  0  0  0  0
  9 16  1  0  0  0  0
  9 14  2  0  0  0  0
 10 13  2  0  0  0  0
 11  8  1  1  0  0  0
 11  9  1  0  0  0  0
 12 10  1  1  0  0  0
 12 11  1  0  0  0  0
 13 16  1  0  0  0  0
 15  8  2  0  0  0  0
 16  7  1  6  0  0  0
 17 15  1  0  0  0  0
 17 12  1  0  0  0  0
 19 18  1  0  0  0  0
 19 15  1  0  0  0  0
 20  1  1  0  0  0  0
 21 22  2  0  0  0  0
 22 20  1  0  0  0  0
 23 22  1  0  0  0  0
 24 23  2  0  0  0  0
 25 29  1  0  0  0  0
 25 31  1  1  0  0  0
 25 28  1  0  0  0  0
 26 29  2  0  0  0  0
 28 27  1  0  0  0  0
 28 24  1  1  0  0  0
 29 27  1  0  0  0  0
 31 30  1  6  0  0  0
 32 31  1  0  0  0  0
 33 32  2  0  0  0  0
 34 32  2  0  0  0  0
 36 35  1  0  0  0  0
 36 32  1  0  0  0  0
 37 39  1  6  0  0  0
 37 54  1  0  0  0  0
 38 39  3  0  0  0  0
 40 38  1  0  0  0  0
 41 43  1  0  0  0  0
 42 50  1  6  0  0  0
 42 49  1  0  0  0  0
 43 46  2  1  0  0  0
 43 47  1  0  0  0  0
 45 40  1  1  0  0  0
 45 52  1  0  0  0  0
 48 41  1  0  0  0  0
 49 43  1  0  0  0  0
 51 50  1  0  0  0  0
 51 45  1  0  0  0  0
 52 44  1  6  0  0  0
 52 42  1  0  0  0  0
 52 48  1  0  0  0  0
 54 53  1  0  0  0  0
M  END
>  <MODEL>
4

>  <REMARK>
 VINA RESULT:      -8.1      2.147      2.779
  Name = 
  15 active torsions:
  status: ('A' for Active; 'I' for Inactive)
    1  A    between atoms: C_2  and  C_9
    2  A    between atoms: C_7  and  P_23
    3  A    between atoms: C_9  and  C_22
    4  A    between atoms: C_14  and  O_21
    5  A    between atoms: C_17  and  C_37
    6  A    between atoms: C_17  and  C_51
    7  A    between atoms: C_19  and  C_44
    8  A    between atoms: O_21  and  C_35
    9  A    between atoms: P_23  and  S_27
   10  A    between atoms: C_24  and  C_44
   11  A    between atoms: S_27  and  C_36
   12  A    between atoms: C_32  and  C_35
   13  A    between atoms: O_42  and  C_44
   14  A    between atoms: C_43  and  O_45
   15  A    between atoms: C_46  and  C_47
                            x       y       z     vdW  Elec       q    Type
                         _______ _______ _______ _____ _____    ______ ____

>  <TORSDO>
F 15

$$$$
=
 OpenBabel11042411123D

 54 59  0  0  1  0  0  0  0  0999 V2000
  183.4620  179.0310  141.5950 C   0  0  0  0  0  0  0  0  0  0  0  0
  184.3750  178.9300  142.6550 C   0  0  0  0  0  3  0  0  0  0  0  0
  181.6550  178.7200  143.1850 C   0  0  0  0  0  3  0  0  0  0  0  0
  182.0860  178.9400  141.8670 C   0  0  0  0  0  0  0  0  0  0  0  0
  183.9400  178.7530  143.9750 C   0  0  0  0  0  0  0  0  0  0  0  0
  182.5750  178.6320  144.2300 C   0  0  0  0  0  3  0  0  0  0  0  0
  184.9080  178.5740  145.1070 C   0  0  0  0  0  2  0  0  0  0  0  0
  189.8330  177.4680  145.7470 N   0  0  0  0  0  0  0  0  0  0  0  0
  187.4220  178.1170  145.5890 C   0  0  0  0  0  0  0  0  0  0  0  0
  187.7480  177.2380  142.9060 C   0  0  0  0  0  3  0  0  0  0  0  0
  188.7920  178.1420  144.9790 C   0  0  2  0  0  3  0  0  0  0  0  0
  188.8020  177.3670  143.7120 C   0  0  1  0  0  3  0  0  0  0  0  0
  186.4390  177.7480  143.3750 C   0  0  0  0  0  3  0  0  0  0  0  0
  187.2620  178.2290  146.8320 O   0  0  0  0  0  0  0  0  0  0  0  0
  190.4780  176.6820  144.9380 C   0  0  0  0  0  0  0  0  0  0  0  0
  186.2630  178.1200  144.6580 C   0  0  2  0  0  3  0  0  0  0  0  0
  189.9490  176.6070  143.6520 O   0  0  0  0  0  0  0  0  0  0  0  0
  192.0530  176.0130  146.6880 C   0  0  0  0  0  1  0  0  0  0  0  0
  191.5810  175.9420  145.3540 O   0  0  0  0  0  0  0  0  0  0  0  0
  183.8870  179.2050  140.2670 O   0  0  0  0  0  0  0  0  0  0  0  0
  184.1490  176.9900  139.6210 O   0  0  0  0  0  0  0  0  0  0  0  0
  184.3980  178.2110  139.4210 C   0  0  0  0  0  0  0  0  0  0  0  0
  185.2440  178.6300  138.2890 C   0  0  0  0  0  3  0  0  0  0  0  0
  186.5520  178.3910  138.1470 C   0  0  0  0  0  3  0  0  0  0  0  0
  188.5170  176.8810  138.6340 C   0  0  2  0  0  3  0  0  0  0  0  0
  190.6670  177.8840  139.5710 O   0  0  0  0  0  0  0  0  0  0  0  0
  188.2490  178.5670  139.8620 N   0  0  0  0  0  2  0  0  0  0  0  0
  187.3940  177.6470  139.1470 C   0  0  1  0  0  3  0  0  0  0  0  0
  189.4230  177.8010  139.3920 C   0  0  0  0  0  0  0  0  0  0  0  0
  187.4090  176.2190  136.2760 O   0  0  0  0  0  1  0  0  0  0  0  0
  188.8690  177.0010  136.7910 P   0  0  2  0  0  0  0  0  0  0  0  0
  190.0750  175.2580  136.6430 S   0  0  0  0  0  0  0  0  0  0  0  0
  191.2720  175.5440  135.7800 O   0  0  0  0  0  0  0  0  0  0  0  0
  190.5410  174.8600  138.0170 O   0  0  0  0  0  0  0  0  0  0  0  0
  188.6970  172.9600  137.0020 C   0  0  0  0  0  1  0  0  0  0  0  0
  189.1440  173.9240  135.9220 C   0  0  0  0  0  2  0  0  0  0  0  0
  181.0980  178.9610  140.7280 C   0  0  2  0  0  3  0  0  0  0  0  0
  180.9170  176.6010  139.4800 C   0  0  0  0  0  0  0  0  0  0  0  0
  181.0170  177.6680  140.0300 C   0  0  0  0  0  0  0  0  0  0  0  0
  180.7560  175.2980  138.8310 C   0  0  0  0  0  2  0  0  0  0  0  0
  184.2550  173.6630  136.9370 O   0  0  0  0  0  0  0  0  0  0  0  0
  181.4140  173.3880  136.2480 C   0  0  2  0  0  3  0  0  0  0  0  0
  183.6140  172.2620  136.1900 P   0  0  2  0  0  0  0  0  0  0  0  0
  182.5660  175.5130  135.5110 C   0  0  0  0  0  1  0  0  0  0  0  0
  180.8740  175.4600  137.3140 C   0  0  2  0  0  3  0  0  0  0  0  0
  183.2920  171.2180  137.2350 O   0  0  0  0  0  1  0  0  0  0  0  0
  184.7520  171.6350  135.1110 O   0  0  0  0  0  0  0  0  0  0  0  0
  183.2090  174.3230  137.6250 C   0  0  0  0  0  2  0  0  0  0  0  0
  182.2040  172.6870  135.3260 O   0  0  0  0  0  0  0  0  0  0  0  0
  180.0460  173.7570  135.7280 C   0  0  0  0  0  2  0  0  0  0  0  0
  179.6130  174.9100  136.6280 C   0  0  0  0  0  2  0  0  0  0  0  0
  182.0440  174.6950  136.6920 C   0  0  1  0  0  0  0  0  0  0  0  0
  180.3640  180.8470  139.8190 C   0  0  0  0  0  1  0  0  0  0  0  0
  181.4470  179.9620  139.8190 O   0  0  0  0  0  0  0  0  0  0  0  0
  1  4  2  0  0  0  0
  1  2  1  0  0  0  0
  2  5  2  0  0  0  0
  3  6  2  0  0  0  0
  4  3  1  0  0  0  0
  5  6  1  0  0  0  0
  5  7  1  0  0  0  0
  9 14  2  0  0  0  0
 10 13  2  0  0  0  0
 11  9  1  1  0  0  0
 11  8  1  0  0  0  0
 12 10  1  1  0  0  0
 12 11  1  0  0  0  0
 13 16  1  0  0  0  0
 15 19  1  0  0  0  0
 15  8  2  0  0  0  0
 16  7  1  6  0  0  0
 16  9  1  0  0  0  0
 17 12  1  0  0  0  0
 17 15  1  0  0  0  0
 19 18  1  0  0  0  0
 20  1  1  0  0  0  0
 22 21  2  0  0  0  0
 22 20  1  0  0  0  0
 23 22  1  0  0  0  0
 24 23  2  0  0  0  0
 25 31  1  6  0  0  0
 25 28  1  0  0  0  0
 25 29  1  0  0  0  0
 28 24  1  6  0  0  0
 28 27  1  0  0  0  0
 29 26  2  0  0  0  0
 29 27  1  0  0  0  0
 31 30  1  6  0  0  0
 32 31  1  0  0  0  0
 32 34  2  0  0  0  0
 33 32  2  0  0  0  0
 36 32  1  0  0  0  0
 36 35  1  0  0  0  0
 37 39  1  6  0  0  0
 37  4  1  0  0  0  0
 38 39  3  0  0  0  0
 40 38  1  0  0  0  0
 41 48  1  0  0  0  0
 42 50  1  6  0  0  0
 42 52  1  0  0  0  0
 43 47  2  6  0  0  0
 43 41  1  0  0  0  0
 43 46  1  0  0  0  0
 45 40  1  1  0  0  0
 49 43  1  0  0  0  0
 49 42  1  0  0  0  0
 50 51  1  0  0  0  0
 51 45  1  0  0  0  0
 52 44  1  6  0  0  0
 52 45  1  0  0  0  0
 52 48  1  0  0  0  0
 54 53  1  0  0  0  0
 54 37  1  0  0  0  0
M  END
>  <MODEL>
5

>  <REMARK>
 VINA RESULT:      -7.5      3.292      9.341
  Name = 
  15 active torsions:
  status: ('A' for Active; 'I' for Inactive)
    1  A    between atoms: C_2  and  C_9
    2  A    between atoms: C_7  and  P_23
    3  A    between atoms: C_9  and  C_22
    4  A    between atoms: C_14  and  O_21
    5  A    between atoms: C_17  and  C_37
    6  A    between atoms: C_17  and  C_51
    7  A    between atoms: C_19  and  C_44
    8  A    between atoms: O_21  and  C_35
    9  A    between atoms: P_23  and  S_27
   10  A    between atoms: C_24  and  C_44
   11  A    between atoms: S_27  and  C_36
   12  A    between atoms: C_32  and  C_35
   13  A    between atoms: O_42  and  C_44
   14  A    between atoms: C_43  and  O_45
   15  A    between atoms: C_46  and  C_47
                            x       y       z     vdW  Elec       q    Type
                         _______ _______ _______ _____ _____    ______ ____

>  <TORSDO>
F 15

$$$$
=
 OpenBabel11042411123D

 54 59  0  0  1  0  0  0  0  0999 V2000
  188.5570  175.5890  137.4110 C   0  0  0  0  0  0  0  0  0  0  0  0
  189.4010  176.3230  138.2570 C   0  0  0  0  0  3  0  0  0  0  0  0
  186.7770  177.1660  137.8990 C   0  0  0  0  0  3  0  0  0  0  0  0
  187.2340  176.0250  137.2190 C   0  0  0  0  0  0  0  0  0  0  0  0
  188.9550  177.4840  138.9000 C   0  0  0  0  0  0  0  0  0  0  0  0
  187.6330  177.8910  138.7290 C   0  0  0  0  0  3  0  0  0  0  0  0
  189.8270  178.2390  139.8600 C   0  0  0  0  0  2  0  0  0  0  0  0
  191.4670  176.5430  144.3690 N   0  0  0  0  0  0  0  0  0  0  0  0
  190.8200  177.3110  142.0760 C   0  0  0  0  0  0  0  0  0  0  0  0
  188.2340  177.4160  143.2490 C   0  0  0  0  0  3  0  0  0  0  0  0
  190.5240  176.4380  143.2600 C   0  0  2  0  0  3  0  0  0  0  0  0
  189.2550  176.8620  143.9030 C   0  0  1  0  0  3  0  0  0  0  0  0
  188.4310  177.7930  141.8300 C   0  0  0  0  0  3  0  0  0  0  0  0
  192.0030  177.5080  141.6940 O   0  0  0  0  0  0  0  0  0  0  0  0
  190.7810  176.7020  145.4610 C   0  0  0  0  0  0  0  0  0  0  0  0
  189.6610  177.7930  141.2810 C   0  0  2  0  0  3  0  0  0  0  0  0
  189.4090  176.8460  145.2710 O   0  0  0  0  0  0  0  0  0  0  0  0
  192.1290  175.6770  147.2280 C   0  0  0  0  0  1  0  0  0  0  0  0
  191.3910  176.7700  146.7100 O   0  0  0  0  0  0  0  0  0  0  0  0
  188.9920  174.4200  136.7630 O   0  0  0  0  0  0  0  0  0  0  0  0
  189.5840  175.0870  134.6190 O   0  0  0  0  0  0  0  0  0  0  0  0
  189.8060  174.3570  135.6230 C   0  0  0  0  0  0  0  0  0  0  0  0
  190.9300  173.4030  135.6260 C   0  0  0  0  0  3  0  0  0  0  0  0
  192.1180  173.5810  136.2140 C   0  0  0  0  0  3  0  0  0  0  0  0
  193.9210  174.9820  137.2900 C   0  0  2  0  0  3  0  0  0  0  0  0
  194.7640  177.0740  136.0970 O   0  0  0  0  0  0  0  0  0  0  0  0
  192.4880  175.9690  136.1090 N   0  0  0  0  0  2  0  0  0  0  0  0
  192.5130  174.8150  136.9780 C   0  0  1  0  0  3  0  0  0  0  0  0
  193.9150  176.2020  136.4200 C   0  0  0  0  0  0  0  0  0  0  0  0
  194.6300  172.4160  137.6570 O   0  0  0  0  0  1  0  0  0  0  0  0
  195.1140  173.7030  136.6010 P   0  0  2  0  0  0  0  0  0  0  0  0
  196.8020  174.2710  137.7580 S   0  0  0  0  0  0  0  0  0  0  0  0
  197.8500  173.1960  137.6830 O   0  0  0  0  0  0  0  0  0  0  0  0
  197.3690  175.5520  137.2130 O   0  0  0  0  0  0  0  0  0  0  0  0
  197.4380  175.2210  140.2080 C   0  0  0  0  0  1  0  0  0  0  0  0
  196.3320  174.5050  139.4590 C   0  0  0  0  0  2  0  0  0  0  0  0
  186.2910  175.1980  136.3820 C   0  0  2  0  0  3  0  0  0  0  0  0
  183.7310  175.7790  136.8990 C   0  0  0  0  0  0  0  0  0  0  0  0
  184.8790  175.5180  136.6450 C   0  0  0  0  0  0  0  0  0  0  0  0
  182.3470  176.1020  137.2510 C   0  0  0  0  0  2  0  0  0  0  0  0
  182.0190  179.9520  139.1430 O   0  0  0  0  0  0  0  0  0  0  0  0
  180.3840  177.5320  139.4550 C   0  0  2  0  0  3  0  0  0  0  0  0
  180.3490  180.0030  139.5210 P   0  0  2  0  0  0  0  0  0  0  0  0
  182.5690  177.6030  140.7210 C   0  0  0  0  0  1  0  0  0  0  0  0
  182.1950  176.1260  138.7740 C   0  0  2  0  0  3  0  0  0  0  0  0
  179.5380  180.1910  138.2600 O   0  0  0  0  0  0  0  0  0  0  0  0
  180.0550  181.2950  140.5680 O   0  0  0  0  0  1  0  0  0  0  0  0
  182.2940  178.7240  138.4940 C   0  0  0  0  0  2  0  0  0  0  0  0
  179.9080  178.5470  140.2970 O   0  0  0  0  0  0  0  0  0  0  0  0
  179.9900  176.1410  139.8880 C   0  0  0  0  0  2  0  0  0  0  0  0
  181.0100  175.2420  139.1970 C   0  0  0  0  0  2  0  0  0  0  0  0
  181.8970  177.5110  139.3520 C   0  0  1  0  0  0  0  0  0  0  0  0
  186.1210  173.1960  135.4430 C   0  0  0  0  0  1  0  0  0  0  0  0
  186.5160  173.8410  136.6190 O   0  0  0  0  0  0  0  0  0  0  0  0
  1  2  1  0  0  0  0
  2  5  2  0  0  0  0
  3  6  2  0  0  0  0
  4  1  2  0  0  0  0
  4  3  1  0  0  0  0
  5  7  1  0  0  0  0
  6  5  1  0  0  0  0
  8 15  2  0  0  0  0
 11  9  1  6  0  0  0
 11 12  1  0  0  0  0
 11  8  1  0  0  0  0
 12 10  1  6  0  0  0
 12 17  1  0  0  0  0
 13 10  2  0  0  0  0
 14  9  2  0  0  0  0
 15 19  1  0  0  0  0
 16  7  1  6  0  0  0
 16 13  1  0  0  0  0
 16  9  1  0  0  0  0
 17 15  1  0  0  0  0
 19 18  1  0  0  0  0
 20  1  1  0  0  0  0
 21 22  2  0  0  0  0
 22 23  1  0  0  0  0
 22 20  1  0  0  0  0
 23 24  2  0  0  0  0
 25 31  1  6  0  0  0
 26 29  2  0  0  0  0
 27 29  1  0  0  0  0
 27 28  1  0  0  0  0
 28 24  1  6  0  0  0
 28 25  1  0  0  0  0
 29 25  1  0  0  0  0
 31 30  1  1  0  0  0
 31 32  1  0  0  0  0
 32 36  1  0  0  0  0
 33 32  2  0  0  0  0
 34 32  2  0  0  0  0
 36 35  1  0  0  0  0
 37 54  1  0  0  0  0
 37 39  1  1  0  0  0
 37  4  1  0  0  0  0
 38 40  1  0  0  0  0
 39 38  3  0  0  0  0
 41 43  1  0  0  0  0
 42 50  1  1  0  0  0
 42 49  1  0  0  0  0
 43 46  2  6  0  0  0
 43 49  1  0  0  0  0
 43 47  1  0  0  0  0
 45 40  1  6  0  0  0
 45 51  1  0  0  0  0
 45 52  1  0  0  0  0
 48 41  1  0  0  0  0
 48 52  1  0  0  0  0
 51 50  1  0  0  0  0
 52 42  1  0  0  0  0
 52 44  1  1  0  0  0
 53 54  1  0  0  0  0
M  END
>  <MODEL>
6

>  <REMARK>
 VINA RESULT:      -7.5      5.243     11.336
  Name = 
  15 active torsions:
  status: ('A' for Active; 'I' for Inactive)
    1  A    between atoms: C_2  and  C_9
    2  A    between atoms: C_7  and  P_23
    3  A    between atoms: C_9  and  C_22
    4  A    between atoms: C_14  and  O_21
    5  A    between atoms: C_17  and  C_37
    6  A    between atoms: C_17  and  C_51
    7  A    between atoms: C_19  and  C_44
    8  A    between atoms: O_21  and  C_35
    9  A    between atoms: P_23  and  S_27
   10  A    between atoms: C_24  and  C_44
   11  A    between atoms: S_27  and  C_36
   12  A    between atoms: C_32  and  C_35
   13  A    between atoms: O_42  and  C_44
   14  A    between atoms: C_43  and  O_45
   15  A    between atoms: C_46  and  C_47
                            x       y       z     vdW  Elec       q    Type
                         _______ _______ _______ _____ _____    ______ ____

>  <TORSDO>
F 15

$$$$
=
 OpenBabel11042411123D

 54 59  0  0  1  0  0  0  0  0999 V2000
  183.3300  178.3250  141.9080 C   0  0  0  0  0  0  0  0  0  0  0  0
  183.2810  178.3100  143.3100 C   0  0  0  0  0  3  0  0  0  0  0  0
  185.4800  179.4430  142.0420 C   0  0  0  0  0  3  0  0  0  0  0  0
  184.4500  178.8840  141.2680 C   0  0  0  0  0  0  0  0  0  0  0  0
  184.3300  178.8310  144.0790 C   0  0  0  0  0  0  0  0  0  0  0  0
  185.4220  179.4120  143.4360 C   0  0  0  0  0  3  0  0  0  0  0  0
  184.2590  178.8840  145.5770 C   0  0  0  0  0  2  0  0  0  0  0  0
  188.8370  176.7220  146.0800 N   0  0  0  0  0  0  0  0  0  0  0  0
  186.5360  177.6380  145.7250 C   0  0  0  0  0  0  0  0  0  0  0  0
  187.2190  179.2130  147.9900 C   0  0  0  0  0  3  0  0  0  0  0  0
  187.5700  177.1230  146.6820 C   0  0  2  0  0  3  0  0  0  0  0  0
  188.0020  178.2060  147.6000 C   0  0  1  0  0  3  0  0  0  0  0  0
  185.8960  179.3650  147.3420 C   0  0  0  0  0  3  0  0  0  0  0  0
  186.3940  177.1270  144.5840 O   0  0  0  0  0  0  0  0  0  0  0  0
  189.7940  177.2760  146.7630 C   0  0  0  0  0  0  0  0  0  0  0  0
  185.5840  178.6580  146.2380 C   0  0  2  0  0  3  0  0  0  0  0  0
  189.3690  178.1550  147.7550 O   0  0  0  0  0  0  0  0  0  0  0  0
  191.9430  176.2610  147.3480 C   0  0  0  0  0  1  0  0  0  0  0  0
  191.1350  177.0350  146.4790 O   0  0  0  0  0  0  0  0  0  0  0  0
  182.2830  177.8090  141.1260 O   0  0  0  0  0  0  0  0  0  0  0  0
  180.7030  179.4880  141.4030 O   0  0  0  0  0  0  0  0  0  0  0  0
  180.9720  178.3040  141.0620 C   0  0  0  0  0  0  0  0  0  0  0  0
  179.9100  177.3970  140.5910 C   0  0  0  0  0  3  0  0  0  0  0  0
  179.6290  177.1000  139.3180 C   0  0  0  0  0  3  0  0  0  0  0  0
  181.2780  176.7810  137.4330 C   0  0  2  0  0  3  0  0  0  0  0  0
  180.4170  176.4480  135.0550 O   0  0  0  0  0  0  0  0  0  0  0  0
  179.4710  177.7650  136.9970 N   0  0  0  0  0  2  0  0  0  0  0  0
  180.3620  177.6650  138.1310 C   0  0  1  0  0  3  0  0  0  0  0  0
  180.3900  176.8940  136.2320 C   0  0  0  0  0  0  0  0  0  0  0  0
  182.3100  175.3050  139.4280 O   0  0  0  0  0  1  0  0  0  0  0  0
  181.3610  174.9940  138.0110 P   0  0  2  0  0  0  0  0  0  0  0  0
  183.0090  174.4070  136.8060 S   0  0  0  0  0  0  0  0  0  0  0  0
  183.3860  175.5320  135.8840 O   0  0  0  0  0  0  0  0  0  0  0  0
  184.1800  174.0810  137.6920 O   0  0  0  0  0  0  0  0  0  0  0  0
  181.7780  172.0030  136.6700 C   0  0  0  0  0  1  0  0  0  0  0  0
  182.5830  172.9780  135.8340 C   0  0  0  0  0  2  0  0  0  0  0  0
  184.4760  178.9840  139.7640 C   0  0  2  0  0  3  0  0  0  0  0  0
  186.8310  178.2540  138.7260 C   0  0  0  0  0  0  0  0  0  0  0  0
  185.7650  178.5610  139.1950 C   0  0  0  0  0  0  0  0  0  0  0  0
  188.1400  177.9230  138.1580 C   0  0  0  0  0  2  0  0  0  0  0  0
  191.4780  175.9780  136.2650 O   0  0  0  0  0  0  0  0  0  0  0  0
  188.6350  175.2470  136.3290 C   0  0  2  0  0  3  0  0  0  0  0  0
  190.9380  174.3550  136.2080 P   0  0  2  0  0  0  0  0  0  0  0  0
  189.3170  177.0270  134.6720 C   0  0  0  0  0  1  0  0  0  0  0  0
  187.9780  177.5170  136.6910 C   0  0  2  0  0  3  0  0  0  0  0  0
  190.9540  173.7530  137.5940 O   0  0  0  0  0  1  0  0  0  0  0  0
  191.9600  173.4620  135.2030 O   0  0  0  0  0  0  0  0  0  0  0  0
  190.4750  176.7640  136.8820 C   0  0  0  0  0  2  0  0  0  0  0  0
  189.3550  174.3160  135.5660 O   0  0  0  0  0  0  0  0  0  0  0  0
  187.1600  175.2870  136.0130 C   0  0  0  0  0  2  0  0  0  0  0  0
  186.7160  176.6550  136.5220 C   0  0  0  0  0  2  0  0  0  0  0  0
  189.1280  176.6690  136.1450 C   0  0  1  0  0  0  0  0  0  0  0  0
  182.9650  180.2270  138.7180 C   0  0  0  0  0  1  0  0  0  0  0  0
  184.1990  180.2950  139.3740 O   0  0  0  0  0  0  0  0  0  0  0  0
  1  2  1  0  0  0  0
  2  5  2  0  0  0  0
  3  6  2  0  0  0  0
  4  1  2  0  0  0  0
  4  3  1  0  0  0  0
  5  7  1  0  0  0  0
  6  5  1  0  0  0  0
  8 11  1  0  0  0  0
  8 15  2  0  0  0  0
  9 16  1  0  0  0  0
 11  9  1  6  0  0  0
 11 12  1  0  0  0  0
 12 17  1  0  0  0  0
 12 10  1  6  0  0  0
 13 10  2  0  0  0  0
 14  9  2  0  0  0  0
 15 17  1  0  0  0  0
 16  7  1  1  0  0  0
 16 13  1  0  0  0  0
 19 15  1  0  0  0  0
 19 18  1  0  0  0  0
 20  1  1  0  0  0  0
 22 20  1  0  0  0  0
 22 21  2  0  0  0  0
 23 22  1  0  0  0  0
 24 23  2  0  0  0  0
 25 31  1  1  0  0  0
 25 28  1  0  0  0  0
 26 29  2  0  0  0  0
 27 28  1  0  0  0  0
 28 24  1  1  0  0  0
 29 27  1  0  0  0  0
 29 25  1  0  0  0  0
 31 30  1  1  0  0  0
 32 34  2  0  0  0  0
 32 31  1  0  0  0  0
 33 32  2  0  0  0  0
 36 35  1  0  0  0  0
 36 32  1  0  0  0  0
 37 39  1  1  0  0  0
 37  4  1  0  0  0  0
 38 39  3  0  0  0  0
 40 38  1  0  0  0  0
 41 48  1  0  0  0  0
 42 50  1  6  0  0  0
 43 47  2  6  0  0  0
 43 41  1  0  0  0  0
 43 46  1  0  0  0  0
 45 40  1  1  0  0  0
 49 43  1  0  0  0  0
 49 42  1  0  0  0  0
 50 51  1  0  0  0  0
 51 45  1  0  0  0  0
 52 44  1  6  0  0  0
 52 42  1  0  0  0  0
 52 45  1  0  0  0  0
 52 48  1  0  0  0  0
 53 54  1  0  0  0  0
 54 37  1  0  0  0  0
M  END
>  <MODEL>
7

>  <REMARK>
 VINA RESULT:      -7.4      3.327      8.297
  Name = 
  15 active torsions:
  status: ('A' for Active; 'I' for Inactive)
    1  A    between atoms: C_2  and  C_9
    2  A    between atoms: C_7  and  P_23
    3  A    between atoms: C_9  and  C_22
    4  A    between atoms: C_14  and  O_21
    5  A    between atoms: C_17  and  C_37
    6  A    between atoms: C_17  and  C_51
    7  A    between atoms: C_19  and  C_44
    8  A    between atoms: O_21  and  C_35
    9  A    between atoms: P_23  and  S_27
   10  A    between atoms: C_24  and  C_44
   11  A    between atoms: S_27  and  C_36
   12  A    between atoms: C_32  and  C_35
   13  A    between atoms: O_42  and  C_44
   14  A    between atoms: C_43  and  O_45
   15  A    between atoms: C_46  and  C_47
                            x       y       z     vdW  Elec       q    Type
                         _______ _______ _______ _____ _____    ______ ____

>  <TORSDO>
F 15

$$$$
=
 OpenBabel11042411123D

 54 59  0  0  1  0  0  0  0  0999 V2000
  183.7300  179.1390  141.8550 C   0  0  0  0  0  0  0  0  0  0  0  0
  184.6170  178.9620  142.9270 C   0  0  0  0  0  3  0  0  0  0  0  0
  181.8940  178.5940  143.3470 C   0  0  0  0  0  3  0  0  0  0  0  0
  182.3510  178.9670  142.0720 C   0  0  0  0  0  0  0  0  0  0  0  0
  184.1530  178.6310  144.2070 C   0  0  0  0  0  0  0  0  0  0  0  0
  182.7880  178.4320  144.4060 C   0  0  0  0  0  3  0  0  0  0  0  0
  185.0970  178.3720  145.3450 C   0  0  0  0  0  2  0  0  0  0  0  0
  190.0620  177.4370  145.9420 N   0  0  0  0  0  0  0  0  0  0  0  0
  187.6310  178.0120  145.7970 C   0  0  0  0  0  0  0  0  0  0  0  0
  187.9250  176.9700  143.1700 C   0  0  0  0  0  3  0  0  0  0  0  0
  188.9870  178.0330  145.1560 C   0  0  2  0  0  3  0  0  0  0  0  0
  188.9920  177.1780  143.9420 C   0  0  1  0  0  3  0  0  0  0  0  0
  186.6130  177.4760  143.6350 C   0  0  0  0  0  3  0  0  0  0  0  0
  187.4940  178.2010  147.0340 O   0  0  0  0  0  0  0  0  0  0  0  0
  190.7110  176.6170  145.1710 C   0  0  0  0  0  0  0  0  0  0  0  0
  186.4540  177.9250  144.8950 C   0  0  2  0  0  3  0  0  0  0  0  0
  190.1570  176.4450  143.9050 O   0  0  0  0  0  0  0  0  0  0  0  0
  192.1030  175.7530  146.9900 C   0  0  0  0  0  1  0  0  0  0  0  0
  191.8420  175.9340  145.6080 O   0  0  0  0  0  0  0  0  0  0  0  0
  184.1830  179.4670  140.5660 O   0  0  0  0  0  0  0  0  0  0  0  0
  186.2630  178.4780  140.2690 O   0  0  0  0  0  0  0  0  0  0  0  0
  185.1210  178.7520  139.8080 C   0  0  0  0  0  0  0  0  0  0  0  0
  184.7390  178.3320  138.4480 C   0  0  0  0  0  3  0  0  0  0  0  0
  185.5050  177.6610  137.5820 C   0  0  0  0  0  3  0  0  0  0  0  0
  187.3180  175.9170  137.3660 C   0  0  2  0  0  3  0  0  0  0  0  0
  189.1710  176.2400  135.6420 O   0  0  0  0  0  0  0  0  0  0  0  0
  187.8350  177.9190  136.9810 N   0  0  0  0  0  2  0  0  0  0  0  0
  186.9180  177.2240  137.8570 C   0  0  1  0  0  3  0  0  0  0  0  0
  188.2990  176.6110  136.4720 C   0  0  0  0  0  0  0  0  0  0  0  0
  184.9620  174.6530  137.6350 O   0  0  0  0  0  1  0  0  0  0  0  0
  186.0670  174.9640  136.3360 P   0  0  2  0  0  0  0  0  0  0  0  0
  187.0250  173.0720  136.4490 S   0  0  0  0  0  0  0  0  0  0  0  0
  188.5160  173.2630  136.4920 O   0  0  0  0  0  0  0  0  0  0  0  0
  186.5820  172.3650  137.7000 O   0  0  0  0  0  0  0  0  0  0  0  0
  185.1040  172.0600  134.8380 C   0  0  0  0  0  1  0  0  0  0  0  0
  186.6080  172.0840  135.0280 C   0  0  0  0  0  2  0  0  0  0  0  0
  181.3950  179.0690  140.9110 C   0  0  2  0  0  3  0  0  0  0  0  0
  181.5630  176.9700  139.2620 C   0  0  0  0  0  0  0  0  0  0  0  0
  181.4720  177.9040  140.0160 C   0  0  0  0  0  0  0  0  0  0  0  0
  181.7080  175.8530  138.3250 C   0  0  0  0  0  2  0  0  0  0  0  0
  181.5600  173.0080  135.1010 O   0  0  0  0  0  0  0  0  0  0  0  0
  180.2170  172.9980  137.7130 C   0  0  2  0  0  3  0  0  0  0  0  0
  181.1730  171.5660  135.9390 P   0  0  2  0  0  0  0  0  0  0  0  0
  179.1770  174.4190  135.9000 C   0  0  0  0  0  1  0  0  0  0  0  0
  180.3270  175.3820  137.8660 C   0  0  2  0  0  3  0  0  0  0  0  0
  182.3670  171.0920  136.7360 O   0  0  0  0  0  1  0  0  0  0  0  0
  180.7410  170.3720  134.8240 O   0  0  0  0  0  0  0  0  0  0  0  0
  181.6560  174.0610  136.0420 C   0  0  0  0  0  2  0  0  0  0  0  0
  179.8500  171.8620  136.9770 O   0  0  0  0  0  0  0  0  0  0  0  0
  179.2330  173.3710  138.7950 C   0  0  0  0  0  2  0  0  0  0  0  0
  179.5310  174.8420  139.0660 C   0  0  0  0  0  2  0  0  0  0  0  0
  180.3600  174.2380  136.8510 C   0  0  1  0  0  0  0  0  0  0  0  0
  180.4240  180.8940  140.1050 C   0  0  0  0  0  1  0  0  0  0  0  0
  181.6550  180.2340  140.1870 O   0  0  0  0  0  0  0  0  0  0  0  0
  1  4  2  0  0  0  0
  1  2  1  0  0  0  0
  2  5  2  0  0  0  0
  3  6  2  0  0  0  0
  4  3  1  0  0  0  0
  5  6  1  0  0  0  0
  5  7  1  0  0  0  0
  9 14  2  0  0  0  0
 10 13  2  0  0  0  0
 11  9  1  1  0  0  0
 11  8  1  0  0  0  0
 12 10  1  1  0  0  0
 12 11  1  0  0  0  0
 13 16  1  0  0  0  0
 15 19  1  0  0  0  0
 15  8  2  0  0  0  0
 16  7  1  6  0  0  0
 16  9  1  0  0  0  0
 17 12  1  0  0  0  0
 17 15  1  0  0  0  0
 19 18  1  0  0  0  0
 20  1  1  0  0  0  0
 22 21  2  0  0  0  0
 22 20  1  0  0  0  0
 23 22  1  0  0  0  0
 24 23  2  0  0  0  0
 25 31  1  6  0  0  0
 25 28  1  0  0  0  0
 26 29  2  0  0  0  0
 27 28  1  0  0  0  0
 28 24  1  6  0  0  0
 29 27  1  0  0  0  0
 29 25  1  0  0  0  0
 31 32  1  0  0  0  0
 31 30  1  1  0  0  0
 32 33  2  0  0  0  0
 32 34  2  0  0  0  0
 35 36  1  0  0  0  0
 36 32  1  0  0  0  0
 37 39  1  6  0  0  0
 37  4  1  0  0  0  0
 38 39  3  0  0  0  0
 40 38  1  0  0  0  0
 41 43  1  0  0  0  0
 41 48  1  0  0  0  0
 42 50  1  1  0  0  0
 43 47  2  6  0  0  0
 43 46  1  0  0  0  0
 43 49  1  0  0  0  0
 45 40  1  1  0  0  0
 45 51  1  0  0  0  0
 48 52  1  0  0  0  0
 49 42  1  0  0  0  0
 50 51  1  0  0  0  0
 52 44  1  6  0  0  0
 52 42  1  0  0  0  0
 52 45  1  0  0  0  0
 53 54  1  0  0  0  0
 54 37  1  0  0  0  0
M  END
>  <MODEL>
8

>  <REMARK>
 VINA RESULT:      -7.3      3.052      9.492
  Name = 
  15 active torsions:
  status: ('A' for Active; 'I' for Inactive)
    1  A    between atoms: C_2  and  C_9
    2  A    between atoms: C_7  and  P_23
    3  A    between atoms: C_9  and  C_22
    4  A    between atoms: C_14  and  O_21
    5  A    between atoms: C_17  and  C_37
    6  A    between atoms: C_17  and  C_51
    7  A    between atoms: C_19  and  C_44
    8  A    between atoms: O_21  and  C_35
    9  A    between atoms: P_23  and  S_27
   10  A    between atoms: C_24  and  C_44
   11  A    between atoms: S_27  and  C_36
   12  A    between atoms: C_32  and  C_35
   13  A    between atoms: O_42  and  C_44
   14  A    between atoms: C_43  and  O_45
   15  A    between atoms: C_46  and  C_47
                            x       y       z     vdW  Elec       q    Type
                         _______ _______ _______ _____ _____    ______ ____

>  <TORSDO>
F 15

$$$$
=
 OpenBabel11042411123D

 54 59  0  0  1  0  0  0  0  0999 V2000
  183.3680  178.2780  141.6260 C   0  0  0  0  0  0  0  0  0  0  0  0
  183.2950  178.2530  143.0270 C   0  0  0  0  0  3  0  0  0  0  0  0
  185.5250  179.3780  141.8050 C   0  0  0  0  0  3  0  0  0  0  0  0
  184.5040  178.8330  141.0100 C   0  0  0  0  0  0  0  0  0  0  0  0
  184.3350  178.7590  143.8180 C   0  0  0  0  0  0  0  0  0  0  0  0
  185.4420  179.3370  143.1980 C   0  0  0  0  0  3  0  0  0  0  0  0
  184.2380  178.8020  145.3140 C   0  0  0  0  0  2  0  0  0  0  0  0
  188.8580  176.7510  145.8960 N   0  0  0  0  0  0  0  0  0  0  0  0
  186.5410  177.6110  145.5030 C   0  0  0  0  0  0  0  0  0  0  0  0
  187.1560  179.2160  147.7660 C   0  0  0  0  0  3  0  0  0  0  0  0
  187.5730  177.1260  146.4780 C   0  0  2  0  0  3  0  0  0  0  0  0
  187.9670  178.2250  147.3940 C   0  0  1  0  0  3  0  0  0  0  0  0
  185.8390  179.3330  147.0980 C   0  0  0  0  0  3  0  0  0  0  0  0
  186.4280  177.0890  144.3640 O   0  0  0  0  0  0  0  0  0  0  0  0
  189.7920  177.3310  146.5880 C   0  0  0  0  0  0  0  0  0  0  0  0
  185.5590  178.6110  145.9960 C   0  0  2  0  0  3  0  0  0  0  0  0
  189.3330  178.2070  147.5690 O   0  0  0  0  0  0  0  0  0  0  0  0
  191.8370  176.0190  146.8840 C   0  0  0  0  0  1  0  0  0  0  0  0
  191.1430  177.1210  146.3240 O   0  0  0  0  0  0  0  0  0  0  0  0
  182.3310  177.7760  140.8230 O   0  0  0  0  0  0  0  0  0  0  0  0
  180.6660  179.3850  141.0140 O   0  0  0  0  0  0  0  0  0  0  0  0
  180.9860  178.1740  140.8580 C   0  0  0  0  0  0  0  0  0  0  0  0
  179.9510  177.1350  140.7150 C   0  0  0  0  0  3  0  0  0  0  0  0
  179.7100  176.4030  139.6220 C   0  0  0  0  0  3  0  0  0  0  0  0
  180.3650  175.4290  137.3870 C   0  0  2  0  0  3  0  0  0  0  0  0
  179.2390  176.2860  135.2650 O   0  0  0  0  0  0  0  0  0  0  0  0
  179.7890  177.4500  137.4430 N   0  0  0  0  0  2  0  0  0  0  0  0
  180.4660  176.5300  138.3280 C   0  0  1  0  0  3  0  0  0  0  0  0
  179.6910  176.3700  136.4380 C   0  0  0  0  0  0  0  0  0  0  0  0
  180.1100  173.4660  139.2060 O   0  0  0  0  0  1  0  0  0  0  0  0
  179.2050  174.0180  137.8330 P   0  0  2  0  0  0  0  0  0  0  0  0
  180.0110  172.5840  136.4890 S   0  0  0  0  0  0  0  0  0  0  0  0
  179.6920  171.1990  136.9780 O   0  0  0  0  0  0  0  0  0  0  0  0
  179.4000  172.7800  135.1290 O   0  0  0  0  0  0  0  0  0  0  0  0
  182.4610  171.4960  136.8430 C   0  0  0  0  0  1  0  0  0  0  0  0
  181.7790  172.7670  136.3800 C   0  0  0  0  0  2  0  0  0  0  0  0
  184.5560  178.9440  139.5070 C   0  0  2  0  0  3  0  0  0  0  0  0
  186.8750  178.0570  138.5100 C   0  0  0  0  0  0  0  0  0  0  0  0
  185.8210  178.4390  138.9500 C   0  0  0  0  0  0  0  0  0  0  0  0
  188.1770  177.6250  137.9980 C   0  0  0  0  0  2  0  0  0  0  0  0
  187.8280  173.5140  136.7760 O   0  0  0  0  0  0  0  0  0  0  0  0
  186.2560  175.8710  136.0020 C   0  0  2  0  0  3  0  0  0  0  0  0
  186.1710  173.4250  136.3540 P   0  0  2  0  0  0  0  0  0  0  0  0
  188.4790  175.5510  134.8430 C   0  0  0  0  0  1  0  0  0  0  0  0
  188.0730  177.3440  136.4970 C   0  0  2  0  0  3  0  0  0  0  0  0
  185.3150  173.4680  137.5990 O   0  0  0  0  0  1  0  0  0  0  0  0
  185.8820  171.9780  135.5320 O   0  0  0  0  0  0  0  0  0  0  0  0
  188.1080  174.8300  137.2180 C   0  0  0  0  0  2  0  0  0  0  0  0
  185.7860  174.7340  135.3270 O   0  0  0  0  0  0  0  0  0  0  0  0
  185.9060  177.1730  135.3240 C   0  0  0  0  0  2  0  0  0  0  0  0
  186.9220  178.1610  135.8880 C   0  0  0  0  0  2  0  0  0  0  0  0
  187.7650  175.8850  136.1530 C   0  0  1  0  0  0  0  0  0  0  0  0
  183.0390  180.3580  138.7190 C   0  0  0  0  0  1  0  0  0  0  0  0
  184.3750  180.2740  139.1260 O   0  0  0  0  0  0  0  0  0  0  0  0
  1  2  1  0  0  0  0
  2  5  2  0  0  0  0
  3  6  2  0  0  0  0
  4  1  2  0  0  0  0
  4  3  1  0  0  0  0
  5  7  1  0  0  0  0
  6  5  1  0  0  0  0
  8 11  1  0  0  0  0
  8 15  2  0  0  0  0
  9 16  1  0  0  0  0
 11  9  1  6  0  0  0
 11 12  1  0  0  0  0
 12 17  1  0  0  0  0
 12 10  1  6  0  0  0
 13 10  2  0  0  0  0
 14  9  2  0  0  0  0
 15 17  1  0  0  0  0
 16  7  1  1  0  0  0
 16 13  1  0  0  0  0
 19 15  1  0  0  0  0
 19 18  1  0  0  0  0
 20 22  1  0  0  0  0
 20  1  1  0  0  0  0
 22 21  2  0  0  0  0
 23 22  1  0  0  0  0
 24 23  2  0  0  0  0
 25 31  1  1  0  0  0
 25 28  1  0  0  0  0
 26 29  2  0  0  0  0
 27 28  1  0  0  0  0
 28 24  1  1  0  0  0
 29 25  1  0  0  0  0
 29 27  1  0  0  0  0
 31 30  1  1  0  0  0
 32 33  2  0  0  0  0
 32 31  1  0  0  0  0
 34 32  2  0  0  0  0
 36 32  1  0  0  0  0
 36 35  1  0  0  0  0
 37 39  1  1  0  0  0
 37  4  1  0  0  0  0
 38 39  3  0  0  0  0
 40 38  1  0  0  0  0
 41 48  1  0  0  0  0
 42 50  1  6  0  0  0
 42 52  1  0  0  0  0
 43 47  2  6  0  0  0
 43 41  1  0  0  0  0
 43 46  1  0  0  0  0
 45 40  1  1  0  0  0
 49 42  1  0  0  0  0
 49 43  1  0  0  0  0
 50 51  1  0  0  0  0
 51 45  1  0  0  0  0
 52 44  1  6  0  0  0
 52 45  1  0  0  0  0
 52 48  1  0  0  0  0
 53 54  1  0  0  0  0
 54 37  1  0  0  0  0
M  END
>  <MODEL>
9

>  <REMARK>
 VINA RESULT:      -7.3      3.240      8.548
  Name = 
  15 active torsions:
  status: ('A' for Active; 'I' for Inactive)
    1  A    between atoms: C_2  and  C_9
    2  A    between atoms: C_7  and  P_23
    3  A    between atoms: C_9  and  C_22
    4  A    between atoms: C_14  and  O_21
    5  A    between atoms: C_17  and  C_37
    6  A    between atoms: C_17  and  C_51
    7  A    between atoms: C_19  and  C_44
    8  A    between atoms: O_21  and  C_35
    9  A    between atoms: P_23  and  S_27
   10  A    between atoms: C_24  and  C_44
   11  A    between atoms: S_27  and  C_36
   12  A    between atoms: C_32  and  C_35
   13  A    between atoms: O_42  and  C_44
   14  A    between atoms: C_43  and  O_45
   15  A    between atoms: C_46  and  C_47
                            x       y       z     vdW  Elec       q    Type
                         _______ _______ _______ _____ _____    ______ ____

>  <TORSDO>
F 15

$$$$
