=
 OpenBabel11032420163D

 28 31  0  0  0  0  0  0  0  0999 V2000
  183.0310  178.4470  141.1000 N   0  0  0  0  0  0  0  0  0  0  0  0
  185.3770  178.0480  141.6870 N   0  0  0  0  0  0  0  0  0  0  0  0
  187.1060  177.6570  146.8010 C   0  0  0  0  0  2  0  0  0  0  0  0
  185.1330  178.1980  143.8780 C   0  0  0  0  0  0  0  0  0  0  0  0
  186.0130  177.9830  142.8690 C   0  0  0  0  0  0  0  0  0  0  0  0
  189.9060  178.2330  145.9010 C   0  0  0  0  0  3  0  0  0  0  0  0
  185.5130  178.1610  145.2080 C   0  0  0  0  0  3  0  0  0  0  0  0
  187.3820  177.8000  143.0950 C   0  0  0  0  0  0  0  0  0  0  0  0
  186.8640  177.9240  145.5140 C   0  0  0  0  0  0  0  0  0  0  0  0
  184.0930  178.2960  142.0540 C   0  0  0  0  0  0  0  0  0  0  0  0
  183.8970  178.3940  143.3950 N   0  0  0  0  0  2  0  0  0  0  0  0
  188.3570  177.0500  147.3340 C   0  0  0  0  0  2  0  0  0  0  0  0
  187.8410  177.8430  144.4530 C   0  0  0  0  0  0  0  0  0  0  0  0
  189.5130  177.8850  147.0840 N   0  0  0  0  0  0  0  0  0  0  0  0
  189.1700  177.9580  144.6540 C   0  0  0  0  0  2  0  0  0  0  0  0
  188.8750  179.1150  138.5880 O   0  0  0  0  0  1  0  0  0  0  0  0
  189.9790  177.2910  139.7160 C   0  0  0  0  0  3  0  0  0  0  0  0
  188.1620  178.4660  140.8000 C   0  0  0  0  0  3  0  0  0  0  0  0
  188.2900  177.6440  141.9290 C   0  0  0  0  0  0  0  0  0  0  0  0
  189.0050  178.2940  139.6990 C   0  0  0  0  0  0  0  0  0  0  0  0
  190.1070  176.4610  140.8320 C   0  0  0  0  0  3  0  0  0  0  0  0
  189.2640  176.6340  141.9330 C   0  0  0  0  0  3  0  0  0  0  0  0
  181.6690  178.7310  141.5350 C   0  0  0  0  0  2  0  0  0  0  0  0
  180.6920  177.7980  140.8440 C   0  0  0  0  0  1  0  0  0  0  0  0
  183.3200  178.4580  139.6730 C   0  0  0  0  0  2  0  0  0  0  0  0
  184.4280  180.4720  139.0410 O   0  0  0  0  0  1  0  0  0  0  0  0
  182.1510  180.4710  138.7770 O   0  0  0  0  0  0  0  0  0  0  0  0
  183.3370  179.8570  139.1590 C   0  0  0  0  0  0  0  0  0  0  0  0
  1 23  1  0  0  0  0
  1 10  1  0  0  0  0
  2 10  2  0  0  0  0
  2  5  1  0  0  0  0
  3 12  1  0  0  0  0
  4  7  1  0  0  0  0
  5  8  1  0  0  0  0
  5  4  2  0  0  0  0
  6 14  2  0  0  0  0
  7  9  2  0  0  0  0
  8 13  2  0  0  0  0
  9  3  1  0  0  0  0
 10 11  1  0  0  0  0
 11  4  1  0  0  0  0
 13 15  1  0  0  0  0
 13  9  1  0  0  0  0
 14 12  1  0  0  0  0
 15  6  1  0  0  0  0
 16 20  1  0  0  0  0
 17 21  1  0  0  0  0
 18 19  2  0  0  0  0
 19 22  1  0  0  0  0
 19  8  1  0  0  0  0
 20 17  2  0  0  0  0
 20 18  1  0  0  0  0
 21 22  2  0  0  0  0
 24 23  1  0  0  0  0
 25  1  1  0  0  0  0
 26 28  1  0  0  0  0
 27 28  2  0  0  0  0
 28 25  1  0  0  0  0
M  END
>  <MODEL>
1

>  <REMARK>
 VINA RESULT:      -9.0      0.000      0.000
  Name = 
  4 active torsions:
  status: ('A' for Active; 'I' for Inactive)
    1  A    between atoms: C_1  and  N_6
    2  A    between atoms: N_6  and  C_28
    3  A    between atoms: C_15  and  C_20
    4  A    between atoms: C_17  and  C_28
                            x       y       z     vdW  Elec       q    Type
                         _______ _______ _______ _____ _____    ______ ____

>  <TORSDO>
F 4

$$$$
=
 OpenBabel11032420163D

 28 31  0  0  0  0  0  0  0  0999 V2000
  189.4260  177.4090  139.6920 N   0  0  0  0  0  0  0  0  0  0  0  0
  188.0120  177.7990  141.6560 N   0  0  0  0  0  0  0  0  0  0  0  0
  189.8850  177.5470  146.7280 C   0  0  0  0  0  2  0  0  0  0  0  0
  189.5440  177.3450  143.1830 C   0  0  0  0  0  0  0  0  0  0  0  0
  188.2580  177.7230  142.9750 C   0  0  0  0  0  0  0  0  0  0  0  0
  187.0890  177.1880  147.7460 C   0  0  0  0  0  3  0  0  0  0  0  0
  190.0780  177.2140  144.4520 C   0  0  0  0  0  3  0  0  0  0  0  0
  187.3560  177.9170  144.0270 C   0  0  0  0  0  0  0  0  0  0  0  0
  189.2450  177.4500  145.5590 C   0  0  0  0  0  0  0  0  0  0  0  0
  189.2090  177.4630  141.1110 C   0  0  0  0  0  0  0  0  0  0  0  0
  190.1820  177.1780  142.0150 N   0  0  0  0  0  2  0  0  0  0  0  0
  189.3110  178.1160  147.9790 C   0  0  0  0  0  2  0  0  0  0  0  0
  187.8370  177.7050  145.3610 C   0  0  0  0  0  0  0  0  0  0  0  0
  188.1660  177.3590  148.4420 N   0  0  0  0  0  0  0  0  0  0  0  0
  186.9170  177.6060  146.3430 C   0  0  0  0  0  2  0  0  0  0  0  0
  183.4840  177.8530  140.9820 O   0  0  0  0  0  1  0  0  0  0  0  0
  183.2950  178.9660  143.1130 C   0  0  0  0  0  3  0  0  0  0  0  0
  185.3680  177.8840  142.4880 C   0  0  0  0  0  3  0  0  0  0  0  0
  185.9440  178.2590  143.7110 C   0  0  0  0  0  0  0  0  0  0  0  0
  184.0470  178.2320  142.1920 C   0  0  0  0  0  0  0  0  0  0  0  0
  183.8640  179.3530  144.3290 C   0  0  0  0  0  3  0  0  0  0  0  0
  185.1840  179.0030  144.6260 C   0  0  0  0  0  3  0  0  0  0  0  0
  190.7210  177.0250  139.1470 C   0  0  0  0  0  2  0  0  0  0  0  0
  190.6080  175.7040  138.4080 C   0  0  0  0  0  1  0  0  0  0  0  0
  188.3140  177.6000  138.7710 C   0  0  0  0  0  2  0  0  0  0  0  0
  188.9590  179.7380  137.9340 O   0  0  0  0  0  1  0  0  0  0  0  0
  188.8240  178.0640  136.3740 O   0  0  0  0  0  0  0  0  0  0  0  0
  188.7050  178.5330  137.6760 C   0  0  0  0  0  0  0  0  0  0  0  0
  1 10  1  0  0  0  0
  2  5  1  0  0  0  0
  3 12  1  0  0  0  0
  4  7  1  0  0  0  0
  5  4  2  0  0  0  0
  5  8  1  0  0  0  0
  6 14  2  0  0  0  0
  7  9  2  0  0  0  0
  8 13  2  0  0  0  0
  9  3  1  0  0  0  0
 10  2  2  0  0  0  0
 10 11  1  0  0  0  0
 11  4  1  0  0  0  0
 12 14  1  0  0  0  0
 13  9  1  0  0  0  0
 13 15  1  0  0  0  0
 15  6  1  0  0  0  0
 16 20  1  0  0  0  0
 17 21  1  0  0  0  0
 18 19  2  0  0  0  0
 19  8  1  0  0  0  0
 19 22  1  0  0  0  0
 20 18  1  0  0  0  0
 20 17  2  0  0  0  0
 21 22  2  0  0  0  0
 23  1  1  0  0  0  0
 24 23  1  0  0  0  0
 25  1  1  0  0  0  0
 27 28  2  0  0  0  0
 28 26  1  0  0  0  0
 28 25  1  0  0  0  0
M  END
>  <MODEL>
2

>  <REMARK>
 VINA RESULT:      -9.0      2.223      5.292
  Name = 
  4 active torsions:
  status: ('A' for Active; 'I' for Inactive)
    1  A    between atoms: C_1  and  N_6
    2  A    between atoms: N_6  and  C_28
    3  A    between atoms: C_15  and  C_20
    4  A    between atoms: C_17  and  C_28
                            x       y       z     vdW  Elec       q    Type
                         _______ _______ _______ _____ _____    ______ ____

>  <TORSDO>
F 4

$$$$
=
 OpenBabel11032420163D

 28 31  0  0  0  0  0  0  0  0999 V2000
  188.1440  178.2050  137.9810 N   0  0  0  0  0  0  0  0  0  0  0  0
  188.2840  177.8480  140.4020 N   0  0  0  0  0  0  0  0  0  0  0  0
  184.1360  178.7650  143.7560 C   0  0  0  0  0  2  0  0  0  0  0  0
  186.2670  178.6020  140.9000 C   0  0  0  0  0  0  0  0  0  0  0  0
  187.4110  178.0710  141.3990 C   0  0  0  0  0  0  0  0  0  0  0  0
  186.0360  178.9130  146.0700 C   0  0  0  0  0  3  0  0  0  0  0  0
  185.1840  178.9070  141.7040 C   0  0  0  0  0  3  0  0  0  0  0  0
  187.6100  177.8780  142.7710 C   0  0  0  0  0  0  0  0  0  0  0  0
  185.2900  178.6850  143.0880 C   0  0  0  0  0  0  0  0  0  0  0  0
  187.5940  178.2590  139.3070 C   0  0  0  0  0  0  0  0  0  0  0  0
  186.3470  178.7290  139.5670 N   0  0  0  0  0  2  0  0  0  0  0  0
  183.9040  178.2550  145.1360 C   0  0  0  0  0  2  0  0  0  0  0  0
  186.5500  178.2620  143.6560 C   0  0  0  0  0  0  0  0  0  0  0  0
  184.7430  178.9230  146.1090 N   0  0  0  0  0  0  0  0  0  0  0  0
  186.8410  178.3510  144.9700 C   0  0  0  0  0  2  0  0  0  0  0  0
  192.1030  178.5920  144.6630 O   0  0  0  0  0  1  0  0  0  0  0  0
  191.4090  176.3590  144.0700 C   0  0  0  0  0  3  0  0  0  0  0  0
  189.9020  178.2250  143.7450 C   0  0  0  0  0  3  0  0  0  0  0  0
  188.9210  177.3580  143.2410 C   0  0  0  0  0  0  0  0  0  0  0  0
  191.1400  177.7270  144.1610 C   0  0  0  0  0  0  0  0  0  0  0  0
  190.4420  175.4890  143.5610 C   0  0  0  0  0  3  0  0  0  0  0  0
  189.2030  175.9870  143.1450 C   0  0  0  0  0  3  0  0  0  0  0  0
  187.3780  178.6750  136.8340 C   0  0  0  0  0  2  0  0  0  0  0  0
  186.5140  177.5540  136.2850 C   0  0  0  0  0  1  0  0  0  0  0  0
  189.5310  177.8110  137.7750 C   0  0  0  0  0  2  0  0  0  0  0  0
  189.0330  175.5560  137.1820 O   0  0  0  0  0  0  0  0  0  0  0  0
  190.5560  175.8210  138.8740 O   0  0  0  0  0  1  0  0  0  0  0  0
  189.6780  176.3360  137.9290 C   0  0  0  0  0  0  0  0  0  0  0  0
  1 10  1  0  0  0  0
  2  5  1  0  0  0  0
  3 12  1  0  0  0  0
  4  5  2  0  0  0  0
  4  7  1  0  0  0  0
  5  8  1  0  0  0  0
  6 14  2  0  0  0  0
  7  9  2  0  0  0  0
  8 19  1  0  0  0  0
  8 13  2  0  0  0  0
  9 13  1  0  0  0  0
  9  3  1  0  0  0  0
 10 11  1  0  0  0  0
 10  2  2  0  0  0  0
 11  4  1  0  0  0  0
 12 14  1  0  0  0  0
 13 15  1  0  0  0  0
 15  6  1  0  0  0  0
 17 20  1  0  0  0  0
 18 20  2  0  0  0  0
 19 18  1  0  0  0  0
 20 16  1  0  0  0  0
 21 17  2  0  0  0  0
 22 19  2  0  0  0  0
 22 21  1  0  0  0  0
 23  1  1  0  0  0  0
 24 23  1  0  0  0  0
 25 28  1  0  0  0  0
 25  1  1  0  0  0  0
 26 28  2  0  0  0  0
 28 27  1  0  0  0  0
M  END
>  <MODEL>
3

>  <REMARK>
 VINA RESULT:      -8.8      3.180      4.938
  Name = 
  4 active torsions:
  status: ('A' for Active; 'I' for Inactive)
    1  A    between atoms: C_1  and  N_6
    2  A    between atoms: N_6  and  C_28
    3  A    between atoms: C_15  and  C_20
    4  A    between atoms: C_17  and  C_28
                            x       y       z     vdW  Elec       q    Type
                         _______ _______ _______ _____ _____    ______ ____

>  <TORSDO>
F 4

$$$$
=
 OpenBabel11032420163D

 28 31  0  0  0  0  0  0  0  0999 V2000
  189.2950  177.1330  138.9380 N   0  0  0  0  0  0  0  0  0  0  0  0
  188.3990  177.5240  141.1860 N   0  0  0  0  0  0  0  0  0  0  0  0
  191.3090  176.7660  145.6860 C   0  0  0  0  0  2  0  0  0  0  0  0
  190.1740  176.8300  142.3050 C   0  0  0  0  0  0  0  0  0  0  0  0
  188.9210  177.3390  142.4100 C   0  0  0  0  0  0  0  0  0  0  0  0
  188.7850  176.6040  147.2950 C   0  0  0  0  0  3  0  0  0  0  0  0
  190.9580  176.5660  143.4130 C   0  0  0  0  0  3  0  0  0  0  0  0
  188.2990  177.5470  143.6470 C   0  0  0  0  0  0  0  0  0  0  0  0
  190.4200  176.8060  144.6890 C   0  0  0  0  0  0  0  0  0  0  0  0
  189.4040  177.1140  140.3700 C   0  0  0  0  0  0  0  0  0  0  0  0
  190.5160  176.6810  141.0170 N   0  0  0  0  0  2  0  0  0  0  0  0
  191.0890  177.3030  147.0580 C   0  0  0  0  0  2  0  0  0  0  0  0
  189.0380  177.2040  144.8260 C   0  0  0  0  0  0  0  0  0  0  0  0
  190.0010  176.6280  147.7350 N   0  0  0  0  0  0  0  0  0  0  0  0
  188.3520  177.1280  145.9860 C   0  0  0  0  0  2  0  0  0  0  0  0
  184.2560  178.9140  146.1070 O   0  0  0  0  0  1  0  0  0  0  0  0
  184.2310  178.9150  143.6960 C   0  0  0  0  0  3  0  0  0  0  0  0
  186.2310  178.2570  144.8880 C   0  0  0  0  0  3  0  0  0  0  0  0
  186.8970  178.0400  143.6730 C   0  0  0  0  0  0  0  0  0  0  0  0
  184.9050  178.6970  144.9000 C   0  0  0  0  0  0  0  0  0  0  0  0
  184.8820  178.6920  142.4800 C   0  0  0  0  0  3  0  0  0  0  0  0
  186.2090  178.2530  142.4680 C   0  0  0  0  0  3  0  0  0  0  0  0
  190.3890  176.6660  138.0970 C   0  0  0  0  0  2  0  0  0  0  0  0
  190.0930  175.2720  137.5760 C   0  0  0  0  0  1  0  0  0  0  0  0
  188.0340  177.4880  138.3010 C   0  0  0  0  0  2  0  0  0  0  0  0
  187.8720  178.3260  136.0750 O   0  0  0  0  0  0  0  0  0  0  0  0
  188.8540  179.7340  137.5940 O   0  0  0  0  0  1  0  0  0  0  0  0
  188.2560  178.5270  137.2560 C   0  0  0  0  0  0  0  0  0  0  0  0
  1 10  1  0  0  0  0
  2  5  1  0  0  0  0
  3 12  1  0  0  0  0
  4  5  2  0  0  0  0
  4  7  1  0  0  0  0
  5  8  1  0  0  0  0
  6 14  2  0  0  0  0
  7  9  2  0  0  0  0
  8 19  1  0  0  0  0
  8 13  2  0  0  0  0
  9 13  1  0  0  0  0
  9  3  1  0  0  0  0
 10 11  1  0  0  0  0
 10  2  2  0  0  0  0
 11  4  1  0  0  0  0
 12 14  1  0  0  0  0
 13 15  1  0  0  0  0
 15  6  1  0  0  0  0
 17 20  1  0  0  0  0
 18 20  2  0  0  0  0
 19 18  1  0  0  0  0
 20 16  1  0  0  0  0
 21 17  2  0  0  0  0
 22 21  1  0  0  0  0
 22 19  2  0  0  0  0
 23  1  1  0  0  0  0
 24 23  1  0  0  0  0
 25  1  1  0  0  0  0
 26 28  2  0  0  0  0
 28 27  1  0  0  0  0
 28 25  1  0  0  0  0
M  END
>  <MODEL>
4

>  <REMARK>
 VINA RESULT:      -8.7      2.767      5.482
  Name = 
  4 active torsions:
  status: ('A' for Active; 'I' for Inactive)
    1  A    between atoms: C_1  and  N_6
    2  A    between atoms: N_6  and  C_28
    3  A    between atoms: C_15  and  C_20
    4  A    between atoms: C_17  and  C_28
                            x       y       z     vdW  Elec       q    Type
                         _______ _______ _______ _____ _____    ______ ____

>  <TORSDO>
F 4

$$$$
=
 OpenBabel11032420163D

 28 31  0  0  0  0  0  0  0  0999 V2000
  190.5730  176.9310  146.0080 N   0  0  0  0  0  0  0  0  0  0  0  0
  189.0380  177.4390  144.1660 N   0  0  0  0  0  0  0  0  0  0  0  0
  183.9170  179.0070  144.9520 C   0  0  0  0  0  2  0  0  0  0  0  0
  187.2460  177.8090  145.4070 C   0  0  0  0  0  0  0  0  0  0  0  0
  187.7370  177.7750  144.1430 C   0  0  0  0  0  0  0  0  0  0  0  0
  183.2400  178.2150  142.1410 C   0  0  0  0  0  3  0  0  0  0  0  0
  185.9350  178.1550  145.6790 C   0  0  0  0  0  3  0  0  0  0  0  0
  186.9300  177.9960  143.0200 C   0  0  0  0  0  0  0  0  0  0  0  0
  185.0800  178.4480  144.6040 C   0  0  0  0  0  0  0  0  0  0  0  0
  189.2820  177.2940  145.4940 C   0  0  0  0  0  0  0  0  0  0  0  0
  188.2080  177.5150  146.2940 N   0  0  0  0  0  2  0  0  0  0  0  0
  182.9900  179.7130  144.0240 C   0  0  0  0  0  2  0  0  0  0  0  0
  185.5410  178.2700  143.2460 C   0  0  0  0  0  0  0  0  0  0  0  0
  182.4850  178.8340  142.9900 N   0  0  0  0  0  0  0  0  0  0  0  0
  184.7140  178.1960  142.1820 C   0  0  0  0  0  2  0  0  0  0  0  0
  190.4460  176.3190  140.0050 O   0  0  0  0  0  1  0  0  0  0  0  0
  188.6730  177.6870  139.1100 C   0  0  0  0  0  3  0  0  0  0  0  0
  188.7110  177.1390  141.4670 C   0  0  0  0  0  3  0  0  0  0  0  0
  187.5290  177.8680  141.6660 C   0  0  0  0  0  0  0  0  0  0  0  0
  189.2790  177.0460  140.1940 C   0  0  0  0  0  0  0  0  0  0  0  0
  187.5010  178.4230  139.3000 C   0  0  0  0  0  3  0  0  0  0  0  0
  186.9320  178.5160  140.5740 C   0  0  0  0  0  3  0  0  0  0  0  0
  190.7900  176.7660  147.4390 C   0  0  0  0  0  2  0  0  0  0  0  0
  192.0680  175.9870  147.6900 C   0  0  0  0  0  1  0  0  0  0  0  0
  191.6560  176.5830  145.0980 C   0  0  0  0  0  2  0  0  0  0  0  0
  192.0050  178.8620  144.4910 O   0  0  0  0  0  1  0  0  0  0  0  0
  191.9490  177.3710  142.7510 O   0  0  0  0  0  0  0  0  0  0  0  0
  191.8670  177.6720  144.1040 C   0  0  0  0  0  0  0  0  0  0  0  0
  1 23  1  0  0  0  0
  2 10  2  0  0  0  0
  4  7  1  0  0  0  0
  4 11  1  0  0  0  0
  5  2  1  0  0  0  0
  5  4  2  0  0  0  0
  6 15  1  0  0  0  0
  6 14  2  0  0  0  0
  8 13  2  0  0  0  0
  8  5  1  0  0  0  0
  9  3  1  0  0  0  0
  9  7  2  0  0  0  0
 10  1  1  0  0  0  0
 10 11  1  0  0  0  0
 12  3  1  0  0  0  0
 13  9  1  0  0  0  0
 14 12  1  0  0  0  0
 15 13  1  0  0  0  0
 16 20  1  0  0  0  0
 17 21  2  0  0  0  0
 17 20  1  0  0  0  0
 18 19  1  0  0  0  0
 19  8  1  0  0  0  0
 20 18  2  0  0  0  0
 21 22  1  0  0  0  0
 22 19  2  0  0  0  0
 23 24  1  0  0  0  0
 25  1  1  0  0  0  0
 27 28  2  0  0  0  0
 28 26  1  0  0  0  0
 28 25  1  0  0  0  0
M  END
>  <MODEL>
5

>  <REMARK>
 VINA RESULT:      -8.2      2.804      6.460
  Name = 
  4 active torsions:
  status: ('A' for Active; 'I' for Inactive)
    1  A    between atoms: C_1  and  N_6
    2  A    between atoms: N_6  and  C_28
    3  A    between atoms: C_15  and  C_20
    4  A    between atoms: C_17  and  C_28
                            x       y       z     vdW  Elec       q    Type
                         _______ _______ _______ _____ _____    ______ ____

>  <TORSDO>
F 4

$$$$
=
 OpenBabel11032420163D

 28 31  0  0  0  0  0  0  0  0999 V2000
  188.8080  178.3490  139.5200 N   0  0  0  0  0  0  0  0  0  0  0  0
  187.2500  178.2730  141.4110 N   0  0  0  0  0  0  0  0  0  0  0  0
  181.8810  178.6110  140.8140 C   0  0  0  0  0  2  0  0  0  0  0  0
  185.4030  178.6250  140.2480 C   0  0  0  0  0  0  0  0  0  0  0  0
  185.9150  178.4020  141.4850 C   0  0  0  0  0  0  0  0  0  0  0  0
  181.6070  179.3930  143.6950 C   0  0  0  0  0  3  0  0  0  0  0  0
  184.0460  178.7690  140.0270 C   0  0  0  0  0  3  0  0  0  0  0  0
  185.1160  178.3940  142.6350 C   0  0  0  0  0  0  0  0  0  0  0  0
  183.1760  178.7140  141.1300 C   0  0  0  0  0  0  0  0  0  0  0  0
  187.4880  178.4160  140.0820 C   0  0  0  0  0  0  0  0  0  0  0  0
  186.3790  178.6320  139.3280 N   0  0  0  0  0  2  0  0  0  0  0  0
  180.7970  178.2040  141.7500 C   0  0  0  0  0  2  0  0  0  0  0  0
  183.7120  178.6290  142.4680 C   0  0  0  0  0  0  0  0  0  0  0  0
  180.6590  179.1300  142.8550 N   0  0  0  0  0  0  0  0  0  0  0  0
  182.9950  178.9090  143.5770 C   0  0  0  0  0  2  0  0  0  0  0  0
  185.6810  179.6590  147.3630 O   0  0  0  0  0  1  0  0  0  0  0  0
  187.0450  177.8990  146.4370 C   0  0  0  0  0  3  0  0  0  0  0  0
  185.4090  179.0220  145.0520 C   0  0  0  0  0  3  0  0  0  0  0  0
  185.7650  178.2170  143.9600 C   0  0  0  0  0  0  0  0  0  0  0  0
  186.0430  178.8620  146.2870 C   0  0  0  0  0  0  0  0  0  0  0  0
  187.4140  177.1000  145.3530 C   0  0  0  0  0  3  0  0  0  0  0  0
  186.7790  177.2590  144.1180 C   0  0  0  0  0  3  0  0  0  0  0  0
  189.0240  178.5270  138.0900 C   0  0  0  0  0  2  0  0  0  0  0  0
  188.3650  177.4010  137.3160 C   0  0  0  0  0  1  0  0  0  0  0  0
  189.9730  178.2420  140.3890 C   0  0  0  0  0  2  0  0  0  0  0  0
  190.3830  176.3190  141.7370 O   0  0  0  0  0  1  0  0  0  0  0  0
  190.6190  176.0130  139.4780 O   0  0  0  0  0  0  0  0  0  0  0  0
  190.3460  176.8120  140.5800 C   0  0  0  0  0  0  0  0  0  0  0  0
  1 10  1  0  0  0  0
  1 25  1  0  0  0  0
  2  5  1  0  0  0  0
  3  9  1  0  0  0  0
  3 12  1  0  0  0  0
  4  5  1  0  0  0  0
  5  8  2  0  0  0  0
  7  4  2  0  0  0  0
  7  9  1  0  0  0  0
  8 19  1  0  0  0  0
  9 13  2  0  0  0  0
 10  2  2  0  0  0  0
 11 10  1  0  0  0  0
 11  4  1  0  0  0  0
 12 14  1  0  0  0  0
 13  8  1  0  0  0  0
 13 15  1  0  0  0  0
 14  6  2  0  0  0  0
 15  6  1  0  0  0  0
 18 20  2  0  0  0  0
 19 22  2  0  0  0  0
 19 18  1  0  0  0  0
 20 17  1  0  0  0  0
 20 16  1  0  0  0  0
 21 17  2  0  0  0  0
 22 21  1  0  0  0  0
 23  1  1  0  0  0  0
 24 23  1  0  0  0  0
 25 28  1  0  0  0  0
 27 28  2  0  0  0  0
 28 26  1  0  0  0  0
M  END
>  <MODEL>
6

>  <REMARK>
 VINA RESULT:      -8.2      3.040      6.588
  Name = 
  4 active torsions:
  status: ('A' for Active; 'I' for Inactive)
    1  A    between atoms: C_1  and  N_6
    2  A    between atoms: N_6  and  C_28
    3  A    between atoms: C_15  and  C_20
    4  A    between atoms: C_17  and  C_28
                            x       y       z     vdW  Elec       q    Type
                         _______ _______ _______ _____ _____    ______ ____

>  <TORSDO>
F 4

$$$$
=
 OpenBabel11032420163D

 28 31  0  0  0  0  0  0  0  0999 V2000
  190.5650  177.4870  141.5170 N   0  0  0  0  0  0  0  0  0  0  0  0
  188.7240  177.7760  143.1090 N   0  0  0  0  0  0  0  0  0  0  0  0
  183.6110  178.6530  141.5660 C   0  0  0  0  0  2  0  0  0  0  0  0
  187.1510  178.2150  141.6200 C   0  0  0  0  0  0  0  0  0  0  0  0
  187.4220  178.0610  142.9400 C   0  0  0  0  0  0  0  0  0  0  0  0
  182.9750  179.7440  144.2850 C   0  0  0  0  0  3  0  0  0  0  0  0
  185.8760  178.4870  141.1570 C   0  0  0  0  0  3  0  0  0  0  0  0
  186.4530  178.2570  143.9310 C   0  0  0  0  0  0  0  0  0  0  0  0
  184.8390  178.6410  142.0920 C   0  0  0  0  0  0  0  0  0  0  0  0
  189.1910  177.7570  141.8340 C   0  0  0  0  0  0  0  0  0  0  0  0
  188.2550  178.0210  140.8850 N   0  0  0  0  0  2  0  0  0  0  0  0
  182.3460  178.4650  142.3300 C   0  0  0  0  0  2  0  0  0  0  0  0
  185.1360  178.6300  143.5060 C   0  0  0  0  0  0  0  0  0  0  0  0
  182.1490  179.5070  143.3170 N   0  0  0  0  0  0  0  0  0  0  0  0
  184.2900  179.0980  144.4480 C   0  0  0  0  0  2  0  0  0  0  0  0
  189.4550  176.5500  147.4450 O   0  0  0  0  0  1  0  0  0  0  0  0
  187.5470  177.8890  148.0660 C   0  0  0  0  0  3  0  0  0  0  0  0
  187.9810  177.4020  145.7350 C   0  0  0  0  0  3  0  0  0  0  0  0
  186.8500  178.1410  145.3590 C   0  0  0  0  0  0  0  0  0  0  0  0
  188.3310  177.2790  147.0820 C   0  0  0  0  0  0  0  0  0  0  0  0
  186.4130  178.6190  147.7010 C   0  0  0  0  0  3  0  0  0  0  0  0
  186.0640  178.7430  146.3530 C   0  0  0  0  0  3  0  0  0  0  0  0
  191.0310  177.4970  140.1360 C   0  0  0  0  0  2  0  0  0  0  0  0
  192.5480  177.5010  140.0940 C   0  0  0  0  0  1  0  0  0  0  0  0
  191.5500  177.3380  142.5800 C   0  0  0  0  0  2  0  0  0  0  0  0
  191.4930  176.1500  144.6460 O   0  0  0  0  0  1  0  0  0  0  0  0
  190.6170  175.0400  142.8420 O   0  0  0  0  0  0  0  0  0  0  0  0
  191.2330  176.1450  143.4150 C   0  0  0  0  0  0  0  0  0  0  0  0
  1 10  1  0  0  0  0
  1 25  1  0  0  0  0
  3  9  1  0  0  0  0
  3 12  1  0  0  0  0
  4  5  1  0  0  0  0
  5  2  1  0  0  0  0
  5  8  2  0  0  0  0
  6 15  1  0  0  0  0
  7  4  2  0  0  0  0
  7  9  1  0  0  0  0
  8 19  1  0  0  0  0
  9 13  2  0  0  0  0
 10  2  2  0  0  0  0
 11  4  1  0  0  0  0
 11 10  1  0  0  0  0
 12 14  1  0  0  0  0
 13  8  1  0  0  0  0
 13 15  1  0  0  0  0
 14  6  2  0  0  0  0
 18 20  1  0  0  0  0
 19 18  2  0  0  0  0
 19 22  1  0  0  0  0
 20 16  1  0  0  0  0
 20 17  2  0  0  0  0
 21 17  1  0  0  0  0
 22 21  2  0  0  0  0
 23  1  1  0  0  0  0
 24 23  1  0  0  0  0
 25 28  1  0  0  0  0
 27 28  2  0  0  0  0
 28 26  1  0  0  0  0
M  END
>  <MODEL>
7

>  <REMARK>
 VINA RESULT:      -8.1      3.378      7.094
  Name = 
  4 active torsions:
  status: ('A' for Active; 'I' for Inactive)
    1  A    between atoms: C_1  and  N_6
    2  A    between atoms: N_6  and  C_28
    3  A    between atoms: C_15  and  C_20
    4  A    between atoms: C_17  and  C_28
                            x       y       z     vdW  Elec       q    Type
                         _______ _______ _______ _____ _____    ______ ____

>  <TORSDO>
F 4

$$$$
=
 OpenBabel11032420163D

 28 31  0  0  0  0  0  0  0  0999 V2000
  189.4920  177.3290  146.8140 N   0  0  0  0  0  0  0  0  0  0  0  0
  188.5890  177.6370  144.5560 N   0  0  0  0  0  0  0  0  0  0  0  0
  183.3880  178.7900  143.6000 C   0  0  0  0  0  2  0  0  0  0  0  0
  186.4750  177.8980  145.1480 C   0  0  0  0  0  0  0  0  0  0  0  0
  187.3430  177.8600  144.1060 C   0  0  0  0  0  0  0  0  0  0  0  0
  183.6940  177.8430  140.7730 C   0  0  0  0  0  3  0  0  0  0  0  0
  185.1250  178.1390  144.9740 C   0  0  0  0  0  3  0  0  0  0  0  0
  186.9200  177.9710  142.7750 C   0  0  0  0  0  0  0  0  0  0  0  0
  184.6370  178.3190  143.6680 C   0  0  0  0  0  0  0  0  0  0  0  0
  188.4090  177.5610  145.9000 C   0  0  0  0  0  0  0  0  0  0  0  0
  187.1230  177.7180  146.3080 N   0  0  0  0  0  2  0  0  0  0  0  0
  182.7560  179.3800  142.3870 C   0  0  0  0  0  2  0  0  0  0  0  0
  185.5160  178.1330  142.5370 C   0  0  0  0  0  0  0  0  0  0  0  0
  182.6680  178.4250  141.3020 N   0  0  0  0  0  0  0  0  0  0  0  0
  185.0760  177.9500  141.2750 C   0  0  0  0  0  2  0  0  0  0  0  0
  188.6840  179.2730  138.3640 O   0  0  0  0  0  1  0  0  0  0  0  0
  189.8040  177.5490  139.6240 C   0  0  0  0  0  3  0  0  0  0  0  0
  187.8380  178.6310  140.5300 C   0  0  0  0  0  3  0  0  0  0  0  0
  187.9260  177.8450  141.6880 C   0  0  0  0  0  0  0  0  0  0  0  0
  188.7750  178.4870  139.5040 C   0  0  0  0  0  0  0  0  0  0  0  0
  189.8940  176.7540  140.7700 C   0  0  0  0  0  3  0  0  0  0  0  0
  188.9560  176.8990  141.7970 C   0  0  0  0  0  3  0  0  0  0  0  0
  189.2540  177.2340  148.2480 C   0  0  0  0  0  2  0  0  0  0  0  0
  189.0650  178.6190  148.8410 C   0  0  0  0  0  1  0  0  0  0  0  0
  190.8290  177.0410  146.3120 C   0  0  0  0  0  2  0  0  0  0  0  0
  191.7730  175.1160  147.3550 O   0  0  0  0  0  0  0  0  0  0  0  0
  192.2880  177.1240  148.3330 O   0  0  0  0  0  1  0  0  0  0  0  0
  191.6420  176.3680  147.3630 C   0  0  0  0  0  0  0  0  0  0  0  0
  1 23  1  0  0  0  0
  2 10  2  0  0  0  0
  3  9  1  0  0  0  0
  4 11  1  0  0  0  0
  5  2  1  0  0  0  0
  5  4  2  0  0  0  0
  6 15  1  0  0  0  0
  6 14  2  0  0  0  0
  7  4  1  0  0  0  0
  8  5  1  0  0  0  0
  9  7  2  0  0  0  0
 10 11  1  0  0  0  0
 10  1  1  0  0  0  0
 12  3  1  0  0  0  0
 13  8  2  0  0  0  0
 13  9  1  0  0  0  0
 14 12  1  0  0  0  0
 15 13  1  0  0  0  0
 16 20  1  0  0  0  0
 17 21  1  0  0  0  0
 18 19  2  0  0  0  0
 19 22  1  0  0  0  0
 19  8  1  0  0  0  0
 20 17  2  0  0  0  0
 20 18  1  0  0  0  0
 21 22  2  0  0  0  0
 23 24  1  0  0  0  0
 25  1  1  0  0  0  0
 25 28  1  0  0  0  0
 26 28  2  0  0  0  0
 28 27  1  0  0  0  0
M  END
>  <MODEL>
8

>  <REMARK>
 VINA RESULT:      -7.9      3.036      6.766
  Name = 
  4 active torsions:
  status: ('A' for Active; 'I' for Inactive)
    1  A    between atoms: C_1  and  N_6
    2  A    between atoms: N_6  and  C_28
    3  A    between atoms: C_15  and  C_20
    4  A    between atoms: C_17  and  C_28
                            x       y       z     vdW  Elec       q    Type
                         _______ _______ _______ _____ _____    ______ ____

>  <TORSDO>
F 4

$$$$
=
 OpenBabel11032420163D

 28 31  0  0  0  0  0  0  0  0999 V2000
  185.4030  178.3990  139.1790 N   0  0  0  0  0  0  0  0  0  0  0  0
  186.0810  178.3490  141.5340 N   0  0  0  0  0  0  0  0  0  0  0  0
  191.2420  177.9060  143.1010 C   0  0  0  0  0  2  0  0  0  0  0  0
  188.2360  178.0060  141.1840 C   0  0  0  0  0  0  0  0  0  0  0  0
  187.2760  178.1830  142.1250 C   0  0  0  0  0  0  0  0  0  0  0  0
  190.3440  176.9860  145.8090 C   0  0  0  0  0  3  0  0  0  0  0  0
  189.5690  177.8380  141.5130 C   0  0  0  0  0  3  0  0  0  0  0  0
  187.5510  178.1180  143.4970 C   0  0  0  0  0  0  0  0  0  0  0  0
  189.9290  177.8210  142.8710 C   0  0  0  0  0  0  0  0  0  0  0  0
  186.3900  178.2730  140.2140 C   0  0  0  0  0  0  0  0  0  0  0  0
  187.7070  178.0650  139.9530 N   0  0  0  0  0  2  0  0  0  0  0  0
  191.8670  178.2430  144.4110 C   0  0  0  0  0  2  0  0  0  0  0  0
  188.9050  177.8570  143.8900 C   0  0  0  0  0  0  0  0  0  0  0  0
  191.5500  177.2640  145.4300 N   0  0  0  0  0  0  0  0  0  0  0  0
  189.1200  177.5080  145.1750 C   0  0  0  0  0  2  0  0  0  0  0  0
  182.7850  178.8740  144.4910 O   0  0  0  0  0  1  0  0  0  0  0  0
  184.3370  178.5520  146.3090 C   0  0  0  0  0  3  0  0  0  0  0  0
  185.1200  178.4930  144.0200 C   0  0  0  0  0  3  0  0  0  0  0  0
  186.4290  178.2500  144.4630 C   0  0  0  0  0  0  0  0  0  0  0  0
  184.0780  178.6390  144.9390 C   0  0  0  0  0  0  0  0  0  0  0  0
  185.6390  178.3210  146.7600 C   0  0  0  0  0  3  0  0  0  0  0  0
  186.6820  178.1740  145.8410 C   0  0  0  0  0  3  0  0  0  0  0  0
  185.7730  178.2920  137.7740 C   0  0  0  0  0  2  0  0  0  0  0  0
  185.4240  176.9140  137.2430 C   0  0  0  0  0  1  0  0  0  0  0  0
  183.9890  178.4940  139.5190 C   0  0  0  0  0  2  0  0  0  0  0  0
  182.2740  179.5000  138.2030 O   0  0  0  0  0  0  0  0  0  0  0  0
  183.9660  180.8990  138.8610 O   0  0  0  0  0  1  0  0  0  0  0  0
  183.3640  179.6490  138.8140 C   0  0  0  0  0  0  0  0  0  0  0  0
  1 25  1  0  0  0  0
  1 10  1  0  0  0  0
  2  5  1  0  0  0  0
  3 12  1  0  0  0  0
  4  7  2  0  0  0  0
  4  5  1  0  0  0  0
  5  8  2  0  0  0  0
  7  9  1  0  0  0  0
  8 13  1  0  0  0  0
  8 19  1  0  0  0  0
  9  3  1  0  0  0  0
  9 13  2  0  0  0  0
 10  2  2  0  0  0  0
 11 10  1  0  0  0  0
 11  4  1  0  0  0  0
 12 14  1  0  0  0  0
 13 15  1  0  0  0  0
 14  6  2  0  0  0  0
 15  6  1  0  0  0  0
 16 20  1  0  0  0  0
 17 21  1  0  0  0  0
 18 19  2  0  0  0  0
 18 20  1  0  0  0  0
 19 22  1  0  0  0  0
 20 17  2  0  0  0  0
 22 21  2  0  0  0  0
 23  1  1  0  0  0  0
 24 23  1  0  0  0  0
 26 28  2  0  0  0  0
 28 27  1  0  0  0  0
 28 25  1  0  0  0  0
M  END
>  <MODEL>
9

>  <REMARK>
 VINA RESULT:      -7.8      2.045      4.497
  Name = 
  4 active torsions:
  status: ('A' for Active; 'I' for Inactive)
    1  A    between atoms: C_1  and  N_6
    2  A    between atoms: N_6  and  C_28
    3  A    between atoms: C_15  and  C_20
    4  A    between atoms: C_17  and  C_28
                            x       y       z     vdW  Elec       q    Type
                         _______ _______ _______ _____ _____    ______ ____

>  <TORSDO>
F 4

$$$$
