=
 OpenBabel11042410533D

 26 27  0  0  1  0  0  0  0  0999 V2000
  191.8120  176.2860  138.2610 C   0  0  0  0  0  0  0  0  0  0  0  0
  189.9570  176.3130  136.5650 C   0  0  0  0  0  0  0  0  0  0  0  0
  187.5590  178.2200  138.7180 C   0  0  0  0  0  3  0  0  0  0  0  0
  191.2870  175.7250  136.9580 C   0  0  2  0  0  3  0  0  0  0  0  0
  187.7820  177.5750  137.3820 C   0  0  0  0  0  3  0  0  0  0  0  0
  193.0350  176.1460  138.5320 O   0  0  0  0  0  0  0  0  0  0  0  0
  191.3910  177.2900  140.5150 C   0  0  0  0  0  0  0  0  0  0  0  0
  188.6090  178.0410  139.5140 C   0  0  0  0  0  2  0  0  0  0  0  0
  189.5920  177.2650  138.7750 C   0  0  0  0  0  0  0  0  0  0  0  0
  192.4600  177.9480  140.6340 O   0  0  0  0  0  0  0  0  0  0  0  0
  190.9240  176.9250  139.2040 N   0  0  0  0  0  0  0  0  0  0  0  0
  189.1430  177.0050  137.5670 C   0  0  0  0  0  0  0  0  0  0  0  0
  189.5380  176.1880  135.3840 O   0  0  0  0  0  0  0  0  0  0  0  0
  190.2140  173.6710  137.5740 O   0  0  0  0  0  0  0  0  0  0  0  0
  191.2020  174.2320  137.0270 C   0  0  0  0  0  0  0  0  0  0  0  0
  192.2440  173.4410  136.4710 N   0  0  0  0  0  1  0  0  0  0  0  0
  190.6570  176.8820  141.7230 C   0  0  0  0  0  0  0  0  0  0  0  0
  190.2900  177.8600  142.6970 N   0  0  0  0  0  2  0  0  0  0  0  0
  190.3690  175.6690  141.9110 O   0  0  0  0  0  0  0  0  0  0  0  0
  189.5970  177.4980  143.8570 N   0  0  0  0  0  0  0  0  0  0  0  0
  188.3430  177.7790  143.9750 C   0  0  0  0  0  3  0  0  0  0  0  0
  187.5950  177.4010  145.2090 C   0  0  0  0  0  2  0  0  0  0  0  0
  186.2420  178.0320  145.2240 C   0  0  0  0  0  0  0  0  0  0  0  0
  185.5230  177.9590  144.2410 O   0  0  0  0  0  0  0  0  0  0  0  0
  185.7860  178.7900  146.4270 C   0  0  0  0  0  2  0  0  0  0  0  0
  184.3920  178.7820  146.4920 O   0  0  0  0  0  1  0  0  0  0  0  0
  1  6  2  0  0  0  0
  1 11  1  0  0  0  0
  2  4  1  0  0  0  0
  2 12  1  0  0  0  0
  3  8  1  0  0  0  0
  4 15  1  1  0  0  0
  4  1  1  0  0  0  0
  5 12  1  0  0  0  0
  5  3  2  0  0  0  0
  7 10  2  0  0  0  0
  7 17  1  0  0  0  0
  9 11  1  0  0  0  0
  9  8  1  0  0  0  0
 11  7  1  0  0  0  0
 12  9  2  0  0  0  0
 13  2  2  0  0  0  0
 15 14  2  0  0  0  0
 16 15  1  0  0  0  0
 17 19  2  0  0  0  0
 17 18  1  0  0  0  0
 18 20  1  0  0  0  0
 20 21  2  0  0  0  0
 21 22  1  0  0  0  0
 22 23  1  0  0  0  0
 23 25  1  0  0  0  0
 24 23  2  0  0  0  0
 25 26  1  0  0  0  0
M  END
>  <MODEL>
1

>  <REMARK>
 VINA RESULT:      -6.7      0.000      0.000
  Name = 
  6 active torsions:
  status: ('A' for Active; 'I' for Inactive)
    1  A    between atoms: C_4  and  C_5
    2  A    between atoms: C_5  and  C_22
    3  A    between atoms: C_6  and  C_17
    4  A    between atoms: C_8  and  C_14
    5  A    between atoms: N_9  and  N_11
    6  A    between atoms: C_19  and  C_22
                            x       y       z     vdW  Elec       q    Type
                         _______ _______ _______ _____ _____    ______ ____

>  <TORSDO>
F 6

$$$$
=
 OpenBabel11042410533D

 26 27  0  0  1  0  0  0  0  0999 V2000
  185.1390  178.6180  140.1470 C   0  0  0  0  0  0  0  0  0  0  0  0
  182.7630  178.7400  140.9570 C   0  0  0  0  0  0  0  0  0  0  0  0
  183.6580  179.1090  144.5740 C   0  0  0  0  0  3  0  0  0  0  0  0
  183.6790  178.4190  139.8050 C   0  0  2  0  0  3  0  0  0  0  0  0
  182.5410  179.0400  143.5740 C   0  0  0  0  0  3  0  0  0  0  0  0
  185.9740  178.7160  139.2070 O   0  0  0  0  0  0  0  0  0  0  0  0
  186.9850  178.6480  141.8370 C   0  0  0  0  0  0  0  0  0  0  0  0
  184.8380  178.9480  143.9820 C   0  0  0  0  0  2  0  0  0  0  0  0
  184.5920  178.7530  142.5630 C   0  0  0  0  0  0  0  0  0  0  0  0
  187.7480  179.4780  141.2730 O   0  0  0  0  0  0  0  0  0  0  0  0
  185.5810  178.6450  141.5220 N   0  0  0  0  0  0  0  0  0  0  0  0
  183.3020  178.8130  142.3170 C   0  0  0  0  0  0  0  0  0  0  0  0
  181.5330  178.9220  140.7510 O   0  0  0  0  0  0  0  0  0  0  0  0
  182.8650  176.1780  140.0520 O   0  0  0  0  0  0  0  0  0  0  0  0
  183.4410  177.0240  139.3170 C   0  0  0  0  0  0  0  0  0  0  0  0
  183.8670  176.6520  138.0120 N   0  0  0  0  0  1  0  0  0  0  0  0
  187.5520  177.6780  142.7870 C   0  0  0  0  0  0  0  0  0  0  0  0
  188.3590  178.1330  143.8730 N   0  0  0  0  0  2  0  0  0  0  0  0
  187.3460  176.4430  142.6310 O   0  0  0  0  0  0  0  0  0  0  0  0
  188.9150  177.2320  144.7860 N   0  0  0  0  0  0  0  0  0  0  0  0
  189.1920  177.6160  145.9880 C   0  0  0  0  0  3  0  0  0  0  0  0
  189.7880  176.6630  146.9690 C   0  0  0  0  0  2  0  0  0  0  0  0
  191.2650  176.5580  146.7750 C   0  0  0  0  0  0  0  0  0  0  0  0
  191.8260  177.2740  145.9630 O   0  0  0  0  0  0  0  0  0  0  0  0
  192.0470  175.5460  147.5460 C   0  0  0  0  0  2  0  0  0  0  0  0
  193.0340  176.1840  148.2990 O   0  0  0  0  0  1  0  0  0  0  0  0
  1 11  1  0  0  0  0
  2 12  1  0  0  0  0
  4 15  1  1  0  0  0
  4  1  1  0  0  0  0
  4  2  1  0  0  0  0
  5  3  2  0  0  0  0
  6  1  2  0  0  0  0
  7 17  1  0  0  0  0
  8  3  1  0  0  0  0
  9  8  1  0  0  0  0
 10  7  2  0  0  0  0
 11  7  1  0  0  0  0
 11  9  1  0  0  0  0
 12  9  2  0  0  0  0
 12  5  1  0  0  0  0
 13  2  2  0  0  0  0
 15 14  2  0  0  0  0
 16 15  1  0  0  0  0
 17 18  1  0  0  0  0
 18 20  1  0  0  0  0
 19 17  2  0  0  0  0
 20 21  2  0  0  0  0
 21 22  1  0  0  0  0
 23 22  1  0  0  0  0
 23 25  1  0  0  0  0
 24 23  2  0  0  0  0
 25 26  1  0  0  0  0
M  END
>  <MODEL>
2

>  <REMARK>
 VINA RESULT:      -6.6      4.916      6.718
  Name = 
  6 active torsions:
  status: ('A' for Active; 'I' for Inactive)
    1  A    between atoms: C_4  and  C_5
    2  A    between atoms: C_5  and  C_22
    3  A    between atoms: C_6  and  C_17
    4  A    between atoms: C_8  and  C_14
    5  A    between atoms: N_9  and  N_11
    6  A    between atoms: C_19  and  C_22
                            x       y       z     vdW  Elec       q    Type
                         _______ _______ _______ _____ _____    ______ ____

>  <TORSDO>
F 6

$$$$
=
 OpenBabel11042410533D

 26 27  0  0  1  0  0  0  0  0999 V2000
  192.1540  176.0690  138.0540 C   0  0  0  0  0  0  0  0  0  0  0  0
  190.5470  176.2870  136.1330 C   0  0  0  0  0  0  0  0  0  0  0  0
  188.2830  178.7170  137.8620 C   0  0  0  0  0  3  0  0  0  0  0  0
  191.6980  175.5130  136.7230 C   0  0  2  0  0  3  0  0  0  0  0  0
  188.5460  177.9510  136.5980 C   0  0  0  0  0  3  0  0  0  0  0  0
  193.2930  175.7450  138.4870 O   0  0  0  0  0  0  0  0  0  0  0  0
  191.6510  177.2870  140.1820 C   0  0  0  0  0  0  0  0  0  0  0  0
  189.1830  178.4210  138.7940 C   0  0  0  0  0  2  0  0  0  0  0  0
  190.0950  177.4410  138.2280 C   0  0  0  0  0  0  0  0  0  0  0  0
  192.7970  177.7620  140.4060 O   0  0  0  0  0  0  0  0  0  0  0  0
  191.2860  176.9140  138.8410 N   0  0  0  0  0  0  0  0  0  0  0  0
  189.7540  177.1750  136.9860 C   0  0  0  0  0  0  0  0  0  0  0  0
  190.2570  176.1510  134.9150 O   0  0  0  0  0  0  0  0  0  0  0  0
  192.1360  173.1720  136.4490 O   0  0  0  0  0  0  0  0  0  0  0  0
  191.3440  174.0640  136.8540 C   0  0  0  0  0  0  0  0  0  0  0  0
  190.1030  173.6930  137.4410 N   0  0  0  0  0  1  0  0  0  0  0  0
  190.7190  177.0940  141.3040 C   0  0  0  0  0  0  0  0  0  0  0  0
  190.4030  178.1910  142.1620 N   0  0  0  0  0  2  0  0  0  0  0  0
  190.2140  175.9590  141.5210 O   0  0  0  0  0  0  0  0  0  0  0  0
  189.5250  178.0330  143.2390 N   0  0  0  0  0  0  0  0  0  0  0  0
  189.9880  177.8990  144.4370 C   0  0  0  0  0  3  0  0  0  0  0  0
  189.0600  177.7280  145.5930 C   0  0  0  0  0  2  0  0  0  0  0  0
  189.7720  177.1280  146.7600 C   0  0  0  0  0  0  0  0  0  0  0  0
  189.1990  177.0150  147.8310 O   0  0  0  0  0  0  0  0  0  0  0  0
  191.1980  176.7070  146.6270 C   0  0  0  0  0  2  0  0  0  0  0  0
  191.8750  176.9400  147.8260 O   0  0  0  0  0  1  0  0  0  0  0  0
  1  6  2  0  0  0  0
  1 11  1  0  0  0  0
  2  4  1  0  0  0  0
  2 12  1  0  0  0  0
  3  8  1  0  0  0  0
  4 15  1  1  0  0  0
  4  1  1  0  0  0  0
  5 12  1  0  0  0  0
  5  3  2  0  0  0  0
  7 10  2  0  0  0  0
  7 17  1  0  0  0  0
  9  8  1  0  0  0  0
  9 11  1  0  0  0  0
 11  7  1  0  0  0  0
 12  9  2  0  0  0  0
 13  2  2  0  0  0  0
 14 15  2  0  0  0  0
 15 16  1  0  0  0  0
 17 19  2  0  0  0  0
 17 18  1  0  0  0  0
 18 20  1  0  0  0  0
 20 21  2  0  0  0  0
 21 22  1  0  0  0  0
 22 23  1  0  0  0  0
 23 24  2  0  0  0  0
 25 23  1  0  0  0  0
 25 26  1  0  0  0  0
M  END
>  <MODEL>
3

>  <REMARK>
 VINA RESULT:      -6.5      2.098      2.506
  Name = 
  6 active torsions:
  status: ('A' for Active; 'I' for Inactive)
    1  A    between atoms: C_4  and  C_5
    2  A    between atoms: C_5  and  C_22
    3  A    between atoms: C_6  and  C_17
    4  A    between atoms: C_8  and  C_14
    5  A    between atoms: N_9  and  N_11
    6  A    between atoms: C_19  and  C_22
                            x       y       z     vdW  Elec       q    Type
                         _______ _______ _______ _____ _____    ______ ____

>  <TORSDO>
F 6

$$$$
=
 OpenBabel11042410533D

 26 27  0  0  1  0  0  0  0  0999 V2000
  181.9660  179.4400  140.4250 C   0  0  0  0  0  0  0  0  0  0  0  0
  181.8020  178.8270  142.8580 C   0  0  0  0  0  0  0  0  0  0  0  0
  185.4940  178.4540  143.3610 C   0  0  0  0  0  3  0  0  0  0  0  0
  181.0590  179.0190  141.5610 C   0  0  2  0  0  3  0  0  0  0  0  0
  184.1420  178.3970  144.0100 C   0  0  0  0  0  2  0  0  0  0  0  0
  181.4490  179.9540  139.3970 O   0  0  0  0  0  0  0  0  0  0  0  0
  184.2210  179.4460  139.3400 C   0  0  0  0  0  0  0  0  0  0  0  0
  185.3870  178.7120  142.0610 C   0  0  0  0  0  3  0  0  0  0  0  0
  183.9710  178.8350  141.7540 C   0  0  0  0  0  0  0  0  0  0  0  0
  184.1310  180.5390  138.7180 O   0  0  0  0  0  0  0  0  0  0  0  0
  183.3910  179.2140  140.4910 N   0  0  0  0  0  0  0  0  0  0  0  0
  183.2580  178.6700  142.8460 C   0  0  0  0  0  0  0  0  0  0  0  0
  181.1670  178.7810  143.9450 O   0  0  0  0  0  0  0  0  0  0  0  0
  180.8290  176.9090  140.4460 O   0  0  0  0  0  0  0  0  0  0  0  0
  180.3080  177.7760  141.1980 C   0  0  0  0  0  0  0  0  0  0  0  0
  178.9950  177.5740  141.7060 N   0  0  0  0  0  1  0  0  0  0  0  0
  185.1530  178.4160  138.8560 C   0  0  0  0  0  0  0  0  0  0  0  0
  186.5560  178.6800  138.8340 N   0  0  0  0  0  2  0  0  0  0  0  0
  184.7150  177.3090  138.4410 O   0  0  0  0  0  0  0  0  0  0  0  0
  187.4640  177.7200  138.3740 N   0  0  0  0  0  0  0  0  0  0  0  0
  188.6570  178.0720  138.0290 C   0  0  0  0  0  3  0  0  0  0  0  0
  189.6320  177.0570  137.5340 C   0  0  0  0  0  2  0  0  0  0  0  0
  190.3500  176.4110  138.6730 C   0  0  0  0  0  0  0  0  0  0  0  0
  190.7650  175.2690  138.5630 O   0  0  0  0  0  0  0  0  0  0  0  0
  190.5210  177.1480  139.9600 C   0  0  0  0  0  2  0  0  0  0  0  0
  190.3810  176.2670  141.0330 O   0  0  0  0  0  1  0  0  0  0  0  0
  1 11  1  0  0  0  0
  1  4  1  0  0  0  0
  2 13  2  0  0  0  0
  3  5  1  0  0  0  0
  4 15  1  6  0  0  0
  4  2  1  0  0  0  0
  6  1  2  0  0  0  0
  7 11  1  0  0  0  0
  8  3  2  0  0  0  0
  9  8  1  0  0  0  0
  9 12  2  0  0  0  0
 10  7  2  0  0  0  0
 11  9  1  0  0  0  0
 12  2  1  0  0  0  0
 12  5  1  0  0  0  0
 14 15  2  0  0  0  0
 15 16  1  0  0  0  0
 17  7  1  0  0  0  0
 18 17  1  0  0  0  0
 19 17  2  0  0  0  0
 20 18  1  0  0  0  0
 21 20  2  0  0  0  0
 22 21  1  0  0  0  0
 22 23  1  0  0  0  0
 23 25  1  0  0  0  0
 24 23  2  0  0  0  0
 25 26  1  0  0  0  0
M  END
>  <MODEL>
4

>  <REMARK>
 VINA RESULT:      -6.4      4.857      8.911
  Name = 
  6 active torsions:
  status: ('A' for Active; 'I' for Inactive)
    1  A    between atoms: C_4  and  C_5
    2  A    between atoms: C_5  and  C_22
    3  A    between atoms: C_6  and  C_17
    4  A    between atoms: C_8  and  C_14
    5  A    between atoms: N_9  and  N_11
    6  A    between atoms: C_19  and  C_22
                            x       y       z     vdW  Elec       q    Type
                         _______ _______ _______ _____ _____    ______ ____

>  <TORSDO>
F 6

$$$$
=
 OpenBabel11042410533D

 26 27  0  0  1  0  0  0  0  0999 V2000
  189.8380  176.4900  143.8380 C   0  0  0  0  0  0  0  0  0  0  0  0
  191.0330  177.1330  145.9550 C   0  0  0  0  0  0  0  0  0  0  0  0
  187.9170  177.9390  147.8690 C   0  0  0  0  0  3  0  0  0  0  0  0
  191.1630  176.8290  144.4850 C   0  0  2  0  0  3  0  0  0  0  0  0
  189.4140  177.8540  147.9170 C   0  0  0  0  0  2  0  0  0  0  0  0
  189.8410  175.8980  142.7250 O   0  0  0  0  0  0  0  0  0  0  0  0
  187.3470  176.7210  143.7500 C   0  0  0  0  0  0  0  0  0  0  0  0
  187.4620  177.6420  146.6550 C   0  0  0  0  0  3  0  0  0  0  0  0
  188.6120  177.3510  145.8160 C   0  0  0  0  0  0  0  0  0  0  0  0
  187.0710  175.6110  143.2190 O   0  0  0  0  0  0  0  0  0  0  0  0
  188.5910  176.8800  144.4550 N   0  0  0  0  0  0  0  0  0  0  0  0
  189.7190  177.4570  146.5170 C   0  0  0  0  0  0  0  0  0  0  0  0
  192.0550  177.1300  146.6910 O   0  0  0  0  0  0  0  0  0  0  0  0
  192.3910  177.7870  142.6620 O   0  0  0  0  0  0  0  0  0  0  0  0
  191.8180  177.9690  143.7690 C   0  0  0  0  0  0  0  0  0  0  0  0
  191.7930  179.2690  144.3460 N   0  0  0  0  0  1  0  0  0  0  0  0
  186.4030  177.8400  143.6130 C   0  0  0  0  0  0  0  0  0  0  0  0
  185.2210  177.8760  144.4140 N   0  0  0  0  0  2  0  0  0  0  0  0
  186.6240  178.7580  142.7770 O   0  0  0  0  0  0  0  0  0  0  0  0
  184.3030  178.9260  144.2990 N   0  0  0  0  0  0  0  0  0  0  0  0
  183.0680  178.6770  144.0180 C   0  0  0  0  0  3  0  0  0  0  0  0
  182.0820  179.7890  143.8910 C   0  0  0  0  0  2  0  0  0  0  0  0
  180.8380  179.3200  143.2110 C   0  0  0  0  0  0  0  0  0  0  0  0
  180.7680  179.3290  141.9930 O   0  0  0  0  0  0  0  0  0  0  0  0
  179.6650  178.8800  144.0230 C   0  0  0  0  0  2  0  0  0  0  0  0
  179.6820  177.4920  144.1660 O   0  0  0  0  0  1  0  0  0  0  0  0
  1 11  1  0  0  0  0
  1  4  1  0  0  0  0
  2 12  1  0  0  0  0
  2 13  2  0  0  0  0
  3  5  1  0  0  0  0
  4 15  1  6  0  0  0
  4  2  1  0  0  0  0
  6  1  2  0  0  0  0
  7 11  1  0  0  0  0
  8  3  2  0  0  0  0
  9 12  2  0  0  0  0
  9  8  1  0  0  0  0
 10  7  2  0  0  0  0
 11  9  1  0  0  0  0
 12  5  1  0  0  0  0
 14 15  2  0  0  0  0
 15 16  1  0  0  0  0
 17  7  1  0  0  0  0
 17 18  1  0  0  0  0
 19 17  2  0  0  0  0
 20 18  1  0  0  0  0
 21 20  2  0  0  0  0
 22 21  1  0  0  0  0
 23 22  1  0  0  0  0
 23 25  1  0  0  0  0
 24 23  2  0  0  0  0
 25 26  1  0  0  0  0
M  END
>  <MODEL>
5

>  <REMARK>
 VINA RESULT:      -6.0      4.940      7.183
  Name = 
  6 active torsions:
  status: ('A' for Active; 'I' for Inactive)
    1  A    between atoms: C_4  and  C_5
    2  A    between atoms: C_5  and  C_22
    3  A    between atoms: C_6  and  C_17
    4  A    between atoms: C_8  and  C_14
    5  A    between atoms: N_9  and  N_11
    6  A    between atoms: C_19  and  C_22
                            x       y       z     vdW  Elec       q    Type
                         _______ _______ _______ _____ _____    ______ ____

>  <TORSDO>
F 6

$$$$
=
 OpenBabel11042410533D

 26 27  0  0  1  0  0  0  0  0999 V2000
  187.3810  177.6180  136.8140 C   0  0  0  0  0  0  0  0  0  0  0  0
  184.9030  177.2920  136.5390 C   0  0  0  0  0  0  0  0  0  0  0  0
  184.0100  178.6430  139.9160 C   0  0  0  0  0  3  0  0  0  0  0  0
  186.2760  176.9810  136.0010 C   0  0  2  0  0  3  0  0  0  0  0  0
  183.4860  178.0760  138.6290 C   0  0  0  0  0  3  0  0  0  0  0  0
  188.5270  177.7250  136.2990 O   0  0  0  0  0  0  0  0  0  0  0  0
  188.2420  178.4830  138.9990 C   0  0  0  0  0  0  0  0  0  0  0  0
  185.3400  178.6690  139.9180 C   0  0  0  0  0  2  0  0  0  0  0  0
  185.7910  178.1190  138.6500 C   0  0  0  0  0  0  0  0  0  0  0  0
  189.0530  179.3420  138.5590 O   0  0  0  0  0  0  0  0  0  0  0  0
  187.1470  178.0500  138.1720 N   0  0  0  0  0  0  0  0  0  0  0  0
  184.7550  177.7900  137.9090 C   0  0  0  0  0  0  0  0  0  0  0  0
  183.8870  177.1030  135.8200 O   0  0  0  0  0  0  0  0  0  0  0  0
  186.8450  174.8400  136.9170 O   0  0  0  0  0  0  0  0  0  0  0  0
  186.4800  175.5010  135.9080 C   0  0  0  0  0  0  0  0  0  0  0  0
  186.2590  174.8360  134.6710 N   0  0  0  0  0  1  0  0  0  0  0  0
  188.4500  177.9170  140.3410 C   0  0  0  0  0  0  0  0  0  0  0  0
  188.0140  178.6410  141.4930 N   0  0  0  0  0  2  0  0  0  0  0  0
  189.0290  176.8060  140.4780 O   0  0  0  0  0  0  0  0  0  0  0  0
  188.2050  178.1280  142.7810 N   0  0  0  0  0  0  0  0  0  0  0  0
  187.2000  177.6710  143.4500 C   0  0  0  0  0  3  0  0  0  0  0  0
  187.3910  177.1260  144.8250 C   0  0  0  0  0  2  0  0  0  0  0  0
  186.7530  178.0140  145.8420 C   0  0  0  0  0  0  0  0  0  0  0  0
  187.2460  178.1230  146.9520 O   0  0  0  0  0  0  0  0  0  0  0  0
  185.4880  178.7360  145.5120 C   0  0  0  0  0  2  0  0  0  0  0  0
  184.5910  178.6290  146.5760 O   0  0  0  0  0  1  0  0  0  0  0  0
  1 11  1  0  0  0  0
  2 12  1  0  0  0  0
  3  8  1  0  0  0  0
  4 15  1  1  0  0  0
  4  2  1  0  0  0  0
  4  1  1  0  0  0  0
  5  3  2  0  0  0  0
  6  1  2  0  0  0  0
  7 17  1  0  0  0  0
  9  8  1  0  0  0  0
 10  7  2  0  0  0  0
 11  9  1  0  0  0  0
 11  7  1  0  0  0  0
 12  5  1  0  0  0  0
 12  9  2  0  0  0  0
 13  2  2  0  0  0  0
 15 14  2  0  0  0  0
 16 15  1  0  0  0  0
 17 19  2  0  0  0  0
 17 18  1  0  0  0  0
 18 20  1  0  0  0  0
 20 21  2  0  0  0  0
 21 22  1  0  0  0  0
 22 23  1  0  0  0  0
 23 24  2  0  0  0  0
 25 23  1  0  0  0  0
 25 26  1  0  0  0  0
M  END
>  <MODEL>
6

>  <REMARK>
 VINA RESULT:      -5.9      2.963      3.844
  Name = 
  6 active torsions:
  status: ('A' for Active; 'I' for Inactive)
    1  A    between atoms: C_4  and  C_5
    2  A    between atoms: C_5  and  C_22
    3  A    between atoms: C_6  and  C_17
    4  A    between atoms: C_8  and  C_14
    5  A    between atoms: N_9  and  N_11
    6  A    between atoms: C_19  and  C_22
                            x       y       z     vdW  Elec       q    Type
                         _______ _______ _______ _____ _____    ______ ____

>  <TORSDO>
F 6

$$$$
=
 OpenBabel11042410533D

 26 27  0  0  1  0  0  0  0  0999 V2000
  189.7690  174.7210  137.1420 C   0  0  0  0  0  0  0  0  0  0  0  0
  187.9500  175.6450  135.6730 C   0  0  0  0  0  0  0  0  0  0  0  0
  188.2960  179.1710  136.8860 C   0  0  0  0  0  3  0  0  0  0  0  0
  188.6040  174.4070  136.2290 C   0  0  2  0  0  3  0  0  0  0  0  0
  187.5730  178.2470  135.9500 C   0  0  0  0  0  3  0  0  0  0  0  0
  190.6000  173.8090  137.4000 O   0  0  0  0  0  0  0  0  0  0  0  0
  190.9020  176.2600  138.7580 C   0  0  0  0  0  0  0  0  0  0  0  0
  189.1630  178.5020  137.6400 C   0  0  0  0  0  2  0  0  0  0  0  0
  189.0740  177.0990  137.2700 C   0  0  0  0  0  0  0  0  0  0  0  0
  192.0960  175.9200  138.5410 O   0  0  0  0  0  0  0  0  0  0  0  0
  189.9020  176.0250  137.7510 N   0  0  0  0  0  0  0  0  0  0  0  0
  188.1880  176.9430  136.3100 C   0  0  0  0  0  0  0  0  0  0  0  0
  187.1830  175.5580  134.6780 O   0  0  0  0  0  0  0  0  0  0  0  0
  186.5680  174.0700  137.4500 O   0  0  0  0  0  0  0  0  0  0  0  0
  187.5980  173.5550  136.9380 C   0  0  0  0  0  0  0  0  0  0  0  0
  187.8070  172.1510  137.0340 N   0  0  0  0  0  1  0  0  0  0  0  0
  190.5490  176.8660  140.0520 C   0  0  0  0  0  0  0  0  0  0  0  0
  189.2930  176.5640  140.6600 N   0  0  0  0  0  2  0  0  0  0  0  0
  191.3440  177.6680  140.6140 O   0  0  0  0  0  0  0  0  0  0  0  0
  188.9310  177.1310  141.8860 N   0  0  0  0  0  0  0  0  0  0  0  0
  189.0600  176.4510  142.9770 C   0  0  0  0  0  3  0  0  0  0  0  0
  188.6740  177.0450  144.2890 C   0  0  0  0  0  2  0  0  0  0  0  0
  189.8430  177.7150  144.9330 C   0  0  0  0  0  0  0  0  0  0  0  0
  190.3270  178.7140  144.4280 O   0  0  0  0  0  0  0  0  0  0  0  0
  190.4450  177.1370  146.1710 C   0  0  0  0  0  2  0  0  0  0  0  0
  191.8280  177.0300  146.0210 O   0  0  0  0  0  1  0  0  0  0  0  0
  1  6  2  0  0  0  0
  1 11  1  0  0  0  0
  2  4  1  0  0  0  0
  2 12  1  0  0  0  0
  3  8  1  0  0  0  0
  4 15  1  1  0  0  0
  4  1  1  0  0  0  0
  5 12  1  0  0  0  0
  5  3  2  0  0  0  0
  7 17  1  0  0  0  0
  9  8  1  0  0  0  0
  9 11  1  0  0  0  0
 10  7  2  0  0  0  0
 11  7  1  0  0  0  0
 12  9  2  0  0  0  0
 13  2  2  0  0  0  0
 15 16  1  0  0  0  0
 15 14  2  0  0  0  0
 17 19  2  0  0  0  0
 17 18  1  0  0  0  0
 18 20  1  0  0  0  0
 20 21  2  0  0  0  0
 21 22  1  0  0  0  0
 22 23  1  0  0  0  0
 23 25  1  0  0  0  0
 24 23  2  0  0  0  0
 26 25  1  0  0  0  0
M  END
>  <MODEL>
7

>  <REMARK>
 VINA RESULT:      -5.8      2.444      3.221
  Name = 
  6 active torsions:
  status: ('A' for Active; 'I' for Inactive)
    1  A    between atoms: C_4  and  C_5
    2  A    between atoms: C_5  and  C_22
    3  A    between atoms: C_6  and  C_17
    4  A    between atoms: C_8  and  C_14
    5  A    between atoms: N_9  and  N_11
    6  A    between atoms: C_19  and  C_22
                            x       y       z     vdW  Elec       q    Type
                         _______ _______ _______ _____ _____    ______ ____

>  <TORSDO>
F 6

$$$$
=
 OpenBabel11042410533D

 26 27  0  0  1  0  0  0  0  0999 V2000
  183.1420  177.6310  140.1210 C   0  0  0  0  0  0  0  0  0  0  0  0
  183.5090  178.3490  142.5020 C   0  0  0  0  0  0  0  0  0  0  0  0
  179.9930  179.5140  143.0490 C   0  0  0  0  0  3  0  0  0  0  0  0
  184.1530  177.9260  141.2070 C   0  0  2  0  0  3  0  0  0  0  0  0
  181.3480  179.3300  143.6670 C   0  0  0  0  0  2  0  0  0  0  0  0
  183.5070  176.9570  139.1200 O   0  0  0  0  0  0  0  0  0  0  0  0
  180.9000  178.0260  139.0820 C   0  0  0  0  0  0  0  0  0  0  0  0
  180.0010  179.1580  141.7680 C   0  0  0  0  0  3  0  0  0  0  0  0
  181.3500  178.7240  141.4430 C   0  0  0  0  0  0  0  0  0  0  0  0
  180.7410  176.9020  138.5350 O   0  0  0  0  0  0  0  0  0  0  0  0
  181.7970  178.1530  140.1990 N   0  0  0  0  0  0  0  0  0  0  0  0
  182.1170  178.8060  142.5070 C   0  0  0  0  0  0  0  0  0  0  0  0
  184.1750  178.3320  143.5710 O   0  0  0  0  0  0  0  0  0  0  0  0
  184.8130  179.7930  139.8550 O   0  0  0  0  0  0  0  0  0  0  0  0
  185.1320  178.9590  140.7450 C   0  0  0  0  0  0  0  0  0  0  0  0
  186.4340  179.0010  141.3160 N   0  0  0  0  0  1  0  0  0  0  0  0
  180.1840  179.1950  138.5460 C   0  0  0  0  0  0  0  0  0  0  0  0
  180.9080  180.3790  138.2080 N   0  0  0  0  0  2  0  0  0  0  0  0
  178.9320  179.1620  138.4030 O   0  0  0  0  0  0  0  0  0  0  0  0
  180.2520  181.5060  137.7030 N   0  0  0  0  0  0  0  0  0  0  0  0
  180.4130  181.8490  136.4690 C   0  0  0  0  0  3  0  0  0  0  0  0
  179.7210  183.0510  135.9200 C   0  0  0  0  0  2  0  0  0  0  0  0
  180.6000  184.2550  136.0050 C   0  0  0  0  0  0  0  0  0  0  0  0
  181.0640  184.7440  134.9890 O   0  0  0  0  0  0  0  0  0  0  0  0
  180.9450  184.8330  137.3380 C   0  0  0  0  0  2  0  0  0  0  0  0
  182.3130  184.6980  137.5730 O   0  0  0  0  0  1  0  0  0  0  0  0
  1 11  1  0  0  0  0
  1  4  1  0  0  0  0
  2 12  1  0  0  0  0
  2 13  2  0  0  0  0
  3  5  1  0  0  0  0
  4 15  1  6  0  0  0
  4  2  1  0  0  0  0
  6  1  2  0  0  0  0
  7 11  1  0  0  0  0
  8  3  2  0  0  0  0
  9  8  1  0  0  0  0
  9 12  2  0  0  0  0
 10  7  2  0  0  0  0
 11  9  1  0  0  0  0
 12  5  1  0  0  0  0
 14 15  2  0  0  0  0
 15 16  1  0  0  0  0
 17  7  1  0  0  0  0
 18 17  1  0  0  0  0
 19 17  2  0  0  0  0
 20 18  1  0  0  0  0
 21 20  2  0  0  0  0
 22 23  1  0  0  0  0
 22 21  1  0  0  0  0
 23 25  1  0  0  0  0
 24 23  2  0  0  0  0
 25 26  1  0  0  0  0
M  END
>  <MODEL>
8

>  <REMARK>
 VINA RESULT:      -5.6      7.541     10.412
  Name = 
  6 active torsions:
  status: ('A' for Active; 'I' for Inactive)
    1  A    between atoms: C_4  and  C_5
    2  A    between atoms: C_5  and  C_22
    3  A    between atoms: C_6  and  C_17
    4  A    between atoms: C_8  and  C_14
    5  A    between atoms: N_9  and  N_11
    6  A    between atoms: C_19  and  C_22
                            x       y       z     vdW  Elec       q    Type
                         _______ _______ _______ _____ _____    ______ ____

>  <TORSDO>
F 6

$$$$
=
 OpenBabel11042410533D

 26 27  0  0  1  0  0  0  0  0999 V2000
  188.0760  177.0750  136.2850 C   0  0  0  0  0  0  0  0  0  0  0  0
  185.7930  176.2060  135.6940 C   0  0  0  0  0  0  0  0  0  0  0  0
  184.0300  177.9560  138.4960 C   0  0  0  0  0  3  0  0  0  0  0  0
  187.2770  176.0850  135.4670 C   0  0  2  0  0  3  0  0  0  0  0  0
  183.8760  177.0630  137.3010 C   0  0  0  0  0  3  0  0  0  0  0  0
  189.2680  177.3150  135.9510 O   0  0  0  0  0  0  0  0  0  0  0  0
  188.3270  178.4930  138.3320 C   0  0  0  0  0  0  0  0  0  0  0  0
  185.3090  178.2530  138.7070 C   0  0  0  0  0  2  0  0  0  0  0  0
  186.0900  177.5780  137.6830 C   0  0  0  0  0  0  0  0  0  0  0  0
  189.0550  179.4010  137.8490 O   0  0  0  0  0  0  0  0  0  0  0  0
  187.5070  177.6990  137.4570 N   0  0  0  0  0  0  0  0  0  0  0  0
  185.2930  176.9120  136.8760 C   0  0  0  0  0  0  0  0  0  0  0  0
  184.9870  175.6810  134.8800 O   0  0  0  0  0  0  0  0  0  0  0  0
  187.4690  174.1260  136.8360 O   0  0  0  0  0  0  0  0  0  0  0  0
  187.7380  174.6870  135.7400 C   0  0  0  0  0  0  0  0  0  0  0  0
  188.4860  173.9870  134.7530 N   0  0  0  0  0  1  0  0  0  0  0  0
  188.3520  178.2440  139.7820 C   0  0  0  0  0  0  0  0  0  0  0  0
  189.0750  177.1270  140.3000 N   0  0  0  0  0  2  0  0  0  0  0  0
  187.7200  179.0030  140.5670 O   0  0  0  0  0  0  0  0  0  0  0  0
  189.1110  176.8650  141.6730 N   0  0  0  0  0  0  0  0  0  0  0  0
  190.2440  176.7100  142.2730 C   0  0  0  0  0  3  0  0  0  0  0  0
  190.2930  176.4270  143.7370 C   0  0  0  0  0  2  0  0  0  0  0  0
  189.8490  177.6160  144.5220 C   0  0  0  0  0  0  0  0  0  0  0  0
  190.4430  178.6760  144.4130 O   0  0  0  0  0  0  0  0  0  0  0  0
  188.7040  177.4970  145.4730 C   0  0  0  0  0  2  0  0  0  0  0  0
  187.5070  177.3960  144.7630 O   0  0  0  0  0  1  0  0  0  0  0  0
  1 11  1  0  0  0  0
  2 12  1  0  0  0  0
  3  8  1  0  0  0  0
  4  2  1  0  0  0  0
  4 15  1  1  0  0  0
  4  1  1  0  0  0  0
  5  3  2  0  0  0  0
  6  1  2  0  0  0  0
  7 17  1  0  0  0  0
  9  8  1  0  0  0  0
 10  7  2  0  0  0  0
 11  9  1  0  0  0  0
 11  7  1  0  0  0  0
 12  5  1  0  0  0  0
 12  9  2  0  0  0  0
 13  2  2  0  0  0  0
 15 14  2  0  0  0  0
 16 15  1  0  0  0  0
 17 18  1  0  0  0  0
 17 19  2  0  0  0  0
 18 20  1  0  0  0  0
 20 21  2  0  0  0  0
 21 22  1  0  0  0  0
 22 23  1  0  0  0  0
 23 25  1  0  0  0  0
 24 23  2  0  0  0  0
 26 25  1  0  0  0  0
M  END
>  <MODEL>
9

>  <REMARK>
 VINA RESULT:      -5.5      2.810      3.849
  Name = 
  6 active torsions:
  status: ('A' for Active; 'I' for Inactive)
    1  A    between atoms: C_4  and  C_5
    2  A    between atoms: C_5  and  C_22
    3  A    between atoms: C_6  and  C_17
    4  A    between atoms: C_8  and  C_14
    5  A    between atoms: N_9  and  N_11
    6  A    between atoms: C_19  and  C_22
                            x       y       z     vdW  Elec       q    Type
                         _______ _______ _______ _____ _____    ______ ____

>  <TORSDO>
F 6

$$$$
