=
 OpenBabel11032420473D

 47 51  0  0  1  0  0  0  0  0999 V2000
  184.2590  178.7660  139.6250 C   0  0  1  0  0  3  0  0  0  0  0  0
  185.1940  176.8230  136.4790 C   0  0  0  0  0  0  0  0  0  0  0  0
  182.2970  180.2160  138.8720 C   0  0  0  0  0  0  0  0  0  0  0  0
  185.2240  177.7400  137.5340 C   0  0  0  0  0  3  0  0  0  0  0  0
  181.1940  179.2830  139.3020 C   0  0  0  0  0  2  0  0  0  0  0  0
  180.4000  177.6040  140.9920 C   0  0  2  0  0  3  0  0  0  0  0  0
  179.8250  176.2850  138.9230 C   0  0  0  0  0  2  0  0  0  0  0  0
  181.6000  178.0550  140.1290 C   0  0  1  0  0  3  0  0  0  0  0  0
  183.0650  176.9360  138.3200 C   0  0  0  0  0  0  0  0  0  0  0  0
  184.1330  175.9290  136.3760 C   0  0  0  0  0  3  0  0  0  0  0  0
  183.6750  180.0360  139.2220 N   0  0  0  0  0  2  0  0  0  0  0  0
  184.1890  177.7820  138.4880 C   0  0  0  0  0  0  0  0  0  0  0  0
  179.2570  177.0140  140.1500 C   0  0  0  0  0  2  0  0  0  0  0  0
  181.1210  175.8250  139.2200 O   0  0  0  0  0  0  0  0  0  0  0  0
  181.9270  176.9390  139.2140 N   0  0  0  0  0  0  0  0  0  0  0  0
  183.0770  175.9930  137.2820 C   0  0  0  0  0  3  0  0  0  0  0  0
  181.9840  181.2100  138.1660 O   0  0  0  0  0  0  0  0  0  0  0  0
  182.0570  178.6350  143.3520 N   0  0  0  0  0  2  0  0  0  0  0  0
  180.6620  178.9310  143.1960 C   0  0  0  0  0  0  0  0  0  0  0  0
  180.0350  179.5350  144.1110 O   0  0  0  0  0  0  0  0  0  0  0  0
  179.9690  178.5900  141.9910 N   0  0  0  0  0  2  0  0  0  0  0  0
  182.7830  178.9750  144.5660 C   0  0  0  0  0  2  0  0  0  0  0  0
  184.2340  179.2970  144.2410 C   0  0  0  0  0  2  0  0  0  0  0  0
  186.7550  177.9580  146.8220 C   0  0  2  0  0  3  0  0  0  0  0  0
  185.1590  178.2830  144.8930 C   0  0  1  0  0  3  0  0  0  0  0  0
  187.8710  177.5960  145.8410 C   0  0  0  0  0  2  0  0  0  0  0  0
  186.2890  177.9260  143.9160 C   0  0  0  0  0  2  0  0  0  0  0  0
  185.7420  178.9060  146.1680 C   0  0  0  0  0  2  0  0  0  0  0  0
  187.2860  176.9700  144.5730 C   0  0  0  0  0  2  0  0  0  0  0  0
  187.3070  178.5910  147.9350 O   0  0  0  0  0  1  0  0  0  0  0  0
  185.8380  179.7240  141.3080 O   0  0  0  0  0  1  0  0  0  0  0  0
  186.6400  178.4530  139.5800 O   0  0  0  0  0  0  0  0  0  0  0  0
  185.6470  178.9710  140.1580 C   0  0  0  0  0  0  0  0  0  0  0  0
  186.3270  176.7400  135.5080 C   0  0  0  0  0  2  0  0  0  0  0  0
  188.4370  176.6690  136.7350 C   0  0  0  0  0  0  0  0  0  0  0  0
  189.3540  177.3240  137.3990 C   0  0  0  0  0  3  0  0  0  0  0  0
  187.5250  176.0150  136.0600 C   0  0  0  0  0  0  0  0  0  0  0  0
  187.4950  174.5230  136.1650 C   0  0  1  0  0  3  0  0  0  0  0  0
  187.0480  174.1390  137.4410 O   0  0  0  0  0  0  0  0  0  0  0  0
  186.3910  172.9290  137.2210 C   0  0  2  0  0  3  0  0  0  0  0  0
  186.6630  173.9860  135.1650 O   0  0  0  0  0  0  0  0  0  0  0  0
  186.1350  172.8400  135.7430 C   0  0  0  0  0  2  0  0  0  0  0  0
  184.3000  172.1820  137.0900 C   0  0  0  0  0  1  0  0  0  0  0  0
  185.1620  172.9260  137.9000 O   0  0  0  0  0  0  0  0  0  0  0  0
  190.4810  175.3170  138.3360 O   0  0  0  0  0  0  0  0  0  0  0  0
  190.6220  177.3450  139.3960 O   0  0  0  0  0  1  0  0  0  0  0  0
  190.1870  176.6770  138.4230 C   0  0  0  0  0  0  0  0  0  0  0  0
  1 33  1  6  0  0  0
  2  4  1  0  0  0  0
  3 11  1  0  0  0  0
  3  5  1  0  0  0  0
  4 12  2  0  0  0  0
  6 21  1  6  0  0  0
  7 14  1  0  0  0  0
  7 13  1  0  0  0  0
  8  5  1  6  0  0  0
  8  6  1  0  0  0  0
  9 12  1  0  0  0  0
  9 15  1  0  0  0  0
 10  2  2  0  0  0  0
 10 16  1  0  0  0  0
 11  1  1  0  0  0  0
 12  1  1  0  0  0  0
 13  6  1  0  0  0  0
 15 14  1  0  0  0  0
 15  8  1  0  0  0  0
 16  9  2  0  0  0  0
 17  3  2  0  0  0  0
 18 22  1  0  0  0  0
 19 18  1  0  0  0  0
 19 20  2  0  0  0  0
 21 19  1  0  0  0  0
 23 22  1  0  0  0  0
 24 30  1  1  0  0  0
 25 23  1  6  0  0  0
 25 28  1  0  0  0  0
 26 24  1  0  0  0  0
 27 29  1  0  0  0  0
 27 25  1  0  0  0  0
 28 24  1  0  0  0  0
 29 26  1  0  0  0  0
 32 33  2  0  0  0  0
 33 31  1  0  0  0  0
 34 37  1  0  0  0  0
 34  2  1  0  0  0  0
 35 36  2  0  0  0  0
 36 47  1  0  0  0  0
 37 35  2  0  0  0  0
 38 37  1  1  0  0  0
 38 39  1  0  0  0  0
 40 39  1  0  0  0  0
 40 44  1  1  0  0  0
 41 42  1  0  0  0  0
 41 38  1  0  0  0  0
 42 40  1  0  0  0  0
 43 44  1  0  0  0  0
 45 47  2  0  0  0  0
 47 46  1  0  0  0  0
M  END
>  <MODEL>
1

>  <REMARK>
 VINA RESULT:      -8.8      0.000      0.000
  Name = 
  10 active torsions:
  status: ('A' for Active; 'I' for Inactive)
    1  A    between atoms: C_2  and  C_46
    2  A    between atoms: CA_3  and  C_47
    3  A    between atoms: C_4  and  C_44
    4  A    between atoms: N_11  and  C_34
    5  A    between atoms: O_15  and  C_29
    6  A    between atoms: C_18  and  N_32
    7  A    between atoms: C_21  and  C_28
    8  A    between atoms: C_22  and  C_35
    9  A    between atoms: C_28  and  C_44
   10  A    between atoms: C_34  and  C_46
                            x       y       z     vdW  Elec       q    Type
                         _______ _______ _______ _____ _____    ______ ____

>  <TORSDO>
F 10

$$$$
=
 OpenBabel11032420473D

 47 51  0  0  1  0  0  0  0  0999 V2000
  189.6950  176.7030  138.5370 C   0  0  1  0  0  3  0  0  0  0  0  0
  191.1560  173.6750  136.7350 C   0  0  0  0  0  0  0  0  0  0  0  0
  189.0550  178.2810  136.6350 C   0  0  0  0  0  0  0  0  0  0  0  0
  191.0410  174.8440  137.4930 C   0  0  0  0  0  3  0  0  0  0  0  0
  187.6170  177.8510  136.5060 C   0  0  0  0  0  2  0  0  0  0  0  0
  185.5420  177.0720  137.6870 C   0  0  2  0  0  3  0  0  0  0  0  0
  185.5420  175.3470  135.8500 C   0  0  0  0  0  2  0  0  0  0  0  0
  187.0740  176.8960  137.5790 C   0  0  1  0  0  3  0  0  0  0  0  0
  188.6480  174.9180  137.0550 C   0  0  0  0  0  0  0  0  0  0  0  0
  190.0140  173.0980  136.1870 C   0  0  0  0  0  3  0  0  0  0  0  0
  189.9140  177.8790  137.7090 N   0  0  0  0  0  2  0  0  0  0  0  0
  189.7900  175.4560  137.6990 C   0  0  0  0  0  0  0  0  0  0  0  0
  184.8000  176.5540  136.4440 C   0  0  0  0  0  2  0  0  0  0  0  0
  186.2530  174.6930  136.8740 O   0  0  0  0  0  0  0  0  0  0  0  0
  187.3270  175.5000  137.1610 N   0  0  0  0  0  0  0  0  0  0  0  0
  188.7770  173.7200  136.3390 C   0  0  0  0  0  3  0  0  0  0  0  0
  189.5250  179.0380  135.7440 O   0  0  0  0  0  0  0  0  0  0  0  0
  185.9890  178.2790  140.4660 N   0  0  0  0  0  2  0  0  0  0  0  0
  185.1520  178.8950  139.4780 C   0  0  0  0  0  0  0  0  0  0  0  0
  184.4630  179.9120  139.7750 O   0  0  0  0  0  0  0  0  0  0  0  0
  185.1150  178.4030  138.1350 N   0  0  0  0  0  2  0  0  0  0  0  0
  186.0450  178.7630  141.8370 C   0  0  0  0  0  2  0  0  0  0  0  0
  187.1680  178.0730  142.5960 C   0  0  0  0  0  2  0  0  0  0  0  0
  185.0210  178.2340  145.7850 C   0  0  2  0  0  3  0  0  0  0  0  0
  186.7000  177.6730  143.9840 C   0  0  1  0  0  3  0  0  0  0  0  0
  186.1610  178.4570  146.7810 C   0  0  0  0  0  2  0  0  0  0  0  0
  187.8370  177.9090  144.9900 C   0  0  0  0  0  2  0  0  0  0  0  0
  185.4840  178.5320  144.3540 C   0  0  0  0  0  2  0  0  0  0  0  0
  187.3700  177.5940  146.4130 C   0  0  0  0  0  2  0  0  0  0  0  0
  183.9610  179.0820  146.1000 O   0  0  0  0  0  1  0  0  0  0  0  0
  191.8640  177.3260  139.6090 O   0  0  0  0  0  0  0  0  0  0  0  0
  190.2890  176.1700  140.8020 O   0  0  0  0  0  1  0  0  0  0  0  0
  190.6270  176.7080  139.7140 C   0  0  0  0  0  0  0  0  0  0  0  0
  192.4770  172.9960  136.5740 C   0  0  0  0  0  2  0  0  0  0  0  0
  194.4970  173.8770  137.6260 C   0  0  0  0  0  0  0  0  0  0  0  0
  195.3460  173.8140  138.6190 C   0  0  0  0  0  3  0  0  0  0  0  0
  193.6400  173.9490  136.6370 C   0  0  0  0  0  0  0  0  0  0  0  0
  194.0310  174.7120  135.4120 C   0  0  1  0  0  3  0  0  0  0  0  0
  193.6670  176.0630  135.5480 O   0  0  0  0  0  0  0  0  0  0  0  0
  194.6320  176.7520  134.8150 C   0  0  2  0  0  3  0  0  0  0  0  0
  195.4150  174.5920  135.1900 O   0  0  0  0  0  0  0  0  0  0  0  0
  195.7690  175.7940  134.5940 C   0  0  0  0  0  2  0  0  0  0  0  0
  196.2320  178.2950  134.8760 C   0  0  0  0  0  1  0  0  0  0  0  0
  195.0950  177.8510  135.5560 O   0  0  0  0  0  0  0  0  0  0  0  0
  197.3060  175.1180  139.4140 O   0  0  0  0  0  1  0  0  0  0  0  0
  197.4310  173.8580  137.5030 O   0  0  0  0  0  0  0  0  0  0  0  0
  196.7430  174.2500  138.4800 C   0  0  0  0  0  0  0  0  0  0  0  0
  1 33  1  1  0  0  0
  2  4  1  0  0  0  0
  3 11  1  0  0  0  0
  4 12  2  0  0  0  0
  5  3  1  0  0  0  0
  6 21  1  6  0  0  0
  7 13  1  0  0  0  0
  7 14  1  0  0  0  0
  8  5  1  6  0  0  0
  8  6  1  0  0  0  0
  9 15  1  0  0  0  0
  9 12  1  0  0  0  0
 10 16  1  0  0  0  0
 10  2  2  0  0  0  0
 11  1  1  0  0  0  0
 12  1  1  0  0  0  0
 13  6  1  0  0  0  0
 14 15  1  0  0  0  0
 15  8  1  0  0  0  0
 16  9  2  0  0  0  0
 17  3  2  0  0  0  0
 18 22  1  0  0  0  0
 19 20  2  0  0  0  0
 19 18  1  0  0  0  0
 21 19  1  0  0  0  0
 22 23  1  0  0  0  0
 24 30  1  1  0  0  0
 24 26  1  0  0  0  0
 25 23  1  6  0  0  0
 25 28  1  0  0  0  0
 25 27  1  0  0  0  0
 27 29  1  0  0  0  0
 28 24  1  0  0  0  0
 29 26  1  0  0  0  0
 31 33  2  0  0  0  0
 33 32  1  0  0  0  0
 34 37  1  0  0  0  0
 34  2  1  0  0  0  0
 35 36  2  0  0  0  0
 37 35  2  0  0  0  0
 38 39  1  0  0  0  0
 38 37  1  1  0  0  0
 40 39  1  0  0  0  0
 40 44  1  1  0  0  0
 41 38  1  0  0  0  0
 42 40  1  0  0  0  0
 42 41  1  0  0  0  0
 43 44  1  0  0  0  0
 46 47  2  0  0  0  0
 47 36  1  0  0  0  0
 47 45  1  0  0  0  0
M  END
>  <MODEL>
2

>  <REMARK>
 VINA RESULT:      -8.8      3.848      6.612
  Name = 
  10 active torsions:
  status: ('A' for Active; 'I' for Inactive)
    1  A    between atoms: C_2  and  C_46
    2  A    between atoms: CA_3  and  C_47
    3  A    between atoms: C_4  and  C_44
    4  A    between atoms: N_11  and  C_34
    5  A    between atoms: O_15  and  C_29
    6  A    between atoms: C_18  and  N_32
    7  A    between atoms: C_21  and  C_28
    8  A    between atoms: C_22  and  C_35
    9  A    between atoms: C_28  and  C_44
   10  A    between atoms: C_34  and  C_46
                            x       y       z     vdW  Elec       q    Type
                         _______ _______ _______ _____ _____    ______ ____

>  <TORSDO>
F 10

$$$$
=
 OpenBabel11032420473D

 47 51  0  0  1  0  0  0  0  0999 V2000
  183.0320  178.5840  139.0190 C   0  0  1  0  0  3  0  0  0  0  0  0
  183.9550  176.4640  135.9850 C   0  0  0  0  0  0  0  0  0  0  0  0
  180.6330  179.3100  138.5350 C   0  0  0  0  0  0  0  0  0  0  0  0
  183.8900  177.5180  136.9010 C   0  0  0  0  0  3  0  0  0  0  0  0
  179.9430  178.2020  139.2880 C   0  0  0  0  0  2  0  0  0  0  0  0
  179.9750  176.6790  141.2840 C   0  0  2  0  0  3  0  0  0  0  0  0
  179.4740  174.9270  139.5430 C   0  0  0  0  0  2  0  0  0  0  0  0
  180.8260  177.2830  140.1440 C   0  0  1  0  0  3  0  0  0  0  0  0
  182.2280  176.3100  138.2060 C   0  0  0  0  0  0  0  0  0  0  0  0
  183.2020  175.3150  136.2070 C   0  0  0  0  0  3  0  0  0  0  0  0
  182.0410  179.5660  138.6070 N   0  0  0  0  0  2  0  0  0  0  0  0
  183.0650  177.4410  138.0400 C   0  0  0  0  0  0  0  0  0  0  0  0
  178.9310  175.6730  140.7720 C   0  0  0  0  0  2  0  0  0  0  0  0
  180.8790  174.8870  139.6110 O   0  0  0  0  0  0  0  0  0  0  0  0
  181.3080  176.1580  139.3130 N   0  0  0  0  0  0  0  0  0  0  0  0
  182.3430  175.2450  137.3020 C   0  0  0  0  0  3  0  0  0  0  0  0
  179.9260  180.0520  137.8020 O   0  0  0  0  0  0  0  0  0  0  0  0
  181.6200  178.3900  143.2190 N   0  0  0  0  0  2  0  0  0  0  0  0
  180.1880  178.3250  143.2660 C   0  0  0  0  0  0  0  0  0  0  0  0
  179.5580  178.8880  144.2050 O   0  0  0  0  0  0  0  0  0  0  0  0
  179.4470  177.6660  142.2340 N   0  0  0  0  0  2  0  0  0  0  0  0
  182.3940  179.0570  144.2550 C   0  0  0  0  0  2  0  0  0  0  0  0
  183.6610  179.6560  143.6650 C   0  0  0  0  0  2  0  0  0  0  0  0
  186.8910  177.8280  144.6830 C   0  0  2  0  0  3  0  0  0  0  0  0
  184.8590  179.3210  144.5360 C   0  0  1  0  0  3  0  0  0  0  0  0
  186.3980  177.2860  146.0260 C   0  0  0  0  0  2  0  0  0  0  0  0
  184.3700  178.7630  145.8800 C   0  0  0  0  0  2  0  0  0  0  0  0
  185.7110  178.2710  143.8090 C   0  0  0  0  0  2  0  0  0  0  0  0
  185.5540  178.3370  146.7500 C   0  0  0  0  0  2  0  0  0  0  0  0
  187.5940  176.8290  144.0120 O   0  0  0  0  0  1  0  0  0  0  0  0
  185.4470  178.4800  139.6500 O   0  0  0  0  0  1  0  0  0  0  0  0
  184.5210  180.4690  138.9960 O   0  0  0  0  0  0  0  0  0  0  0  0
  184.3680  179.2390  139.2240 C   0  0  0  0  0  0  0  0  0  0  0  0
  184.8810  176.5260  134.8150 C   0  0  0  0  0  2  0  0  0  0  0  0
  186.9500  177.4810  135.6920 C   0  0  0  0  0  0  0  0  0  0  0  0
  187.5720  178.5290  136.1660 C   0  0  0  0  0  3  0  0  0  0  0  0
  186.3320  176.4340  135.2050 C   0  0  0  0  0  0  0  0  0  0  0  0
  186.9570  175.0880  135.3900 C   0  0  1  0  0  3  0  0  0  0  0  0
  188.1480  175.0030  134.6480 O   0  0  0  0  0  0  0  0  0  0  0  0
  188.9520  174.1410  135.3930 C   0  0  2  0  0  3  0  0  0  0  0  0
  187.2060  174.8560  136.7560 O   0  0  0  0  0  0  0  0  0  0  0  0
  188.3410  174.0580  136.7630 C   0  0  0  0  0  2  0  0  0  0  0  0
  190.8930  173.8740  136.4460 C   0  0  0  0  0  1  0  0  0  0  0  0
  190.2470  174.6750  135.5000 O   0  0  0  0  0  0  0  0  0  0  0  0
  189.0370  179.4470  137.9520 O   0  0  0  0  0  1  0  0  0  0  0  0
  189.4370  177.3760  137.0530 O   0  0  0  0  0  0  0  0  0  0  0  0
  188.7210  178.4090  137.0760 C   0  0  0  0  0  0  0  0  0  0  0  0
  1 33  1  6  0  0  0
  2 10  2  0  0  0  0
  2  4  1  0  0  0  0
  3 11  1  0  0  0  0
  3  5  1  0  0  0  0
  4 12  2  0  0  0  0
  6 21  1  6  0  0  0
  7 14  1  0  0  0  0
  7 13  1  0  0  0  0
  8  5  1  6  0  0  0
  8  6  1  0  0  0  0
  9 15  1  0  0  0  0
 10 16  1  0  0  0  0
 11  1  1  0  0  0  0
 12  9  1  0  0  0  0
 12  1  1  0  0  0  0
 13  6  1  0  0  0  0
 15 14  1  0  0  0  0
 15  8  1  0  0  0  0
 16  9  2  0  0  0  0
 17  3  2  0  0  0  0
 18 19  1  0  0  0  0
 18 22  1  0  0  0  0
 19 20  2  0  0  0  0
 21 19  1  0  0  0  0
 23 22  1  0  0  0  0
 24 30  1  6  0  0  0
 24 26  1  0  0  0  0
 25 23  1  6  0  0  0
 25 27  1  0  0  0  0
 26 29  1  0  0  0  0
 27 29  1  0  0  0  0
 28 25  1  0  0  0  0
 28 24  1  0  0  0  0
 32 33  2  0  0  0  0
 33 31  1  0  0  0  0
 34 37  1  0  0  0  0
 34  2  1  0  0  0  0
 35 36  2  0  0  0  0
 36 47  1  0  0  0  0
 37 35  2  0  0  0  0
 38 37  1  1  0  0  0
 38 41  1  0  0  0  0
 39 38  1  0  0  0  0
 39 40  1  0  0  0  0
 40 44  1  1  0  0  0
 40 42  1  0  0  0  0
 41 42  1  0  0  0  0
 44 43  1  0  0  0  0
 46 47  2  0  0  0  0
 47 45  1  0  0  0  0
M  END
>  <MODEL>
3

>  <REMARK>
 VINA RESULT:      -8.3      1.679      2.391
  Name = 
  10 active torsions:
  status: ('A' for Active; 'I' for Inactive)
    1  A    between atoms: C_2  and  C_46
    2  A    between atoms: CA_3  and  C_47
    3  A    between atoms: C_4  and  C_44
    4  A    between atoms: N_11  and  C_34
    5  A    between atoms: O_15  and  C_29
    6  A    between atoms: C_18  and  N_32
    7  A    between atoms: C_21  and  C_28
    8  A    between atoms: C_22  and  C_35
    9  A    between atoms: C_28  and  C_44
   10  A    between atoms: C_34  and  C_46
                            x       y       z     vdW  Elec       q    Type
                         _______ _______ _______ _____ _____    ______ ____

>  <TORSDO>
F 10

$$$$
=
 OpenBabel11032420473D

 47 51  0  0  1  0  0  0  0  0999 V2000
  187.0420  177.1530  137.7120 C   0  0  1  0  0  3  0  0  0  0  0  0
  189.9280  175.0380  136.3900 C   0  0  0  0  0  0  0  0  0  0  0  0
  185.4160  177.2420  135.7450 C   0  0  0  0  0  0  0  0  0  0  0  0
  189.1680  176.1280  136.8250 C   0  0  0  0  0  3  0  0  0  0  0  0
  184.5540  176.0780  136.1580 C   0  0  0  0  0  2  0  0  0  0  0  0
  183.5140  174.7990  138.0520 C   0  0  2  0  0  3  0  0  0  0  0  0
  184.4480  172.8240  136.7970 C   0  0  0  0  0  2  0  0  0  0  0  0
  184.8080  175.4780  137.5480 C   0  0  1  0  0  3  0  0  0  0  0  0
  187.2260  174.6880  137.1050 C   0  0  0  0  0  0  0  0  0  0  0  0
  189.3570  173.7690  136.3650 C   0  0  0  0  0  3  0  0  0  0  0  0
  186.4170  177.8300  136.5850 N   0  0  0  0  0  2  0  0  0  0  0  0
  187.8290  175.9640  137.2270 C   0  0  0  0  0  0  0  0  0  0  0  0
  183.1650  173.5310  137.2560 C   0  0  0  0  0  2  0  0  0  0  0  0
  185.4870  173.1230  137.6970 O   0  0  0  0  0  0  0  0  0  0  0  0
  185.8430  174.4260  137.4430 N   0  0  0  0  0  0  0  0  0  0  0  0
  188.0180  173.6010  136.7110 C   0  0  0  0  0  3  0  0  0  0  0  0
  185.2420  177.7250  134.5950 O   0  0  0  0  0  0  0  0  0  0  0  0
  183.4130  177.1420  140.0210 N   0  0  0  0  0  2  0  0  0  0  0  0
  182.2630  176.6880  139.2960 C   0  0  0  0  0  0  0  0  0  0  0  0
  181.1230  177.1730  139.5470 O   0  0  0  0  0  0  0  0  0  0  0  0
  182.3860  175.7170  138.2520 N   0  0  0  0  0  2  0  0  0  0  0  0
  183.3120  178.1300  141.0840 C   0  0  0  0  0  2  0  0  0  0  0  0
  184.5150  179.0600  141.0580 C   0  0  0  0  0  2  0  0  0  0  0  0
  186.6370  177.9370  144.0650 C   0  0  2  0  0  3  0  0  0  0  0  0
  185.1390  179.1570  142.4390 C   0  0  1  0  0  3  0  0  0  0  0  0
  185.5250  177.9670  145.1160 C   0  0  0  0  0  2  0  0  0  0  0  0
  184.0270  179.1740  143.4980 C   0  0  0  0  0  2  0  0  0  0  0  0
  186.0480  177.9390  142.6500 C   0  0  0  0  0  2  0  0  0  0  0  0
  184.6240  179.1870  144.9070 C   0  0  0  0  0  2  0  0  0  0  0  0
  187.3970  176.7810  144.2330 O   0  0  0  0  0  1  0  0  0  0  0  0
  188.4190  179.2280  137.9070 O   0  0  0  0  0  0  0  0  0  0  0  0
  188.0140  177.9470  139.7600 O   0  0  0  0  0  1  0  0  0  0  0  0
  187.8540  178.1220  138.5220 C   0  0  0  0  0  0  0  0  0  0  0  0
  191.3670  175.2080  136.0270 C   0  0  0  0  0  2  0  0  0  0  0  0
  193.2980  174.5560  137.3720 C   0  0  0  0  0  0  0  0  0  0  0  0
  194.3220  173.7570  137.5250 C   0  0  0  0  0  3  0  0  0  0  0  0
  192.2660  175.3490  137.2260 C   0  0  0  0  0  0  0  0  0  0  0  0
  192.2100  176.6030  138.0410 C   0  0  1  0  0  3  0  0  0  0  0  0
  191.1610  176.5260  138.9730 O   0  0  0  0  0  0  0  0  0  0  0  0
  191.6130  177.2790  140.0560 C   0  0  2  0  0  3  0  0  0  0  0  0
  193.4400  176.8080  138.6930 O   0  0  0  0  0  0  0  0  0  0  0  0
  193.0950  177.4500  139.8740 C   0  0  0  0  0  2  0  0  0  0  0  0
  190.5780  177.4350  142.0180 C   0  0  0  0  0  1  0  0  0  0  0  0
  191.3750  176.5810  141.2510 O   0  0  0  0  0  0  0  0  0  0  0  0
  196.5170  174.9160  137.6560 O   0  0  0  0  0  0  0  0  0  0  0  0
  195.6640  173.8070  139.4720 O   0  0  0  0  0  1  0  0  0  0  0  0
  195.5210  174.1600  138.2730 C   0  0  0  0  0  0  0  0  0  0  0  0
  1 33  1  6  0  0  0
  2  4  1  0  0  0  0
  3  5  1  0  0  0  0
  3 11  1  0  0  0  0
  4 12  2  0  0  0  0
  6 21  1  6  0  0  0
  7 13  1  0  0  0  0
  7 14  1  0  0  0  0
  8  5  1  6  0  0  0
  8  6  1  0  0  0  0
  9 12  1  0  0  0  0
  9 15  1  0  0  0  0
 10  2  2  0  0  0  0
 10 16  1  0  0  0  0
 11  1  1  0  0  0  0
 12  1  1  0  0  0  0
 13  6  1  0  0  0  0
 15  8  1  0  0  0  0
 15 14  1  0  0  0  0
 16  9  2  0  0  0  0
 17  3  2  0  0  0  0
 18 22  1  0  0  0  0
 19 20  2  0  0  0  0
 19 18  1  0  0  0  0
 21 19  1  0  0  0  0
 23 22  1  0  0  0  0
 24 30  1  1  0  0  0
 24 26  1  0  0  0  0
 25 23  1  6  0  0  0
 25 28  1  0  0  0  0
 25 27  1  0  0  0  0
 27 29  1  0  0  0  0
 28 24  1  0  0  0  0
 29 26  1  0  0  0  0
 31 33  2  0  0  0  0
 33 32  1  0  0  0  0
 34  2  1  0  0  0  0
 34 37  1  0  0  0  0
 35 36  2  0  0  0  0
 36 47  1  0  0  0  0
 37 35  2  0  0  0  0
 38 37  1  1  0  0  0
 38 41  1  0  0  0  0
 38 39  1  0  0  0  0
 39 40  1  0  0  0  0
 40 44  1  1  0  0  0
 41 42  1  0  0  0  0
 42 40  1  0  0  0  0
 44 43  1  0  0  0  0
 45 47  2  0  0  0  0
 47 46  1  0  0  0  0
M  END
>  <MODEL>
4

>  <REMARK>
 VINA RESULT:      -8.3      2.719      5.289
  Name = 
  10 active torsions:
  status: ('A' for Active; 'I' for Inactive)
    1  A    between atoms: C_2  and  C_46
    2  A    between atoms: CA_3  and  C_47
    3  A    between atoms: C_4  and  C_44
    4  A    between atoms: N_11  and  C_34
    5  A    between atoms: O_15  and  C_29
    6  A    between atoms: C_18  and  N_32
    7  A    between atoms: C_21  and  C_28
    8  A    between atoms: C_22  and  C_35
    9  A    between atoms: C_28  and  C_44
   10  A    between atoms: C_34  and  C_46
                            x       y       z     vdW  Elec       q    Type
                         _______ _______ _______ _____ _____    ______ ____

>  <TORSDO>
F 10

$$$$
=
 OpenBabel11032420473D

 47 51  0  0  1  0  0  0  0  0999 V2000
  189.4860  177.0880  139.1370 C   0  0  1  0  0  3  0  0  0  0  0  0
  191.5850  174.4150  137.4040 C   0  0  0  0  0  0  0  0  0  0  0  0
  189.0110  178.7740  137.2800 C   0  0  0  0  0  0  0  0  0  0  0  0
  191.2030  175.4860  138.2170 C   0  0  0  0  0  3  0  0  0  0  0  0
  187.6780  178.2170  136.8520 C   0  0  0  0  0  2  0  0  0  0  0  0
  185.5340  177.1200  137.5600 C   0  0  2  0  0  3  0  0  0  0  0  0
  186.0590  175.5940  135.6250 C   0  0  0  0  0  2  0  0  0  0  0  0
  187.0700  177.1110  137.7260 C   0  0  1  0  0  3  0  0  0  0  0  0
  188.9330  175.3620  137.3500 C   0  0  0  0  0  0  0  0  0  0  0  0
  190.6340  173.7840  136.6090 C   0  0  0  0  0  3  0  0  0  0  0  0
  189.7090  178.3560  138.4600 N   0  0  0  0  0  2  0  0  0  0  0  0
  189.8720  175.9460  138.2350 C   0  0  0  0  0  0  0  0  0  0  0  0
  185.0880  176.6550  136.1640 C   0  0  0  0  0  2  0  0  0  0  0  0
  186.6500  174.9170  136.7080 O   0  0  0  0  0  0  0  0  0  0  0  0
  187.5550  175.7950  137.2530 N   0  0  0  0  0  0  0  0  0  0  0  0
  189.3250  174.2600  136.5770 C   0  0  0  0  0  3  0  0  0  0  0  0
  189.5390  179.6590  136.5550 O   0  0  0  0  0  0  0  0  0  0  0  0
  185.9960  178.5120  140.2490 N   0  0  0  0  0  2  0  0  0  0  0  0
  184.9510  178.8970  139.3460 C   0  0  0  0  0  0  0  0  0  0  0  0
  184.0960  179.7590  139.6950 O   0  0  0  0  0  0  0  0  0  0  0  0
  184.8810  178.3510  138.0240 N   0  0  0  0  0  2  0  0  0  0  0  0
  186.0880  179.0560  141.5950 C   0  0  0  0  0  2  0  0  0  0  0  0
  184.9640  178.5110  142.4630 C   0  0  0  0  0  2  0  0  0  0  0  0
  185.7700  178.2130  146.2140 C   0  0  2  0  0  3  0  0  0  0  0  0
  185.5300  177.8780  143.7230 C   0  0  1  0  0  3  0  0  0  0  0  0
  187.2910  178.1110  146.0840 C   0  0  0  0  0  2  0  0  0  0  0  0
  187.0590  177.7860  143.6030 C   0  0  0  0  0  2  0  0  0  0  0  0
  185.1490  178.7570  144.9230 C   0  0  0  0  0  2  0  0  0  0  0  0
  187.6680  177.2290  144.8910 C   0  0  0  0  0  2  0  0  0  0  0  0
  185.4550  179.0770  147.2620 O   0  0  0  0  0  1  0  0  0  0  0  0
  191.2970  177.8780  140.6650 O   0  0  0  0  0  0  0  0  0  0  0  0
  189.7700  176.3390  141.4010 O   0  0  0  0  0  1  0  0  0  0  0  0
  190.1880  177.0700  140.4640 C   0  0  0  0  0  0  0  0  0  0  0  0
  192.9840  173.8920  137.4390 C   0  0  0  0  0  2  0  0  0  0  0  0
  194.0640  175.6470  136.1280 C   0  0  0  0  0  0  0  0  0  0  0  0
  194.2970  176.9230  135.9660 C   0  0  0  0  0  3  0  0  0  0  0  0
  193.8200  174.3690  136.2820 C   0  0  0  0  0  0  0  0  0  0  0  0
  194.6700  173.3880  135.5380 C   0  0  1  0  0  3  0  0  0  0  0  0
  196.0280  173.6140  135.8210 O   0  0  0  0  0  0  0  0  0  0  0  0
  196.6100  172.3500  135.7300 C   0  0  2  0  0  3  0  0  0  0  0  0
  194.3030  172.0740  135.8830 O   0  0  0  0  0  0  0  0  0  0  0  0
  195.4860  171.3540  135.7810 C   0  0  0  0  0  2  0  0  0  0  0  0
  198.6230  172.8540  136.5300 C   0  0  0  0  0  1  0  0  0  0  0  0
  197.4590  172.1390  136.8280 O   0  0  0  0  0  0  0  0  0  0  0  0
  196.3460  176.5300  134.6160 O   0  0  0  0  0  0  0  0  0  0  0  0
  195.7890  178.6400  135.3180 O   0  0  0  0  0  1  0  0  0  0  0  0
  195.5020  177.4160  135.2840 C   0  0  0  0  0  0  0  0  0  0  0  0
  1 33  1  1  0  0  0
  2 34  1  0  0  0  0
  2  4  1  0  0  0  0
  3 11  1  0  0  0  0
  4 12  2  0  0  0  0
  5  3  1  0  0  0  0
  6  8  1  0  0  0  0
  6 21  1  6  0  0  0
  7 13  1  0  0  0  0
  7 14  1  0  0  0  0
  8  5  1  6  0  0  0
  9 12  1  0  0  0  0
 10  2  2  0  0  0  0
 11  1  1  0  0  0  0
 12  1  1  0  0  0  0
 13  6  1  0  0  0  0
 14 15  1  0  0  0  0
 15  9  1  0  0  0  0
 15  8  1  0  0  0  0
 16 10  1  0  0  0  0
 16  9  2  0  0  0  0
 17  3  2  0  0  0  0
 18 22  1  0  0  0  0
 19 20  2  0  0  0  0
 19 18  1  0  0  0  0
 21 19  1  0  0  0  0
 22 23  1  0  0  0  0
 24 30  1  1  0  0  0
 25 23  1  6  0  0  0
 25 28  1  0  0  0  0
 26 24  1  0  0  0  0
 27 25  1  0  0  0  0
 27 29  1  0  0  0  0
 28 24  1  0  0  0  0
 29 26  1  0  0  0  0
 33 31  2  0  0  0  0
 33 32  1  0  0  0  0
 35 37  2  0  0  0  0
 36 35  2  0  0  0  0
 37 34  1  0  0  0  0
 38 39  1  0  0  0  0
 38 41  1  0  0  0  0
 38 37  1  1  0  0  0
 40 42  1  0  0  0  0
 40 39  1  0  0  0  0
 40 44  1  1  0  0  0
 42 41  1  0  0  0  0
 43 44  1  0  0  0  0
 45 47  2  0  0  0  0
 47 46  1  0  0  0  0
 47 36  1  0  0  0  0
M  END
>  <MODEL>
5

>  <REMARK>
 VINA RESULT:      -8.2      4.093      6.562
  Name = 
  10 active torsions:
  status: ('A' for Active; 'I' for Inactive)
    1  A    between atoms: C_2  and  C_46
    2  A    between atoms: CA_3  and  C_47
    3  A    between atoms: C_4  and  C_44
    4  A    between atoms: N_11  and  C_34
    5  A    between atoms: O_15  and  C_29
    6  A    between atoms: C_18  and  N_32
    7  A    between atoms: C_21  and  C_28
    8  A    between atoms: C_22  and  C_35
    9  A    between atoms: C_28  and  C_44
   10  A    between atoms: C_34  and  C_46
                            x       y       z     vdW  Elec       q    Type
                         _______ _______ _______ _____ _____    ______ ____

>  <TORSDO>
F 10

$$$$
=
 OpenBabel11032420473D

 47 51  0  0  1  0  0  0  0  0999 V2000
  187.3110  177.2060  137.7550 C   0  0  1  0  0  3  0  0  0  0  0  0
  189.9040  174.6910  136.5300 C   0  0  0  0  0  0  0  0  0  0  0  0
  185.7400  177.4670  135.7590 C   0  0  0  0  0  0  0  0  0  0  0  0
  189.2910  175.8830  136.9280 C   0  0  0  0  0  3  0  0  0  0  0  0
  184.7220  176.4390  136.1820 C   0  0  0  0  0  2  0  0  0  0  0  0
  183.4930  175.3570  138.0850 C   0  0  2  0  0  3  0  0  0  0  0  0
  184.1700  173.2450  136.8890 C   0  0  0  0  0  2  0  0  0  0  0  0
  184.8730  175.8430  137.5890 C   0  0  1  0  0  3  0  0  0  0  0  0
  187.1690  174.7250  137.2050 C   0  0  0  0  0  0  0  0  0  0  0  0
  189.1670  173.5100  136.5230 C   0  0  0  0  0  3  0  0  0  0  0  0
  186.7990  177.9340  136.6040 N   0  0  0  0  0  2  0  0  0  0  0  0
  187.9370  175.9110  137.3100 C   0  0  0  0  0  0  0  0  0  0  0  0
  182.9870  174.1290  137.3100 C   0  0  0  0  0  2  0  0  0  0  0  0
  185.2270  173.4230  137.8010 O   0  0  0  0  0  0  0  0  0  0  0  0
  185.7580  174.6600  137.5240 N   0  0  0  0  0  0  0  0  0  0  0  0
  187.8120  173.5320  136.8480 C   0  0  0  0  0  3  0  0  0  0  0  0
  185.6490  177.9410  134.5960 O   0  0  0  0  0  0  0  0  0  0  0  0
  183.4220  177.4480  140.3210 N   0  0  0  0  0  2  0  0  0  0  0  0
  182.3500  177.2780  139.3840 C   0  0  0  0  0  0  0  0  0  0  0  0
  181.2700  177.9160  139.5330 O   0  0  0  0  0  0  0  0  0  0  0  0
  182.4960  176.4230  138.2450 N   0  0  0  0  0  2  0  0  0  0  0  0
  183.2970  178.3130  141.4840 C   0  0  0  0  0  2  0  0  0  0  0  0
  184.6590  178.8550  141.8890 C   0  0  0  0  0  2  0  0  0  0  0  0
  185.6420  178.4180  145.5830 C   0  0  2  0  0  3  0  0  0  0  0  0
  185.1730  178.1280  143.1190 C   0  0  1  0  0  3  0  0  0  0  0  0
  187.1010  178.0160  145.3550 C   0  0  0  0  0  2  0  0  0  0  0  0
  186.6410  177.7340  142.9000 C   0  0  0  0  0  2  0  0  0  0  0  0
  185.0540  179.0690  144.3260 C   0  0  0  0  0  2  0  0  0  0  0  0
  187.2140  177.0730  144.1550 C   0  0  0  0  0  2  0  0  0  0  0  0
  185.5750  179.3310  146.6340 O   0  0  0  0  0  1  0  0  0  0  0  0
  188.6470  179.2970  138.0470 O   0  0  0  0  0  0  0  0  0  0  0  0
  188.6250  177.7130  139.7000 O   0  0  0  0  0  1  0  0  0  0  0  0
  188.2340  178.0750  138.5590 C   0  0  0  0  0  0  0  0  0  0  0  0
  191.3580  174.6570  136.1880 C   0  0  0  0  0  2  0  0  0  0  0  0
  191.8400  176.1310  138.0740 C   0  0  0  0  0  0  0  0  0  0  0  0
  191.5270  176.5220  139.2820 C   0  0  0  0  0  3  0  0  0  0  0  0
  192.1470  175.7480  136.8590 C   0  0  0  0  0  0  0  0  0  0  0  0
  193.4850  176.1310  136.3100 C   0  0  1  0  0  3  0  0  0  0  0  0
  194.5070  175.6130  137.1230 O   0  0  0  0  0  0  0  0  0  0  0  0
  195.5580  175.3750  136.2390 C   0  0  2  0  0  3  0  0  0  0  0  0
  193.6150  175.6620  134.9890 O   0  0  0  0  0  0  0  0  0  0  0  0
  194.9710  175.3980  134.8560 C   0  0  0  0  0  2  0  0  0  0  0  0
  196.5380  174.1460  137.8120 C   0  0  0  0  0  1  0  0  0  0  0  0
  196.1050  174.1050  136.4840 O   0  0  0  0  0  0  0  0  0  0  0  0
  193.7590  177.5260  139.7160 O   0  0  0  0  0  0  0  0  0  0  0  0
  192.2650  177.2000  141.4250 O   0  0  0  0  0  1  0  0  0  0  0  0
  192.5200  177.1020  140.1970 C   0  0  0  0  0  0  0  0  0  0  0  0
  1 33  1  6  0  0  0
  2  4  1  0  0  0  0
  3  5  1  0  0  0  0
  3 11  1  0  0  0  0
  4 12  2  0  0  0  0
  6 21  1  6  0  0  0
  7 13  1  0  0  0  0
  7 14  1  0  0  0  0
  8  5  1  6  0  0  0
  8  6  1  0  0  0  0
  9 12  1  0  0  0  0
  9 15  1  0  0  0  0
 10  2  2  0  0  0  0
 10 16  1  0  0  0  0
 11  1  1  0  0  0  0
 12  1  1  0  0  0  0
 13  6  1  0  0  0  0
 15  8  1  0  0  0  0
 15 14  1  0  0  0  0
 16  9  2  0  0  0  0
 17  3  2  0  0  0  0
 18 22  1  0  0  0  0
 19 20  2  0  0  0  0
 19 18  1  0  0  0  0
 21 19  1  0  0  0  0
 22 23  1  0  0  0  0
 24 30  1  1  0  0  0
 25 23  1  6  0  0  0
 25 28  1  0  0  0  0
 26 24  1  0  0  0  0
 27 25  1  0  0  0  0
 27 29  1  0  0  0  0
 28 24  1  0  0  0  0
 29 26  1  0  0  0  0
 31 33  2  0  0  0  0
 33 32  1  0  0  0  0
 34  2  1  0  0  0  0
 34 37  1  0  0  0  0
 35 36  2  0  0  0  0
 36 47  1  0  0  0  0
 37 35  2  0  0  0  0
 38 37  1  1  0  0  0
 38 39  1  0  0  0  0
 40 44  1  1  0  0  0
 40 39  1  0  0  0  0
 41 38  1  0  0  0  0
 42 41  1  0  0  0  0
 42 40  1  0  0  0  0
 44 43  1  0  0  0  0
 45 47  2  0  0  0  0
 47 46  1  0  0  0  0
M  END
>  <MODEL>
6

>  <REMARK>
 VINA RESULT:      -7.9      2.892      5.250
  Name = 
  10 active torsions:
  status: ('A' for Active; 'I' for Inactive)
    1  A    between atoms: C_2  and  C_46
    2  A    between atoms: CA_3  and  C_47
    3  A    between atoms: C_4  and  C_44
    4  A    between atoms: N_11  and  C_34
    5  A    between atoms: O_15  and  C_29
    6  A    between atoms: C_18  and  N_32
    7  A    between atoms: C_21  and  C_28
    8  A    between atoms: C_22  and  C_35
    9  A    between atoms: C_28  and  C_44
   10  A    between atoms: C_34  and  C_46
                            x       y       z     vdW  Elec       q    Type
                         _______ _______ _______ _____ _____    ______ ____

>  <TORSDO>
F 10

$$$$
=
 OpenBabel11032420473D

 47 51  0  0  1  0  0  0  0  0999 V2000
  189.5360  177.3110  139.1300 C   0  0  1  0  0  3  0  0  0  0  0  0
  191.9140  175.4700  136.7820 C   0  0  0  0  0  0  0  0  0  0  0  0
  188.7140  179.2790  137.7270 C   0  0  0  0  0  0  0  0  0  0  0  0
  191.4210  176.2540  137.8300 C   0  0  0  0  0  3  0  0  0  0  0  0
  187.4580  178.6310  137.2060 C   0  0  0  0  0  2  0  0  0  0  0  0
  185.5430  177.0760  137.6780 C   0  0  2  0  0  3  0  0  0  0  0  0
  186.1840  176.1340  135.4300 C   0  0  0  0  0  2  0  0  0  0  0  0
  187.0710  177.2720  137.8080 C   0  0  1  0  0  3  0  0  0  0  0  0
  189.1500  175.9730  136.9990 C   0  0  0  0  0  0  0  0  0  0  0  0
  191.0250  174.8940  135.8790 C   0  0  0  0  0  3  0  0  0  0  0  0
  189.5300  178.7190  138.7630 N   0  0  0  0  0  2  0  0  0  0  0  0
  190.0390  176.4800  137.9790 C   0  0  0  0  0  0  0  0  0  0  0  0
  185.0970  176.8770  136.2200 C   0  0  0  0  0  2  0  0  0  0  0  0
  186.9280  175.3300  136.3140 O   0  0  0  0  0  0  0  0  0  0  0  0
  187.7200  176.1930  137.0320 N   0  0  0  0  0  0  0  0  0  0  0  0
  189.6600  175.1520  135.9830 C   0  0  0  0  0  3  0  0  0  0  0  0
  189.0630  180.3780  137.2190 O   0  0  0  0  0  0  0  0  0  0  0  0
  186.2840  178.3470  140.3640 N   0  0  0  0  0  2  0  0  0  0  0  0
  184.9910  178.4990  139.7640 C   0  0  0  0  0  0  0  0  0  0  0  0
  184.0600  179.0720  140.3990 O   0  0  0  0  0  0  0  0  0  0  0  0
  184.7410  178.0490  138.4280 N   0  0  0  0  0  2  0  0  0  0  0  0
  186.5620  178.7990  141.7180 C   0  0  0  0  0  2  0  0  0  0  0  0
  187.2860  177.7140  142.5000 C   0  0  0  0  0  2  0  0  0  0  0  0
  184.8150  178.3990  145.3700 C   0  0  2  0  0  3  0  0  0  0  0  0
  186.6310  177.5120  143.8550 C   0  0  1  0  0  3  0  0  0  0  0  0
  185.8500  178.6500  146.4680 C   0  0  0  0  0  2  0  0  0  0  0  0
  187.6630  177.7760  144.9620 C   0  0  0  0  0  2  0  0  0  0  0  0
  185.4600  178.4960  143.9820 C   0  0  0  0  0  2  0  0  0  0  0  0
  187.0130  177.6630  146.3430 C   0  0  0  0  0  2  0  0  0  0  0  0
  183.8050  179.3550  145.4620 O   0  0  0  0  0  1  0  0  0  0  0  0
  189.8630  176.1680  141.3270 O   0  0  0  0  0  1  0  0  0  0  0  0
  191.3560  177.7570  140.6320 O   0  0  0  0  0  0  0  0  0  0  0  0
  190.3050  177.1020  140.4020 C   0  0  0  0  0  0  0  0  0  0  0  0
  193.3750  175.1810  136.6680 C   0  0  0  0  0  2  0  0  0  0  0  0
  193.3560  172.7470  136.4720 C   0  0  0  0  0  0  0  0  0  0  0  0
  192.9600  171.6930  135.8060 C   0  0  0  0  0  3  0  0  0  0  0  0
  193.7420  173.8020  137.1460 C   0  0  0  0  0  0  0  0  0  0  0  0
  194.8380  173.6410  138.1520 C   0  0  1  0  0  3  0  0  0  0  0  0
  196.0860  173.6130  137.5060 O   0  0  0  0  0  0  0  0  0  0  0  0
  196.9610  174.1760  138.4330 C   0  0  2  0  0  3  0  0  0  0  0  0
  194.7880  174.6890  139.0900 O   0  0  0  0  0  0  0  0  0  0  0  0
  196.1130  174.8820  139.4530 C   0  0  0  0  0  2  0  0  0  0  0  0
  198.0720  174.5580  136.5440 C   0  0  0  0  0  1  0  0  0  0  0  0
  197.7870  175.1150  137.7940 O   0  0  0  0  0  0  0  0  0  0  0  0
  194.5220  170.1120  136.9190 O   0  0  0  0  0  1  0  0  0  0  0  0
  193.6320  169.6310  134.8610 O   0  0  0  0  0  0  0  0  0  0  0  0
  193.7080  170.4280  135.8320 C   0  0  0  0  0  0  0  0  0  0  0  0
  1 33  1  1  0  0  0
  2  4  1  0  0  0  0
  3 11  1  0  0  0  0
  4 12  2  0  0  0  0
  5  3  1  0  0  0  0
  6  8  1  0  0  0  0
  6 21  1  6  0  0  0
  7 13  1  0  0  0  0
  7 14  1  0  0  0  0
  8  5  1  6  0  0  0
  9 15  1  0  0  0  0
  9 12  1  0  0  0  0
 10 16  1  0  0  0  0
 10  2  2  0  0  0  0
 11  1  1  0  0  0  0
 12  1  1  0  0  0  0
 13  6  1  0  0  0  0
 14 15  1  0  0  0  0
 15  8  1  0  0  0  0
 16  9  2  0  0  0  0
 17  3  2  0  0  0  0
 18 22  1  0  0  0  0
 19 18  1  0  0  0  0
 19 20  2  0  0  0  0
 21 19  1  0  0  0  0
 22 23  1  0  0  0  0
 24 30  1  6  0  0  0
 24 26  1  0  0  0  0
 25 23  1  6  0  0  0
 25 28  1  0  0  0  0
 25 27  1  0  0  0  0
 27 29  1  0  0  0  0
 28 24  1  0  0  0  0
 29 26  1  0  0  0  0
 33 32  2  0  0  0  0
 33 31  1  0  0  0  0
 34  2  1  0  0  0  0
 34 37  1  0  0  0  0
 35 37  2  0  0  0  0
 36 47  1  0  0  0  0
 36 35  2  0  0  0  0
 38 37  1  6  0  0  0
 38 41  1  0  0  0  0
 39 38  1  0  0  0  0
 39 40  1  0  0  0  0
 40 44  1  6  0  0  0
 40 42  1  0  0  0  0
 41 42  1  0  0  0  0
 43 44  1  0  0  0  0
 46 47  2  0  0  0  0
 47 45  1  0  0  0  0
M  END
>  <MODEL>
7

>  <REMARK>
 VINA RESULT:      -7.8      3.997      6.839
  Name = 
  10 active torsions:
  status: ('A' for Active; 'I' for Inactive)
    1  A    between atoms: C_2  and  C_46
    2  A    between atoms: CA_3  and  C_47
    3  A    between atoms: C_4  and  C_44
    4  A    between atoms: N_11  and  C_34
    5  A    between atoms: O_15  and  C_29
    6  A    between atoms: C_18  and  N_32
    7  A    between atoms: C_21  and  C_28
    8  A    between atoms: C_22  and  C_35
    9  A    between atoms: C_28  and  C_44
   10  A    between atoms: C_34  and  C_46
                            x       y       z     vdW  Elec       q    Type
                         _______ _______ _______ _____ _____    ______ ____

>  <TORSDO>
F 10

$$$$
=
 OpenBabel11032420473D

 47 51  0  0  1  0  0  0  0  0999 V2000
  187.2500  177.0690  137.4870 C   0  0  1  0  0  3  0  0  0  0  0  0
  189.4920  174.4490  135.8560 C   0  0  0  0  0  0  0  0  0  0  0  0
  185.4520  177.4990  135.7250 C   0  0  0  0  0  0  0  0  0  0  0  0
  189.0160  175.6600  136.3660 C   0  0  0  0  0  3  0  0  0  0  0  0
  184.4340  176.5200  136.2480 C   0  0  0  0  0  2  0  0  0  0  0  0
  183.3950  175.4430  138.2650 C   0  0  2  0  0  3  0  0  0  0  0  0
  183.7720  173.3400  136.9280 C   0  0  0  0  0  2  0  0  0  0  0  0
  184.7280  175.8630  137.6050 C   0  0  1  0  0  3  0  0  0  0  0  0
  186.8770  174.6230  136.8880 C   0  0  0  0  0  0  0  0  0  0  0  0
  188.6850  173.3160  135.9110 C   0  0  0  0  0  3  0  0  0  0  0  0
  186.6410  177.8690  136.4350 N   0  0  0  0  0  2  0  0  0  0  0  0
  187.7270  175.7550  136.9250 C   0  0  0  0  0  0  0  0  0  0  0  0
  182.7140  174.2780  137.5280 C   0  0  0  0  0  2  0  0  0  0  0  0
  184.9480  173.4200  137.6970 O   0  0  0  0  0  0  0  0  0  0  0  0
  185.5180  174.6320  137.3890 N   0  0  0  0  0  0  0  0  0  0  0  0
  187.3890  173.4070  136.4140 C   0  0  0  0  0  3  0  0  0  0  0  0
  185.2420  178.0210  134.5980 O   0  0  0  0  0  0  0  0  0  0  0  0
  183.7490  177.4450  140.5550 N   0  0  0  0  0  2  0  0  0  0  0  0
  182.5570  177.3780  139.7610 C   0  0  0  0  0  0  0  0  0  0  0  0
  181.5490  178.0740  140.0700 O   0  0  0  0  0  0  0  0  0  0  0  0
  182.5000  176.5610  138.5870 N   0  0  0  0  0  2  0  0  0  0  0  0
  183.8310  178.2700  141.7510 C   0  0  0  0  0  2  0  0  0  0  0  0
  185.2840  178.5630  142.0930 C   0  0  0  0  0  2  0  0  0  0  0  0
  185.6610  178.2790  145.9120 C   0  0  2  0  0  3  0  0  0  0  0  0
  185.6580  177.9130  143.4130 C   0  0  1  0  0  3  0  0  0  0  0  0
  187.1730  178.0490  145.9460 C   0  0  0  0  0  2  0  0  0  0  0  0
  187.1770  177.6920  143.4580 C   0  0  0  0  0  2  0  0  0  0  0  0
  185.2270  178.8450  144.5540 C   0  0  0  0  0  2  0  0  0  0  0  0
  187.5980  177.1140  144.8110 C   0  0  0  0  0  2  0  0  0  0  0  0
  185.3100  179.1880  146.9080 O   0  0  0  0  0  1  0  0  0  0  0  0
  189.0230  177.2700  139.2350 O   0  0  0  0  0  1  0  0  0  0  0  0
  188.6090  179.0210  137.8190 O   0  0  0  0  0  0  0  0  0  0  0  0
  188.3240  177.8490  138.1860 C   0  0  0  0  0  0  0  0  0  0  0  0
  190.8830  174.3390  135.3230 C   0  0  0  0  0  2  0  0  0  0  0  0
  192.2910  172.3920  135.7600 C   0  0  0  0  0  0  0  0  0  0  0  0
  192.7830  171.2620  135.3240 C   0  0  0  0  0  3  0  0  0  0  0  0
  191.7880  173.5180  136.2020 C   0  0  0  0  0  0  0  0  0  0  0  0
  192.4060  174.1470  137.4100 C   0  0  1  0  0  3  0  0  0  0  0  0
  193.7660  173.7990  137.4940 O   0  0  0  0  0  0  0  0  0  0  0  0
  194.3620  174.9000  138.1050 C   0  0  2  0  0  3  0  0  0  0  0  0
  192.2550  175.5450  137.3560 O   0  0  0  0  0  0  0  0  0  0  0  0
  193.3810  176.0340  138.0040 C   0  0  0  0  0  2  0  0  0  0  0  0
  195.9940  174.0510  136.8550 C   0  0  0  0  0  1  0  0  0  0  0  0
  195.5360  175.2470  137.4170 O   0  0  0  0  0  0  0  0  0  0  0  0
  194.3070  170.6520  137.1900 O   0  0  0  0  0  1  0  0  0  0  0  0
  194.9390  170.3410  135.0080 O   0  0  0  0  0  0  0  0  0  0  0  0
  194.0570  170.7230  135.8200 C   0  0  0  0  0  0  0  0  0  0  0  0
  1 33  1  6  0  0  0
  2 10  2  0  0  0  0
  2  4  1  0  0  0  0
  3  5  1  0  0  0  0
  3 11  1  0  0  0  0
  4 12  2  0  0  0  0
  6 21  1  6  0  0  0
  7 13  1  0  0  0  0
  7 14  1  0  0  0  0
  8  5  1  6  0  0  0
  8  6  1  0  0  0  0
  9 12  1  0  0  0  0
  9 15  1  0  0  0  0
 10 16  1  0  0  0  0
 11  1  1  0  0  0  0
 12  1  1  0  0  0  0
 13  6  1  0  0  0  0
 15  8  1  0  0  0  0
 15 14  1  0  0  0  0
 16  9  2  0  0  0  0
 17  3  2  0  0  0  0
 18 22  1  0  0  0  0
 19 20  2  0  0  0  0
 19 18  1  0  0  0  0
 21 19  1  0  0  0  0
 22 23  1  0  0  0  0
 24 26  1  0  0  0  0
 24 30  1  1  0  0  0
 25 23  1  6  0  0  0
 25 27  1  0  0  0  0
 25 28  1  0  0  0  0
 27 29  1  0  0  0  0
 28 24  1  0  0  0  0
 29 26  1  0  0  0  0
 32 33  2  0  0  0  0
 33 31  1  0  0  0  0
 34  2  1  0  0  0  0
 34 37  1  0  0  0  0
 35 37  2  0  0  0  0
 36 35  2  0  0  0  0
 36 47  1  0  0  0  0
 38 37  1  6  0  0  0
 38 39  1  0  0  0  0
 39 40  1  0  0  0  0
 40 44  1  6  0  0  0
 41 38  1  0  0  0  0
 41 42  1  0  0  0  0
 42 40  1  0  0  0  0
 43 44  1  0  0  0  0
 46 47  2  0  0  0  0
 47 45  1  0  0  0  0
M  END
>  <MODEL>
8

>  <REMARK>
 VINA RESULT:      -7.7      3.285      5.396
  Name = 
  10 active torsions:
  status: ('A' for Active; 'I' for Inactive)
    1  A    between atoms: C_2  and  C_46
    2  A    between atoms: CA_3  and  C_47
    3  A    between atoms: C_4  and  C_44
    4  A    between atoms: N_11  and  C_34
    5  A    between atoms: O_15  and  C_29
    6  A    between atoms: C_18  and  N_32
    7  A    between atoms: C_21  and  C_28
    8  A    between atoms: C_22  and  C_35
    9  A    between atoms: C_28  and  C_44
   10  A    between atoms: C_34  and  C_46
                            x       y       z     vdW  Elec       q    Type
                         _______ _______ _______ _____ _____    ______ ____

>  <TORSDO>
F 10

$$$$
=
 OpenBabel11032420473D

 47 51  0  0  1  0  0  0  0  0999 V2000
  186.2440  177.2270  137.3230 C   0  0  1  0  0  3  0  0  0  0  0  0
  188.8510  175.0600  135.5750 C   0  0  0  0  0  0  0  0  0  0  0  0
  184.2640  177.1990  135.7110 C   0  0  0  0  0  0  0  0  0  0  0  0
  188.1730  176.1670  136.0920 C   0  0  0  0  0  3  0  0  0  0  0  0
  183.5180  176.0540  136.3460 C   0  0  0  0  0  2  0  0  0  0  0  0
  182.8900  174.8740  138.4720 C   0  0  2  0  0  3  0  0  0  0  0  0
  183.5940  172.8390  137.1630 C   0  0  0  0  0  2  0  0  0  0  0  0
  184.0490  175.5320  137.6890 C   0  0  1  0  0  3  0  0  0  0  0  0
  186.3470  174.7340  136.8230 C   0  0  0  0  0  0  0  0  0  0  0  0
  188.3070  173.7880  135.7290 C   0  0  0  0  0  3  0  0  0  0  0  0
  185.4000  177.8380  136.3070 N   0  0  0  0  0  2  0  0  0  0  0  0
  186.9410  176.0180  136.7570 C   0  0  0  0  0  0  0  0  0  0  0  0
  182.4130  173.5630  137.8270 C   0  0  0  0  0  2  0  0  0  0  0  0
  184.7840  173.1940  137.8260 O   0  0  0  0  0  0  0  0  0  0  0  0
  185.0610  174.4830  137.4380 N   0  0  0  0  0  0  0  0  0  0  0  0
  187.0640  173.6310  136.3390 C   0  0  0  0  0  3  0  0  0  0  0  0
  183.8610  177.6160  134.5940 O   0  0  0  0  0  0  0  0  0  0  0  0
  183.1220  177.2800  140.3530 N   0  0  0  0  0  2  0  0  0  0  0  0
  181.8640  176.8000  139.8590 C   0  0  0  0  0  0  0  0  0  0  0  0
  180.7830  177.2890  140.2930 O   0  0  0  0  0  0  0  0  0  0  0  0
  181.8080  175.7950  138.8410 N   0  0  0  0  0  2  0  0  0  0  0  0
  183.2020  178.3020  141.3850 C   0  0  0  0  0  2  0  0  0  0  0  0
  184.6550  178.6530  141.6690 C   0  0  0  0  0  2  0  0  0  0  0  0
  185.2460  178.3100  145.4560 C   0  0  2  0  0  3  0  0  0  0  0  0
  185.1170  177.9890  142.9550 C   0  0  1  0  0  3  0  0  0  0  0  0
  186.7630  178.1220  145.4050 C   0  0  0  0  0  2  0  0  0  0  0  0
  186.6430  177.8100  142.9140 C   0  0  0  0  0  2  0  0  0  0  0  0
  184.7250  178.8880  144.1350 C   0  0  0  0  0  2  0  0  0  0  0  0
  187.1510  177.2200  144.2310 C   0  0  0  0  0  2  0  0  0  0  0  0
  184.9260  179.1910  146.4880 O   0  0  0  0  0  1  0  0  0  0  0  0
  187.6200  179.3030  137.1260 O   0  0  0  0  0  0  0  0  0  0  0  0
  187.5640  178.1520  139.1040 O   0  0  0  0  0  1  0  0  0  0  0  0
  187.1830  178.2440  137.9060 C   0  0  0  0  0  0  0  0  0  0  0  0
  190.1880  175.2180  134.9270 C   0  0  0  0  0  2  0  0  0  0  0  0
  191.1260  176.2340  136.9400 C   0  0  0  0  0  0  0  0  0  0  0  0
  190.9580  177.0430  137.9530 C   0  0  0  0  0  3  0  0  0  0  0  0
  191.3010  175.4330  135.9180 C   0  0  0  0  0  0  0  0  0  0  0  0
  192.4470  174.4730  135.9540 C   0  0  1  0  0  3  0  0  0  0  0  0
  193.6300  175.1180  135.5550 O   0  0  0  0  0  0  0  0  0  0  0  0
  194.6320  174.4660  136.2720 C   0  0  2  0  0  3  0  0  0  0  0  0
  192.5860  173.9380  137.2480 O   0  0  0  0  0  0  0  0  0  0  0  0
  193.9490  173.7090  137.3760 C   0  0  0  0  0  2  0  0  0  0  0  0
  196.7810  174.8610  136.6900 C   0  0  0  0  0  1  0  0  0  0  0  0
  195.5040  175.4120  136.8360 O   0  0  0  0  0  0  0  0  0  0  0  0
  191.0240  176.9550  140.4360 O   0  0  0  0  0  1  0  0  0  0  0  0
  192.9360  176.6830  139.1990 O   0  0  0  0  0  0  0  0  0  0  0  0
  191.6930  176.8770  139.2150 C   0  0  0  0  0  0  0  0  0  0  0  0
  1 33  1  6  0  0  0
  2 10  2  0  0  0  0
  2  4  1  0  0  0  0
  3 11  1  0  0  0  0
  3  5  1  0  0  0  0
  4 12  2  0  0  0  0
  6 21  1  6  0  0  0
  7 14  1  0  0  0  0
  7 13  1  0  0  0  0
  8  5  1  6  0  0  0
  8  6  1  0  0  0  0
  9 15  1  0  0  0  0
 10 16  1  0  0  0  0
 11  1  1  0  0  0  0
 12  9  1  0  0  0  0
 12  1  1  0  0  0  0
 13  6  1  0  0  0  0
 15  8  1  0  0  0  0
 15 14  1  0  0  0  0
 16  9  2  0  0  0  0
 17  3  2  0  0  0  0
 18 22  1  0  0  0  0
 19 20  2  0  0  0  0
 19 18  1  0  0  0  0
 21 19  1  0  0  0  0
 22 23  1  0  0  0  0
 24 30  1  1  0  0  0
 25 23  1  6  0  0  0
 25 28  1  0  0  0  0
 26 24  1  0  0  0  0
 27 25  1  0  0  0  0
 27 29  1  0  0  0  0
 28 24  1  0  0  0  0
 29 26  1  0  0  0  0
 31 33  2  0  0  0  0
 33 32  1  0  0  0  0
 34  2  1  0  0  0  0
 34 37  1  0  0  0  0
 35 36  2  0  0  0  0
 36 47  1  0  0  0  0
 37 35  2  0  0  0  0
 38 37  1  1  0  0  0
 38 41  1  0  0  0  0
 39 38  1  0  0  0  0
 39 40  1  0  0  0  0
 40 44  1  1  0  0  0
 40 42  1  0  0  0  0
 41 42  1  0  0  0  0
 43 44  1  0  0  0  0
 46 47  2  0  0  0  0
 47 45  1  0  0  0  0
M  END
>  <MODEL>
9

>  <REMARK>
 VINA RESULT:      -7.6      2.639      4.780
  Name = 
  10 active torsions:
  status: ('A' for Active; 'I' for Inactive)
    1  A    between atoms: C_2  and  C_46
    2  A    between atoms: CA_3  and  C_47
    3  A    between atoms: C_4  and  C_44
    4  A    between atoms: N_11  and  C_34
    5  A    between atoms: O_15  and  C_29
    6  A    between atoms: C_18  and  N_32
    7  A    between atoms: C_21  and  C_28
    8  A    between atoms: C_22  and  C_35
    9  A    between atoms: C_28  and  C_44
   10  A    between atoms: C_34  and  C_46
                            x       y       z     vdW  Elec       q    Type
                         _______ _______ _______ _____ _____    ______ ____

>  <TORSDO>
F 10

$$$$
