=
 OpenBabel11042412243D

 60 65  0  0  1  0  0  0  0  0999 V2000
  183.0800  178.7050  141.3240 C   0  0  0  0  0  0  0  0  0  0  0  0
  184.5190  178.5400  143.1270 N   0  0  0  0  0  0  0  0  0  0  0  0
  185.1820  178.4830  142.0190 C   0  0  0  0  0  0  0  0  0  0  0  0
  184.3170  178.5950  140.8650 C   0  0  0  0  0  0  0  0  0  0  0  0
  186.6120  178.4390  141.9540 N   0  0  0  0  0  2  0  0  0  0  0  0
  183.0970  178.6610  142.8160 C   0  0  0  0  0  2  0  0  0  0  0  0
  188.5000  177.4540  143.0430 C   0  0  0  0  0  0  0  0  0  0  0  0
  187.4390  178.2070  143.0680 N   0  0  0  0  0  0  0  0  0  0  0  0
  191.3790  177.0130  145.4660 C   0  0  0  0  0  3  0  0  0  0  0  0
  189.2520  177.2600  144.3080 C   0  0  0  0  0  0  0  0  0  0  0  0
  189.3090  176.8400  146.7040 C   0  0  0  0  0  3  0  0  0  0  0  0
  188.5890  177.0560  145.5260 C   0  0  0  0  0  3  0  0  0  0  0  0
  190.6550  177.2270  144.2910 C   0  0  0  0  0  3  0  0  0  0  0  0
  190.7050  176.8190  146.6810 C   0  0  0  0  0  0  0  0  0  0  0  0
  193.4220  175.4380  149.0500 C   0  0  0  0  0  2  0  0  0  0  0  0
  193.0020  177.8760  149.5580 C   0  0  0  0  0  2  0  0  0  0  0  0
  193.1920  176.4830  150.1490 C   0  0  0  0  0  2  0  0  0  0  0  0
  192.7150  175.7660  147.7280 C   0  0  0  0  0  2  0  0  0  0  0  0
  190.6580  178.3320  149.4090 O   0  0  0  0  0  1  0  0  0  0  0  0
  191.4530  176.6000  147.9570 C   0  0  1  0  0  3  0  0  0  0  0  0
  191.7630  177.9350  148.6590 C   0  0  2  0  0  3  0  0  0  0  0  0
  189.4590  177.6440  140.7480 C   0  0  0  0  0  1  0  0  0  0  0  0
  188.9140  176.8940  141.8250 O   0  0  0  0  0  0  0  0  0  0  0  0
  181.9010  178.8750  140.5200 C   0  0  0  0  0  0  0  0  0  0  0  0
  180.9150  179.0170  139.8400 C   0  0  0  0  0  0  0  0  0  0  0  0
  179.7210  179.1860  139.0080 C   0  0  0  0  0  2  0  0  0  0  0  0
  179.8740  178.4680  137.7530 N   0  0  0  0  0  2  0  0  0  0  0  0
  180.1180  176.3640  138.7440 O   0  0  0  0  0  0  0  0  0  0  0  0
  180.0650  177.0520  137.6880 C   0  0  0  0  0  0  0  0  0  0  0  0
  180.1890  176.3960  136.3520 C   0  0  2  0  0  3  0  0  0  0  0  0
  180.2350  177.4170  135.2600 C   0  0  0  0  0  0  0  0  0  0  0  0
  179.1840  177.7080  134.6350 O   0  0  0  0  0  0  0  0  0  0  0  0
  181.4320  178.0370  134.9230 O   0  0  0  0  0  1  0  0  0  0  0  0
  179.0620  175.3920  136.1340 C   0  0  0  0  0  2  0  0  0  0  0  0
  179.8850  173.0140  137.9670 O   0  0  0  0  0  1  0  0  0  0  0  0
  180.5420  173.3160  136.7730 C   0  0  2  0  0  3  0  0  0  0  0  0
  179.6120  174.0280  135.8600 C   0  0  0  0  0  0  0  0  0  0  0  0
  179.3420  173.3560  134.7560 C   0  0  0  0  0  3  0  0  0  0  0  0
  180.8720  172.0250  136.0320 C   0  0  1  0  0  3  0  0  0  0  0  0
  180.0470  172.0470  134.7450 C   0  0  0  0  0  2  0  0  0  0  0  0
  182.3550  171.9970  135.7020 C   0  0  0  0  0  2  0  0  0  0  0  0
  183.1180  171.6030  136.8750 N   0  0  0  0  0  1  0  0  0  0  0  0
  184.7430  178.6290  139.4350 C   0  0  0  0  0  2  0  0  0  0  0  0
  184.3020  177.4170  138.7620 N   0  0  0  0  0  2  0  0  0  0  0  0
  186.2520  178.2810  137.5920 C   0  0  0  0  0  1  0  0  0  0  0  0
  185.2200  177.1630  137.6630 C   0  0  2  0  0  3  0  0  0  0  0  0
  184.4340  177.1110  136.3650 C   0  0  0  0  0  2  0  0  0  0  0  0
  184.7610  175.8490  135.5840 C   0  0  0  0  0  2  0  0  0  0  0  0
  185.5880  174.6530  136.6740 S   0  0  0  0  0  0  0  0  0  0  0  0
  188.3060  170.9410  135.8180 F   0  0  0  0  0  0  0  0  0  0  0  0
  186.4480  173.8170  135.2890 C   0  0  1  0  0  3  0  0  0  0  0  0
  187.8880  174.2810  135.1100 C   0  0  2  0  0  3  0  0  0  0  0  0
  187.5450  172.0700  137.6150 F   0  0  0  0  0  0  0  0  0  0  0  0
  187.7760  172.1410  136.2490 C   0  0  0  0  0  0  0  0  0  0  0  0
  188.7330  173.2750  135.8880 C   0  0  2  0  0  3  0  0  0  0  0  0
  186.5080  172.3860  135.5620 N   0  0  0  0  0  2  0  0  0  0  0  0
  188.1390  175.7690  135.4180 C   0  0  0  0  0  2  0  0  0  0  0  0
  189.4540  173.8680  137.0790 C   0  0  0  0  0  3  0  0  0  0  0  0
  189.8580  175.1430  137.0660 C   0  0  0  0  0  3  0  0  0  0  0  0
  189.5790  176.0020  135.8700 C   0  0  0  0  0  2  0  0  0  0  0  0
  1  6  1  0  0  0  0
  3  2  2  0  0  0  0
  4  1  2  0  0  0  0
  4  3  1  0  0  0  0
  5  3  1  0  0  0  0
  5  8  1  0  0  0  0
  6  2  1  0  0  0  0
  7  8  2  0  0  0  0
  7 10  1  0  0  0  0
  9 14  1  0  0  0  0
 10 12  2  0  0  0  0
 12 11  1  0  0  0  0
 13 10  1  0  0  0  0
 13  9  2  0  0  0  0
 14 11  2  0  0  0  0
 15 17  1  0  0  0  0
 16 17  1  0  0  0  0
 18 20  1  0  0  0  0
 18 15  1  0  0  0  0
 20 14  1  6  0  0  0
 20 21  1  0  0  0  0
 21 19  1  1  0  0  0
 21 16  1  0  0  0  0
 22 23  1  0  0  0  0
 23  7  1  0  0  0  0
 24  1  1  0  0  0  0
 25 24  3  0  0  0  0
 26 25  1  0  0  0  0
 27 26  1  0  0  0  0
 29 27  1  0  0  0  0
 29 28  2  0  0  0  0
 30 34  1  6  0  0  0
 30 29  1  0  0  0  0
 31 30  1  0  0  0  0
 32 31  2  0  0  0  0
 33 31  1  0  0  0  0
 36 35  1  1  0  0  0
 37 34  1  0  0  0  0
 37 36  1  0  0  0  0
 38 37  2  0  0  0  0
 39 41  1  6  0  0  0
 39 36  1  0  0  0  0
 40 38  1  0  0  0  0
 40 39  1  0  0  0  0
 41 42  1  0  0  0  0
 43  4  1  0  0  0  0
 44 43  1  0  0  0  0
 46 45  1  6  0  0  0
 46 44  1  0  0  0  0
 47 46  1  0  0  0  0
 48 47  1  0  0  0  0
 48 49  1  0  0  0  0
 50 54  1  0  0  0  0
 51 56  1  0  0  0  0
 51 49  1  1  0  0  0
 52 51  1  0  0  0  0
 52 57  1  1  0  0  0
 52 55  1  0  0  0  0
 54 53  1  0  0  0  0
 55 54  1  0  0  0  0
 55 58  1  1  0  0  0
 56 54  1  0  0  0  0
 57 60  1  0  0  0  0
 59 58  2  0  0  0  0
 60 59  1  0  0  0  0
M  END
>  <MODEL>
1

>  <REMARK>
 VINA RESULT:      -4.7      0.000      0.000
  Name = 
  19 active torsions:
  status: ('A' for Active; 'I' for Inactive)
    1  A    between atoms: C_1  and  C_24
    2  A    between atoms: C_1  and  N_42
    3  A    between atoms: C_4  and  C_19
    4  A    between atoms: C_6  and  S_50
    5  A    between atoms: C_7  and  C_9
    6  A    between atoms: C_9  and  O_56
    7  A    between atoms: C_14  and  C_37
    8  A    between atoms: C_19  and  C_44
    9  A    between atoms: C_19  and  C_51
   10  A    between atoms: N_26  and  C_53
   11  A    between atoms: N_27  and  N_57
   12  A    between atoms: C_29  and  C_44
   13  A    between atoms: C_30  and  C_34
   14  A    between atoms: C_30  and  S_50
   15  A    between atoms: C_34  and  C_43
   16  A    between atoms: C_38  and  C_54
   17  A    between atoms: N_42  and  C_43
   18  A    between atoms: C_47  and  C_53
   19  A    between atoms: C_52  and  C_58
                            x       y       z     vdW  Elec       q    Type
                         _______ _______ _______ _____ _____    ______ ____

>  <TORSDO>
F 19

$$$$
=
 OpenBabel11042412243D

 60 65  0  0  1  0  0  0  0  0999 V2000
  182.9400  178.5050  142.4350 C   0  0  0  0  0  0  0  0  0  0  0  0
  184.4890  178.3620  144.1470 N   0  0  0  0  0  0  0  0  0  0  0  0
  185.0460  178.0800  143.0150 C   0  0  0  0  0  0  0  0  0  0  0  0
  184.1110  178.1700  141.9150 C   0  0  0  0  0  0  0  0  0  0  0  0
  186.4480  177.8310  142.8650 N   0  0  0  0  0  2  0  0  0  0  0  0
  183.0730  178.6410  143.9150 C   0  0  0  0  0  2  0  0  0  0  0  0
  188.6150  177.7880  143.8740 C   0  0  0  0  0  0  0  0  0  0  0  0
  187.3270  177.6240  143.9430 N   0  0  0  0  0  0  0  0  0  0  0  0
  191.5400  176.7830  146.0630 C   0  0  0  0  0  3  0  0  0  0  0  0
  189.4270  177.4850  145.0800 C   0  0  0  0  0  0  0  0  0  0  0  0
  189.6330  177.2020  147.4880 C   0  0  0  0  0  3  0  0  0  0  0  0
  188.8670  177.5230  146.3640 C   0  0  0  0  0  3  0  0  0  0  0  0
  190.7700  177.1020  144.9420 C   0  0  0  0  0  3  0  0  0  0  0  0
  190.9720  176.8320  147.3440 C   0  0  0  0  0  0  0  0  0  0  0  0
  193.2600  174.7890  149.6880 C   0  0  0  0  0  2  0  0  0  0  0  0
  193.9590  177.2170  149.7110 C   0  0  0  0  0  2  0  0  0  0  0  0
  193.6660  175.9840  150.5600 C   0  0  0  0  0  2  0  0  0  0  0  0
  192.5300  175.1870  148.3980 C   0  0  0  0  0  2  0  0  0  0  0  0
  192.0130  178.6100  149.6870 O   0  0  0  0  0  1  0  0  0  0  0  0
  191.7750  176.5070  148.5630 C   0  0  1  0  0  3  0  0  0  0  0  0
  192.7150  177.6670  148.9370 C   0  0  2  0  0  3  0  0  0  0  0  0
  190.1130  177.5650  141.8920 C   0  0  0  0  0  1  0  0  0  0  0  0
  189.1810  178.2820  142.6890 O   0  0  0  0  0  0  0  0  0  0  0  0
  181.7310  178.7380  141.6930 C   0  0  0  0  0  0  0  0  0  0  0  0
  180.7210  178.9370  141.0660 C   0  0  0  0  0  0  0  0  0  0  0  0
  179.4950  179.1810  140.3010 C   0  0  0  0  0  2  0  0  0  0  0  0
  179.7740  180.0540  139.1700 N   0  0  0  0  0  2  0  0  0  0  0  0
  178.9330  178.5820  137.5580 O   0  0  0  0  0  0  0  0  0  0  0  0
  179.4630  179.6970  137.8210 C   0  0  0  0  0  0  0  0  0  0  0  0
  179.7610  180.6670  136.7250 C   0  0  2  0  0  3  0  0  0  0  0  0
  180.2030  179.9520  135.4870 C   0  0  0  0  0  0  0  0  0  0  0  0
  179.3550  179.6370  134.6140 O   0  0  0  0  0  0  0  0  0  0  0  0
  181.5410  179.6250  135.3000 O   0  0  0  0  0  1  0  0  0  0  0  0
  180.7920  181.6950  137.1760 C   0  0  0  0  0  2  0  0  0  0  0  0
  182.1800  184.4760  137.3610 O   0  0  0  0  0  1  0  0  0  0  0  0
  180.7980  184.3090  137.4510 C   0  0  2  0  0  3  0  0  0  0  0  0
  180.3980  183.0700  136.7360 C   0  0  0  0  0  0  0  0  0  0  0  0
  179.6260  183.2920  135.6890 C   0  0  0  0  0  3  0  0  0  0  0  0
  180.0990  185.4220  136.6780 C   0  0  1  0  0  3  0  0  0  0  0  0
  179.3800  184.7480  135.5100 C   0  0  0  0  0  2  0  0  0  0  0  0
  179.0920  186.1120  137.5840 C   0  0  0  0  0  2  0  0  0  0  0  0
  179.7240  186.4800  138.8400 N   0  0  0  0  0  1  0  0  0  0  0  0
  184.4190  177.9700  140.4690 C   0  0  0  0  0  2  0  0  0  0  0  0
  184.3510  179.2450  139.7710 N   0  0  0  0  0  2  0  0  0  0  0  0
  183.4350  178.4790  137.6520 C   0  0  0  0  0  1  0  0  0  0  0  0
  184.6700  179.0020  138.3740 C   0  0  2  0  0  3  0  0  0  0  0  0
  185.7830  177.9720  138.2930 C   0  0  0  0  0  2  0  0  0  0  0  0
  186.7530  178.3090  137.1730 C   0  0  0  0  0  2  0  0  0  0  0  0
  188.2160  177.2370  137.2860 S   0  0  0  0  0  0  0  0  0  0  0  0
  186.1890  173.3590  135.6260 F   0  0  0  0  0  0  0  0  0  0  0  0
  187.8590  176.3940  135.6990 C   0  0  1  0  0  3  0  0  0  0  0  0
  188.9380  175.3990  135.2930 C   0  0  2  0  0  3  0  0  0  0  0  0
  186.8570  174.1660  137.6230 F   0  0  0  0  0  0  0  0  0  0  0  0
  187.0090  174.2800  136.2490 C   0  0  0  0  0  0  0  0  0  0  0  0
  188.4540  174.0470  135.8110 C   0  0  2  0  0  3  0  0  0  0  0  0
  186.6250  175.6290  135.8350 N   0  0  0  0  0  2  0  0  0  0  0  0
  190.3760  175.8020  135.6720 C   0  0  0  0  0  2  0  0  0  0  0  0
  189.3310  173.4520  136.8900 C   0  0  0  0  0  3  0  0  0  0  0  0
  190.6470  173.6900  136.9090 C   0  0  0  0  0  3  0  0  0  0  0  0
  191.2600  174.5720  135.8630 C   0  0  0  0  0  2  0  0  0  0  0  0
  1  6  1  0  0  0  0
  3  2  2  0  0  0  0
  4  1  2  0  0  0  0
  4  3  1  0  0  0  0
  5  3  1  0  0  0  0
  5  8  1  0  0  0  0
  6  2  1  0  0  0  0
  7  8  2  0  0  0  0
  7 10  1  0  0  0  0
  9 14  1  0  0  0  0
 10 12  2  0  0  0  0
 12 11  1  0  0  0  0
 13 10  1  0  0  0  0
 13  9  2  0  0  0  0
 14 11  2  0  0  0  0
 15 17  1  0  0  0  0
 16 17  1  0  0  0  0
 18 20  1  0  0  0  0
 18 15  1  0  0  0  0
 20 14  1  6  0  0  0
 20 21  1  0  0  0  0
 21 19  1  1  0  0  0
 21 16  1  0  0  0  0
 22 23  1  0  0  0  0
 23  7  1  0  0  0  0
 24  1  1  0  0  0  0
 25 24  3  0  0  0  0
 26 25  1  0  0  0  0
 27 26  1  0  0  0  0
 28 29  2  0  0  0  0
 29 27  1  0  0  0  0
 30 34  1  1  0  0  0
 30 29  1  0  0  0  0
 31 30  1  0  0  0  0
 32 31  2  0  0  0  0
 33 31  1  0  0  0  0
 36 35  1  6  0  0  0
 37 34  1  0  0  0  0
 37 36  1  0  0  0  0
 38 37  2  0  0  0  0
 39 36  1  0  0  0  0
 39 41  1  1  0  0  0
 40 38  1  0  0  0  0
 40 39  1  0  0  0  0
 41 42  1  0  0  0  0
 43  4  1  0  0  0  0
 44 43  1  0  0  0  0
 46 45  1  6  0  0  0
 46 44  1  0  0  0  0
 47 46  1  0  0  0  0
 48 49  1  0  0  0  0
 48 47  1  0  0  0  0
 50 54  1  0  0  0  0
 51 56  1  0  0  0  0
 51 49  1  1  0  0  0
 52 57  1  1  0  0  0
 52 51  1  0  0  0  0
 52 55  1  0  0  0  0
 54 53  1  0  0  0  0
 55 54  1  0  0  0  0
 55 58  1  1  0  0  0
 56 54  1  0  0  0  0
 57 60  1  0  0  0  0
 58 59  2  0  0  0  0
 60 59  1  0  0  0  0
M  END
>  <MODEL>
2

>  <REMARK>
 VINA RESULT:      -4.5      2.796      4.942
  Name = 
  19 active torsions:
  status: ('A' for Active; 'I' for Inactive)
    1  A    between atoms: C_1  and  C_24
    2  A    between atoms: C_1  and  N_42
    3  A    between atoms: C_4  and  C_19
    4  A    between atoms: C_6  and  S_50
    5  A    between atoms: C_7  and  C_9
    6  A    between atoms: C_9  and  O_56
    7  A    between atoms: C_14  and  C_37
    8  A    between atoms: C_19  and  C_44
    9  A    between atoms: C_19  and  C_51
   10  A    between atoms: N_26  and  C_53
   11  A    between atoms: N_27  and  N_57
   12  A    between atoms: C_29  and  C_44
   13  A    between atoms: C_30  and  C_34
   14  A    between atoms: C_30  and  S_50
   15  A    between atoms: C_34  and  C_43
   16  A    between atoms: C_38  and  C_54
   17  A    between atoms: N_42  and  C_43
   18  A    between atoms: C_47  and  C_53
   19  A    between atoms: C_52  and  C_58
                            x       y       z     vdW  Elec       q    Type
                         _______ _______ _______ _____ _____    ______ ____

>  <TORSDO>
F 19

$$$$
=
 OpenBabel11042412243D

 60 65  0  0  1  0  0  0  0  0999 V2000
  183.3920  178.5150  140.3300 C   0  0  0  0  0  0  0  0  0  0  0  0
  184.6450  178.1970  142.2480 N   0  0  0  0  0  0  0  0  0  0  0  0
  185.4190  178.4600  141.2460 C   0  0  0  0  0  0  0  0  0  0  0  0
  184.6710  178.6780  140.0270 C   0  0  0  0  0  0  0  0  0  0  0  0
  186.8350  178.6340  141.3660 N   0  0  0  0  0  2  0  0  0  0  0  0
  183.2620  178.1740  141.7770 C   0  0  0  0  0  2  0  0  0  0  0  0
  188.8330  177.9920  142.5120 C   0  0  0  0  0  0  0  0  0  0  0  0
  187.5700  178.3040  142.5190 N   0  0  0  0  0  0  0  0  0  0  0  0
  189.2660  177.1320  146.1770 C   0  0  0  0  0  3  0  0  0  0  0  0
  189.4690  177.6160  143.8000 C   0  0  0  0  0  0  0  0  0  0  0  0
  191.4480  177.1450  145.1360 C   0  0  0  0  0  3  0  0  0  0  0  0
  190.8590  177.4660  143.9100 C   0  0  0  0  0  3  0  0  0  0  0  0
  188.6810  177.4540  144.9500 C   0  0  0  0  0  3  0  0  0  0  0  0
  190.6560  176.9750  146.2730 C   0  0  0  0  0  0  0  0  0  0  0  0
  193.2180  175.3690  148.6730 C   0  0  0  0  0  2  0  0  0  0  0  0
  192.6960  177.7230  149.4280 C   0  0  0  0  0  2  0  0  0  0  0  0
  192.8760  176.2720  149.8650 C   0  0  0  0  0  2  0  0  0  0  0  0
  192.6060  175.8390  147.3470 C   0  0  0  0  0  2  0  0  0  0  0  0
  190.3590  178.1530  149.1480 O   0  0  0  0  0  1  0  0  0  0  0  0
  191.3090  176.6190  147.5710 C   0  0  1  0  0  3  0  0  0  0  0  0
  191.5290  177.8660  148.4460 C   0  0  2  0  0  3  0  0  0  0  0  0
  189.7810  176.9540  140.4520 C   0  0  0  0  0  1  0  0  0  0  0  0
  189.5510  178.0640  141.3090 O   0  0  0  0  0  0  0  0  0  0  0  0
  182.2900  178.6730  139.4200 C   0  0  0  0  0  0  0  0  0  0  0  0
  181.3700  178.8090  138.6530 C   0  0  0  0  0  0  0  0  0  0  0  0
  180.2550  178.9760  137.7170 C   0  0  0  0  0  2  0  0  0  0  0  0
  179.8360  177.6830  137.1980 N   0  0  0  0  0  2  0  0  0  0  0  0
  181.6220  177.4670  135.7030 O   0  0  0  0  0  0  0  0  0  0  0  0
  180.5680  176.9760  136.1930 C   0  0  0  0  0  0  0  0  0  0  0  0
  180.0750  175.6420  135.7390 C   0  0  2  0  0  3  0  0  0  0  0  0
  179.6390  174.8100  136.9040 C   0  0  0  0  0  0  0  0  0  0  0  0
  178.9310  173.7900  136.7100 O   0  0  0  0  0  0  0  0  0  0  0  0
  180.0030  175.1630  138.1980 O   0  0  0  0  0  1  0  0  0  0  0  0
  181.1320  174.9270  134.9050 C   0  0  0  0  0  2  0  0  0  0  0  0
  183.0210  175.2040  137.3640 O   0  0  0  0  0  1  0  0  0  0  0  0
  183.1920  174.2280  136.3810 C   0  0  2  0  0  3  0  0  0  0  0  0
  181.8850  173.9380  135.7370 C   0  0  0  0  0  0  0  0  0  0  0  0
  181.4630  172.7020  135.9360 C   0  0  0  0  0  3  0  0  0  0  0  0
  183.5820  172.9080  137.0350 C   0  0  1  0  0  3  0  0  0  0  0  0
  182.4270  171.9420  136.7760 C   0  0  0  0  0  2  0  0  0  0  0  0
  184.8570  172.3830  136.3940 C   0  0  0  0  0  2  0  0  0  0  0  0
  185.3370  173.3270  135.3990 N   0  0  0  0  0  1  0  0  0  0  0  0
  185.2300  179.0590  138.6980 C   0  0  0  0  0  2  0  0  0  0  0  0
  186.5070  178.3940  138.4930 N   0  0  0  0  0  2  0  0  0  0  0  0
  186.1090  176.4770  137.0490 C   0  0  0  0  0  1  0  0  0  0  0  0
  186.5490  177.9340  137.1140 C   0  0  2  0  0  3  0  0  0  0  0  0
  187.9700  178.0610  136.5940 C   0  0  0  0  0  2  0  0  0  0  0  0
  188.1500  177.2650  135.3110 C   0  0  0  0  0  2  0  0  0  0  0  0
  189.8960  176.7960  135.1230 S   0  0  0  0  0  0  0  0  0  0  0  0
  193.0640  175.0740  138.1050 F   0  0  0  0  0  0  0  0  0  0  0  0
  190.0380  176.2040  136.8510 C   0  0  1  0  0  3  0  0  0  0  0  0
  189.8320  174.7020  136.9900 C   0  0  2  0  0  3  0  0  0  0  0  0
  192.9080  175.4860  135.8940 F   0  0  0  0  0  0  0  0  0  0  0  0
  192.1860  175.2880  137.0610 C   0  0  0  0  0  0  0  0  0  0  0  0
  191.2340  174.0980  136.9500 C   0  0  2  0  0  3  0  0  0  0  0  0
  191.3850  176.4800  137.3370 N   0  0  0  0  0  2  0  0  0  0  0  0
  188.7970  174.0920  136.0240 C   0  0  0  0  0  2  0  0  0  0  0  0
  191.4920  173.2190  135.7460 C   0  0  0  0  0  3  0  0  0  0  0  0
  190.4980  172.5220  135.1840 C   0  0  0  0  0  3  0  0  0  0  0  0
  189.1090  172.6250  135.7390 C   0  0  0  0  0  2  0  0  0  0  0  0
  1  6  1  0  0  0  0
  3  5  1  0  0  0  0
  3  2  2  0  0  0  0
  4  1  2  0  0  0  0
  4  3  1  0  0  0  0
  5  8  1  0  0  0  0
  6  2  1  0  0  0  0
  7  8  2  0  0  0  0
  7 10  1  0  0  0  0
  9 14  1  0  0  0  0
 10 12  2  0  0  0  0
 10 13  1  0  0  0  0
 11 14  2  0  0  0  0
 12 11  1  0  0  0  0
 13  9  2  0  0  0  0
 15 17  1  0  0  0  0
 16 17  1  0  0  0  0
 18 20  1  0  0  0  0
 18 15  1  0  0  0  0
 20 14  1  6  0  0  0
 20 21  1  0  0  0  0
 21 19  1  1  0  0  0
 21 16  1  0  0  0  0
 22 23  1  0  0  0  0
 23  7  1  0  0  0  0
 24  1  1  0  0  0  0
 25 24  3  0  0  0  0
 26 25  1  0  0  0  0
 27 26  1  0  0  0  0
 28 29  2  0  0  0  0
 29 27  1  0  0  0  0
 30 34  1  1  0  0  0
 30 29  1  0  0  0  0
 30 31  1  0  0  0  0
 31 33  1  0  0  0  0
 32 31  2  0  0  0  0
 34 37  1  0  0  0  0
 36 39  1  0  0  0  0
 36 35  1  1  0  0  0
 37 38  2  0  0  0  0
 37 36  1  0  0  0  0
 38 40  1  0  0  0  0
 39 41  1  6  0  0  0
 40 39  1  0  0  0  0
 42 41  1  0  0  0  0
 43  4  1  0  0  0  0
 44 43  1  0  0  0  0
 46 45  1  1  0  0  0
 46 44  1  0  0  0  0
 47 46  1  0  0  0  0
 48 47  1  0  0  0  0
 49 48  1  0  0  0  0
 51 49  1  6  0  0  0
 51 52  1  0  0  0  0
 51 56  1  0  0  0  0
 52 57  1  6  0  0  0
 53 54  1  0  0  0  0
 54 56  1  0  0  0  0
 54 50  1  0  0  0  0
 55 58  1  6  0  0  0
 55 52  1  0  0  0  0
 55 54  1  0  0  0  0
 59 60  1  0  0  0  0
 59 58  2  0  0  0  0
 60 57  1  0  0  0  0
M  END
>  <MODEL>
3

>  <REMARK>
 VINA RESULT:      -4.4      2.049      2.832
  Name = 
  19 active torsions:
  status: ('A' for Active; 'I' for Inactive)
    1  A    between atoms: C_1  and  C_24
    2  A    between atoms: C_1  and  N_42
    3  A    between atoms: C_4  and  C_19
    4  A    between atoms: C_6  and  S_50
    5  A    between atoms: C_7  and  C_9
    6  A    between atoms: C_9  and  O_56
    7  A    between atoms: C_14  and  C_37
    8  A    between atoms: C_19  and  C_44
    9  A    between atoms: C_19  and  C_51
   10  A    between atoms: N_26  and  C_53
   11  A    between atoms: N_27  and  N_57
   12  A    between atoms: C_29  and  C_44
   13  A    between atoms: C_30  and  C_34
   14  A    between atoms: C_30  and  S_50
   15  A    between atoms: C_34  and  C_43
   16  A    between atoms: C_38  and  C_54
   17  A    between atoms: N_42  and  C_43
   18  A    between atoms: C_47  and  C_53
   19  A    between atoms: C_52  and  C_58
                            x       y       z     vdW  Elec       q    Type
                         _______ _______ _______ _____ _____    ______ ____

>  <TORSDO>
F 19

$$$$
=
 OpenBabel11042412243D

 60 65  0  0  1  0  0  0  0  0999 V2000
  183.1070  178.4030  142.5650 C   0  0  0  0  0  0  0  0  0  0  0  0
  184.6480  178.2840  144.2860 N   0  0  0  0  0  0  0  0  0  0  0  0
  185.2160  178.0120  143.1570 C   0  0  0  0  0  0  0  0  0  0  0  0
  184.2860  178.0880  142.0510 C   0  0  0  0  0  0  0  0  0  0  0  0
  186.6230  177.7870  143.0150 N   0  0  0  0  0  2  0  0  0  0  0  0
  183.2280  178.5390  144.0460 C   0  0  0  0  0  2  0  0  0  0  0  0
  188.7730  177.8530  144.0600 C   0  0  0  0  0  0  0  0  0  0  0  0
  187.4980  177.5930  144.0980 N   0  0  0  0  0  0  0  0  0  0  0  0
  191.6200  176.6470  146.2500 C   0  0  0  0  0  3  0  0  0  0  0  0
  189.5860  177.5530  145.2650 C   0  0  0  0  0  0  0  0  0  0  0  0
  189.8600  177.4800  147.6820 C   0  0  0  0  0  3  0  0  0  0  0  0
  189.0960  177.7980  146.5550 C   0  0  0  0  0  3  0  0  0  0  0  0
  190.8530  176.9650  145.1260 C   0  0  0  0  0  3  0  0  0  0  0  0
  191.1230  176.9040  147.5350 C   0  0  0  0  0  0  0  0  0  0  0  0
  193.4290  174.8830  149.8810 C   0  0  0  0  0  2  0  0  0  0  0  0
  194.0970  177.3180  149.9140 C   0  0  0  0  0  2  0  0  0  0  0  0
  193.8170  176.0790  150.7590 C   0  0  0  0  0  2  0  0  0  0  0  0
  192.6980  175.2750  148.5900 C   0  0  0  0  0  2  0  0  0  0  0  0
  192.1350  178.6870  149.8880 O   0  0  0  0  0  1  0  0  0  0  0  0
  191.9260  176.5850  148.7560 C   0  0  1  0  0  3  0  0  0  0  0  0
  192.8500  177.7560  149.1380 C   0  0  2  0  0  3  0  0  0  0  0  0
  189.1360  177.9350  141.5940 C   0  0  0  0  0  1  0  0  0  0  0  0
  189.3180  178.4410  142.9090 O   0  0  0  0  0  0  0  0  0  0  0  0
  181.8980  178.6160  141.8160 C   0  0  0  0  0  0  0  0  0  0  0  0
  180.8880  178.7990  141.1840 C   0  0  0  0  0  0  0  0  0  0  0  0
  179.6630  179.0240  140.4120 C   0  0  0  0  0  2  0  0  0  0  0  0
  179.9210  179.9490  139.3180 N   0  0  0  0  0  2  0  0  0  0  0  0
  178.9310  178.6090  137.6760 O   0  0  0  0  0  0  0  0  0  0  0  0
  179.5230  179.6840  137.9700 C   0  0  0  0  0  0  0  0  0  0  0  0
  179.8070  180.7030  136.9160 C   0  0  2  0  0  3  0  0  0  0  0  0
  180.4190  180.0640  135.7090 C   0  0  0  0  0  0  0  0  0  0  0  0
  181.6600  179.8670  135.6720 O   0  0  0  0  0  1  0  0  0  0  0  0
  179.6290  179.6980  134.6270 O   0  0  0  0  0  0  0  0  0  0  0  0
  180.6850  181.8220  137.4640 C   0  0  0  0  0  2  0  0  0  0  0  0
  182.0430  184.6230  137.4350 O   0  0  0  0  0  1  0  0  0  0  0  0
  180.6590  184.4500  137.4530 C   0  0  2  0  0  3  0  0  0  0  0  0
  180.3140  183.1350  136.8530 C   0  0  0  0  0  0  0  0  0  0  0  0
  179.6100  183.2340  135.7400 C   0  0  0  0  0  3  0  0  0  0  0  0
  180.0060  185.4640  136.5200 C   0  0  1  0  0  3  0  0  0  0  0  0
  179.3700  184.6590  135.3880 C   0  0  0  0  0  2  0  0  0  0  0  0
  178.9380  186.2350  137.2790 C   0  0  0  0  0  2  0  0  0  0  0  0
  179.2870  186.3110  138.6880 N   0  0  0  0  0  1  0  0  0  0  0  0
  184.6060  177.8950  140.6070 C   0  0  0  0  0  2  0  0  0  0  0  0
  185.1310  179.1320  140.0510 N   0  0  0  0  0  2  0  0  0  0  0  0
  183.6200  180.5950  138.8300 C   0  0  0  0  0  1  0  0  0  0  0  0
  184.4890  179.3460  138.7640 C   0  0  2  0  0  3  0  0  0  0  0  0
  183.6250  178.1410  138.4360 C   0  0  0  0  0  2  0  0  0  0  0  0
  183.8330  177.7010  136.9960 C   0  0  0  0  0  2  0  0  0  0  0  0
  184.5860  176.0470  136.9650 S   0  0  0  0  0  0  0  0  0  0  0  0
  180.3800  175.1040  135.1440 F   0  0  0  0  0  0  0  0  0  0  0  0
  183.8010  175.5990  135.3710 C   0  0  1  0  0  3  0  0  0  0  0  0
  183.6680  174.0950  135.1700 C   0  0  2  0  0  3  0  0  0  0  0  0
  181.2940  175.3430  137.1910 F   0  0  0  0  0  0  0  0  0  0  0  0
  181.5640  175.0920  135.8540 C   0  0  0  0  0  0  0  0  0  0  0  0
  182.2610  173.7480  135.6530 C   0  0  2  0  0  3  0  0  0  0  0  0
  182.4470  176.1390  135.3400 N   0  0  0  0  0  2  0  0  0  0  0  0
  184.8190  173.2520  135.7540 C   0  0  0  0  0  2  0  0  0  0  0  0
  182.2330  172.8560  136.8750 C   0  0  0  0  0  3  0  0  0  0  0  0
  183.2020  171.9600  137.0890 C   0  0  0  0  0  3  0  0  0  0  0  0
  184.3420  171.8490  136.1200 C   0  0  0  0  0  2  0  0  0  0  0  0
  1  6  1  0  0  0  0
  3  2  2  0  0  0  0
  4  1  2  0  0  0  0
  4  3  1  0  0  0  0
  5  3  1  0  0  0  0
  5  8  1  0  0  0  0
  6  2  1  0  0  0  0
  7  8  2  0  0  0  0
  7 10  1  0  0  0  0
  9 14  1  0  0  0  0
 10 12  2  0  0  0  0
 12 11  1  0  0  0  0
 13 10  1  0  0  0  0
 13  9  2  0  0  0  0
 14 11  2  0  0  0  0
 15 17  1  0  0  0  0
 16 17  1  0  0  0  0
 18 20  1  0  0  0  0
 18 15  1  0  0  0  0
 20 14  1  6  0  0  0
 20 21  1  0  0  0  0
 21 19  1  1  0  0  0
 21 16  1  0  0  0  0
 22 23  1  0  0  0  0
 23  7  1  0  0  0  0
 24  1  1  0  0  0  0
 25 24  3  0  0  0  0
 26 25  1  0  0  0  0
 27 26  1  0  0  0  0
 28 29  2  0  0  0  0
 29 27  1  0  0  0  0
 30 34  1  1  0  0  0
 30 29  1  0  0  0  0
 31 30  1  0  0  0  0
 32 31  1  0  0  0  0
 33 31  2  0  0  0  0
 36 35  1  6  0  0  0
 37 36  1  0  0  0  0
 37 34  1  0  0  0  0
 38 37  2  0  0  0  0
 39 41  1  1  0  0  0
 39 36  1  0  0  0  0
 40 38  1  0  0  0  0
 40 39  1  0  0  0  0
 41 42  1  0  0  0  0
 43  4  1  0  0  0  0
 44 43  1  0  0  0  0
 46 45  1  1  0  0  0
 46 44  1  0  0  0  0
 47 46  1  0  0  0  0
 48 47  1  0  0  0  0
 49 48  1  0  0  0  0
 50 54  1  0  0  0  0
 51 49  1  1  0  0  0
 52 51  1  0  0  0  0
 52 55  1  0  0  0  0
 52 57  1  1  0  0  0
 54 53  1  0  0  0  0
 55 54  1  0  0  0  0
 55 58  1  1  0  0  0
 56 51  1  0  0  0  0
 56 54  1  0  0  0  0
 57 60  1  0  0  0  0
 58 59  2  0  0  0  0
 60 59  1  0  0  0  0
M  END
>  <MODEL>
4

>  <REMARK>
 VINA RESULT:      -4.0      3.130      5.597
  Name = 
  19 active torsions:
  status: ('A' for Active; 'I' for Inactive)
    1  A    between atoms: C_1  and  C_24
    2  A    between atoms: C_1  and  N_42
    3  A    between atoms: C_4  and  C_19
    4  A    between atoms: C_6  and  S_50
    5  A    between atoms: C_7  and  C_9
    6  A    between atoms: C_9  and  O_56
    7  A    between atoms: C_14  and  C_37
    8  A    between atoms: C_19  and  C_44
    9  A    between atoms: C_19  and  C_51
   10  A    between atoms: N_26  and  C_53
   11  A    between atoms: N_27  and  N_57
   12  A    between atoms: C_29  and  C_44
   13  A    between atoms: C_30  and  C_34
   14  A    between atoms: C_30  and  S_50
   15  A    between atoms: C_34  and  C_43
   16  A    between atoms: C_38  and  C_54
   17  A    between atoms: N_42  and  C_43
   18  A    between atoms: C_47  and  C_53
   19  A    between atoms: C_52  and  C_58
                            x       y       z     vdW  Elec       q    Type
                         _______ _______ _______ _____ _____    ______ ____

>  <TORSDO>
F 19

$$$$
=
 OpenBabel11042412243D

 60 65  0  0  1  0  0  0  0  0999 V2000
  187.3330  177.6870  138.4780 C   0  0  0  0  0  0  0  0  0  0  0  0
  188.7190  177.1650  140.2540 N   0  0  0  0  0  0  0  0  0  0  0  0
  187.6930  177.8330  140.6690 C   0  0  0  0  0  0  0  0  0  0  0  0
  186.7930  178.1690  139.5870 C   0  0  0  0  0  0  0  0  0  0  0  0
  187.4270  178.0940  142.0510 N   0  0  0  0  0  2  0  0  0  0  0  0
  188.6260  177.0160  138.8030 C   0  0  0  0  0  2  0  0  0  0  0  0
  188.0320  177.6840  144.3280 C   0  0  0  0  0  0  0  0  0  0  0  0
  188.3570  177.8760  143.0830 N   0  0  0  0  0  0  0  0  0  0  0  0
  189.8580  177.4590  147.6410 C   0  0  0  0  0  3  0  0  0  0  0  0
  189.1230  177.5160  145.3200 C   0  0  0  0  0  0  0  0  0  0  0  0
  191.4760  177.2140  145.8620 C   0  0  0  0  0  3  0  0  0  0  0  0
  190.4540  177.3380  144.9170 C   0  0  0  0  0  3  0  0  0  0  0  0
  188.8390  177.5830  146.6930 C   0  0  0  0  0  3  0  0  0  0  0  0
  191.1840  177.2720  147.2260 C   0  0  0  0  0  0  0  0  0  0  0  0
  193.1950  177.8590  150.4690 C   0  0  0  0  0  2  0  0  0  0  0  0
  193.2020  175.4000  149.8900 C   0  0  0  0  0  2  0  0  0  0  0  0
  194.0470  176.5900  150.3350 C   0  0  0  0  0  2  0  0  0  0  0  0
  192.0090  177.9120  149.4970 C   0  0  0  0  0  2  0  0  0  0  0  0
  193.4390  175.1360  147.5230 O   0  0  0  0  0  1  0  0  0  0  0  0
  192.2940  177.1240  148.2170 C   0  0  1  0  0  3  0  0  0  0  0  0
  192.5890  175.6400  148.5060 C   0  0  2  0  0  3  0  0  0  0  0  0
  185.7410  178.6570  144.4970 C   0  0  0  0  0  1  0  0  0  0  0  0
  186.6760  177.6020  144.6780 O   0  0  0  0  0  0  0  0  0  0  0  0
  186.7540  177.7640  137.1640 C   0  0  0  0  0  0  0  0  0  0  0  0
  186.2620  177.8280  136.0650 C   0  0  0  0  0  0  0  0  0  0  0  0
  185.6600  177.9050  134.7320 C   0  0  0  0  0  2  0  0  0  0  0  0
  184.6070  176.9100  134.5970 N   0  0  0  0  0  2  0  0  0  0  0  0
  183.7000  177.2760  136.7210 O   0  0  0  0  0  0  0  0  0  0  0  0
  183.6530  176.6470  135.6290 C   0  0  0  0  0  0  0  0  0  0  0  0
  182.5900  175.6240  135.3920 C   0  0  2  0  0  3  0  0  0  0  0  0
  181.2350  176.2590  135.3710 C   0  0  0  0  0  0  0  0  0  0  0  0
  181.0110  177.2220  134.5940 O   0  0  0  0  0  0  0  0  0  0  0  0
  180.2280  175.8000  136.2100 O   0  0  0  0  0  1  0  0  0  0  0  0
  182.6690  174.5080  136.4270 C   0  0  0  0  0  2  0  0  0  0  0  0
  184.6170  172.5130  137.8120 O   0  0  0  0  0  1  0  0  0  0  0  0
  184.8130  172.9910  136.5150 C   0  0  2  0  0  3  0  0  0  0  0  0
  183.5060  173.3750  135.9240 C   0  0  0  0  0  0  0  0  0  0  0  0
  183.1660  172.6430  134.8790 C   0  0  0  0  0  3  0  0  0  0  0  0
  185.3030  171.8560  135.6220 C   0  0  1  0  0  3  0  0  0  0  0  0
  184.1990  171.6120  134.5940 C   0  0  0  0  0  2  0  0  0  0  0  0
  186.5850  172.2790  134.9240 C   0  0  0  0  0  2  0  0  0  0  0  0
  187.7020  172.2130  135.8520 N   0  0  0  0  0  1  0  0  0  0  0  0
  185.4860  178.8790  139.7070 C   0  0  0  0  0  2  0  0  0  0  0  0
  184.4460  177.9340  140.0810 N   0  0  0  0  0  2  0  0  0  0  0  0
  182.0310  177.6390  140.0760 C   0  0  0  0  0  1  0  0  0  0  0  0
  183.1770  178.6430  140.0640 C   0  0  2  0  0  3  0  0  0  0  0  0
  183.1010  179.4900  138.8060 C   0  0  0  0  0  2  0  0  0  0  0  0
  181.6550  179.7330  138.4040 C   0  0  0  0  0  2  0  0  0  0  0  0
  181.1480  181.4000  138.9220 S   0  0  0  0  0  0  0  0  0  0  0  0
  179.0420  179.7620  135.0780 F   0  0  0  0  0  0  0  0  0  0  0  0
  179.4810  181.2440  138.1790 C   0  0  1  0  0  3  0  0  0  0  0  0
  179.1180  182.4110  137.2700 C   0  0  2  0  0  3  0  0  0  0  0  0
  181.1430  180.1900  135.7720 F   0  0  0  0  0  0  0  0  0  0  0  0
  179.8020  180.4660  135.9910 C   0  0  0  0  0  0  0  0  0  0  0  0
  179.4950  181.9570  135.8620 C   0  0  2  0  0  3  0  0  0  0  0  0
  179.4430  180.0480  137.3460 N   0  0  0  0  0  2  0  0  0  0  0  0
  179.6640  183.7820  137.7160 C   0  0  0  0  0  2  0  0  0  0  0  0
  180.6140  182.7590  135.2350 C   0  0  0  0  0  3  0  0  0  0  0  0
  180.7790  184.0520  135.5370 C   0  0  0  0  0  3  0  0  0  0  0  0
  179.8590  184.7110  136.5200 C   0  0  0  0  0  2  0  0  0  0  0  0
  1  6  1  0  0  0  0
  1  4  2  0  0  0  0
  2  3  2  0  0  0  0
  3  5  1  0  0  0  0
  4 43  1  0  0  0  0
  4  3  1  0  0  0  0
  5  8  1  0  0  0  0
  6  2  1  0  0  0  0
  7 23  1  0  0  0  0
  7 10  1  0  0  0  0
  8  7  2  0  0  0  0
 10 13  1  0  0  0  0
 11 14  2  0  0  0  0
 12 10  2  0  0  0  0
 12 11  1  0  0  0  0
 13  9  2  0  0  0  0
 14  9  1  0  0  0  0
 16 17  1  0  0  0  0
 17 15  1  0  0  0  0
 18 15  1  0  0  0  0
 20 14  1  6  0  0  0
 20 21  1  0  0  0  0
 20 18  1  0  0  0  0
 21 19  1  6  0  0  0
 21 16  1  0  0  0  0
 22 23  1  0  0  0  0
 24  1  1  0  0  0  0
 25 24  3  0  0  0  0
 26 25  1  0  0  0  0
 27 26  1  0  0  0  0
 27 29  1  0  0  0  0
 29 28  2  0  0  0  0
 30 29  1  0  0  0  0
 30 34  1  1  0  0  0
 31 30  1  0  0  0  0
 31 33  1  0  0  0  0
 32 31  2  0  0  0  0
 36 35  1  1  0  0  0
 37 34  1  0  0  0  0
 37 36  1  0  0  0  0
 38 37  2  0  0  0  0
 39 41  1  6  0  0  0
 39 36  1  0  0  0  0
 40 38  1  0  0  0  0
 40 39  1  0  0  0  0
 41 42  1  0  0  0  0
 43 44  1  0  0  0  0
 46 45  1  6  0  0  0
 46 44  1  0  0  0  0
 47 46  1  0  0  0  0
 48 47  1  0  0  0  0
 48 49  1  0  0  0  0
 50 54  1  0  0  0  0
 51 49  1  6  0  0  0
 52 57  1  1  0  0  0
 52 51  1  0  0  0  0
 53 54  1  0  0  0  0
 54 56  1  0  0  0  0
 55 58  1  1  0  0  0
 55 54  1  0  0  0  0
 55 52  1  0  0  0  0
 56 51  1  0  0  0  0
 58 59  2  0  0  0  0
 59 60  1  0  0  0  0
 60 57  1  0  0  0  0
M  END
>  <MODEL>
5

>  <REMARK>
 VINA RESULT:      -4.0      3.381      6.284
  Name = 
  19 active torsions:
  status: ('A' for Active; 'I' for Inactive)
    1  A    between atoms: C_1  and  C_24
    2  A    between atoms: C_1  and  N_42
    3  A    between atoms: C_4  and  C_19
    4  A    between atoms: C_6  and  S_50
    5  A    between atoms: C_7  and  C_9
    6  A    between atoms: C_9  and  O_56
    7  A    between atoms: C_14  and  C_37
    8  A    between atoms: C_19  and  C_44
    9  A    between atoms: C_19  and  C_51
   10  A    between atoms: N_26  and  C_53
   11  A    between atoms: N_27  and  N_57
   12  A    between atoms: C_29  and  C_44
   13  A    between atoms: C_30  and  C_34
   14  A    between atoms: C_30  and  S_50
   15  A    between atoms: C_34  and  C_43
   16  A    between atoms: C_38  and  C_54
   17  A    between atoms: N_42  and  C_43
   18  A    between atoms: C_47  and  C_53
   19  A    between atoms: C_52  and  C_58
                            x       y       z     vdW  Elec       q    Type
                         _______ _______ _______ _____ _____    ______ ____

>  <TORSDO>
F 19

$$$$
=
 OpenBabel11042412243D

 60 65  0  0  1  0  0  0  0  0999 V2000
  189.1200  176.8780  142.0800 C   0  0  0  0  0  0  0  0  0  0  0  0
  187.1150  177.9090  141.5660 N   0  0  0  0  0  0  0  0  0  0  0  0
  187.8570  177.8230  140.5110 C   0  0  0  0  0  0  0  0  0  0  0  0
  189.1190  177.1720  140.7890 C   0  0  0  0  0  0  0  0  0  0  0  0
  187.4220  178.2170  139.2050 N   0  0  0  0  0  2  0  0  0  0  0  0
  187.8430  177.3410  142.6980 C   0  0  0  0  0  2  0  0  0  0  0  0
  185.1450  178.4420  138.5110 C   0  0  0  0  0  0  0  0  0  0  0  0
  186.2520  178.9570  138.9590 N   0  0  0  0  0  0  0  0  0  0  0  0
  181.9840  179.8780  136.9940 C   0  0  0  0  0  3  0  0  0  0  0  0
  184.0020  179.3520  138.2500 C   0  0  0  0  0  0  0  0  0  0  0  0
  182.8120  181.4380  138.6440 C   0  0  0  0  0  3  0  0  0  0  0  0
  183.8750  180.5750  138.9240 C   0  0  0  0  0  3  0  0  0  0  0  0
  183.0480  179.0180  137.2760 C   0  0  0  0  0  3  0  0  0  0  0  0
  181.8620  181.0940  137.6810 C   0  0  0  0  0  0  0  0  0  0  0  0
  179.4860  184.0920  138.2010 C   0  0  0  0  0  2  0  0  0  0  0  0
  180.0710  183.8780  135.7530 C   0  0  0  0  0  2  0  0  0  0  0  0
  178.9490  184.0940  136.7640 C   0  0  0  0  0  2  0  0  0  0  0  0
  180.7150  183.1950  138.3990 C   0  0  0  0  0  2  0  0  0  0  0  0
  180.1140  181.5660  135.1390 O   0  0  0  0  0  1  0  0  0  0  0  0
  180.7270  182.0290  137.4090 C   0  0  1  0  0  3  0  0  0  0  0  0
  180.7390  182.5130  135.9480 C   0  0  2  0  0  3  0  0  0  0  0  0
  185.0650  176.4100  137.0660 C   0  0  0  0  0  1  0  0  0  0  0  0
  185.0580  177.0530  138.3330 O   0  0  0  0  0  0  0  0  0  0  0  0
  190.1710  176.1900  142.7800 C   0  0  0  0  0  0  0  0  0  0  0  0
  191.0480  175.6110  143.3720 C   0  0  0  0  0  0  0  0  0  0  0  0
  192.1090  174.9070  144.0950 C   0  0  0  0  0  2  0  0  0  0  0  0
  191.9740  175.1250  145.5270 N   0  0  0  0  0  2  0  0  0  0  0  0
  191.8710  177.4570  145.3740 O   0  0  0  0  0  0  0  0  0  0  0  0
  191.8530  176.4280  146.1040 C   0  0  0  0  0  0  0  0  0  0  0  0
  191.6920  176.5550  147.5840 C   0  0  2  0  0  3  0  0  0  0  0  0
  192.8060  175.8610  148.3020 C   0  0  0  0  0  0  0  0  0  0  0  0
  192.8750  174.6060  148.2800 O   0  0  0  0  0  0  0  0  0  0  0  0
  193.7580  176.5920  149.0020 O   0  0  0  0  0  1  0  0  0  0  0  0
  190.3300  176.0350  148.0290 C   0  0  0  0  0  2  0  0  0  0  0  0
  189.4690  178.9770  148.5700 O   0  0  0  0  0  1  0  0  0  0  0  0
  188.5580  177.9600  148.2830 C   0  0  2  0  0  3  0  0  0  0  0  0
  189.2310  176.8980  147.4930 C   0  0  0  0  0  0  0  0  0  0  0  0
  188.7410  176.7580  146.2750 C   0  0  0  0  0  3  0  0  0  0  0  0
  187.4790  178.4900  147.3450 C   0  0  1  0  0  3  0  0  0  0  0  0
  187.6430  177.7300  146.0290 C   0  0  0  0  0  2  0  0  0  0  0  0
  186.1090  178.2130  147.9430 C   0  0  0  0  0  2  0  0  0  0  0  0
  185.1220  179.1050  147.3590 N   0  0  0  0  0  1  0  0  0  0  0  0
  190.1890  176.8510  139.8000 C   0  0  0  0  0  2  0  0  0  0  0  0
  189.9800  175.5140  139.2660 N   0  0  0  0  0  2  0  0  0  0  0  0
  189.1520  174.4510  137.2410 C   0  0  0  0  0  1  0  0  0  0  0  0
  189.9450  175.6180  137.8160 C   0  0  2  0  0  3  0  0  0  0  0  0
  191.3660  175.5800  137.2840 C   0  0  0  0  0  2  0  0  0  0  0  0
  191.4590  174.6990  136.0490 C   0  0  0  0  0  2  0  0  0  0  0  0
  192.6680  173.3730  136.3320 S   0  0  0  0  0  0  0  0  0  0  0  0
  196.0880  176.5600  136.1260 F   0  0  0  0  0  0  0  0  0  0  0  0
  193.7090  174.4050  137.4310 C   0  0  1  0  0  3  0  0  0  0  0  0
  195.0320  173.7450  137.7970 C   0  0  2  0  0  3  0  0  0  0  0  0
  195.0760  175.1090  134.7280 F   0  0  0  0  0  0  0  0  0  0  0  0
  195.3200  175.4140  136.0590 C   0  0  0  0  0  0  0  0  0  0  0  0
  196.0420  174.2790  136.7840 C   0  0  2  0  0  3  0  0  0  0  0  0
  194.0460  175.6440  136.7390 N   0  0  0  0  0  2  0  0  0  0  0  0
  194.9760  172.2140  137.9650 C   0  0  0  0  0  2  0  0  0  0  0  0
  196.6020  173.2220  135.8580 C   0  0  0  0  0  3  0  0  0  0  0  0
  196.7460  171.9580  136.2720 C   0  0  0  0  0  3  0  0  0  0  0  0
  196.3290  171.5780  137.6610 C   0  0  0  0  0  2  0  0  0  0  0  0
  1  6  1  0  0  0  0
  1 24  1  0  0  0  0
  2  6  1  0  0  0  0
  3  4  1  0  0  0  0
  3  2  2  0  0  0  0
  4  1  2  0  0  0  0
  5  3  1  0  0  0  0
  7  8  2  0  0  0  0
  8  5  1  0  0  0  0
  9 13  2  0  0  0  0
  9 14  1  0  0  0  0
 10  7  1  0  0  0  0
 10 12  2  0  0  0  0
 11 12  1  0  0  0  0
 13 10  1  0  0  0  0
 14 11  2  0  0  0  0
 15 18  1  0  0  0  0
 16 21  1  0  0  0  0
 16 17  1  0  0  0  0
 17 15  1  0  0  0  0
 20 14  1  1  0  0  0
 20 18  1  0  0  0  0
 21 19  1  6  0  0  0
 21 20  1  0  0  0  0
 22 23  1  0  0  0  0
 23  7  1  0  0  0  0
 24 25  3  0  0  0  0
 25 26  1  0  0  0  0
 26 27  1  0  0  0  0
 27 29  1  0  0  0  0
 28 29  2  0  0  0  0
 29 30  1  0  0  0  0
 30 34  1  1  0  0  0
 30 31  1  0  0  0  0
 31 33  1  0  0  0  0
 32 31  2  0  0  0  0
 36 35  1  6  0  0  0
 37 34  1  0  0  0  0
 37 36  1  0  0  0  0
 38 37  2  0  0  0  0
 39 41  1  1  0  0  0
 39 36  1  0  0  0  0
 40 38  1  0  0  0  0
 40 39  1  0  0  0  0
 42 41  1  0  0  0  0
 43  4  1  0  0  0  0
 44 43  1  0  0  0  0
 46 45  1  6  0  0  0
 46 44  1  0  0  0  0
 47 46  1  0  0  0  0
 48 49  1  0  0  0  0
 48 47  1  0  0  0  0
 51 49  1  6  0  0  0
 51 52  1  0  0  0  0
 52 57  1  6  0  0  0
 53 54  1  0  0  0  0
 54 50  1  0  0  0  0
 54 56  1  0  0  0  0
 54 55  1  0  0  0  0
 55 58  1  6  0  0  0
 55 52  1  0  0  0  0
 56 51  1  0  0  0  0
 58 59  2  0  0  0  0
 59 60  1  0  0  0  0
 60 57  1  0  0  0  0
M  END
>  <MODEL>
6

>  <REMARK>
 VINA RESULT:      -3.0      4.123     12.028
  Name = 
  19 active torsions:
  status: ('A' for Active; 'I' for Inactive)
    1  A    between atoms: C_1  and  C_24
    2  A    between atoms: C_1  and  N_42
    3  A    between atoms: C_4  and  C_19
    4  A    between atoms: C_6  and  S_50
    5  A    between atoms: C_7  and  C_9
    6  A    between atoms: C_9  and  O_56
    7  A    between atoms: C_14  and  C_37
    8  A    between atoms: C_19  and  C_44
    9  A    between atoms: C_19  and  C_51
   10  A    between atoms: N_26  and  C_53
   11  A    between atoms: N_27  and  N_57
   12  A    between atoms: C_29  and  C_44
   13  A    between atoms: C_30  and  C_34
   14  A    between atoms: C_30  and  S_50
   15  A    between atoms: C_34  and  C_43
   16  A    between atoms: C_38  and  C_54
   17  A    between atoms: N_42  and  C_43
   18  A    between atoms: C_47  and  C_53
   19  A    between atoms: C_52  and  C_58
                            x       y       z     vdW  Elec       q    Type
                         _______ _______ _______ _____ _____    ______ ____

>  <TORSDO>
F 19

$$$$
=
 OpenBabel11042412243D

 60 65  0  0  1  0  0  0  0  0999 V2000
  187.4330  177.6780  138.5680 C   0  0  0  0  0  0  0  0  0  0  0  0
  188.7990  177.2010  140.3720 N   0  0  0  0  0  0  0  0  0  0  0  0
  187.8040  177.9350  140.7470 C   0  0  0  0  0  0  0  0  0  0  0  0
  186.9170  178.2460  139.6470 C   0  0  0  0  0  0  0  0  0  0  0  0
  187.5520  178.2880  142.1120 N   0  0  0  0  0  2  0  0  0  0  0  0
  188.6960  176.9720  138.9320 C   0  0  0  0  0  2  0  0  0  0  0  0
  188.1460  177.7020  144.3530 C   0  0  0  0  0  0  0  0  0  0  0  0
  188.4740  178.0900  143.1550 N   0  0  0  0  0  0  0  0  0  0  0  0
  191.5740  177.7680  145.9660 C   0  0  0  0  0  3  0  0  0  0  0  0
  189.2210  177.5820  145.3700 C   0  0  0  0  0  0  0  0  0  0  0  0
  189.9810  176.9640  147.5970 C   0  0  0  0  0  3  0  0  0  0  0  0
  188.9540  177.1030  146.6600 C   0  0  0  0  0  3  0  0  0  0  0  0
  190.5450  177.9040  145.0320 C   0  0  0  0  0  3  0  0  0  0  0  0
  191.2940  177.2950  147.2560 C   0  0  0  0  0  0  0  0  0  0  0  0
  193.1670  177.8330  150.5890 C   0  0  0  0  0  2  0  0  0  0  0  0
  193.2840  175.3990  149.9240 C   0  0  0  0  0  2  0  0  0  0  0  0
  194.0680  176.6010  150.4410 C   0  0  0  0  0  2  0  0  0  0  0  0
  192.0140  177.8790  149.5770 C   0  0  0  0  0  2  0  0  0  0  0  0
  193.6130  175.2300  147.5600 O   0  0  0  0  0  1  0  0  0  0  0  0
  192.3730  177.1490  148.2810 C   0  0  1  0  0  3  0  0  0  0  0  0
  192.7110  175.6680  148.5280 C   0  0  2  0  0  3  0  0  0  0  0  0
  185.8620  178.2810  145.1700 C   0  0  0  0  0  1  0  0  0  0  0  0
  186.8100  177.3740  144.6250 O   0  0  0  0  0  0  0  0  0  0  0  0
  186.8550  177.7040  137.2520 C   0  0  0  0  0  0  0  0  0  0  0  0
  186.3730  177.7190  136.1470 C   0  0  0  0  0  0  0  0  0  0  0  0
  185.7880  177.7320  134.8030 C   0  0  0  0  0  2  0  0  0  0  0  0
  184.9820  176.5390  134.5940 N   0  0  0  0  0  2  0  0  0  0  0  0
  183.4100  177.0560  136.2470 O   0  0  0  0  0  0  0  0  0  0  0  0
  183.7980  176.2620  135.3470 C   0  0  0  0  0  0  0  0  0  0  0  0
  183.0190  175.0240  135.0450 C   0  0  2  0  0  3  0  0  0  0  0  0
  181.5540  175.3220  134.9690 C   0  0  0  0  0  0  0  0  0  0  0  0
  181.1570  176.5120  135.0450 O   0  0  0  0  0  1  0  0  0  0  0  0
  180.6320  174.2930  134.8260 O   0  0  0  0  0  0  0  0  0  0  0  0
  183.3150  173.9330  136.0670 C   0  0  0  0  0  2  0  0  0  0  0  0
  185.3240  172.7440  138.1270 O   0  0  0  0  0  1  0  0  0  0  0  0
  185.7120  173.5940  137.0910 C   0  0  2  0  0  3  0  0  0  0  0  0
  184.7410  173.4900  135.9720 C   0  0  0  0  0  0  0  0  0  0  0  0
  185.2660  173.0010  134.8640 C   0  0  0  0  0  3  0  0  0  0  0  0
  187.0230  173.0980  136.4900 C   0  0  1  0  0  3  0  0  0  0  0  0
  186.7040  172.6740  135.0560 C   0  0  0  0  0  2  0  0  0  0  0  0
  188.0370  174.2310  136.4870 C   0  0  0  0  0  2  0  0  0  0  0  0
  188.4230  174.5500  135.1230 N   0  0  0  0  0  1  0  0  0  0  0  0
  185.6420  179.0180  139.7250 C   0  0  0  0  0  2  0  0  0  0  0  0
  185.1430  179.0060  141.0910 N   0  0  0  0  0  2  0  0  0  0  0  0
  183.4650  177.8550  139.7590 C   0  0  0  0  0  1  0  0  0  0  0  0
  184.0450  178.0550  141.1530 C   0  0  2  0  0  3  0  0  0  0  0  0
  182.9720  178.6000  142.0790 C   0  0  0  0  0  2  0  0  0  0  0  0
  181.5850  178.3320  141.5170 C   0  0  0  0  0  2  0  0  0  0  0  0
  180.7330  179.9080  141.2130 S   0  0  0  0  0  0  0  0  0  0  0  0
  179.7720  176.4870  138.1680 F   0  0  0  0  0  0  0  0  0  0  0  0
  179.3070  179.1060  140.3890 C   0  0  1  0  0  3  0  0  0  0  0  0
  178.9740  179.7190  139.0350 C   0  0  2  0  0  3  0  0  0  0  0  0
  181.5860  177.6130  138.8920 F   0  0  0  0  0  0  0  0  0  0  0  0
  180.2030  177.6400  138.7940 C   0  0  0  0  0  0  0  0  0  0  0  0
  179.7090  178.8560  138.0110 C   0  0  2  0  0  3  0  0  0  0  0  0
  179.6300  177.7060  140.1380 N   0  0  0  0  0  2  0  0  0  0  0  0
  179.1980  181.2400  138.9330 C   0  0  0  0  0  2  0  0  0  0  0  0
  180.8010  179.5850  137.2610 C   0  0  0  0  0  3  0  0  0  0  0  0
  180.6990  180.8960  137.0110 C   0  0  0  0  0  3  0  0  0  0  0  0
  179.5020  181.6560  137.4960 C   0  0  0  0  0  2  0  0  0  0  0  0
  1  6  1  0  0  0  0
  1  4  2  0  0  0  0
  2  3  2  0  0  0  0
  3  5  1  0  0  0  0
  4 43  1  0  0  0  0
  4  3  1  0  0  0  0
  5  8  1  0  0  0  0
  6  2  1  0  0  0  0
  7 23  1  0  0  0  0
  7 10  1  0  0  0  0
  8  7  2  0  0  0  0
  9 14  1  0  0  0  0
 10 12  2  0  0  0  0
 12 11  1  0  0  0  0
 13 10  1  0  0  0  0
 13  9  2  0  0  0  0
 14 11  2  0  0  0  0
 16 17  1  0  0  0  0
 17 15  1  0  0  0  0
 18 15  1  0  0  0  0
 20 14  1  6  0  0  0
 20 21  1  0  0  0  0
 20 18  1  0  0  0  0
 21 19  1  6  0  0  0
 21 16  1  0  0  0  0
 23 22  1  0  0  0  0
 24  1  1  0  0  0  0
 25 24  3  0  0  0  0
 26 25  1  0  0  0  0
 27 26  1  0  0  0  0
 27 29  1  0  0  0  0
 29 28  2  0  0  0  0
 30 29  1  0  0  0  0
 30 34  1  1  0  0  0
 31 30  1  0  0  0  0
 31 32  1  0  0  0  0
 33 31  2  0  0  0  0
 36 35  1  1  0  0  0
 37 34  1  0  0  0  0
 37 36  1  0  0  0  0
 38 40  1  0  0  0  0
 38 37  2  0  0  0  0
 39 41  1  6  0  0  0
 39 36  1  0  0  0  0
 40 39  1  0  0  0  0
 42 41  1  0  0  0  0
 43 44  1  0  0  0  0
 44 46  1  0  0  0  0
 46 45  1  6  0  0  0
 46 47  1  0  0  0  0
 48 47  1  0  0  0  0
 49 48  1  0  0  0  0
 50 54  1  0  0  0  0
 51 49  1  6  0  0  0
 52 57  1  1  0  0  0
 52 51  1  0  0  0  0
 54 53  1  0  0  0  0
 54 56  1  0  0  0  0
 55 58  1  1  0  0  0
 55 54  1  0  0  0  0
 55 52  1  0  0  0  0
 56 51  1  0  0  0  0
 59 58  2  0  0  0  0
 59 60  1  0  0  0  0
 60 57  1  0  0  0  0
M  END
>  <MODEL>
7

>  <REMARK>
 VINA RESULT:      -2.9      2.879      6.026
  Name = 
  19 active torsions:
  status: ('A' for Active; 'I' for Inactive)
    1  A    between atoms: C_1  and  C_24
    2  A    between atoms: C_1  and  N_42
    3  A    between atoms: C_4  and  C_19
    4  A    between atoms: C_6  and  S_50
    5  A    between atoms: C_7  and  C_9
    6  A    between atoms: C_9  and  O_56
    7  A    between atoms: C_14  and  C_37
    8  A    between atoms: C_19  and  C_44
    9  A    between atoms: C_19  and  C_51
   10  A    between atoms: N_26  and  C_53
   11  A    between atoms: N_27  and  N_57
   12  A    between atoms: C_29  and  C_44
   13  A    between atoms: C_30  and  C_34
   14  A    between atoms: C_30  and  S_50
   15  A    between atoms: C_34  and  C_43
   16  A    between atoms: C_38  and  C_54
   17  A    between atoms: N_42  and  C_43
   18  A    between atoms: C_47  and  C_53
   19  A    between atoms: C_52  and  C_58
                            x       y       z     vdW  Elec       q    Type
                         _______ _______ _______ _____ _____    ______ ____

>  <TORSDO>
F 19

$$$$
=
 OpenBabel11042412243D

 60 65  0  0  1  0  0  0  0  0999 V2000
  187.1600  177.8480  138.4510 C   0  0  0  0  0  0  0  0  0  0  0  0
  188.6050  177.3650  140.1920 N   0  0  0  0  0  0  0  0  0  0  0  0
  187.5080  177.8760  140.6490 C   0  0  0  0  0  0  0  0  0  0  0  0
  186.5720  178.1810  139.5890 C   0  0  0  0  0  0  0  0  0  0  0  0
  187.2180  178.0030  142.0450 N   0  0  0  0  0  2  0  0  0  0  0  0
  188.5240  177.3120  138.7340 C   0  0  0  0  0  2  0  0  0  0  0  0
  187.8710  177.5870  144.3070 C   0  0  0  0  0  0  0  0  0  0  0  0
  188.1700  177.8210  143.0630 N   0  0  0  0  0  0  0  0  0  0  0  0
  189.7400  176.9770  147.5460 C   0  0  0  0  0  3  0  0  0  0  0  0
  188.9810  177.4650  145.2850 C   0  0  0  0  0  0  0  0  0  0  0  0
  191.3300  177.7000  145.8750 C   0  0  0  0  0  3  0  0  0  0  0  0
  190.3000  177.7880  144.9350 C   0  0  0  0  0  3  0  0  0  0  0  0
  188.7130  177.0670  146.6040 C   0  0  0  0  0  3  0  0  0  0  0  0
  191.0570  177.2950  147.1830 C   0  0  0  0  0  0  0  0  0  0  0  0
  193.0950  178.0260  150.3790 C   0  0  0  0  0  2  0  0  0  0  0  0
  193.1270  175.5470  149.8920 C   0  0  0  0  0  2  0  0  0  0  0  0
  193.9610  176.7630  150.2830 C   0  0  0  0  0  2  0  0  0  0  0  0
  191.8970  178.0280  149.4190 C   0  0  0  0  0  2  0  0  0  0  0  0
  193.3410  175.1980  147.5340 O   0  0  0  0  0  1  0  0  0  0  0  0
  192.1790  177.1960  148.1670 C   0  0  1  0  0  3  0  0  0  0  0  0
  192.4950  175.7280  148.5070 C   0  0  2  0  0  3  0  0  0  0  0  0
  185.8900  178.1240  145.7250 C   0  0  0  0  0  1  0  0  0  0  0  0
  186.5260  177.4180  144.6680 O   0  0  0  0  0  0  0  0  0  0  0  0
  186.5720  177.9520  137.1430 C   0  0  0  0  0  0  0  0  0  0  0  0
  186.0730  178.0370  136.0490 C   0  0  0  0  0  0  0  0  0  0  0  0
  185.4620  178.1400  134.7210 C   0  0  0  0  0  2  0  0  0  0  0  0
  184.3680  177.1880  134.5960 N   0  0  0  0  0  2  0  0  0  0  0  0
  183.3160  177.8160  136.5890 O   0  0  0  0  0  0  0  0  0  0  0  0
  183.3210  177.0800  135.5640 C   0  0  0  0  0  0  0  0  0  0  0  0
  182.2240  176.0910  135.3400 C   0  0  2  0  0  3  0  0  0  0  0  0
  180.8870  176.7130  135.5910 C   0  0  0  0  0  0  0  0  0  0  0  0
  180.2730  177.2710  134.6460 O   0  0  0  0  0  0  0  0  0  0  0  0
  180.3250  176.6880  136.8610 O   0  0  0  0  0  1  0  0  0  0  0  0
  182.4320  174.8460  136.1940 C   0  0  0  0  0  2  0  0  0  0  0  0
  180.3190  173.6760  138.1580 O   0  0  0  0  0  1  0  0  0  0  0  0
  180.8420  172.9520  137.0850 C   0  0  2  0  0  3  0  0  0  0  0  0
  181.2940  173.8900  136.0260 C   0  0  0  0  0  0  0  0  0  0  0  0
  180.6160  173.7760  134.8990 C   0  0  0  0  0  3  0  0  0  0  0  0
  179.7290  172.1510  136.4190 C   0  0  1  0  0  3  0  0  0  0  0  0
  179.5640  172.7310  135.0150 C   0  0  0  0  0  2  0  0  0  0  0  0
  180.1380  170.6890  136.3380 C   0  0  0  0  0  2  0  0  0  0  0  0
  179.1090  169.9220  135.6580 N   0  0  0  0  0  1  0  0  0  0  0  0
  185.1910  178.7220  139.7530 C   0  0  0  0  0  2  0  0  0  0  0  0
  184.2540  177.6270  139.9470 N   0  0  0  0  0  2  0  0  0  0  0  0
  181.9540  177.1140  139.3440 C   0  0  0  0  0  1  0  0  0  0  0  0
  182.9100  178.1760  139.8720 C   0  0  2  0  0  3  0  0  0  0  0  0
  182.9150  179.3700  138.9330 C   0  0  0  0  0  2  0  0  0  0  0  0
  181.5310  179.6080  138.3510 C   0  0  0  0  0  2  0  0  0  0  0  0
  180.7620  181.0380  139.1670 S   0  0  0  0  0  0  0  0  0  0  0  0
  180.5920  182.0470  134.6010 F   0  0  0  0  0  0  0  0  0  0  0  0
  179.5490  181.2960  137.8190 C   0  0  1  0  0  3  0  0  0  0  0  0
  179.1500  182.7550  137.6430 C   0  0  2  0  0  3  0  0  0  0  0  0
  182.1260  182.0540  136.2530 F   0  0  0  0  0  0  0  0  0  0  0  0
  180.7690  182.0660  135.9710 C   0  0  0  0  0  0  0  0  0  0  0  0
  180.0730  183.2960  136.5530 C   0  0  2  0  0  3  0  0  0  0  0  0
  180.1480  180.8780  136.5570 N   0  0  0  0  0  2  0  0  0  0  0  0
  179.0760  183.5750  138.9460 C   0  0  0  0  0  2  0  0  0  0  0  0
  181.0280  184.3680  137.0310 C   0  0  0  0  0  3  0  0  0  0  0  0
  180.6810  185.1980  138.0210 C   0  0  0  0  0  3  0  0  0  0  0  0
  179.3420  185.0550  138.6790 C   0  0  0  0  0  2  0  0  0  0  0  0
  1  6  1  0  0  0  0
  1  4  2  0  0  0  0
  2  3  2  0  0  0  0
  3  5  1  0  0  0  0
  4 43  1  0  0  0  0
  4  3  1  0  0  0  0
  5  8  1  0  0  0  0
  6  2  1  0  0  0  0
  7 23  1  0  0  0  0
  7 10  1  0  0  0  0
  8  7  2  0  0  0  0
 10 13  1  0  0  0  0
 11 14  2  0  0  0  0
 12 10  2  0  0  0  0
 12 11  1  0  0  0  0
 13  9  2  0  0  0  0
 14  9  1  0  0  0  0
 16 17  1  0  0  0  0
 17 15  1  0  0  0  0
 18 15  1  0  0  0  0
 20 14  1  6  0  0  0
 20 21  1  0  0  0  0
 20 18  1  0  0  0  0
 21 19  1  6  0  0  0
 21 16  1  0  0  0  0
 23 22  1  0  0  0  0
 24  1  1  0  0  0  0
 25 24  3  0  0  0  0
 26 25  1  0  0  0  0
 27 26  1  0  0  0  0
 27 29  1  0  0  0  0
 29 28  2  0  0  0  0
 30 29  1  0  0  0  0
 30 31  1  0  0  0  0
 30 34  1  1  0  0  0
 31 33  1  0  0  0  0
 32 31  2  0  0  0  0
 36 35  1  1  0  0  0
 37 34  1  0  0  0  0
 37 36  1  0  0  0  0
 38 40  1  0  0  0  0
 38 37  2  0  0  0  0
 39 41  1  6  0  0  0
 39 36  1  0  0  0  0
 40 39  1  0  0  0  0
 42 41  1  0  0  0  0
 43 44  1  0  0  0  0
 46 45  1  6  0  0  0
 46 44  1  0  0  0  0
 47 46  1  0  0  0  0
 48 47  1  0  0  0  0
 48 49  1  0  0  0  0
 50 54  1  0  0  0  0
 51 49  1  1  0  0  0
 52 51  1  0  0  0  0
 52 57  1  1  0  0  0
 54 53  1  0  0  0  0
 54 55  1  0  0  0  0
 54 56  1  0  0  0  0
 55 58  1  1  0  0  0
 55 52  1  0  0  0  0
 56 51  1  0  0  0  0
 58 59  2  0  0  0  0
 59 60  1  0  0  0  0
 60 57  1  0  0  0  0
M  END
>  <MODEL>
8

>  <REMARK>
 VINA RESULT:      -2.6      3.475      6.309
  Name = 
  19 active torsions:
  status: ('A' for Active; 'I' for Inactive)
    1  A    between atoms: C_1  and  C_24
    2  A    between atoms: C_1  and  N_42
    3  A    between atoms: C_4  and  C_19
    4  A    between atoms: C_6  and  S_50
    5  A    between atoms: C_7  and  C_9
    6  A    between atoms: C_9  and  O_56
    7  A    between atoms: C_14  and  C_37
    8  A    between atoms: C_19  and  C_44
    9  A    between atoms: C_19  and  C_51
   10  A    between atoms: N_26  and  C_53
   11  A    between atoms: N_27  and  N_57
   12  A    between atoms: C_29  and  C_44
   13  A    between atoms: C_30  and  C_34
   14  A    between atoms: C_30  and  S_50
   15  A    between atoms: C_34  and  C_43
   16  A    between atoms: C_38  and  C_54
   17  A    between atoms: N_42  and  C_43
   18  A    between atoms: C_47  and  C_53
   19  A    between atoms: C_52  and  C_58
                            x       y       z     vdW  Elec       q    Type
                         _______ _______ _______ _____ _____    ______ ____

>  <TORSDO>
F 19

$$$$
=
 OpenBabel11042412243D

 60 65  0  0  1  0  0  0  0  0999 V2000
  186.9520  177.8780  138.9630 C   0  0  0  0  0  0  0  0  0  0  0  0
  188.4100  177.2970  140.6620 N   0  0  0  0  0  0  0  0  0  0  0  0
  187.4230  177.9850  141.1350 C   0  0  0  0  0  0  0  0  0  0  0  0
  186.4800  178.3580  140.1040 C   0  0  0  0  0  0  0  0  0  0  0  0
  187.2320  178.2340  142.5320 N   0  0  0  0  0  2  0  0  0  0  0  0
  188.2420  177.1710  139.2160 C   0  0  0  0  0  2  0  0  0  0  0  0
  187.9830  178.0380  144.7940 C   0  0  0  0  0  0  0  0  0  0  0  0
  188.2060  177.9780  143.5140 N   0  0  0  0  0  0  0  0  0  0  0  0
  190.0060  177.7350  147.9840 C   0  0  0  0  0  3  0  0  0  0  0  0
  189.1190  177.7920  145.7170 C   0  0  0  0  0  0  0  0  0  0  0  0
  191.4630  177.2700  146.1120 C   0  0  0  0  0  3  0  0  0  0  0  0
  190.3940  177.4670  145.2330 C   0  0  0  0  0  3  0  0  0  0  0  0
  188.9400  177.9320  147.1020 C   0  0  0  0  0  3  0  0  0  0  0  0
  191.2750  177.4020  147.4890 C   0  0  0  0  0  0  0  0  0  0  0  0
  193.4740  177.7690  150.6400 C   0  0  0  0  0  2  0  0  0  0  0  0
  193.3770  175.3430  149.9410 C   0  0  0  0  0  2  0  0  0  0  0  0
  194.2790  176.4860  150.3980 C   0  0  0  0  0  2  0  0  0  0  0  0
  192.2390  177.9020  149.7390 C   0  0  0  0  0  2  0  0  0  0  0  0
  193.4780  175.1930  147.5550 O   0  0  0  0  0  1  0  0  0  0  0  0
  192.4320  177.1730  148.4090 C   0  0  1  0  0  3  0  0  0  0  0  0
  192.6980  175.6700  148.6070 C   0  0  2  0  0  3  0  0  0  0  0  0
  185.7480  177.2730  145.5960 C   0  0  0  0  0  1  0  0  0  0  0  0
  186.6800  178.2890  145.2520 O   0  0  0  0  0  0  0  0  0  0  0  0
  186.3120  177.9880  137.6810 C   0  0  0  0  0  0  0  0  0  0  0  0
  185.7690  178.0820  136.6080 C   0  0  0  0  0  0  0  0  0  0  0  0
  185.1060  178.2000  135.3070 C   0  0  0  0  0  2  0  0  0  0  0  0
  184.6270  176.8990  134.8660 N   0  0  0  0  0  2  0  0  0  0  0  0
  184.5890  175.9540  137.0060 O   0  0  0  0  0  0  0  0  0  0  0  0
  184.3830  175.8170  135.7690 C   0  0  0  0  0  0  0  0  0  0  0  0
  183.8670  174.5230  135.2290 C   0  0  2  0  0  3  0  0  0  0  0  0
  183.1630  173.7440  136.2950 C   0  0  0  0  0  0  0  0  0  0  0  0
  182.4400  172.7660  135.9760 O   0  0  0  0  0  0  0  0  0  0  0  0
  183.2930  174.1000  137.6310 O   0  0  0  0  0  1  0  0  0  0  0  0
  184.9920  173.7130  134.5940 C   0  0  0  0  0  2  0  0  0  0  0  0
  187.4490  175.4120  135.4680 O   0  0  0  0  0  1  0  0  0  0  0  0
  187.4760  174.0190  135.3960 C   0  0  2  0  0  3  0  0  0  0  0  0
  186.1000  173.4860  135.5720 C   0  0  0  0  0  0  0  0  0  0  0  0
  185.9550  172.7540  136.6610 C   0  0  0  0  0  3  0  0  0  0  0  0
  188.2430  173.4610  136.5900 C   0  0  1  0  0  3  0  0  0  0  0  0
  187.2280  172.6800  137.4260 C   0  0  0  0  0  2  0  0  0  0  0  0
  189.3400  172.5320  136.0970 C   0  0  0  0  0  2  0  0  0  0  0  0
  190.4000  173.3030  135.4700 N   0  0  0  0  0  1  0  0  0  0  0  0
  185.2000  179.0990  140.2970 C   0  0  0  0  0  2  0  0  0  0  0  0
  184.1720  178.1880  140.7730 N   0  0  0  0  0  2  0  0  0  0  0  0
  183.5150  178.6300  143.0730 C   0  0  0  0  0  1  0  0  0  0  0  0
  183.2560  178.9500  141.6060 C   0  0  2  0  0  3  0  0  0  0  0  0
  181.8300  178.5730  141.2460 C   0  0  0  0  0  2  0  0  0  0  0  0
  181.1200  179.7310  140.5640 C   0  0  0  0  0  2  0  0  0  0  0  0
  180.1590  179.1120  139.1510 S   0  0  0  0  0  0  0  0  0  0  0  0
  180.7130  181.4690  135.1460 F   0  0  0  0  0  0  0  0  0  0  0  0
  181.4570  179.5500  137.9340 C   0  0  1  0  0  3  0  0  0  0  0  0
  181.5550  178.5620  136.7800 C   0  0  2  0  0  3  0  0  0  0  0  0
  179.0080  180.7200  136.4170 F   0  0  0  0  0  0  0  0  0  0  0  0
  180.3570  180.5700  136.1320 C   0  0  0  0  0  0  0  0  0  0  0  0
  180.6910  179.1530  135.6690 C   0  0  2  0  0  3  0  0  0  0  0  0
  181.1340  180.8430  137.3410 N   0  0  0  0  0  2  0  0  0  0  0  0
  181.2800  177.0920  137.1520 C   0  0  0  0  0  2  0  0  0  0  0  0
  179.4750  178.3200  135.3260 C   0  0  0  0  0  3  0  0  0  0  0  0
  179.5030  176.9890  135.4500 C   0  0  0  0  0  3  0  0  0  0  0  0
  180.7420  176.3130  135.9540 C   0  0  0  0  0  2  0  0  0  0  0  0
  1  6  1  0  0  0  0
  1  4  2  0  0  0  0
  2  3  2  0  0  0  0
  3  5  1  0  0  0  0
  4 43  1  0  0  0  0
  4  3  1  0  0  0  0
  5  8  1  0  0  0  0
  6  2  1  0  0  0  0
  7 23  1  0  0  0  0
  7 10  1  0  0  0  0
  8  7  2  0  0  0  0
 10 13  1  0  0  0  0
 11 14  2  0  0  0  0
 12 10  2  0  0  0  0
 12 11  1  0  0  0  0
 13  9  2  0  0  0  0
 14  9  1  0  0  0  0
 16 17  1  0  0  0  0
 17 15  1  0  0  0  0
 18 15  1  0  0  0  0
 20 14  1  6  0  0  0
 20 21  1  0  0  0  0
 20 18  1  0  0  0  0
 21 19  1  6  0  0  0
 21 16  1  0  0  0  0
 23 22  1  0  0  0  0
 24  1  1  0  0  0  0
 25 24  3  0  0  0  0
 26 25  1  0  0  0  0
 27 26  1  0  0  0  0
 27 29  1  0  0  0  0
 29 28  2  0  0  0  0
 30 34  1  1  0  0  0
 30 29  1  0  0  0  0
 30 31  1  0  0  0  0
 31 33  1  0  0  0  0
 32 31  2  0  0  0  0
 34 37  1  0  0  0  0
 36 35  1  1  0  0  0
 36 37  1  0  0  0  0
 36 39  1  0  0  0  0
 37 38  2  0  0  0  0
 38 40  1  0  0  0  0
 39 41  1  6  0  0  0
 39 40  1  0  0  0  0
 42 41  1  0  0  0  0
 43 44  1  0  0  0  0
 44 46  1  0  0  0  0
 46 45  1  1  0  0  0
 47 46  1  0  0  0  0
 48 47  1  0  0  0  0
 49 48  1  0  0  0  0
 50 54  1  0  0  0  0
 51 49  1  1  0  0  0
 52 57  1  1  0  0  0
 52 51  1  0  0  0  0
 54 53  1  0  0  0  0
 54 56  1  0  0  0  0
 55 58  1  1  0  0  0
 55 54  1  0  0  0  0
 55 52  1  0  0  0  0
 56 51  1  0  0  0  0
 58 59  2  0  0  0  0
 59 60  1  0  0  0  0
 60 57  1  0  0  0  0
M  END
>  <MODEL>
9

>  <REMARK>
 VINA RESULT:      -1.8      3.358      6.266
  Name = 
  19 active torsions:
  status: ('A' for Active; 'I' for Inactive)
    1  A    between atoms: C_1  and  C_24
    2  A    between atoms: C_1  and  N_42
    3  A    between atoms: C_4  and  C_19
    4  A    between atoms: C_6  and  S_50
    5  A    between atoms: C_7  and  C_9
    6  A    between atoms: C_9  and  O_56
    7  A    between atoms: C_14  and  C_37
    8  A    between atoms: C_19  and  C_44
    9  A    between atoms: C_19  and  C_51
   10  A    between atoms: N_26  and  C_53
   11  A    between atoms: N_27  and  N_57
   12  A    between atoms: C_29  and  C_44
   13  A    between atoms: C_30  and  C_34
   14  A    between atoms: C_30  and  S_50
   15  A    between atoms: C_34  and  C_43
   16  A    between atoms: C_38  and  C_54
   17  A    between atoms: N_42  and  C_43
   18  A    between atoms: C_47  and  C_53
   19  A    between atoms: C_52  and  C_58
                            x       y       z     vdW  Elec       q    Type
                         _______ _______ _______ _____ _____    ______ ____

>  <TORSDO>
F 19

$$$$
