=
 OpenBabel11032420453D

 47 53  0  0  1  0  0  0  0  0999 V2000
  185.4780  179.4210  142.8700 C   0  0  1  0  0  3  0  0  0  0  0  0
  184.1850  178.7430  142.7540 C   0  0  2  0  0  0  0  0  0  0  0  0
  185.3200  178.0480  143.3990 N   0  0  0  0  0  0  0  0  0  0  0  0
  186.0460  179.4270  141.4430 C   0  0  2  0  0  3  0  0  0  0  0  0
  184.0110  178.4690  141.3040 C   0  0  0  0  0  0  0  0  0  0  0  0
  183.1060  179.4290  143.5900 C   0  0  0  0  0  1  0  0  0  0  0  0
  185.0270  178.8280  140.6000 N   0  0  0  0  0  0  0  0  0  0  0  0
  180.6520  176.4720  139.6240 C   0  0  0  0  0  3  0  0  0  0  0  0
  183.0390  176.6930  139.8420 C   0  0  0  0  0  3  0  0  0  0  0  0
  182.8530  177.7730  140.7150 C   0  0  0  0  0  0  0  0  0  0  0  0
  181.9410  176.0350  139.2870 C   0  0  0  0  0  0  0  0  0  0  0  0
  181.5470  178.1710  141.0180 C   0  0  0  0  0  3  0  0  0  0  0  0
  180.4850  177.5190  140.4740 N   0  0  0  0  0  0  0  0  0  0  0  0
  182.1600  174.9630  138.4110 O   0  0  0  0  0  0  0  0  0  0  0  0
  183.2710  174.8750  137.5200 C   0  0  0  0  0  0  0  0  0  0  0  0
  183.6500  176.1400  137.1100 F   0  0  0  0  0  0  0  0  0  0  0  0
  182.9360  174.1060  136.4190 F   0  0  0  0  0  0  0  0  0  0  0  0
  184.3310  174.2810  138.1790 F   0  0  0  0  0  0  0  0  0  0  0  0
  185.2180  178.1660  144.7920 N   0  0  0  0  0  2  0  0  0  0  0  0
  186.1320  177.2540  145.3480 N   0  0  0  0  0  2  0  0  0  0  0  0
  189.2480  176.8510  146.1670 C   0  0  2  0  0  3  0  0  0  0  0  0
  188.1410  177.7340  146.7360 C   0  0  0  0  0  2  0  0  0  0  0  0
  190.5610  177.6420  146.2740 C   0  0  0  0  0  2  0  0  0  0  0  0
  188.5280  176.8680  144.8030 C   0  0  1  0  0  3  0  0  0  0  0  0
  191.3060  177.7720  144.9560 C   0  0  0  0  0  2  0  0  0  0  0  0
  187.4860  177.8240  145.3610 C   0  0  1  0  0  3  0  0  0  0  0  0
  189.2880  177.4340  143.5930 C   0  0  0  0  0  2  0  0  0  0  0  0
  190.3800  178.4240  143.9510 C   0  0  0  0  0  2  0  0  0  0  0  0
  187.3490  178.6450  141.3530 C   0  0  0  0  0  2  0  0  0  0  0  0
  188.7300  177.1790  139.9240 C   0  0  0  0  0  2  0  0  0  0  0  0
  188.9050  178.6020  139.4390 C   0  0  2  0  0  3  0  0  0  0  0  0
  187.5520  178.1290  139.9440 C   0  0  2  0  0  3  0  0  0  0  0  0
  188.8010  177.4540  137.1830 N   0  0  0  0  0  2  0  0  0  0  0  0
  188.8830  178.6600  137.9480 C   0  0  0  0  0  0  0  0  0  0  0  0
  188.9710  179.7760  137.3680 O   0  0  0  0  0  0  0  0  0  0  0  0
  186.7270  172.7830  136.1580 C   0  0  0  0  0  2  0  0  0  0  0  0
  189.8100  176.3560  135.1660 C   0  0  0  0  0  2  0  0  0  0  0  0
  188.8800  177.4520  135.7260 C   0  0  1  0  0  3  0  0  0  0  0  0
  191.1750  173.5670  134.5950 O   0  0  0  0  0  1  0  0  0  0  0  0
  186.9500  175.1680  135.7570 C   0  0  0  0  0  3  0  0  0  0  0  0
  190.0030  175.1720  136.1170 C   0  0  0  0  0  2  0  0  0  0  0  0
  190.0650  173.8830  135.3680 C   0  0  0  0  0  0  0  0  0  0  0  0
  187.5020  177.4550  135.1080 C   0  0  0  0  0  3  0  0  0  0  0  0
  188.0020  172.2850  135.5290 C   0  0  0  0  0  3  0  0  0  0  0  0
  186.6370  176.4390  135.1160 C   0  0  0  0  0  3  0  0  0  0  0  0
  186.2600  174.0620  135.5290 C   0  0  0  0  0  3  0  0  0  0  0  0
  189.0600  173.0520  135.4480 C   0  0  0  0  0  0  0  0  0  0  0  0
  1  3  1  1  0  0  0
  2  1  1  0  0  0  0
  2  3  1  0  0  0  0
  2  6  1  1  0  0  0
  3 19  1  0  0  0  0
  4 29  1  1  0  0  0
  4  1  1  0  0  0  0
  5  2  1  0  0  0  0
  7  5  2  0  0  0  0
  7  4  1  0  0  0  0
  8 13  1  0  0  0  0
  9 10  2  0  0  0  0
 10 12  1  0  0  0  0
 10  5  1  0  0  0  0
 11  8  2  0  0  0  0
 11  9  1  0  0  0  0
 13 12  2  0  0  0  0
 14 11  1  0  0  0  0
 15 18  1  0  0  0  0
 15 14  1  0  0  0  0
 16 15  1  0  0  0  0
 17 15  1  0  0  0  0
 19 20  1  0  0  0  0
 21 23  1  6  0  0  0
 21 22  1  0  0  0  0
 24 27  1  6  0  0  0
 24 26  1  0  0  0  0
 24 21  1  0  0  0  0
 25 23  1  0  0  0  0
 26 20  1  1  0  0  0
 26 22  1  0  0  0  0
 27 28  1  0  0  0  0
 28 25  1  0  0  0  0
 30 32  1  0  0  0  0
 31 34  1  6  0  0  0
 31 30  1  0  0  0  0
 31 32  1  0  0  0  0
 32 29  1  1  0  0  0
 33 34  1  0  0  0  0
 35 34  2  0  0  0  0
 37 38  1  0  0  0  0
 37 41  1  0  0  0  0
 38 33  1  1  0  0  0
 39 42  1  0  0  0  0
 42 47  2  0  0  0  0
 42 41  1  0  0  0  0
 43 45  2  0  0  0  0
 43 38  1  0  0  0  0
 44 36  1  0  0  0  0
 45 40  1  0  0  0  0
 46 40  2  0  0  0  0
 46 36  1  0  0  0  0
 47 44  2  0  0  0  0
M  END
>  <MODEL>
1

>  <REMARK>
 VINA RESULT:      -8.5      0.000      0.000
  Name = 
  10 active torsions:
  status: ('A' for Active; 'I' for Inactive)
    1  A    between atoms: N_3  and  C_5
    2  A    between atoms: C_6  and  C_38
    3  A    between atoms: C_12  and  O_18
    4  A    between atoms: N_16  and  N_24
    5  A    between atoms: N_16  and  N_32
    6  A    between atoms: O_18  and  C_41
    7  A    between atoms: C_21  and  C_26
    8  A    between atoms: C_21  and  C_45
    9  A    between atoms: C_27  and  N_32
   10  A    between atoms: C_29  and  C_39
                            x       y       z     vdW  Elec       q    Type
                         _______ _______ _______ _____ _____    ______ ____

>  <TORSDO>
F 10

$$$$
=
 OpenBabel11032420453D

 47 53  0  0  1  0  0  0  0  0999 V2000
  190.2460  177.6680  138.3990 C   0  0  1  0  0  3  0  0  0  0  0  0
  189.8980  177.3870  139.7940 C   0  0  2  0  0  0  0  0  0  0  0  0
  189.8790  176.2920  138.7990 N   0  0  0  0  0  0  0  0  0  0  0  0
  189.0430  178.4480  137.8450 C   0  0  2  0  0  3  0  0  0  0  0  0
  188.5950  178.0640  140.0200 C   0  0  0  0  0  0  0  0  0  0  0  0
  191.0910  177.5800  140.7270 C   0  0  0  0  0  1  0  0  0  0  0  0
  188.1300  178.6250  138.9600 N   0  0  0  0  0  0  0  0  0  0  0  0
  186.4080  177.9990  143.6680 C   0  0  0  0  0  3  0  0  0  0  0  0
  188.3860  177.4220  142.4240 C   0  0  0  0  0  3  0  0  0  0  0  0
  187.8430  178.0340  141.2880 C   0  0  0  0  0  0  0  0  0  0  0  0
  187.6730  177.3970  143.6240 C   0  0  0  0  0  0  0  0  0  0  0  0
  186.5760  178.6200  141.3840 C   0  0  0  0  0  3  0  0  0  0  0  0
  185.8930  178.5920  142.5590 N   0  0  0  0  0  0  0  0  0  0  0  0
  188.2410  176.7690  144.7410 O   0  0  0  0  0  0  0  0  0  0  0  0
  188.8650  177.4660  145.8170 C   0  0  0  0  0  0  0  0  0  0  0  0
  189.6750  176.6030  146.5330 F   0  0  0  0  0  0  0  0  0  0  0  0
  187.9030  178.0080  146.6520 F   0  0  0  0  0  0  0  0  0  0  0  0
  189.6420  178.4870  145.3020 F   0  0  0  0  0  0  0  0  0  0  0  0
  191.0750  175.5650  138.8730 N   0  0  0  0  0  2  0  0  0  0  0  0
  190.9630  174.4990  137.9620 N   0  0  0  0  0  2  0  0  0  0  0  0
  193.3620  176.1030  136.4770 C   0  0  2  0  0  3  0  0  0  0  0  0
  192.1160  175.3980  135.9500 C   0  0  0  0  0  2  0  0  0  0  0  0
  194.4810  175.8820  135.4470 C   0  0  0  0  0  2  0  0  0  0  0  0
  193.3430  175.1690  137.7040 C   0  0  1  0  0  3  0  0  0  0  0  0
  195.7450  175.2800  136.0360 C   0  0  0  0  0  2  0  0  0  0  0  0
  192.1610  174.4160  137.1160 C   0  0  1  0  0  3  0  0  0  0  0  0
  194.5710  174.2780  137.9500 C   0  0  0  0  0  2  0  0  0  0  0  0
  195.3790  173.9710  136.7030 C   0  0  0  0  0  2  0  0  0  0  0  0
  188.3660  177.7000  136.7050 C   0  0  0  0  0  2  0  0  0  0  0  0
  187.7440  175.3260  136.4290 C   0  0  0  0  0  2  0  0  0  0  0  0
  186.5050  176.1640  136.1940 C   0  0  2  0  0  3  0  0  0  0  0  0
  187.5140  176.5750  137.2530 C   0  0  2  0  0  3  0  0  0  0  0  0
  184.2050  176.3630  137.2380 N   0  0  0  0  0  2  0  0  0  0  0  0
  185.3170  175.5480  136.8550 C   0  0  0  0  0  0  0  0  0  0  0  0
  185.3150  174.3130  137.1020 O   0  0  0  0  0  0  0  0  0  0  0  0
  181.1510  180.5820  137.4150 C   0  0  0  0  0  2  0  0  0  0  0  0
  182.8520  176.5050  139.3460 C   0  0  0  0  0  2  0  0  0  0  0  0
  183.0680  175.8250  137.9780 C   0  0  1  0  0  3  0  0  0  0  0  0
  182.4580  178.6800  141.5990 O   0  0  0  0  0  1  0  0  0  0  0  0
  181.5130  178.2080  137.0560 C   0  0  0  0  0  3  0  0  0  0  0  0
  183.4450  177.9140  139.4300 C   0  0  0  0  0  2  0  0  0  0  0  0
  182.5640  178.8220  140.2220 C   0  0  0  0  0  0  0  0  0  0  0  0
  181.8290  175.7880  137.1150 C   0  0  0  0  0  3  0  0  0  0  0  0
  181.2070  180.6380  138.9190 C   0  0  0  0  0  3  0  0  0  0  0  0
  181.1290  176.8470  136.7020 C   0  0  0  0  0  3  0  0  0  0  0  0
  180.6950  179.2400  136.9250 C   0  0  0  0  0  3  0  0  0  0  0  0
  181.8920  179.7560  139.6030 C   0  0  0  0  0  0  0  0  0  0  0  0
  1  3  1  6  0  0  0
  1  2  1  0  0  0  0
  2  5  1  0  0  0  0
  2  6  1  1  0  0  0
  3 19  1  0  0  0  0
  3  2  1  0  0  0  0
  4 29  1  6  0  0  0
  4  1  1  0  0  0  0
  4  7  1  0  0  0  0
  5 10  1  0  0  0  0
  7  5  2  0  0  0  0
  9 11  2  0  0  0  0
 10 12  2  0  0  0  0
 10  9  1  0  0  0  0
 11  8  1  0  0  0  0
 11 14  1  0  0  0  0
 12 13  1  0  0  0  0
 13  8  2  0  0  0  0
 14 15  1  0  0  0  0
 15 16  1  0  0  0  0
 15 17  1  0  0  0  0
 18 15  1  0  0  0  0
 20 19  1  0  0  0  0
 21 23  1  6  0  0  0
 21 24  1  0  0  0  0
 22 21  1  0  0  0  0
 22 26  1  0  0  0  0
 23 25  1  0  0  0  0
 24 27  1  6  0  0  0
 25 28  1  0  0  0  0
 26 24  1  0  0  0  0
 26 20  1  1  0  0  0
 28 27  1  0  0  0  0
 30 32  1  0  0  0  0
 31 30  1  0  0  0  0
 31 34  1  1  0  0  0
 31 32  1  0  0  0  0
 32 29  1  6  0  0  0
 34 35  2  0  0  0  0
 34 33  1  0  0  0  0
 36 44  1  0  0  0  0
 37 41  1  0  0  0  0
 38 33  1  6  0  0  0
 38 37  1  0  0  0  0
 41 42  1  0  0  0  0
 42 39  1  0  0  0  0
 43 38  1  0  0  0  0
 44 47  2  0  0  0  0
 45 40  1  0  0  0  0
 45 43  2  0  0  0  0
 46 40  2  0  0  0  0
 46 36  1  0  0  0  0
 47 42  2  0  0  0  0
M  END
>  <MODEL>
2

>  <REMARK>
 VINA RESULT:      -8.0      3.882      8.170
  Name = 
  10 active torsions:
  status: ('A' for Active; 'I' for Inactive)
    1  A    between atoms: N_3  and  C_5
    2  A    between atoms: C_6  and  C_38
    3  A    between atoms: C_12  and  O_18
    4  A    between atoms: N_16  and  N_24
    5  A    between atoms: N_16  and  N_32
    6  A    between atoms: O_18  and  C_41
    7  A    between atoms: C_21  and  C_26
    8  A    between atoms: C_21  and  C_45
    9  A    between atoms: C_27  and  N_32
   10  A    between atoms: C_29  and  C_39
                            x       y       z     vdW  Elec       q    Type
                         _______ _______ _______ _____ _____    ______ ____

>  <TORSDO>
F 10

$$$$
=
 OpenBabel11032420453D

 47 53  0  0  1  0  0  0  0  0999 V2000
  190.2880  177.8090  138.8300 C   0  0  1  0  0  3  0  0  0  0  0  0
  190.0510  177.3220  140.1910 C   0  0  2  0  0  0  0  0  0  0  0  0
  190.0350  176.3690  139.0590 N   0  0  0  0  0  0  0  0  0  0  0  0
  189.0040  178.5670  138.4570 C   0  0  2  0  0  3  0  0  0  0  0  0
  188.7260  177.8690  140.5810 C   0  0  0  0  0  0  0  0  0  0  0  0
  191.2890  177.4760  141.0720 C   0  0  0  0  0  1  0  0  0  0  0  0
  188.1570  178.5300  139.6350 N   0  0  0  0  0  0  0  0  0  0  0  0
  186.8300  177.1210  144.3150 C   0  0  0  0  0  3  0  0  0  0  0  0
  186.7660  178.0890  142.1120 C   0  0  0  0  0  3  0  0  0  0  0  0
  188.0630  177.6170  141.8740 C   0  0  0  0  0  0  0  0  0  0  0  0
  186.1390  177.8480  143.3360 C   0  0  0  0  0  0  0  0  0  0  0  0
  188.7100  176.8980  142.8840 C   0  0  0  0  0  3  0  0  0  0  0  0
  188.0870  176.6670  144.0700 N   0  0  0  0  0  0  0  0  0  0  0  0
  184.8440  178.3410  143.5460 O   0  0  0  0  0  0  0  0  0  0  0  0
  184.4760  179.1760  144.6430 C   0  0  0  0  0  0  0  0  0  0  0  0
  183.9620  178.4070  145.6710 F   0  0  0  0  0  0  0  0  0  0  0  0
  183.5340  180.1060  144.2360 F   0  0  0  0  0  0  0  0  0  0  0  0
  185.5990  179.8420  145.0990 F   0  0  0  0  0  0  0  0  0  0  0  0
  191.2780  175.7270  138.9640 N   0  0  0  0  0  2  0  0  0  0  0  0
  191.1170  174.6550  138.0680 N   0  0  0  0  0  2  0  0  0  0  0  0
  193.5310  176.1960  136.5410 C   0  0  2  0  0  3  0  0  0  0  0  0
  192.2430  175.5500  136.0390 C   0  0  0  0  0  2  0  0  0  0  0  0
  194.6080  175.9530  135.4720 C   0  0  0  0  0  2  0  0  0  0  0  0
  193.5130  175.2370  137.7490 C   0  0  1  0  0  3  0  0  0  0  0  0
  195.8650  175.2900  136.0100 C   0  0  0  0  0  2  0  0  0  0  0  0
  192.2850  174.5430  137.1840 C   0  0  1  0  0  3  0  0  0  0  0  0
  194.7120  174.2940  137.9390 C   0  0  0  0  0  2  0  0  0  0  0  0
  195.4680  173.9830  136.6610 C   0  0  0  0  0  2  0  0  0  0  0  0
  188.3010  177.9300  137.2660 C   0  0  0  0  0  2  0  0  0  0  0  0
  187.7790  175.5400  136.9250 C   0  0  0  0  0  2  0  0  0  0  0  0
  186.5440  176.3430  136.5760 C   0  0  2  0  0  3  0  0  0  0  0  0
  187.4350  176.7770  137.7270 C   0  0  2  0  0  3  0  0  0  0  0  0
  184.2170  176.4860  137.5690 N   0  0  0  0  0  2  0  0  0  0  0  0
  185.3170  175.6890  137.1200 C   0  0  0  0  0  0  0  0  0  0  0  0
  185.2700  174.4330  137.2090 O   0  0  0  0  0  0  0  0  0  0  0  0
  181.0190  180.6020  137.5590 C   0  0  0  0  0  2  0  0  0  0  0  0
  182.6890  176.5440  139.5580 C   0  0  0  0  0  2  0  0  0  0  0  0
  183.0410  175.8980  138.2020 C   0  0  1  0  0  3  0  0  0  0  0  0
  182.0360  178.6620  141.8060 O   0  0  0  0  0  1  0  0  0  0  0  0
  181.4890  178.2470  137.1920 C   0  0  0  0  0  3  0  0  0  0  0  0
  183.2250  177.9700  139.7150 C   0  0  0  0  0  2  0  0  0  0  0  0
  182.2510  178.8340  140.4450 C   0  0  0  0  0  0  0  0  0  0  0  0
  181.8800  175.8380  137.2370 C   0  0  0  0  0  3  0  0  0  0  0  0
  180.9480  180.6300  139.0630 C   0  0  0  0  0  3  0  0  0  0  0  0
  181.1820  176.8820  136.7850 C   0  0  0  0  0  3  0  0  0  0  0  0
  180.6510  179.2540  137.0100 C   0  0  0  0  0  3  0  0  0  0  0  0
  181.6020  179.7570  139.7870 C   0  0  0  0  0  0  0  0  0  0  0  0
  1  3  1  6  0  0  0
  1  2  1  0  0  0  0
  2  5  1  0  0  0  0
  2  6  1  1  0  0  0
  3  2  1  0  0  0  0
  4 29  1  6  0  0  0
  4  1  1  0  0  0  0
  4  7  1  0  0  0  0
  5 10  1  0  0  0  0
  7  5  2  0  0  0  0
  9 11  1  0  0  0  0
 10  9  2  0  0  0  0
 10 12  1  0  0  0  0
 11 14  1  0  0  0  0
 11  8  2  0  0  0  0
 12 13  2  0  0  0  0
 13  8  1  0  0  0  0
 14 15  1  0  0  0  0
 15 18  1  0  0  0  0
 15 16  1  0  0  0  0
 17 15  1  0  0  0  0
 19  3  1  0  0  0  0
 20 19  1  0  0  0  0
 21 23  1  6  0  0  0
 21 24  1  0  0  0  0
 22 21  1  0  0  0  0
 22 26  1  0  0  0  0
 23 25  1  0  0  0  0
 24 27  1  6  0  0  0
 25 28  1  0  0  0  0
 26 24  1  0  0  0  0
 26 20  1  1  0  0  0
 28 27  1  0  0  0  0
 30 32  1  0  0  0  0
 31 30  1  0  0  0  0
 31 34  1  1  0  0  0
 31 32  1  0  0  0  0
 32 29  1  6  0  0  0
 34 35  2  0  0  0  0
 34 33  1  0  0  0  0
 36 44  1  0  0  0  0
 37 41  1  0  0  0  0
 38 33  1  6  0  0  0
 38 37  1  0  0  0  0
 41 42  1  0  0  0  0
 42 39  1  0  0  0  0
 43 38  1  0  0  0  0
 44 47  2  0  0  0  0
 45 40  1  0  0  0  0
 45 43  2  0  0  0  0
 46 40  2  0  0  0  0
 46 36  1  0  0  0  0
 47 42  2  0  0  0  0
M  END
>  <MODEL>
3

>  <REMARK>
 VINA RESULT:      -8.0      3.664      8.017
  Name = 
  10 active torsions:
  status: ('A' for Active; 'I' for Inactive)
    1  A    between atoms: N_3  and  C_5
    2  A    between atoms: C_6  and  C_38
    3  A    between atoms: C_12  and  O_18
    4  A    between atoms: N_16  and  N_24
    5  A    between atoms: N_16  and  N_32
    6  A    between atoms: O_18  and  C_41
    7  A    between atoms: C_21  and  C_26
    8  A    between atoms: C_21  and  C_45
    9  A    between atoms: C_27  and  N_32
   10  A    between atoms: C_29  and  C_39
                            x       y       z     vdW  Elec       q    Type
                         _______ _______ _______ _____ _____    ______ ____

>  <TORSDO>
F 10

$$$$
=
 OpenBabel11032420453D

 47 53  0  0  1  0  0  0  0  0999 V2000
  190.3510  177.7170  138.9600 C   0  0  1  0  0  3  0  0  0  0  0  0
  190.3090  177.2770  140.3560 C   0  0  2  0  0  0  0  0  0  0  0  0
  190.0780  176.2970  139.2730 N   0  0  0  0  0  0  0  0  0  0  0  0
  189.0570  178.5230  138.7650 C   0  0  2  0  0  3  0  0  0  0  0  0
  189.0840  177.8930  140.9290 C   0  0  0  0  0  0  0  0  0  0  0  0
  191.6740  177.3970  141.0310 C   0  0  0  0  0  1  0  0  0  0  0  0
  188.4030  178.5550  140.0600 N   0  0  0  0  0  0  0  0  0  0  0  0
  187.7210  177.3700  144.9230 C   0  0  0  0  0  3  0  0  0  0  0  0
  189.5220  177.3550  143.3270 C   0  0  0  0  0  3  0  0  0  0  0  0
  188.6200  177.7070  142.3150 C   0  0  0  0  0  0  0  0  0  0  0  0
  189.0800  177.1810  144.6400 C   0  0  0  0  0  0  0  0  0  0  0  0
  187.2730  177.8820  142.6500 C   0  0  0  0  0  3  0  0  0  0  0  0
  186.8560  177.7130  143.9330 N   0  0  0  0  0  0  0  0  0  0  0  0
  190.0060  176.8210  145.6280 O   0  0  0  0  0  0  0  0  0  0  0  0
  191.4200  176.8740  145.4540 C   0  0  0  0  0  0  0  0  0  0  0  0
  192.0560  176.6180  146.6550 F   0  0  0  0  0  0  0  0  0  0  0  0
  191.7940  178.1210  144.9830 F   0  0  0  0  0  0  0  0  0  0  0  0
  191.7980  175.9140  144.5330 F   0  0  0  0  0  0  0  0  0  0  0  0
  191.2630  175.5960  139.0090 N   0  0  0  0  0  2  0  0  0  0  0  0
  190.9890  174.7120  137.9500 N   0  0  0  0  0  2  0  0  0  0  0  0
  193.5580  176.2120  136.6520 C   0  0  2  0  0  3  0  0  0  0  0  0
  192.2120  175.7900  136.0720 C   0  0  0  0  0  2  0  0  0  0  0  0
  194.6090  176.0280  135.5460 C   0  0  0  0  0  2  0  0  0  0  0  0
  193.4350  175.0840  137.6970 C   0  0  1  0  0  3  0  0  0  0  0  0
  195.7870  175.1620  135.9590 C   0  0  0  0  0  2  0  0  0  0  0  0
  192.1430  174.6180  137.0450 C   0  0  1  0  0  3  0  0  0  0  0  0
  194.5270  174.0030  137.7240 C   0  0  0  0  0  2  0  0  0  0  0  0
  195.2530  173.8180  136.4050 C   0  0  0  0  0  2  0  0  0  0  0  0
  188.1530  177.8870  137.7170 C   0  0  0  0  0  2  0  0  0  0  0  0
  185.8710  177.0820  137.2210 C   0  0  0  0  0  2  0  0  0  0  0  0
  185.7800  178.5480  137.5900 C   0  0  2  0  0  3  0  0  0  0  0  0
  186.7750  177.6440  138.2970 C   0  0  2  0  0  3  0  0  0  0  0  0
  183.4890  177.9090  138.4660 N   0  0  0  0  0  2  0  0  0  0  0  0
  184.6120  178.7950  138.4880 C   0  0  0  0  0  0  0  0  0  0  0  0
  184.6110  179.8060  139.2390 O   0  0  0  0  0  0  0  0  0  0  0  0
  180.2160  174.5170  136.2430 C   0  0  0  0  0  2  0  0  0  0  0  0
  181.1190  178.7290  138.4080 C   0  0  0  0  0  2  0  0  0  0  0  0
  182.2840  178.1660  139.2480 C   0  0  1  0  0  3  0  0  0  0  0  0
  178.9520  179.1250  136.1470 O   0  0  0  0  0  1  0  0  0  0  0  0
  181.2070  175.5860  138.1860 C   0  0  0  0  0  3  0  0  0  0  0  0
  181.2160  178.3880  136.9190 C   0  0  0  0  0  2  0  0  0  0  0  0
  179.8700  178.1000  136.3430 C   0  0  0  0  0  0  0  0  0  0  0  0
  181.9090  176.9600  140.0770 C   0  0  0  0  0  3  0  0  0  0  0  0
  179.2990  175.6140  135.7720 C   0  0  0  0  0  3  0  0  0  0  0  0
  181.4250  175.8070  139.6090 C   0  0  0  0  0  3  0  0  0  0  0  0
  180.4630  174.5960  137.7210 C   0  0  0  0  0  3  0  0  0  0  0  0
  179.5630  176.8720  136.0240 C   0  0  0  0  0  0  0  0  0  0  0  0
  1  3  1  6  0  0  0
  1  2  1  0  0  0  0
  2  5  1  0  0  0  0
  2  6  1  1  0  0  0
  3  2  1  0  0  0  0
  4 29  1  6  0  0  0
  4  1  1  0  0  0  0
  4  7  1  0  0  0  0
  5 10  1  0  0  0  0
  7  5  2  0  0  0  0
  9 11  2  0  0  0  0
 10 12  2  0  0  0  0
 10  9  1  0  0  0  0
 11  8  1  0  0  0  0
 11 14  1  0  0  0  0
 12 13  1  0  0  0  0
 13  8  2  0  0  0  0
 15 14  1  0  0  0  0
 15 16  1  0  0  0  0
 17 15  1  0  0  0  0
 18 15  1  0  0  0  0
 19  3  1  0  0  0  0
 20 19  1  0  0  0  0
 21 23  1  6  0  0  0
 21 24  1  0  0  0  0
 22 21  1  0  0  0  0
 22 26  1  0  0  0  0
 23 25  1  0  0  0  0
 24 27  1  6  0  0  0
 25 28  1  0  0  0  0
 26 24  1  0  0  0  0
 26 20  1  1  0  0  0
 28 27  1  0  0  0  0
 30 31  1  0  0  0  0
 30 32  1  0  0  0  0
 31 32  1  0  0  0  0
 31 34  1  1  0  0  0
 32 29  1  6  0  0  0
 33 34  1  0  0  0  0
 34 35  2  0  0  0  0
 36 46  1  0  0  0  0
 37 38  1  0  0  0  0
 38 33  1  6  0  0  0
 38 43  1  0  0  0  0
 39 42  1  0  0  0  0
 40 45  1  0  0  0  0
 41 37  1  0  0  0  0
 42 41  1  0  0  0  0
 44 47  2  0  0  0  0
 44 36  1  0  0  0  0
 45 43  2  0  0  0  0
 46 40  2  0  0  0  0
 47 42  2  0  0  0  0
M  END
>  <MODEL>
4

>  <REMARK>
 VINA RESULT:      -7.8      4.193      8.464
  Name = 
  10 active torsions:
  status: ('A' for Active; 'I' for Inactive)
    1  A    between atoms: N_3  and  C_5
    2  A    between atoms: C_6  and  C_38
    3  A    between atoms: C_12  and  O_18
    4  A    between atoms: N_16  and  N_24
    5  A    between atoms: N_16  and  N_32
    6  A    between atoms: O_18  and  C_41
    7  A    between atoms: C_21  and  C_26
    8  A    between atoms: C_21  and  C_45
    9  A    between atoms: C_27  and  N_32
   10  A    between atoms: C_29  and  C_39
                            x       y       z     vdW  Elec       q    Type
                         _______ _______ _______ _____ _____    ______ ____

>  <TORSDO>
F 10

$$$$
=
 OpenBabel11032420453D

 47 53  0  0  1  0  0  0  0  0999 V2000
  186.2950  177.5930  142.8970 C   0  0  1  0  0  3  0  0  0  0  0  0
  186.4220  177.8870  144.3260 C   0  0  2  0  0  0  0  0  0  0  0  0
  186.2700  178.9980  143.3610 N   0  0  0  0  0  0  0  0  0  0  0  0
  187.7010  177.1550  142.4600 C   0  0  2  0  0  3  0  0  0  0  0  0
  187.8220  177.5370  144.6780 C   0  0  0  0  0  0  0  0  0  0  0  0
  185.2270  177.3680  145.1210 C   0  0  0  0  0  1  0  0  0  0  0  0
  188.5150  177.1550  143.6630 N   0  0  0  0  0  0  0  0  0  0  0  0
  189.5090  178.0040  148.5540 C   0  0  0  0  0  3  0  0  0  0  0  0
  189.7500  177.3430  146.2530 C   0  0  0  0  0  3  0  0  0  0  0  0
  188.4140  177.6930  146.0190 C   0  0  0  0  0  0  0  0  0  0  0  0
  190.3090  177.4930  147.5230 C   0  0  0  0  0  0  0  0  0  0  0  0
  187.6580  178.1970  147.0820 C   0  0  0  0  0  3  0  0  0  0  0  0
  188.2150  178.3420  148.3140 N   0  0  0  0  0  0  0  0  0  0  0  0
  191.6460  177.1250  147.7270 O   0  0  0  0  0  0  0  0  0  0  0  0
  192.1810  175.8460  147.3960 C   0  0  0  0  0  0  0  0  0  0  0  0
  193.3520  175.6260  148.0980 F   0  0  0  0  0  0  0  0  0  0  0  0
  192.4300  175.7730  146.0360 F   0  0  0  0  0  0  0  0  0  0  0  0
  191.2640  174.8700  147.7380 F   0  0  0  0  0  0  0  0  0  0  0  0
  184.9300  179.4080  143.3190 N   0  0  0  0  0  2  0  0  0  0  0  0
  184.5400  179.3930  141.9680 N   0  0  0  0  0  2  0  0  0  0  0  0
  181.3290  179.1300  141.5660 C   0  0  2  0  0  3  0  0  0  0  0  0
  182.2500  178.7990  142.7370 C   0  0  0  0  0  2  0  0  0  0  0  0
  180.2160  178.0710  141.5480 C   0  0  0  0  0  2  0  0  0  0  0  0
  182.5160  178.9170  140.6040 C   0  0  1  0  0  3  0  0  0  0  0  0
  180.0710  177.3590  140.2140 C   0  0  0  0  0  2  0  0  0  0  0  0
  183.3920  178.4970  141.7730 C   0  0  1  0  0  3  0  0  0  0  0  0
  182.3820  177.8330  139.5230 C   0  0  0  0  0  2  0  0  0  0  0  0
  181.4020  176.7270  139.8670 C   0  0  0  0  0  2  0  0  0  0  0  0
  188.2830  178.0960  141.4140 C   0  0  0  0  0  2  0  0  0  0  0  0
  190.1890  177.1490  140.1600 C   0  0  0  0  0  2  0  0  0  0  0  0
  189.5400  178.2080  139.2950 C   0  0  2  0  0  3  0  0  0  0  0  0
  188.6850  177.3170  140.1790 C   0  0  2  0  0  3  0  0  0  0  0  0
  188.1550  177.5480  137.2780 N   0  0  0  0  0  2  0  0  0  0  0  0
  189.4380  177.7450  137.8790 C   0  0  0  0  0  0  0  0  0  0  0  0
  190.4890  177.4990  137.2290 O   0  0  0  0  0  0  0  0  0  0  0  0
  183.8040  174.7490  137.9160 C   0  0  0  0  0  2  0  0  0  0  0  0
  188.1190  175.4620  135.8850 C   0  0  0  0  0  2  0  0  0  0  0  0
  188.0040  177.0000  135.9350 C   0  0  1  0  0  3  0  0  0  0  0  0
  187.7050  172.3900  136.4810 O   0  0  0  0  0  1  0  0  0  0  0  0
  185.1890  176.3130  136.6760 C   0  0  0  0  0  3  0  0  0  0  0  0
  187.7990  174.7810  137.2180 C   0  0  0  0  0  2  0  0  0  0  0  0
  187.0580  173.5020  137.0050 C   0  0  0  0  0  0  0  0  0  0  0  0
  186.7610  177.5380  135.2670 C   0  0  0  0  0  3  0  0  0  0  0  0
  184.5140  173.4580  137.6050 C   0  0  0  0  0  3  0  0  0  0  0  0
  185.5020  177.2340  135.5910 C   0  0  0  0  0  3  0  0  0  0  0  0
  183.9950  175.7640  136.8280 C   0  0  0  0  0  3  0  0  0  0  0  0
  185.7920  173.4410  137.3180 C   0  0  0  0  0  0  0  0  0  0  0  0
  1  3  1  6  0  0  0
  1  2  1  0  0  0  0
  2  5  1  0  0  0  0
  2  6  1  1  0  0  0
  3  2  1  0  0  0  0
  4 29  1  6  0  0  0
  4  1  1  0  0  0  0
  4  7  1  0  0  0  0
  5 10  1  0  0  0  0
  7  5  2  0  0  0  0
  9 11  1  0  0  0  0
 10  9  2  0  0  0  0
 10 12  1  0  0  0  0
 11 14  1  0  0  0  0
 11  8  2  0  0  0  0
 12 13  2  0  0  0  0
 13  8  1  0  0  0  0
 15 14  1  0  0  0  0
 15 18  1  0  0  0  0
 15 16  1  0  0  0  0
 17 15  1  0  0  0  0
 19  3  1  0  0  0  0
 20 19  1  0  0  0  0
 21 23  1  6  0  0  0
 21 22  1  0  0  0  0
 24 27  1  6  0  0  0
 24 21  1  0  0  0  0
 24 26  1  0  0  0  0
 25 23  1  0  0  0  0
 26 20  1  1  0  0  0
 26 22  1  0  0  0  0
 27 28  1  0  0  0  0
 28 25  1  0  0  0  0
 30 32  1  0  0  0  0
 31 34  1  6  0  0  0
 31 30  1  0  0  0  0
 31 32  1  0  0  0  0
 32 29  1  1  0  0  0
 33 34  1  0  0  0  0
 35 34  2  0  0  0  0
 37 38  1  0  0  0  0
 37 41  1  0  0  0  0
 38 33  1  1  0  0  0
 39 42  1  0  0  0  0
 40 46  2  0  0  0  0
 42 41  1  0  0  0  0
 42 47  2  0  0  0  0
 43 45  2  0  0  0  0
 43 38  1  0  0  0  0
 44 36  1  0  0  0  0
 45 40  1  0  0  0  0
 46 36  1  0  0  0  0
 47 44  2  0  0  0  0
M  END
>  <MODEL>
5

>  <REMARK>
 VINA RESULT:      -7.8      3.850      7.208
  Name = 
  10 active torsions:
  status: ('A' for Active; 'I' for Inactive)
    1  A    between atoms: N_3  and  C_5
    2  A    between atoms: C_6  and  C_38
    3  A    between atoms: C_12  and  O_18
    4  A    between atoms: N_16  and  N_24
    5  A    between atoms: N_16  and  N_32
    6  A    between atoms: O_18  and  C_41
    7  A    between atoms: C_21  and  C_26
    8  A    between atoms: C_21  and  C_45
    9  A    between atoms: C_27  and  N_32
   10  A    between atoms: C_29  and  C_39
                            x       y       z     vdW  Elec       q    Type
                         _______ _______ _______ _____ _____    ______ ____

>  <TORSDO>
F 10

$$$$
=
 OpenBabel11032420453D

 47 53  0  0  1  0  0  0  0  0999 V2000
  185.9340  179.4040  142.8420 C   0  0  1  0  0  3  0  0  0  0  0  0
  184.6340  178.8170  142.5080 C   0  0  2  0  0  0  0  0  0  0  0  0
  185.6750  177.9770  143.1400 N   0  0  0  0  0  0  0  0  0  0  0  0
  186.6380  179.5910  141.4890 C   0  0  2  0  0  3  0  0  0  0  0  0
  184.5920  178.7690  141.0240 C   0  0  0  0  0  0  0  0  0  0  0  0
  183.5060  179.4270  143.3370 C   0  0  0  0  0  1  0  0  0  0  0  0
  185.6840  179.1750  140.4770 N   0  0  0  0  0  0  0  0  0  0  0  0
  181.3640  177.1810  138.7540 C   0  0  0  0  0  3  0  0  0  0  0  0
  183.0000  178.9110  139.1060 C   0  0  0  0  0  3  0  0  0  0  0  0
  183.4710  178.2280  140.2330 C   0  0  0  0  0  0  0  0  0  0  0  0
  181.9400  178.3960  138.3570 C   0  0  0  0  0  0  0  0  0  0  0  0
  182.8620  177.0200  140.5880 C   0  0  0  0  0  3  0  0  0  0  0  0
  181.8330  176.5260  139.8480 N   0  0  0  0  0  0  0  0  0  0  0  0
  181.4850  179.1080  137.2400 O   0  0  0  0  0  0  0  0  0  0  0  0
  180.9020  180.4080  137.3050 C   0  0  0  0  0  0  0  0  0  0  0  0
  181.8120  181.3100  137.8250 F   0  0  0  0  0  0  0  0  0  0  0  0
  179.7660  180.3790  138.0970 F   0  0  0  0  0  0  0  0  0  0  0  0
  180.5500  180.8090  136.0300 F   0  0  0  0  0  0  0  0  0  0  0  0
  185.4430  177.8950  144.5200 N   0  0  0  0  0  2  0  0  0  0  0  0
  186.3920  176.9970  145.0420 N   0  0  0  0  0  2  0  0  0  0  0  0
  189.4450  176.7860  146.1220 C   0  0  2  0  0  3  0  0  0  0  0  0
  188.2470  177.6100  146.5820 C   0  0  0  0  0  2  0  0  0  0  0  0
  190.6980  177.6530  146.3240 C   0  0  0  0  0  2  0  0  0  0  0  0
  188.8420  176.7440  144.7030 C   0  0  1  0  0  3  0  0  0  0  0  0
  191.5420  177.8100  145.0700 C   0  0  0  0  0  2  0  0  0  0  0  0
  187.7050  177.6460  145.1570 C   0  0  1  0  0  3  0  0  0  0  0  0
  189.6670  177.3380  143.5510 C   0  0  0  0  0  2  0  0  0  0  0  0
  190.6680  178.3940  143.9810 C   0  0  0  0  0  2  0  0  0  0  0  0
  187.9140  178.7650  141.4000 C   0  0  0  0  0  2  0  0  0  0  0  0
  189.2650  177.2560  139.9860 C   0  0  0  0  0  2  0  0  0  0  0  0
  189.0850  178.5610  139.2390 C   0  0  2  0  0  3  0  0  0  0  0  0
  187.9550  178.0080  140.0900 C   0  0  2  0  0  3  0  0  0  0  0  0
  188.1040  177.1170  137.4030 N   0  0  0  0  0  2  0  0  0  0  0  0
  188.7890  178.3090  137.7980 C   0  0  0  0  0  0  0  0  0  0  0  0
  189.1750  179.1370  136.9310 O   0  0  0  0  0  0  0  0  0  0  0  0
  183.7980  174.2110  137.8320 C   0  0  0  0  0  2  0  0  0  0  0  0
  187.9990  175.2660  135.7130 C   0  0  0  0  0  2  0  0  0  0  0  0
  187.8830  176.7770  136.0020 C   0  0  1  0  0  3  0  0  0  0  0  0
  187.6230  172.1350  135.8560 O   0  0  0  0  0  1  0  0  0  0  0  0
  185.1130  175.9580  136.7750 C   0  0  0  0  0  3  0  0  0  0  0  0
  187.7500  174.3870  136.9410 C   0  0  0  0  0  2  0  0  0  0  0  0
  187.0020  173.1490  136.5750 C   0  0  0  0  0  0  0  0  0  0  0  0
  186.6050  177.3980  135.4880 C   0  0  0  0  0  3  0  0  0  0  0  0
  184.4930  172.9890  137.2920 C   0  0  0  0  0  3  0  0  0  0  0  0
  185.3660  177.0360  135.8270 C   0  0  0  0  0  3  0  0  0  0  0  0
  183.9290  175.3810  136.9020 C   0  0  0  0  0  3  0  0  0  0  0  0
  185.7540  173.0280  136.9400 C   0  0  0  0  0  0  0  0  0  0  0  0
  1  3  1  1  0  0  0
  2  1  1  0  0  0  0
  2  3  1  0  0  0  0
  2  6  1  1  0  0  0
  3 19  1  0  0  0  0
  4 29  1  1  0  0  0
  4  1  1  0  0  0  0
  5  2  1  0  0  0  0
  7  5  2  0  0  0  0
  7  4  1  0  0  0  0
  8 13  1  0  0  0  0
  9 10  2  0  0  0  0
 10 12  1  0  0  0  0
 10  5  1  0  0  0  0
 11  8  2  0  0  0  0
 11  9  1  0  0  0  0
 13 12  2  0  0  0  0
 14 15  1  0  0  0  0
 14 11  1  0  0  0  0
 15 16  1  0  0  0  0
 15 17  1  0  0  0  0
 18 15  1  0  0  0  0
 19 20  1  0  0  0  0
 21 23  1  6  0  0  0
 21 22  1  0  0  0  0
 24 27  1  6  0  0  0
 24 26  1  0  0  0  0
 24 21  1  0  0  0  0
 25 23  1  0  0  0  0
 26 20  1  1  0  0  0
 26 22  1  0  0  0  0
 27 28  1  0  0  0  0
 28 25  1  0  0  0  0
 30 32  1  0  0  0  0
 31 34  1  6  0  0  0
 31 30  1  0  0  0  0
 31 32  1  0  0  0  0
 32 29  1  1  0  0  0
 33 34  1  0  0  0  0
 35 34  2  0  0  0  0
 37 38  1  0  0  0  0
 37 41  1  0  0  0  0
 38 33  1  1  0  0  0
 39 42  1  0  0  0  0
 40 46  2  0  0  0  0
 42 47  2  0  0  0  0
 42 41  1  0  0  0  0
 43 45  2  0  0  0  0
 43 38  1  0  0  0  0
 44 36  1  0  0  0  0
 45 40  1  0  0  0  0
 46 36  1  0  0  0  0
 47 44  2  0  0  0  0
M  END
>  <MODEL>
6

>  <REMARK>
 VINA RESULT:      -7.8      2.171      2.636
  Name = 
  10 active torsions:
  status: ('A' for Active; 'I' for Inactive)
    1  A    between atoms: N_3  and  C_5
    2  A    between atoms: C_6  and  C_38
    3  A    between atoms: C_12  and  O_18
    4  A    between atoms: N_16  and  N_24
    5  A    between atoms: N_16  and  N_32
    6  A    between atoms: O_18  and  C_41
    7  A    between atoms: C_21  and  C_26
    8  A    between atoms: C_21  and  C_45
    9  A    between atoms: C_27  and  N_32
   10  A    between atoms: C_29  and  C_39
                            x       y       z     vdW  Elec       q    Type
                         _______ _______ _______ _____ _____    ______ ____

>  <TORSDO>
F 10

$$$$
=
 OpenBabel11032420453D

 47 53  0  0  1  0  0  0  0  0999 V2000
  183.8810  177.9810  139.5720 C   0  0  1  0  0  3  0  0  0  0  0  0
  183.3980  178.5760  138.3230 C   0  0  2  0  0  0  0  0  0  0  0  0
  184.6660  179.0520  138.9190 N   0  0  0  0  0  0  0  0  0  0  0  0
  182.9440  178.5330  140.6560 C   0  0  2  0  0  3  0  0  0  0  0  0
  182.1880  179.3520  138.6970 C   0  0  0  0  0  0  0  0  0  0  0  0
  183.3990  177.5670  137.1760 C   0  0  0  0  0  1  0  0  0  0  0  0
  181.9540  179.3380  139.9630 N   0  0  0  0  0  0  0  0  0  0  0  0
  179.8480  181.6190  135.9630 C   0  0  0  0  0  3  0  0  0  0  0  0
  181.1760  181.5150  137.9680 C   0  0  0  0  0  3  0  0  0  0  0  0
  181.3760  180.1450  137.7570 C   0  0  0  0  0  0  0  0  0  0  0  0
  180.4080  182.2640  137.0750 C   0  0  0  0  0  0  0  0  0  0  0  0
  180.7940  179.5490  136.6330 C   0  0  0  0  0  3  0  0  0  0  0  0
  180.0510  180.2900  135.7690 N   0  0  0  0  0  0  0  0  0  0  0  0
  180.2200  183.6310  137.3190 O   0  0  0  0  0  0  0  0  0  0  0  0
  181.0400  184.6600  136.7700 C   0  0  0  0  0  0  0  0  0  0  0  0
  181.2390  184.4380  135.4200 F   0  0  0  0  0  0  0  0  0  0  0  0
  182.2610  184.6930  137.4240 F   0  0  0  0  0  0  0  0  0  0  0  0
  180.4080  185.8780  136.9360 F   0  0  0  0  0  0  0  0  0  0  0  0
  185.7500  178.4250  138.2890 N   0  0  0  0  0  2  0  0  0  0  0  0
  186.8740  178.6280  139.1090 N   0  0  0  0  0  2  0  0  0  0  0  0
  189.4170  177.9220  137.2200 C   0  0  2  0  0  3  0  0  0  0  0  0
  187.9990  177.3650  137.2850 C   0  0  0  0  0  2  0  0  0  0  0  0
  190.3510  176.7530  136.8700 C   0  0  0  0  0  2  0  0  0  0  0  0
  189.3070  178.3110  138.7080 C   0  0  1  0  0  3  0  0  0  0  0  0
  191.4960  176.5700  137.8510 C   0  0  0  0  0  2  0  0  0  0  0  0
  187.9330  177.6650  138.7790 C   0  0  1  0  0  3  0  0  0  0  0  0
  190.3190  177.6990  139.6900 C   0  0  0  0  0  2  0  0  0  0  0  0
  190.9100  176.3790  139.2330 C   0  0  0  0  0  2  0  0  0  0  0  0
  183.7000  179.3700  141.6800 C   0  0  0  0  0  2  0  0  0  0  0  0
  183.1020  179.3010  144.0750 C   0  0  0  0  0  2  0  0  0  0  0  0
  184.6040  179.4620  143.9720 C   0  0  2  0  0  3  0  0  0  0  0  0
  183.8600  178.5950  142.9710 C   0  0  2  0  0  3  0  0  0  0  0  0
  186.5660  178.0050  144.6440 N   0  0  0  0  0  2  0  0  0  0  0  0
  185.2990  178.5870  144.9630 C   0  0  0  0  0  0  0  0  0  0  0  0
  184.7450  178.3390  146.0680 O   0  0  0  0  0  0  0  0  0  0  0  0
  191.5470  179.1190  143.5890 C   0  0  0  0  0  2  0  0  0  0  0  0
  188.0700  176.0030  144.7910 C   0  0  0  0  0  2  0  0  0  0  0  0
  187.2340  177.0630  145.5360 C   0  0  1  0  0  3  0  0  0  0  0  0
  190.1310  174.6160  142.8440 O   0  0  0  0  0  1  0  0  0  0  0  0
  189.7310  178.6600  145.1350 C   0  0  0  0  0  3  0  0  0  0  0  0
  188.5090  176.4420  143.3910 C   0  0  0  0  0  2  0  0  0  0  0  0
  189.8890  175.9620  143.0840 C   0  0  0  0  0  0  0  0  0  0  0  0
  187.9980  177.7900  146.6180 C   0  0  0  0  0  3  0  0  0  0  0  0
  191.8130  177.7320  143.0680 C   0  0  0  0  0  3  0  0  0  0  0  0
  189.1140  178.5020  146.4460 C   0  0  0  0  0  3  0  0  0  0  0  0
  190.9710  179.0910  144.9740 C   0  0  0  0  0  3  0  0  0  0  0  0
  190.8680  176.8260  143.0440 C   0  0  0  0  0  0  0  0  0  0  0  0
  1  3  1  1  0  0  0
  1  4  1  0  0  0  0
  2  6  1  6  0  0  0
  2  5  1  0  0  0  0
  2  3  1  0  0  0  0
  2  1  1  0  0  0  0
  4 29  1  1  0  0  0
  5  7  2  0  0  0  0
  7  4  1  0  0  0  0
  8 11  1  0  0  0  0
 10  9  1  0  0  0  0
 10  5  1  0  0  0  0
 11 14  1  0  0  0  0
 11  9  2  0  0  0  0
 12 10  2  0  0  0  0
 13  8  2  0  0  0  0
 13 12  1  0  0  0  0
 15 18  1  0  0  0  0
 15 14  1  0  0  0  0
 15 17  1  0  0  0  0
 16 15  1  0  0  0  0
 19  3  1  0  0  0  0
 19 20  1  0  0  0  0
 21 23  1  1  0  0  0
 21 22  1  0  0  0  0
 21 24  1  0  0  0  0
 22 26  1  0  0  0  0
 23 25  1  0  0  0  0
 24 26  1  0  0  0  0
 24 27  1  1  0  0  0
 25 28  1  0  0  0  0
 26 20  1  6  0  0  0
 28 27  1  0  0  0  0
 31 30  1  0  0  0  0
 31 34  1  1  0  0  0
 32 29  1  6  0  0  0
 32 31  1  0  0  0  0
 32 30  1  0  0  0  0
 33 34  1  0  0  0  0
 34 35  2  0  0  0  0
 36 46  1  0  0  0  0
 37 38  1  0  0  0  0
 38 33  1  6  0  0  0
 38 43  1  0  0  0  0
 39 42  1  0  0  0  0
 40 45  1  0  0  0  0
 41 37  1  0  0  0  0
 42 41  1  0  0  0  0
 44 36  1  0  0  0  0
 45 43  2  0  0  0  0
 46 40  2  0  0  0  0
 47 44  2  0  0  0  0
 47 42  2  0  0  0  0
M  END
>  <MODEL>
7

>  <REMARK>
 VINA RESULT:      -7.7      4.100      7.870
  Name = 
  10 active torsions:
  status: ('A' for Active; 'I' for Inactive)
    1  A    between atoms: N_3  and  C_5
    2  A    between atoms: C_6  and  C_38
    3  A    between atoms: C_12  and  O_18
    4  A    between atoms: N_16  and  N_24
    5  A    between atoms: N_16  and  N_32
    6  A    between atoms: O_18  and  C_41
    7  A    between atoms: C_21  and  C_26
    8  A    between atoms: C_21  and  C_45
    9  A    between atoms: C_27  and  N_32
   10  A    between atoms: C_29  and  C_39
                            x       y       z     vdW  Elec       q    Type
                         _______ _______ _______ _____ _____    ______ ____

>  <TORSDO>
F 10

$$$$
=
 OpenBabel11032420453D

 47 53  0  0  1  0  0  0  0  0999 V2000
  189.8890  177.7060  138.3930 C   0  0  1  0  0  3  0  0  0  0  0  0
  189.6330  177.4310  139.8090 C   0  0  2  0  0  0  0  0  0  0  0  0
  189.5860  176.3240  138.8270 N   0  0  0  0  0  0  0  0  0  0  0  0
  188.6340  178.4460  137.9060 C   0  0  2  0  0  3  0  0  0  0  0  0
  188.3280  178.0730  140.1070 C   0  0  0  0  0  0  0  0  0  0  0  0
  190.8740  177.6670  140.6670 C   0  0  0  0  0  1  0  0  0  0  0  0
  187.7840  178.6090  139.0710 N   0  0  0  0  0  0  0  0  0  0  0  0
  186.3650  177.9870  143.8800 C   0  0  0  0  0  3  0  0  0  0  0  0
  188.2570  177.4030  142.5110 C   0  0  0  0  0  3  0  0  0  0  0  0
  187.6530  178.0360  141.4170 C   0  0  0  0  0  0  0  0  0  0  0  0
  187.6180  177.3700  143.7520 C   0  0  0  0  0  0  0  0  0  0  0  0
  186.4020  178.6350  141.5970 C   0  0  0  0  0  3  0  0  0  0  0  0
  185.7910  178.6000  142.8110 N   0  0  0  0  0  0  0  0  0  0  0  0
  188.2440  176.7220  144.8240 O   0  0  0  0  0  0  0  0  0  0  0  0
  189.1570  177.3560  145.7170 C   0  0  0  0  0  0  0  0  0  0  0  0
  189.4930  178.6100  145.2390 F   0  0  0  0  0  0  0  0  0  0  0  0
  190.3000  176.5860  145.8540 F   0  0  0  0  0  0  0  0  0  0  0  0
  188.5570  177.4940  146.9550 F   0  0  0  0  0  0  0  0  0  0  0  0
  190.8050  175.6320  138.8360 N   0  0  0  0  0  2  0  0  0  0  0  0
  190.6780  174.5700  137.9220 N   0  0  0  0  0  2  0  0  0  0  0  0
  192.9020  176.0160  136.0510 C   0  0  2  0  0  3  0  0  0  0  0  0
  191.7800  175.0310  135.7400 C   0  0  0  0  0  2  0  0  0  0  0  0
  194.0780  175.6750  135.1220 C   0  0  0  0  0  2  0  0  0  0  0  0
  192.9600  175.4590  137.4880 C   0  0  1  0  0  3  0  0  0  0  0  0
  195.3870  175.4330  135.8550 C   0  0  0  0  0  2  0  0  0  0  0  0
  191.9080  174.4220  137.1320 C   0  0  1  0  0  3  0  0  0  0  0  0
  194.2830  174.8450  137.9720 C   0  0  0  0  0  2  0  0  0  0  0  0
  195.1690  174.3200  136.8580 C   0  0  0  0  0  2  0  0  0  0  0  0
  187.9120  177.6670  136.8140 C   0  0  0  0  0  2  0  0  0  0  0  0
  185.8210  176.7550  137.7600 C   0  0  0  0  0  2  0  0  0  0  0  0
  185.7080  176.7130  136.2510 C   0  0  2  0  0  3  0  0  0  0  0  0
  186.4160  177.8720  136.9310 C   0  0  2  0  0  3  0  0  0  0  0  0
  183.2750  177.2160  136.7500 N   0  0  0  0  0  2  0  0  0  0  0  0
  184.3510  177.1520  135.8090 C   0  0  0  0  0  0  0  0  0  0  0  0
  184.1550  177.4330  134.5970 O   0  0  0  0  0  0  0  0  0  0  0  0
  181.2850  178.6780  141.3400 C   0  0  0  0  0  2  0  0  0  0  0  0
  180.8490  176.6290  136.9970 C   0  0  0  0  0  2  0  0  0  0  0  0
  181.9110  177.5390  136.3460 C   0  0  1  0  0  3  0  0  0  0  0  0
  179.1490  175.0250  139.1180 O   0  0  0  0  0  1  0  0  0  0  0  0
  181.6230  178.9760  138.9530 C   0  0  0  0  0  3  0  0  0  0  0  0
  181.3130  175.9860  138.3070 C   0  0  0  0  0  2  0  0  0  0  0  0
  180.1980  175.9180  139.2970 C   0  0  0  0  0  0  0  0  0  0  0  0
  181.6320  179.0140  136.5120 C   0  0  0  0  0  3  0  0  0  0  0  0
  180.2760  177.5590  141.3300 C   0  0  0  0  0  3  0  0  0  0  0  0
  181.4990  179.6610  137.6730 C   0  0  0  0  0  3  0  0  0  0  0  0
  181.2080  179.5070  140.0920 C   0  0  0  0  0  3  0  0  0  0  0  0
  180.2210  176.7080  140.3360 C   0  0  0  0  0  0  0  0  0  0  0  0
  1  3  1  6  0  0  0
  1  2  1  0  0  0  0
  2  5  1  0  0  0  0
  2  6  1  1  0  0  0
  3 19  1  0  0  0  0
  3  2  1  0  0  0  0
  4 29  1  6  0  0  0
  4  1  1  0  0  0  0
  4  7  1  0  0  0  0
  5 10  1  0  0  0  0
  7  5  2  0  0  0  0
  9 11  2  0  0  0  0
 10 12  2  0  0  0  0
 10  9  1  0  0  0  0
 11  8  1  0  0  0  0
 11 14  1  0  0  0  0
 12 13  1  0  0  0  0
 13  8  2  0  0  0  0
 14 15  1  0  0  0  0
 15 17  1  0  0  0  0
 15 18  1  0  0  0  0
 16 15  1  0  0  0  0
 20 19  1  0  0  0  0
 21 23  1  6  0  0  0
 21 24  1  0  0  0  0
 22 21  1  0  0  0  0
 22 26  1  0  0  0  0
 23 25  1  0  0  0  0
 24 27  1  6  0  0  0
 25 28  1  0  0  0  0
 26 24  1  0  0  0  0
 26 20  1  1  0  0  0
 28 27  1  0  0  0  0
 31 34  1  1  0  0  0
 31 32  1  0  0  0  0
 31 30  1  0  0  0  0
 32 29  1  6  0  0  0
 32 30  1  0  0  0  0
 34 33  1  0  0  0  0
 35 34  2  0  0  0  0
 37 41  1  0  0  0  0
 38 43  1  0  0  0  0
 38 33  1  1  0  0  0
 38 37  1  0  0  0  0
 39 42  1  0  0  0  0
 40 46  2  0  0  0  0
 41 42  1  0  0  0  0
 42 47  2  0  0  0  0
 43 45  2  0  0  0  0
 44 36  1  0  0  0  0
 45 40  1  0  0  0  0
 46 36  1  0  0  0  0
 47 44  2  0  0  0  0
M  END
>  <MODEL>
8

>  <REMARK>
 VINA RESULT:      -7.6      3.807      8.263
  Name = 
  10 active torsions:
  status: ('A' for Active; 'I' for Inactive)
    1  A    between atoms: N_3  and  C_5
    2  A    between atoms: C_6  and  C_38
    3  A    between atoms: C_12  and  O_18
    4  A    between atoms: N_16  and  N_24
    5  A    between atoms: N_16  and  N_32
    6  A    between atoms: O_18  and  C_41
    7  A    between atoms: C_21  and  C_26
    8  A    between atoms: C_21  and  C_45
    9  A    between atoms: C_27  and  N_32
   10  A    between atoms: C_29  and  C_39
                            x       y       z     vdW  Elec       q    Type
                         _______ _______ _______ _____ _____    ______ ____

>  <TORSDO>
F 10

$$$$
=
 OpenBabel11032420453D

 47 53  0  0  1  0  0  0  0  0999 V2000
  189.4260  178.2750  140.6210 C   0  0  1  0  0  3  0  0  0  0  0  0
  190.2240  177.5950  141.6430 C   0  0  2  0  0  0  0  0  0  0  0  0
  189.4510  176.7960  140.6680 N   0  0  0  0  0  0  0  0  0  0  0  0
  188.2260  178.8560  141.3840 C   0  0  2  0  0  3  0  0  0  0  0  0
  189.5350  177.8700  142.9300 C   0  0  0  0  0  0  0  0  0  0  0  0
  191.7200  177.8380  141.4510 C   0  0  0  0  0  1  0  0  0  0  0  0
  188.4470  178.5410  142.7840 N   0  0  0  0  0  0  0  0  0  0  0  0
  190.8220  176.3870  146.7040 C   0  0  0  0  0  3  0  0  0  0  0  0
  189.0760  177.2900  145.3150 C   0  0  0  0  0  3  0  0  0  0  0  0
  189.9730  177.3610  144.2430 C   0  0  0  0  0  0  0  0  0  0  0  0
  189.4920  176.8050  146.5560 C   0  0  0  0  0  0  0  0  0  0  0  0
  191.2900  176.9330  144.4420 C   0  0  0  0  0  3  0  0  0  0  0  0
  191.6830  176.4590  145.6550 N   0  0  0  0  0  0  0  0  0  0  0  0
  188.5720  176.7550  147.6120 O   0  0  0  0  0  0  0  0  0  0  0  0
  188.1400  177.8960  148.3490 C   0  0  0  0  0  0  0  0  0  0  0  0
  187.6190  177.5040  149.5680 F   0  0  0  0  0  0  0  0  0  0  0  0
  187.1800  178.5890  147.6310 F   0  0  0  0  0  0  0  0  0  0  0  0
  189.2220  178.7270  148.5700 F   0  0  0  0  0  0  0  0  0  0  0  0
  190.2910  176.3780  139.6270 N   0  0  0  0  0  2  0  0  0  0  0  0
  189.5100  175.5910  138.7610 N   0  0  0  0  0  2  0  0  0  0  0  0
  187.6800  175.7210  136.0840 C   0  0  2  0  0  3  0  0  0  0  0  0
  189.1810  175.5500  136.2960 C   0  0  0  0  0  2  0  0  0  0  0  0
  187.4940  176.5610  134.8110 C   0  0  0  0  0  2  0  0  0  0  0  0
  187.5980  176.4640  137.4330 C   0  0  1  0  0  3  0  0  0  0  0  0
  186.6330  177.7970  135.0140 C   0  0  0  0  0  2  0  0  0  0  0  0
  189.1080  176.3680  137.5810 C   0  0  1  0  0  3  0  0  0  0  0  0
  187.0770  177.9100  137.4290 C   0  0  0  0  0  2  0  0  0  0  0  0
  187.2580  178.6340  136.1090 C   0  0  0  0  0  2  0  0  0  0  0  0
  186.9100  178.2630  140.8970 C   0  0  0  0  0  2  0  0  0  0  0  0
  185.6890  178.4850  143.0320 C   0  0  0  0  0  2  0  0  0  0  0  0
  184.7460  177.8780  142.0150 C   0  0  2  0  0  3  0  0  0  0  0  0
  185.7460  178.9390  141.5900 C   0  0  2  0  0  3  0  0  0  0  0  0
  182.4510  178.3490  141.0500 N   0  0  0  0  0  2  0  0  0  0  0  0
  183.3890  178.4910  142.1210 C   0  0  0  0  0  0  0  0  0  0  0  0
  183.0880  179.1600  143.1450 O   0  0  0  0  0  0  0  0  0  0  0  0
  180.5910  176.8120  136.4300 C   0  0  0  0  0  2  0  0  0  0  0  0
  181.0000  180.0770  139.9550 C   0  0  0  0  0  2  0  0  0  0  0  0
  181.1530  179.0140  141.0620 C   0  0  1  0  0  3  0  0  0  0  0  0
  180.9850  181.5210  137.1480 O   0  0  0  0  0  1  0  0  0  0  0  0
  180.3560  177.2090  138.8140 C   0  0  0  0  0  3  0  0  0  0  0  0
  181.9270  179.8520  138.7580 C   0  0  0  0  0  2  0  0  0  0  0  0
  181.2450  180.1960  137.4750 C   0  0  0  0  0  0  0  0  0  0  0  0
  180.0280  178.0060  141.0980 C   0  0  0  0  0  3  0  0  0  0  0  0
  180.5260  178.2260  135.9150 C   0  0  0  0  0  3  0  0  0  0  0  0
  179.6650  177.2000  140.0980 C   0  0  0  0  0  3  0  0  0  0  0  0
  179.8480  176.6580  137.7240 C   0  0  0  0  0  3  0  0  0  0  0  0
  180.8950  179.2360  136.6630 C   0  0  0  0  0  0  0  0  0  0  0  0
  1  3  1  6  0  0  0
  1  4  1  0  0  0  0
  1  2  1  0  0  0  0
  2  6  1  6  0  0  0
  2  5  1  0  0  0  0
  3  2  1  0  0  0  0
  4 29  1  6  0  0  0
  4  7  1  0  0  0  0
  5 10  1  0  0  0  0
  7  5  2  0  0  0  0
  9 11  2  0  0  0  0
 10 12  2  0  0  0  0
 10  9  1  0  0  0  0
 11  8  1  0  0  0  0
 11 14  1  0  0  0  0
 12 13  1  0  0  0  0
 13  8  2  0  0  0  0
 14 15  1  0  0  0  0
 15 18  1  0  0  0  0
 15 16  1  0  0  0  0
 17 15  1  0  0  0  0
 19  3  1  0  0  0  0
 20 19  1  0  0  0  0
 21 23  1  6  0  0  0
 21 22  1  0  0  0  0
 21 24  1  0  0  0  0
 22 26  1  0  0  0  0
 23 25  1  0  0  0  0
 24 27  1  6  0  0  0
 24 26  1  0  0  0  0
 25 28  1  0  0  0  0
 26 20  1  1  0  0  0
 28 27  1  0  0  0  0
 31 34  1  1  0  0  0
 31 30  1  0  0  0  0
 32 29  1  6  0  0  0
 32 31  1  0  0  0  0
 32 30  1  0  0  0  0
 33 34  1  0  0  0  0
 34 35  2  0  0  0  0
 36 46  1  0  0  0  0
 37 38  1  0  0  0  0
 38 33  1  6  0  0  0
 38 43  1  0  0  0  0
 39 42  1  0  0  0  0
 40 45  1  0  0  0  0
 41 37  1  0  0  0  0
 42 41  1  0  0  0  0
 44 36  1  0  0  0  0
 44 47  2  0  0  0  0
 45 43  2  0  0  0  0
 46 40  2  0  0  0  0
 47 42  2  0  0  0  0
M  END
>  <MODEL>
9

>  <REMARK>
 VINA RESULT:      -7.5      4.249      9.020
  Name = 
  10 active torsions:
  status: ('A' for Active; 'I' for Inactive)
    1  A    between atoms: N_3  and  C_5
    2  A    between atoms: C_6  and  C_38
    3  A    between atoms: C_12  and  O_18
    4  A    between atoms: N_16  and  N_24
    5  A    between atoms: N_16  and  N_32
    6  A    between atoms: O_18  and  C_41
    7  A    between atoms: C_21  and  C_26
    8  A    between atoms: C_21  and  C_45
    9  A    between atoms: C_27  and  N_32
   10  A    between atoms: C_29  and  C_39
                            x       y       z     vdW  Elec       q    Type
                         _______ _______ _______ _____ _____    ______ ____

>  <TORSDO>
F 10

$$$$
