=
 OpenBabel11042412113D

 37 40  0  0  1  0  0  0  0  0999 V2000
  186.0280  178.1590  147.2850 C   0  0  0  0  0  3  0  0  0  0  0  0
  189.6850  177.4180  147.5080 N   0  0  0  0  0  0  0  0  0  0  0  0
  187.7090  177.8640  145.4900 C   0  0  0  0  0  0  0  0  0  0  0  0
  188.0870  177.7930  149.1560 O   0  0  0  0  0  0  0  0  0  0  0  0
  184.7110  178.4980  143.7740 C   0  0  0  0  0  0  0  0  0  0  0  0
  186.8050  177.9910  143.0800 C   0  0  0  0  0  0  0  0  0  0  0  0
  185.3810  178.2380  144.8880 C   0  0  2  0  0  3  0  0  0  0  0  0
  190.0780  177.4430  146.2640 C   0  0  0  0  0  0  0  0  0  0  0  0
  184.9000  178.3730  146.3020 C   0  0  0  0  0  3  0  0  0  0  0  0
  188.3530  177.7320  147.9260 C   0  0  0  0  0  0  0  0  0  0  0  0
  187.3070  177.9420  146.9180 C   0  0  0  0  0  0  0  0  0  0  0  0
  189.1700  177.8910  145.1460 C   0  0  0  0  0  2  0  0  0  0  0  0
  185.6060  178.3290  142.6160 C   0  0  0  0  0  3  0  0  0  0  0  0
  186.7550  177.9340  144.5490 C   0  0  0  0  0  0  0  0  0  0  0  0
  191.3890  177.0950  145.9350 O   0  0  0  0  0  0  0  0  0  0  0  0
  192.0410  175.9670  146.5000 C   0  0  0  0  0  1  0  0  0  0  0  0
  183.3020  178.9050  143.7200 C   0  0  0  0  0  3  0  0  0  0  0  0
  182.5780  178.7700  142.6110 C   0  0  0  0  0  3  0  0  0  0  0  0
  181.2350  179.1530  142.5370 O   0  0  0  0  0  0  0  0  0  0  0  0
  180.2560  178.7130  143.4690 C   0  0  0  0  0  1  0  0  0  0  0  0
  187.8730  177.5990  142.2140 N   0  0  0  0  0  2  0  0  0  0  0  0
  188.7840  178.5410  141.5860 C   0  0  0  0  0  2  0  0  0  0  0  0
  189.2620  177.9940  140.2510 C   0  0  1  0  0  3  0  0  0  0  0  0
  190.0330  176.7060  140.4710 C   0  0  0  0  0  1  0  0  0  0  0  0
  188.1150  177.7690  139.3140 C   0  0  0  0  0  0  0  0  0  0  0  0
  188.1970  176.7030  138.2640 C   0  0  0  0  0  1  0  0  0  0  0  0
  187.0520  178.5010  139.4440 N   0  0  0  0  0  0  0  0  0  0  0  0
  184.7080  179.0120  138.8900 C   0  0  0  0  0  0  0  0  0  0  0  0
  184.6040  179.7590  139.8980 O   0  0  0  0  0  0  0  0  0  0  0  0
  185.9360  178.3400  138.6120 N   0  0  0  0  0  2  0  0  0  0  0  0
  183.5310  178.7980  138.0010 C   0  0  0  0  0  2  0  0  0  0  0  0
  180.1920  177.9160  139.5630 C   0  0  0  0  0  3  0  0  0  0  0  0
  182.7140  176.7590  139.2030 C   0  0  0  0  0  3  0  0  0  0  0  0
  181.7080  176.0500  139.8670 C   0  0  0  0  0  3  0  0  0  0  0  0
  182.4620  178.0490  138.7220 C   0  0  0  0  0  0  0  0  0  0  0  0
  181.1980  178.6250  138.9000 C   0  0  0  0  0  3  0  0  0  0  0  0
  180.4470  176.6290  140.0480 C   0  0  0  0  0  3  0  0  0  0  0  0
  2 10  1  0  0  0  0
  3 11  2  0  0  0  0
  5  7  1  0  0  0  0
  6 14  2  0  0  0  0
  7  9  1  1  0  0  0
  8  2  2  0  0  0  0
  9  1  2  0  0  0  0
 10  4  2  0  0  0  0
 11  1  1  0  0  0  0
 11 10  1  0  0  0  0
 12  3  1  0  0  0  0
 12  8  1  0  0  0  0
 13  6  1  0  0  0  0
 13  5  2  0  0  0  0
 14  7  1  0  0  0  0
 14  3  1  0  0  0  0
 15  8  1  0  0  0  0
 15 16  1  0  0  0  0
 17  5  1  0  0  0  0
 18 17  2  0  0  0  0
 19 18  1  0  0  0  0
 19 20  1  0  0  0  0
 21  6  1  0  0  0  0
 22 21  1  0  0  0  0
 23 24  1  1  0  0  0
 23 22  1  0  0  0  0
 25 27  2  0  0  0  0
 25 23  1  0  0  0  0
 26 25  1  0  0  0  0
 28 29  2  0  0  0  0
 30 28  1  0  0  0  0
 30 27  1  0  0  0  0
 31 35  1  0  0  0  0
 31 28  1  0  0  0  0
 32 37  1  0  0  0  0
 33 34  1  0  0  0  0
 34 37  2  0  0  0  0
 35 36  1  0  0  0  0
 35 33  2  0  0  0  0
 36 32  2  0  0  0  0
M  END
>  <MODEL>
1

>  <REMARK>
 VINA RESULT:      -9.6      0.000      0.000
  Name = 
  10 active torsions:
  status: ('A' for Active; 'I' for Inactive)
    1  A    between atoms: C_1  and  C_32
    2  A    between atoms: O_4  and  C_21
    3  A    between atoms: O_5  and  C_29
    4  A    between atoms: C_7  and  C_24
    5  A    between atoms: C_7  and  C_25
    6  A    between atoms: N_10  and  C_17
    7  A    between atoms: N_10  and  C_25
    8  A    between atoms: N_12  and  N_33
    9  A    between atoms: C_14  and  C_27
   10  A    between atoms: C_22  and  C_32
                            x       y       z     vdW  Elec       q    Type
                         _______ _______ _______ _____ _____    ______ ____

>  <TORSDO>
F 10

$$$$
=
 OpenBabel11042412113D

 37 40  0  0  1  0  0  0  0  0999 V2000
  186.2670  178.4150  147.3960 C   0  0  0  0  0  3  0  0  0  0  0  0
  189.8300  177.2960  147.5640 N   0  0  0  0  0  0  0  0  0  0  0  0
  187.8340  177.7990  145.5800 C   0  0  0  0  0  0  0  0  0  0  0  0
  188.3480  177.9700  149.2260 O   0  0  0  0  0  0  0  0  0  0  0  0
  184.8550  178.6240  143.9120 C   0  0  0  0  0  0  0  0  0  0  0  0
  186.8530  177.8380  143.1970 C   0  0  0  0  0  0  0  0  0  0  0  0
  185.5370  178.3800  145.0230 C   0  0  2  0  0  3  0  0  0  0  0  0
  190.1730  177.1820  146.3110 C   0  0  0  0  0  0  0  0  0  0  0  0
  185.1300  178.6750  146.4350 C   0  0  0  0  0  3  0  0  0  0  0  0
  188.5570  177.7850  147.9970 C   0  0  0  0  0  0  0  0  0  0  0  0
  187.5000  178.0310  147.0080 C   0  0  0  0  0  0  0  0  0  0  0  0
  189.2750  177.6390  145.1890 C   0  0  0  0  0  2  0  0  0  0  0  0
  185.6790  178.2700  142.7450 C   0  0  0  0  0  3  0  0  0  0  0  0
  186.8560  177.9010  144.6670 C   0  0  0  0  0  0  0  0  0  0  0  0
  191.4260  176.6670  145.9700 O   0  0  0  0  0  0  0  0  0  0  0  0
  192.1190  175.7440  146.7970 C   0  0  0  0  0  1  0  0  0  0  0  0
  183.4970  179.1790  143.8700 C   0  0  0  0  0  3  0  0  0  0  0  0
  182.5650  178.6830  143.0580 C   0  0  0  0  0  3  0  0  0  0  0  0
  181.2660  179.1960  143.0000 O   0  0  0  0  0  0  0  0  0  0  0  0
  180.1460  178.5230  143.5610 C   0  0  0  0  0  1  0  0  0  0  0  0
  187.8380  177.2660  142.3330 N   0  0  0  0  0  2  0  0  0  0  0  0
  188.5400  178.0190  141.3070 C   0  0  0  0  0  2  0  0  0  0  0  0
  189.9430  177.4650  141.1230 C   0  0  1  0  0  3  0  0  0  0  0  0
  190.1240  176.2270  141.9820 C   0  0  0  0  0  1  0  0  0  0  0  0
  190.2200  177.1530  139.6840 C   0  0  0  0  0  0  0  0  0  0  0  0
  189.5450  177.9360  138.5990 C   0  0  0  0  0  1  0  0  0  0  0  0
  191.0630  176.2080  139.4020 N   0  0  0  0  0  0  0  0  0  0  0  0
  192.6610  176.1730  137.5300 C   0  0  0  0  0  0  0  0  0  0  0  0
  193.5300  176.7640  138.2240 O   0  0  0  0  0  0  0  0  0  0  0  0
  191.3810  175.8680  138.0800 N   0  0  0  0  0  2  0  0  0  0  0  0
  192.9570  175.8240  136.1110 C   0  0  0  0  0  2  0  0  0  0  0  0
  196.6500  174.9840  135.9540 C   0  0  0  0  0  3  0  0  0  0  0  0
  194.9320  177.0560  135.1890 C   0  0  0  0  0  3  0  0  0  0  0  0
  196.3020  177.1490  134.9230 C   0  0  0  0  0  3  0  0  0  0  0  0
  194.4200  175.9280  135.8420 C   0  0  0  0  0  0  0  0  0  0  0  0
  195.2800  174.8910  136.2210 C   0  0  0  0  0  3  0  0  0  0  0  0
  197.1610  176.1130  135.3070 C   0  0  0  0  0  3  0  0  0  0  0  0
  2 10  1  0  0  0  0
  3 11  2  0  0  0  0
  5  7  1  0  0  0  0
  6 14  2  0  0  0  0
  7  9  1  6  0  0  0
  8  2  2  0  0  0  0
  9  1  2  0  0  0  0
 10  4  2  0  0  0  0
 11  1  1  0  0  0  0
 11 10  1  0  0  0  0
 12  3  1  0  0  0  0
 12  8  1  0  0  0  0
 13  6  1  0  0  0  0
 13  5  2  0  0  0  0
 14  7  1  0  0  0  0
 14  3  1  0  0  0  0
 15  8  1  0  0  0  0
 15 16  1  0  0  0  0
 17  5  1  0  0  0  0
 18 17  2  0  0  0  0
 19 18  1  0  0  0  0
 19 20  1  0  0  0  0
 21  6  1  0  0  0  0
 22 21  1  0  0  0  0
 23 22  1  0  0  0  0
 23 24  1  1  0  0  0
 25 23  1  0  0  0  0
 26 25  1  0  0  0  0
 27 25  2  0  0  0  0
 28 30  1  0  0  0  0
 28 29  2  0  0  0  0
 30 27  1  0  0  0  0
 31 28  1  0  0  0  0
 32 36  1  0  0  0  0
 33 35  1  0  0  0  0
 34 33  2  0  0  0  0
 34 37  1  0  0  0  0
 35 31  1  0  0  0  0
 35 36  2  0  0  0  0
 37 32  2  0  0  0  0
M  END
>  <MODEL>
2

>  <REMARK>
 VINA RESULT:      -9.6      3.758      6.802
  Name = 
  10 active torsions:
  status: ('A' for Active; 'I' for Inactive)
    1  A    between atoms: C_1  and  C_32
    2  A    between atoms: O_4  and  C_21
    3  A    between atoms: O_5  and  C_29
    4  A    between atoms: C_7  and  C_24
    5  A    between atoms: C_7  and  C_25
    6  A    between atoms: N_10  and  C_17
    7  A    between atoms: N_10  and  C_25
    8  A    between atoms: N_12  and  N_33
    9  A    between atoms: C_14  and  C_27
   10  A    between atoms: C_22  and  C_32
                            x       y       z     vdW  Elec       q    Type
                         _______ _______ _______ _____ _____    ______ ____

>  <TORSDO>
F 10

$$$$
=
 OpenBabel11042412113D

 37 40  0  0  1  0  0  0  0  0999 V2000
  185.9940  178.3940  147.2790 C   0  0  0  0  0  3  0  0  0  0  0  0
  189.5750  177.3750  147.6100 N   0  0  0  0  0  0  0  0  0  0  0  0
  187.6600  177.8250  145.5360 C   0  0  0  0  0  0  0  0  0  0  0  0
  188.0010  178.0050  149.2020 O   0  0  0  0  0  0  0  0  0  0  0  0
  184.7390  178.5690  143.7340 C   0  0  0  0  0  0  0  0  0  0  0  0
  186.7880  177.8400  143.1100 C   0  0  0  0  0  0  0  0  0  0  0  0
  185.3750  178.3420  144.8740 C   0  0  2  0  0  3  0  0  0  0  0  0
  189.9790  177.2720  146.3740 C   0  0  0  0  0  0  0  0  0  0  0  0
  184.8960  178.6230  146.2660 C   0  0  0  0  0  3  0  0  0  0  0  0
  188.2710  177.8280  147.9840 C   0  0  0  0  0  0  0  0  0  0  0  0
  187.2540  178.0460  146.9480 C   0  0  0  0  0  0  0  0  0  0  0  0
  189.1210  177.7070  145.2120 C   0  0  0  0  0  2  0  0  0  0  0  0
  185.6250  178.2390  142.6050 C   0  0  0  0  0  3  0  0  0  0  0  0
  186.7230  177.9010  144.5790 C   0  0  0  0  0  0  0  0  0  0  0  0
  191.2600  176.7940  146.0910 O   0  0  0  0  0  0  0  0  0  0  0  0
  191.9970  176.0030  147.0120 C   0  0  0  0  0  1  0  0  0  0  0  0
  183.3680  179.0850  143.6290 C   0  0  0  0  0  3  0  0  0  0  0  0
  182.5950  178.8060  142.5820 C   0  0  0  0  0  3  0  0  0  0  0  0
  181.2890  179.2880  142.4610 O   0  0  0  0  0  0  0  0  0  0  0  0
  180.6330  179.4300  141.2070 C   0  0  0  0  0  1  0  0  0  0  0  0
  187.8270  177.2970  142.2920 N   0  0  0  0  0  2  0  0  0  0  0  0
  188.5360  178.0640  141.2820 C   0  0  0  0  0  2  0  0  0  0  0  0
  189.9460  177.5210  141.1090 C   0  0  1  0  0  3  0  0  0  0  0  0
  190.1530  176.3300  142.0250 C   0  0  0  0  0  1  0  0  0  0  0  0
  190.2110  177.1430  139.6840 C   0  0  0  0  0  0  0  0  0  0  0  0
  189.5400  177.8860  138.5680 C   0  0  0  0  0  1  0  0  0  0  0  0
  191.0420  176.1770  139.4410 N   0  0  0  0  0  0  0  0  0  0  0  0
  192.6580  175.9600  137.5960 C   0  0  0  0  0  0  0  0  0  0  0  0
  193.5620  176.4970  138.2880 O   0  0  0  0  0  0  0  0  0  0  0  0
  191.3490  175.7760  138.1330 N   0  0  0  0  0  2  0  0  0  0  0  0
  192.9450  175.5480  136.1920 C   0  0  0  0  0  2  0  0  0  0  0  0
  192.3780  171.9120  135.2830 C   0  0  0  0  0  3  0  0  0  0  0  0
  194.2030  173.4540  136.7390 C   0  0  0  0  0  3  0  0  0  0  0  0
  194.3750  172.0690  136.6480 C   0  0  0  0  0  3  0  0  0  0  0  0
  193.1170  174.0700  136.1060 C   0  0  0  0  0  0  0  0  0  0  0  0
  192.2060  173.2970  135.3750 C   0  0  0  0  0  3  0  0  0  0  0  0
  193.4610  171.2980  135.9210 C   0  0  0  0  0  3  0  0  0  0  0  0
  2 10  1  0  0  0  0
  3 11  2  0  0  0  0
  5  7  1  0  0  0  0
  6 14  2  0  0  0  0
  7  9  1  1  0  0  0
  8  2  2  0  0  0  0
  9  1  2  0  0  0  0
 10  4  2  0  0  0  0
 11  1  1  0  0  0  0
 11 10  1  0  0  0  0
 12  3  1  0  0  0  0
 12  8  1  0  0  0  0
 13  6  1  0  0  0  0
 13  5  2  0  0  0  0
 14  7  1  0  0  0  0
 14  3  1  0  0  0  0
 15  8  1  0  0  0  0
 15 16  1  0  0  0  0
 17  5  1  0  0  0  0
 18 17  2  0  0  0  0
 19 18  1  0  0  0  0
 20 19  1  0  0  0  0
 21  6  1  0  0  0  0
 22 21  1  0  0  0  0
 23 22  1  0  0  0  0
 23 24  1  1  0  0  0
 25 23  1  0  0  0  0
 26 25  1  0  0  0  0
 27 25  2  0  0  0  0
 28 30  1  0  0  0  0
 28 29  2  0  0  0  0
 30 27  1  0  0  0  0
 31 28  1  0  0  0  0
 32 36  2  0  0  0  0
 32 37  1  0  0  0  0
 34 33  1  0  0  0  0
 35 31  1  0  0  0  0
 35 33  2  0  0  0  0
 36 35  1  0  0  0  0
 37 34  2  0  0  0  0
M  END
>  <MODEL>
3

>  <REMARK>
 VINA RESULT:      -9.3      3.479      6.148
  Name = 
  10 active torsions:
  status: ('A' for Active; 'I' for Inactive)
    1  A    between atoms: C_1  and  C_32
    2  A    between atoms: O_4  and  C_21
    3  A    between atoms: O_5  and  C_29
    4  A    between atoms: C_7  and  C_24
    5  A    between atoms: C_7  and  C_25
    6  A    between atoms: N_10  and  C_17
    7  A    between atoms: N_10  and  C_25
    8  A    between atoms: N_12  and  N_33
    9  A    between atoms: C_14  and  C_27
   10  A    between atoms: C_22  and  C_32
                            x       y       z     vdW  Elec       q    Type
                         _______ _______ _______ _____ _____    ______ ____

>  <TORSDO>
F 10

$$$$
=
 OpenBabel11042412113D

 37 40  0  0  1  0  0  0  0  0999 V2000
  186.9340  178.0040  147.0490 C   0  0  0  0  0  3  0  0  0  0  0  0
  184.5540  178.7080  144.2540 N   0  0  0  0  0  0  0  0  0  0  0  0
  187.2960  177.9750  144.5990 C   0  0  0  0  0  0  0  0  0  0  0  0
  184.2440  178.6340  146.5580 O   0  0  0  0  0  0  0  0  0  0  0  0
  190.4250  177.1230  145.9480 C   0  0  0  0  0  0  0  0  0  0  0  0
  189.7050  177.4750  143.8310 C   0  0  0  0  0  0  0  0  0  0  0  0
  189.1770  177.5490  146.0840 C   0  0  0  0  0  0  0  0  0  0  0  0
  185.2630  178.4750  143.1840 C   0  0  0  0  0  0  0  0  0  0  0  0
  188.3750  177.6540  147.3460 C   0  0  0  0  0  2  0  0  0  0  0  0
  185.0310  178.4900  145.5850 C   0  0  0  0  0  0  0  0  0  0  0  0
  186.4400  178.1370  145.8020 C   0  0  0  0  0  0  0  0  0  0  0  0
  186.6410  177.8670  143.2520 C   0  0  0  0  0  2  0  0  0  0  0  0
  190.7750  177.0860  144.5180 C   0  0  0  0  0  3  0  0  0  0  0  0
  188.6110  177.7700  144.7700 C   0  0  0  0  0  0  0  0  0  0  0  0
  184.7340  178.7430  141.9200 O   0  0  0  0  0  0  0  0  0  0  0  0
  183.3590  178.5600  141.6170 C   0  0  0  0  0  1  0  0  0  0  0  0
  191.3030  176.7370  147.0590 C   0  0  0  0  0  3  0  0  0  0  0  0
  192.2210  175.7820  146.9240 C   0  0  0  0  0  3  0  0  0  0  0  0
  193.0660  175.3970  147.9690 O   0  0  0  0  0  0  0  0  0  0  0  0
  193.2290  176.1680  149.1520 C   0  0  0  0  0  1  0  0  0  0  0  0
  189.7470  177.7020  142.4210 N   0  0  0  0  0  2  0  0  0  0  0  0
  189.7950  176.6340  141.4370 C   0  0  0  0  0  2  0  0  0  0  0  0
  189.1050  177.0730  140.1560 C   0  0  1  0  0  3  0  0  0  0  0  0
  188.8120  178.5610  140.2140 C   0  0  0  0  0  1  0  0  0  0  0  0
  189.9340  176.7450  138.9520 C   0  0  0  0  0  0  0  0  0  0  0  0
  189.6700  177.4290  137.6450 C   0  0  0  0  0  1  0  0  0  0  0  0
  190.8880  175.8750  139.0710 N   0  0  0  0  0  0  0  0  0  0  0  0
  193.0680  175.9670  137.9300 C   0  0  0  0  0  0  0  0  0  0  0  0
  193.5480  176.6870  138.8450 O   0  0  0  0  0  0  0  0  0  0  0  0
  191.7130  175.5260  137.9920 N   0  0  0  0  0  2  0  0  0  0  0  0
  193.9100  175.6020  136.7550 C   0  0  0  0  0  2  0  0  0  0  0  0
  194.4360  171.9400  135.9340 C   0  0  0  0  0  3  0  0  0  0  0  0
  195.1410  173.7670  137.9320 C   0  0  0  0  0  3  0  0  0  0  0  0
  195.5710  172.4390  138.0160 C   0  0  0  0  0  3  0  0  0  0  0  0
  194.3550  174.1830  136.8510 C   0  0  0  0  0  0  0  0  0  0  0  0
  194.0060  173.2680  135.8500 C   0  0  0  0  0  3  0  0  0  0  0  0
  195.2170  171.5250  137.0170 C   0  0  0  0  0  3  0  0  0  0  0  0
  1  9  1  0  0  0  0
  2 10  1  0  0  0  0
  3 14  2  0  0  0  0
  3 11  1  0  0  0  0
  5  7  2  0  0  0  0
  5 17  1  0  0  0  0
  6 13  2  0  0  0  0
  6 14  1  0  0  0  0
  7  9  1  0  0  0  0
  8 12  1  0  0  0  0
  8  2  2  0  0  0  0
 10 11  1  0  0  0  0
 10  4  2  0  0  0  0
 11  1  2  0  0  0  0
 12  3  1  0  0  0  0
 13  5  1  0  0  0  0
 14  7  1  0  0  0  0
 15  8  1  0  0  0  0
 16 15  1  0  0  0  0
 18 17  2  0  0  0  0
 18 19  1  0  0  0  0
 19 20  1  0  0  0  0
 21  6  1  0  0  0  0
 22 21  1  0  0  0  0
 23 24  1  1  0  0  0
 23 22  1  0  0  0  0
 25 27  2  0  0  0  0
 25 23  1  0  0  0  0
 26 25  1  0  0  0  0
 28 30  1  0  0  0  0
 28 29  2  0  0  0  0
 30 27  1  0  0  0  0
 31 35  1  0  0  0  0
 31 28  1  0  0  0  0
 32 37  1  0  0  0  0
 33 34  1  0  0  0  0
 35 33  2  0  0  0  0
 36 32  2  0  0  0  0
 36 35  1  0  0  0  0
 37 34  2  0  0  0  0
M  END
>  <MODEL>
4

>  <REMARK>
 VINA RESULT:      -9.1      3.873      8.408
  Name = 
  10 active torsions:
  status: ('A' for Active; 'I' for Inactive)
    1  A    between atoms: C_1  and  C_32
    2  A    between atoms: O_4  and  C_21
    3  A    between atoms: O_5  and  C_29
    4  A    between atoms: C_7  and  C_24
    5  A    between atoms: C_7  and  C_25
    6  A    between atoms: N_10  and  C_17
    7  A    between atoms: N_10  and  C_25
    8  A    between atoms: N_12  and  N_33
    9  A    between atoms: C_14  and  C_27
   10  A    between atoms: C_22  and  C_32
                            x       y       z     vdW  Elec       q    Type
                         _______ _______ _______ _____ _____    ______ ____

>  <TORSDO>
F 10

$$$$
=
 OpenBabel11042412113D

 37 40  0  0  1  0  0  0  0  0999 V2000
  185.9060  178.2120  147.3340 C   0  0  0  0  0  3  0  0  0  0  0  0
  189.5330  177.3500  147.6060 N   0  0  0  0  0  0  0  0  0  0  0  0
  187.5950  177.8340  145.5620 C   0  0  0  0  0  0  0  0  0  0  0  0
  187.9320  177.8020  149.2320 O   0  0  0  0  0  0  0  0  0  0  0  0
  184.6380  178.5450  143.8050 C   0  0  0  0  0  0  0  0  0  0  0  0
  186.7200  177.9570  143.1400 C   0  0  0  0  0  0  0  0  0  0  0  0
  185.2870  178.2790  144.9300 C   0  0  2  0  0  3  0  0  0  0  0  0
  189.9390  177.3440  146.3670 C   0  0  0  0  0  0  0  0  0  0  0  0
  184.7960  178.4490  146.3360 C   0  0  0  0  0  3  0  0  0  0  0  0
  188.2090  177.7150  148.0060 C   0  0  0  0  0  0  0  0  0  0  0  0
  187.1810  177.9470  146.9840 C   0  0  0  0  0  0  0  0  0  0  0  0
  189.0590  177.8070  145.2330 C   0  0  0  0  0  2  0  0  0  0  0  0
  185.5380  178.3300  142.6600 C   0  0  0  0  0  3  0  0  0  0  0  0
  186.6530  177.9230  144.6100 C   0  0  0  0  0  0  0  0  0  0  0  0
  191.2420  176.9470  146.0560 O   0  0  0  0  0  0  0  0  0  0  0  0
  191.9590  176.0090  146.8460 C   0  0  0  0  0  1  0  0  0  0  0  0
  183.2440  178.9990  143.7300 C   0  0  0  0  0  3  0  0  0  0  0  0
  182.5160  178.8430  142.6260 C   0  0  0  0  0  3  0  0  0  0  0  0
  181.1890  179.2690  142.5330 O   0  0  0  0  0  0  0  0  0  0  0  0
  180.1150  178.5930  143.1750 C   0  0  0  0  0  1  0  0  0  0  0  0
  187.7830  177.5170  142.2920 N   0  0  0  0  0  2  0  0  0  0  0  0
  188.7300  178.4190  141.6590 C   0  0  0  0  0  2  0  0  0  0  0  0
  189.9120  177.6350  141.1130 C   0  0  1  0  0  3  0  0  0  0  0  0
  190.1260  176.3830  141.9440 C   0  0  0  0  0  1  0  0  0  0  0  0
  189.7120  177.2840  139.6710 C   0  0  0  0  0  0  0  0  0  0  0  0
  190.6510  176.3370  138.9870 C   0  0  0  0  0  1  0  0  0  0  0  0
  188.7050  177.8010  139.0380 N   0  0  0  0  0  0  0  0  0  0  0  0
  187.3860  178.1560  136.9890 C   0  0  0  0  0  0  0  0  0  0  0  0
  186.6550  179.0000  137.5720 O   0  0  0  0  0  0  0  0  0  0  0  0
  188.4460  177.5090  137.6910 N   0  0  0  0  0  2  0  0  0  0  0  0
  187.1200  177.8030  135.5650 C   0  0  0  0  0  2  0  0  0  0  0  0
  187.0630  174.1260  134.6480 C   0  0  0  0  0  3  0  0  0  0  0  0
  185.5070  175.9580  136.0790 C   0  0  0  0  0  3  0  0  0  0  0  0
  185.1050  174.6220  135.9870 C   0  0  0  0  0  3  0  0  0  0  0  0
  186.6850  176.3820  135.4530 C   0  0  0  0  0  0  0  0  0  0  0  0
  187.4640  175.4620  134.7400 C   0  0  0  0  0  3  0  0  0  0  0  0
  185.8830  173.7060  135.2690 C   0  0  0  0  0  3  0  0  0  0  0  0
  2 10  1  0  0  0  0
  3 11  2  0  0  0  0
  5  7  1  0  0  0  0
  6 14  2  0  0  0  0
  7  9  1  1  0  0  0
  8  2  2  0  0  0  0
  9  1  2  0  0  0  0
 10  4  2  0  0  0  0
 11  1  1  0  0  0  0
 11 10  1  0  0  0  0
 12  3  1  0  0  0  0
 12  8  1  0  0  0  0
 13  6  1  0  0  0  0
 13  5  2  0  0  0  0
 14  7  1  0  0  0  0
 14  3  1  0  0  0  0
 15  8  1  0  0  0  0
 15 16  1  0  0  0  0
 17  5  1  0  0  0  0
 18 17  2  0  0  0  0
 19 18  1  0  0  0  0
 19 20  1  0  0  0  0
 21  6  1  0  0  0  0
 22 21  1  0  0  0  0
 23 22  1  0  0  0  0
 23 24  1  1  0  0  0
 25 23  1  0  0  0  0
 26 25  1  0  0  0  0
 27 25  2  0  0  0  0
 28 29  2  0  0  0  0
 28 30  1  0  0  0  0
 30 27  1  0  0  0  0
 31 28  1  0  0  0  0
 32 36  2  0  0  0  0
 32 37  1  0  0  0  0
 34 33  1  0  0  0  0
 35 31  1  0  0  0  0
 35 33  2  0  0  0  0
 36 35  1  0  0  0  0
 37 34  2  0  0  0  0
M  END
>  <MODEL>
5

>  <REMARK>
 VINA RESULT:      -9.0      2.011      3.110
  Name = 
  10 active torsions:
  status: ('A' for Active; 'I' for Inactive)
    1  A    between atoms: C_1  and  C_32
    2  A    between atoms: O_4  and  C_21
    3  A    between atoms: O_5  and  C_29
    4  A    between atoms: C_7  and  C_24
    5  A    between atoms: C_7  and  C_25
    6  A    between atoms: N_10  and  C_17
    7  A    between atoms: N_10  and  C_25
    8  A    between atoms: N_12  and  N_33
    9  A    between atoms: C_14  and  C_27
   10  A    between atoms: C_22  and  C_32
                            x       y       z     vdW  Elec       q    Type
                         _______ _______ _______ _____ _____    ______ ____

>  <TORSDO>
F 10

$$$$
=
 OpenBabel11042412113D

 37 40  0  0  1  0  0  0  0  0999 V2000
  186.8140  177.9910  147.1940 C   0  0  0  0  0  3  0  0  0  0  0  0
  184.5700  178.7290  144.2980 N   0  0  0  0  0  0  0  0  0  0  0  0
  187.2920  177.9910  144.7640 C   0  0  0  0  0  0  0  0  0  0  0  0
  184.1510  178.6280  146.5830 O   0  0  0  0  0  0  0  0  0  0  0  0
  190.3540  177.1220  146.2500 C   0  0  0  0  0  0  0  0  0  0  0  0
  189.7350  177.4990  144.1060 C   0  0  0  0  0  0  0  0  0  0  0  0
  189.1000  177.5460  146.3310 C   0  0  0  0  0  0  0  0  0  0  0  0
  185.3290  178.5090  143.2600 C   0  0  0  0  0  0  0  0  0  0  0  0
  188.2390  177.6360  147.5550 C   0  0  0  0  0  2  0  0  0  0  0  0
  184.9830  178.4950  145.6470 C   0  0  0  0  0  0  0  0  0  0  0  0
  186.3800  178.1380  145.9270 C   0  0  0  0  0  0  0  0  0  0  0  0
  186.7030  177.8990  143.3860 C   0  0  0  0  0  2  0  0  0  0  0  0
  190.7710  177.1020  144.8380 C   0  0  0  0  0  3  0  0  0  0  0  0
  188.5980  177.7830  144.9950 C   0  0  0  0  0  0  0  0  0  0  0  0
  184.8610  178.7920  141.9750 O   0  0  0  0  0  0  0  0  0  0  0  0
  185.7350  178.9870  140.8730 C   0  0  0  0  0  1  0  0  0  0  0  0
  191.1780  176.7220  147.3960 C   0  0  0  0  0  3  0  0  0  0  0  0
  192.2070  175.8880  147.2600 C   0  0  0  0  0  3  0  0  0  0  0  0
  193.0040  175.4920  148.3380 O   0  0  0  0  0  0  0  0  0  0  0  0
  193.4320  176.3930  149.3510 C   0  0  0  0  0  1  0  0  0  0  0  0
  189.8450  177.7440  142.7010 N   0  0  0  0  0  2  0  0  0  0  0  0
  190.4070  176.7880  141.7620 C   0  0  0  0  0  2  0  0  0  0  0  0
  190.7880  177.4900  140.4690 C   0  0  1  0  0  3  0  0  0  0  0  0
  192.2700  177.3070  140.2020 C   0  0  0  0  0  1  0  0  0  0  0  0
  189.9780  176.9820  139.3160 C   0  0  0  0  0  0  0  0  0  0  0  0
  190.5630  175.9840  138.3640 C   0  0  0  0  0  1  0  0  0  0  0  0
  188.7620  177.4110  139.1730 N   0  0  0  0  0  0  0  0  0  0  0  0
  187.3970  177.8920  137.1810 C   0  0  0  0  0  0  0  0  0  0  0  0
  187.6430  179.1240  137.2760 O   0  0  0  0  0  0  0  0  0  0  0  0
  187.9400  176.9720  138.1260 N   0  0  0  0  0  2  0  0  0  0  0  0
  186.5030  177.3960  136.0960 C   0  0  0  0  0  2  0  0  0  0  0  0
  183.3770  176.5480  138.0620 C   0  0  0  0  0  3  0  0  0  0  0  0
  185.1730  175.2890  136.3250 C   0  0  0  0  0  3  0  0  0  0  0  0
  184.0910  174.5740  136.8520 C   0  0  0  0  0  3  0  0  0  0  0  0
  185.3600  176.6320  136.6700 C   0  0  0  0  0  0  0  0  0  0  0  0
  184.4580  177.2620  137.5360 C   0  0  0  0  0  3  0  0  0  0  0  0
  183.1940  175.2040  137.7220 C   0  0  0  0  0  3  0  0  0  0  0  0
  1  9  1  0  0  0  0
  2 10  1  0  0  0  0
  3 14  2  0  0  0  0
  3 11  1  0  0  0  0
  5  7  2  0  0  0  0
  5 17  1  0  0  0  0
  6 13  2  0  0  0  0
  6 14  1  0  0  0  0
  7  9  1  0  0  0  0
  8 12  1  0  0  0  0
  8  2  2  0  0  0  0
 10 11  1  0  0  0  0
 10  4  2  0  0  0  0
 11  1  2  0  0  0  0
 12  3  1  0  0  0  0
 13  5  1  0  0  0  0
 14  7  1  0  0  0  0
 15  8  1  0  0  0  0
 16 15  1  0  0  0  0
 18 17  2  0  0  0  0
 18 19  1  0  0  0  0
 19 20  1  0  0  0  0
 21  6  1  0  0  0  0
 22 21  1  0  0  0  0
 23 24  1  6  0  0  0
 23 22  1  0  0  0  0
 25 23  1  0  0  0  0
 26 25  1  0  0  0  0
 27 25  2  0  0  0  0
 28 29  2  0  0  0  0
 28 30  1  0  0  0  0
 30 27  1  0  0  0  0
 31 35  1  0  0  0  0
 31 28  1  0  0  0  0
 33 35  2  0  0  0  0
 33 34  1  0  0  0  0
 34 37  2  0  0  0  0
 35 36  1  0  0  0  0
 36 32  2  0  0  0  0
 37 32  1  0  0  0  0
M  END
>  <MODEL>
6

>  <REMARK>
 VINA RESULT:      -9.0      2.370      5.589
  Name = 
  10 active torsions:
  status: ('A' for Active; 'I' for Inactive)
    1  A    between atoms: C_1  and  C_32
    2  A    between atoms: O_4  and  C_21
    3  A    between atoms: O_5  and  C_29
    4  A    between atoms: C_7  and  C_24
    5  A    between atoms: C_7  and  C_25
    6  A    between atoms: N_10  and  C_17
    7  A    between atoms: N_10  and  C_25
    8  A    between atoms: N_12  and  N_33
    9  A    between atoms: C_14  and  C_27
   10  A    between atoms: C_22  and  C_32
                            x       y       z     vdW  Elec       q    Type
                         _______ _______ _______ _____ _____    ______ ____

>  <TORSDO>
F 10

$$$$
=
 OpenBabel11042412113D

 37 40  0  0  1  0  0  0  0  0999 V2000
  186.1660  178.1990  147.3190 C   0  0  0  0  0  3  0  0  0  0  0  0
  189.8100  177.3760  147.2040 N   0  0  0  0  0  0  0  0  0  0  0  0
  187.6730  177.8930  145.3770 C   0  0  0  0  0  0  0  0  0  0  0  0
  188.3750  177.7610  148.9930 O   0  0  0  0  0  0  0  0  0  0  0  0
  184.5490  178.6160  143.9440 C   0  0  0  0  0  0  0  0  0  0  0  0
  186.5600  178.0740  143.0590 C   0  0  0  0  0  0  0  0  0  0  0  0
  185.3090  178.3270  144.9910 C   0  0  2  0  0  3  0  0  0  0  0  0
  190.0900  177.4100  145.9310 C   0  0  0  0  0  0  0  0  0  0  0  0
  184.9590  178.4510  146.4440 C   0  0  0  0  0  3  0  0  0  0  0  0
  188.5290  177.7120  147.7440 C   0  0  0  0  0  0  0  0  0  0  0  0
  187.4010  177.9600  146.8360 C   0  0  0  0  0  0  0  0  0  0  0  0
  189.0970  177.8940  144.9040 C   0  0  0  0  0  2  0  0  0  0  0  0
  185.3320  178.4450  142.7100 C   0  0  0  0  0  3  0  0  0  0  0  0
  186.6400  177.9970  144.5270 C   0  0  0  0  0  0  0  0  0  0  0  0
  191.3590  177.0380  145.4810 O   0  0  0  0  0  0  0  0  0  0  0  0
  192.1110  176.0030  146.0980 C   0  0  0  0  0  1  0  0  0  0  0  0
  183.1500  179.0550  144.0220 C   0  0  0  0  0  3  0  0  0  0  0  0
  182.3390  178.9930  142.9690 C   0  0  0  0  0  3  0  0  0  0  0  0
  181.0050  179.4060  143.0200 O   0  0  0  0  0  0  0  0  0  0  0  0
  179.9130  178.4990  142.9370 C   0  0  0  0  0  1  0  0  0  0  0  0
  187.5370  177.6710  142.0970 N   0  0  0  0  0  2  0  0  0  0  0  0
  188.1780  178.5910  141.1710 C   0  0  0  0  0  2  0  0  0  0  0  0
  189.2900  177.8810  140.4170 C   0  0  1  0  0  3  0  0  0  0  0  0
  189.8490  176.7550  141.2670 C   0  0  0  0  0  1  0  0  0  0  0  0
  188.8050  177.3570  139.1010 C   0  0  0  0  0  0  0  0  0  0  0  0
  187.6390  178.0010  138.4150 C   0  0  0  0  0  1  0  0  0  0  0  0
  189.4230  176.3500  138.5650 N   0  0  0  0  0  0  0  0  0  0  0  0
  189.5370  174.5540  136.8850 C   0  0  0  0  0  0  0  0  0  0  0  0
  190.3490  173.9040  137.5940 O   0  0  0  0  0  0  0  0  0  0  0  0
  189.0350  175.8130  137.3300 N   0  0  0  0  0  2  0  0  0  0  0  0
  189.1260  174.0240  135.5530 C   0  0  0  0  0  2  0  0  0  0  0  0
  186.7200  171.1350  135.0760 C   0  0  0  0  0  3  0  0  0  0  0  0
  186.9070  173.4870  136.5800 C   0  0  0  0  0  3  0  0  0  0  0  0
  185.7900  172.6560  136.7180 C   0  0  0  0  0  3  0  0  0  0  0  0
  187.9300  173.1460  135.6870 C   0  0  0  0  0  0  0  0  0  0  0  0
  187.8360  171.9660  134.9380 C   0  0  0  0  0  3  0  0  0  0  0  0
  185.6970  171.4800  135.9640 C   0  0  0  0  0  3  0  0  0  0  0  0
  2 10  1  0  0  0  0
  3 11  2  0  0  0  0
  5 17  1  0  0  0  0
  5  7  1  0  0  0  0
  6 14  2  0  0  0  0
  7  9  1  1  0  0  0
  8  2  2  0  0  0  0
  9  1  2  0  0  0  0
 10  4  2  0  0  0  0
 11  1  1  0  0  0  0
 11 10  1  0  0  0  0
 12  3  1  0  0  0  0
 12  8  1  0  0  0  0
 13  6  1  0  0  0  0
 13  5  2  0  0  0  0
 14  7  1  0  0  0  0
 14  3  1  0  0  0  0
 15  8  1  0  0  0  0
 15 16  1  0  0  0  0
 18 19  1  0  0  0  0
 18 17  2  0  0  0  0
 20 19  1  0  0  0  0
 21  6  1  0  0  0  0
 22 21  1  0  0  0  0
 23 22  1  0  0  0  0
 23 24  1  1  0  0  0
 25 23  1  0  0  0  0
 26 25  1  0  0  0  0
 27 25  2  0  0  0  0
 28 30  1  0  0  0  0
 28 29  2  0  0  0  0
 30 27  1  0  0  0  0
 31 35  1  0  0  0  0
 31 28  1  0  0  0  0
 32 37  1  0  0  0  0
 33 34  1  0  0  0  0
 35 33  2  0  0  0  0
 36 32  2  0  0  0  0
 36 35  1  0  0  0  0
 37 34  2  0  0  0  0
M  END
>  <MODEL>
7

>  <REMARK>
 VINA RESULT:      -8.7      2.862      4.143
  Name = 
  10 active torsions:
  status: ('A' for Active; 'I' for Inactive)
    1  A    between atoms: C_1  and  C_32
    2  A    between atoms: O_4  and  C_21
    3  A    between atoms: O_5  and  C_29
    4  A    between atoms: C_7  and  C_24
    5  A    between atoms: C_7  and  C_25
    6  A    between atoms: N_10  and  C_17
    7  A    between atoms: N_10  and  C_25
    8  A    between atoms: N_12  and  N_33
    9  A    between atoms: C_14  and  C_27
   10  A    between atoms: C_22  and  C_32
                            x       y       z     vdW  Elec       q    Type
                         _______ _______ _______ _____ _____    ______ ____

>  <TORSDO>
F 10

$$$$
=
 OpenBabel11042412113D

 37 40  0  0  1  0  0  0  0  0999 V2000
  186.4600  178.2710  146.4600 C   0  0  0  0  0  3  0  0  0  0  0  0
  183.7560  178.7260  143.9200 N   0  0  0  0  0  0  0  0  0  0  0  0
  186.4840  177.8760  144.0160 C   0  0  0  0  0  0  0  0  0  0  0  0
  183.7590  178.9950  146.2300 O   0  0  0  0  0  0  0  0  0  0  0  0
  189.7270  177.0250  145.0630 C   0  0  0  0  0  0  0  0  0  0  0  0
  188.7420  177.1210  143.0280 C   0  0  0  0  0  0  0  0  0  0  0  0
  188.5280  177.5430  145.2940 C   0  0  0  0  0  0  0  0  0  0  0  0
  184.3020  178.3000  142.8140 C   0  0  0  0  0  0  0  0  0  0  0  0
  187.9100  177.8750  146.6190 C   0  0  0  0  0  2  0  0  0  0  0  0
  184.3990  178.6660  145.1960 C   0  0  0  0  0  0  0  0  0  0  0  0
  185.8070  178.2580  145.2810 C   0  0  0  0  0  0  0  0  0  0  0  0
  185.6480  177.6220  142.7940 C   0  0  0  0  0  2  0  0  0  0  0  0
  189.8770  176.7660  143.6220 C   0  0  0  0  0  3  0  0  0  0  0  0
  187.7990  177.6140  144.0450 C   0  0  0  0  0  0  0  0  0  0  0  0
  183.6180  178.4210  141.6020 O   0  0  0  0  0  0  0  0  0  0  0  0
  183.7620  177.4760  140.5520 C   0  0  0  0  0  1  0  0  0  0  0  0
  190.7300  176.7430  146.0970 C   0  0  0  0  0  3  0  0  0  0  0  0
  191.6770  175.8250  145.9200 C   0  0  0  0  0  3  0  0  0  0  0  0
  192.6400  175.5390  146.8910 O   0  0  0  0  0  0  0  0  0  0  0  0
  192.5120  175.9470  148.2470 C   0  0  0  0  0  1  0  0  0  0  0  0
  188.6020  177.1450  141.6050 N   0  0  0  0  0  2  0  0  0  0  0  0
  188.7610  178.3470  140.8040 C   0  0  0  0  0  2  0  0  0  0  0  0
  189.5880  178.0430  139.5650 C   0  0  1  0  0  3  0  0  0  0  0  0
  190.7940  177.2040  139.9460 C   0  0  0  0  0  1  0  0  0  0  0  0
  188.7680  177.3450  138.5230 C   0  0  0  0  0  0  0  0  0  0  0  0
  187.4260  177.8860  138.1310 C   0  0  0  0  0  1  0  0  0  0  0  0
  189.2500  176.2800  137.9620 N   0  0  0  0  0  0  0  0  0  0  0  0
  188.8290  174.2090  136.6980 C   0  0  0  0  0  0  0  0  0  0  0  0
  189.7250  173.6020  137.3400 O   0  0  0  0  0  0  0  0  0  0  0  0
  188.5470  175.5810  136.9710 N   0  0  0  0  0  2  0  0  0  0  0  0
  188.0820  173.5030  135.6180 C   0  0  0  0  0  2  0  0  0  0  0  0
  185.0010  173.0870  137.7860 C   0  0  0  0  0  3  0  0  0  0  0  0
  186.0300  172.0890  135.3830 C   0  0  0  0  0  3  0  0  0  0  0  0
  184.7850  171.6500  135.8470 C   0  0  0  0  0  3  0  0  0  0  0  0
  186.7630  173.0240  136.1220 C   0  0  0  0  0  0  0  0  0  0  0  0
  186.2460  173.5260  137.3230 C   0  0  0  0  0  3  0  0  0  0  0  0
  184.2720  172.1490  137.0500 C   0  0  0  0  0  3  0  0  0  0  0  0
  1  9  1  0  0  0  0
  2 10  1  0  0  0  0
  3 14  2  0  0  0  0
  3 11  1  0  0  0  0
  5  7  2  0  0  0  0
  5 17  1  0  0  0  0
  6 13  2  0  0  0  0
  6 14  1  0  0  0  0
  7  9  1  0  0  0  0
  8  2  2  0  0  0  0
 10 11  1  0  0  0  0
 10  4  2  0  0  0  0
 11  1  2  0  0  0  0
 12  8  1  0  0  0  0
 12  3  1  0  0  0  0
 13  5  1  0  0  0  0
 14  7  1  0  0  0  0
 15  8  1  0  0  0  0
 16 15  1  0  0  0  0
 18 17  2  0  0  0  0
 18 19  1  0  0  0  0
 19 20  1  0  0  0  0
 21  6  1  0  0  0  0
 22 21  1  0  0  0  0
 23 24  1  1  0  0  0
 23 22  1  0  0  0  0
 25 23  1  0  0  0  0
 26 25  1  0  0  0  0
 27 25  2  0  0  0  0
 28 30  1  0  0  0  0
 28 29  2  0  0  0  0
 30 27  1  0  0  0  0
 31 35  1  0  0  0  0
 31 28  1  0  0  0  0
 33 34  2  0  0  0  0
 33 35  1  0  0  0  0
 34 37  1  0  0  0  0
 35 36  2  0  0  0  0
 36 32  1  0  0  0  0
 37 32  2  0  0  0  0
M  END
>  <MODEL>
8

>  <REMARK>
 VINA RESULT:      -8.6      3.154      6.252
  Name = 
  10 active torsions:
  status: ('A' for Active; 'I' for Inactive)
    1  A    between atoms: C_1  and  C_32
    2  A    between atoms: O_4  and  C_21
    3  A    between atoms: O_5  and  C_29
    4  A    between atoms: C_7  and  C_24
    5  A    between atoms: C_7  and  C_25
    6  A    between atoms: N_10  and  C_17
    7  A    between atoms: N_10  and  C_25
    8  A    between atoms: N_12  and  N_33
    9  A    between atoms: C_14  and  C_27
   10  A    between atoms: C_22  and  C_32
                            x       y       z     vdW  Elec       q    Type
                         _______ _______ _______ _____ _____    ______ ____

>  <TORSDO>
F 10

$$$$
=
 OpenBabel11042412113D

 37 40  0  0  1  0  0  0  0  0999 V2000
  186.3500  178.0140  146.5240 C   0  0  0  0  0  3  0  0  0  0  0  0
  189.8470  177.1030  147.4800 N   0  0  0  0  0  0  0  0  0  0  0  0
  188.3560  177.6830  145.1100 C   0  0  0  0  0  0  0  0  0  0  0  0
  187.9560  177.5130  148.7710 O   0  0  0  0  0  0  0  0  0  0  0  0
  185.8110  178.4890  142.8280 C   0  0  0  0  0  0  0  0  0  0  0  0
  187.9820  177.9030  142.5700 C   0  0  0  0  0  0  0  0  0  0  0  0
  186.2220  178.1750  144.0490 C   0  0  2  0  0  3  0  0  0  0  0  0
  190.4920  177.1380  146.3470 C   0  0  0  0  0  0  0  0  0  0  0  0
  185.4620  178.3000  145.3350 C   0  0  0  0  0  3  0  0  0  0  0  0
  188.4710  177.4680  147.6220 C   0  0  0  0  0  0  0  0  0  0  0  0
  187.6680  177.7480  146.4250 C   0  0  0  0  0  0  0  0  0  0  0  0
  189.8570  177.6520  145.0790 C   0  0  0  0  0  2  0  0  0  0  0  0
  186.9200  178.3060  141.8780 C   0  0  0  0  0  3  0  0  0  0  0  0
  187.6240  177.8170  143.9940 C   0  0  0  0  0  0  0  0  0  0  0  0
  191.8290  176.7380  146.2870 O   0  0  0  0  0  0  0  0  0  0  0  0
  192.3600  175.7330  147.1380 C   0  0  0  0  0  1  0  0  0  0  0  0
  184.4620  178.9610  142.4950 C   0  0  0  0  0  3  0  0  0  0  0  0
  183.6310  178.2340  141.7520 C   0  0  0  0  0  3  0  0  0  0  0  0
  182.3430  178.6640  141.4220 O   0  0  0  0  0  0  0  0  0  0  0  0
  182.0030  179.1600  140.1330 C   0  0  0  0  0  1  0  0  0  0  0  0
  189.1910  177.4820  141.9330 N   0  0  0  0  0  2  0  0  0  0  0  0
  189.2280  176.8200  140.6400 C   0  0  0  0  0  2  0  0  0  0  0  0
  189.8390  177.7440  139.5990 C   0  0  1  0  0  3  0  0  0  0  0  0
  191.0690  177.0940  138.9940 C   0  0  0  0  0  1  0  0  0  0  0  0
  188.8470  178.0910  138.5310 C   0  0  0  0  0  0  0  0  0  0  0  0
  189.2270  179.0260  137.4230 C   0  0  0  0  0  1  0  0  0  0  0  0
  187.6670  177.5540  138.5790 N   0  0  0  0  0  0  0  0  0  0  0  0
  186.3430  176.8470  136.6280 C   0  0  0  0  0  0  0  0  0  0  0  0
  186.9160  175.7260  136.6100 O   0  0  0  0  0  0  0  0  0  0  0  0
  186.6910  177.8220  137.6100 N   0  0  0  0  0  2  0  0  0  0  0  0
  185.3210  177.1730  135.5930 C   0  0  0  0  0  2  0  0  0  0  0  0
  182.3280  174.8910  136.0370 C   0  0  0  0  0  3  0  0  0  0  0  0
  183.1320  177.4680  136.7710 C   0  0  0  0  0  3  0  0  0  0  0  0
  181.8810  176.9860  137.1690 C   0  0  0  0  0  3  0  0  0  0  0  0
  183.9820  176.6640  136.0030 C   0  0  0  0  0  0  0  0  0  0  0  0
  183.5790  175.3730  135.6390 C   0  0  0  0  0  3  0  0  0  0  0  0
  181.4790  175.6980  136.8000 C   0  0  0  0  0  3  0  0  0  0  0  0
  2 10  1  0  0  0  0
  3 11  2  0  0  0  0
  5  7  1  0  0  0  0
  6 14  2  0  0  0  0
  7  9  1  1  0  0  0
  8  2  2  0  0  0  0
  9  1  2  0  0  0  0
 10  4  2  0  0  0  0
 11  1  1  0  0  0  0
 11 10  1  0  0  0  0
 12  3  1  0  0  0  0
 12  8  1  0  0  0  0
 13  6  1  0  0  0  0
 13  5  2  0  0  0  0
 14  7  1  0  0  0  0
 14  3  1  0  0  0  0
 15  8  1  0  0  0  0
 15 16  1  0  0  0  0
 17  5  1  0  0  0  0
 18 17  2  0  0  0  0
 19 18  1  0  0  0  0
 20 19  1  0  0  0  0
 21  6  1  0  0  0  0
 22 21  1  0  0  0  0
 23 24  1  6  0  0  0
 23 22  1  0  0  0  0
 25 27  2  0  0  0  0
 25 23  1  0  0  0  0
 26 25  1  0  0  0  0
 28 30  1  0  0  0  0
 29 28  2  0  0  0  0
 30 27  1  0  0  0  0
 31 35  1  0  0  0  0
 31 28  1  0  0  0  0
 32 37  1  0  0  0  0
 33 34  1  0  0  0  0
 35 33  2  0  0  0  0
 36 35  1  0  0  0  0
 36 32  2  0  0  0  0
 37 34  2  0  0  0  0
M  END
>  <MODEL>
9

>  <REMARK>
 VINA RESULT:      -8.6      1.947      2.364
  Name = 
  10 active torsions:
  status: ('A' for Active; 'I' for Inactive)
    1  A    between atoms: C_1  and  C_32
    2  A    between atoms: O_4  and  C_21
    3  A    between atoms: O_5  and  C_29
    4  A    between atoms: C_7  and  C_24
    5  A    between atoms: C_7  and  C_25
    6  A    between atoms: N_10  and  C_17
    7  A    between atoms: N_10  and  C_25
    8  A    between atoms: N_12  and  N_33
    9  A    between atoms: C_14  and  C_27
   10  A    between atoms: C_22  and  C_32
                            x       y       z     vdW  Elec       q    Type
                         _______ _______ _______ _____ _____    ______ ____

>  <TORSDO>
F 10

$$$$
