=
 OpenBabel11032420193D

 32 34  0  0  1  0  0  0  0  0999 V2000
  188.9490  176.8850  141.5980 C   0  0  1  0  0  3  0  0  0  0  0  0
  191.7620  178.6470  143.7300 C   0  0  0  0  0  2  0  0  0  0  0  0
  191.2560  178.1380  145.0880 C   0  0  2  0  0  3  0  0  0  0  0  0
  189.9970  177.0450  142.7030 C   0  0  1  0  0  3  0  0  0  0  0  0
  189.3290  177.3150  147.5050 C   0  0  1  0  0  0  0  0  0  0  0  0
  188.9610  177.8570  148.7350 O   0  0  0  0  0  1  0  0  0  0  0  0
  188.5020  176.2360  147.2430 F   0  0  0  0  0  0  0  0  0  0  0  0
  190.7650  175.7360  142.9230 C   0  0  0  0  0  2  0  0  0  0  0  0
  189.0990  178.3630  146.4400 C   0  0  0  0  0  3  0  0  0  0  0  0
  191.8000  175.7880  144.0520 C   0  0  0  0  0  2  0  0  0  0  0  0
  191.1790  176.0410  146.4000 C   0  0  0  0  0  3  0  0  0  0  0  0
  191.3610  176.6310  145.2170 C   0  0  0  0  0  0  0  0  0  0  0  0
  189.8880  178.6940  145.4020 C   0  0  0  0  0  3  0  0  0  0  0  0
  190.7740  176.8250  147.6130 C   0  0  0  0  0  2  0  0  0  0  0  0
  190.8860  178.2860  142.5160 C   0  0  0  0  0  2  0  0  0  0  0  0
  185.9300  178.2580  142.8600 C   0  0  0  0  0  0  0  0  0  0  0  0
  186.8950  177.3270  142.9500 N   0  0  0  0  0  0  0  0  0  0  0  0
  186.1540  179.0990  141.7870 C   0  0  0  0  0  3  0  0  0  0  0  0
  187.6900  177.6340  141.9090 C   0  0  0  0  0  0  0  0  0  0  0  0
  187.2630  178.6740  141.2280 O   0  0  0  0  0  0  0  0  0  0  0  0
  184.8940  178.8600  145.1080 C   0  0  0  0  0  0  0  0  0  0  0  0
  183.7180  178.8760  145.9070 N   0  0  0  0  0  1  0  0  0  0  0  0
  184.8330  178.3310  143.7800 N   0  0  0  0  0  2  0  0  0  0  0  0
  185.9710  179.3110  145.5800 O   0  0  0  0  0  0  0  0  0  0  0  0
  189.2190  178.2790  139.6600 O   0  0  0  0  0  0  0  0  0  0  0  0
  190.2380  176.1820  139.5450 N   0  0  0  0  0  2  0  0  0  0  0  0
  189.4630  177.1730  140.2180 C   0  0  0  0  0  0  0  0  0  0  0  0
  190.7720  176.3980  138.2100 C   0  0  0  0  0  2  0  0  0  0  0  0
  191.8000  175.3280  137.8830 C   0  0  1  0  0  3  0  0  0  0  0  0
  191.1400  174.0860  137.5140 N   0  0  0  0  0  1  0  0  0  0  0  0
  192.7250  175.7890  136.7630 C   0  0  0  0  0  2  0  0  0  0  0  0
  193.7810  176.6480  137.2760 N   0  0  0  0  0  1  0  0  0  0  0  0
  1 27  1  6  0  0  0
  1 19  1  0  0  0  0
  3  2  1  6  0  0  0
  3 12  1  0  0  0  0
  3 13  1  0  0  0  0
  4  1  1  6  0  0  0
  4  8  1  0  0  0  0
  5  7  1  6  0  0  0
  5 14  1  0  0  0  0
  5  6  1  0  0  0  0
  8 10  1  0  0  0  0
  9  5  1  0  0  0  0
 10 12  1  0  0  0  0
 11 14  1  0  0  0  0
 12 11  2  0  0  0  0
 13  9  2  0  0  0  0
 15  4  1  0  0  0  0
 15  2  1  0  0  0  0
 16 17  1  0  0  0  0
 16 23  1  0  0  0  0
 18 16  2  0  0  0  0
 19 17  2  0  0  0  0
 20 18  1  0  0  0  0
 20 19  1  0  0  0  0
 21 24  2  0  0  0  0
 21 22  1  0  0  0  0
 23 21  1  0  0  0  0
 25 27  2  0  0  0  0
 26 27  1  0  0  0  0
 28 26  1  0  0  0  0
 29 30  1  6  0  0  0
 29 28  1  0  0  0  0
 31 32  1  0  0  0  0
 31 29  1  0  0  0  0
M  END
>  <MODEL>
1

>  <REMARK>
 VINA RESULT:      -8.4      0.000      0.000
  Name = 
  7 active torsions:
  status: ('A' for Active; 'I' for Inactive)
    1  A    between atoms: N_5  and  C_11
    2  A    between atoms: C_6  and  C_26
    3  A    between atoms: C_10  and  N_16
    4  A    between atoms: C_11  and  C_12
    5  A    between atoms: C_12  and  C_17
    6  A    between atoms: C_20  and  C_26
    7  A    between atoms: C_21  and  C_26
                            x       y       z     vdW  Elec       q    Type
                         _______ _______ _______ _____ _____    ______ ____

>  <TORSDO>
F 7

$$$$
=
 OpenBabel11032420193D

 32 34  0  0  1  0  0  0  0  0999 V2000
  188.9620  176.7610  141.6900 C   0  0  1  0  0  3  0  0  0  0  0  0
  191.7880  178.5910  143.7460 C   0  0  0  0  0  2  0  0  0  0  0  0
  191.3010  178.1110  145.1220 C   0  0  2  0  0  3  0  0  0  0  0  0
  190.0210  176.9540  142.7780 C   0  0  1  0  0  3  0  0  0  0  0  0
  189.4090  177.3330  147.5800 C   0  0  1  0  0  0  0  0  0  0  0  0
  189.0520  177.9030  148.8010 O   0  0  0  0  0  1  0  0  0  0  0  0
  188.5860  176.2430  147.3540 F   0  0  0  0  0  0  0  0  0  0  0  0
  190.8010  175.6550  143.0200 C   0  0  0  0  0  2  0  0  0  0  0  0
  189.1590  178.3550  146.4940 C   0  0  0  0  0  3  0  0  0  0  0  0
  191.8490  175.7400  144.1340 C   0  0  0  0  0  2  0  0  0  0  0  0
  191.2540  176.0450  146.4830 C   0  0  0  0  0  3  0  0  0  0  0  0
  191.4180  176.6080  145.2840 C   0  0  0  0  0  0  0  0  0  0  0  0
  189.9340  178.6660  145.4380 C   0  0  0  0  0  3  0  0  0  0  0  0
  190.8590  176.8550  147.6820 C   0  0  0  0  0  2  0  0  0  0  0  0
  190.9010  178.1960  142.5510 C   0  0  0  0  0  2  0  0  0  0  0  0
  185.9610  178.2410  142.8730 C   0  0  0  0  0  0  0  0  0  0  0  0
  186.8880  177.2740  142.9850 N   0  0  0  0  0  0  0  0  0  0  0  0
  186.2480  179.0780  141.8110 C   0  0  0  0  0  3  0  0  0  0  0  0
  187.7240  177.5550  141.9690 C   0  0  0  0  0  0  0  0  0  0  0  0
  187.3550  178.6140  141.2810 O   0  0  0  0  0  0  0  0  0  0  0  0
  184.8910  178.8400  145.1060 C   0  0  0  0  0  0  0  0  0  0  0  0
  183.6930  178.9020  145.8700 N   0  0  0  0  0  1  0  0  0  0  0  0
  184.8430  178.3510  143.7620 N   0  0  0  0  0  2  0  0  0  0  0  0
  185.9770  179.2160  145.6220 O   0  0  0  0  0  0  0  0  0  0  0  0
  190.3170  176.1670  139.7970 O   0  0  0  0  0  0  0  0  0  0  0  0
  188.9850  178.0650  139.5280 N   0  0  0  0  0  2  0  0  0  0  0  0
  189.4720  176.9630  140.2930 C   0  0  0  0  0  0  0  0  0  0  0  0
  189.4320  178.3150  138.1680 C   0  0  0  0  0  2  0  0  0  0  0  0
  188.2340  178.4840  137.2500 C   0  0  1  0  0  3  0  0  0  0  0  0
  188.5430  177.9970  135.9160 N   0  0  0  0  0  1  0  0  0  0  0  0
  187.0150  177.7600  137.8090 C   0  0  0  0  0  2  0  0  0  0  0  0
  185.9290  178.6910  138.0760 N   0  0  0  0  0  1  0  0  0  0  0  0
  1 27  1  6  0  0  0
  1 19  1  0  0  0  0
  3  2  1  6  0  0  0
  3 12  1  0  0  0  0
  3 13  1  0  0  0  0
  4  1  1  6  0  0  0
  4  8  1  0  0  0  0
  5  7  1  6  0  0  0
  5 14  1  0  0  0  0
  5  6  1  0  0  0  0
  8 10  1  0  0  0  0
  9  5  1  0  0  0  0
 10 12  1  0  0  0  0
 11 14  1  0  0  0  0
 12 11  2  0  0  0  0
 13  9  2  0  0  0  0
 15  4  1  0  0  0  0
 15  2  1  0  0  0  0
 16 17  1  0  0  0  0
 16 23  1  0  0  0  0
 18 16  2  0  0  0  0
 19 17  2  0  0  0  0
 20 18  1  0  0  0  0
 20 19  1  0  0  0  0
 21 24  2  0  0  0  0
 21 22  1  0  0  0  0
 23 21  1  0  0  0  0
 25 27  2  0  0  0  0
 26 27  1  0  0  0  0
 28 26  1  0  0  0  0
 29 30  1  6  0  0  0
 29 31  1  0  0  0  0
 29 28  1  0  0  0  0
 31 32  1  0  0  0  0
M  END
>  <MODEL>
2

>  <REMARK>
 VINA RESULT:      -8.3      1.805      2.293
  Name = 
  7 active torsions:
  status: ('A' for Active; 'I' for Inactive)
    1  A    between atoms: N_5  and  C_11
    2  A    between atoms: C_6  and  C_26
    3  A    between atoms: C_10  and  N_16
    4  A    between atoms: C_11  and  C_12
    5  A    between atoms: C_12  and  C_17
    6  A    between atoms: C_20  and  C_26
    7  A    between atoms: C_21  and  C_26
                            x       y       z     vdW  Elec       q    Type
                         _______ _______ _______ _____ _____    ______ ____

>  <TORSDO>
F 7

$$$$
=
 OpenBabel11032420193D

 32 34  0  0  1  0  0  0  0  0999 V2000
  189.2300  176.8330  141.4230 C   0  0  1  0  0  3  0  0  0  0  0  0
  191.8350  178.6400  143.7730 C   0  0  0  0  0  2  0  0  0  0  0  0
  191.2130  178.1440  145.0880 C   0  0  2  0  0  3  0  0  0  0  0  0
  190.1750  177.0130  142.6140 C   0  0  1  0  0  3  0  0  0  0  0  0
  189.0840  177.3390  147.3350 C   0  0  1  0  0  0  0  0  0  0  0  0
  188.6070  177.8940  148.5210 O   0  0  0  0  0  1  0  0  0  0  0  0
  188.2890  176.2510  147.0150 F   0  0  0  0  0  0  0  0  0  0  0  0
  190.9290  175.7120  142.9190 C   0  0  0  0  0  2  0  0  0  0  0  0
  188.9440  178.3720  146.2410 C   0  0  0  0  0  3  0  0  0  0  0  0
  191.8590  175.7850  144.1340 C   0  0  0  0  0  2  0  0  0  0  0  0
  191.0320  176.0630  146.4140 C   0  0  0  0  0  3  0  0  0  0  0  0
  191.3150  176.6400  145.2440 C   0  0  0  0  0  0  0  0  0  0  0  0
  189.8200  178.6960  145.2720 C   0  0  0  0  0  3  0  0  0  0  0  0
  190.5170  176.8600  147.5760 C   0  0  0  0  0  2  0  0  0  0  0  0
  191.0710  178.2580  142.4910 C   0  0  0  0  0  2  0  0  0  0  0  0
  186.2550  178.7520  141.1860 C   0  0  0  0  0  0  0  0  0  0  0  0
  187.3450  178.2440  140.5870 N   0  0  0  0  0  0  0  0  0  0  0  0
  186.2250  178.4150  142.5260 C   0  0  0  0  0  3  0  0  0  0  0  0
  187.9580  177.6030  141.5990 C   0  0  0  0  0  0  0  0  0  0  0  0
  187.3030  177.6970  142.7360 O   0  0  0  0  0  0  0  0  0  0  0  0
  184.0670  179.0320  139.9120 C   0  0  0  0  0  0  0  0  0  0  0  0
  183.1830  179.9310  139.2520 N   0  0  0  0  0  1  0  0  0  0  0  0
  185.2780  179.5330  140.4870 N   0  0  0  0  0  2  0  0  0  0  0  0
  183.7720  177.8100  139.9800 O   0  0  0  0  0  0  0  0  0  0  0  0
  189.8190  178.2180  139.5510 O   0  0  0  0  0  0  0  0  0  0  0  0
  190.5460  176.0030  139.4360 N   0  0  0  0  0  2  0  0  0  0  0  0
  189.8710  177.0770  140.0880 C   0  0  0  0  0  0  0  0  0  0  0  0
  191.1940  176.1720  138.1450 C   0  0  0  0  0  2  0  0  0  0  0  0
  190.4940  175.3220  137.0980 C   0  0  1  0  0  3  0  0  0  0  0  0
  190.4040  173.9410  137.5440 N   0  0  0  0  0  1  0  0  0  0  0  0
  189.1060  175.8710  136.7910 C   0  0  0  0  0  2  0  0  0  0  0  0
  189.1850  177.2100  136.2270 N   0  0  0  0  0  1  0  0  0  0  0  0
  1 27  1  6  0  0  0
  1 19  1  0  0  0  0
  3  2  1  6  0  0  0
  3 12  1  0  0  0  0
  3 13  1  0  0  0  0
  4  1  1  6  0  0  0
  4  8  1  0  0  0  0
  5  7  1  6  0  0  0
  5 14  1  0  0  0  0
  5  6  1  0  0  0  0
  8 10  1  0  0  0  0
  9  5  1  0  0  0  0
 10 12  1  0  0  0  0
 11 14  1  0  0  0  0
 12 11  2  0  0  0  0
 13  9  2  0  0  0  0
 15  4  1  0  0  0  0
 15  2  1  0  0  0  0
 16 18  2  0  0  0  0
 17 16  1  0  0  0  0
 17 19  2  0  0  0  0
 18 20  1  0  0  0  0
 19 20  1  0  0  0  0
 21 24  2  0  0  0  0
 21 23  1  0  0  0  0
 22 21  1  0  0  0  0
 23 16  1  0  0  0  0
 25 27  2  0  0  0  0
 26 27  1  0  0  0  0
 28 26  1  0  0  0  0
 29 30  1  1  0  0  0
 29 28  1  0  0  0  0
 31 29  1  0  0  0  0
 32 31  1  0  0  0  0
M  END
>  <MODEL>
3

>  <REMARK>
 VINA RESULT:      -7.6      1.767      2.364
  Name = 
  7 active torsions:
  status: ('A' for Active; 'I' for Inactive)
    1  A    between atoms: N_5  and  C_11
    2  A    between atoms: C_6  and  C_26
    3  A    between atoms: C_10  and  N_16
    4  A    between atoms: C_11  and  C_12
    5  A    between atoms: C_12  and  C_17
    6  A    between atoms: C_20  and  C_26
    7  A    between atoms: C_21  and  C_26
                            x       y       z     vdW  Elec       q    Type
                         _______ _______ _______ _____ _____    ______ ____

>  <TORSDO>
F 7

$$$$
=
 OpenBabel11032420193D

 32 34  0  0  1  0  0  0  0  0999 V2000
  188.6850  178.2770  140.4090 C   0  0  1  0  0  3  0  0  0  0  0  0
  189.6970  175.8830  137.4410 C   0  0  0  0  0  2  0  0  0  0  0  0
  188.3930  176.0720  136.6510 C   0  0  2  0  0  3  0  0  0  0  0  0
  188.8090  177.7890  138.9630 C   0  0  1  0  0  3  0  0  0  0  0  0
  185.2950  176.3890  135.9180 C   0  0  1  0  0  0  0  0  0  0  0  0
  184.2980  175.5840  135.3700 O   0  0  0  0  0  1  0  0  0  0  0  0
  184.7040  177.5460  136.3950 F   0  0  0  0  0  0  0  0  0  0  0  0
  189.1110  178.9570  138.0150 C   0  0  0  0  0  2  0  0  0  0  0  0
  185.9100  175.6500  137.0840 C   0  0  0  0  0  3  0  0  0  0  0  0
  189.1990  178.5680  136.5350 C   0  0  0  0  0  2  0  0  0  0  0  0
  187.2690  177.7840  135.2610 C   0  0  0  0  0  3  0  0  0  0  0  0
  188.2220  177.4920  136.1490 C   0  0  0  0  0  0  0  0  0  0  0  0
  187.2090  175.5380  137.4190 C   0  0  0  0  0  3  0  0  0  0  0  0
  186.2810  176.7510  134.8050 C   0  0  0  0  0  2  0  0  0  0  0  0
  189.7500  176.5820  138.8120 C   0  0  0  0  0  2  0  0  0  0  0  0
  185.5560  179.0270  141.9060 C   0  0  0  0  0  0  0  0  0  0  0  0
  186.8740  178.8040  142.0480 N   0  0  0  0  0  0  0  0  0  0  0  0
  185.1760  178.9150  140.5810 C   0  0  0  0  0  3  0  0  0  0  0  0
  187.2630  178.5570  140.7840 C   0  0  0  0  0  0  0  0  0  0  0  0
  186.2720  178.6260  139.9210 O   0  0  0  0  0  0  0  0  0  0  0  0
  184.7480  178.7250  144.3030 C   0  0  0  0  0  0  0  0  0  0  0  0
  183.8350  179.1440  145.3100 N   0  0  0  0  0  1  0  0  0  0  0  0
  184.6980  179.3380  143.0110 N   0  0  0  0  0  2  0  0  0  0  0  0
  185.5870  177.8220  144.5620 O   0  0  0  0  0  0  0  0  0  0  0  0
  188.8090  176.3890  141.8900 O   0  0  0  0  0  0  0  0  0  0  0  0
  190.7100  177.7410  141.8170 N   0  0  0  0  0  2  0  0  0  0  0  0
  189.3840  177.4070  141.4130 C   0  0  0  0  0  0  0  0  0  0  0  0
  191.4460  176.9380  142.7800 C   0  0  0  0  0  2  0  0  0  0  0  0
  191.5350  177.6720  144.1080 C   0  0  1  0  0  3  0  0  0  0  0  0
  191.4190  179.1060  143.9030 N   0  0  0  0  0  1  0  0  0  0  0  0
  190.4590  177.1850  145.0700 C   0  0  0  0  0  2  0  0  0  0  0  0
  189.2950  178.0570  145.0400 N   0  0  0  0  0  1  0  0  0  0  0  0
  1 19  1  0  0  0  0
  1 27  1  1  0  0  0
  2 15  1  0  0  0  0
  3 13  1  1  0  0  0
  3  2  1  0  0  0  0
  4  1  1  1  0  0  0
  5  6  1  6  0  0  0
  5  7  1  0  0  0  0
  5  9  1  0  0  0  0
  8  4  1  0  0  0  0
  9 13  2  0  0  0  0
 10  8  1  0  0  0  0
 11 12  2  0  0  0  0
 12 10  1  0  0  0  0
 12  3  1  0  0  0  0
 14 11  1  0  0  0  0
 14  5  1  0  0  0  0
 15  4  1  0  0  0  0
 16 17  1  0  0  0  0
 16 23  1  0  0  0  0
 18 16  2  0  0  0  0
 19 17  2  0  0  0  0
 20 18  1  0  0  0  0
 20 19  1  0  0  0  0
 21 24  2  0  0  0  0
 21 22  1  0  0  0  0
 23 21  1  0  0  0  0
 26 28  1  0  0  0  0
 27 26  1  0  0  0  0
 27 25  2  0  0  0  0
 28 29  1  0  0  0  0
 29 30  1  6  0  0  0
 29 31  1  0  0  0  0
 32 31  1  0  0  0  0
M  END
>  <MODEL>
4

>  <REMARK>
 VINA RESULT:      -7.6      3.671      7.296
  Name = 
  7 active torsions:
  status: ('A' for Active; 'I' for Inactive)
    1  A    between atoms: N_5  and  C_11
    2  A    between atoms: C_6  and  C_26
    3  A    between atoms: C_10  and  N_16
    4  A    between atoms: C_11  and  C_12
    5  A    between atoms: C_12  and  C_17
    6  A    between atoms: C_20  and  C_26
    7  A    between atoms: C_21  and  C_26
                            x       y       z     vdW  Elec       q    Type
                         _______ _______ _______ _____ _____    ______ ____

>  <TORSDO>
F 7

$$$$
=
 OpenBabel11032420193D

 32 34  0  0  1  0  0  0  0  0999 V2000
  188.7350  178.2900  140.3460 C   0  0  1  0  0  3  0  0  0  0  0  0
  189.7700  175.8130  137.4560 C   0  0  0  0  0  2  0  0  0  0  0  0
  188.4840  175.9990  136.6360 C   0  0  2  0  0  3  0  0  0  0  0  0
  188.8790  177.7660  138.9150 C   0  0  1  0  0  3  0  0  0  0  0  0
  185.4050  176.3390  135.8370 C   0  0  1  0  0  0  0  0  0  0  0  0
  184.4080  175.5340  135.2890 O   0  0  0  0  0  1  0  0  0  0  0  0
  184.8200  177.5150  136.2750 F   0  0  0  0  0  0  0  0  0  0  0  0
  189.2150  178.9060  137.9440 C   0  0  0  0  0  2  0  0  0  0  0  0
  185.9880  175.6200  137.0320 C   0  0  0  0  0  3  0  0  0  0  0  0
  189.3250  178.4820  136.4770 C   0  0  0  0  0  2  0  0  0  0  0  0
  187.4090  177.6920  135.1850 C   0  0  0  0  0  3  0  0  0  0  0  0
  188.3410  177.4090  136.0980 C   0  0  0  0  0  0  0  0  0  0  0  0
  187.2780  175.4990  137.3940 C   0  0  0  0  0  3  0  0  0  0  0  0
  186.4160  176.6610  134.7350 C   0  0  0  0  0  2  0  0  0  0  0  0
  189.8070  176.5430  138.8100 C   0  0  0  0  0  2  0  0  0  0  0  0
  185.2290  178.8040  140.5410 C   0  0  0  0  0  0  0  0  0  0  0  0
  186.3010  178.4650  139.8050 N   0  0  0  0  0  0  0  0  0  0  0  0
  185.5980  179.1250  141.8340 C   0  0  0  0  0  3  0  0  0  0  0  0
  187.3090  178.5940  140.6880 C   0  0  0  0  0  0  0  0  0  0  0  0
  186.9010  178.9760  141.8790 O   0  0  0  0  0  0  0  0  0  0  0  0
  183.3410  179.8350  139.1760 C   0  0  0  0  0  0  0  0  0  0  0  0
  182.0010  179.7060  138.7160 N   0  0  0  0  0  1  0  0  0  0  0  0
  183.8970  178.8150  140.0120 N   0  0  0  0  0  2  0  0  0  0  0  0
  184.0170  180.8430  138.8420 O   0  0  0  0  0  0  0  0  0  0  0  0
  188.7890  176.4790  141.9230 O   0  0  0  0  0  0  0  0  0  0  0  0
  190.7560  177.7220  141.7460 N   0  0  0  0  0  2  0  0  0  0  0  0
  189.4060  177.4380  141.3830 C   0  0  0  0  0  0  0  0  0  0  0  0
  191.4680  176.9330  142.7380 C   0  0  0  0  0  2  0  0  0  0  0  0
  191.5020  177.6740  144.0640 C   0  0  1  0  0  3  0  0  0  0  0  0
  191.2990  179.0980  143.8550 N   0  0  0  0  0  1  0  0  0  0  0  0
  190.4520  177.1240  145.0210 C   0  0  0  0  0  2  0  0  0  0  0  0
  189.3640  178.0720  145.2070 N   0  0  0  0  0  1  0  0  0  0  0  0
  1 19  1  0  0  0  0
  1 27  1  1  0  0  0
  2 15  1  0  0  0  0
  3 13  1  1  0  0  0
  3  2  1  0  0  0  0
  4  1  1  1  0  0  0
  5  6  1  6  0  0  0
  5  7  1  0  0  0  0
  5  9  1  0  0  0  0
  8  4  1  0  0  0  0
  9 13  2  0  0  0  0
 10  8  1  0  0  0  0
 11 12  2  0  0  0  0
 12 10  1  0  0  0  0
 12  3  1  0  0  0  0
 14 11  1  0  0  0  0
 14  5  1  0  0  0  0
 15  4  1  0  0  0  0
 16 18  2  0  0  0  0
 17 16  1  0  0  0  0
 17 19  2  0  0  0  0
 18 20  1  0  0  0  0
 19 20  1  0  0  0  0
 21 23  1  0  0  0  0
 22 21  1  0  0  0  0
 23 16  1  0  0  0  0
 24 21  2  0  0  0  0
 26 28  1  0  0  0  0
 27 26  1  0  0  0  0
 27 25  2  0  0  0  0
 28 29  1  0  0  0  0
 29 30  1  6  0  0  0
 29 31  1  0  0  0  0
 31 32  1  0  0  0  0
M  END
>  <MODEL>
5

>  <REMARK>
 VINA RESULT:      -7.4      4.013      7.649
  Name = 
  7 active torsions:
  status: ('A' for Active; 'I' for Inactive)
    1  A    between atoms: N_5  and  C_11
    2  A    between atoms: C_6  and  C_26
    3  A    between atoms: C_10  and  N_16
    4  A    between atoms: C_11  and  C_12
    5  A    between atoms: C_12  and  C_17
    6  A    between atoms: C_20  and  C_26
    7  A    between atoms: C_21  and  C_26
                            x       y       z     vdW  Elec       q    Type
                         _______ _______ _______ _____ _____    ______ ____

>  <TORSDO>
F 7

$$$$
=
 OpenBabel11032420193D

 32 34  0  0  1  0  0  0  0  0999 V2000
  188.3030  177.2020  141.7870 C   0  0  1  0  0  3  0  0  0  0  0  0
  190.5850  176.6660  138.6140 C   0  0  0  0  0  2  0  0  0  0  0  0
  189.4290  176.6660  137.6020 C   0  0  2  0  0  3  0  0  0  0  0  0
  188.7940  177.3880  140.3490 C   0  0  1  0  0  3  0  0  0  0  0  0
  186.6040  176.1150  136.2050 C   0  0  1  0  0  0  0  0  0  0  0  0
  186.1200  175.2850  135.1960 O   0  0  0  0  0  1  0  0  0  0  0  0
  185.5230  176.7060  136.8360 F   0  0  0  0  0  0  0  0  0  0  0  0
  188.6770  178.8540  139.9140 C   0  0  0  0  0  2  0  0  0  0  0  0
  187.3340  175.2550  137.2120 C   0  0  0  0  0  3  0  0  0  0  0  0
  189.0960  179.1240  138.4650 C   0  0  0  0  0  2  0  0  0  0  0  0
  187.8520  178.2580  136.5500 C   0  0  0  0  0  3  0  0  0  0  0  0
  188.7270  178.0080  137.5270 C   0  0  0  0  0  0  0  0  0  0  0  0
  188.5060  175.4940  137.8290 C   0  0  0  0  0  3  0  0  0  0  0  0
  187.4640  177.2030  135.5580 C   0  0  0  0  0  2  0  0  0  0  0  0
  190.1720  176.7520  140.0950 C   0  0  0  0  0  2  0  0  0  0  0  0
  190.8480  177.1540  144.2600 C   0  0  0  0  0  0  0  0  0  0  0  0
  189.9060  176.4920  143.5680 N   0  0  0  0  0  0  0  0  0  0  0  0
  190.8880  178.4850  143.8890 C   0  0  0  0  0  3  0  0  0  0  0  0
  189.3900  177.4570  142.7850 C   0  0  0  0  0  0  0  0  0  0  0  0
  189.9660  178.6260  142.9670 O   0  0  0  0  0  0  0  0  0  0  0  0
  191.4480  176.5170  146.6520 C   0  0  0  0  0  0  0  0  0  0  0  0
  192.3580  175.8370  147.5080 N   0  0  0  0  0  1  0  0  0  0  0  0
  191.6800  176.5220  145.2400 N   0  0  0  0  0  2  0  0  0  0  0  0
  190.4520  177.1060  147.1490 O   0  0  0  0  0  0  0  0  0  0  0  0
  186.4370  178.6000  141.2100 O   0  0  0  0  0  0  0  0  0  0  0  0
  186.5300  177.9110  143.4380 N   0  0  0  0  0  2  0  0  0  0  0  0
  187.0420  177.9490  142.1070 C   0  0  0  0  0  0  0  0  0  0  0  0
  185.3100  178.6060  143.8140 C   0  0  0  0  0  2  0  0  0  0  0  0
  185.3430  178.9500  145.2930 C   0  0  1  0  0  3  0  0  0  0  0  0
  183.9940  179.0030  145.8320 N   0  0  0  0  0  1  0  0  0  0  0  0
  186.1830  177.9410  146.0670 C   0  0  0  0  0  2  0  0  0  0  0  0
  186.5840  178.4740  147.3600 N   0  0  0  0  0  1  0  0  0  0  0  0
  1 27  1  1  0  0  0
  1 19  1  0  0  0  0
  2 15  1  0  0  0  0
  3 13  1  1  0  0  0
  3  2  1  0  0  0  0
  4  1  1  1  0  0  0
  5  6  1  6  0  0  0
  5  7  1  0  0  0  0
  5  9  1  0  0  0  0
  8  4  1  0  0  0  0
  9 13  2  0  0  0  0
 10  8  1  0  0  0  0
 11 12  2  0  0  0  0
 12  3  1  0  0  0  0
 12 10  1  0  0  0  0
 14  5  1  0  0  0  0
 14 11  1  0  0  0  0
 15  4  1  0  0  0  0
 16 23  1  0  0  0  0
 17 16  1  0  0  0  0
 18 16  2  0  0  0  0
 19 20  1  0  0  0  0
 19 17  2  0  0  0  0
 20 18  1  0  0  0  0
 21 24  2  0  0  0  0
 21 22  1  0  0  0  0
 23 21  1  0  0  0  0
 25 27  2  0  0  0  0
 26 28  1  0  0  0  0
 27 26  1  0  0  0  0
 28 29  1  0  0  0  0
 29 30  1  1  0  0  0
 29 31  1  0  0  0  0
 31 32  1  0  0  0  0
M  END
>  <MODEL>
6

>  <REMARK>
 VINA RESULT:      -7.3      3.452      8.097
  Name = 
  7 active torsions:
  status: ('A' for Active; 'I' for Inactive)
    1  A    between atoms: N_5  and  C_11
    2  A    between atoms: C_6  and  C_26
    3  A    between atoms: C_10  and  N_16
    4  A    between atoms: C_11  and  C_12
    5  A    between atoms: C_12  and  C_17
    6  A    between atoms: C_20  and  C_26
    7  A    between atoms: C_21  and  C_26
                            x       y       z     vdW  Elec       q    Type
                         _______ _______ _______ _____ _____    ______ ____

>  <TORSDO>
F 7

$$$$
=
 OpenBabel11032420193D

 32 34  0  0  1  0  0  0  0  0999 V2000
  188.8940  178.2110  140.3410 C   0  0  1  0  0  3  0  0  0  0  0  0
  189.1680  178.4900  136.4150 C   0  0  0  0  0  2  0  0  0  0  0  0
  189.4310  176.9940  136.1810 C   0  0  2  0  0  3  0  0  0  0  0  0
  188.6960  177.8110  138.8760 C   0  0  1  0  0  3  0  0  0  0  0  0
  190.5580  174.0160  136.4860 C   0  0  1  0  0  0  0  0  0  0  0  0
  191.5140  173.2270  135.8480 O   0  0  0  0  0  1  0  0  0  0  0  0
  190.1430  173.3550  137.6290 F   0  0  0  0  0  0  0  0  0  0  0  0
  187.3000  177.2160  138.6530 C   0  0  0  0  0  2  0  0  0  0  0  0
  191.2180  175.3140  136.8970 C   0  0  0  0  0  3  0  0  0  0  0  0
  187.0340  176.7370  137.2220 C   0  0  0  0  0  2  0  0  0  0  0  0
  188.2090  174.8420  136.2260 C   0  0  0  0  0  3  0  0  0  0  0  0
  188.2450  176.1320  136.5680 C   0  0  0  0  0  0  0  0  0  0  0  0
  190.7380  176.5670  136.8020 C   0  0  0  0  0  3  0  0  0  0  0  0
  189.3670  174.1810  135.5390 C   0  0  0  0  0  2  0  0  0  0  0  0
  189.0820  178.9270  137.8890 C   0  0  0  0  0  2  0  0  0  0  0  0
  186.1160  178.3620  142.5450 C   0  0  0  0  0  0  0  0  0  0  0  0
  187.3860  177.9820  142.3200 N   0  0  0  0  0  0  0  0  0  0  0  0
  185.5820  178.9810  141.4300 C   0  0  0  0  0  3  0  0  0  0  0  0
  187.5880  178.3850  141.0520 C   0  0  0  0  0  0  0  0  0  0  0  0
  186.5350  178.9750  140.5290 O   0  0  0  0  0  0  0  0  0  0  0  0
  184.7680  179.1320  144.5640 C   0  0  0  0  0  0  0  0  0  0  0  0
  184.1390  178.7600  145.7840 N   0  0  0  0  0  1  0  0  0  0  0  0
  185.4480  178.1380  143.7920 N   0  0  0  0  0  2  0  0  0  0  0  0
  184.7170  180.3310  144.1800 O   0  0  0  0  0  0  0  0  0  0  0  0
  190.1180  176.1710  140.6750 O   0  0  0  0  0  0  0  0  0  0  0  0
  190.4490  177.8220  142.2910 N   0  0  0  0  0  2  0  0  0  0  0  0
  189.8470  177.3300  141.0940 C   0  0  0  0  0  0  0  0  0  0  0  0
  191.3850  177.0240  143.0650 C   0  0  0  0  0  2  0  0  0  0  0  0
  191.4420  177.5330  144.4950 C   0  0  1  0  0  3  0  0  0  0  0  0
  190.2140  178.2350  144.8330 N   0  0  0  0  0  1  0  0  0  0  0  0
  191.6830  176.3880  145.4710 C   0  0  0  0  0  2  0  0  0  0  0  0
  191.7260  176.8680  146.8430 N   0  0  0  0  0  1  0  0  0  0  0  0
  1 19  1  0  0  0  0
  1 27  1  1  0  0  0
  2 15  1  0  0  0  0
  3  2  1  1  0  0  0
  3 12  1  0  0  0  0
  3 13  1  0  0  0  0
  4  1  1  1  0  0  0
  5  6  1  6  0  0  0
  5  9  1  0  0  0  0
  5  7  1  0  0  0  0
  8  4  1  0  0  0  0
 10  8  1  0  0  0  0
 11 12  2  0  0  0  0
 12 10  1  0  0  0  0
 13  9  2  0  0  0  0
 14 11  1  0  0  0  0
 14  5  1  0  0  0  0
 15  4  1  0  0  0  0
 16 23  1  0  0  0  0
 17 16  1  0  0  0  0
 18 16  2  0  0  0  0
 19 17  2  0  0  0  0
 20 19  1  0  0  0  0
 20 18  1  0  0  0  0
 21 22  1  0  0  0  0
 23 21  1  0  0  0  0
 24 21  2  0  0  0  0
 25 27  2  0  0  0  0
 26 28  1  0  0  0  0
 27 26  1  0  0  0  0
 28 29  1  0  0  0  0
 29 30  1  1  0  0  0
 29 31  1  0  0  0  0
 31 32  1  0  0  0  0
M  END
>  <MODEL>
7

>  <REMARK>
 VINA RESULT:      -7.2      3.201      7.084
  Name = 
  7 active torsions:
  status: ('A' for Active; 'I' for Inactive)
    1  A    between atoms: N_5  and  C_11
    2  A    between atoms: C_6  and  C_26
    3  A    between atoms: C_10  and  N_16
    4  A    between atoms: C_11  and  C_12
    5  A    between atoms: C_12  and  C_17
    6  A    between atoms: C_20  and  C_26
    7  A    between atoms: C_21  and  C_26
                            x       y       z     vdW  Elec       q    Type
                         _______ _______ _______ _____ _____    ______ ____

>  <TORSDO>
F 7

$$$$
=
 OpenBabel11032420193D

 32 34  0  0  1  0  0  0  0  0999 V2000
  185.0940  179.1790  143.3900 C   0  0  1  0  0  3  0  0  0  0  0  0
  187.2910  175.9420  143.9010 C   0  0  0  0  0  2  0  0  0  0  0  0
  188.6120  176.6950  144.1180 C   0  0  2  0  0  3  0  0  0  0  0  0
  186.1760  178.2840  144.0000 C   0  0  1  0  0  3  0  0  0  0  0  0
  191.0020  178.8000  143.8150 C   0  0  1  0  0  0  0  0  0  0  0  0
  192.2860  178.8000  143.2750 O   0  0  0  0  0  1  0  0  0  0  0  0
  190.6680  180.1040  144.1410 F   0  0  0  0  0  0  0  0  0  0  0  0
  186.2540  178.4760  145.5200 C   0  0  0  0  0  2  0  0  0  0  0  0
  190.0440  178.3130  142.7520 C   0  0  0  0  0  3  0  0  0  0  0  0
  187.3510  177.6580  146.2100 C   0  0  0  0  0  2  0  0  0  0  0  0
  189.7300  178.0700  145.8450 C   0  0  0  0  0  3  0  0  0  0  0  0
  188.6000  177.5310  145.3820 C   0  0  0  0  0  0  0  0  0  0  0  0
  189.0160  177.4530  142.8760 C   0  0  0  0  0  3  0  0  0  0  0  0
  191.0210  177.9530  145.0890 C   0  0  0  0  0  2  0  0  0  0  0  0
  186.0760  176.8180  143.5440 C   0  0  0  0  0  2  0  0  0  0  0  0
  185.1460  178.7990  139.8620 C   0  0  0  0  0  0  0  0  0  0  0  0
  185.6990  179.3210  140.9700 N   0  0  0  0  0  0  0  0  0  0  0  0
  184.0190  178.0620  140.1740 C   0  0  0  0  0  3  0  0  0  0  0  0
  184.8760  178.8810  141.9390 C   0  0  0  0  0  0  0  0  0  0  0  0
  183.8930  178.1390  141.4770 O   0  0  0  0  0  0  0  0  0  0  0  0
  186.8490  178.3550  138.0210 C   0  0  0  0  0  0  0  0  0  0  0  0
  187.2690  178.6520  136.6950 N   0  0  0  0  0  1  0  0  0  0  0  0
  185.6900  179.0040  138.5520 N   0  0  0  0  0  2  0  0  0  0  0  0
  187.5030  177.5270  138.7080 O   0  0  0  0  0  0  0  0  0  0  0  0
  183.8270  179.3710  145.4220 O   0  0  0  0  0  0  0  0  0  0  0  0
  182.5740  179.0620  143.4770 N   0  0  0  0  0  2  0  0  0  0  0  0
  183.8120  179.2100  144.1700 C   0  0  0  0  0  0  0  0  0  0  0  0
  181.2960  179.0900  144.1710 C   0  0  0  0  0  2  0  0  0  0  0  0
  180.1640  179.2330  143.1670 C   0  0  1  0  0  3  0  0  0  0  0  0
  180.0090  180.6230  142.7730 N   0  0  0  0  0  1  0  0  0  0  0  0
  180.4100  178.3590  141.9430 C   0  0  0  0  0  2  0  0  0  0  0  0
  179.3950  177.3240  141.8260 N   0  0  0  0  0  1  0  0  0  0  0  0
  1 27  1  1  0  0  0
  2  3  1  0  0  0  0
  3 13  1  6  0  0  0
  3 12  1  0  0  0  0
  4  1  1  1  0  0  0
  4  8  1  0  0  0  0
  5  6  1  6  0  0  0
  5  7  1  0  0  0  0
  5 14  1  0  0  0  0
  8 10  1  0  0  0  0
  9 13  2  0  0  0  0
  9  5  1  0  0  0  0
 12 11  2  0  0  0  0
 12 10  1  0  0  0  0
 14 11  1  0  0  0  0
 15  2  1  0  0  0  0
 15  4  1  0  0  0  0
 16 18  2  0  0  0  0
 16 17  1  0  0  0  0
 17 19  2  0  0  0  0
 18 20  1  0  0  0  0
 19  1  1  0  0  0  0
 20 19  1  0  0  0  0
 21 23  1  0  0  0  0
 21 24  2  0  0  0  0
 22 21  1  0  0  0  0
 23 16  1  0  0  0  0
 26 27  1  0  0  0  0
 26 28  1  0  0  0  0
 27 25  2  0  0  0  0
 29 30  1  6  0  0  0
 29 28  1  0  0  0  0
 31 29  1  0  0  0  0
 32 31  1  0  0  0  0
M  END
>  <MODEL>
8

>  <REMARK>
 VINA RESULT:      -7.0      3.355      7.291
  Name = 
  7 active torsions:
  status: ('A' for Active; 'I' for Inactive)
    1  A    between atoms: N_5  and  C_11
    2  A    between atoms: C_6  and  C_26
    3  A    between atoms: C_10  and  N_16
    4  A    between atoms: C_11  and  C_12
    5  A    between atoms: C_12  and  C_17
    6  A    between atoms: C_20  and  C_26
    7  A    between atoms: C_21  and  C_26
                            x       y       z     vdW  Elec       q    Type
                         _______ _______ _______ _____ _____    ______ ____

>  <TORSDO>
F 7

$$$$
=
 OpenBabel11032420193D

 32 34  0  0  1  0  0  0  0  0999 V2000
  189.3070  176.5310  138.7100 C   0  0  1  0  0  3  0  0  0  0  0  0
  190.8590  176.2950  135.0900 C   0  0  0  0  0  2  0  0  0  0  0  0
  192.0420  175.4030  135.4970 C   0  0  2  0  0  3  0  0  0  0  0  0
  189.9860  175.8830  137.5000 C   0  0  1  0  0  3  0  0  0  0  0  0
  194.5160  174.1760  137.1110 C   0  0  1  0  0  0  0  0  0  0  0  0
  195.9050  174.1980  137.0020 O   0  0  0  0  0  1  0  0  0  0  0  0
  194.1860  173.6070  138.3290 F   0  0  0  0  0  0  0  0  0  0  0  0
  189.4720  174.4540  137.2830 C   0  0  0  0  0  2  0  0  0  0  0  0
  194.0210  175.6050  137.1020 C   0  0  0  0  0  3  0  0  0  0  0  0
  190.1380  173.7070  136.1220 C   0  0  0  0  0  2  0  0  0  0  0  0
  192.4920  173.0590  136.1500 C   0  0  0  0  0  3  0  0  0  0  0  0
  191.5980  174.0340  135.9710 C   0  0  0  0  0  0  0  0  0  0  0  0
  192.9630  176.1240  136.4520 C   0  0  0  0  0  3  0  0  0  0  0  0
  193.9620  173.3050  135.9830 C   0  0  0  0  0  2  0  0  0  0  0  0
  189.9580  176.7710  136.2440 C   0  0  0  0  0  2  0  0  0  0  0  0
  191.1600  177.4160  141.6040 C   0  0  0  0  0  0  0  0  0  0  0  0
  189.9830  177.0720  141.0540 N   0  0  0  0  0  0  0  0  0  0  0  0
  192.1520  177.4850  140.6450 C   0  0  0  0  0  3  0  0  0  0  0  0
  190.3000  176.9420  139.7520 C   0  0  0  0  0  0  0  0  0  0  0  0
  191.5710  177.1790  139.5090 O   0  0  0  0  0  0  0  0  0  0  0  0
  191.5020  176.6680  144.0150 C   0  0  0  0  0  0  0  0  0  0  0  0
  191.6540  177.0660  145.3720 N   0  0  0  0  0  1  0  0  0  0  0  0
  191.3170  177.6660  143.0060 N   0  0  0  0  0  2  0  0  0  0  0  0
  191.5310  175.4440  143.7210 O   0  0  0  0  0  0  0  0  0  0  0  0
  188.7180  178.8390  138.3980 O   0  0  0  0  0  0  0  0  0  0  0  0
  187.0170  177.2970  137.9770 N   0  0  0  0  0  2  0  0  0  0  0  0
  188.3500  177.6320  138.3600 C   0  0  0  0  0  0  0  0  0  0  0  0
  186.0410  178.3140  137.6190 C   0  0  0  0  0  2  0  0  0  0  0  0
  184.9470  178.3760  138.6720 C   0  0  1  0  0  3  0  0  0  0  0  0
  184.8130  179.7290  139.1850 N   0  0  0  0  0  1  0  0  0  0  0  0
  183.6190  177.8910  138.1030 C   0  0  0  0  0  2  0  0  0  0  0  0
  183.6290  176.4490  137.9050 N   0  0  0  0  0  1  0  0  0  0  0  0
  1 27  1  6  0  0  0
  1 19  1  0  0  0  0
  2 15  1  0  0  0  0
  3  2  1  1  0  0  0
  3 12  1  0  0  0  0
  3 13  1  0  0  0  0
  4  1  1  1  0  0  0
  5  6  1  6  0  0  0
  5  7  1  0  0  0  0
  8  4  1  0  0  0  0
  9  5  1  0  0  0  0
 10  8  1  0  0  0  0
 12 10  1  0  0  0  0
 12 11  2  0  0  0  0
 13  9  2  0  0  0  0
 14 11  1  0  0  0  0
 14  5  1  0  0  0  0
 15  4  1  0  0  0  0
 16 23  1  0  0  0  0
 17 16  1  0  0  0  0
 18 16  2  0  0  0  0
 19 17  2  0  0  0  0
 20 19  1  0  0  0  0
 20 18  1  0  0  0  0
 21 22  1  0  0  0  0
 23 21  1  0  0  0  0
 24 21  2  0  0  0  0
 26 27  1  0  0  0  0
 27 25  2  0  0  0  0
 28 26  1  0  0  0  0
 28 29  1  0  0  0  0
 29 30  1  6  0  0  0
 31 29  1  0  0  0  0
 32 31  1  0  0  0  0
M  END
>  <MODEL>
9

>  <REMARK>
 VINA RESULT:      -7.0      4.063      8.117
  Name = 
  7 active torsions:
  status: ('A' for Active; 'I' for Inactive)
    1  A    between atoms: N_5  and  C_11
    2  A    between atoms: C_6  and  C_26
    3  A    between atoms: C_10  and  N_16
    4  A    between atoms: C_11  and  C_12
    5  A    between atoms: C_12  and  C_17
    6  A    between atoms: C_20  and  C_26
    7  A    between atoms: C_21  and  C_26
                            x       y       z     vdW  Elec       q    Type
                         _______ _______ _______ _____ _____    ______ ____

>  <TORSDO>
F 7

$$$$
