=
 OpenBabel11032420213D

 53 58  0  0  1  0  0  0  0  0999 V2000
  182.8910  179.0420  140.5150 C   0  0  2  0  0  3  0  0  0  0  0  0
  179.7710  176.9580  141.2690 C   0  0  0  0  0  2  0  0  0  0  0  0
  179.9870  178.3520  144.1690 C   0  0  0  0  0  1  0  0  0  0  0  0
  181.4850  178.7270  140.9610 C   0  0  0  0  0  0  0  0  0  0  0  0
  181.0630  179.2560  142.1250 C   0  0  0  0  0  3  0  0  0  0  0  0
  178.9460  177.9380  141.9810 N   0  0  0  0  0  2  0  0  0  0  0  0
  178.9310  180.1710  142.8890 C   0  0  0  0  0  1  0  0  0  0  0  0
  179.7430  178.8920  142.7700 C   0  0  0  0  0  0  0  0  0  0  0  0
  180.6480  177.6850  140.2580 C   0  0  0  0  0  2  0  0  0  0  0  0
  183.0310  179.5310  139.0920 C   0  0  0  0  0  0  0  0  0  0  0  0
  182.3780  180.5380  138.7040 O   0  0  0  0  0  0  0  0  0  0  0  0
  183.7540  176.3910  137.4850 C   0  0  0  0  0  3  0  0  0  0  0  0
  185.0320  176.0280  137.4610 C   0  0  0  0  0  0  0  0  0  0  0  0
  185.1470  179.0130  138.1180 N   0  0  0  0  0  0  0  0  0  0  0  0
  186.1760  178.2840  137.4240 C   0  0  0  0  0  3  0  0  0  0  0  0
  181.8940  177.8070  137.0870 O   0  0  0  0  0  1  0  0  0  0  0  0
  186.1370  176.9690  137.1510 C   0  0  0  0  0  3  0  0  0  0  0  0
  183.2940  177.7710  137.1660 C   0  0  1  0  0  3  0  0  0  0  0  0
  183.8680  178.7840  138.1230 C   0  0  0  0  0  0  0  0  0  0  0  0
  185.3080  174.6830  137.7040 O   0  0  0  0  0  0  0  0  0  0  0  0
  185.7910  173.8070  136.6910 C   0  0  0  0  0  2  0  0  0  0  0  0
  187.2320  173.4590  136.9970 C   0  0  0  0  0  2  0  0  0  0  0  0
  188.1500  174.2110  136.0450 C   0  0  0  0  0  2  0  0  0  0  0  0
  189.3940  175.6210  137.5190 N   0  0  0  0  0  0  0  0  0  0  0  0
  191.7180  174.2030  137.1890 C   0  0  0  0  0  0  0  0  0  0  0  0
  191.6910  175.3170  138.0330 C   0  0  0  0  0  3  0  0  0  0  0  0
  189.4020  174.5630  136.7110 N   0  0  0  0  0  0  0  0  0  0  0  0
  190.5410  173.8250  136.5300 C   0  0  0  0  0  0  0  0  0  0  0  0
  190.5080  176.0320  138.1880 C   0  0  0  0  0  0  0  0  0  0  0  0
  190.5390  172.8090  135.7870 O   0  0  0  0  0  0  0  0  0  0  0  0
  190.0790  176.6740  140.5390 C   0  0  0  0  0  1  0  0  0  0  0  0
  190.4570  177.1810  139.1560 C   0  0  0  0  0  3  0  0  0  0  0  0
  189.4640  178.2380  138.7080 C   0  0  0  0  0  1  0  0  0  0  0  0
  192.9260  173.4520  137.0010 N   0  0  0  0  0  2  0  0  0  0  0  0
  194.1990  173.8260  137.6010 C   0  0  0  0  0  1  0  0  0  0  0  0
  183.8450  177.8910  140.8480 C   0  0  0  0  0  2  0  0  0  0  0  0
  183.6860  178.3430  143.3010 C   0  0  0  0  0  3  0  0  0  0  0  0
  185.8910  178.0230  142.3490 C   0  0  0  0  0  3  0  0  0  0  0  0
  186.4710  178.2250  143.6040 C   0  0  0  0  0  3  0  0  0  0  0  0
  184.4940  178.0540  142.1940 C   0  0  0  0  0  0  0  0  0  0  0  0
  184.2700  178.5790  144.5610 C   0  0  0  0  0  3  0  0  0  0  0  0
  185.6630  178.5000  144.7120 C   0  0  0  0  0  0  0  0  0  0  0  0
  186.2890  178.7280  146.0500 C   0  0  0  0  0  2  0  0  0  0  0  0
  188.6920  178.2010  145.8300 N   0  0  1  0  0  0  0  0  0  0  0  0
  189.8410  176.5070  147.0590 C   0  0  0  0  0  3  0  0  0  0  0  0
  189.6010  177.0510  145.6920 C   0  0  2  0  0  3  0  0  0  0  0  0
  187.3780  177.7020  146.3070 C   0  0  1  0  0  3  0  0  0  0  0  0
  188.3440  178.2580  147.2660 C   0  0  1  0  0  3  0  0  0  0  0  0
  189.1300  177.1770  147.9350 C   0  0  0  0  0  3  0  0  0  0  0  0
  191.9840  177.2830  145.8660 F   0  0  0  0  0  0  0  0  0  0  0  0
  190.8680  178.8170  144.6250 F   0  0  0  0  0  0  0  0  0  0  0  0
  191.1200  176.6770  143.8950 F   0  0  0  0  0  0  0  0  0  0  0  0
  190.9110  177.4800  145.0170 C   0  0  0  0  0  0  0  0  0  0  0  0
  1 36  1  6  0  0  0
  1  4  1  0  0  0  0
  2  6  1  0  0  0  0
  4  5  2  0  0  0  0
  5  8  1  0  0  0  0
  6  8  1  0  0  0  0
  8  7  1  0  0  0  0
  8  3  1  0  0  0  0
  9  4  1  0  0  0  0
  9  2  1  0  0  0  0
 10  1  1  0  0  0  0
 11 10  2  0  0  0  0
 13 12  2  0  0  0  0
 13 20  1  0  0  0  0
 14 19  2  0  0  0  0
 15 14  1  0  0  0  0
 17 15  2  0  0  0  0
 17 13  1  0  0  0  0
 18 16  1  1  0  0  0
 18 12  1  0  0  0  0
 18 19  1  0  0  0  0
 19 10  1  0  0  0  0
 21 22  1  0  0  0  0
 21 20  1  0  0  0  0
 23 27  1  0  0  0  0
 23 22  1  0  0  0  0
 24 29  2  0  0  0  0
 25 26  2  0  0  0  0
 26 29  1  0  0  0  0
 27 24  1  0  0  0  0
 28 27  1  0  0  0  0
 28 25  1  0  0  0  0
 29 32  1  0  0  0  0
 30 28  2  0  0  0  0
 32 31  1  0  0  0  0
 33 32  1  0  0  0  0
 34 25  1  0  0  0  0
 34 35  1  0  0  0  0
 36 40  1  0  0  0  0
 37 41  1  0  0  0  0
 38 39  2  0  0  0  0
 39 42  1  0  0  0  0
 40 38  1  0  0  0  0
 40 37  2  0  0  0  0
 41 42  2  0  0  0  0
 42 43  1  0  0  0  0
 43 47  1  0  0  0  0
 44 47  1  0  0  0  0
 44 48  1  0  0  0  0
 45 49  2  0  0  0  0
 46 44  1  0  0  0  0
 46 45  1  0  0  0  0
 47 48  1  0  0  0  0
 48 49  1  0  0  0  0
 51 53  1  0  0  0  0
 52 53  1  0  0  0  0
 53 46  1  0  0  0  0
 53 50  1  0  0  0  0
M  END
>  <MODEL>
1

>  <REMARK>
 VINA RESULT:      -8.6      0.000      0.000
  Name = 
  15 active torsions:
  status: ('A' for Active; 'I' for Inactive)
    1  A    between atoms: C_2  and  C_20
    2  A    between atoms: C_2  and  C_51
    3  A    between atoms: C_8  and  C_28
    4  A    between atoms: C_8  and  O_45
    5  A    between atoms: C_9  and  C_20
    6  A    between atoms: N_11  and  C_13
    7  A    between atoms: C_12  and  O_45
    8  A    between atoms: C_17  and  C_53
    9  A    between atoms: C_20  and  C_53
   10  A    between atoms: C_21  and  C_30
   11  A    between atoms: C_21  and  C_48
   12  A    between atoms: N_26  and  C_34
   13  A    between atoms: C_28  and  C_34
   14  A    between atoms: C_35  and  C_40
   15  A    between atoms: C_37  and  C_38
                            x       y       z     vdW  Elec       q    Type
                         _______ _______ _______ _____ _____    ______ ____

>  <TORSDO>
F 15

$$$$
=
 OpenBabel11032420213D

 53 58  0  0  1  0  0  0  0  0999 V2000
  188.5530  176.8090  137.8990 C   0  0  2  0  0  3  0  0  0  0  0  0
  191.2260  176.4910  135.1790 C   0  0  0  0  0  2  0  0  0  0  0  0
  192.4800  174.2950  137.1800 C   0  0  0  0  0  1  0  0  0  0  0  0
  189.4570  176.1510  136.8860 C   0  0  0  0  0  0  0  0  0  0  0  0
  190.1160  175.0390  137.2620 C   0  0  0  0  0  3  0  0  0  0  0  0
  191.3810  175.0350  135.1090 N   0  0  0  0  0  2  0  0  0  0  0  0
  190.7020  172.9570  136.1260 C   0  0  0  0  0  1  0  0  0  0  0  0
  191.1740  174.3740  136.4080 C   0  0  0  0  0  0  0  0  0  0  0  0
  189.7930  176.8210  135.5750 C   0  0  0  0  0  2  0  0  0  0  0  0
  187.2580  177.3680  137.3550 C   0  0  0  0  0  0  0  0  0  0  0  0
  186.9790  178.5860  137.5210 O   0  0  0  0  0  0  0  0  0  0  0  0
  184.1430  177.0590  135.5750 C   0  0  0  0  0  3  0  0  0  0  0  0
  183.3050  176.1300  136.0230 C   0  0  0  0  0  0  0  0  0  0  0  0
  185.9780  175.3560  137.2930 N   0  0  0  0  0  0  0  0  0  0  0  0
  184.9240  174.4310  136.9660 C   0  0  0  0  0  3  0  0  0  0  0  0
  186.1920  177.9090  134.7360 O   0  0  0  0  0  1  0  0  0  0  0  0
  183.7410  174.7700  136.4260 C   0  0  0  0  0  3  0  0  0  0  0  0
  185.6030  176.8210  135.3970 C   0  0  1  0  0  3  0  0  0  0  0  0
  186.2740  176.4740  136.7010 C   0  0  0  0  0  0  0  0  0  0  0  0
  181.9530  176.4700  136.0640 O   0  0  0  0  0  0  0  0  0  0  0  0
  180.9330  175.5160  136.3390 C   0  0  0  0  0  2  0  0  0  0  0  0
  179.8360  176.1930  137.1330 C   0  0  0  0  0  2  0  0  0  0  0  0
  179.8490  175.6760  138.5630 C   0  0  0  0  0  2  0  0  0  0  0  0
  181.0130  177.7050  139.0460 N   0  0  0  0  0  0  0  0  0  0  0  0
  180.0880  177.8210  141.6250 C   0  0  0  0  0  0  0  0  0  0  0  0
  180.9380  178.8190  141.1410 C   0  0  0  0  0  3  0  0  0  0  0  0
  180.2060  176.7450  139.4920 N   0  0  0  0  0  0  0  0  0  0  0  0
  179.7160  176.7750  140.7700 C   0  0  0  0  0  0  0  0  0  0  0  0
  181.4050  178.7470  139.8320 C   0  0  0  0  0  0  0  0  0  0  0  0
  178.9310  175.8810  141.1800 O   0  0  0  0  0  0  0  0  0  0  0  0
  181.8440  180.1650  137.8530 C   0  0  0  0  0  1  0  0  0  0  0  0
  182.2530  179.8610  139.2850 C   0  0  0  0  0  3  0  0  0  0  0  0
  183.7290  179.5070  139.3330 C   0  0  0  0  0  1  0  0  0  0  0  0
  179.5980  177.8630  142.9740 N   0  0  0  0  0  2  0  0  0  0  0  0
  180.2380  178.6340  144.0300 C   0  0  0  0  0  1  0  0  0  0  0  0
  189.3270  177.8180  138.7540 C   0  0  0  0  0  2  0  0  0  0  0  0
  189.9340  176.7160  140.9140 C   0  0  0  0  0  3  0  0  0  0  0  0
  188.0290  178.2140  140.9020 C   0  0  0  0  0  3  0  0  0  0  0  0
  187.8180  177.9680  142.2610 C   0  0  0  0  0  3  0  0  0  0  0  0
  189.1050  177.6110  140.2260 C   0  0  0  0  0  0  0  0  0  0  0  0
  189.7030  176.4410  142.2760 C   0  0  0  0  0  3  0  0  0  0  0  0
  188.6540  177.0850  142.9510 C   0  0  0  0  0  0  0  0  0  0  0  0
  188.4160  176.8160  144.4020 C   0  0  0  0  0  2  0  0  0  0  0  0
  186.1640  177.7560  144.7880 N   0  0  1  0  0  0  0  0  0  0  0  0
  185.6240  179.3780  146.4530 C   0  0  0  0  0  3  0  0  0  0  0  0
  185.4880  179.0450  145.0070 C   0  0  2  0  0  3  0  0  0  0  0  0
  187.6170  177.9460  145.0260 C   0  0  1  0  0  3  0  0  0  0  0  0
  186.7630  177.3980  146.0910 C   0  0  1  0  0  3  0  0  0  0  0  0
  186.3450  178.4620  147.0550 C   0  0  0  0  0  3  0  0  0  0  0  0
  183.8480  178.0080  143.5920 F   0  0  0  0  0  0  0  0  0  0  0  0
  183.5390  180.1870  144.1360 F   0  0  0  0  0  0  0  0  0  0  0  0
  183.2590  178.5410  145.6820 F   0  0  0  0  0  0  0  0  0  0  0  0
  184.0140  178.9560  144.5850 C   0  0  0  0  0  0  0  0  0  0  0  0
  1 36  1  6  0  0  0
  2  9  1  0  0  0  0
  4  5  2  0  0  0  0
  4  1  1  0  0  0  0
  6  2  1  0  0  0  0
  6  8  1  0  0  0  0
  7  8  1  0  0  0  0
  8  3  1  0  0  0  0
  8  5  1  0  0  0  0
  9  4  1  0  0  0  0
 10 11  2  0  0  0  0
 10  1  1  0  0  0  0
 12 13  2  0  0  0  0
 13 20  1  0  0  0  0
 13 17  1  0  0  0  0
 15 14  1  0  0  0  0
 17 15  2  0  0  0  0
 18 16  1  1  0  0  0
 18 12  1  0  0  0  0
 18 19  1  0  0  0  0
 19 14  2  0  0  0  0
 19 10  1  0  0  0  0
 20 21  1  0  0  0  0
 21 22  1  0  0  0  0
 22 23  1  0  0  0  0
 23 27  1  0  0  0  0
 24 27  1  0  0  0  0
 24 29  2  0  0  0  0
 25 34  1  0  0  0  0
 26 25  2  0  0  0  0
 27 28  1  0  0  0  0
 28 30  2  0  0  0  0
 28 25  1  0  0  0  0
 29 26  1  0  0  0  0
 31 32  1  0  0  0  0
 32 33  1  0  0  0  0
 32 29  1  0  0  0  0
 34 35  1  0  0  0  0
 36 40  1  0  0  0  0
 37 41  1  0  0  0  0
 38 39  2  0  0  0  0
 39 42  1  0  0  0  0
 40 38  1  0  0  0  0
 40 37  2  0  0  0  0
 41 42  2  0  0  0  0
 42 43  1  0  0  0  0
 43 47  1  0  0  0  0
 44 46  1  0  0  0  0
 44 47  1  0  0  0  0
 44 48  1  0  0  0  0
 45 49  2  0  0  0  0
 46 45  1  0  0  0  0
 47 48  1  0  0  0  0
 48 49  1  0  0  0  0
 50 53  1  0  0  0  0
 51 53  1  0  0  0  0
 53 46  1  0  0  0  0
 53 52  1  0  0  0  0
M  END
>  <MODEL>
2

>  <REMARK>
 VINA RESULT:      -8.5      2.828      8.468
  Name = 
  15 active torsions:
  status: ('A' for Active; 'I' for Inactive)
    1  A    between atoms: C_2  and  C_20
    2  A    between atoms: C_2  and  C_51
    3  A    between atoms: C_8  and  C_28
    4  A    between atoms: C_8  and  O_45
    5  A    between atoms: C_9  and  C_20
    6  A    between atoms: N_11  and  C_13
    7  A    between atoms: C_12  and  O_45
    8  A    between atoms: C_17  and  C_53
    9  A    between atoms: C_20  and  C_53
   10  A    between atoms: C_21  and  C_30
   11  A    between atoms: C_21  and  C_48
   12  A    between atoms: N_26  and  C_34
   13  A    between atoms: C_28  and  C_34
   14  A    between atoms: C_35  and  C_40
   15  A    between atoms: C_37  and  C_38
                            x       y       z     vdW  Elec       q    Type
                         _______ _______ _______ _____ _____    ______ ____

>  <TORSDO>
F 15

$$$$
=
 OpenBabel11032420213D

 53 58  0  0  1  0  0  0  0  0999 V2000
  190.2490  176.0630  137.9580 C   0  0  2  0  0  3  0  0  0  0  0  0
  193.1290  175.9850  135.4390 C   0  0  0  0  0  2  0  0  0  0  0  0
  194.2390  173.6230  137.3350 C   0  0  0  0  0  1  0  0  0  0  0  0
  191.2340  175.4960  136.9660 C   0  0  0  0  0  0  0  0  0  0  0  0
  191.8690  174.3560  137.2950 C   0  0  0  0  0  3  0  0  0  0  0  0
  193.3000  174.5400  135.2550 N   0  0  0  0  0  2  0  0  0  0  0  0
  192.5580  172.3820  136.0320 C   0  0  0  0  0  1  0  0  0  0  0  0
  192.9970  173.7690  136.4730 C   0  0  0  0  0  0  0  0  0  0  0  0
  191.6670  176.2780  135.7480 C   0  0  0  0  0  2  0  0  0  0  0  0
  188.8520  176.3000  137.4310 C   0  0  0  0  0  0  0  0  0  0  0  0
  188.2640  177.3890  137.6720 O   0  0  0  0  0  0  0  0  0  0  0  0
  186.1150  175.3900  135.2760 C   0  0  0  0  0  3  0  0  0  0  0  0
  185.3930  174.3430  135.6610 C   0  0  0  0  0  0  0  0  0  0  0  0
  187.9530  174.0930  137.3140 N   0  0  0  0  0  0  0  0  0  0  0  0
  187.1280  172.9880  136.9040 C   0  0  0  0  0  3  0  0  0  0  0  0
  188.0870  176.5590  134.6680 O   0  0  0  0  0  1  0  0  0  0  0  0
  185.9920  173.0960  136.1940 C   0  0  0  0  0  3  0  0  0  0  0  0
  187.6040  175.4070  135.3050 C   0  0  1  0  0  3  0  0  0  0  0  0
  188.1350  175.2260  136.7050 C   0  0  0  0  0  0  0  0  0  0  0  0
  184.0100  174.4410  135.5030 O   0  0  0  0  0  0  0  0  0  0  0  0
  183.3270  175.6910  135.5080 C   0  0  0  0  0  2  0  0  0  0  0  0
  183.0090  176.0630  136.9400 C   0  0  0  0  0  2  0  0  0  0  0  0
  183.3500  177.5270  137.1740 C   0  0  0  0  0  2  0  0  0  0  0  0
  183.8160  177.8490  139.4950 N   0  0  0  0  0  0  0  0  0  0  0  0
  181.3130  178.8300  140.0360 C   0  0  0  0  0  0  0  0  0  0  0  0
  182.2580  178.7190  141.0590 C   0  0  0  0  0  3  0  0  0  0  0  0
  182.9280  177.9460  138.5080 N   0  0  0  0  0  0  0  0  0  0  0  0
  181.6730  178.4410  138.7390 C   0  0  0  0  0  0  0  0  0  0  0  0
  183.5230  178.2150  140.7740 C   0  0  0  0  0  0  0  0  0  0  0  0
  180.8440  178.5580  137.7980 O   0  0  0  0  0  0  0  0  0  0  0  0
  183.9790  178.6880  143.1600 C   0  0  0  0  0  1  0  0  0  0  0  0
  184.5650  178.1700  141.8560 C   0  0  0  0  0  3  0  0  0  0  0  0
  185.7870  178.9900  141.4820 C   0  0  0  0  0  1  0  0  0  0  0  0
  179.9970  179.3370  140.3020 N   0  0  0  0  0  2  0  0  0  0  0  0
  179.6280  179.9760  141.5560 C   0  0  0  0  0  1  0  0  0  0  0  0
  190.8310  177.2850  138.6750 C   0  0  0  0  0  2  0  0  0  0  0  0
  189.7070  176.6870  140.8260 C   0  0  0  0  0  3  0  0  0  0  0  0
  192.0030  177.4560  140.9240 C   0  0  0  0  0  3  0  0  0  0  0  0
  191.9940  177.3280  142.3150 C   0  0  0  0  0  3  0  0  0  0  0  0
  190.8680  177.1110  140.1680 C   0  0  0  0  0  0  0  0  0  0  0  0
  189.6850  176.5890  142.2310 C   0  0  0  0  0  3  0  0  0  0  0  0
  190.8390  176.8920  142.9710 C   0  0  0  0  0  0  0  0  0  0  0  0
  190.8310  176.7700  144.4600 C   0  0  0  0  0  2  0  0  0  0  0  0
  189.2710  177.6990  146.1340 N   0  0  1  0  0  0  0  0  0  0  0  0
  186.8910  177.6410  145.9690 C   0  0  0  0  0  3  0  0  0  0  0  0
  188.0440  177.3510  146.8680 C   0  0  2  0  0  3  0  0  0  0  0  0
  189.4060  176.7700  144.9850 C   0  0  1  0  0  3  0  0  0  0  0  0
  188.8230  178.1050  144.7850 C   0  0  1  0  0  3  0  0  0  0  0  0
  187.3280  178.0530  144.8030 C   0  0  0  0  0  3  0  0  0  0  0  0
  187.6400  177.3180  149.2350 F   0  0  0  0  0  0  0  0  0  0  0  0
  187.0080  179.1670  148.0870 F   0  0  0  0  0  0  0  0  0  0  0  0
  189.2060  178.7060  148.4460 F   0  0  0  0  0  0  0  0  0  0  0  0
  187.9550  178.1500  148.1760 C   0  0  0  0  0  0  0  0  0  0  0  0
  1 36  1  6  0  0  0
  2  9  1  0  0  0  0
  4  5  2  0  0  0  0
  4  1  1  0  0  0  0
  6  2  1  0  0  0  0
  6  8  1  0  0  0  0
  7  8  1  0  0  0  0
  8  5  1  0  0  0  0
  8  3  1  0  0  0  0
  9  4  1  0  0  0  0
 10 11  2  0  0  0  0
 10  1  1  0  0  0  0
 12 18  1  0  0  0  0
 12 13  2  0  0  0  0
 13 17  1  0  0  0  0
 15 14  1  0  0  0  0
 17 15  2  0  0  0  0
 18 16  1  1  0  0  0
 18 19  1  0  0  0  0
 19 14  2  0  0  0  0
 19 10  1  0  0  0  0
 20 21  1  0  0  0  0
 20 13  1  0  0  0  0
 21 22  1  0  0  0  0
 22 23  1  0  0  0  0
 23 27  1  0  0  0  0
 24 29  2  0  0  0  0
 25 34  1  0  0  0  0
 25 26  2  0  0  0  0
 27 28  1  0  0  0  0
 27 24  1  0  0  0  0
 28 25  1  0  0  0  0
 29 26  1  0  0  0  0
 29 32  1  0  0  0  0
 30 28  2  0  0  0  0
 32 31  1  0  0  0  0
 33 32  1  0  0  0  0
 34 35  1  0  0  0  0
 36 40  1  0  0  0  0
 37 41  1  0  0  0  0
 38 39  2  0  0  0  0
 39 42  1  0  0  0  0
 40 37  2  0  0  0  0
 40 38  1  0  0  0  0
 41 42  2  0  0  0  0
 42 43  1  0  0  0  0
 43 47  1  0  0  0  0
 44 46  1  0  0  0  0
 45 46  1  0  0  0  0
 46 53  1  0  0  0  0
 47 44  1  0  0  0  0
 48 49  1  0  0  0  0
 48 47  1  0  0  0  0
 48 44  1  0  0  0  0
 49 45  2  0  0  0  0
 51 53  1  0  0  0  0
 53 52  1  0  0  0  0
 53 50  1  0  0  0  0
M  END
>  <MODEL>
3

>  <REMARK>
 VINA RESULT:      -8.3      2.064      8.522
  Name = 
  15 active torsions:
  status: ('A' for Active; 'I' for Inactive)
    1  A    between atoms: C_2  and  C_20
    2  A    between atoms: C_2  and  C_51
    3  A    between atoms: C_8  and  C_28
    4  A    between atoms: C_8  and  O_45
    5  A    between atoms: C_9  and  C_20
    6  A    between atoms: N_11  and  C_13
    7  A    between atoms: C_12  and  O_45
    8  A    between atoms: C_17  and  C_53
    9  A    between atoms: C_20  and  C_53
   10  A    between atoms: C_21  and  C_30
   11  A    between atoms: C_21  and  C_48
   12  A    between atoms: N_26  and  C_34
   13  A    between atoms: C_28  and  C_34
   14  A    between atoms: C_35  and  C_40
   15  A    between atoms: C_37  and  C_38
                            x       y       z     vdW  Elec       q    Type
                         _______ _______ _______ _____ _____    ______ ____

>  <TORSDO>
F 15

$$$$
=
 OpenBabel11032420213D

 53 58  0  0  1  0  0  0  0  0999 V2000
  191.0630  175.5150  136.7950 C   0  0  2  0  0  3  0  0  0  0  0  0
  192.9790  172.4690  135.4910 C   0  0  0  0  0  2  0  0  0  0  0  0
  195.5690  174.2780  136.1400 C   0  0  0  0  0  1  0  0  0  0  0  0
  192.0680  174.3890  136.7730 C   0  0  0  0  0  0  0  0  0  0  0  0
  193.3330  174.6700  137.1380 C   0  0  0  0  0  3  0  0  0  0  0  0
  194.0550  172.3710  136.4820 N   0  0  0  0  0  2  0  0  0  0  0  0
  195.0350  173.4550  138.3990 C   0  0  0  0  0  1  0  0  0  0  0  0
  194.4720  173.6820  137.0060 C   0  0  0  0  0  0  0  0  0  0  0  0
  191.7390  173.0490  136.1580 C   0  0  0  0  0  2  0  0  0  0  0  0
  190.4210  175.8450  135.4670 C   0  0  0  0  0  0  0  0  0  0  0  0
  191.0710  176.4810  134.5940 O   0  0  0  0  0  0  0  0  0  0  0  0
  186.9790  176.2230  136.4530 C   0  0  0  0  0  3  0  0  0  0  0  0
  186.2740  175.1000  136.5520 C   0  0  0  0  0  0  0  0  0  0  0  0
  188.7190  174.2680  134.9140 N   0  0  0  0  0  0  0  0  0  0  0  0
  187.4200  173.6530  134.8240 C   0  0  0  0  0  3  0  0  0  0  0  0
  188.3450  177.8370  135.3810 O   0  0  0  0  0  1  0  0  0  0  0  0
  186.3490  174.0040  135.5560 C   0  0  0  0  0  3  0  0  0  0  0  0
  187.8910  176.5130  135.3120 C   0  0  1  0  0  3  0  0  0  0  0  0
  189.0020  175.4990  135.2160 C   0  0  0  0  0  0  0  0  0  0  0  0
  185.4010  175.0000  137.6360 O   0  0  0  0  0  0  0  0  0  0  0  0
  184.0240  174.6720  137.4800 C   0  0  0  0  0  2  0  0  0  0  0  0
  183.1980  175.9120  137.7440 C   0  0  0  0  0  2  0  0  0  0  0  0
  182.1440  175.6070  138.7980 C   0  0  0  0  0  2  0  0  0  0  0  0
  183.1250  177.2000  140.2850 N   0  0  0  0  0  0  0  0  0  0  0  0
  180.7170  178.3510  140.9120 C   0  0  0  0  0  0  0  0  0  0  0  0
  181.8950  178.8360  141.4860 C   0  0  0  0  0  3  0  0  0  0  0  0
  182.0120  176.7250  139.7300 N   0  0  0  0  0  0  0  0  0  0  0  0
  180.7930  177.2810  140.0110 C   0  0  0  0  0  0  0  0  0  0  0  0
  183.1110  178.2400  141.1650 C   0  0  0  0  0  0  0  0  0  0  0  0
  179.7450  176.8480  139.4640 O   0  0  0  0  0  0  0  0  0  0  0  0
  185.3970  178.9980  140.5980 C   0  0  0  0  0  1  0  0  0  0  0  0
  184.3860  178.8110  141.7180 C   0  0  0  0  0  3  0  0  0  0  0  0
  184.9720  177.9160  142.7950 C   0  0  0  0  0  1  0  0  0  0  0  0
  179.4470  178.9390  141.2330 N   0  0  0  0  0  2  0  0  0  0  0  0
  179.2950  180.3190  141.6710 C   0  0  0  0  0  1  0  0  0  0  0  0
  191.6320  176.7470  137.5060 C   0  0  0  0  0  2  0  0  0  0  0  0
  191.4040  176.8980  139.9900 C   0  0  0  0  0  3  0  0  0  0  0  0
  189.5190  177.5920  138.6350 C   0  0  0  0  0  3  0  0  0  0  0  0
  188.7890  177.8870  139.7890 C   0  0  0  0  0  3  0  0  0  0  0  0
  190.8410  177.1210  138.7270 C   0  0  0  0  0  0  0  0  0  0  0  0
  190.6590  177.1640  141.1550 C   0  0  0  0  0  3  0  0  0  0  0  0
  189.3570  177.6770  141.0500 C   0  0  0  0  0  0  0  0  0  0  0  0
  188.5660  177.9830  142.2810 C   0  0  0  0  0  2  0  0  0  0  0  0
  188.7650  177.4570  144.6860 N   0  0  1  0  0  0  0  0  0  0  0  0
  190.8240  177.2300  145.8730 C   0  0  0  0  0  3  0  0  0  0  0  0
  189.4870  177.8900  145.8940 C   0  0  2  0  0  3  0  0  0  0  0  0
  189.4710  178.0030  143.5000 C   0  0  1  0  0  3  0  0  0  0  0  0
  189.7230  176.6200  143.9320 C   0  0  1  0  0  3  0  0  0  0  0  0
  190.9570  176.5290  144.7720 C   0  0  0  0  0  3  0  0  0  0  0  0
  189.1780  176.3490  147.7090 F   0  0  0  0  0  0  0  0  0  0  0  0
  187.3360  177.3770  146.8790 F   0  0  0  0  0  0  0  0  0  0  0  0
  188.8690  178.5280  148.1040 F   0  0  0  0  0  0  0  0  0  0  0  0
  188.6940  177.5200  147.1550 C   0  0  0  0  0  0  0  0  0  0  0  0
  1 36  1  6  0  0  0
  2  9  1  0  0  0  0
  2  6  1  0  0  0  0
  3  8  1  0  0  0  0
  4  1  1  0  0  0  0
  4  5  2  0  0  0  0
  6  8  1  0  0  0  0
  8  5  1  0  0  0  0
  8  7  1  0  0  0  0
  9  4  1  0  0  0  0
 10  1  1  0  0  0  0
 11 10  2  0  0  0  0
 12 13  2  0  0  0  0
 13 20  1  0  0  0  0
 14 19  2  0  0  0  0
 15 14  1  0  0  0  0
 15 17  2  0  0  0  0
 17 13  1  0  0  0  0
 18 16  1  1  0  0  0
 18 12  1  0  0  0  0
 19 18  1  0  0  0  0
 19 10  1  0  0  0  0
 21 20  1  0  0  0  0
 21 22  1  0  0  0  0
 22 23  1  0  0  0  0
 23 27  1  0  0  0  0
 24 29  2  0  0  0  0
 25 34  1  0  0  0  0
 25 26  2  0  0  0  0
 27 28  1  0  0  0  0
 27 24  1  0  0  0  0
 28 25  1  0  0  0  0
 29 26  1  0  0  0  0
 29 32  1  0  0  0  0
 30 28  2  0  0  0  0
 31 32  1  0  0  0  0
 32 33  1  0  0  0  0
 34 35  1  0  0  0  0
 36 40  1  0  0  0  0
 37 41  1  0  0  0  0
 38 40  1  0  0  0  0
 38 39  2  0  0  0  0
 39 42  1  0  0  0  0
 40 37  2  0  0  0  0
 42 41  2  0  0  0  0
 42 43  1  0  0  0  0
 43 47  1  0  0  0  0
 44 46  1  0  0  0  0
 45 46  1  0  0  0  0
 46 53  1  0  0  0  0
 47 48  1  0  0  0  0
 47 44  1  0  0  0  0
 48 44  1  0  0  0  0
 48 49  1  0  0  0  0
 49 45  2  0  0  0  0
 51 53  1  0  0  0  0
 53 50  1  0  0  0  0
 53 52  1  0  0  0  0
M  END
>  <MODEL>
4

>  <REMARK>
 VINA RESULT:      -8.3      2.058      9.040
  Name = 
  15 active torsions:
  status: ('A' for Active; 'I' for Inactive)
    1  A    between atoms: C_2  and  C_20
    2  A    between atoms: C_2  and  C_51
    3  A    between atoms: C_8  and  C_28
    4  A    between atoms: C_8  and  O_45
    5  A    between atoms: C_9  and  C_20
    6  A    between atoms: N_11  and  C_13
    7  A    between atoms: C_12  and  O_45
    8  A    between atoms: C_17  and  C_53
    9  A    between atoms: C_20  and  C_53
   10  A    between atoms: C_21  and  C_30
   11  A    between atoms: C_21  and  C_48
   12  A    between atoms: N_26  and  C_34
   13  A    between atoms: C_28  and  C_34
   14  A    between atoms: C_35  and  C_40
   15  A    between atoms: C_37  and  C_38
                            x       y       z     vdW  Elec       q    Type
                         _______ _______ _______ _____ _____    ______ ____

>  <TORSDO>
F 15

$$$$
=
 OpenBabel11032420213D

 53 58  0  0  1  0  0  0  0  0999 V2000
  182.3890  176.3410  137.4410 C   0  0  2  0  0  3  0  0  0  0  0  0
  182.2970  173.6780  134.6950 C   0  0  0  0  0  2  0  0  0  0  0  0
  182.9210  171.6630  137.1350 C   0  0  0  0  0  1  0  0  0  0  0  0
  181.9920  175.0750  136.7230 C   0  0  0  0  0  0  0  0  0  0  0  0
  181.9660  173.9330  137.4350 C   0  0  0  0  0  3  0  0  0  0  0  0
  181.5220  172.6230  135.3550 N   0  0  0  0  0  2  0  0  0  0  0  0
  180.4980  171.9800  137.4410 C   0  0  0  0  0  1  0  0  0  0  0  0
  181.7480  172.5720  136.8090 C   0  0  0  0  0  0  0  0  0  0  0  0
  181.8430  175.0330  135.2210 C   0  0  0  0  0  2  0  0  0  0  0  0
  181.3000  177.0020  138.2530 C   0  0  0  0  0  0  0  0  0  0  0  0
  180.0900  176.8330  137.9400 O   0  0  0  0  0  0  0  0  0  0  0  0
  183.5960  179.4360  139.5850 C   0  0  0  0  0  3  0  0  0  0  0  0
  183.9760  179.2500  140.8450 C   0  0  0  0  0  0  0  0  0  0  0  0
  181.4890  177.4890  140.5800 N   0  0  0  0  0  0  0  0  0  0  0  0
  181.9350  178.1040  141.8030 C   0  0  0  0  0  3  0  0  0  0  0  0
  182.0580  179.7440  137.8070 O   0  0  0  0  0  1  0  0  0  0  0  0
  183.0370  178.8620  141.9270 C   0  0  0  0  0  3  0  0  0  0  0  0
  182.1820  179.3090  139.1340 C   0  0  1  0  0  3  0  0  0  0  0  0
  181.6470  177.9190  139.3640 C   0  0  0  0  0  0  0  0  0  0  0  0
  185.3200  179.4800  141.1360 O   0  0  0  0  0  0  0  0  0  0  0  0
  186.3600  178.6280  140.6680 C   0  0  0  0  0  2  0  0  0  0  0  0
  187.3830  178.4600  141.7710 C   0  0  0  0  0  2  0  0  0  0  0  0
  186.6960  177.9550  143.0300 C   0  0  0  0  0  2  0  0  0  0  0  0
  188.9610  177.8220  143.7800 N   0  0  0  0  0  0  0  0  0  0  0  0
  188.2500  177.3210  146.3800 C   0  0  0  0  0  0  0  0  0  0  0  0
  189.6000  177.3980  146.0260 C   0  0  0  0  0  3  0  0  0  0  0  0
  187.6710  177.7500  144.1000 N   0  0  0  0  0  0  0  0  0  0  0  0
  187.2790  177.5120  145.3890 C   0  0  0  0  0  0  0  0  0  0  0  0
  189.9490  177.6480  144.7020 C   0  0  0  0  0  0  0  0  0  0  0  0
  186.0580  177.4720  145.6940 O   0  0  0  0  0  0  0  0  0  0  0  0
  191.6570  179.2400  143.8830 C   0  0  0  0  0  1  0  0  0  0  0  0
  191.3970  177.8110  144.3350 C   0  0  0  0  0  3  0  0  0  0  0  0
  191.8020  176.8440  143.2360 C   0  0  0  0  0  1  0  0  0  0  0  0
  187.8600  177.0550  147.7360 N   0  0  0  0  0  2  0  0  0  0  0  0
  187.9550  178.0420  148.8010 C   0  0  0  0  0  1  0  0  0  0  0  0
  183.1000  177.3120  136.4920 C   0  0  0  0  0  2  0  0  0  0  0  0
  185.3880  177.0280  137.4570 C   0  0  0  0  0  3  0  0  0  0  0  0
  185.1260  176.7520  135.0640 C   0  0  0  0  0  3  0  0  0  0  0  0
  186.4940  176.5010  134.9360 C   0  0  0  0  0  3  0  0  0  0  0  0
  184.5590  176.9900  136.3290 C   0  0  0  0  0  0  0  0  0  0  0  0
  186.7730  176.8080  137.3260 C   0  0  0  0  0  3  0  0  0  0  0  0
  187.3190  176.5260  136.0650 C   0  0  0  0  0  0  0  0  0  0  0  0
  188.7850  176.2700  135.9190 C   0  0  0  0  0  2  0  0  0  0  0  0
  190.8980  176.5230  137.1730 N   0  0  1  0  0  0  0  0  0  0  0  0
  191.0610  176.8540  139.5310 C   0  0  0  0  0  3  0  0  0  0  0  0
  191.5680  176.0380  138.3910 C   0  0  2  0  0  3  0  0  0  0  0  0
  189.4500  176.2140  137.2830 C   0  0  1  0  0  3  0  0  0  0  0  0
  189.9440  177.5550  137.6300 C   0  0  1  0  0  3  0  0  0  0  0  0
  190.1470  177.6940  139.1050 C   0  0  0  0  0  3  0  0  0  0  0  0
  193.4210  177.0050  137.2090 F   0  0  0  0  0  0  0  0  0  0  0  0
  193.6780  174.9080  138.0320 F   0  0  0  0  0  0  0  0  0  0  0  0
  193.6100  176.7110  139.4170 F   0  0  0  0  0  0  0  0  0  0  0  0
  193.0920  176.1530  138.2480 C   0  0  0  0  0  0  0  0  0  0  0  0
  1 36  1  6  0  0  0
  1 10  1  0  0  0  0
  2  9  1  0  0  0  0
  2  6  1  0  0  0  0
  4  5  2  0  0  0  0
  4  1  1  0  0  0  0
  6  8  1  0  0  0  0
  8  3  1  0  0  0  0
  8  5  1  0  0  0  0
  8  7  1  0  0  0  0
  9  4  1  0  0  0  0
 10 19  1  0  0  0  0
 11 10  2  0  0  0  0
 12 13  2  0  0  0  0
 13 20  1  0  0  0  0
 13 17  1  0  0  0  0
 14 15  1  0  0  0  0
 15 17  2  0  0  0  0
 18 16  1  6  0  0  0
 18 19  1  0  0  0  0
 18 12  1  0  0  0  0
 19 14  2  0  0  0  0
 21 20  1  0  0  0  0
 21 22  1  0  0  0  0
 22 23  1  0  0  0  0
 23 27  1  0  0  0  0
 24 27  1  0  0  0  0
 24 29  2  0  0  0  0
 25 34  1  0  0  0  0
 26 25  2  0  0  0  0
 27 28  1  0  0  0  0
 28 30  2  0  0  0  0
 28 25  1  0  0  0  0
 29 26  1  0  0  0  0
 31 32  1  0  0  0  0
 32 29  1  0  0  0  0
 33 32  1  0  0  0  0
 34 35  1  0  0  0  0
 38 40  1  0  0  0  0
 39 38  2  0  0  0  0
 39 42  1  0  0  0  0
 40 36  1  0  0  0  0
 40 37  2  0  0  0  0
 41 37  1  0  0  0  0
 42 41  2  0  0  0  0
 43 42  1  0  0  0  0
 43 47  1  0  0  0  0
 44 47  1  0  0  0  0
 44 48  1  0  0  0  0
 44 46  1  0  0  0  0
 46 45  1  0  0  0  0
 47 48  1  0  0  0  0
 48 49  1  0  0  0  0
 49 45  2  0  0  0  0
 50 53  1  0  0  0  0
 51 53  1  0  0  0  0
 53 46  1  0  0  0  0
 53 52  1  0  0  0  0
M  END
>  <MODEL>
5

>  <REMARK>
 VINA RESULT:      -8.2      2.984      7.627
  Name = 
  15 active torsions:
  status: ('A' for Active; 'I' for Inactive)
    1  A    between atoms: C_2  and  C_20
    2  A    between atoms: C_2  and  C_51
    3  A    between atoms: C_8  and  C_28
    4  A    between atoms: C_8  and  O_45
    5  A    between atoms: C_9  and  C_20
    6  A    between atoms: N_11  and  C_13
    7  A    between atoms: C_12  and  O_45
    8  A    between atoms: C_17  and  C_53
    9  A    between atoms: C_20  and  C_53
   10  A    between atoms: C_21  and  C_30
   11  A    between atoms: C_21  and  C_48
   12  A    between atoms: N_26  and  C_34
   13  A    between atoms: C_28  and  C_34
   14  A    between atoms: C_35  and  C_40
   15  A    between atoms: C_37  and  C_38
                            x       y       z     vdW  Elec       q    Type
                         _______ _______ _______ _____ _____    ______ ____

>  <TORSDO>
F 15

$$$$
=
 OpenBabel11032420213D

 53 58  0  0  1  0  0  0  0  0999 V2000
  190.1960  176.4710  138.6650 C   0  0  2  0  0  3  0  0  0  0  0  0
  191.6010  174.1450  135.9710 C   0  0  0  0  0  2  0  0  0  0  0  0
  194.0890  176.1970  136.0140 C   0  0  0  0  0  1  0  0  0  0  0  0
  191.1770  175.5660  137.9610 C   0  0  0  0  0  0  0  0  0  0  0  0
  192.4550  175.9790  137.8660 C   0  0  0  0  0  3  0  0  0  0  0  0
  192.9980  174.0280  136.4030 N   0  0  0  0  0  2  0  0  0  0  0  0
  194.6110  174.8390  138.0000 C   0  0  0  0  0  1  0  0  0  0  0  0
  193.5010  175.2530  137.0480 C   0  0  0  0  0  0  0  0  0  0  0  0
  190.7170  174.3490  137.1930 C   0  0  0  0  0  2  0  0  0  0  0  0
  189.2650  177.2520  137.7670 C   0  0  0  0  0  0  0  0  0  0  0  0
  189.2590  178.5130  137.8090 O   0  0  0  0  0  0  0  0  0  0  0  0
  186.8350  177.4660  135.1180 C   0  0  0  0  0  3  0  0  0  0  0  0
  185.6760  176.8550  135.3400 C   0  0  0  0  0  0  0  0  0  0  0  0
  187.5390  175.6390  137.4380 N   0  0  0  0  0  0  0  0  0  0  0  0
  186.4050  174.9680  136.8580 C   0  0  0  0  0  3  0  0  0  0  0  0
  189.1910  177.6400  134.9150 O   0  0  0  0  0  1  0  0  0  0  0  0
  185.5730  175.5070  135.9500 C   0  0  0  0  0  3  0  0  0  0  0  0
  188.1540  176.8470  135.4270 C   0  0  1  0  0  3  0  0  0  0  0  0
  188.2970  176.5450  136.8970 C   0  0  0  0  0  0  0  0  0  0  0  0
  184.5230  177.5240  134.9280 O   0  0  0  0  0  0  0  0  0  0  0  0
  183.2360  176.9170  134.9550 C   0  0  0  0  0  2  0  0  0  0  0  0
  182.3760  177.6480  135.9650 C   0  0  0  0  0  2  0  0  0  0  0  0
  181.4830  178.6450  135.2440 C   0  0  0  0  0  2  0  0  0  0  0  0
  180.7420  179.2700  137.4280 N   0  0  0  0  0  0  0  0  0  0  0  0
  180.3080  181.8830  136.7190 C   0  0  0  0  0  0  0  0  0  0  0  0
  180.0580  181.4620  138.0280 C   0  0  0  0  0  3  0  0  0  0  0  0
  180.9830  179.6540  136.1760 N   0  0  0  0  0  0  0  0  0  0  0  0
  180.7890  180.9520  135.7890 C   0  0  0  0  0  0  0  0  0  0  0  0
  180.2760  180.1330  138.3750 C   0  0  0  0  0  0  0  0  0  0  0  0
  181.0450  181.3190  134.6120 O   0  0  0  0  0  0  0  0  0  0  0  0
  179.7090  180.8930  140.6610 C   0  0  0  0  0  1  0  0  0  0  0  0
  180.0850  179.6970  139.8000 C   0  0  0  0  0  3  0  0  0  0  0  0
  181.3380  179.0410  140.3520 C   0  0  0  0  0  1  0  0  0  0  0  0
  180.0820  183.2460  136.3300 N   0  0  0  0  0  2  0  0  0  0  0  0
  181.1040  184.2790  136.4120 C   0  0  0  0  0  1  0  0  0  0  0  0
  190.9040  177.3510  139.7010 C   0  0  0  0  0  2  0  0  0  0  0  0
  190.9570  176.5670  142.0740 C   0  0  0  0  0  3  0  0  0  0  0  0
  188.9820  177.7470  141.3140 C   0  0  0  0  0  3  0  0  0  0  0  0
  188.4000  177.6030  142.5760 C   0  0  0  0  0  3  0  0  0  0  0  0
  190.2740  177.2540  141.0620 C   0  0  0  0  0  0  0  0  0  0  0  0
  190.3600  176.3910  143.3370 C   0  0  0  0  0  3  0  0  0  0  0  0
  189.0880  176.9280  143.5900 C   0  0  0  0  0  0  0  0  0  0  0  0
  188.4560  176.7650  144.9350 C   0  0  0  0  0  2  0  0  0  0  0  0
  186.1700  177.6960  144.8370 N   0  0  1  0  0  0  0  0  0  0  0  0
  185.3860  179.5410  146.1330 C   0  0  0  0  0  3  0  0  0  0  0  0
  185.4660  178.9860  144.7520 C   0  0  2  0  0  3  0  0  0  0  0  0
  187.5710  177.9570  145.2520 C   0  0  1  0  0  3  0  0  0  0  0  0
  186.5700  177.5580  146.2530 C   0  0  1  0  0  3  0  0  0  0  0  0
  186.0120  178.7460  146.9690 C   0  0  0  0  0  3  0  0  0  0  0  0
  183.1850  178.3120  145.0830 F   0  0  0  0  0  0  0  0  0  0  0  0
  184.1090  177.9290  143.0480 F   0  0  0  0  0  0  0  0  0  0  0  0
  183.5930  180.0400  143.7230 F   0  0  0  0  0  0  0  0  0  0  0  0
  184.0710  178.7960  144.1380 C   0  0  0  0  0  0  0  0  0  0  0  0
  1 36  1  6  0  0  0
  2  6  1  0  0  0  0
  2  9  1  0  0  0  0
  3  8  1  0  0  0  0
  4  1  1  0  0  0  0
  5  4  2  0  0  0  0
  6  8  1  0  0  0  0
  8  5  1  0  0  0  0
  8  7  1  0  0  0  0
  9  4  1  0  0  0  0
 10 11  2  0  0  0  0
 10  1  1  0  0  0  0
 12 13  2  0  0  0  0
 12 18  1  0  0  0  0
 13 17  1  0  0  0  0
 15 14  1  0  0  0  0
 17 15  2  0  0  0  0
 18 16  1  1  0  0  0
 18 19  1  0  0  0  0
 19 14  2  0  0  0  0
 19 10  1  0  0  0  0
 20 21  1  0  0  0  0
 20 13  1  0  0  0  0
 21 22  1  0  0  0  0
 23 22  1  0  0  0  0
 23 27  1  0  0  0  0
 24 29  2  0  0  0  0
 25 26  2  0  0  0  0
 26 29  1  0  0  0  0
 27 24  1  0  0  0  0
 28 27  1  0  0  0  0
 28 25  1  0  0  0  0
 29 32  1  0  0  0  0
 30 28  2  0  0  0  0
 32 33  1  0  0  0  0
 32 31  1  0  0  0  0
 34 35  1  0  0  0  0
 34 25  1  0  0  0  0
 36 40  1  0  0  0  0
 37 41  1  0  0  0  0
 38 39  2  0  0  0  0
 39 42  1  0  0  0  0
 40 38  1  0  0  0  0
 40 37  2  0  0  0  0
 41 42  2  0  0  0  0
 42 43  1  0  0  0  0
 43 47  1  0  0  0  0
 44 47  1  0  0  0  0
 44 48  1  0  0  0  0
 45 49  2  0  0  0  0
 46 44  1  0  0  0  0
 46 45  1  0  0  0  0
 47 48  1  0  0  0  0
 48 49  1  0  0  0  0
 51 53  1  0  0  0  0
 52 53  1  0  0  0  0
 53 46  1  0  0  0  0
 53 50  1  0  0  0  0
M  END
>  <MODEL>
6

>  <REMARK>
 VINA RESULT:      -7.9      3.194      9.185
  Name = 
  15 active torsions:
  status: ('A' for Active; 'I' for Inactive)
    1  A    between atoms: C_2  and  C_20
    2  A    between atoms: C_2  and  C_51
    3  A    between atoms: C_8  and  C_28
    4  A    between atoms: C_8  and  O_45
    5  A    between atoms: C_9  and  C_20
    6  A    between atoms: N_11  and  C_13
    7  A    between atoms: C_12  and  O_45
    8  A    between atoms: C_17  and  C_53
    9  A    between atoms: C_20  and  C_53
   10  A    between atoms: C_21  and  C_30
   11  A    between atoms: C_21  and  C_48
   12  A    between atoms: N_26  and  C_34
   13  A    between atoms: C_28  and  C_34
   14  A    between atoms: C_35  and  C_40
   15  A    between atoms: C_37  and  C_38
                            x       y       z     vdW  Elec       q    Type
                         _______ _______ _______ _____ _____    ______ ____

>  <TORSDO>
F 15

$$$$
=
 OpenBabel11032420213D

 53 58  0  0  1  0  0  0  0  0999 V2000
  189.3980  176.4930  137.9480 C   0  0  2  0  0  3  0  0  0  0  0  0
  191.5960  176.0160  134.8520 C   0  0  0  0  0  2  0  0  0  0  0  0
  192.6170  173.3950  136.4300 C   0  0  0  0  0  1  0  0  0  0  0  0
  190.0180  175.8060  136.7570 C   0  0  0  0  0  0  0  0  0  0  0  0
  190.4800  174.5530  136.9250 C   0  0  0  0  0  3  0  0  0  0  0  0
  191.4440  174.5760  134.6200 N   0  0  0  0  0  2  0  0  0  0  0  0
  190.4890  172.5540  135.5210 C   0  0  0  0  0  1  0  0  0  0  0  0
  191.2690  173.8120  135.8670 C   0  0  0  0  0  0  0  0  0  0  0  0
  190.3190  176.5570  135.4810 C   0  0  0  0  0  2  0  0  0  0  0  0
  188.0200  177.0710  137.7260 C   0  0  0  0  0  0  0  0  0  0  0  0
  187.6920  178.1530  138.2840 O   0  0  0  0  0  0  0  0  0  0  0  0
  184.8370  177.1130  136.0420 C   0  0  0  0  0  3  0  0  0  0  0  0
  184.0280  176.0900  136.2990 C   0  0  0  0  0  0  0  0  0  0  0  0
  186.7590  175.1010  137.2560 N   0  0  0  0  0  0  0  0  0  0  0  0
  185.7020  174.2540  136.7680 C   0  0  0  0  0  3  0  0  0  0  0  0
  186.8400  178.1710  135.3410 O   0  0  0  0  0  1  0  0  0  0  0  0
  184.4940  174.6830  136.3650 C   0  0  0  0  0  3  0  0  0  0  0  0
  186.2900  176.9500  135.7590 C   0  0  1  0  0  3  0  0  0  0  0  0
  187.0180  176.3300  136.9240 C   0  0  0  0  0  0  0  0  0  0  0  0
  182.6750  176.3860  136.4670 O   0  0  0  0  0  0  0  0  0  0  0  0
  181.7550  175.4570  137.0310 C   0  0  0  0  0  2  0  0  0  0  0  0
  180.4430  176.1690  137.2850 C   0  0  0  0  0  2  0  0  0  0  0  0
  179.9160  175.7910  138.6610 C   0  0  0  0  0  2  0  0  0  0  0  0
  180.7860  177.9560  139.1780 N   0  0  0  0  0  0  0  0  0  0  0  0
  179.8220  177.9160  141.7450 C   0  0  0  0  0  0  0  0  0  0  0  0
  180.5330  179.0270  141.2800 C   0  0  0  0  0  3  0  0  0  0  0  0
  180.1120  176.8890  139.6050 N   0  0  0  0  0  0  0  0  0  0  0  0
  179.6080  176.8390  140.8760 C   0  0  0  0  0  0  0  0  0  0  0  0
  181.0210  179.0330  139.9780 C   0  0  0  0  0  0  0  0  0  0  0  0
  178.9480  175.8410  141.2680 O   0  0  0  0  0  0  0  0  0  0  0  0
  180.7870  181.0150  138.5140 C   0  0  0  0  0  1  0  0  0  0  0  0
  181.7150  180.2580  139.4510 C   0  0  0  0  0  3  0  0  0  0  0  0
  182.9980  179.8980  138.7230 C   0  0  0  0  0  1  0  0  0  0  0  0
  179.3160  177.8770  143.0870 N   0  0  0  0  0  2  0  0  0  0  0  0
  179.9080  178.6270  144.1850 C   0  0  0  0  0  1  0  0  0  0  0  0
  190.3720  177.4960  138.5750 C   0  0  0  0  0  2  0  0  0  0  0  0
  189.4270  176.9420  140.8210 C   0  0  0  0  0  3  0  0  0  0  0  0
  191.7800  177.5030  140.6900 C   0  0  0  0  0  3  0  0  0  0  0  0
  191.9040  177.3400  142.0720 C   0  0  0  0  0  3  0  0  0  0  0  0
  190.5470  177.2790  140.0520 C   0  0  0  0  0  0  0  0  0  0  0  0
  189.5410  176.8090  142.2190 C   0  0  0  0  0  3  0  0  0  0  0  0
  190.7880  176.9900  142.8380 C   0  0  0  0  0  0  0  0  0  0  0  0
  190.9230  176.8300  144.3180 C   0  0  0  0  0  2  0  0  0  0  0  0
  189.4960  177.6120  146.1760 N   0  0  1  0  0  0  0  0  0  0  0  0
  187.1140  177.4730  146.2260 C   0  0  0  0  0  3  0  0  0  0  0  0
  188.3540  177.1800  146.9990 C   0  0  2  0  0  3  0  0  0  0  0  0
  189.5540  176.7490  144.9700 C   0  0  1  0  0  3  0  0  0  0  0  0
  188.9110  178.0700  144.8980 C   0  0  1  0  0  3  0  0  0  0  0  0
  187.4270  177.9610  145.0490 C   0  0  0  0  0  3  0  0  0  0  0  0
  187.5420  179.0190  148.3110 F   0  0  0  0  0  0  0  0  0  0  0  0
  189.6500  178.2920  148.7140 F   0  0  0  0  0  0  0  0  0  0  0  0
  187.8450  177.0480  149.3220 F   0  0  0  0  0  0  0  0  0  0  0  0
  188.3620  177.9070  148.3510 C   0  0  0  0  0  0  0  0  0  0  0  0
  1 36  1  6  0  0  0
  2  9  1  0  0  0  0
  4  5  2  0  0  0  0
  4  1  1  0  0  0  0
  6  2  1  0  0  0  0
  6  8  1  0  0  0  0
  7  8  1  0  0  0  0
  8  3  1  0  0  0  0
  8  5  1  0  0  0  0
  9  4  1  0  0  0  0
 10  1  1  0  0  0  0
 10 11  2  0  0  0  0
 12 13  2  0  0  0  0
 13 17  1  0  0  0  0
 13 20  1  0  0  0  0
 15 14  1  0  0  0  0
 17 15  2  0  0  0  0
 18 16  1  1  0  0  0
 18 12  1  0  0  0  0
 18 19  1  0  0  0  0
 19 14  2  0  0  0  0
 19 10  1  0  0  0  0
 20 21  1  0  0  0  0
 21 22  1  0  0  0  0
 22 23  1  0  0  0  0
 23 27  1  0  0  0  0
 24 27  1  0  0  0  0
 24 29  2  0  0  0  0
 25 34  1  0  0  0  0
 26 25  2  0  0  0  0
 27 28  1  0  0  0  0
 28 30  2  0  0  0  0
 28 25  1  0  0  0  0
 29 26  1  0  0  0  0
 31 32  1  0  0  0  0
 32 29  1  0  0  0  0
 33 32  1  0  0  0  0
 34 35  1  0  0  0  0
 36 40  1  0  0  0  0
 37 41  1  0  0  0  0
 38 39  2  0  0  0  0
 39 42  1  0  0  0  0
 40 38  1  0  0  0  0
 40 37  2  0  0  0  0
 41 42  2  0  0  0  0
 42 43  1  0  0  0  0
 43 47  1  0  0  0  0
 44 46  1  0  0  0  0
 45 46  1  0  0  0  0
 46 53  1  0  0  0  0
 47 44  1  0  0  0  0
 48 47  1  0  0  0  0
 48 49  1  0  0  0  0
 48 44  1  0  0  0  0
 49 45  2  0  0  0  0
 50 53  1  0  0  0  0
 53 51  1  0  0  0  0
 53 52  1  0  0  0  0
M  END
>  <MODEL>
7

>  <REMARK>
 VINA RESULT:      -7.9      2.445      8.654
  Name = 
  15 active torsions:
  status: ('A' for Active; 'I' for Inactive)
    1  A    between atoms: C_2  and  C_20
    2  A    between atoms: C_2  and  C_51
    3  A    between atoms: C_8  and  C_28
    4  A    between atoms: C_8  and  O_45
    5  A    between atoms: C_9  and  C_20
    6  A    between atoms: N_11  and  C_13
    7  A    between atoms: C_12  and  O_45
    8  A    between atoms: C_17  and  C_53
    9  A    between atoms: C_20  and  C_53
   10  A    between atoms: C_21  and  C_30
   11  A    between atoms: C_21  and  C_48
   12  A    between atoms: N_26  and  C_34
   13  A    between atoms: C_28  and  C_34
   14  A    between atoms: C_35  and  C_40
   15  A    between atoms: C_37  and  C_38
                            x       y       z     vdW  Elec       q    Type
                         _______ _______ _______ _____ _____    ______ ____

>  <TORSDO>
F 15

$$$$
=
 OpenBabel11032420213D

 53 58  0  0  1  0  0  0  0  0999 V2000
  182.0670  176.9810  137.0010 C   0  0  2  0  0  3  0  0  0  0  0  0
  180.5290  174.1020  135.0040 C   0  0  0  0  0  2  0  0  0  0  0  0
  182.0110  172.2680  137.2030 C   0  0  0  0  0  1  0  0  0  0  0  0
  181.2850  175.7200  136.7270 C   0  0  0  0  0  0  0  0  0  0  0  0
  181.4860  174.6680  137.5420 C   0  0  0  0  0  3  0  0  0  0  0  0
  180.0470  173.2370  136.0850 N   0  0  0  0  0  2  0  0  0  0  0  0
  180.0200  172.9530  138.4790 C   0  0  0  0  0  1  0  0  0  0  0  0
  180.8970  173.2970  137.2860 C   0  0  0  0  0  0  0  0  0  0  0  0
  180.4740  175.5520  135.4630 C   0  0  0  0  0  2  0  0  0  0  0  0
  181.2430  178.1960  137.3590 C   0  0  0  0  0  0  0  0  0  0  0  0
  180.7690  178.9280  136.4480 O   0  0  0  0  0  0  0  0  0  0  0  0
  182.7600  179.3090  140.4300 C   0  0  0  0  0  3  0  0  0  0  0  0
  182.4120  178.6440  141.5270 C   0  0  0  0  0  0  0  0  0  0  0  0
  180.2510  177.8710  139.5040 N   0  0  0  0  0  0  0  0  0  0  0  0
  180.0630  177.9220  140.9310 C   0  0  0  0  0  3  0  0  0  0  0  0
  182.4050  180.5870  138.4640 O   0  0  0  0  0  1  0  0  0  0  0  0
  181.0140  178.2420  141.8230 C   0  0  0  0  0  3  0  0  0  0  0  0
  181.7790  179.7520  139.4010 C   0  0  1  0  0  3  0  0  0  0  0  0
  181.0590  178.5830  138.7780 C   0  0  0  0  0  0  0  0  0  0  0  0
  183.4270  178.3630  142.4410 O   0  0  0  0  0  0  0  0  0  0  0  0
  183.4560  178.9260  143.7480 C   0  0  0  0  0  2  0  0  0  0  0  0
  184.8670  178.8240  144.2890 C   0  0  0  0  0  2  0  0  0  0  0  0
  185.7110  177.9750  143.3510 C   0  0  0  0  0  2  0  0  0  0  0  0
  187.2060  177.6350  145.1830 N   0  0  0  0  0  0  0  0  0  0  0  0
  189.4410  177.7190  143.5960 C   0  0  0  0  0  0  0  0  0  0  0  0
  189.5670  177.5200  144.9730 C   0  0  0  0  0  3  0  0  0  0  0  0
  187.0680  177.8280  143.8730 N   0  0  0  0  0  0  0  0  0  0  0  0
  188.1600  177.8650  143.0480 C   0  0  0  0  0  0  0  0  0  0  0  0
  188.4270  177.4840  145.7690 C   0  0  0  0  0  0  0  0  0  0  0  0
  188.0240  178.0190  141.8060 O   0  0  0  0  0  0  0  0  0  0  0  0
  187.2620  177.5480  147.9520 C   0  0  0  0  0  1  0  0  0  0  0  0
  188.5560  177.1900  147.2370 C   0  0  0  0  0  3  0  0  0  0  0  0
  189.7120  177.9550  147.8560 C   0  0  0  0  0  1  0  0  0  0  0  0
  190.6000  177.7710  142.7510 N   0  0  0  0  0  2  0  0  0  0  0  0
  191.6810  176.7980  142.8190 C   0  0  0  0  0  1  0  0  0  0  0  0
  183.0800  177.2540  135.8850 C   0  0  0  0  0  2  0  0  0  0  0  0
  184.7200  177.9050  137.6550 C   0  0  0  0  0  3  0  0  0  0  0  0
  185.5860  176.9410  135.6080 C   0  0  0  0  0  3  0  0  0  0  0  0
  186.8910  177.0680  136.0910 C   0  0  0  0  0  3  0  0  0  0  0  0
  184.4910  177.3330  136.3970 C   0  0  0  0  0  0  0  0  0  0  0  0
  186.0360  178.0640  138.1310 C   0  0  0  0  0  3  0  0  0  0  0  0
  187.1190  177.6270  137.3530 C   0  0  0  0  0  0  0  0  0  0  0  0
  188.5170  177.7720  137.8590 C   0  0  0  0  0  2  0  0  0  0  0  0
  190.7650  176.7500  137.8040 N   0  0  1  0  0  0  0  0  0  0  0  0
  191.3500  174.7940  136.5670 C   0  0  0  0  0  3  0  0  0  0  0  0
  191.7470  176.2020  136.8540 C   0  0  2  0  0  3  0  0  0  0  0  0
  189.4500  176.8280  137.1210 C   0  0  1  0  0  3  0  0  0  0  0  0
  189.7580  175.6830  137.9900 C   0  0  1  0  0  3  0  0  0  0  0  0
  190.2340  174.5090  137.1950 C   0  0  0  0  0  3  0  0  0  0  0  0
  193.6400  175.0170  137.7350 F   0  0  0  0  0  0  0  0  0  0  0  0
  193.1950  177.0690  138.5890 F   0  0  0  0  0  0  0  0  0  0  0  0
  194.0150  176.8290  136.4800 F   0  0  0  0  0  0  0  0  0  0  0  0
  193.1630  176.2810  137.4400 C   0  0  0  0  0  0  0  0  0  0  0  0
  1 36  1  6  0  0  0
  1 10  1  0  0  0  0
  2  9  1  0  0  0  0
  2  6  1  0  0  0  0
  3  8  1  0  0  0  0
  4  1  1  0  0  0  0
  4  5  2  0  0  0  0
  6  8  1  0  0  0  0
  8  5  1  0  0  0  0
  8  7  1  0  0  0  0
  9  4  1  0  0  0  0
 10 19  1  0  0  0  0
 11 10  2  0  0  0  0
 12 13  2  0  0  0  0
 13 17  1  0  0  0  0
 13 20  1  0  0  0  0
 14 15  1  0  0  0  0
 15 17  2  0  0  0  0
 18 16  1  6  0  0  0
 18 12  1  0  0  0  0
 19 18  1  0  0  0  0
 19 14  2  0  0  0  0
 20 21  1  0  0  0  0
 21 22  1  0  0  0  0
 23 27  1  0  0  0  0
 23 22  1  0  0  0  0
 24 29  2  0  0  0  0
 25 26  2  0  0  0  0
 26 29  1  0  0  0  0
 27 24  1  0  0  0  0
 28 25  1  0  0  0  0
 28 27  1  0  0  0  0
 29 32  1  0  0  0  0
 30 28  2  0  0  0  0
 32 33  1  0  0  0  0
 32 31  1  0  0  0  0
 34 35  1  0  0  0  0
 34 25  1  0  0  0  0
 36 40  1  0  0  0  0
 37 41  1  0  0  0  0
 38 39  2  0  0  0  0
 38 40  1  0  0  0  0
 39 42  1  0  0  0  0
 40 37  2  0  0  0  0
 42 43  1  0  0  0  0
 42 41  2  0  0  0  0
 44 48  1  0  0  0  0
 45 46  1  0  0  0  0
 45 49  2  0  0  0  0
 46 53  1  0  0  0  0
 46 44  1  0  0  0  0
 47 44  1  0  0  0  0
 47 43  1  0  0  0  0
 47 48  1  0  0  0  0
 49 48  1  0  0  0  0
 52 53  1  0  0  0  0
 53 50  1  0  0  0  0
 53 51  1  0  0  0  0
M  END
>  <MODEL>
8

>  <REMARK>
 VINA RESULT:      -7.8      2.963      7.411
  Name = 
  15 active torsions:
  status: ('A' for Active; 'I' for Inactive)
    1  A    between atoms: C_2  and  C_20
    2  A    between atoms: C_2  and  C_51
    3  A    between atoms: C_8  and  C_28
    4  A    between atoms: C_8  and  O_45
    5  A    between atoms: C_9  and  C_20
    6  A    between atoms: N_11  and  C_13
    7  A    between atoms: C_12  and  O_45
    8  A    between atoms: C_17  and  C_53
    9  A    between atoms: C_20  and  C_53
   10  A    between atoms: C_21  and  C_30
   11  A    between atoms: C_21  and  C_48
   12  A    between atoms: N_26  and  C_34
   13  A    between atoms: C_28  and  C_34
   14  A    between atoms: C_35  and  C_40
   15  A    between atoms: C_37  and  C_38
                            x       y       z     vdW  Elec       q    Type
                         _______ _______ _______ _____ _____    ______ ____

>  <TORSDO>
F 15

$$$$
=
 OpenBabel11032420213D

 53 58  0  0  1  0  0  0  0  0999 V2000
  190.3690  176.6380  139.1940 C   0  0  2  0  0  3  0  0  0  0  0  0
  191.3920  174.4250  136.2440 C   0  0  0  0  0  2  0  0  0  0  0  0
  193.9520  176.3840  136.1350 C   0  0  0  0  0  1  0  0  0  0  0  0
  191.2340  175.7420  138.3420 C   0  0  0  0  0  0  0  0  0  0  0  0
  192.5110  176.1150  138.1350 C   0  0  0  0  0  3  0  0  0  0  0  0
  192.8200  174.2350  136.5190 N   0  0  0  0  0  2  0  0  0  0  0  0
  194.6220  174.8960  137.9790 C   0  0  0  0  0  1  0  0  0  0  0  0
  193.4360  175.4020  137.1730 C   0  0  0  0  0  0  0  0  0  0  0  0
  190.6480  174.5880  137.5620 C   0  0  0  0  0  2  0  0  0  0  0  0
  189.2710  177.3750  138.4630 C   0  0  0  0  0  0  0  0  0  0  0  0
  189.0310  178.5820  138.7370 O   0  0  0  0  0  0  0  0  0  0  0  0
  187.0300  177.6000  135.6530 C   0  0  0  0  0  3  0  0  0  0  0  0
  185.8990  176.9080  135.7520 C   0  0  0  0  0  0  0  0  0  0  0  0
  187.6800  175.6830  137.9160 N   0  0  0  0  0  0  0  0  0  0  0  0
  186.6360  174.9820  137.2160 C   0  0  0  0  0  3  0  0  0  0  0  0
  189.3780  177.9260  135.6390 O   0  0  0  0  0  1  0  0  0  0  0  0
  185.8400  175.5220  136.2780 C   0  0  0  0  0  3  0  0  0  0  0  0
  188.3600  177.0430  136.0270 C   0  0  1  0  0  3  0  0  0  0  0  0
  188.4150  176.6630  137.4840 C   0  0  0  0  0  0  0  0  0  0  0  0
  184.7390  177.5300  135.2910 O   0  0  0  0  0  0  0  0  0  0  0  0
  183.4380  177.1120  135.6900 C   0  0  0  0  0  2  0  0  0  0  0  0
  182.4140  177.9690  134.9780 C   0  0  0  0  0  2  0  0  0  0  0  0
  181.1020  177.9420  135.7470 C   0  0  0  0  0  2  0  0  0  0  0  0
  180.8330  180.2680  136.2220 N   0  0  0  0  0  0  0  0  0  0  0  0
  181.1190  179.9230  138.9270 C   0  0  0  0  0  0  0  0  0  0  0  0
  180.8990  181.2000  138.4030 C   0  0  0  0  0  3  0  0  0  0  0  0
  181.0450  179.0450  136.7040 N   0  0  0  0  0  0  0  0  0  0  0  0
  181.1810  178.8340  138.0490 C   0  0  0  0  0  0  0  0  0  0  0  0
  180.7610  181.3630  137.0280 C   0  0  0  0  0  0  0  0  0  0  0  0
  181.3530  177.6720  138.5040 O   0  0  0  0  0  0  0  0  0  0  0  0
  180.7950  182.7700  134.9920 C   0  0  0  0  0  1  0  0  0  0  0  0
  180.4440  182.7230  136.4710 C   0  0  0  0  0  3  0  0  0  0  0  0
  181.1950  183.8140  137.2120 C   0  0  0  0  0  1  0  0  0  0  0  0
  181.2760  179.7260  140.3400 N   0  0  0  0  0  2  0  0  0  0  0  0
  180.1530  179.6040  141.2580 C   0  0  0  0  0  1  0  0  0  0  0  0
  191.2250  177.5580  140.0710 C   0  0  0  0  0  2  0  0  0  0  0  0
  190.1280  176.3110  141.9390 C   0  0  0  0  0  3  0  0  0  0  0  0
  191.8580  177.9100  142.5060 C   0  0  0  0  0  3  0  0  0  0  0  0
  191.6880  177.6250  143.8630 C   0  0  0  0  0  3  0  0  0  0  0  0
  191.0990  177.2360  141.5330 C   0  0  0  0  0  0  0  0  0  0  0  0
  189.9320  176.0450  143.3090 C   0  0  0  0  0  3  0  0  0  0  0  0
  190.7280  176.6920  144.2670 C   0  0  0  0  0  0  0  0  0  0  0  0
  190.5420  176.4000  145.7210 C   0  0  0  0  0  2  0  0  0  0  0  0
  188.2260  177.1120  146.2020 N   0  0  1  0  0  0  0  0  0  0  0  0
  187.6000  178.7070  147.8630 C   0  0  0  0  0  3  0  0  0  0  0  0
  187.4300  178.3280  146.4320 C   0  0  2  0  0  3  0  0  0  0  0  0
  189.6600  177.4560  146.3640 C   0  0  1  0  0  3  0  0  0  0  0  0
  188.9200  176.8460  147.4800 C   0  0  1  0  0  3  0  0  0  0  0  0
  188.4410  177.8840  148.4440 C   0  0  0  0  0  3  0  0  0  0  0  0
  185.7670  176.7740  145.6690 F   0  0  0  0  0  0  0  0  0  0  0  0
  185.5110  178.9520  145.0940 F   0  0  0  0  0  0  0  0  0  0  0  0
  185.1890  178.2590  147.2370 F   0  0  0  0  0  0  0  0  0  0  0  0
  185.9550  178.0790  146.0850 C   0  0  0  0  0  0  0  0  0  0  0  0
  1 36  1  6  0  0  0
  2  6  1  0  0  0  0
  2  9  1  0  0  0  0
  3  8  1  0  0  0  0
  4  1  1  0  0  0  0
  5  4  2  0  0  0  0
  6  8  1  0  0  0  0
  8  7  1  0  0  0  0
  8  5  1  0  0  0  0
  9  4  1  0  0  0  0
 10 11  2  0  0  0  0
 10  1  1  0  0  0  0
 12 13  2  0  0  0  0
 12 18  1  0  0  0  0
 13 17  1  0  0  0  0
 15 14  1  0  0  0  0
 17 15  2  0  0  0  0
 18 16  1  1  0  0  0
 18 19  1  0  0  0  0
 19 14  2  0  0  0  0
 19 10  1  0  0  0  0
 20 21  1  0  0  0  0
 20 13  1  0  0  0  0
 22 21  1  0  0  0  0
 22 23  1  0  0  0  0
 23 27  1  0  0  0  0
 24 27  1  0  0  0  0
 24 29  2  0  0  0  0
 25 34  1  0  0  0  0
 26 25  2  0  0  0  0
 27 28  1  0  0  0  0
 28 30  2  0  0  0  0
 28 25  1  0  0  0  0
 29 26  1  0  0  0  0
 31 32  1  0  0  0  0
 32 29  1  0  0  0  0
 32 33  1  0  0  0  0
 34 35  1  0  0  0  0
 36 40  1  0  0  0  0
 37 41  1  0  0  0  0
 38 39  2  0  0  0  0
 39 42  1  0  0  0  0
 40 37  2  0  0  0  0
 40 38  1  0  0  0  0
 41 42  2  0  0  0  0
 42 43  1  0  0  0  0
 43 47  1  0  0  0  0
 44 47  1  0  0  0  0
 44 46  1  0  0  0  0
 44 48  1  0  0  0  0
 45 49  2  0  0  0  0
 46 45  1  0  0  0  0
 47 48  1  0  0  0  0
 48 49  1  0  0  0  0
 50 53  1  0  0  0  0
 51 53  1  0  0  0  0
 53 46  1  0  0  0  0
 53 52  1  0  0  0  0
M  END
>  <MODEL>
9

>  <REMARK>
 VINA RESULT:      -7.8      2.836      8.881
  Name = 
  15 active torsions:
  status: ('A' for Active; 'I' for Inactive)
    1  A    between atoms: C_2  and  C_20
    2  A    between atoms: C_2  and  C_51
    3  A    between atoms: C_8  and  C_28
    4  A    between atoms: C_8  and  O_45
    5  A    between atoms: C_9  and  C_20
    6  A    between atoms: N_11  and  C_13
    7  A    between atoms: C_12  and  O_45
    8  A    between atoms: C_17  and  C_53
    9  A    between atoms: C_20  and  C_53
   10  A    between atoms: C_21  and  C_30
   11  A    between atoms: C_21  and  C_48
   12  A    between atoms: N_26  and  C_34
   13  A    between atoms: C_28  and  C_34
   14  A    between atoms: C_35  and  C_40
   15  A    between atoms: C_37  and  C_38
                            x       y       z     vdW  Elec       q    Type
                         _______ _______ _______ _____ _____    ______ ____

>  <TORSDO>
F 15

$$$$
