=
 OpenBabel11032420223D

 55 62  0  0  1  0  0  0  0  0999 V2000
  182.8160  178.8180  141.8530 C   0  0  0  0  0  3  0  0  0  0  0  0
  187.8970  177.7570  145.5510 C   0  0  0  0  0  2  0  0  0  0  0  0
  188.8330  178.0710  148.0520 C   0  0  1  0  0  3  0  0  0  0  0  0
  182.5760  178.9560  144.2810 C   0  0  0  0  0  3  0  0  0  0  0  0
  184.3420  178.6560  145.8200 O   0  0  0  0  0  0  0  0  0  0  0  0
  184.3050  178.6310  141.9570 C   0  0  0  0  0  2  0  0  0  0  0  0
  185.6820  178.3460  146.0610 C   0  0  0  0  0  0  0  0  0  0  0  0
  183.8640  178.7020  144.5070 C   0  0  0  0  0  0  0  0  0  0  0  0
  186.2830  178.2450  147.4150 C   0  0  0  0  0  2  0  0  0  0  0  0
  186.5310  178.1020  145.0670 C   0  0  0  0  0  0  0  0  0  0  0  0
  187.7050  177.8710  147.0540 C   0  0  1  0  0  0  0  0  0  0  0  0
  184.7970  178.4500  143.3750 C   0  0  0  0  0  0  0  0  0  0  0  0
  186.0940  178.1570  143.6460 C   0  0  0  0  0  0  0  0  0  0  0  0
  182.0220  178.9870  142.9130 C   0  0  0  0  0  0  0  0  0  0  0  0
  188.2340  176.6870  147.8300 C   0  0  0  0  0  2  0  0  0  0  0  0
  189.2430  176.8760  141.7280 C   0  0  0  0  0  3  0  0  0  0  0  0
  186.9440  178.5330  141.3910 C   0  0  0  0  0  3  0  0  0  0  0  0
  187.9030  178.3160  140.3030 C   0  0  0  0  0  0  0  0  0  0  0  0
  187.0860  177.9180  142.5720 C   0  0  0  0  0  0  0  0  0  0  0  0
  187.6880  178.8400  139.1790 O   0  0  0  0  0  0  0  0  0  0  0  0
  189.1170  177.5060  140.5580 C   0  0  0  0  0  0  0  0  0  0  0  0
  188.1700  176.8850  142.7860 C   0  0  0  0  0  2  0  0  0  0  0  0
  191.2190  176.5900  139.7890 N   0  0  0  0  0  0  0  0  0  0  0  0
  190.2220  177.3910  139.5950 C   0  0  0  0  0  3  0  0  0  0  0  0
  193.4050  177.0420  139.0950 O   0  0  0  0  0  0  0  0  0  0  0  0
  192.3030  176.4710  138.8620 C   0  0  0  0  0  0  0  0  0  0  0  0
  192.2120  172.5610  135.6520 C   0  0  0  0  0  3  0  0  0  0  0  0
  191.0200  173.0940  136.2330 N   0  0  0  0  0  2  0  0  0  0  0  0
  192.1270  175.6690  137.6360 C   0  0  0  0  0  0  0  0  0  0  0  0
  193.7210  173.8280  137.1970 C   0  0  1  0  0  3  0  0  0  0  0  0
  193.3360  175.2630  136.8480 C   0  0  0  0  0  2  0  0  0  0  0  0
  190.6270  174.4810  136.0310 C   0  0  0  0  0  2  0  0  0  0  0  0
  193.4370  172.9010  136.0570 C   0  0  0  0  0  3  0  0  0  0  0  0
  190.9020  175.2950  137.2550 C   0  0  0  0  0  3  0  0  0  0  0  0
  195.7710  174.9770  137.7510 O   0  0  0  0  0  1  0  0  0  0  0  0
  195.1890  173.7160  137.6040 C   0  0  1  0  0  3  0  0  0  0  0  0
  195.3140  172.9690  138.8440 N   0  0  0  0  0  1  0  0  0  0  0  0
  190.1900  178.1550  147.3680 C   0  0  0  0  0  2  0  0  0  0  0  0
  191.7990  176.2430  147.6230 C   0  0  0  0  0  1  0  0  0  0  0  0
  190.6090  176.7840  146.8450 C   0  0  2  0  0  3  0  0  0  0  0  0
  190.8580  176.7870  145.4000 N   0  0  0  0  0  2  0  0  0  0  0  0
  191.7570  177.8760  145.0290 C   0  0  0  0  0  2  0  0  0  0  0  0
  191.0860  178.7550  143.9970 C   0  0  0  0  0  1  0  0  0  0  0  0
  180.6550  179.1850  142.7040 O   0  0  0  0  0  0  0  0  0  0  0  0
  180.1830  180.1570  141.8470 N   0  0  0  0  0  2  0  0  0  0  0  0
  180.1050  179.5640  140.5170 C   0  0  0  0  0  2  0  0  0  0  0  0
  180.9500  181.6360  137.6170 O   0  0  0  0  0  0  0  0  0  0  0  0
  179.9700  180.6500  139.4360 C   0  0  2  0  0  0  0  0  0  0  0  0
  181.3620  179.4650  137.2490 O   0  0  0  0  0  0  0  0  0  0  0  0
  179.2160  181.8430  140.0040 C   0  0  0  0  0  1  0  0  0  0  0  0
  179.2640  180.1840  138.1590 C   0  0  1  0  0  3  0  0  0  0  0  0
  181.3170  181.1120  138.8480 C   0  0  1  0  0  3  0  0  0  0  0  0
  182.0770  179.8850  138.3850 C   0  0  0  0  0  2  0  0  0  0  0  0
  180.3670  180.4650  137.1310 C   0  0  1  0  0  3  0  0  0  0  0  0
  178.9310  178.8230  138.1760 O   0  0  0  0  0  1  0  0  0  0  0  0
  1  6  1  0  0  0  0
  1 14  2  0  0  0  0
  3 38  1  6  0  0  0
  4  8  2  0  0  0  0
  5  7  1  0  0  0  0
  6 12  1  0  0  0  0
  7  9  1  0  0  0  0
  8  5  1  0  0  0  0
 10  2  1  0  0  0  0
 10  7  2  0  0  0  0
 11  2  1  6  0  0  0
 11  9  1  0  0  0  0
 11 15  1  0  0  0  0
 11  3  1  0  0  0  0
 12 13  2  0  0  0  0
 12  8  1  0  0  0  0
 13 10  1  0  0  0  0
 14  4  1  0  0  0  0
 15  3  1  0  0  0  0
 16 22  1  0  0  0  0
 17 19  2  0  0  0  0
 18 21  1  0  0  0  0
 18 17  1  0  0  0  0
 19 22  1  0  0  0  0
 19 13  1  0  0  0  0
 20 18  2  0  0  0  0
 21 16  2  0  0  0  0
 24 23  2  0  0  0  0
 24 21  1  0  0  0  0
 26 25  2  0  0  0  0
 26 23  1  0  0  0  0
 27 33  2  0  0  0  0
 27 28  1  0  0  0  0
 29 26  1  0  0  0  0
 30 36  1  6  0  0  0
 31 30  1  0  0  0  0
 31 29  1  0  0  0  0
 32 28  1  0  0  0  0
 32 34  1  0  0  0  0
 33 30  1  0  0  0  0
 34 29  2  0  0  0  0
 36 35  1  1  0  0  0
 36 37  1  0  0  0  0
 40 38  1  0  0  0  0
 40 39  1  1  0  0  0
 41 40  1  0  0  0  0
 42 41  1  0  0  0  0
 43 42  1  0  0  0  0
 44 14  1  0  0  0  0
 45 44  1  0  0  0  0
 46 45  1  0  0  0  0
 47 52  1  0  0  0  0
 48 50  1  1  0  0  0
 48 46  1  0  0  0  0
 49 53  1  0  0  0  0
 51 55  1  1  0  0  0
 51 48  1  0  0  0  0
 52 53  1  6  0  0  0
 52 48  1  0  0  0  0
 54 49  1  1  0  0  0
 54 47  1  0  0  0  0
 54 51  1  0  0  0  0
M  END
>  <MODEL>
1

>  <REMARK>
 VINA RESULT:     -11.0      0.000      0.000
  Name = 
  13 active torsions:
  status: ('A' for Active; 'I' for Inactive)
    1  A    between atoms: C_1  and  C_5
    2  A    between atoms: C_1  and  C_48
    3  A    between atoms: C_11  and  C_38
    4  A    between atoms: O_14  and  N_23
    5  A    between atoms: O_14  and  C_46
    6  A    between atoms: C_18  and  C_44
    7  A    between atoms: C_20  and  C_24
    8  A    between atoms: C_22  and  C_37
    9  A    between atoms: N_23  and  C_37
   10  A    between atoms: N_28  and  C_35
   11  A    between atoms: N_28  and  C_48
   12  A    between atoms: C_32  and  C_39
   13  A    between atoms: N_36  and  C_38
                            x       y       z     vdW  Elec       q    Type
                         _______ _______ _______ _____ _____    ______ ____

>  <TORSDO>
F 13

$$$$
=
 OpenBabel11032420223D

 55 62  0  0  1  0  0  0  0  0999 V2000
  182.8420  178.8130  141.7740 C   0  0  0  0  0  3  0  0  0  0  0  0
  187.7660  177.7890  145.6880 C   0  0  0  0  0  2  0  0  0  0  0  0
  188.6050  178.1410  148.2190 C   0  0  1  0  0  3  0  0  0  0  0  0
  182.5070  178.9940  144.1880 C   0  0  0  0  0  3  0  0  0  0  0  0
  184.2090  178.7110  145.8010 O   0  0  0  0  0  0  0  0  0  0  0  0
  184.3250  178.6200  141.9400 C   0  0  0  0  0  2  0  0  0  0  0  0
  185.5360  178.3980  146.1010 C   0  0  0  0  0  0  0  0  0  0  0  0
  183.7830  178.7370  144.4690 C   0  0  0  0  0  0  0  0  0  0  0  0
  186.0830  178.3170  147.4780 C   0  0  0  0  0  2  0  0  0  0  0  0
  186.4220  178.1330  145.1450 C   0  0  0  0  0  0  0  0  0  0  0  0
  187.5160  177.9300  147.1810 C   0  0  1  0  0  0  0  0  0  0  0  0
  184.7600  178.4610  143.3790 C   0  0  0  0  0  0  0  0  0  0  0  0
  186.0430  178.1660  143.7070 C   0  0  0  0  0  0  0  0  0  0  0  0
  182.0080  179.0050  142.7980 C   0  0  0  0  0  0  0  0  0  0  0  0
  188.0060  176.7570  147.9960 C   0  0  0  0  0  2  0  0  0  0  0  0
  189.1970  176.7440  141.9000 C   0  0  0  0  0  3  0  0  0  0  0  0
  187.0460  178.5800  141.5220 C   0  0  0  0  0  3  0  0  0  0  0  0
  188.0470  178.3430  140.4780 C   0  0  0  0  0  0  0  0  0  0  0  0
  187.0750  177.9030  142.6770 C   0  0  0  0  0  0  0  0  0  0  0  0
  187.9360  178.9310  139.3710 O   0  0  0  0  0  0  0  0  0  0  0  0
  189.1830  177.4340  140.7580 C   0  0  0  0  0  0  0  0  0  0  0  0
  188.0680  176.7830  142.8980 C   0  0  0  0  0  2  0  0  0  0  0  0
  190.6240  176.1460  139.3030 N   0  0  0  0  0  0  0  0  0  0  0  0
  190.3300  177.2810  139.8510 C   0  0  0  0  0  3  0  0  0  0  0  0
  192.8690  176.4550  138.7300 O   0  0  0  0  0  0  0  0  0  0  0  0
  191.7400  175.9820  138.4220 C   0  0  0  0  0  0  0  0  0  0  0  0
  191.5520  172.2390  135.0220 C   0  0  0  0  0  3  0  0  0  0  0  0
  190.3710  172.8080  135.5920 N   0  0  0  0  0  2  0  0  0  0  0  0
  191.5630  175.2510  137.1520 C   0  0  0  0  0  0  0  0  0  0  0  0
  193.0730  173.3500  136.6720 C   0  0  1  0  0  3  0  0  0  0  0  0
  192.7750  174.8180  136.3830 C   0  0  0  0  0  2  0  0  0  0  0  0
  190.0570  174.2210  135.4470 C   0  0  0  0  0  2  0  0  0  0  0  0
  192.7790  172.4940  135.4800 C   0  0  0  0  0  3  0  0  0  0  0  0
  190.3330  174.9600  136.7170 C   0  0  0  0  0  3  0  0  0  0  0  0
  194.7390  173.6760  138.3890 O   0  0  0  0  0  1  0  0  0  0  0  0
  194.5190  173.1400  137.1180 C   0  0  1  0  0  3  0  0  0  0  0  0
  194.8480  171.7260  137.1170 N   0  0  0  0  0  1  0  0  0  0  0  0
  189.9880  178.2050  147.5880 C   0  0  0  0  0  2  0  0  0  0  0  0
  191.7480  176.4170  147.7000 C   0  0  0  0  0  1  0  0  0  0  0  0
  190.4140  176.8260  147.0950 C   0  0  2  0  0  3  0  0  0  0  0  0
  190.4280  176.7340  145.6310 N   0  0  0  0  0  2  0  0  0  0  0  0
  191.6870  177.2400  145.0900 C   0  0  0  0  0  2  0  0  0  0  0  0
  191.4150  178.4660  144.2460 C   0  0  0  0  0  1  0  0  0  0  0  0
  180.6510  179.2060  142.5320 O   0  0  0  0  0  0  0  0  0  0  0  0
  180.1280  179.0510  141.2650 N   0  0  0  0  0  2  0  0  0  0  0  0
  180.4040  177.6820  140.8460 C   0  0  0  0  0  2  0  0  0  0  0  0
  181.3050  176.6130  137.4610 O   0  0  0  0  0  0  0  0  0  0  0  0
  180.3460  177.5530  139.3140 C   0  0  2  0  0  0  0  0  0  0  0  0
  181.3430  174.9120  138.9190 O   0  0  0  0  0  0  0  0  0  0  0  0
  179.8360  178.8540  138.7120 C   0  0  0  0  0  1  0  0  0  0  0  0
  179.4680  176.4020  138.8120 C   0  0  1  0  0  3  0  0  0  0  0  0
  181.6910  177.1670  138.6720 C   0  0  1  0  0  3  0  0  0  0  0  0
  182.2100  175.9240  139.3670 C   0  0  0  0  0  2  0  0  0  0  0  0
  180.5080  175.6080  138.0120 C   0  0  1  0  0  3  0  0  0  0  0  0
  178.9310  175.6230  139.8460 O   0  0  0  0  0  1  0  0  0  0  0  0
  1  6  1  0  0  0  0
  1 14  2  0  0  0  0
  3 38  1  6  0  0  0
  4  8  2  0  0  0  0
  5  7  1  0  0  0  0
  6 12  1  0  0  0  0
  7  9  1  0  0  0  0
  8  5  1  0  0  0  0
 10  2  1  0  0  0  0
 10  7  2  0  0  0  0
 11  2  1  6  0  0  0
 11  9  1  0  0  0  0
 11 15  1  0  0  0  0
 11  3  1  0  0  0  0
 12 13  2  0  0  0  0
 12  8  1  0  0  0  0
 13 10  1  0  0  0  0
 14  4  1  0  0  0  0
 15  3  1  0  0  0  0
 16 22  1  0  0  0  0
 17 19  2  0  0  0  0
 18 21  1  0  0  0  0
 18 17  1  0  0  0  0
 19 22  1  0  0  0  0
 19 13  1  0  0  0  0
 20 18  2  0  0  0  0
 21 16  2  0  0  0  0
 23 24  2  0  0  0  0
 24 21  1  0  0  0  0
 26 25  2  0  0  0  0
 26 23  1  0  0  0  0
 27 33  2  0  0  0  0
 27 28  1  0  0  0  0
 29 26  1  0  0  0  0
 30 36  1  6  0  0  0
 31 30  1  0  0  0  0
 31 29  1  0  0  0  0
 32 28  1  0  0  0  0
 32 34  1  0  0  0  0
 33 30  1  0  0  0  0
 34 29  2  0  0  0  0
 36 37  1  1  0  0  0
 36 35  1  0  0  0  0
 40 38  1  0  0  0  0
 40 39  1  6  0  0  0
 41 40  1  0  0  0  0
 42 41  1  0  0  0  0
 43 42  1  0  0  0  0
 44 14  1  0  0  0  0
 45 44  1  0  0  0  0
 46 45  1  0  0  0  0
 47 52  1  0  0  0  0
 48 50  1  6  0  0  0
 48 46  1  0  0  0  0
 49 53  1  0  0  0  0
 51 48  1  0  0  0  0
 51 55  1  1  0  0  0
 52 48  1  0  0  0  0
 52 53  1  1  0  0  0
 54 47  1  1  0  0  0
 54 51  1  0  0  0  0
 54 49  1  0  0  0  0
M  END
>  <MODEL>
2

>  <REMARK>
 VINA RESULT:     -10.4      1.547      1.806
  Name = 
  13 active torsions:
  status: ('A' for Active; 'I' for Inactive)
    1  A    between atoms: C_1  and  C_5
    2  A    between atoms: C_1  and  C_48
    3  A    between atoms: C_11  and  C_38
    4  A    between atoms: O_14  and  N_23
    5  A    between atoms: O_14  and  C_46
    6  A    between atoms: C_18  and  C_44
    7  A    between atoms: C_20  and  C_24
    8  A    between atoms: C_22  and  C_37
    9  A    between atoms: N_23  and  C_37
   10  A    between atoms: N_28  and  C_35
   11  A    between atoms: N_28  and  C_48
   12  A    between atoms: C_32  and  C_39
   13  A    between atoms: N_36  and  C_38
                            x       y       z     vdW  Elec       q    Type
                         _______ _______ _______ _____ _____    ______ ____

>  <TORSDO>
F 13

$$$$
=
 OpenBabel11032420223D

 55 62  0  0  1  0  0  0  0  0999 V2000
  192.2950  176.0210  135.5380 C   0  0  0  0  0  3  0  0  0  0  0  0
  188.8750  177.4660  140.7180 C   0  0  0  0  0  2  0  0  0  0  0  0
  188.9700  177.5210  143.4050 C   0  0  1  0  0  3  0  0  0  0  0  0
  193.4320  176.2840  137.6860 C   0  0  0  0  0  3  0  0  0  0  0  0
  192.3440  176.7590  139.7270 O   0  0  0  0  0  0  0  0  0  0  0  0
  190.9400  176.1650  136.1770 C   0  0  0  0  0  2  0  0  0  0  0  0
  191.1670  177.0520  140.4180 C   0  0  0  0  0  0  0  0  0  0  0  0
  192.3020  176.5210  138.3500 C   0  0  0  0  0  0  0  0  0  0  0  0
  191.1050  177.3460  141.8720 C   0  0  0  0  0  2  0  0  0  0  0  0
  189.9900  177.1000  139.8010 C   0  0  0  0  0  0  0  0  0  0  0  0
  189.6220  177.6010  142.0350 C   0  0  1  0  0  0  0  0  0  0  0  0
  190.9950  176.5520  137.6370 C   0  0  0  0  0  0  0  0  0  0  0  0
  189.8710  176.8350  138.3420 C   0  0  0  0  0  0  0  0  0  0  0  0
  193.4380  176.0550  136.2270 C   0  0  0  0  0  0  0  0  0  0  0  0
  189.3070  178.8730  142.7880 C   0  0  0  0  0  2  0  0  0  0  0  0
  186.5680  178.1220  136.7060 C   0  0  0  0  0  3  0  0  0  0  0  0
  187.8520  175.7170  137.5500 C   0  0  0  0  0  3  0  0  0  0  0  0
  186.5280  175.7030  136.9200 C   0  0  0  0  0  0  0  0  0  0  0  0
  188.5320  176.8600  137.7060 C   0  0  0  0  0  0  0  0  0  0  0  0
  185.9570  174.6010  136.7080 O   0  0  0  0  0  0  0  0  0  0  0  0
  185.8790  176.9880  136.5700 C   0  0  0  0  0  0  0  0  0  0  0  0
  188.0150  178.1590  137.1310 C   0  0  0  0  0  2  0  0  0  0  0  0
  183.4880  176.9690  136.9310 N   0  0  0  0  0  0  0  0  0  0  0  0
  184.4840  177.0840  136.1140 C   0  0  0  0  0  3  0  0  0  0  0  0
  181.5960  176.1030  135.8650 O   0  0  0  0  0  0  0  0  0  0  0  0
  182.1250  177.0570  136.5010 C   0  0  0  0  0  0  0  0  0  0  0  0
  180.9140  181.8470  137.5920 C   0  0  0  0  0  3  0  0  0  0  0  0
  180.7330  181.2970  136.2850 N   0  0  0  0  0  2  0  0  0  0  0  0
  181.3400  178.2670  136.8120 C   0  0  0  0  0  0  0  0  0  0  0  0
  182.3000  179.9190  138.3850 C   0  0  1  0  0  3  0  0  0  0  0  0
  181.3050  178.7740  138.2220 C   0  0  0  0  0  2  0  0  0  0  0  0
  179.8760  180.1430  136.0540 C   0  0  0  0  0  2  0  0  0  0  0  0
  181.5950  181.2280  138.5570 C   0  0  0  0  0  3  0  0  0  0  0  0
  180.6930  178.9100  135.8350 C   0  0  0  0  0  3  0  0  0  0  0  0
  183.1320  178.3840  140.0520 O   0  0  0  0  0  1  0  0  0  0  0  0
  183.2520  179.6830  139.5560 C   0  0  1  0  0  3  0  0  0  0  0  0
  184.6240  179.9300  139.1490 N   0  0  0  0  0  1  0  0  0  0  0  0
  187.4710  177.2770  143.3090 C   0  0  0  0  0  2  0  0  0  0  0  0
  185.5290  178.2620  144.5620 C   0  0  0  0  0  1  0  0  0  0  0  0
  186.8130  177.4530  144.6740 C   0  0  2  0  0  3  0  0  0  0  0  0
  187.7290  178.0210  145.6690 N   0  0  0  0  0  2  0  0  0  0  0  0
  187.7700  177.1930  146.8710 C   0  0  0  0  0  2  0  0  0  0  0  0
  188.3510  177.9940  148.0150 C   0  0  0  0  0  1  0  0  0  0  0  0
  194.6420  175.8790  135.5400 O   0  0  0  0  0  0  0  0  0  0  0  0
  195.0460  174.6410  135.0860 N   0  0  0  0  0  2  0  0  0  0  0  0
  195.7140  173.9680  136.1940 C   0  0  0  0  0  2  0  0  0  0  0  0
  195.5880  170.3150  136.4170 O   0  0  0  0  0  0  0  0  0  0  0  0
  195.1380  172.5590  136.4110 C   0  0  2  0  0  0  0  0  0  0  0  0
  197.4040  171.1570  137.4220 O   0  0  0  0  0  0  0  0  0  0  0  0
  193.6810  172.5310  135.9730 C   0  0  0  0  0  1  0  0  0  0  0  0
  195.2260  172.0580  137.8570 C   0  0  1  0  0  3  0  0  0  0  0  0
  195.9250  171.4480  135.6910 C   0  0  1  0  0  3  0  0  0  0  0  0
  197.3850  171.5740  136.0790 C   0  0  0  0  0  2  0  0  0  0  0  0
  196.0570  170.7860  137.6440 C   0  0  1  0  0  3  0  0  0  0  0  0
  195.8870  172.9500  138.7120 O   0  0  0  0  0  1  0  0  0  0  0  0
  1  6  1  0  0  0  0
  1 14  2  0  0  0  0
  3 38  1  6  0  0  0
  4  8  2  0  0  0  0
  5  7  1  0  0  0  0
  6 12  1  0  0  0  0
  7  9  1  0  0  0  0
  8  5  1  0  0  0  0
  9 11  1  0  0  0  0
 10  7  2  0  0  0  0
 10  2  1  0  0  0  0
 11  2  1  6  0  0  0
 11 15  1  0  0  0  0
 11  3  1  0  0  0  0
 12 13  2  0  0  0  0
 12  8  1  0  0  0  0
 13 10  1  0  0  0  0
 14  4  1  0  0  0  0
 15  3  1  0  0  0  0
 16 22  1  0  0  0  0
 17 19  2  0  0  0  0
 18 17  1  0  0  0  0
 19 13  1  0  0  0  0
 20 18  2  0  0  0  0
 21 16  2  0  0  0  0
 21 18  1  0  0  0  0
 22 19  1  0  0  0  0
 24 21  1  0  0  0  0
 24 23  2  0  0  0  0
 25 26  2  0  0  0  0
 26 29  1  0  0  0  0
 26 23  1  0  0  0  0
 27 33  2  0  0  0  0
 28 27  1  0  0  0  0
 29 31  1  0  0  0  0
 30 33  1  0  0  0  0
 30 36  1  1  0  0  0
 31 30  1  0  0  0  0
 32 28  1  0  0  0  0
 34 32  1  0  0  0  0
 34 29  2  0  0  0  0
 36 37  1  6  0  0  0
 36 35  1  0  0  0  0
 38 40  1  0  0  0  0
 40 39  1  6  0  0  0
 40 41  1  0  0  0  0
 41 42  1  0  0  0  0
 42 43  1  0  0  0  0
 44 14  1  0  0  0  0
 45 44  1  0  0  0  0
 45 46  1  0  0  0  0
 46 48  1  0  0  0  0
 48 50  1  6  0  0  0
 48 51  1  0  0  0  0
 49 54  1  0  0  0  0
 51 55  1  1  0  0  0
 52 53  1  1  0  0  0
 52 48  1  0  0  0  0
 52 47  1  0  0  0  0
 53 49  1  0  0  0  0
 54 47  1  6  0  0  0
 54 51  1  0  0  0  0
M  END
>  <MODEL>
3

>  <REMARK>
 VINA RESULT:     -10.2      2.812     11.666
  Name = 
  13 active torsions:
  status: ('A' for Active; 'I' for Inactive)
    1  A    between atoms: C_1  and  C_5
    2  A    between atoms: C_1  and  C_48
    3  A    between atoms: C_11  and  C_38
    4  A    between atoms: O_14  and  N_23
    5  A    between atoms: O_14  and  C_46
    6  A    between atoms: C_18  and  C_44
    7  A    between atoms: C_20  and  C_24
    8  A    between atoms: C_22  and  C_37
    9  A    between atoms: N_23  and  C_37
   10  A    between atoms: N_28  and  C_35
   11  A    between atoms: N_28  and  C_48
   12  A    between atoms: C_32  and  C_39
   13  A    between atoms: N_36  and  C_38
                            x       y       z     vdW  Elec       q    Type
                         _______ _______ _______ _____ _____    ______ ____

>  <TORSDO>
F 13

$$$$
=
 OpenBabel11032420223D

 55 62  0  0  1  0  0  0  0  0999 V2000
  192.0810  175.9990  135.5420 C   0  0  0  0  0  3  0  0  0  0  0  0
  189.4030  177.5620  141.1090 C   0  0  0  0  0  2  0  0  0  0  0  0
  189.8480  177.6300  143.7610 C   0  0  1  0  0  3  0  0  0  0  0  0
  193.4950  176.2440  137.5210 C   0  0  0  0  0  3  0  0  0  0  0  0
  192.6940  176.7590  139.6820 O   0  0  0  0  0  0  0  0  0  0  0  0
  190.8250  176.1810  136.3500 C   0  0  0  0  0  2  0  0  0  0  0  0
  191.6250  177.0860  140.5170 C   0  0  0  0  0  0  0  0  0  0  0  0
  192.4670  176.5140  138.3240 C   0  0  0  0  0  0  0  0  0  0  0  0
  191.7600  177.3900  141.9640 C   0  0  0  0  0  2  0  0  0  0  0  0
  190.3790  177.1620  140.0580 C   0  0  0  0  0  0  0  0  0  0  0  0
  190.3180  177.6850  142.3170 C   0  0  1  0  0  0  0  0  0  0  0  0
  191.0790  176.5750  137.7870 C   0  0  0  0  0  0  0  0  0  0  0  0
  190.0640  176.8910  138.6300 C   0  0  0  0  0  0  0  0  0  0  0  0
  193.3050  176.0060  136.0750 C   0  0  0  0  0  0  0  0  0  0  0  0
  190.1360  178.9690  143.0920 C   0  0  0  0  0  2  0  0  0  0  0  0
  186.4830  178.2140  137.8130 C   0  0  0  0  0  3  0  0  0  0  0  0
  188.0520  175.8310  137.7470 C   0  0  0  0  0  3  0  0  0  0  0  0
  186.6610  175.8510  137.2830 C   0  0  0  0  0  0  0  0  0  0  0  0
  188.6550  176.9480  138.1730 C   0  0  0  0  0  0  0  0  0  0  0  0
  186.1560  174.8010  136.8050 O   0  0  0  0  0  0  0  0  0  0  0  0
  185.8730  177.0980  137.4090 C   0  0  0  0  0  0  0  0  0  0  0  0
  187.9650  178.2910  138.0770 C   0  0  0  0  0  2  0  0  0  0  0  0
  183.6770  178.0760  137.6790 N   0  0  0  0  0  0  0  0  0  0  0  0
  184.4260  177.1630  137.1510 C   0  0  0  0  0  3  0  0  0  0  0  0
  181.8240  178.1790  136.2570 O   0  0  0  0  0  0  0  0  0  0  0  0
  182.2680  178.1490  137.4390 C   0  0  0  0  0  0  0  0  0  0  0  0
  180.0360  179.4920  141.7770 C   0  0  0  0  0  3  0  0  0  0  0  0
  179.4840  179.8310  140.5030 N   0  0  0  0  0  2  0  0  0  0  0  0
  181.3350  178.1840  138.5820 C   0  0  0  0  0  0  0  0  0  0  0  0
  182.2310  178.7730  140.8120 C   0  0  1  0  0  3  0  0  0  0  0  0
  181.7780  177.6330  139.9040 C   0  0  0  0  0  2  0  0  0  0  0  0
  179.1130  178.8080  139.5360 C   0  0  0  0  0  2  0  0  0  0  0  0
  181.2620  178.9900  141.9320 C   0  0  0  0  0  3  0  0  0  0  0  0
  180.1220  178.7260  138.4350 C   0  0  0  0  0  3  0  0  0  0  0  0
  184.5720  179.3640  140.7720 O   0  0  0  0  0  1  0  0  0  0  0  0
  183.6300  178.5290  141.3760 C   0  0  1  0  0  3  0  0  0  0  0  0
  183.6390  178.7360  142.8140 N   0  0  0  0  0  1  0  0  0  0  0  0
  188.3430  177.4240  143.8620 C   0  0  0  0  0  2  0  0  0  0  0  0
  188.9130  177.4960  146.3080 C   0  0  0  0  0  1  0  0  0  0  0  0
  187.8490  177.7850  145.2600 C   0  0  2  0  0  3  0  0  0  0  0  0
  186.5730  177.1400  145.5870 N   0  0  0  0  0  2  0  0  0  0  0  0
  185.8570  177.8950  146.6110 C   0  0  0  0  0  2  0  0  0  0  0  0
  185.6810  179.3250  146.1520 C   0  0  0  0  0  1  0  0  0  0  0  0
  194.4040  175.7950  135.2400 O   0  0  0  0  0  0  0  0  0  0  0  0
  195.1800  174.6580  135.3330 N   0  0  0  0  0  2  0  0  0  0  0  0
  196.5030  175.0700  135.7850 C   0  0  0  0  0  2  0  0  0  0  0  0
  198.1030  171.9700  136.9010 O   0  0  0  0  0  0  0  0  0  0  0  0
  197.1090  174.0260  136.7380 C   0  0  2  0  0  0  0  0  0  0  0  0
  199.1040  172.8290  135.0900 O   0  0  0  0  0  0  0  0  0  0  0  0
  196.3790  174.0680  138.0720 C   0  0  0  0  0  1  0  0  0  0  0  0
  198.6100  174.2010  136.9930 C   0  0  1  0  0  3  0  0  0  0  0  0
  197.0960  172.5910  136.1760 C   0  0  1  0  0  3  0  0  0  0  0  0
  197.7440  172.6120  134.8060 C   0  0  0  0  0  2  0  0  0  0  0  0
  199.1200  172.8400  136.5050 C   0  0  1  0  0  3  0  0  0  0  0  0
  199.1790  175.2440  136.2500 O   0  0  0  0  0  1  0  0  0  0  0  0
  1 14  2  0  0  0  0
  1  6  1  0  0  0  0
  3 38  1  6  0  0  0
  4  8  2  0  0  0  0
  5  7  1  0  0  0  0
  6 12  1  0  0  0  0
  7  9  1  0  0  0  0
  8  5  1  0  0  0  0
  9 11  1  0  0  0  0
 10  7  2  0  0  0  0
 10  2  1  0  0  0  0
 11  2  1  6  0  0  0
 11 15  1  0  0  0  0
 11  3  1  0  0  0  0
 12  8  1  0  0  0  0
 12 13  2  0  0  0  0
 13 10  1  0  0  0  0
 14  4  1  0  0  0  0
 15  3  1  0  0  0  0
 16 22  1  0  0  0  0
 17 19  2  0  0  0  0
 18 21  1  0  0  0  0
 18 17  1  0  0  0  0
 19 13  1  0  0  0  0
 20 18  2  0  0  0  0
 21 16  2  0  0  0  0
 22 19  1  0  0  0  0
 24 21  1  0  0  0  0
 24 23  2  0  0  0  0
 25 26  2  0  0  0  0
 26 23  1  0  0  0  0
 26 29  1  0  0  0  0
 27 33  2  0  0  0  0
 28 27  1  0  0  0  0
 29 31  1  0  0  0  0
 30 36  1  1  0  0  0
 30 33  1  0  0  0  0
 31 30  1  0  0  0  0
 32 28  1  0  0  0  0
 34 29  2  0  0  0  0
 34 32  1  0  0  0  0
 36 35  1  6  0  0  0
 36 37  1  0  0  0  0
 38 40  1  0  0  0  0
 40 41  1  0  0  0  0
 40 39  1  1  0  0  0
 41 42  1  0  0  0  0
 43 42  1  0  0  0  0
 44 45  1  0  0  0  0
 44 14  1  0  0  0  0
 45 46  1  0  0  0  0
 46 48  1  0  0  0  0
 48 51  1  0  0  0  0
 48 50  1  1  0  0  0
 51 55  1  6  0  0  0
 52 53  1  6  0  0  0
 52 48  1  0  0  0  0
 52 47  1  0  0  0  0
 53 49  1  0  0  0  0
 54 49  1  6  0  0  0
 54 47  1  0  0  0  0
 54 51  1  0  0  0  0
M  END
>  <MODEL>
4

>  <REMARK>
 VINA RESULT:      -9.9      2.632     12.004
  Name = 
  13 active torsions:
  status: ('A' for Active; 'I' for Inactive)
    1  A    between atoms: C_1  and  C_5
    2  A    between atoms: C_1  and  C_48
    3  A    between atoms: C_11  and  C_38
    4  A    between atoms: O_14  and  N_23
    5  A    between atoms: O_14  and  C_46
    6  A    between atoms: C_18  and  C_44
    7  A    between atoms: C_20  and  C_24
    8  A    between atoms: C_22  and  C_37
    9  A    between atoms: N_23  and  C_37
   10  A    between atoms: N_28  and  C_35
   11  A    between atoms: N_28  and  C_48
   12  A    between atoms: C_32  and  C_39
   13  A    between atoms: N_36  and  C_38
                            x       y       z     vdW  Elec       q    Type
                         _______ _______ _______ _____ _____    ______ ____

>  <TORSDO>
F 13

$$$$
=
 OpenBabel11032420223D

 55 62  0  0  1  0  0  0  0  0999 V2000
  189.8360  176.6480  136.2340 C   0  0  0  0  0  3  0  0  0  0  0  0
  189.2990  178.1000  142.4170 C   0  0  0  0  0  2  0  0  0  0  0  0
  190.4710  177.7510  144.8120 C   0  0  1  0  0  3  0  0  0  0  0  0
  191.7610  176.3330  137.7070 C   0  0  0  0  0  3  0  0  0  0  0  0
  191.7520  176.7540  140.0310 O   0  0  0  0  0  0  0  0  0  0  0  0
  188.9430  177.0110  137.3910 C   0  0  0  0  0  2  0  0  0  0  0  0
  191.0760  177.2120  141.1640 C   0  0  0  0  0  0  0  0  0  0  0  0
  191.1010  176.7300  138.7940 C   0  0  0  0  0  0  0  0  0  0  0  0
  191.6810  177.3030  142.5160 C   0  0  0  0  0  2  0  0  0  0  0  0
  189.8110  177.6190  141.1030 C   0  0  0  0  0  0  0  0  0  0  0  0
  190.5160  177.8710  143.2980 C   0  0  1  0  0  0  0  0  0  0  0  0
  189.6790  177.1640  138.7020 C   0  0  0  0  0  0  0  0  0  0  0  0
  189.0520  177.5980  139.8240 C   0  0  0  0  0  0  0  0  0  0  0  0
  191.1220  176.3180  136.3760 C   0  0  0  0  0  0  0  0  0  0  0  0
  190.8850  179.0620  144.1520 C   0  0  0  0  0  2  0  0  0  0  0  0
  185.5730  178.9250  140.9960 C   0  0  0  0  0  3  0  0  0  0  0  0
  186.9040  177.8750  138.7000 C   0  0  0  0  0  3  0  0  0  0  0  0
  185.4990  178.2890  138.6530 C   0  0  0  0  0  0  0  0  0  0  0  0
  187.6320  178.0230  139.8140 C   0  0  0  0  0  0  0  0  0  0  0  0
  184.8720  178.2200  137.5630 O   0  0  0  0  0  0  0  0  0  0  0  0
  184.8390  178.7580  139.8940 C   0  0  0  0  0  0  0  0  0  0  0  0
  187.0680  178.7330  141.0250 C   0  0  0  0  0  2  0  0  0  0  0  0
  182.6910  178.6050  140.9950 N   0  0  0  0  0  0  0  0  0  0  0  0
  183.3940  179.0120  139.9870 C   0  0  0  0  0  3  0  0  0  0  0  0
  180.8490  179.7990  141.7980 O   0  0  0  0  0  0  0  0  0  0  0  0
  181.2830  178.8420  141.0980 C   0  0  0  0  0  0  0  0  0  0  0  0
  179.3050  175.7700  137.5980 C   0  0  0  0  0  3  0  0  0  0  0  0
  179.7860  175.2820  138.8520 N   0  0  0  0  0  2  0  0  0  0  0  0
  180.3430  177.9640  140.3750 C   0  0  0  0  0  0  0  0  0  0  0  0
  180.3380  178.0300  137.9020 C   0  0  1  0  0  3  0  0  0  0  0  0
  179.6270  178.4950  139.1700 C   0  0  0  0  0  2  0  0  0  0  0  0
  179.2290  175.7440  140.1150 C   0  0  0  0  0  2  0  0  0  0  0  0
  179.5220  177.0130  137.1660 C   0  0  0  0  0  3  0  0  0  0  0  0
  180.1580  176.7060  140.7850 C   0  0  0  0  0  3  0  0  0  0  0  0
  179.5450  179.6110  136.2580 O   0  0  0  0  0  1  0  0  0  0  0  0
  180.6700  179.1990  136.9760 C   0  0  1  0  0  3  0  0  0  0  0  0
  181.2020  180.3140  137.7390 N   0  0  0  0  0  1  0  0  0  0  0  0
  189.0530  177.8780  145.3510 C   0  0  0  0  0  2  0  0  0  0  0  0
  190.0830  176.7530  147.3460 C   0  0  0  0  0  1  0  0  0  0  0  0
  189.0480  177.7610  146.8720 C   0  0  2  0  0  3  0  0  0  0  0  0
  187.7140  177.4660  147.4070 N   0  0  0  0  0  2  0  0  0  0  0  0
  186.6780  177.8060  146.4370 C   0  0  0  0  0  2  0  0  0  0  0  0
  185.8470  178.9530  146.9680 C   0  0  0  0  0  1  0  0  0  0  0  0
  191.8550  175.9660  135.2400 O   0  0  0  0  0  0  0  0  0  0  0  0
  192.7750  174.9380  135.2580 N   0  0  0  0  0  2  0  0  0  0  0  0
  194.0980  175.5410  135.3560 C   0  0  0  0  0  2  0  0  0  0  0  0
  197.4270  174.0160  135.4350 O   0  0  0  0  0  0  0  0  0  0  0  0
  195.1840  174.4640  135.5190 C   0  0  2  0  0  0  0  0  0  0  0  0
  197.3870  176.0030  136.4710 O   0  0  0  0  0  0  0  0  0  0  0  0
  194.6330  173.1150  135.0810 C   0  0  0  0  0  1  0  0  0  0  0  0
  195.7330  174.3330  136.9430 C   0  0  1  0  0  3  0  0  0  0  0  0
  196.4850  174.7730  134.7550 C   0  0  1  0  0  3  0  0  0  0  0  0
  196.9450  176.1640  135.1450 C   0  0  0  0  0  2  0  0  0  0  0  0
  197.2180  174.6130  136.6800 C   0  0  1  0  0  3  0  0  0  0  0  0
  195.1960  175.2730  137.8320 O   0  0  0  0  0  1  0  0  0  0  0  0
  1 14  2  0  0  0  0
  1  6  1  0  0  0  0
  3 38  1  6  0  0  0
  4  8  2  0  0  0  0
  5  7  1  0  0  0  0
  6 12  1  0  0  0  0
  7  9  1  0  0  0  0
  8  5  1  0  0  0  0
  9 11  1  0  0  0  0
 10  7  2  0  0  0  0
 10  2  1  0  0  0  0
 11  2  1  6  0  0  0
 11 15  1  0  0  0  0
 11  3  1  0  0  0  0
 12  8  1  0  0  0  0
 12 13  2  0  0  0  0
 13 10  1  0  0  0  0
 14  4  1  0  0  0  0
 15  3  1  0  0  0  0
 16 22  1  0  0  0  0
 17 19  2  0  0  0  0
 18 17  1  0  0  0  0
 18 21  1  0  0  0  0
 19 13  1  0  0  0  0
 19 22  1  0  0  0  0
 20 18  2  0  0  0  0
 21 24  1  0  0  0  0
 21 16  2  0  0  0  0
 23 26  1  0  0  0  0
 24 23  2  0  0  0  0
 26 25  2  0  0  0  0
 27 28  1  0  0  0  0
 28 32  1  0  0  0  0
 29 34  2  0  0  0  0
 29 26  1  0  0  0  0
 30 36  1  6  0  0  0
 30 31  1  0  0  0  0
 31 29  1  0  0  0  0
 32 34  1  0  0  0  0
 33 27  2  0  0  0  0
 33 30  1  0  0  0  0
 36 35  1  1  0  0  0
 36 37  1  0  0  0  0
 38 40  1  0  0  0  0
 40 39  1  6  0  0  0
 40 41  1  0  0  0  0
 42 43  1  0  0  0  0
 42 41  1  0  0  0  0
 44 45  1  0  0  0  0
 44 14  1  0  0  0  0
 45 46  1  0  0  0  0
 46 48  1  0  0  0  0
 48 50  1  6  0  0  0
 48 51  1  0  0  0  0
 49 54  1  0  0  0  0
 51 55  1  1  0  0  0
 52 53  1  1  0  0  0
 52 47  1  0  0  0  0
 52 48  1  0  0  0  0
 53 49  1  0  0  0  0
 54 47  1  6  0  0  0
 54 51  1  0  0  0  0
M  END
>  <MODEL>
5

>  <REMARK>
 VINA RESULT:      -9.8      2.368     11.223
  Name = 
  13 active torsions:
  status: ('A' for Active; 'I' for Inactive)
    1  A    between atoms: C_1  and  C_5
    2  A    between atoms: C_1  and  C_48
    3  A    between atoms: C_11  and  C_38
    4  A    between atoms: O_14  and  N_23
    5  A    between atoms: O_14  and  C_46
    6  A    between atoms: C_18  and  C_44
    7  A    between atoms: C_20  and  C_24
    8  A    between atoms: C_22  and  C_37
    9  A    between atoms: N_23  and  C_37
   10  A    between atoms: N_28  and  C_35
   11  A    between atoms: N_28  and  C_48
   12  A    between atoms: C_32  and  C_39
   13  A    between atoms: N_36  and  C_38
                            x       y       z     vdW  Elec       q    Type
                         _______ _______ _______ _____ _____    ______ ____

>  <TORSDO>
F 13

$$$$
=
 OpenBabel11032420223D

 55 62  0  0  1  0  0  0  0  0999 V2000
  191.8620  176.2240  135.5290 C   0  0  0  0  0  3  0  0  0  0  0  0
  188.8890  177.2640  141.0690 C   0  0  0  0  0  2  0  0  0  0  0  0
  189.2220  177.1630  143.7360 C   0  0  1  0  0  3  0  0  0  0  0  0
  193.1810  176.3910  137.5800 C   0  0  0  0  0  3  0  0  0  0  0  0
  192.2700  176.7140  139.7350 O   0  0  0  0  0  0  0  0  0  0  0  0
  190.5670  176.2910  136.2930 C   0  0  0  0  0  2  0  0  0  0  0  0
  191.1530  176.9330  140.5430 C   0  0  0  0  0  0  0  0  0  0  0  0
  192.1100  176.5570  138.3540 C   0  0  0  0  0  0  0  0  0  0  0  0
  191.2150  177.1380  142.0120 C   0  0  0  0  0  2  0  0  0  0  0  0
  189.9250  176.9840  140.0360 C   0  0  0  0  0  0  0  0  0  0  0  0
  189.7470  177.3420  142.3210 C   0  0  1  0  0  0  0  0  0  0  0  0
  190.7440  176.5930  137.7630 C   0  0  0  0  0  0  0  0  0  0  0  0
  189.6810  176.8020  138.5800 C   0  0  0  0  0  0  0  0  0  0  0  0
  193.0610  176.2490  136.1150 C   0  0  0  0  0  0  0  0  0  0  0  0
  189.4730  178.5590  143.1750 C   0  0  0  0  0  2  0  0  0  0  0  0
  186.1020  178.0410  137.6330 C   0  0  0  0  0  3  0  0  0  0  0  0
  187.7350  175.7000  137.6060 C   0  0  0  0  0  3  0  0  0  0  0  0
  186.3640  175.6890  137.0860 C   0  0  0  0  0  0  0  0  0  0  0  0
  188.2910  176.8280  138.0670 C   0  0  0  0  0  0  0  0  0  0  0  0
  185.9060  174.6320  136.5780 O   0  0  0  0  0  0  0  0  0  0  0  0
  185.5380  176.9140  137.1930 C   0  0  0  0  0  0  0  0  0  0  0  0
  187.5700  178.1530  137.9580 C   0  0  0  0  0  2  0  0  0  0  0  0
  183.2120  177.2420  137.7670 N   0  0  0  0  0  0  0  0  0  0  0  0
  184.1030  176.9450  136.8770 C   0  0  0  0  0  3  0  0  0  0  0  0
  181.2440  176.2620  136.9720 O   0  0  0  0  0  0  0  0  0  0  0  0
  181.8110  177.2720  137.4740 C   0  0  0  0  0  0  0  0  0  0  0  0
  179.6310  181.0880  139.9820 C   0  0  0  0  0  3  0  0  0  0  0  0
  180.8130  181.2700  139.2000 N   0  0  0  0  0  2  0  0  0  0  0  0
  181.0310  178.4890  137.7700 C   0  0  0  0  0  0  0  0  0  0  0  0
  179.7700  178.5890  139.8970 C   0  0  1  0  0  3  0  0  0  0  0  0
  179.6740  178.3550  138.3920 C   0  0  0  0  0  2  0  0  0  0  0  0
  180.8370  180.9790  137.7740 C   0  0  0  0  0  2  0  0  0  0  0  0
  179.1330  179.8870  140.2840 C   0  0  0  0  0  3  0  0  0  0  0  0
  181.5500  179.6920  137.5060 C   0  0  0  0  0  3  0  0  0  0  0  0
  179.4980  176.2040  140.1580 O   0  0  0  0  0  1  0  0  0  0  0  0
  179.1420  177.4450  140.6910 C   0  0  1  0  0  3  0  0  0  0  0  0
  179.5460  177.5170  142.0840 N   0  0  0  0  0  1  0  0  0  0  0  0
  187.7270  176.8830  143.7570 C   0  0  0  0  0  2  0  0  0  0  0  0
  187.1380  177.5650  146.1020 C   0  0  0  0  0  1  0  0  0  0  0  0
  187.0050  177.9090  144.6260 C   0  0  2  0  0  3  0  0  0  0  0  0
  185.6030  178.0890  144.2330 N   0  0  0  0  0  2  0  0  0  0  0  0
  184.8540  178.7760  145.2810 C   0  0  0  0  0  2  0  0  0  0  0  0
  183.4320  179.0030  144.8160 C   0  0  0  0  0  1  0  0  0  0  0  0
  194.2030  176.1470  135.3160 O   0  0  0  0  0  0  0  0  0  0  0  0
  194.5640  174.9610  134.7120 N   0  0  0  0  0  2  0  0  0  0  0  0
  195.5160  174.2960  135.5940 C   0  0  0  0  0  2  0  0  0  0  0  0
  195.5310  170.7750  136.6030 O   0  0  0  0  0  0  0  0  0  0  0  0
  194.9820  172.9280  136.0500 C   0  0  2  0  0  0  0  0  0  0  0  0
  197.1620  171.9440  137.6010 O   0  0  0  0  0  0  0  0  0  0  0  0
  193.5960  172.7000  135.4630 C   0  0  0  0  0  1  0  0  0  0  0  0
  194.9070  172.7550  137.5710 C   0  0  1  0  0  3  0  0  0  0  0  0
  195.9060  171.7490  135.6890 C   0  0  1  0  0  3  0  0  0  0  0  0
  197.2960  172.0620  136.2060 C   0  0  0  0  0  2  0  0  0  0  0  0
  195.8150  171.5320  137.7420 C   0  0  1  0  0  3  0  0  0  0  0  0
  195.4090  173.8550  138.2780 O   0  0  0  0  0  1  0  0  0  0  0  0
  1 14  2  0  0  0  0
  1  6  1  0  0  0  0
  3 38  1  6  0  0  0
  4  8  2  0  0  0  0
  5  7  1  0  0  0  0
  6 12  1  0  0  0  0
  7  9  1  0  0  0  0
  8  5  1  0  0  0  0
  9 11  1  0  0  0  0
 10  7  2  0  0  0  0
 10  2  1  0  0  0  0
 11  2  1  6  0  0  0
 11 15  1  0  0  0  0
 11  3  1  0  0  0  0
 12  8  1  0  0  0  0
 12 13  2  0  0  0  0
 13 10  1  0  0  0  0
 14  4  1  0  0  0  0
 15  3  1  0  0  0  0
 16 22  1  0  0  0  0
 17 19  2  0  0  0  0
 18 21  1  0  0  0  0
 18 17  1  0  0  0  0
 19 13  1  0  0  0  0
 20 18  2  0  0  0  0
 21 16  2  0  0  0  0
 22 19  1  0  0  0  0
 24 21  1  0  0  0  0
 24 23  2  0  0  0  0
 25 26  2  0  0  0  0
 26 23  1  0  0  0  0
 26 29  1  0  0  0  0
 27 33  2  0  0  0  0
 28 27  1  0  0  0  0
 29 31  1  0  0  0  0
 30 33  1  0  0  0  0
 30 36  1  1  0  0  0
 31 30  1  0  0  0  0
 32 28  1  0  0  0  0
 34 29  2  0  0  0  0
 34 32  1  0  0  0  0
 36 35  1  6  0  0  0
 36 37  1  0  0  0  0
 38 40  1  0  0  0  0
 40 39  1  1  0  0  0
 41 40  1  0  0  0  0
 41 42  1  0  0  0  0
 43 42  1  0  0  0  0
 44 14  1  0  0  0  0
 45 44  1  0  0  0  0
 45 46  1  0  0  0  0
 46 48  1  0  0  0  0
 48 50  1  6  0  0  0
 48 51  1  0  0  0  0
 49 54  1  0  0  0  0
 51 54  1  0  0  0  0
 51 55  1  1  0  0  0
 52 48  1  0  0  0  0
 52 53  1  1  0  0  0
 52 47  1  0  0  0  0
 53 49  1  0  0  0  0
 54 47  1  6  0  0  0
M  END
>  <MODEL>
6

>  <REMARK>
 VINA RESULT:      -9.5      2.766     11.909
  Name = 
  13 active torsions:
  status: ('A' for Active; 'I' for Inactive)
    1  A    between atoms: C_1  and  C_5
    2  A    between atoms: C_1  and  C_48
    3  A    between atoms: C_11  and  C_38
    4  A    between atoms: O_14  and  N_23
    5  A    between atoms: O_14  and  C_46
    6  A    between atoms: C_18  and  C_44
    7  A    between atoms: C_20  and  C_24
    8  A    between atoms: C_22  and  C_37
    9  A    between atoms: N_23  and  C_37
   10  A    between atoms: N_28  and  C_35
   11  A    between atoms: N_28  and  C_48
   12  A    between atoms: C_32  and  C_39
   13  A    between atoms: N_36  and  C_38
                            x       y       z     vdW  Elec       q    Type
                         _______ _______ _______ _____ _____    ______ ____

>  <TORSDO>
F 13

$$$$
=
 OpenBabel11032420223D

 55 62  0  0  1  0  0  0  0  0999 V2000
  190.4820  176.3510  136.4170 C   0  0  0  0  0  3  0  0  0  0  0  0
  189.6600  178.3580  142.4100 C   0  0  0  0  0  2  0  0  0  0  0  0
  190.7430  178.2680  144.8700 C   0  0  1  0  0  3  0  0  0  0  0  0
  192.3530  176.2310  137.9840 C   0  0  0  0  0  3  0  0  0  0  0  0
  192.2400  176.8670  140.2560 O   0  0  0  0  0  0  0  0  0  0  0  0
  189.5340  176.7930  137.4990 C   0  0  0  0  0  2  0  0  0  0  0  0
  191.5070  177.4090  141.3140 C   0  0  0  0  0  0  0  0  0  0  0  0
  191.6400  176.7080  139.0030 C   0  0  0  0  0  0  0  0  0  0  0  0
  192.0550  177.6440  142.6730 C   0  0  0  0  0  2  0  0  0  0  0  0
  190.2360  177.7710  141.1680 C   0  0  0  0  0  0  0  0  0  0  0  0
  190.8460  178.2470  143.3540 C   0  0  1  0  0  0  0  0  0  0  0  0
  190.2120  177.0900  138.8170 C   0  0  0  0  0  0  0  0  0  0  0  0
  189.5300  177.6080  139.8690 C   0  0  0  0  0  0  0  0  0  0  0  0
  191.7690  176.0730  136.6370 C   0  0  0  0  0  0  0  0  0  0  0  0
  191.1500  179.5230  144.1050 C   0  0  0  0  0  2  0  0  0  0  0  0
  185.9240  178.7620  140.8200 C   0  0  0  0  0  3  0  0  0  0  0  0
  187.4700  177.8790  138.5900 C   0  0  0  0  0  3  0  0  0  0  0  0
  186.0590  178.2510  138.4500 C   0  0  0  0  0  0  0  0  0  0  0  0
  188.1010  177.9890  139.7660 C   0  0  0  0  0  0  0  0  0  0  0  0
  185.5230  178.2200  137.3110 O   0  0  0  0  0  0  0  0  0  0  0  0
  185.2870  178.6320  139.6550 C   0  0  0  0  0  0  0  0  0  0  0  0
  187.4180  178.6150  140.9610 C   0  0  0  0  0  2  0  0  0  0  0  0
  183.0000  177.8440  139.6920 N   0  0  0  0  0  0  0  0  0  0  0  0
  183.8300  178.8350  139.6440 C   0  0  0  0  0  3  0  0  0  0  0  0
  180.9280  178.0150  140.7590 O   0  0  0  0  0  0  0  0  0  0  0  0
  181.5810  178.0260  139.6780 C   0  0  0  0  0  0  0  0  0  0  0  0
  179.9430  180.1650  135.3960 C   0  0  0  0  0  3  0  0  0  0  0  0
  180.9690  179.1710  135.4040 N   0  0  0  0  0  2  0  0  0  0  0  0
  180.8860  178.2340  138.3940 C   0  0  0  0  0  0  0  0  0  0  0  0
  180.0250  180.4960  137.8760 C   0  0  1  0  0  3  0  0  0  0  0  0
  179.6590  179.0950  138.3570 C   0  0  0  0  0  2  0  0  0  0  0  0
  180.7340  177.8350  135.9330 C   0  0  0  0  0  2  0  0  0  0  0  0
  179.4880  180.7540  136.5030 C   0  0  0  0  0  3  0  0  0  0  0  0
  181.3680  177.6780  137.2780 C   0  0  0  0  0  3  0  0  0  0  0  0
  180.0580  181.3910  140.1180 O   0  0  0  0  0  1  0  0  0  0  0  0
  179.5310  181.5750  138.8380 C   0  0  1  0  0  3  0  0  0  0  0  0
  179.8860  182.8930  138.3440 N   0  0  0  0  0  1  0  0  0  0  0  0
  189.3020  178.4040  145.3410 C   0  0  0  0  0  2  0  0  0  0  0  0
  187.3310  176.8840  144.9960 C   0  0  0  0  0  1  0  0  0  0  0  0
  188.7050  177.0310  145.6330 C   0  0  2  0  0  3  0  0  0  0  0  0
  188.6760  176.7260  147.0680 N   0  0  0  0  0  2  0  0  0  0  0  0
  189.0530  177.8960  147.8560 C   0  0  0  0  0  2  0  0  0  0  0  0
  187.9360  178.2380  148.8160 C   0  0  0  0  0  1  0  0  0  0  0  0
  192.5550  175.6380  135.5680 O   0  0  0  0  0  0  0  0  0  0  0  0
  193.3900  174.5450  135.6770 N   0  0  0  0  0  2  0  0  0  0  0  0
  194.7180  175.0440  136.0130 C   0  0  0  0  0  2  0  0  0  0  0  0
  197.7540  173.1970  136.9000 O   0  0  0  0  0  0  0  0  0  0  0  0
  195.6070  173.9160  136.5640 C   0  0  2  0  0  0  0  0  0  0  0  0
  197.8980  175.3640  137.4470 O   0  0  0  0  0  0  0  0  0  0  0  0
  194.9120  172.5770  136.3670 C   0  0  0  0  0  1  0  0  0  0  0  0
  195.9720  174.0680  138.0450 C   0  0  1  0  0  3  0  0  0  0  0  0
  197.0150  173.8740  135.9410 C   0  0  1  0  0  3  0  0  0  0  0  0
  197.6320  175.2520  136.0710 C   0  0  0  0  0  2  0  0  0  0  0  0
  197.5020  174.0970  137.9360 C   0  0  1  0  0  3  0  0  0  0  0  0
  195.4880  175.2520  138.6160 O   0  0  0  0  0  1  0  0  0  0  0  0
  1 14  2  0  0  0  0
  1  6  1  0  0  0  0
  3 38  1  6  0  0  0
  4  8  2  0  0  0  0
  5  7  1  0  0  0  0
  6 12  1  0  0  0  0
  7  9  1  0  0  0  0
  8  5  1  0  0  0  0
  9 11  1  0  0  0  0
 10  7  2  0  0  0  0
 10  2  1  0  0  0  0
 11  2  1  6  0  0  0
 11 15  1  0  0  0  0
 11  3  1  0  0  0  0
 12  8  1  0  0  0  0
 12 13  2  0  0  0  0
 13 10  1  0  0  0  0
 14  4  1  0  0  0  0
 15  3  1  0  0  0  0
 16 22  1  0  0  0  0
 17 19  2  0  0  0  0
 18 17  1  0  0  0  0
 18 21  1  0  0  0  0
 19 13  1  0  0  0  0
 19 22  1  0  0  0  0
 20 18  2  0  0  0  0
 21 16  2  0  0  0  0
 24 21  1  0  0  0  0
 24 23  2  0  0  0  0
 26 23  1  0  0  0  0
 26 25  2  0  0  0  0
 27 28  1  0  0  0  0
 27 33  2  0  0  0  0
 28 32  1  0  0  0  0
 29 26  1  0  0  0  0
 30 31  1  0  0  0  0
 30 36  1  1  0  0  0
 31 29  1  0  0  0  0
 32 34  1  0  0  0  0
 33 30  1  0  0  0  0
 34 29  2  0  0  0  0
 36 37  1  6  0  0  0
 36 35  1  0  0  0  0
 38 40  1  0  0  0  0
 40 39  1  1  0  0  0
 40 41  1  0  0  0  0
 41 42  1  0  0  0  0
 42 43  1  0  0  0  0
 44 45  1  0  0  0  0
 44 14  1  0  0  0  0
 45 46  1  0  0  0  0
 46 48  1  0  0  0  0
 48 50  1  6  0  0  0
 48 51  1  0  0  0  0
 49 54  1  0  0  0  0
 51 55  1  6  0  0  0
 52 53  1  1  0  0  0
 52 48  1  0  0  0  0
 52 47  1  0  0  0  0
 53 49  1  0  0  0  0
 54 47  1  6  0  0  0
 54 51  1  0  0  0  0
M  END
>  <MODEL>
7

>  <REMARK>
 VINA RESULT:      -9.2      2.431     11.523
  Name = 
  13 active torsions:
  status: ('A' for Active; 'I' for Inactive)
    1  A    between atoms: C_1  and  C_5
    2  A    between atoms: C_1  and  C_48
    3  A    between atoms: C_11  and  C_38
    4  A    between atoms: O_14  and  N_23
    5  A    between atoms: O_14  and  C_46
    6  A    between atoms: C_18  and  C_44
    7  A    between atoms: C_20  and  C_24
    8  A    between atoms: C_22  and  C_37
    9  A    between atoms: N_23  and  C_37
   10  A    between atoms: N_28  and  C_35
   11  A    between atoms: N_28  and  C_48
   12  A    between atoms: C_32  and  C_39
   13  A    between atoms: N_36  and  C_38
                            x       y       z     vdW  Elec       q    Type
                         _______ _______ _______ _____ _____    ______ ____

>  <TORSDO>
F 13

$$$$
=
 OpenBabel11032420223D

 55 62  0  0  1  0  0  0  0  0999 V2000
  191.9740  175.9710  135.4300 C   0  0  0  0  0  3  0  0  0  0  0  0
  188.8020  177.4180  140.7650 C   0  0  0  0  0  2  0  0  0  0  0  0
  189.0110  177.4410  143.4460 C   0  0  1  0  0  3  0  0  0  0  0  0
  193.2050  176.1890  137.5310 C   0  0  0  0  0  3  0  0  0  0  0  0
  192.2130  176.6600  139.6210 O   0  0  0  0  0  0  0  0  0  0  0  0
  190.6500  176.1320  136.1280 C   0  0  0  0  0  2  0  0  0  0  0  0
  191.0720  176.9670  140.3640 C   0  0  0  0  0  0  0  0  0  0  0  0
  192.1090  176.4390  138.2440 C   0  0  0  0  0  0  0  0  0  0  0  0
  191.0760  177.2450  141.8220 C   0  0  0  0  0  2  0  0  0  0  0  0
  189.8710  177.0430  139.7980 C   0  0  0  0  0  0  0  0  0  0  0  0
  189.6060  177.5260  142.0510 C   0  0  1  0  0  0  0  0  0  0  0  0
  190.7740  176.5010  137.5880 C   0  0  0  0  0  0  0  0  0  0  0  0
  189.6850  176.7960  138.3430 C   0  0  0  0  0  0  0  0  0  0  0  0
  193.1460  175.9770  136.0700 C   0  0  0  0  0  0  0  0  0  0  0  0
  189.3470  178.7950  142.8290 C   0  0  0  0  0  2  0  0  0  0  0  0
  186.3140  178.1630  136.9270 C   0  0  0  0  0  3  0  0  0  0  0  0
  187.6410  175.7180  137.5630 C   0  0  0  0  0  3  0  0  0  0  0  0
  186.2920  175.7350  136.9880 C   0  0  0  0  0  0  0  0  0  0  0  0
  188.3220  176.8530  137.7640 C   0  0  0  0  0  0  0  0  0  0  0  0
  185.7180  174.6450  136.7290 O   0  0  0  0  0  0  0  0  0  0  0  0
  185.6240  177.0350  136.7460 C   0  0  0  0  0  0  0  0  0  0  0  0
  187.7760  178.1830  137.2940 C   0  0  0  0  0  2  0  0  0  0  0  0
  183.2520  177.0620  137.2180 N   0  0  0  0  0  0  0  0  0  0  0  0
  184.2110  177.1500  136.3540 C   0  0  0  0  0  3  0  0  0  0  0  0
  181.5430  177.7490  135.7780 O   0  0  0  0  0  0  0  0  0  0  0  0
  181.8730  177.1690  136.8500 C   0  0  0  0  0  0  0  0  0  0  0  0
  179.4480  174.0380  139.9980 C   0  0  0  0  0  3  0  0  0  0  0  0
  180.0560  175.2490  140.4520 N   0  0  0  0  0  2  0  0  0  0  0  0
  180.8380  176.5920  137.7290 C   0  0  0  0  0  0  0  0  0  0  0  0
  180.5570  174.1330  137.7560 C   0  0  1  0  0  3  0  0  0  0  0  0
  180.0030  175.4530  137.2260 C   0  0  0  0  0  2  0  0  0  0  0  0
  179.6550  176.5470  139.9280 C   0  0  0  0  0  2  0  0  0  0  0  0
  179.6420  173.5350  138.7780 C   0  0  0  0  0  3  0  0  0  0  0  0
  180.6730  177.0700  138.9670 C   0  0  0  0  0  3  0  0  0  0  0  0
  181.5580  173.7010  135.6020 O   0  0  0  0  0  1  0  0  0  0  0  0
  180.8080  173.1300  136.6320 C   0  0  1  0  0  3  0  0  0  0  0  0
  181.4920  171.9560  137.1460 N   0  0  0  0  0  1  0  0  0  0  0  0
  187.5050  177.2250  143.4110 C   0  0  0  0  0  2  0  0  0  0  0  0
  186.9090  177.1330  145.8490 C   0  0  0  0  0  1  0  0  0  0  0  0
  186.8340  177.9540  144.5710 C   0  0  2  0  0  3  0  0  0  0  0  0
  185.4580  178.3550  144.2610 N   0  0  0  0  0  2  0  0  0  0  0  0
  185.3210  178.6970  142.8480 C   0  0  0  0  0  2  0  0  0  0  0  0
  183.9620  178.2560  142.3520 C   0  0  0  0  0  1  0  0  0  0  0  0
  194.3160  175.7870  135.3320 O   0  0  0  0  0  0  0  0  0  0  0  0
  194.8030  174.5270  135.0530 N   0  0  0  0  0  2  0  0  0  0  0  0
  195.3360  173.9820  136.2960 C   0  0  0  0  0  2  0  0  0  0  0  0
  195.8060  170.3510  136.3910 O   0  0  0  0  0  0  0  0  0  0  0  0
  194.9910  172.4890  136.4360 C   0  0  2  0  0  0  0  0  0  0  0  0
  197.4070  171.4370  137.5210 O   0  0  0  0  0  0  0  0  0  0  0  0
  193.5810  172.2410  135.9190 C   0  0  0  0  0  1  0  0  0  0  0  0
  195.0920  171.9500  137.8670 C   0  0  1  0  0  3  0  0  0  0  0  0
  195.9850  171.5530  135.7230 C   0  0  1  0  0  3  0  0  0  0  0  0
  197.3830  171.9000  136.1930 C   0  0  0  0  0  2  0  0  0  0  0  0
  196.1300  170.8410  137.6570 C   0  0  1  0  0  3  0  0  0  0  0  0
  195.5530  172.9020  138.7850 O   0  0  0  0  0  1  0  0  0  0  0  0
  1 14  2  0  0  0  0
  1  6  1  0  0  0  0
  3 38  1  6  0  0  0
  4  8  2  0  0  0  0
  5  7  1  0  0  0  0
  6 12  1  0  0  0  0
  7  9  1  0  0  0  0
  8  5  1  0  0  0  0
  9 11  1  0  0  0  0
 10  7  2  0  0  0  0
 10  2  1  0  0  0  0
 11  2  1  6  0  0  0
 11 15  1  0  0  0  0
 11  3  1  0  0  0  0
 12  8  1  0  0  0  0
 12 13  2  0  0  0  0
 13 10  1  0  0  0  0
 14  4  1  0  0  0  0
 15  3  1  0  0  0  0
 16 22  1  0  0  0  0
 17 19  2  0  0  0  0
 18 17  1  0  0  0  0
 19 13  1  0  0  0  0
 20 18  2  0  0  0  0
 21 16  2  0  0  0  0
 21 18  1  0  0  0  0
 22 19  1  0  0  0  0
 24 21  1  0  0  0  0
 24 23  2  0  0  0  0
 25 26  2  0  0  0  0
 26 23  1  0  0  0  0
 26 29  1  0  0  0  0
 27 28  1  0  0  0  0
 29 34  2  0  0  0  0
 30 36  1  6  0  0  0
 30 33  1  0  0  0  0
 31 29  1  0  0  0  0
 31 30  1  0  0  0  0
 32 28  1  0  0  0  0
 33 27  2  0  0  0  0
 34 32  1  0  0  0  0
 36 35  1  6  0  0  0
 36 37  1  0  0  0  0
 38 40  1  0  0  0  0
 40 39  1  1  0  0  0
 41 40  1  0  0  0  0
 42 41  1  0  0  0  0
 43 42  1  0  0  0  0
 44 14  1  0  0  0  0
 45 44  1  0  0  0  0
 45 46  1  0  0  0  0
 46 48  1  0  0  0  0
 48 50  1  6  0  0  0
 48 51  1  0  0  0  0
 49 54  1  0  0  0  0
 51 55  1  1  0  0  0
 52 53  1  1  0  0  0
 52 47  1  0  0  0  0
 52 48  1  0  0  0  0
 53 49  1  0  0  0  0
 54 47  1  6  0  0  0
 54 51  1  0  0  0  0
M  END
>  <MODEL>
8

>  <REMARK>
 VINA RESULT:      -9.1      3.604     11.680
  Name = 
  13 active torsions:
  status: ('A' for Active; 'I' for Inactive)
    1  A    between atoms: C_1  and  C_5
    2  A    between atoms: C_1  and  C_48
    3  A    between atoms: C_11  and  C_38
    4  A    between atoms: O_14  and  N_23
    5  A    between atoms: O_14  and  C_46
    6  A    between atoms: C_18  and  C_44
    7  A    between atoms: C_20  and  C_24
    8  A    between atoms: C_22  and  C_37
    9  A    between atoms: N_23  and  C_37
   10  A    between atoms: N_28  and  C_35
   11  A    between atoms: N_28  and  C_48
   12  A    between atoms: C_32  and  C_39
   13  A    between atoms: N_36  and  C_38
                            x       y       z     vdW  Elec       q    Type
                         _______ _______ _______ _____ _____    ______ ____

>  <TORSDO>
F 13

$$$$
=
 OpenBabel11032420223D

 55 62  0  0  1  0  0  0  0  0999 V2000
  192.2670  176.1120  135.7730 C   0  0  0  0  0  3  0  0  0  0  0  0
  188.9070  177.5740  140.9870 C   0  0  0  0  0  2  0  0  0  0  0  0
  189.0650  177.7330  143.6670 C   0  0  1  0  0  3  0  0  0  0  0  0
  193.4420  176.5100  137.8790 C   0  0  0  0  0  3  0  0  0  0  0  0
  192.3820  177.0050  139.9300 O   0  0  0  0  0  0  0  0  0  0  0  0
  190.9230  176.2110  136.4420 C   0  0  0  0  0  2  0  0  0  0  0  0
  191.2090  177.2650  140.6410 C   0  0  0  0  0  0  0  0  0  0  0  0
  192.3180  176.7150  138.5630 C   0  0  0  0  0  0  0  0  0  0  0  0
  191.1680  177.6080  142.0850 C   0  0  0  0  0  2  0  0  0  0  0  0
  190.0160  177.2310  140.0540 C   0  0  0  0  0  0  0  0  0  0  0  0
  189.6780  177.7950  142.2780 C   0  0  1  0  0  0  0  0  0  0  0  0
  190.9940  176.6540  137.8860 C   0  0  0  0  0  0  0  0  0  0  0  0
  189.8740  176.9070  138.6090 C   0  0  0  0  0  0  0  0  0  0  0  0
  193.4240  176.2280  136.4290 C   0  0  0  0  0  0  0  0  0  0  0  0
  189.3180  179.0770  142.9930 C   0  0  0  0  0  2  0  0  0  0  0  0
  186.3440  177.9450  137.3060 C   0  0  0  0  0  3  0  0  0  0  0  0
  188.0180  175.6580  137.6360 C   0  0  0  0  0  3  0  0  0  0  0  0
  186.6850  175.5560  137.0340 C   0  0  0  0  0  0  0  0  0  0  0  0
  188.5210  176.8410  138.0080 C   0  0  0  0  0  0  0  0  0  0  0  0
  186.2820  174.4400  136.6130 O   0  0  0  0  0  0  0  0  0  0  0  0
  185.8320  176.7640  136.9550 C   0  0  0  0  0  0  0  0  0  0  0  0
  187.7850  178.1290  137.7110 C   0  0  0  0  0  2  0  0  0  0  0  0
  183.5250  176.0950  137.2370 N   0  0  0  0  0  0  0  0  0  0  0  0
  184.4200  176.7240  136.5460 C   0  0  0  0  0  3  0  0  0  0  0  0
  181.7930  175.3560  135.8520 O   0  0  0  0  0  0  0  0  0  0  0  0
  182.1480  176.0440  136.8490 C   0  0  0  0  0  0  0  0  0  0  0  0
  179.3580  177.7540  140.7090 C   0  0  0  0  0  3  0  0  0  0  0  0
  180.4210  178.5220  140.1410 N   0  0  0  0  0  2  0  0  0  0  0  0
  181.1440  176.7960  137.6270 C   0  0  0  0  0  0  0  0  0  0  0  0
  180.0280  175.6560  139.5180 C   0  0  1  0  0  3  0  0  0  0  0  0
  179.8890  176.1030  138.0650 C   0  0  0  0  0  2  0  0  0  0  0  0
  180.4170  178.9110  138.7390 C   0  0  0  0  0  2  0  0  0  0  0  0
  179.1520  176.4680  140.4190 C   0  0  0  0  0  3  0  0  0  0  0  0
  181.3730  178.0720  137.9520 C   0  0  0  0  0  3  0  0  0  0  0  0
  178.9430  173.9440  140.8310 O   0  0  0  0  0  1  0  0  0  0  0  0
  179.7130  174.1710  139.6880 C   0  0  1  0  0  3  0  0  0  0  0  0
  179.0180  173.6630  138.5180 N   0  0  0  0  0  1  0  0  0  0  0  0
  187.5790  177.4110  143.6190 C   0  0  0  0  0  2  0  0  0  0  0  0
  185.7820  178.0060  145.2710 C   0  0  0  0  0  1  0  0  0  0  0  0
  187.0370  177.1820  145.0270 C   0  0  2  0  0  3  0  0  0  0  0  0
  188.0510  177.4130  146.0620 N   0  0  0  0  0  2  0  0  0  0  0  0
  187.4260  177.8000  147.3240 C   0  0  0  0  0  2  0  0  0  0  0  0
  188.4150  177.6120  148.4530 C   0  0  0  0  0  1  0  0  0  0  0  0
  194.6180  176.0870  135.7170 O   0  0  0  0  0  0  0  0  0  0  0  0
  194.9790  174.8910  135.1330 N   0  0  0  0  0  2  0  0  0  0  0  0
  195.3730  173.9850  136.2050 C   0  0  0  0  0  2  0  0  0  0  0  0
  198.7840  172.9550  135.3560 O   0  0  0  0  0  0  0  0  0  0  0  0
  196.5340  173.0790  135.7620 C   0  0  2  0  0  0  0  0  0  0  0  0
  198.7150  174.1730  137.2350 O   0  0  0  0  0  0  0  0  0  0  0  0
  196.0300  172.0650  134.7460 C   0  0  0  0  0  1  0  0  0  0  0  0
  197.2200  172.3280  136.9080 C   0  0  1  0  0  3  0  0  0  0  0  0
  197.7370  173.8490  135.1840 C   0  0  1  0  0  3  0  0  0  0  0  0
  198.1440  174.9130  136.1850 C   0  0  0  0  0  2  0  0  0  0  0  0
  198.6540  172.8480  136.7410 C   0  0  1  0  0  3  0  0  0  0  0  0
  196.7110  172.6590  138.1700 O   0  0  0  0  0  1  0  0  0  0  0  0
  1 14  2  0  0  0  0
  1  6  1  0  0  0  0
  3 38  1  6  0  0  0
  4  8  2  0  0  0  0
  5  7  1  0  0  0  0
  6 12  1  0  0  0  0
  7  9  1  0  0  0  0
  8  5  1  0  0  0  0
  9 11  1  0  0  0  0
 10  7  2  0  0  0  0
 10  2  1  0  0  0  0
 11  2  1  6  0  0  0
 11 15  1  0  0  0  0
 11  3  1  0  0  0  0
 12  8  1  0  0  0  0
 12 13  2  0  0  0  0
 13 10  1  0  0  0  0
 14  4  1  0  0  0  0
 15  3  1  0  0  0  0
 16 22  1  0  0  0  0
 17 19  2  0  0  0  0
 18 17  1  0  0  0  0
 19 13  1  0  0  0  0
 20 18  2  0  0  0  0
 21 18  1  0  0  0  0
 21 16  2  0  0  0  0
 22 19  1  0  0  0  0
 24 21  1  0  0  0  0
 24 23  2  0  0  0  0
 25 26  2  0  0  0  0
 26 23  1  0  0  0  0
 26 29  1  0  0  0  0
 28 27  1  0  0  0  0
 29 34  2  0  0  0  0
 29 31  1  0  0  0  0
 30 36  1  6  0  0  0
 30 33  1  0  0  0  0
 31 30  1  0  0  0  0
 32 28  1  0  0  0  0
 33 27  2  0  0  0  0
 34 32  1  0  0  0  0
 36 37  1  6  0  0  0
 36 35  1  0  0  0  0
 38 40  1  0  0  0  0
 40 39  1  1  0  0  0
 40 41  1  0  0  0  0
 41 42  1  0  0  0  0
 42 43  1  0  0  0  0
 44 14  1  0  0  0  0
 45 44  1  0  0  0  0
 45 46  1  0  0  0  0
 48 50  1  6  0  0  0
 48 46  1  0  0  0  0
 48 51  1  0  0  0  0
 51 55  1  1  0  0  0
 52 47  1  0  0  0  0
 52 48  1  0  0  0  0
 52 53  1  1  0  0  0
 53 49  1  0  0  0  0
 54 47  1  6  0  0  0
 54 51  1  0  0  0  0
 54 49  1  0  0  0  0
M  END
>  <MODEL>
9

>  <REMARK>
 VINA RESULT:      -9.0      3.157     12.081
  Name = 
  13 active torsions:
  status: ('A' for Active; 'I' for Inactive)
    1  A    between atoms: C_1  and  C_5
    2  A    between atoms: C_1  and  C_48
    3  A    between atoms: C_11  and  C_38
    4  A    between atoms: O_14  and  N_23
    5  A    between atoms: O_14  and  C_46
    6  A    between atoms: C_18  and  C_44
    7  A    between atoms: C_20  and  C_24
    8  A    between atoms: C_22  and  C_37
    9  A    between atoms: N_23  and  C_37
   10  A    between atoms: N_28  and  C_35
   11  A    between atoms: N_28  and  C_48
   12  A    between atoms: C_32  and  C_39
   13  A    between atoms: N_36  and  C_38
                            x       y       z     vdW  Elec       q    Type
                         _______ _______ _______ _____ _____    ______ ____

>  <TORSDO>
F 13

$$$$
