=
 OpenBabel11042412523D

 43 50  0  0  1  0  0  0  0  0999 V2000
  191.3460  176.6760  146.9450 C   0  0  0  0  0  0  0  0  0  0  0  0
  187.0200  177.8610  144.5910 C   0  0  0  0  0  0  0  0  0  0  0  0
  187.6400  178.1850  141.8650 C   0  0  0  0  0  0  0  0  0  0  0  0
  189.0350  177.1940  146.4350 C   0  0  0  0  0  0  0  0  0  0  0  0
  191.6800  176.8110  145.5960 C   0  0  0  0  0  3  0  0  0  0  0  0
  192.3270  176.3520  147.8710 O   0  0  0  0  0  1  0  0  0  0  0  0
  189.3630  177.3360  145.0640 C   0  0  0  0  0  0  0  0  0  0  0  0
  190.0270  176.8660  147.3630 C   0  0  0  0  0  3  0  0  0  0  0  0
  190.6960  177.1400  144.6600 C   0  0  0  0  0  3  0  0  0  0  0  0
  188.6430  177.8380  142.7770 C   0  0  0  0  0  3  0  0  0  0  0  0
  188.3530  177.6750  144.1400 C   0  0  0  0  0  0  0  0  0  0  0  0
  186.7230  177.7120  145.9520 C   0  0  0  0  0  3  0  0  0  0  0  0
  186.0040  178.1930  143.6780 C   0  0  0  0  0  0  0  0  0  0  0  0
  186.3300  178.3610  142.3240 C   0  0  0  0  0  3  0  0  0  0  0  0
  187.7230  177.3830  146.8660 C   0  0  0  0  0  3  0  0  0  0  0  0
  187.9620  178.3700  140.4400 C   0  0  0  0  0  0  0  0  0  0  0  0
  186.9910  178.0290  139.4400 N   0  0  0  0  0  2  0  0  0  0  0  0
  189.0900  178.8260  140.1050 O   0  0  0  0  0  0  0  0  0  0  0  0
  187.1940  178.1190  138.0270 C   0  0  0  0  0  0  0  0  0  0  0  0
  188.2960  178.5040  137.5500 O   0  0  0  0  0  0  0  0  0  0  0  0
  186.0760  177.7750  137.1070 C   0  0  0  0  0  2  0  0  0  0  0  0
  186.0040  176.3290  136.9410 N   0  0  0  0  0  0  0  0  0  0  0  0
  184.3140  175.5360  135.3150 C   0  0  0  0  0  2  0  0  0  0  0  0
  183.6100  176.2050  137.8050 C   0  0  2  0  0  3  0  0  0  0  0  0
  186.6620  176.0310  135.6710 C   0  0  0  0  0  2  0  0  0  0  0  0
  184.6090  175.9680  136.7250 C   0  0  2  0  0  0  0  0  0  0  0  0
  184.2340  174.9540  137.6250 O   0  0  0  0  0  0  0  0  0  0  0  0
  185.6930  175.2850  134.7580 C   0  0  0  0  0  2  0  0  0  0  0  0
  182.2480  176.1600  137.2770 N   0  0  0  0  0  0  0  0  0  0  0  0
  181.2980  175.6440  139.5430 C   0  0  0  0  0  2  0  0  0  0  0  0
  180.3470  177.4050  138.0770 C   0  0  0  0  0  3  0  0  0  0  0  0
  180.1980  175.9790  138.5550 C   0  0  1  0  0  3  0  0  0  0  0  0
  181.6770  177.4990  137.3630 C   0  0  0  0  0  3  0  0  0  0  0  0
  181.4290  175.2340  138.0780 C   0  0  1  0  0  3  0  0  0  0  0  0
  184.6910  178.3840  144.1480 O   0  0  0  0  0  0  0  0  0  0  0  0
  182.3710  178.6410  141.2360 C   0  0  0  0  0  3  0  0  0  0  0  0
  181.1820  178.9750  141.8930 C   0  0  0  0  0  0  0  0  0  0  0  0
  182.3470  178.9230  144.0160 C   0  0  0  0  0  3  0  0  0  0  0  0
  183.5430  178.4470  141.9710 C   0  0  0  0  0  3  0  0  0  0  0  0
  183.5430  178.5950  143.3680 C   0  0  0  0  0  0  0  0  0  0  0  0
  181.1720  179.1210  143.2830 C   0  0  0  0  0  3  0  0  0  0  0  0
  179.0780  178.1170  141.2700 O   0  0  0  0  0  1  0  0  0  0  0  0
  179.9380  179.2030  141.1100 C   0  0  0  0  0  2  0  0  0  0  0  0
  1  8  1  0  0  0  0
  1  6  1  0  0  0  0
  2 12  1  0  0  0  0
  3 14  2  0  0  0  0
  3 10  1  0  0  0  0
  4 15  1  0  0  0  0
  4  8  2  0  0  0  0
  5  1  2  0  0  0  0
  7  4  1  0  0  0  0
  9  7  2  0  0  0  0
  9  5  1  0  0  0  0
 10 11  2  0  0  0  0
 11  2  1  0  0  0  0
 11  7  1  0  0  0  0
 12 15  2  0  0  0  0
 13 35  1  0  0  0  0
 13  2  2  0  0  0  0
 14 13  1  0  0  0  0
 16  3  1  0  0  0  0
 17 16  1  0  0  0  0
 18 16  2  0  0  0  0
 19 17  1  0  0  0  0
 20 19  2  0  0  0  0
 21 19  1  0  0  0  0
 22 21  1  0  0  0  0
 24 29  1  6  0  0  0
 25 22  1  0  0  0  0
 26 23  1  6  0  0  0
 26 22  1  0  0  0  0
 26 27  1  0  0  0  0
 26 24  1  0  0  0  0
 27 24  1  0  0  0  0
 28 23  1  0  0  0  0
 28 25  1  0  0  0  0
 29 33  1  0  0  0  0
 29 34  1  0  0  0  0
 32 31  1  6  0  0  0
 32 30  1  0  0  0  0
 33 31  2  0  0  0  0
 34 32  1  0  0  0  0
 34 30  1  1  0  0  0
 36 37  2  0  0  0  0
 36 39  1  0  0  0  0
 37 41  1  0  0  0  0
 39 40  2  0  0  0  0
 40 38  1  0  0  0  0
 40 35  1  0  0  0  0
 41 38  2  0  0  0  0
 43 42  1  0  0  0  0
 43 37  1  0  0  0  0
M  END
>  <MODEL>
1

>  <REMARK>
 VINA RESULT:     -10.8      0.000      0.000
  Name = 
  7 active torsions:
  status: ('A' for Active; 'I' for Inactive)
    1  A    between atoms: O_1  and  C_34
    2  A    between atoms: O_1  and  C_35
    3  A    between atoms: C_2  and  C_13
    4  A    between atoms: C_3  and  N_4
    5  A    between atoms: C_3  and  C_12
    6  A    between atoms: N_11  and  C_14
    7  A    between atoms: C_19  and  C_37
                            x       y       z     vdW  Elec       q    Type
                         _______ _______ _______ _____ _____    ______ ____

>  <TORSDO>
F 7

$$$$
=
 OpenBabel11042412523D

 43 50  0  0  1  0  0  0  0  0999 V2000
  191.5250  176.4640  147.1410 C   0  0  0  0  0  0  0  0  0  0  0  0
  187.2550  177.8200  144.7770 C   0  0  0  0  0  0  0  0  0  0  0  0
  187.8450  177.9170  142.0270 C   0  0  0  0  0  0  0  0  0  0  0  0
  189.2500  177.1230  146.6320 C   0  0  0  0  0  0  0  0  0  0  0  0
  191.8420  176.4850  145.7810 C   0  0  0  0  0  3  0  0  0  0  0  0
  192.4970  176.1280  148.0730 O   0  0  0  0  0  1  0  0  0  0  0  0
  189.5610  177.1490  145.2500 C   0  0  0  0  0  0  0  0  0  0  0  0
  190.2330  176.7810  147.5650 C   0  0  0  0  0  3  0  0  0  0  0  0
  190.8670  176.8260  144.8400 C   0  0  0  0  0  3  0  0  0  0  0  0
  188.8360  177.5550  142.9450 C   0  0  0  0  0  3  0  0  0  0  0  0
  188.5610  177.5030  144.3190 C   0  0  0  0  0  0  0  0  0  0  0  0
  186.9750  177.7830  146.1490 C   0  0  0  0  0  3  0  0  0  0  0  0
  186.2490  178.1680  143.8580 C   0  0  0  0  0  0  0  0  0  0  0  0
  186.5610  178.2220  142.4920 C   0  0  0  0  0  3  0  0  0  0  0  0
  187.9650  177.4390  147.0690 C   0  0  0  0  0  3  0  0  0  0  0  0
  188.1510  177.9830  140.5880 C   0  0  0  0  0  0  0  0  0  0  0  0
  189.2300  177.2040  140.0530 N   0  0  0  0  0  2  0  0  0  0  0  0
  187.4650  178.7260  139.8330 O   0  0  0  0  0  0  0  0  0  0  0  0
  189.6570  177.2120  138.6870 C   0  0  0  0  0  0  0  0  0  0  0  0
  189.0980  177.9530  137.8330 O   0  0  0  0  0  0  0  0  0  0  0  0
  190.7650  176.3130  138.2650 C   0  0  0  0  0  2  0  0  0  0  0  0
  190.4950  175.7930  136.9300 N   0  0  0  0  0  0  0  0  0  0  0  0
  191.2440  173.4670  136.5320 C   0  0  0  0  0  2  0  0  0  0  0  0
  192.9670  175.5050  136.3870 C   0  0  2  0  0  3  0  0  0  0  0  0
  189.3540  174.8910  137.0680 C   0  0  0  0  0  2  0  0  0  0  0  0
  191.6040  174.9280  136.5500 C   0  0  2  0  0  0  0  0  0  0  0  0
  192.1010  175.3140  135.2930 O   0  0  0  0  0  0  0  0  0  0  0  0
  189.7370  173.5050  136.5560 C   0  0  0  0  0  2  0  0  0  0  0  0
  193.9850  174.4550  136.4010 N   0  0  0  0  0  0  0  0  0  0  0  0
  195.6150  175.9050  135.1570 C   0  0  0  0  0  2  0  0  0  0  0  0
  196.2490  174.6510  137.2020 C   0  0  0  0  0  3  0  0  0  0  0  0
  196.2920  174.6580  135.6910 C   0  0  1  0  0  3  0  0  0  0  0  0
  194.7920  174.6150  137.6060 C   0  0  0  0  0  3  0  0  0  0  0  0
  194.8540  174.5820  135.2190 C   0  0  1  0  0  3  0  0  0  0  0  0
  184.9640  178.4890  144.3340 O   0  0  0  0  0  0  0  0  0  0  0  0
  182.5880  178.5520  141.4570 C   0  0  0  0  0  3  0  0  0  0  0  0
  181.3790  178.7340  142.1350 C   0  0  0  0  0  0  0  0  0  0  0  0
  182.5730  178.7620  144.2430 C   0  0  0  0  0  3  0  0  0  0  0  0
  183.7850  178.4740  142.1730 C   0  0  0  0  0  3  0  0  0  0  0  0
  183.7880  178.5870  143.5730 C   0  0  0  0  0  0  0  0  0  0  0  0
  181.3730  178.8440  143.5290 C   0  0  0  0  0  3  0  0  0  0  0  0
  179.1460  178.0060  141.9460 O   0  0  0  0  0  1  0  0  0  0  0  0
  180.1060  178.8390  141.3730 C   0  0  0  0  0  2  0  0  0  0  0  0
  1  8  1  0  0  0  0
  1  6  1  0  0  0  0
  2 12  1  0  0  0  0
  3 14  2  0  0  0  0
  3 10  1  0  0  0  0
  4 15  1  0  0  0  0
  4  8  2  0  0  0  0
  5  1  2  0  0  0  0
  7  4  1  0  0  0  0
  9  7  2  0  0  0  0
  9  5  1  0  0  0  0
 10 11  2  0  0  0  0
 11  2  1  0  0  0  0
 11  7  1  0  0  0  0
 12 15  2  0  0  0  0
 13 35  1  0  0  0  0
 13  2  2  0  0  0  0
 14 13  1  0  0  0  0
 16  3  1  0  0  0  0
 17 16  1  0  0  0  0
 18 16  2  0  0  0  0
 19 17  1  0  0  0  0
 20 19  2  0  0  0  0
 21 19  1  0  0  0  0
 22 25  1  0  0  0  0
 22 21  1  0  0  0  0
 23 28  1  0  0  0  0
 24 29  1  6  0  0  0
 24 26  1  0  0  0  0
 26 23  1  1  0  0  0
 26 22  1  0  0  0  0
 27 24  1  0  0  0  0
 27 26  1  0  0  0  0
 28 25  1  0  0  0  0
 29 33  1  0  0  0  0
 31 33  2  0  0  0  0
 32 30  1  1  0  0  0
 32 31  1  0  0  0  0
 34 30  1  1  0  0  0
 34 32  1  0  0  0  0
 34 29  1  0  0  0  0
 36 37  2  0  0  0  0
 36 39  1  0  0  0  0
 37 41  1  0  0  0  0
 39 40  2  0  0  0  0
 40 38  1  0  0  0  0
 40 35  1  0  0  0  0
 41 38  2  0  0  0  0
 43 42  1  0  0  0  0
 43 37  1  0  0  0  0
M  END
>  <MODEL>
2

>  <REMARK>
 VINA RESULT:     -10.7      3.985      6.150
  Name = 
  7 active torsions:
  status: ('A' for Active; 'I' for Inactive)
    1  A    between atoms: O_1  and  C_34
    2  A    between atoms: O_1  and  C_35
    3  A    between atoms: C_2  and  C_13
    4  A    between atoms: C_3  and  N_4
    5  A    between atoms: C_3  and  C_12
    6  A    between atoms: N_11  and  C_14
    7  A    between atoms: C_19  and  C_37
                            x       y       z     vdW  Elec       q    Type
                         _______ _______ _______ _____ _____    ______ ____

>  <TORSDO>
F 7

$$$$
=
 OpenBabel11042412523D

 43 50  0  0  1  0  0  0  0  0999 V2000
  190.7840  176.7750  146.7030 C   0  0  0  0  0  0  0  0  0  0  0  0
  188.6870  178.0260  142.2640 C   0  0  0  0  0  0  0  0  0  0  0  0
  185.9230  178.3040  142.7210 C   0  0  0  0  0  0  0  0  0  0  0  0
  190.4100  177.3270  144.3740 C   0  0  0  0  0  0  0  0  0  0  0  0
  189.4200  176.9240  146.9630 C   0  0  0  0  0  3  0  0  0  0  0  0
  191.6500  176.4260  147.7290 O   0  0  0  0  0  1  0  0  0  0  0  0
  189.0240  177.4790  144.6270 C   0  0  0  0  0  0  0  0  0  0  0  0
  191.2780  176.9770  145.4120 C   0  0  0  0  0  3  0  0  0  0  0  0
  188.5440  177.2740  145.9320 C   0  0  0  0  0  3  0  0  0  0  0  0
  186.7790  177.9710  143.7760 C   0  0  0  0  0  3  0  0  0  0  0  0
  188.1590  177.8260  143.5670 C   0  0  0  0  0  0  0  0  0  0  0  0
  190.0620  177.8720  142.0430 C   0  0  0  0  0  3  0  0  0  0  0  0
  187.8350  178.3780  141.2020 C   0  0  0  0  0  0  0  0  0  0  0  0
  186.4590  178.5030  141.4430 C   0  0  0  0  0  3  0  0  0  0  0  0
  190.9150  177.5240  143.0900 C   0  0  0  0  0  3  0  0  0  0  0  0
  184.4750  178.4360  142.9500 C   0  0  0  0  0  0  0  0  0  0  0  0
  183.5830  178.5440  141.8320 N   0  0  0  0  0  2  0  0  0  0  0  0
  184.0260  178.4560  144.1290 O   0  0  0  0  0  0  0  0  0  0  0  0
  182.1660  178.7210  141.9200 C   0  0  0  0  0  0  0  0  0  0  0  0
  181.5880  178.8160  143.0370 O   0  0  0  0  0  0  0  0  0  0  0  0
  181.3600  178.7690  140.6700 C   0  0  0  0  0  2  0  0  0  0  0  0
  182.1240  179.4230  139.6160 N   0  0  0  0  0  0  0  0  0  0  0  0
  181.2140  179.1570  137.3300 C   0  0  0  0  0  2  0  0  0  0  0  0
  182.6790  177.2250  138.4550 C   0  0  2  0  0  3  0  0  0  0  0  0
  181.3740  180.6240  139.2550 C   0  0  0  0  0  2  0  0  0  0  0  0
  182.0670  178.5830  138.4280 C   0  0  2  0  0  0  0  0  0  0  0  0
  183.3680  178.3450  137.9490 O   0  0  0  0  0  0  0  0  0  0  0  0
  181.0490  180.5910  137.7640 C   0  0  0  0  0  2  0  0  0  0  0  0
  182.1850  176.4070  137.3480 N   0  0  0  0  0  0  0  0  0  0  0  0
  184.1880  174.8970  137.4630 C   0  0  0  0  0  2  0  0  0  0  0  0
  181.8720  174.0180  137.3480 C   0  0  0  0  0  3  0  0  0  0  0  0
  183.1220  174.3190  136.5540 C   0  0  1  0  0  3  0  0  0  0  0  0
  181.3680  175.3320  137.9010 C   0  0  0  0  0  3  0  0  0  0  0  0
  183.3180  175.8210  136.6130 C   0  0  1  0  0  3  0  0  0  0  0  0
  188.3780  178.5610  139.9170 O   0  0  0  0  0  0  0  0  0  0  0  0
  186.7040  177.5080  136.7520 C   0  0  0  0  0  3  0  0  0  0  0  0
  187.4810  176.3940  136.4170 C   0  0  0  0  0  0  0  0  0  0  0  0
  188.8180  176.7360  138.4090 C   0  0  0  0  0  3  0  0  0  0  0  0
  186.9870  178.2330  137.9120 C   0  0  0  0  0  3  0  0  0  0  0  0
  188.0420  177.8470  138.7550 C   0  0  0  0  0  0  0  0  0  0  0  0
  188.5350  176.0060  137.2490 C   0  0  0  0  0  3  0  0  0  0  0  0
  187.1070  174.2520  135.5100 O   0  0  0  0  0  1  0  0  0  0  0  0
  187.1680  175.6090  135.1940 C   0  0  0  0  0  2  0  0  0  0  0  0
  1  5  1  0  0  0  0
  1  6  1  0  0  0  0
  2 11  1  0  0  0  0
  3 16  1  0  0  0  0
  3 10  1  0  0  0  0
  4  7  2  0  0  0  0
  4  8  1  0  0  0  0
  7  9  1  0  0  0  0
  8  1  2  0  0  0  0
  9  5  2  0  0  0  0
 11 10  2  0  0  0  0
 11  7  1  0  0  0  0
 12  2  1  0  0  0  0
 12 15  2  0  0  0  0
 13 14  1  0  0  0  0
 13  2  2  0  0  0  0
 14  3  2  0  0  0  0
 15  4  1  0  0  0  0
 16 18  2  0  0  0  0
 17 19  1  0  0  0  0
 17 16  1  0  0  0  0
 19 20  2  0  0  0  0
 21 19  1  0  0  0  0
 22 21  1  0  0  0  0
 23 28  1  0  0  0  0
 24 29  1  6  0  0  0
 25 22  1  0  0  0  0
 26 23  1  6  0  0  0
 26 24  1  0  0  0  0
 26 22  1  0  0  0  0
 27 26  1  0  0  0  0
 27 24  1  0  0  0  0
 28 25  1  0  0  0  0
 29 33  1  0  0  0  0
 31 33  2  0  0  0  0
 32 34  1  0  0  0  0
 32 31  1  1  0  0  0
 32 30  1  0  0  0  0
 34 29  1  0  0  0  0
 34 30  1  1  0  0  0
 35 13  1  0  0  0  0
 36 39  1  0  0  0  0
 37 36  2  0  0  0  0
 37 41  1  0  0  0  0
 38 40  1  0  0  0  0
 39 40  2  0  0  0  0
 40 35  1  0  0  0  0
 41 38  2  0  0  0  0
 43 42  1  0  0  0  0
 43 37  1  0  0  0  0
M  END
>  <MODEL>
3

>  <REMARK>
 VINA RESULT:     -10.4      1.768      5.300
  Name = 
  7 active torsions:
  status: ('A' for Active; 'I' for Inactive)
    1  A    between atoms: O_1  and  C_34
    2  A    between atoms: O_1  and  C_35
    3  A    between atoms: C_2  and  C_13
    4  A    between atoms: C_3  and  N_4
    5  A    between atoms: C_3  and  C_12
    6  A    between atoms: N_11  and  C_14
    7  A    between atoms: C_19  and  C_37
                            x       y       z     vdW  Elec       q    Type
                         _______ _______ _______ _____ _____    ______ ____

>  <TORSDO>
F 7

$$$$
=
 OpenBabel11042412523D

 43 50  0  0  1  0  0  0  0  0999 V2000
  187.8840  177.6080  147.7130 C   0  0  0  0  0  0  0  0  0  0  0  0
  186.5790  178.4890  142.8980 C   0  0  0  0  0  0  0  0  0  0  0  0
  188.7570  177.6900  141.3060 C   0  0  0  0  0  0  0  0  0  0  0  0
  186.7020  178.2480  145.6970 C   0  0  0  0  0  0  0  0  0  0  0  0
  188.9730  177.1850  146.9470 C   0  0  0  0  0  3  0  0  0  0  0  0
  187.9280  177.5020  149.0950 O   0  0  0  0  0  1  0  0  0  0  0  0
  187.8030  177.8240  144.9110 C   0  0  0  0  0  0  0  0  0  0  0  0
  186.7510  178.1370  147.0890 C   0  0  0  0  0  3  0  0  0  0  0  0
  188.9340  177.2930  145.5540 C   0  0  0  0  0  3  0  0  0  0  0  0
  188.8170  177.5540  142.6970 C   0  0  0  0  0  3  0  0  0  0  0  0
  187.7420  177.9490  143.5070 C   0  0  0  0  0  0  0  0  0  0  0  0
  185.5040  178.8980  143.6990 C   0  0  0  0  0  3  0  0  0  0  0  0
  186.5040  178.6130  141.4990 C   0  0  0  0  0  0  0  0  0  0  0  0
  187.6020  178.2200  140.7200 C   0  0  0  0  0  3  0  0  0  0  0  0
  185.5670  178.7790  145.0870 C   0  0  0  0  0  3  0  0  0  0  0  0
  189.9000  177.2870  140.4690 C   0  0  0  0  0  0  0  0  0  0  0  0
  189.6680  176.6490  139.2050 N   0  0  0  0  0  2  0  0  0  0  0  0
  191.0780  177.5030  140.8680 O   0  0  0  0  0  0  0  0  0  0  0  0
  190.6870  176.1710  138.3210 C   0  0  0  0  0  0  0  0  0  0  0  0
  191.9080  176.2690  138.6210 O   0  0  0  0  0  0  0  0  0  0  0  0
  190.2960  175.5710  137.0170 C   0  0  0  0  0  2  0  0  0  0  0  0
  190.2430  174.1200  137.1390 N   0  0  0  0  0  0  0  0  0  0  0  0
  189.3760  172.9230  135.1540 C   0  0  0  0  0  2  0  0  0  0  0  0
  187.7070  174.0490  136.9120 C   0  0  2  0  0  3  0  0  0  0  0  0
  191.3670  173.6050  136.3600 C   0  0  0  0  0  2  0  0  0  0  0  0
  189.0600  173.6500  136.4320 C   0  0  2  0  0  0  0  0  0  0  0  0
  188.2970  172.8230  137.2770 O   0  0  0  0  0  0  0  0  0  0  0  0
  190.8490  172.6380  135.2990 C   0  0  0  0  0  2  0  0  0  0  0  0
  186.6980  173.8240  135.8780 N   0  0  0  0  0  0  0  0  0  0  0  0
  184.8910  173.5120  137.5930 C   0  0  0  0  0  2  0  0  0  0  0  0
  184.6070  174.9940  135.6240 C   0  0  0  0  0  3  0  0  0  0  0  0
  184.3050  173.6300  136.2000 C   0  0  1  0  0  3  0  0  0  0  0  0
  186.1110  175.1120  135.5220 C   0  0  0  0  0  3  0  0  0  0  0  0
  185.6400  172.9380  136.3920 C   0  0  1  0  0  3  0  0  0  0  0  0
  185.3460  179.1600  140.9170 O   0  0  0  0  0  0  0  0  0  0  0  0
  183.6260  177.8780  137.8630 C   0  0  0  0  0  3  0  0  0  0  0  0
  182.6250  177.0970  138.4500 C   0  0  0  0  0  0  0  0  0  0  0  0
  183.4400  177.7120  140.6470 C   0  0  0  0  0  3  0  0  0  0  0  0
  184.5320  178.5710  138.6690 C   0  0  0  0  0  3  0  0  0  0  0  0
  184.4410  178.5010  140.0690 C   0  0  0  0  0  0  0  0  0  0  0  0
  182.5300  177.0190  139.8430 C   0  0  0  0  0  3  0  0  0  0  0  0
  181.5580  175.0450  138.0020 O   0  0  0  0  0  1  0  0  0  0  0  0
  181.6460  176.3750  137.5940 C   0  0  0  0  0  2  0  0  0  0  0  0
  1  6  1  0  0  0  0
  2 11  1  0  0  0  0
  2 12  1  0  0  0  0
  3 10  1  0  0  0  0
  4  8  2  0  0  0  0
  5  1  2  0  0  0  0
  7  9  2  0  0  0  0
  7  4  1  0  0  0  0
  8  1  1  0  0  0  0
  9  5  1  0  0  0  0
 10 11  2  0  0  0  0
 11  7  1  0  0  0  0
 12 15  2  0  0  0  0
 13  2  2  0  0  0  0
 14  3  2  0  0  0  0
 14 13  1  0  0  0  0
 15  4  1  0  0  0  0
 16 18  2  0  0  0  0
 16  3  1  0  0  0  0
 17 16  1  0  0  0  0
 19 20  2  0  0  0  0
 19 17  1  0  0  0  0
 21 22  1  0  0  0  0
 21 19  1  0  0  0  0
 23 28  1  0  0  0  0
 24 29  1  6  0  0  0
 24 27  1  0  0  0  0
 25 22  1  0  0  0  0
 26 23  1  6  0  0  0
 26 24  1  0  0  0  0
 26 22  1  0  0  0  0
 26 27  1  0  0  0  0
 28 25  1  0  0  0  0
 29 34  1  0  0  0  0
 32 31  1  6  0  0  0
 32 34  1  0  0  0  0
 32 30  1  0  0  0  0
 33 31  2  0  0  0  0
 33 29  1  0  0  0  0
 34 30  1  1  0  0  0
 35 13  1  0  0  0  0
 36 37  2  0  0  0  0
 36 39  1  0  0  0  0
 37 41  1  0  0  0  0
 39 40  2  0  0  0  0
 40 38  1  0  0  0  0
 40 35  1  0  0  0  0
 41 38  2  0  0  0  0
 43 42  1  0  0  0  0
 43 37  1  0  0  0  0
M  END
>  <MODEL>
4

>  <REMARK>
 VINA RESULT:     -10.3      2.680      3.970
  Name = 
  7 active torsions:
  status: ('A' for Active; 'I' for Inactive)
    1  A    between atoms: O_1  and  C_34
    2  A    between atoms: O_1  and  C_35
    3  A    between atoms: C_2  and  C_13
    4  A    between atoms: C_3  and  N_4
    5  A    between atoms: C_3  and  C_12
    6  A    between atoms: N_11  and  C_14
    7  A    between atoms: C_19  and  C_37
                            x       y       z     vdW  Elec       q    Type
                         _______ _______ _______ _____ _____    ______ ____

>  <TORSDO>
F 7

$$$$
=
 OpenBabel11042412523D

 43 50  0  0  1  0  0  0  0  0999 V2000
  180.0700  175.0360  137.4760 C   0  0  0  0  0  0  0  0  0  0  0  0
  184.1920  177.6770  138.7800 C   0  0  0  0  0  0  0  0  0  0  0  0
  183.9720  178.2200  141.5330 C   0  0  0  0  0  0  0  0  0  0  0  0
  182.1800  176.2270  137.4550 C   0  0  0  0  0  0  0  0  0  0  0  0
  179.9430  175.2740  138.8470 C   0  0  0  0  0  3  0  0  0  0  0  0
  179.0850  174.3270  136.8030 O   0  0  0  0  0  1  0  0  0  0  0  0
  182.0600  176.4760  138.8450 C   0  0  0  0  0  0  0  0  0  0  0  0
  181.1860  175.5110  136.7820 C   0  0  0  0  0  3  0  0  0  0  0  0
  180.9310  175.9900  139.5280 C   0  0  0  0  0  3  0  0  0  0  0  0
  182.9770  177.4860  140.8800 C   0  0  0  0  0  3  0  0  0  0  0  0
  183.0680  177.2070  139.5090 C   0  0  0  0  0  0  0  0  0  0  0  0
  184.2860  177.4150  137.4070 C   0  0  0  0  0  3  0  0  0  0  0  0
  185.2050  178.4010  139.4330 C   0  0  0  0  0  0  0  0  0  0  0  0
  185.0770  178.6730  140.8020 C   0  0  0  0  0  3  0  0  0  0  0  0
  183.2870  176.6970  136.7500 C   0  0  0  0  0  3  0  0  0  0  0  0
  183.8550  178.5200  142.9690 C   0  0  0  0  0  0  0  0  0  0  0  0
  185.0400  178.6870  143.7610 N   0  0  0  0  0  2  0  0  0  0  0  0
  182.7140  178.6270  143.4980 O   0  0  0  0  0  0  0  0  0  0  0  0
  185.0640  178.9350  145.1710 C   0  0  0  0  0  0  0  0  0  0  0  0
  183.9960  179.0080  145.8380 O   0  0  0  0  0  0  0  0  0  0  0  0
  186.3710  179.1340  145.8520 C   0  0  0  0  0  2  0  0  0  0  0  0
  186.7670  177.9040  146.5260 N   0  0  0  0  0  0  0  0  0  0  0  0
  189.0520  177.9100  147.4790 C   0  0  0  0  0  2  0  0  0  0  0  0
  188.6540  177.4400  144.8780 C   0  0  2  0  0  3  0  0  0  0  0  0
  186.6890  178.1810  147.9590 C   0  0  0  0  0  2  0  0  0  0  0  0
  188.1850  177.6860  146.2700 C   0  0  2  0  0  0  0  0  0  0  0  0
  188.3840  176.3850  145.7730 O   0  0  0  0  0  0  0  0  0  0  0  0
  188.0470  177.9130  148.6030 C   0  0  0  0  0  2  0  0  0  0  0  0
  190.0980  177.6400  144.7690 N   0  0  0  0  0  0  0  0  0  0  0  0
  190.2670  175.9950  142.8810 C   0  0  0  0  0  2  0  0  0  0  0  0
  191.3270  178.2360  142.7850 C   0  0  0  0  0  3  0  0  0  0  0  0
  191.5620  176.7660  143.0490 C   0  0  1  0  0  3  0  0  0  0  0  0
  190.3410  178.7230  143.8230 C   0  0  0  0  0  3  0  0  0  0  0  0
  190.7390  176.4120  144.2720 C   0  0  1  0  0  3  0  0  0  0  0  0
  186.3060  178.8670  138.6890 O   0  0  0  0  0  0  0  0  0  0  0  0
  189.6410  177.4300  139.5500 C   0  0  0  0  0  3  0  0  0  0  0  0
  190.0460  176.9680  138.2940 C   0  0  0  0  0  0  0  0  0  0  0  0
  187.9770  177.7850  137.3330 C   0  0  0  0  0  3  0  0  0  0  0  0
  188.4060  178.0660  139.6950 C   0  0  0  0  0  3  0  0  0  0  0  0
  187.5660  178.2570  138.5850 C   0  0  0  0  0  0  0  0  0  0  0  0
  189.2140  177.1500  137.1840 C   0  0  0  0  0  3  0  0  0  0  0  0
  191.2390  174.9370  138.3430 O   0  0  0  0  0  1  0  0  0  0  0  0
  191.3690  176.3100  138.1340 C   0  0  0  0  0  2  0  0  0  0  0  0
  1  5  1  0  0  0  0
  2 13  2  0  0  0  0
  2 11  1  0  0  0  0
  3 16  1  0  0  0  0
  4  7  2  0  0  0  0
  5  9  2  0  0  0  0
  6  1  1  0  0  0  0
  7 11  1  0  0  0  0
  7  9  1  0  0  0  0
  8  4  1  0  0  0  0
  8  1  2  0  0  0  0
 10  3  1  0  0  0  0
 11 10  2  0  0  0  0
 12  2  1  0  0  0  0
 13 14  1  0  0  0  0
 14  3  2  0  0  0  0
 15 12  2  0  0  0  0
 15  4  1  0  0  0  0
 16 18  2  0  0  0  0
 16 17  1  0  0  0  0
 17 19  1  0  0  0  0
 19 20  2  0  0  0  0
 19 21  1  0  0  0  0
 21 22  1  0  0  0  0
 22 25  1  0  0  0  0
 23 28  1  0  0  0  0
 24 29  1  1  0  0  0
 24 27  1  0  0  0  0
 24 26  1  0  0  0  0
 25 28  1  0  0  0  0
 26 22  1  0  0  0  0
 26 23  1  1  0  0  0
 27 26  1  0  0  0  0
 30 32  1  0  0  0  0
 31 33  2  0  0  0  0
 32 31  1  6  0  0  0
 32 34  1  0  0  0  0
 33 29  1  0  0  0  0
 34 30  1  6  0  0  0
 34 29  1  0  0  0  0
 35 13  1  0  0  0  0
 36 39  1  0  0  0  0
 37 36  2  0  0  0  0
 38 40  1  0  0  0  0
 40 35  1  0  0  0  0
 40 39  2  0  0  0  0
 41 38  2  0  0  0  0
 41 37  1  0  0  0  0
 43 37  1  0  0  0  0
 43 42  1  0  0  0  0
M  END
>  <MODEL>
5

>  <REMARK>
 VINA RESULT:      -9.8      2.736     10.035
  Name = 
  7 active torsions:
  status: ('A' for Active; 'I' for Inactive)
    1  A    between atoms: O_1  and  C_34
    2  A    between atoms: O_1  and  C_35
    3  A    between atoms: C_2  and  C_13
    4  A    between atoms: C_3  and  N_4
    5  A    between atoms: C_3  and  C_12
    6  A    between atoms: N_11  and  C_14
    7  A    between atoms: C_19  and  C_37
                            x       y       z     vdW  Elec       q    Type
                         _______ _______ _______ _____ _____    ______ ____

>  <TORSDO>
F 7

$$$$
=
 OpenBabel11042412523D

 43 50  0  0  1  0  0  0  0  0999 V2000
  189.6690  177.5360  138.3020 C   0  0  0  0  0  0  0  0  0  0  0  0
  184.7270  178.3390  139.0780 C   0  0  0  0  0  0  0  0  0  0  0  0
  184.3750  178.6140  141.8560 C   0  0  0  0  0  0  0  0  0  0  0  0
  187.2860  177.8640  138.0120 C   0  0  0  0  0  0  0  0  0  0  0  0
  189.5270  177.6870  139.6830 C   0  0  0  0  0  3  0  0  0  0  0  0
  190.9220  177.2960  137.7570 O   0  0  0  0  0  1  0  0  0  0  0  0
  187.1310  178.0180  139.4120 C   0  0  0  0  0  0  0  0  0  0  0  0
  188.5510  177.6250  137.4680 C   0  0  0  0  0  3  0  0  0  0  0  0
  188.2670  177.9260  140.2360 C   0  0  0  0  0  3  0  0  0  0  0  0
  185.6520  178.3930  141.3290 C   0  0  0  0  0  3  0  0  0  0  0  0
  185.8470  178.2510  139.9470 C   0  0  0  0  0  0  0  0  0  0  0  0
  184.9100  178.1850  137.6970 C   0  0  0  0  0  3  0  0  0  0  0  0
  183.4440  178.5780  139.5990 C   0  0  0  0  0  0  0  0  0  0  0  0
  183.2820  178.7020  140.9870 C   0  0  0  0  0  3  0  0  0  0  0  0
  186.1790  177.9490  137.1690 C   0  0  0  0  0  3  0  0  0  0  0  0
  184.1830  178.7450  143.3100 C   0  0  0  0  0  0  0  0  0  0  0  0
  185.3210  178.9090  144.1680 N   0  0  0  0  0  2  0  0  0  0  0  0
  183.0190  178.7090  143.7950 O   0  0  0  0  0  0  0  0  0  0  0  0
  185.2740  179.0020  145.5950 C   0  0  0  0  0  0  0  0  0  0  0  0
  184.1800  178.9230  146.2180 O   0  0  0  0  0  0  0  0  0  0  0  0
  186.5360  179.2200  146.3520 C   0  0  0  0  0  2  0  0  0  0  0  0
  186.9840  177.9610  146.9340 N   0  0  0  0  0  0  0  0  0  0  0  0
  189.3290  177.9390  147.7270 C   0  0  0  0  0  2  0  0  0  0  0  0
  188.7550  177.5950  145.1400 C   0  0  2  0  0  3  0  0  0  0  0  0
  187.0040  178.1660  148.3810 C   0  0  0  0  0  2  0  0  0  0  0  0
  188.3820  177.7680  146.5710 C   0  0  2  0  0  0  0  0  0  0  0  0
  188.5530  176.4950  145.9970 O   0  0  0  0  0  0  0  0  0  0  0  0
  188.4040  177.8780  148.9160 C   0  0  0  0  0  2  0  0  0  0  0  0
  190.1870  177.8130  144.9420 N   0  0  0  0  0  0  0  0  0  0  0  0
  190.3040  176.0110  143.1970 C   0  0  0  0  0  2  0  0  0  0  0  0
  191.3050  178.2550  142.8550 C   0  0  0  0  0  3  0  0  0  0  0  0
  191.5860  176.8190  143.2330 C   0  0  1  0  0  3  0  0  0  0  0  0
  190.3590  178.8130  143.8940 C   0  0  0  0  0  3  0  0  0  0  0  0
  190.8320  176.5580  144.5220 C   0  0  1  0  0  3  0  0  0  0  0  0
  182.3470  178.6500  138.7200 O   0  0  0  0  0  0  0  0  0  0  0  0
  181.4410  182.2120  138.0730 C   0  0  0  0  0  3  0  0  0  0  0  0
  180.7950  182.0850  136.8390 C   0  0  0  0  0  0  0  0  0  0  0  0
  181.1800  179.6930  136.8900 C   0  0  0  0  0  3  0  0  0  0  0  0
  181.9560  181.0810  138.7100 C   0  0  0  0  0  3  0  0  0  0  0  0
  181.8220  179.8100  138.1280 C   0  0  0  0  0  0  0  0  0  0  0  0
  180.6600  180.8240  136.2500 C   0  0  0  0  0  3  0  0  0  0  0  0
  181.1820  184.3000  136.1370 O   0  0  0  0  0  1  0  0  0  0  0  0
  180.2270  183.2850  136.1690 C   0  0  0  0  0  2  0  0  0  0  0  0
  1  5  1  0  0  0  0
  2 13  2  0  0  0  0
  2 11  1  0  0  0  0
  3 16  1  0  0  0  0
  4  7  2  0  0  0  0
  5  9  2  0  0  0  0
  6  1  1  0  0  0  0
  7 11  1  0  0  0  0
  7  9  1  0  0  0  0
  8  4  1  0  0  0  0
  8  1  2  0  0  0  0
 10  3  1  0  0  0  0
 11 10  2  0  0  0  0
 12  2  1  0  0  0  0
 13 14  1  0  0  0  0
 14  3  2  0  0  0  0
 15 12  2  0  0  0  0
 15  4  1  0  0  0  0
 16 18  2  0  0  0  0
 16 17  1  0  0  0  0
 17 19  1  0  0  0  0
 19 20  2  0  0  0  0
 19 21  1  0  0  0  0
 21 22  1  0  0  0  0
 22 25  1  0  0  0  0
 23 28  1  0  0  0  0
 24 29  1  1  0  0  0
 24 27  1  0  0  0  0
 24 26  1  0  0  0  0
 25 28  1  0  0  0  0
 26 22  1  0  0  0  0
 26 23  1  1  0  0  0
 27 26  1  0  0  0  0
 30 32  1  0  0  0  0
 31 33  2  0  0  0  0
 32 31  1  6  0  0  0
 32 34  1  0  0  0  0
 33 29  1  0  0  0  0
 34 30  1  6  0  0  0
 34 29  1  0  0  0  0
 35 13  1  0  0  0  0
 36 39  1  0  0  0  0
 37 36  2  0  0  0  0
 38 40  1  0  0  0  0
 40 39  2  0  0  0  0
 40 35  1  0  0  0  0
 41 37  1  0  0  0  0
 41 38  2  0  0  0  0
 42 43  1  0  0  0  0
 43 37  1  0  0  0  0
M  END
>  <MODEL>
6

>  <REMARK>
 VINA RESULT:      -9.8      3.152      8.591
  Name = 
  7 active torsions:
  status: ('A' for Active; 'I' for Inactive)
    1  A    between atoms: O_1  and  C_34
    2  A    between atoms: O_1  and  C_35
    3  A    between atoms: C_2  and  C_13
    4  A    between atoms: C_3  and  N_4
    5  A    between atoms: C_3  and  C_12
    6  A    between atoms: N_11  and  C_14
    7  A    between atoms: C_19  and  C_37
                            x       y       z     vdW  Elec       q    Type
                         _______ _______ _______ _____ _____    ______ ____

>  <TORSDO>
F 7

$$$$
=
 OpenBabel11042412523D

 43 50  0  0  1  0  0  0  0  0999 V2000
  188.3740  177.3620  147.0960 C   0  0  0  0  0  0  0  0  0  0  0  0
  187.5380  178.2650  142.1820 C   0  0  0  0  0  0  0  0  0  0  0  0
  184.7520  178.4980  141.8610 C   0  0  0  0  0  0  0  0  0  0  0  0
  188.6360  177.7510  144.7200 C   0  0  0  0  0  0  0  0  0  0  0  0
  186.9890  177.4920  146.9710 C   0  0  0  0  0  3  0  0  0  0  0  0
  188.9340  177.1030  148.3390 O   0  0  0  0  0  1  0  0  0  0  0  0
  187.2320  177.8820  144.5810 C   0  0  0  0  0  0  0  0  0  0  0  0
  189.1950  177.4920  145.9740 C   0  0  0  0  0  3  0  0  0  0  0  0
  186.4200  177.7500  145.7210 C   0  0  0  0  0  3  0  0  0  0  0  0
  185.2950  178.2580  143.1270 C   0  0  0  0  0  3  0  0  0  0  0  0
  186.6810  178.1360  143.3070 C   0  0  0  0  0  0  0  0  0  0  0  0
  188.9230  178.1330  142.3490 C   0  0  0  0  0  3  0  0  0  0  0  0
  187.0010  178.5240  140.9090 C   0  0  0  0  0  0  0  0  0  0  0  0
  185.6100  178.6280  140.7630 C   0  0  0  0  0  3  0  0  0  0  0  0
  189.4670  177.8770  143.6070 C   0  0  0  0  0  3  0  0  0  0  0  0
  183.2940  178.6070  141.6850 C   0  0  0  0  0  0  0  0  0  0  0  0
  182.7120  178.3580  140.3980 N   0  0  0  0  0  2  0  0  0  0  0  0
  182.5650  178.9200  142.6660 O   0  0  0  0  0  0  0  0  0  0  0  0
  181.3200  178.4720  140.0840 C   0  0  0  0  0  0  0  0  0  0  0  0
  180.4830  178.8340  140.9560 O   0  0  0  0  0  0  0  0  0  0  0  0
  180.8530  178.1350  138.7130 C   0  0  0  0  0  2  0  0  0  0  0  0
  181.8090  178.6300  137.7310 N   0  0  0  0  0  0  0  0  0  0  0  0
  181.6080  177.6450  135.4690 C   0  0  0  0  0  2  0  0  0  0  0  0
  182.8900  176.3440  137.4190 C   0  0  2  0  0  3  0  0  0  0  0  0
  181.0710  179.5520  136.8710 C   0  0  0  0  0  2  0  0  0  0  0  0
  182.1740  177.5230  136.8570 C   0  0  2  0  0  0  0  0  0  0  0  0
  183.5740  177.4060  136.7940 O   0  0  0  0  0  0  0  0  0  0  0  0
  181.1800  179.0900  135.4200 C   0  0  0  0  0  2  0  0  0  0  0  0
  182.8130  175.2020  136.5100 N   0  0  0  0  0  0  0  0  0  0  0  0
  184.7940  174.1020  137.5910 C   0  0  0  0  0  2  0  0  0  0  0  0
  182.6900  172.8760  137.1230 C   0  0  0  0  0  3  0  0  0  0  0  0
  184.0950  173.1510  136.6400 C   0  0  1  0  0  3  0  0  0  0  0  0
  181.9480  174.1930  137.1130 C   0  0  0  0  0  3  0  0  0  0  0  0
  184.1540  174.6290  136.3080 C   0  0  1  0  0  3  0  0  0  0  0  0
  187.8680  178.6380  139.8060 O   0  0  0  0  0  0  0  0  0  0  0  0
  188.9490  175.8850  137.5290 C   0  0  0  0  0  3  0  0  0  0  0  0
  188.0010  176.0180  136.5100 C   0  0  0  0  0  0  0  0  0  0  0  0
  187.0020  177.8830  137.6890 C   0  0  0  0  0  3  0  0  0  0  0  0
  188.9200  176.7500  138.6260 C   0  0  0  0  0  3  0  0  0  0  0  0
  187.9500  177.7630  138.7110 C   0  0  0  0  0  0  0  0  0  0  0  0
  187.0300  177.0210  136.5890 C   0  0  0  0  0  3  0  0  0  0  0  0
  187.7960  173.8010  135.7390 O   0  0  0  0  0  1  0  0  0  0  0  0
  188.0430  175.1110  135.3320 C   0  0  0  0  0  2  0  0  0  0  0  0
  1  6  1  0  0  0  0
  2 12  1  0  0  0  0
  2 11  1  0  0  0  0
  3 10  1  0  0  0  0
  4  8  1  0  0  0  0
  5  1  1  0  0  0  0
  7  4  2  0  0  0  0
  7  9  1  0  0  0  0
  8  1  2  0  0  0  0
  9  5  2  0  0  0  0
 10 11  2  0  0  0  0
 11  7  1  0  0  0  0
 12 15  2  0  0  0  0
 13  2  2  0  0  0  0
 14 13  1  0  0  0  0
 14  3  2  0  0  0  0
 15  4  1  0  0  0  0
 16  3  1  0  0  0  0
 16 18  2  0  0  0  0
 17 16  1  0  0  0  0
 19 17  1  0  0  0  0
 19 20  2  0  0  0  0
 21 19  1  0  0  0  0
 22 21  1  0  0  0  0
 24 29  1  6  0  0  0
 25 22  1  0  0  0  0
 26 23  1  6  0  0  0
 26 24  1  0  0  0  0
 26 22  1  0  0  0  0
 27 26  1  0  0  0  0
 27 24  1  0  0  0  0
 28 23  1  0  0  0  0
 28 25  1  0  0  0  0
 29 33  1  0  0  0  0
 32 31  1  1  0  0  0
 32 30  1  0  0  0  0
 33 31  2  0  0  0  0
 34 29  1  0  0  0  0
 34 32  1  0  0  0  0
 34 30  1  1  0  0  0
 35 13  1  0  0  0  0
 36 39  1  0  0  0  0
 37 41  1  0  0  0  0
 37 36  2  0  0  0  0
 38 40  1  0  0  0  0
 39 40  2  0  0  0  0
 40 35  1  0  0  0  0
 41 38  2  0  0  0  0
 43 42  1  0  0  0  0
 43 37  1  0  0  0  0
M  END
>  <MODEL>
7

>  <REMARK>
 VINA RESULT:      -9.8      1.856      5.418
  Name = 
  7 active torsions:
  status: ('A' for Active; 'I' for Inactive)
    1  A    between atoms: O_1  and  C_34
    2  A    between atoms: O_1  and  C_35
    3  A    between atoms: C_2  and  C_13
    4  A    between atoms: C_3  and  N_4
    5  A    between atoms: C_3  and  C_12
    6  A    between atoms: N_11  and  C_14
    7  A    between atoms: C_19  and  C_37
                            x       y       z     vdW  Elec       q    Type
                         _______ _______ _______ _____ _____    ______ ____

>  <TORSDO>
F 7

$$$$
=
 OpenBabel11042412523D

 43 50  0  0  1  0  0  0  0  0999 V2000
  187.7070  177.6290  147.3750 C   0  0  0  0  0  0  0  0  0  0  0  0
  188.1670  178.1270  142.3540 C   0  0  0  0  0  0  0  0  0  0  0  0
  185.5610  178.3590  141.3180 C   0  0  0  0  0  0  0  0  0  0  0  0
  188.5730  177.8160  145.1200 C   0  0  0  0  0  0  0  0  0  0  0  0
  186.4030  177.7610  146.8910 C   0  0  0  0  0  3  0  0  0  0  0  0
  187.9280  177.4700  148.7350 O   0  0  0  0  0  1  0  0  0  0  0  0
  187.2540  177.9490  144.6180 C   0  0  0  0  0  0  0  0  0  0  0  0
  188.7890  177.6580  146.4910 C   0  0  0  0  0  3  0  0  0  0  0  0
  186.1760  177.9190  145.5220 C   0  0  0  0  0  3  0  0  0  0  0  0
  185.7590  178.2200  142.6960 C   0  0  0  0  0  3  0  0  0  0  0  0
  187.0510  178.1010  143.2300 C   0  0  0  0  0  0  0  0  0  0  0  0
  189.4610  177.9970  142.8770 C   0  0  0  0  0  3  0  0  0  0  0  0
  187.9770  178.2850  140.9700 C   0  0  0  0  0  0  0  0  0  0  0  0
  186.6720  178.3890  140.4680 C   0  0  0  0  0  3  0  0  0  0  0  0
  189.6610  177.8410  144.2490 C   0  0  0  0  0  3  0  0  0  0  0  0
  184.1990  178.4660  140.7690 C   0  0  0  0  0  0  0  0  0  0  0  0
  183.4880  177.2790  140.3910 N   0  0  0  0  0  2  0  0  0  0  0  0
  183.6640  179.6010  140.6330 O   0  0  0  0  0  0  0  0  0  0  0  0
  182.1820  177.2490  139.8070 C   0  0  0  0  0  0  0  0  0  0  0  0
  181.5530  178.3140  139.5600 O   0  0  0  0  0  0  0  0  0  0  0  0
  181.5480  175.9370  139.5090 C   0  0  0  0  0  2  0  0  0  0  0  0
  181.0190  175.9420  138.1510 N   0  0  0  0  0  0  0  0  0  0  0  0
  181.0770  173.7590  136.9860 C   0  0  0  0  0  2  0  0  0  0  0  0
  183.2590  175.2950  137.1230 C   0  0  2  0  0  3  0  0  0  0  0  0
  179.6980  175.3230  138.2250 C   0  0  0  0  0  2  0  0  0  0  0  0
  181.8140  175.0170  137.3530 C   0  0  2  0  0  0  0  0  0  0  0  0
  182.2690  175.6620  136.1890 O   0  0  0  0  0  0  0  0  0  0  0  0
  179.6440  174.1230  137.2830 C   0  0  0  0  0  2  0  0  0  0  0  0
  183.9560  174.0960  136.6610 N   0  0  0  0  0  0  0  0  0  0  0  0
  185.9200  175.4430  135.8660 C   0  0  0  0  0  2  0  0  0  0  0  0
  186.1860  173.4040  137.2540 C   0  0  0  0  0  3  0  0  0  0  0  0
  186.2340  173.9600  135.8490 C   0  0  1  0  0  3  0  0  0  0  0  0
  184.7720  173.5880  137.7580 C   0  0  0  0  0  3  0  0  0  0  0  0
  184.8300  174.4300  135.5240 C   0  0  1  0  0  3  0  0  0  0  0  0
  189.0980  178.2980  140.1180 O   0  0  0  0  0  0  0  0  0  0  0  0
  189.0950  178.3030  136.3860 C   0  0  0  0  0  3  0  0  0  0  0  0
  189.2960  176.9420  136.1350 C   0  0  0  0  0  0  0  0  0  0  0  0
  189.3470  176.5140  138.5190 C   0  0  0  0  0  3  0  0  0  0  0  0
  189.0220  178.7660  137.7020 C   0  0  0  0  0  3  0  0  0  0  0  0
  189.1390  177.8730  138.7810 C   0  0  0  0  0  0  0  0  0  0  0  0
  189.4170  176.0470  137.2020 C   0  0  0  0  0  3  0  0  0  0  0  0
  189.4870  175.0570  134.7350 O   0  0  0  0  0  1  0  0  0  0  0  0
  189.3530  176.4450  134.7340 C   0  0  0  0  0  2  0  0  0  0  0  0
  1  6  1  0  0  0  0
  2 12  1  0  0  0  0
  2 11  1  0  0  0  0
  3 10  1  0  0  0  0
  4  8  1  0  0  0  0
  5  1  1  0  0  0  0
  7  4  2  0  0  0  0
  7  9  1  0  0  0  0
  8  1  2  0  0  0  0
  9  5  2  0  0  0  0
 10 11  2  0  0  0  0
 11  7  1  0  0  0  0
 12 15  2  0  0  0  0
 13  2  2  0  0  0  0
 14 13  1  0  0  0  0
 14  3  2  0  0  0  0
 15  4  1  0  0  0  0
 16  3  1  0  0  0  0
 17 16  1  0  0  0  0
 18 16  2  0  0  0  0
 19 17  1  0  0  0  0
 20 19  2  0  0  0  0
 21 19  1  0  0  0  0
 22 25  1  0  0  0  0
 22 21  1  0  0  0  0
 23 28  1  0  0  0  0
 24 29  1  6  0  0  0
 24 26  1  0  0  0  0
 26 23  1  6  0  0  0
 26 22  1  0  0  0  0
 27 24  1  0  0  0  0
 27 26  1  0  0  0  0
 28 25  1  0  0  0  0
 29 33  1  0  0  0  0
 31 33  2  0  0  0  0
 32 30  1  1  0  0  0
 32 31  1  0  0  0  0
 34 32  1  0  0  0  0
 34 30  1  1  0  0  0
 34 29  1  0  0  0  0
 35 13  1  0  0  0  0
 36 39  1  0  0  0  0
 37 36  2  0  0  0  0
 37 41  1  0  0  0  0
 38 40  1  0  0  0  0
 39 40  2  0  0  0  0
 40 35  1  0  0  0  0
 41 38  2  0  0  0  0
 43 42  1  0  0  0  0
 43 37  1  0  0  0  0
M  END
>  <MODEL>
8

>  <REMARK>
 VINA RESULT:      -9.4      2.160      5.866
  Name = 
  7 active torsions:
  status: ('A' for Active; 'I' for Inactive)
    1  A    between atoms: O_1  and  C_34
    2  A    between atoms: O_1  and  C_35
    3  A    between atoms: C_2  and  C_13
    4  A    between atoms: C_3  and  N_4
    5  A    between atoms: C_3  and  C_12
    6  A    between atoms: N_11  and  C_14
    7  A    between atoms: C_19  and  C_37
                            x       y       z     vdW  Elec       q    Type
                         _______ _______ _______ _____ _____    ______ ____

>  <TORSDO>
F 7

$$$$
=
 OpenBabel11042412523D

 43 50  0  0  1  0  0  0  0  0999 V2000
  188.3360  177.4080  146.9420 C   0  0  0  0  0  0  0  0  0  0  0  0
  185.8240  178.5460  142.6930 C   0  0  0  0  0  0  0  0  0  0  0  0
  187.6440  178.2460  140.5680 C   0  0  0  0  0  0  0  0  0  0  0  0
  186.6380  178.0540  145.3390 C   0  0  0  0  0  0  0  0  0  0  0  0
  189.2560  177.2320  145.9060 C   0  0  0  0  0  3  0  0  0  0  0  0
  188.7200  177.1750  148.2550 O   0  0  0  0  0  1  0  0  0  0  0  0
  187.5640  177.8810  144.2800 C   0  0  0  0  0  0  0  0  0  0  0  0
  187.0310  177.8170  146.6590 C   0  0  0  0  0  3  0  0  0  0  0  0
  188.8740  177.4680  144.5820 C   0  0  0  0  0  3  0  0  0  0  0  0
  188.0490  177.9860  141.8810 C   0  0  0  0  0  3  0  0  0  0  0  0
  187.1570  178.1320  142.9530 C   0  0  0  0  0  0  0  0  0  0  0  0
  184.9280  178.7070  143.7590 C   0  0  0  0  0  3  0  0  0  0  0  0
  185.4040  178.7930  141.3740 C   0  0  0  0  0  0  0  0  0  0  0  0
  186.3260  178.6490  140.3260 C   0  0  0  0  0  3  0  0  0  0  0  0
  185.3330  178.4640  145.0710 C   0  0  0  0  0  3  0  0  0  0  0  0
  188.5960  178.1060  139.4530 C   0  0  0  0  0  0  0  0  0  0  0  0
  189.0970  176.8070  139.1040 N   0  0  0  0  0  2  0  0  0  0  0  0
  188.9680  179.1270  138.8120 O   0  0  0  0  0  0  0  0  0  0  0  0
  190.0560  176.5410  138.0750 C   0  0  0  0  0  0  0  0  0  0  0  0
  190.5570  177.4760  137.3930 O   0  0  0  0  0  0  0  0  0  0  0  0
  190.4480  175.1340  137.7930 C   0  0  0  0  0  2  0  0  0  0  0  0
  190.7840  174.9910  136.3820 N   0  0  0  0  0  0  0  0  0  0  0  0
  191.8230  172.8320  135.7570 C   0  0  0  0  0  2  0  0  0  0  0  0
  193.2810  174.7880  136.8500 C   0  0  2  0  0  3  0  0  0  0  0  0
  189.7650  174.1160  135.8070 C   0  0  0  0  0  2  0  0  0  0  0  0
  192.0210  174.2260  136.2880 C   0  0  2  0  0  0  0  0  0  0  0  0
  192.9480  174.9150  135.4860 O   0  0  0  0  0  0  0  0  0  0  0  0
  190.4370  172.9030  135.1680 C   0  0  0  0  0  2  0  0  0  0  0  0
  194.2900  173.7440  137.0170 N   0  0  0  0  0  0  0  0  0  0  0  0
  196.1120  175.2580  136.1860 C   0  0  0  0  0  2  0  0  0  0  0  0
  196.3490  173.9130  138.2570 C   0  0  0  0  0  3  0  0  0  0  0  0
  196.6890  173.9910  136.7860 C   0  0  1  0  0  3  0  0  0  0  0  0
  194.8420  173.8510  138.3630 C   0  0  0  0  0  3  0  0  0  0  0  0
  195.3730  173.9300  136.0370 C   0  0  1  0  0  3  0  0  0  0  0  0
  184.0810  179.2130  141.1390 O   0  0  0  0  0  0  0  0  0  0  0  0
  180.6010  177.9600  140.6440 C   0  0  0  0  0  3  0  0  0  0  0  0
  180.8630  176.7200  140.0540 C   0  0  0  0  0  0  0  0  0  0  0  0
  183.2420  177.1550  140.2100 C   0  0  0  0  0  3  0  0  0  0  0  0
  181.6580  178.7950  141.0140 C   0  0  0  0  0  3  0  0  0  0  0  0
  182.9890  178.3950  140.8070 C   0  0  0  0  0  0  0  0  0  0  0  0
  182.1850  176.3160  139.8410 C   0  0  0  0  0  3  0  0  0  0  0  0
  180.1360  174.4910  139.8160 O   0  0  0  0  0  1  0  0  0  0  0  0
  179.7390  175.8210  139.6790 C   0  0  0  0  0  2  0  0  0  0  0  0
  1  6  1  0  0  0  0
  2 11  1  0  0  0  0
  2 12  1  0  0  0  0
  3 10  1  0  0  0  0
  4  8  2  0  0  0  0
  5  1  2  0  0  0  0
  7  9  2  0  0  0  0
  7  4  1  0  0  0  0
  8  1  1  0  0  0  0
  9  5  1  0  0  0  0
 10 11  2  0  0  0  0
 11  7  1  0  0  0  0
 12 15  2  0  0  0  0
 13  2  2  0  0  0  0
 14  3  2  0  0  0  0
 14 13  1  0  0  0  0
 15  4  1  0  0  0  0
 16  3  1  0  0  0  0
 17 16  1  0  0  0  0
 18 16  2  0  0  0  0
 19 17  1  0  0  0  0
 20 19  2  0  0  0  0
 21 19  1  0  0  0  0
 22 21  1  0  0  0  0
 24 29  1  6  0  0  0
 25 22  1  0  0  0  0
 26 23  1  6  0  0  0
 26 22  1  0  0  0  0
 26 24  1  0  0  0  0
 27 26  1  0  0  0  0
 27 24  1  0  0  0  0
 28 23  1  0  0  0  0
 28 25  1  0  0  0  0
 29 33  1  0  0  0  0
 31 33  2  0  0  0  0
 32 30  1  1  0  0  0
 32 31  1  0  0  0  0
 34 30  1  1  0  0  0
 34 32  1  0  0  0  0
 34 29  1  0  0  0  0
 35 13  1  0  0  0  0
 36 39  1  0  0  0  0
 37 36  2  0  0  0  0
 38 40  1  0  0  0  0
 40 39  2  0  0  0  0
 40 35  1  0  0  0  0
 41 37  1  0  0  0  0
 41 38  2  0  0  0  0
 43 42  1  0  0  0  0
 43 37  1  0  0  0  0
M  END
>  <MODEL>
9

>  <REMARK>
 VINA RESULT:      -9.4      4.397      6.707
  Name = 
  7 active torsions:
  status: ('A' for Active; 'I' for Inactive)
    1  A    between atoms: O_1  and  C_34
    2  A    between atoms: O_1  and  C_35
    3  A    between atoms: C_2  and  C_13
    4  A    between atoms: C_3  and  N_4
    5  A    between atoms: C_3  and  C_12
    6  A    between atoms: N_11  and  C_14
    7  A    between atoms: C_19  and  C_37
                            x       y       z     vdW  Elec       q    Type
                         _______ _______ _______ _____ _____    ______ ____

>  <TORSDO>
F 7

$$$$
