=
 OpenBabel11042412243D

 60 66  0  0  1  0  0  0  0  0999 V2000
  190.1530  177.5570  140.6650 C   0  0  2  0  0  3  0  0  0  0  0  0
  188.2800  179.6530  141.2200 O   0  0  0  0  0  0  0  0  0  0  0  0
  188.7070  177.4010  140.7580 N   0  0  0  0  0  2  0  0  0  0  0  0
  187.8290  178.4870  141.0590 C   0  0  0  0  0  0  0  0  0  0  0  0
  186.3640  178.2390  141.1620 C   0  0  0  0  0  2  0  0  0  0  0  0
  185.6420  179.4760  140.9190 N   0  0  0  0  0  2  0  0  0  0  0  0
  184.3880  179.1140  139.7290 S   0  0  0  0  0  0  0  0  0  0  0  0
  180.3760  179.2260  142.4480 C   0  0  0  0  0  2  0  0  0  0  0  0
  181.3260  178.7500  141.3400 C   0  0  2  0  0  3  0  0  0  0  0  0
  181.6130  176.7730  139.8910 C   0  0  0  0  0  0  0  0  0  0  0  0
  180.7540  178.6520  143.8110 C   0  0  0  0  0  2  0  0  0  0  0  0
  183.1170  178.5450  143.0760 C   0  0  0  0  0  3  0  0  0  0  0  0
  183.6400  177.8300  140.7790 C   0  0  1  0  0  3  0  0  0  0  0  0
  182.1870  179.0580  144.1330 C   0  0  0  0  0  2  0  0  0  0  0  0
  180.8000  177.6030  140.6810 O   0  0  0  0  0  0  0  0  0  0  0  0
  182.7360  178.4580  141.7930 C   0  0  0  0  0  0  0  0  0  0  0  0
  182.9110  176.8640  139.9480 N   0  0  0  0  0  0  0  0  0  0  0  0
  180.0220  174.8640  139.7950 C   0  0  0  0  0  1  0  0  0  0  0  0
  180.9980  175.7280  139.0120 C   0  0  1  0  0  3  0  0  0  0  0  0
  178.9310  178.2050  137.3420 C   0  0  0  0  0  2  0  0  0  0  0  0
  180.3650  176.2710  137.7230 C   0  0  0  0  0  3  0  0  0  0  0  0
  180.1790  178.3350  136.4970 C   0  0  0  0  0  2  0  0  0  0  0  0
  178.9480  176.8000  137.9090 C   0  0  0  0  0  2  0  0  0  0  0  0
  181.1870  177.3950  137.1170 C   0  0  0  0  0  2  0  0  0  0  0  0
  190.5780  177.4670  139.2040 C   0  0  0  0  0  2  0  0  0  0  0  0
  188.7310  176.5790  137.9920 O   0  0  0  0  0  0  0  0  0  0  0  0
  189.8640  176.3660  138.4950 C   0  0  0  0  0  0  0  0  0  0  0  0
  190.4630  175.1110  138.4000 O   0  0  0  0  0  0  0  0  0  0  0  0
  191.0880  174.6650  137.2050 C   0  0  0  0  0  2  0  0  0  0  0  0
  191.8930  175.7980  136.6010 C   0  0  0  0  0  2  0  0  0  0  0  0
  195.3210  175.4270  136.1640 C   0  0  0  0  0  2  0  0  0  0  0  0
  194.1730  176.2020  136.0560 O   0  0  0  0  0  0  0  0  0  0  0  0
  194.9480  174.1950  136.9440 C   0  0  1  0  0  0  0  0  0  0  0  0
  193.3330  175.7410  137.0800 C   0  0  2  0  0  3  0  0  0  0  0  0
  193.6600  174.4200  137.4420 O   0  0  0  0  0  0  0  0  0  0  0  0
  196.1650  172.2990  136.0790 O   0  0  0  0  0  1  0  0  0  0  0  0
  194.9280  172.9470  136.0390 C   0  0  1  0  0  3  0  0  0  0  0  0
  193.8240  171.9650  136.4220 C   0  0  0  0  0  2  0  0  0  0  0  0
  192.9300  171.6960  135.2290 C   0  0  0  0  0  1  0  0  0  0  0  0
  195.6680  173.1820  138.9950 O   0  0  0  0  0  0  0  0  0  0  0  0
  195.9270  174.0210  138.0920 C   0  0  0  0  0  0  0  0  0  0  0  0
  197.1040  174.7750  138.2140 O   0  0  0  0  0  0  0  0  0  0  0  0
  197.9040  174.8300  139.3890 C   0  0  0  0  0  2  0  0  0  0  0  0
  197.4300  175.8280  140.2400 O   0  0  0  0  0  0  0  0  0  0  0  0
  197.9240  175.4810  141.4970 C   0  0  0  0  0  1  0  0  0  0  0  0
  190.8310  176.4570  141.4770 C   0  0  0  0  0  2  0  0  0  0  0  0
  191.5030  175.9290  143.7650 C   0  0  0  0  0  2  0  0  0  0  0  0
  191.0390  177.8240  145.2830 C   0  0  2  0  0  3  0  0  0  0  0  0
  192.0070  175.7660  146.0760 O   0  0  0  0  0  0  0  0  0  0  0  0
  191.0910  176.8370  142.9030 C   0  0  2  0  0  3  0  0  0  0  0  0
  190.8160  178.4840  143.5860 S   0  0  0  0  0  0  0  0  0  0  0  0
  191.5710  176.4480  145.1140 C   0  0  0  0  0  0  0  0  0  0  0  0
  188.5320  177.8540  145.4740 C   0  0  0  0  0  3  0  0  0  0  0  0
  187.6770  177.6400  146.5410 C   0  0  0  0  0  0  0  0  0  0  0  0
  189.7690  177.7820  146.0050 N   0  0  0  0  0  0  0  0  0  0  0  0
  189.6740  177.5260  147.3000 N   0  0  0  0  0  0  0  0  0  0  0  0
  188.4030  177.4460  147.6600 N   0  0  0  0  0  0  0  0  0  0  0  0
  185.6600  179.0640  146.7640 C   0  0  0  0  0  2  0  0  0  0  0  0
  186.1830  177.6630  146.5090 C   0  0  0  0  0  3  0  0  0  0  0  0
  185.7170  178.5260  145.3520 C   0  0  0  0  0  2  0  0  0  0  0  0
  1 25  1  6  0  0  0
  1  3  1  0  0  0  0
  1 46  1  0  0  0  0
  3  4  1  0  0  0  0
  4  5  1  0  0  0  0
  4  2  2  0  0  0  0
  6  5  1  0  0  0  0
  7  6  1  0  0  0  0
  8 11  1  0  0  0  0
  9 16  1  0  0  0  0
  9  8  1  1  0  0  0
 10 17  2  0  0  0  0
 10 15  1  0  0  0  0
 11 14  1  0  0  0  0
 12 14  1  0  0  0  0
 13  7  1  6  0  0  0
 13 16  1  0  0  0  0
 15  9  1  0  0  0  0
 16 12  2  0  0  0  0
 17 13  1  0  0  0  0
 19 18  1  1  0  0  0
 19 10  1  0  0  0  0
 20 23  1  0  0  0  0
 21 23  1  0  0  0  0
 21 19  1  0  0  0  0
 22 24  1  0  0  0  0
 22 20  1  0  0  0  0
 24 21  1  0  0  0  0
 26 27  2  0  0  0  0
 27 25  1  0  0  0  0
 28 27  1  0  0  0  0
 29 28  1  0  0  0  0
 30 29  1  0  0  0  0
 31 33  1  0  0  0  0
 32 31  1  0  0  0  0
 32 34  1  0  0  0  0
 33 35  1  0  0  0  0
 33 41  1  1  0  0  0
 34 30  1  6  0  0  0
 34 35  1  0  0  0  0
 37 36  1  1  0  0  0
 37 38  1  0  0  0  0
 37 33  1  0  0  0  0
 39 38  1  0  0  0  0
 41 42  1  0  0  0  0
 41 40  2  0  0  0  0
 42 43  1  0  0  0  0
 43 44  1  0  0  0  0
 44 45  1  0  0  0  0
 47 52  1  0  0  0  0
 48 55  1  6  0  0  0
 50 46  1  1  0  0  0
 50 51  1  0  0  0  0
 50 47  1  0  0  0  0
 51 48  1  0  0  0  0
 52 48  1  0  0  0  0
 52 49  2  0  0  0  0
 53 55  1  0  0  0  0
 53 54  2  0  0  0  0
 54 57  1  0  0  0  0
 55 56  1  0  0  0  0
 56 57  2  0  0  0  0
 59 54  1  0  0  0  0
 59 58  1  0  0  0  0
 60 59  1  0  0  0  0
 60 58  1  0  0  0  0
M  END
>  <MODEL>
1

>  <REMARK>
 VINA RESULT:      -7.8      0.000      0.000
  Name = 
  23 active torsions:
  status: ('A' for Active; 'I' for Inactive)
    1  A    between atoms: C_1  and  C_31
    2  A    between atoms: C_1  and  N_52
    3  A    between atoms: C_1  and  C_56
    4  A    between atoms: O_3  and  C_39
    5  A    between atoms: N_4  and  C_32
    6  A    between atoms: N_4  and  S_54
    7  A    between atoms: C_9  and  N_16
    8  A    between atoms: O_11  and  C_39
    9  A    between atoms: O_11  and  C_57
   10  A    between atoms: C_14  and  C_33
   11  A    between atoms: C_17  and  C_18
   12  A    between atoms: C_18  and  C_24
   13  A    between atoms: C_19  and  O_30
   14  A    between atoms: C_19  and  C_31
   15  A    between atoms: C_22  and  C_55
   16  A    between atoms: C_22  and  C_57
   17  A    between atoms: C_23  and  C_55
   18  A    between atoms: C_29  and  S_54
   19  A    between atoms: O_30  and  C_41
   20  A    between atoms: C_32  and  C_53
   21  A    between atoms: C_41  and  C_58
   22  A    between atoms: C_42  and  C_58
   23  A    between atoms: C_45  and  C_56
                            x       y       z     vdW  Elec       q    Type
                         _______ _______ _______ _____ _____    ______ ____

>  <TORSDO>
F 23

$$$$
=
 OpenBabel11042412243D

 60 66  0  0  1  0  0  0  0  0999 V2000
  190.5480  177.2340  140.3230 C   0  0  2  0  0  3  0  0  0  0  0  0
  189.0230  179.2750  139.0120 O   0  0  0  0  0  0  0  0  0  0  0  0
  189.2710  177.0390  139.6490 N   0  0  0  0  0  2  0  0  0  0  0  0
  188.5500  178.1070  139.0310 C   0  0  0  0  0  0  0  0  0  0  0  0
  187.2360  177.8290  138.3870 C   0  0  0  0  0  2  0  0  0  0  0  0
  186.1700  178.4090  139.1860 N   0  0  0  0  0  2  0  0  0  0  0  0
  184.8140  178.7090  138.0940 S   0  0  0  0  0  0  0  0  0  0  0  0
  179.9730  178.4530  138.0740 C   0  0  0  0  0  2  0  0  0  0  0  0
  181.4210  177.9610  137.9300 C   0  0  2  0  0  3  0  0  0  0  0  0
  182.6310  175.8120  137.8640 C   0  0  0  0  0  0  0  0  0  0  0  0
  179.5260  178.4970  139.5320 C   0  0  0  0  0  2  0  0  0  0  0  0
  181.8760  178.8900  140.2090 C   0  0  0  0  0  3  0  0  0  0  0  0
  183.6850  177.6680  139.0720 C   0  0  1  0  0  3  0  0  0  0  0  0
  180.4720  179.4050  140.3080 C   0  0  0  0  0  2  0  0  0  0  0  0
  181.4550  176.5600  137.6820 O   0  0  0  0  0  0  0  0  0  0  0  0
  182.3200  178.2800  139.1000 C   0  0  0  0  0  0  0  0  0  0  0  0
  183.6440  176.3110  138.5140 N   0  0  0  0  0  0  0  0  0  0  0  0
  182.0540  174.2700  136.0000 C   0  0  0  0  0  1  0  0  0  0  0  0
  182.7150  174.4030  137.3620 C   0  0  1  0  0  3  0  0  0  0  0  0
  185.0790  171.9340  136.1290 C   0  0  0  0  0  2  0  0  0  0  0  0
  184.1320  173.8110  137.3650 C   0  0  0  0  0  3  0  0  0  0  0  0
  185.8650  173.1870  135.8140 C   0  0  0  0  0  2  0  0  0  0  0  0
  184.1620  172.2880  137.2830 C   0  0  0  0  0  2  0  0  0  0  0  0
  184.9710  174.3380  136.2150 C   0  0  0  0  0  2  0  0  0  0  0  0
  191.6730  177.1820  139.2960 C   0  0  0  0  0  2  0  0  0  0  0  0
  190.6750  175.1260  138.6290 O   0  0  0  0  0  0  0  0  0  0  0  0
  191.5080  176.0300  138.3640 C   0  0  0  0  0  0  0  0  0  0  0  0
  192.2840  175.9680  137.2080 O   0  0  0  0  0  0  0  0  0  0  0  0
  192.8690  174.7540  136.7590 C   0  0  0  0  0  2  0  0  0  0  0  0
  193.4350  174.9480  135.3670 C   0  0  0  0  0  2  0  0  0  0  0  0
  196.4980  173.3120  135.5220 C   0  0  0  0  0  2  0  0  0  0  0  0
  195.3740  173.6930  134.7980 O   0  0  0  0  0  0  0  0  0  0  0  0
  196.4380  174.0370  136.8400 C   0  0  1  0  0  0  0  0  0  0  0  0
  194.9520  174.8890  135.3970 C   0  0  2  0  0  3  0  0  0  0  0  0
  195.4030  174.9730  136.7280 O   0  0  0  0  0  0  0  0  0  0  0  0
  194.8150  173.2680  138.4520 O   0  0  0  0  0  1  0  0  0  0  0  0
  196.1200  173.0670  137.9950 C   0  0  1  0  0  3  0  0  0  0  0  0
  196.3030  171.6050  137.5960 C   0  0  0  0  0  2  0  0  0  0  0  0
  194.9900  170.8610  137.7280 C   0  0  0  0  0  1  0  0  0  0  0  0
  198.0120  175.7970  136.4230 O   0  0  0  0  0  0  0  0  0  0  0  0
  197.7590  174.7490  137.0730 C   0  0  0  0  0  0  0  0  0  0  0  0
  198.7360  174.2770  137.9630 O   0  0  0  0  0  0  0  0  0  0  0  0
  199.1780  174.9820  139.1170 C   0  0  0  0  0  2  0  0  0  0  0  0
  198.1960  175.8830  139.5290 O   0  0  0  0  0  0  0  0  0  0  0  0
  197.6400  175.3000  140.6660 C   0  0  0  0  0  1  0  0  0  0  0  0
  190.7390  176.1390  141.3670 C   0  0  0  0  0  2  0  0  0  0  0  0
  191.4860  175.8610  143.6750 C   0  0  0  0  0  2  0  0  0  0  0  0
  190.9540  177.8640  145.0240 C   0  0  2  0  0  3  0  0  0  0  0  0
  192.0460  175.9410  145.9790 O   0  0  0  0  0  0  0  0  0  0  0  0
  191.0080  176.6630  142.7450 C   0  0  2  0  0  3  0  0  0  0  0  0
  190.6620  178.3500  143.2800 S   0  0  0  0  0  0  0  0  0  0  0  0
  191.5550  176.5060  144.9690 C   0  0  0  0  0  0  0  0  0  0  0  0
  188.4530  177.9010  145.2810 C   0  0  0  0  0  3  0  0  0  0  0  0
  187.6260  177.6890  146.3700 C   0  0  0  0  0  0  0  0  0  0  0  0
  189.7030  177.8250  145.7800 N   0  0  0  0  0  0  0  0  0  0  0  0
  189.6410  177.5670  147.0760 N   0  0  0  0  0  0  0  0  0  0  0  0
  188.3800  177.4910  147.4690 N   0  0  0  0  0  0  0  0  0  0  0  0
  185.6190  179.1380  146.2390 C   0  0  0  0  0  2  0  0  0  0  0  0
  186.1310  177.7170  146.3780 C   0  0  0  0  0  3  0  0  0  0  0  0
  185.6310  178.2210  145.0380 C   0  0  0  0  0  2  0  0  0  0  0  0
  1 25  1  6  0  0  0
  1 46  1  0  0  0  0
  2  4  2  0  0  0  0
  3  1  1  0  0  0  0
  4  3  1  0  0  0  0
  5  4  1  0  0  0  0
  5  6  1  0  0  0  0
  7  6  1  0  0  0  0
  8 11  1  0  0  0  0
  9  8  1  1  0  0  0
  9 16  1  0  0  0  0
 10 17  2  0  0  0  0
 11 14  1  0  0  0  0
 12 14  1  0  0  0  0
 13  7  1  6  0  0  0
 13 16  1  0  0  0  0
 15 10  1  0  0  0  0
 15  9  1  0  0  0  0
 16 12  2  0  0  0  0
 17 13  1  0  0  0  0
 19 18  1  6  0  0  0
 19 21  1  0  0  0  0
 19 10  1  0  0  0  0
 20 23  1  0  0  0  0
 22 20  1  0  0  0  0
 22 24  1  0  0  0  0
 23 21  1  0  0  0  0
 24 21  1  0  0  0  0
 27 26  2  0  0  0  0
 27 25  1  0  0  0  0
 28 27  1  0  0  0  0
 29 28  1  0  0  0  0
 30 29  1  0  0  0  0
 31 33  1  0  0  0  0
 32 34  1  0  0  0  0
 32 31  1  0  0  0  0
 33 41  1  1  0  0  0
 33 37  1  0  0  0  0
 34 30  1  1  0  0  0
 34 35  1  0  0  0  0
 35 33  1  0  0  0  0
 37 36  1  6  0  0  0
 38 39  1  0  0  0  0
 38 37  1  0  0  0  0
 40 41  2  0  0  0  0
 41 42  1  0  0  0  0
 42 43  1  0  0  0  0
 43 44  1  0  0  0  0
 44 45  1  0  0  0  0
 47 52  1  0  0  0  0
 48 55  1  1  0  0  0
 50 46  1  1  0  0  0
 50 51  1  0  0  0  0
 50 47  1  0  0  0  0
 51 48  1  0  0  0  0
 52 48  1  0  0  0  0
 52 49  2  0  0  0  0
 53 55  1  0  0  0  0
 53 54  2  0  0  0  0
 54 59  1  0  0  0  0
 54 57  1  0  0  0  0
 55 56  1  0  0  0  0
 56 57  2  0  0  0  0
 58 59  1  0  0  0  0
 60 58  1  0  0  0  0
 60 59  1  0  0  0  0
M  END
>  <MODEL>
2

>  <REMARK>
 VINA RESULT:      -6.6      2.135      2.918
  Name = 
  23 active torsions:
  status: ('A' for Active; 'I' for Inactive)
    1  A    between atoms: C_1  and  C_31
    2  A    between atoms: C_1  and  N_52
    3  A    between atoms: C_1  and  C_56
    4  A    between atoms: O_3  and  C_39
    5  A    between atoms: N_4  and  C_32
    6  A    between atoms: N_4  and  S_54
    7  A    between atoms: C_9  and  N_16
    8  A    between atoms: O_11  and  C_39
    9  A    between atoms: O_11  and  C_57
   10  A    between atoms: C_14  and  C_33
   11  A    between atoms: C_17  and  C_18
   12  A    between atoms: C_18  and  C_24
   13  A    between atoms: C_19  and  O_30
   14  A    between atoms: C_19  and  C_31
   15  A    between atoms: C_22  and  C_55
   16  A    between atoms: C_22  and  C_57
   17  A    between atoms: C_23  and  C_55
   18  A    between atoms: C_29  and  S_54
   19  A    between atoms: O_30  and  C_41
   20  A    between atoms: C_32  and  C_53
   21  A    between atoms: C_41  and  C_58
   22  A    between atoms: C_42  and  C_58
   23  A    between atoms: C_45  and  C_56
                            x       y       z     vdW  Elec       q    Type
                         _______ _______ _______ _____ _____    ______ ____

>  <TORSDO>
F 23

$$$$
=
 OpenBabel11042412243D

 60 66  0  0  1  0  0  0  0  0999 V2000
  188.8430  177.2640  141.8480 C   0  0  2  0  0  3  0  0  0  0  0  0
  189.0830  179.0490  139.6210 O   0  0  0  0  0  0  0  0  0  0  0  0
  188.3010  177.0350  140.5160 N   0  0  0  0  0  2  0  0  0  0  0  0
  188.4390  177.9790  139.4510 C   0  0  0  0  0  0  0  0  0  0  0  0
  187.8310  177.6810  138.1250 C   0  0  0  0  0  2  0  0  0  0  0  0
  186.8150  178.6750  137.8220 N   0  0  0  0  0  2  0  0  0  0  0  0
  185.2980  178.0880  138.5110 S   0  0  0  0  0  0  0  0  0  0  0  0
  182.5840  174.1200  137.8860 C   0  0  0  0  0  2  0  0  0  0  0  0
  183.0110  175.5860  137.7280 C   0  0  2  0  0  3  0  0  0  0  0  0
  182.5430  177.4810  136.2200 C   0  0  0  0  0  0  0  0  0  0  0  0
  183.3690  173.1920  136.9630 C   0  0  0  0  0  2  0  0  0  0  0  0
  185.2780  174.7680  137.0550 C   0  0  0  0  0  3  0  0  0  0  0  0
  184.8530  177.1920  136.9900 C   0  0  1  0  0  3  0  0  0  0  0  0
  184.8550  173.3450  137.2630 C   0  0  0  0  0  2  0  0  0  0  0  0
  182.1640  176.2620  136.8050 O   0  0  0  0  0  0  0  0  0  0  0  0
  184.4500  175.7890  137.3220 C   0  0  0  0  0  0  0  0  0  0  0  0
  183.7750  177.9000  136.2890 N   0  0  0  0  0  0  0  0  0  0  0  0
  180.6550  177.4040  134.6020 C   0  0  0  0  0  1  0  0  0  0  0  0
  181.5450  178.2950  135.4540 C   0  0  1  0  0  3  0  0  0  0  0  0
  181.4160  180.9990  137.8770 C   0  0  0  0  0  2  0  0  0  0  0  0
  180.7190  179.2630  136.3130 C   0  0  0  0  0  3  0  0  0  0  0  0
  180.5640  181.6180  136.7910 C   0  0  0  0  0  2  0  0  0  0  0  0
  181.2980  179.4980  137.7040 C   0  0  0  0  0  2  0  0  0  0  0  0
  180.5720  180.6230  135.6540 C   0  0  0  0  0  2  0  0  0  0  0  0
  190.1490  176.4930  142.0010 C   0  0  0  0  0  2  0  0  0  0  0  0
  191.2730  178.4060  142.8650 O   0  0  0  0  0  0  0  0  0  0  0  0
  191.3190  177.4130  142.0940 C   0  0  0  0  0  0  0  0  0  0  0  0
  192.4510  177.1620  141.3210 O   0  0  0  0  0  0  0  0  0  0  0  0
  192.6010  177.6930  140.0130 C   0  0  0  0  0  2  0  0  0  0  0  0
  191.9510  176.7610  139.0100 C   0  0  0  0  0  2  0  0  0  0  0  0
  193.8220  175.7620  136.2570 C   0  0  0  0  0  2  0  0  0  0  0  0
  193.5700  176.6790  137.2690 O   0  0  0  0  0  0  0  0  0  0  0  0
  192.9560  174.5600  136.5280 C   0  0  1  0  0  0  0  0  0  0  0  0
  193.0010  175.9230  138.3040 C   0  0  2  0  0  3  0  0  0  0  0  0
  192.4110  174.7470  137.8030 O   0  0  0  0  0  0  0  0  0  0  0  0
  190.6400  174.0150  136.1200 O   0  0  0  0  0  1  0  0  0  0  0  0
  191.8110  174.4560  135.5000 C   0  0  1  0  0  3  0  0  0  0  0  0
  191.5450  175.7800  134.7870 C   0  0  0  0  0  2  0  0  0  0  0  0
  190.3880  176.5020  135.4470 C   0  0  0  0  0  1  0  0  0  0  0  0
  193.2750  172.1920  136.3320 O   0  0  0  0  0  0  0  0  0  0  0  0
  193.8220  173.3130  136.5090 C   0  0  0  0  0  0  0  0  0  0  0  0
  195.2100  173.3420  136.7070 O   0  0  0  0  0  0  0  0  0  0  0  0
  195.8550  172.9990  137.9280 C   0  0  0  0  0  2  0  0  0  0  0  0
  196.2260  171.6540  137.9080 O   0  0  0  0  0  0  0  0  0  0  0  0
  197.3430  171.6120  137.0760 C   0  0  0  0  0  1  0  0  0  0  0  0
  187.8320  176.7950  142.8910 C   0  0  0  0  0  2  0  0  0  0  0  0
  186.2780  177.8460  144.4530 C   0  0  0  0  0  2  0  0  0  0  0  0
  184.8630  179.5180  143.3040 C   0  0  2  0  0  3  0  0  0  0  0  0
  184.6290  179.0550  145.6560 O   0  0  0  0  0  0  0  0  0  0  0  0
  186.8140  177.8340  143.2490 C   0  0  2  0  0  3  0  0  0  0  0  0
  186.1840  179.0820  142.1090 S   0  0  0  0  0  0  0  0  0  0  0  0
  185.2240  178.8310  144.5720 C   0  0  0  0  0  0  0  0  0  0  0  0
  182.3540  179.3640  143.3660 C   0  0  0  0  0  3  0  0  0  0  0  0
  181.4350  178.7900  142.5060 C   0  0  0  0  0  0  0  0  0  0  0  0
  183.5570  179.0540  142.8410 N   0  0  0  0  0  0  0  0  0  0  0  0
  183.3810  178.3560  141.7320 N   0  0  0  0  0  0  0  0  0  0  0  0
  182.0910  178.1670  141.5070 N   0  0  0  0  0  0  0  0  0  0  0  0
  179.5480  178.5470  144.0940 C   0  0  0  0  0  2  0  0  0  0  0  0
  179.9480  178.7950  142.6520 C   0  0  0  0  0  3  0  0  0  0  0  0
  179.5320  179.9530  143.5390 C   0  0  0  0  0  2  0  0  0  0  0  0
  1 25  1  6  0  0  0
  1 46  1  0  0  0  0
  3  1  1  0  0  0  0
  4  2  2  0  0  0  0
  4  3  1  0  0  0  0
  5  4  1  0  0  0  0
  6  5  1  0  0  0  0
  6  7  1  0  0  0  0
  9  8  1  6  0  0  0
 10 17  2  0  0  0  0
 10 15  1  0  0  0  0
 11 14  1  0  0  0  0
 11  8  1  0  0  0  0
 12 14  1  0  0  0  0
 12 16  2  0  0  0  0
 13 16  1  0  0  0  0
 13  7  1  1  0  0  0
 15  9  1  0  0  0  0
 16  9  1  0  0  0  0
 17 13  1  0  0  0  0
 19 18  1  1  0  0  0
 19 10  1  0  0  0  0
 19 21  1  0  0  0  0
 21 23  1  0  0  0  0
 22 20  1  0  0  0  0
 23 20  1  0  0  0  0
 24 21  1  0  0  0  0
 24 22  1  0  0  0  0
 25 27  1  0  0  0  0
 27 26  2  0  0  0  0
 28 27  1  0  0  0  0
 29 28  1  0  0  0  0
 30 29  1  0  0  0  0
 31 33  1  0  0  0  0
 31 32  1  0  0  0  0
 32 34  1  0  0  0  0
 33 41  1  6  0  0  0
 33 35  1  0  0  0  0
 34 30  1  6  0  0  0
 35 34  1  0  0  0  0
 37 36  1  1  0  0  0
 37 33  1  0  0  0  0
 38 39  1  0  0  0  0
 38 37  1  0  0  0  0
 40 41  2  0  0  0  0
 41 42  1  0  0  0  0
 42 43  1  0  0  0  0
 44 43  1  0  0  0  0
 45 44  1  0  0  0  0
 47 52  1  0  0  0  0
 48 55  1  6  0  0  0
 48 52  1  0  0  0  0
 50 46  1  6  0  0  0
 50 47  1  0  0  0  0
 51 50  1  0  0  0  0
 51 48  1  0  0  0  0
 52 49  2  0  0  0  0
 54 59  1  0  0  0  0
 54 53  2  0  0  0  0
 55 53  1  0  0  0  0
 56 55  1  0  0  0  0
 57 56  2  0  0  0  0
 57 54  1  0  0  0  0
 59 60  1  0  0  0  0
 59 58  1  0  0  0  0
 60 58  1  0  0  0  0
M  END
>  <MODEL>
3

>  <REMARK>
 VINA RESULT:      -6.3      2.757      5.078
  Name = 
  23 active torsions:
  status: ('A' for Active; 'I' for Inactive)
    1  A    between atoms: C_1  and  C_31
    2  A    between atoms: C_1  and  N_52
    3  A    between atoms: C_1  and  C_56
    4  A    between atoms: O_3  and  C_39
    5  A    between atoms: N_4  and  C_32
    6  A    between atoms: N_4  and  S_54
    7  A    between atoms: C_9  and  N_16
    8  A    between atoms: O_11  and  C_39
    9  A    between atoms: O_11  and  C_57
   10  A    between atoms: C_14  and  C_33
   11  A    between atoms: C_17  and  C_18
   12  A    between atoms: C_18  and  C_24
   13  A    between atoms: C_19  and  O_30
   14  A    between atoms: C_19  and  C_31
   15  A    between atoms: C_22  and  C_55
   16  A    between atoms: C_22  and  C_57
   17  A    between atoms: C_23  and  C_55
   18  A    between atoms: C_29  and  S_54
   19  A    between atoms: O_30  and  C_41
   20  A    between atoms: C_32  and  C_53
   21  A    between atoms: C_41  and  C_58
   22  A    between atoms: C_42  and  C_58
   23  A    between atoms: C_45  and  C_56
                            x       y       z     vdW  Elec       q    Type
                         _______ _______ _______ _____ _____    ______ ____

>  <TORSDO>
F 23

$$$$
=
 OpenBabel11042412243D

 60 66  0  0  1  0  0  0  0  0999 V2000
  188.6250  178.6670  139.5800 C   0  0  2  0  0  3  0  0  0  0  0  0
  187.1100  179.1980  137.2070 O   0  0  0  0  0  0  0  0  0  0  0  0
  187.4690  177.9070  139.1230 N   0  0  0  0  0  2  0  0  0  0  0  0
  186.7430  178.2390  137.9370 C   0  0  0  0  0  0  0  0  0  0  0  0
  185.5550  177.4280  137.5550 C   0  0  0  0  0  2  0  0  0  0  0  0
  184.3420  178.1330  137.9330 N   0  0  0  0  0  2  0  0  0  0  0  0
  183.6720  177.2900  139.3330 S   0  0  0  0  0  0  0  0  0  0  0  0
  180.1970  179.4960  141.8950 C   0  0  0  0  0  2  0  0  0  0  0  0
  181.1870  179.2760  140.7430 C   0  0  2  0  0  3  0  0  0  0  0  0
  181.5310  180.0880  138.4380 C   0  0  0  0  0  0  0  0  0  0  0  0
  178.9320  178.6580  141.7300 C   0  0  0  0  0  2  0  0  0  0  0  0
  180.2490  176.9710  140.4840 C   0  0  0  0  0  3  0  0  0  0  0  0
  181.9610  177.7130  138.8780 C   0  0  1  0  0  3  0  0  0  0  0  0
  179.3250  177.1890  141.6430 C   0  0  0  0  0  2  0  0  0  0  0  0
  181.0130  180.2630  139.7320 O   0  0  0  0  0  0  0  0  0  0  0  0
  181.1360  177.9060  140.1120 C   0  0  0  0  0  0  0  0  0  0  0  0
  181.9480  178.9190  138.0400 N   0  0  0  0  0  0  0  0  0  0  0  0
  180.7950  180.8890  136.2020 C   0  0  0  0  0  1  0  0  0  0  0  0
  181.5560  181.2320  137.4720 C   0  0  1  0  0  3  0  0  0  0  0  0
  180.6830  184.7270  136.9950 C   0  0  0  0  0  2  0  0  0  0  0  0
  181.0990  182.5740  138.0620 C   0  0  0  0  0  3  0  0  0  0  0  0
  179.4250  184.2650  137.6960 C   0  0  0  0  0  2  0  0  0  0  0  0
  181.7850  183.7850  137.4390 C   0  0  0  0  0  2  0  0  0  0  0  0
  179.6030  182.7800  137.9120 C   0  0  0  0  0  2  0  0  0  0  0  0
  189.8520  178.2500  138.7770 C   0  0  0  0  0  2  0  0  0  0  0  0
  190.2300  176.1290  139.7880 O   0  0  0  0  0  0  0  0  0  0  0  0
  189.9960  176.7670  138.7300 C   0  0  0  0  0  0  0  0  0  0  0  0
  189.8710  176.1040  137.5100 O   0  0  0  0  0  0  0  0  0  0  0  0
  189.4510  174.7500  137.4300 C   0  0  0  0  0  2  0  0  0  0  0  0
  190.4830  173.9440  136.6680 C   0  0  0  0  0  2  0  0  0  0  0  0
  193.3410  175.1520  135.1020 C   0  0  0  0  0  2  0  0  0  0  0  0
  191.9780  175.2470  135.3540 O   0  0  0  0  0  0  0  0  0  0  0  0
  193.8860  174.0970  136.0260 C   0  0  1  0  0  0  0  0  0  0  0  0
  191.8090  174.6820  136.6270 C   0  0  2  0  0  3  0  0  0  0  0  0
  192.8570  173.7900  136.9240 O   0  0  0  0  0  0  0  0  0  0  0  0
  195.6080  172.8970  134.8350 O   0  0  0  0  0  1  0  0  0  0  0  0
  194.2760  172.8240  135.2490 C   0  0  1  0  0  3  0  0  0  0  0  0
  194.0640  171.5530  136.0680 C   0  0  0  0  0  2  0  0  0  0  0  0
  192.9470  170.7250  135.4640 C   0  0  0  0  0  1  0  0  0  0  0  0
  195.4540  175.8410  136.5270 O   0  0  0  0  0  0  0  0  0  0  0  0
  195.0780  174.6650  136.7760 C   0  0  0  0  0  0  0  0  0  0  0  0
  195.8080  173.9290  137.7230 O   0  0  0  0  0  0  0  0  0  0  0  0
  195.6900  174.0910  139.1310 C   0  0  0  0  0  2  0  0  0  0  0  0
  196.2670  175.2990  139.5210 O   0  0  0  0  0  0  0  0  0  0  0  0
  197.6160  174.9990  139.7070 C   0  0  0  0  0  1  0  0  0  0  0  0
  188.8530  178.3950  141.0640 C   0  0  0  0  0  2  0  0  0  0  0  0
  186.6040  179.0310  141.7710 C   0  0  0  0  0  2  0  0  0  0  0  0
  185.7920  177.5520  143.5780 C   0  0  2  0  0  3  0  0  0  0  0  0
  184.4590  179.3670  142.7260 O   0  0  0  0  0  0  0  0  0  0  0  0
  187.5880  178.1560  141.8310 C   0  0  2  0  0  3  0  0  0  0  0  0
  187.3080  176.7510  142.9260 S   0  0  0  0  0  0  0  0  0  0  0  0
  185.5240  178.7020  142.6770 C   0  0  0  0  0  0  0  0  0  0  0  0
  187.0980  177.8770  145.7030 C   0  0  0  0  0  3  0  0  0  0  0  0
  186.8410  178.6050  146.8510 C   0  0  0  0  0  0  0  0  0  0  0  0
  185.9920  178.0270  144.9460 N   0  0  0  0  0  0  0  0  0  0  0  0
  185.1310  178.8060  145.5810 N   0  0  0  0  0  0  0  0  0  0  0  0
  185.6190  179.1650  146.7580 N   0  0  0  0  0  0  0  0  0  0  0  0
  187.9870  177.3770  148.6740 C   0  0  0  0  0  2  0  0  0  0  0  0
  187.7290  178.7330  148.0470 C   0  0  0  0  0  3  0  0  0  0  0  0
  189.0340  178.0070  147.7850 C   0  0  0  0  0  2  0  0  0  0  0  0
  1 25  1  6  0  0  0
  1 46  1  0  0  0  0
  2  4  2  0  0  0  0
  3  1  1  0  0  0  0
  4  3  1  0  0  0  0
  5  6  1  0  0  0  0
  5  4  1  0  0  0  0
  6  7  1  0  0  0  0
  9  8  1  1  0  0  0
 10 15  1  0  0  0  0
 11  8  1  0  0  0  0
 12 14  1  0  0  0  0
 13  7  1  1  0  0  0
 13 16  1  0  0  0  0
 14 11  1  0  0  0  0
 15  9  1  0  0  0  0
 16 12  2  0  0  0  0
 16  9  1  0  0  0  0
 17 10  2  0  0  0  0
 17 13  1  0  0  0  0
 19 18  1  6  0  0  0
 19 21  1  0  0  0  0
 19 10  1  0  0  0  0
 20 23  1  0  0  0  0
 20 22  1  0  0  0  0
 22 24  1  0  0  0  0
 23 21  1  0  0  0  0
 24 21  1  0  0  0  0
 27 25  1  0  0  0  0
 27 26  2  0  0  0  0
 28 27  1  0  0  0  0
 29 28  1  0  0  0  0
 30 29  1  0  0  0  0
 31 32  1  0  0  0  0
 31 33  1  0  0  0  0
 32 34  1  0  0  0  0
 33 41  1  1  0  0  0
 33 35  1  0  0  0  0
 34 30  1  6  0  0  0
 34 35  1  0  0  0  0
 37 36  1  1  0  0  0
 37 33  1  0  0  0  0
 37 38  1  0  0  0  0
 39 38  1  0  0  0  0
 40 41  2  0  0  0  0
 41 42  1  0  0  0  0
 42 43  1  0  0  0  0
 43 44  1  0  0  0  0
 44 45  1  0  0  0  0
 47 50  1  0  0  0  0
 47 52  1  0  0  0  0
 48 55  1  1  0  0  0
 50 46  1  1  0  0  0
 50 51  1  0  0  0  0
 51 48  1  0  0  0  0
 52 49  2  0  0  0  0
 52 48  1  0  0  0  0
 53 54  2  0  0  0  0
 54 59  1  0  0  0  0
 55 56  1  0  0  0  0
 55 53  1  0  0  0  0
 56 57  2  0  0  0  0
 57 54  1  0  0  0  0
 59 58  1  0  0  0  0
 60 59  1  0  0  0  0
 60 58  1  0  0  0  0
M  END
>  <MODEL>
4

>  <REMARK>
 VINA RESULT:      -6.1      2.596      3.757
  Name = 
  23 active torsions:
  status: ('A' for Active; 'I' for Inactive)
    1  A    between atoms: C_1  and  C_31
    2  A    between atoms: C_1  and  N_52
    3  A    between atoms: C_1  and  C_56
    4  A    between atoms: O_3  and  C_39
    5  A    between atoms: N_4  and  C_32
    6  A    between atoms: N_4  and  S_54
    7  A    between atoms: C_9  and  N_16
    8  A    between atoms: O_11  and  C_39
    9  A    between atoms: O_11  and  C_57
   10  A    between atoms: C_14  and  C_33
   11  A    between atoms: C_17  and  C_18
   12  A    between atoms: C_18  and  C_24
   13  A    between atoms: C_19  and  O_30
   14  A    between atoms: C_19  and  C_31
   15  A    between atoms: C_22  and  C_55
   16  A    between atoms: C_22  and  C_57
   17  A    between atoms: C_23  and  C_55
   18  A    between atoms: C_29  and  S_54
   19  A    between atoms: O_30  and  C_41
   20  A    between atoms: C_32  and  C_53
   21  A    between atoms: C_41  and  C_58
   22  A    between atoms: C_42  and  C_58
   23  A    between atoms: C_45  and  C_56
                            x       y       z     vdW  Elec       q    Type
                         _______ _______ _______ _____ _____    ______ ____

>  <TORSDO>
F 23

$$$$
=
 OpenBabel11042412243D

 60 66  0  0  1  0  0  0  0  0999 V2000
  189.3440  177.1170  137.5590 C   0  0  2  0  0  3  0  0  0  0  0  0
  186.5940  176.7650  138.2810 O   0  0  0  0  0  0  0  0  0  0  0  0
  188.2000  177.3820  136.6970 N   0  0  0  0  0  2  0  0  0  0  0  0
  186.8500  177.1650  137.1140 C   0  0  0  0  0  0  0  0  0  0  0  0
  185.7370  177.4340  136.1620 C   0  0  0  0  0  2  0  0  0  0  0  0
  184.7990  176.3240  136.1840 N   0  0  0  0  0  2  0  0  0  0  0  0
  183.2430  176.9760  136.7080 S   0  0  0  0  0  0  0  0  0  0  0  0
  179.6640  173.9440  137.9320 C   0  0  0  0  0  2  0  0  0  0  0  0
  181.0770  174.3770  137.5150 C   0  0  2  0  0  3  0  0  0  0  0  0
  183.3550  173.4310  137.4990 C   0  0  0  0  0  0  0  0  0  0  0  0
  179.4280  174.1260  139.4290 C   0  0  0  0  0  2  0  0  0  0  0  0
  181.0590  175.9900  139.4280 C   0  0  0  0  0  3  0  0  0  0  0  0
  183.1170  175.7990  138.0910 C   0  0  1  0  0  3  0  0  0  0  0  0
  179.6610  175.5880  139.7880 C   0  0  0  0  0  2  0  0  0  0  0  0
  181.9610  173.2610  137.4960 O   0  0  0  0  0  0  0  0  0  0  0  0
  181.6810  175.4740  138.3570 C   0  0  0  0  0  0  0  0  0  0  0  0
  183.8860  174.5850  137.7870 N   0  0  0  0  0  0  0  0  0  0  0  0
  183.4800  171.0960  136.6510 C   0  0  0  0  0  1  0  0  0  0  0  0
  184.2590  172.2670  137.2270 C   0  0  1  0  0  3  0  0  0  0  0  0
  187.8710  172.4870  136.8910 C   0  0  0  0  0  2  0  0  0  0  0  0
  185.4910  172.6030  136.3740 C   0  0  0  0  0  3  0  0  0  0  0  0
  187.5770  171.6150  135.6920 C   0  0  0  0  0  2  0  0  0  0  0  0
  186.6100  173.2880  137.1510 C   0  0  0  0  0  2  0  0  0  0  0  0
  186.0870  171.3670  135.7250 C   0  0  0  0  0  2  0  0  0  0  0  0
  189.4960  178.2560  138.5610 C   0  0  0  0  0  2  0  0  0  0  0  0
  188.1910  178.5650  140.5280 O   0  0  0  0  0  0  0  0  0  0  0  0
  189.0310  177.8540  139.9190 C   0  0  0  0  0  0  0  0  0  0  0  0
  189.5380  176.6920  140.5000 O   0  0  0  0  0  0  0  0  0  0  0  0
  190.5670  176.7280  141.4780 C   0  0  0  0  0  2  0  0  0  0  0  0
  190.0340  176.1950  142.7930 C   0  0  0  0  0  2  0  0  0  0  0  0
  189.3120  178.6110  145.1850 C   0  0  0  0  0  2  0  0  0  0  0  0
  189.9570  178.2360  144.0130 O   0  0  0  0  0  0  0  0  0  0  0  0
  188.3850  177.4850  145.5560 C   0  0  1  0  0  0  0  0  0  0  0  0
  189.1490  177.2280  143.4670 C   0  0  2  0  0  3  0  0  0  0  0  0
  188.3720  176.6090  144.4650 O   0  0  0  0  0  0  0  0  0  0  0  0
  190.2360  177.0400  147.0400 O   0  0  0  0  0  1  0  0  0  0  0  0
  188.8940  176.7320  146.8020 C   0  0  1  0  0  3  0  0  0  0  0  0
  188.0690  177.0420  148.0480 C   0  0  0  0  0  2  0  0  0  0  0  0
  188.7770  178.0790  148.8960 C   0  0  0  0  0  1  0  0  0  0  0  0
  186.8430  178.9850  146.6150 O   0  0  0  0  0  0  0  0  0  0  0  0
  186.9930  178.0460  145.7890 C   0  0  0  0  0  0  0  0  0  0  0  0
  185.8500  177.5490  145.1460 O   0  0  0  0  0  0  0  0  0  0  0  0
  184.7390  178.3450  144.7510 C   0  0  0  0  0  2  0  0  0  0  0  0
  184.5580  178.2570  143.3710 O   0  0  0  0  0  0  0  0  0  0  0  0
  185.2240  179.3680  142.8580 C   0  0  0  0  0  1  0  0  0  0  0  0
  190.6030  177.0000  136.7040 C   0  0  0  0  0  2  0  0  0  0  0  0
  192.6220  176.4420  137.9570 C   0  0  0  0  0  2  0  0  0  0  0  0
  193.2510  174.0750  137.6140 C   0  0  2  0  0  3  0  0  0  0  0  0
  194.5530  175.5480  139.0050 O   0  0  0  0  0  0  0  0  0  0  0  0
  191.6020  176.0200  137.2380 C   0  0  2  0  0  3  0  0  0  0  0  0
  191.5640  174.2460  136.9150 S   0  0  0  0  0  0  0  0  0  0  0  0
  193.5490  175.3750  138.2700 C   0  0  0  0  0  0  0  0  0  0  0  0
  194.9720  172.6930  136.4110 C   0  0  0  0  0  3  0  0  0  0  0  0
  195.6440  172.8760  135.2160 C   0  0  0  0  0  0  0  0  0  0  0  0
  194.2340  173.8100  136.5660 N   0  0  0  0  0  0  0  0  0  0  0  0
  194.4300  174.6090  135.5300 N   0  0  0  0  0  0  0  0  0  0  0  0
  195.2990  174.0690  134.6910 N   0  0  0  0  0  0  0  0  0  0  0  0
  198.0520  172.3380  134.9820 C   0  0  0  0  0  2  0  0  0  0  0  0
  196.6390  171.9480  134.5960 C   0  0  0  0  0  3  0  0  0  0  0  0
  197.3680  171.1900  135.6880 C   0  0  0  0  0  2  0  0  0  0  0  0
  1 46  1  6  0  0  0
  1 25  1  0  0  0  0
  3  4  1  0  0  0  0
  3  1  1  0  0  0  0
  4  2  2  0  0  0  0
  5  6  1  0  0  0  0
  5  4  1  0  0  0  0
  6  7  1  0  0  0  0
  8 11  1  0  0  0  0
  9  8  1  1  0  0  0
  9 16  1  0  0  0  0
 10 17  2  0  0  0  0
 11 14  1  0  0  0  0
 12 14  1  0  0  0  0
 13  7  1  6  0  0  0
 13 16  1  0  0  0  0
 15 10  1  0  0  0  0
 15  9  1  0  0  0  0
 16 12  2  0  0  0  0
 17 13  1  0  0  0  0
 19 18  1  6  0  0  0
 19 10  1  0  0  0  0
 20 23  1  0  0  0  0
 21 23  1  0  0  0  0
 21 19  1  0  0  0  0
 22 24  1  0  0  0  0
 22 20  1  0  0  0  0
 24 21  1  0  0  0  0
 25 27  1  0  0  0  0
 27 28  1  0  0  0  0
 27 26  2  0  0  0  0
 28 29  1  0  0  0  0
 29 30  1  0  0  0  0
 31 33  1  0  0  0  0
 32 31  1  0  0  0  0
 33 41  1  1  0  0  0
 33 37  1  0  0  0  0
 34 30  1  1  0  0  0
 34 32  1  0  0  0  0
 34 35  1  0  0  0  0
 35 33  1  0  0  0  0
 37 36  1  1  0  0  0
 37 38  1  0  0  0  0
 38 39  1  0  0  0  0
 41 40  2  0  0  0  0
 42 41  1  0  0  0  0
 43 42  1  0  0  0  0
 44 43  1  0  0  0  0
 45 44  1  0  0  0  0
 47 52  1  0  0  0  0
 48 55  1  6  0  0  0
 48 52  1  0  0  0  0
 50 46  1  6  0  0  0
 50 47  1  0  0  0  0
 51 50  1  0  0  0  0
 51 48  1  0  0  0  0
 52 49  2  0  0  0  0
 53 55  1  0  0  0  0
 54 53  2  0  0  0  0
 56 55  1  0  0  0  0
 57 54  1  0  0  0  0
 57 56  2  0  0  0  0
 58 60  1  0  0  0  0
 59 58  1  0  0  0  0
 59 54  1  0  0  0  0
 59 60  1  0  0  0  0
M  END
>  <MODEL>
5

>  <REMARK>
 VINA RESULT:      -5.8      3.726      9.522
  Name = 
  23 active torsions:
  status: ('A' for Active; 'I' for Inactive)
    1  A    between atoms: C_1  and  C_31
    2  A    between atoms: C_1  and  N_52
    3  A    between atoms: C_1  and  C_56
    4  A    between atoms: O_3  and  C_39
    5  A    between atoms: N_4  and  C_32
    6  A    between atoms: N_4  and  S_54
    7  A    between atoms: C_9  and  N_16
    8  A    between atoms: O_11  and  C_39
    9  A    between atoms: O_11  and  C_57
   10  A    between atoms: C_14  and  C_33
   11  A    between atoms: C_17  and  C_18
   12  A    between atoms: C_18  and  C_24
   13  A    between atoms: C_19  and  O_30
   14  A    between atoms: C_19  and  C_31
   15  A    between atoms: C_22  and  C_55
   16  A    between atoms: C_22  and  C_57
   17  A    between atoms: C_23  and  C_55
   18  A    between atoms: C_29  and  S_54
   19  A    between atoms: O_30  and  C_41
   20  A    between atoms: C_32  and  C_53
   21  A    between atoms: C_41  and  C_58
   22  A    between atoms: C_42  and  C_58
   23  A    between atoms: C_45  and  C_56
                            x       y       z     vdW  Elec       q    Type
                         _______ _______ _______ _____ _____    ______ ____

>  <TORSDO>
F 23

$$$$
=
 OpenBabel11042412243D

 60 66  0  0  1  0  0  0  0  0999 V2000
  191.0920  177.1890  139.5190 C   0  0  2  0  0  3  0  0  0  0  0  0
  191.7820  178.0960  142.1470 O   0  0  0  0  0  0  0  0  0  0  0  0
  190.9190  176.4310  140.7510 N   0  0  0  0  0  2  0  0  0  0  0  0
  191.3040  176.9350  142.0320 C   0  0  0  0  0  0  0  0  0  0  0  0
  191.1200  176.0860  143.2400 C   0  0  0  0  0  2  0  0  0  0  0  0
  190.0280  176.6120  144.0420 N   0  0  0  0  0  2  0  0  0  0  0  0
  188.5270  176.1690  143.2220 S   0  0  0  0  0  0  0  0  0  0  0  0
  184.1400  177.9010  142.1020 C   0  0  0  0  0  2  0  0  0  0  0  0
  185.3510  177.5680  142.9850 C   0  0  2  0  0  3  0  0  0  0  0  0
  186.2740  178.2530  145.1680 C   0  0  0  0  0  0  0  0  0  0  0  0
  184.3650  179.1640  141.2750 C   0  0  0  0  0  2  0  0  0  0  0  0
  186.7980  178.7010  141.2870 C   0  0  0  0  0  3  0  0  0  0  0  0
  187.8620  177.8590  143.3410 C   0  0  1  0  0  3  0  0  0  0  0  0
  185.6090  178.9720  140.4160 C   0  0  0  0  0  2  0  0  0  0  0  0
  185.1860  178.1060  144.2930 O   0  0  0  0  0  0  0  0  0  0  0  0
  186.6830  178.0110  142.4320 C   0  0  0  0  0  0  0  0  0  0  0  0
  187.4980  178.1580  144.7320 N   0  0  0  0  0  0  0  0  0  0  0  0
  184.5860  178.3800  146.9910 C   0  0  0  0  0  1  0  0  0  0  0  0
  186.0450  178.5820  146.6120 C   0  0  1  0  0  3  0  0  0  0  0  0
  189.3190  177.1890  147.3470 C   0  0  0  0  0  2  0  0  0  0  0  0
  186.9880  177.8620  147.5860 C   0  0  0  0  0  3  0  0  0  0  0  0
  189.1850  178.1120  148.5380 C   0  0  0  0  0  2  0  0  0  0  0  0
  187.9070  176.8470  146.9160 C   0  0  0  0  0  2  0  0  0  0  0  0
  187.8720  178.8350  148.3450 C   0  0  0  0  0  2  0  0  0  0  0  0
  189.9780  176.8260  138.5430 C   0  0  0  0  0  2  0  0  0  0  0  0
  189.0930  178.9580  139.1270 O   0  0  0  0  0  0  0  0  0  0  0  0
  188.9230  177.8800  138.5030 C   0  0  0  0  0  0  0  0  0  0  0  0
  187.7580  177.6540  137.7720 O   0  0  0  0  0  0  0  0  0  0  0  0
  187.2900  176.3440  137.4890 C   0  0  0  0  0  2  0  0  0  0  0  0
  187.2130  176.1470  135.9890 C   0  0  0  0  0  2  0  0  0  0  0  0
  184.2450  174.7300  134.8640 C   0  0  0  0  0  2  0  0  0  0  0  0
  185.4540  175.3590  134.5940 O   0  0  0  0  0  0  0  0  0  0  0  0
  184.2480  174.3830  136.3280 C   0  0  1  0  0  0  0  0  0  0  0  0
  186.2960  174.9850  135.6510 C   0  0  2  0  0  3  0  0  0  0  0  0
  185.5470  174.6260  136.7880 O   0  0  0  0  0  0  0  0  0  0  0  0
  183.7390  175.5060  138.4040 O   0  0  0  0  0  1  0  0  0  0  0  0
  183.2610  175.2700  137.1120 C   0  0  1  0  0  3  0  0  0  0  0  0
  182.9930  176.6020  136.4160 C   0  0  0  0  0  2  0  0  0  0  0  0
  183.6320  177.7340  137.1930 C   0  0  0  0  0  1  0  0  0  0  0  0
  184.4080  172.2690  137.4470 O   0  0  0  0  0  0  0  0  0  0  0  0
  183.9060  172.9130  136.4890 C   0  0  0  0  0  0  0  0  0  0  0  0
  183.0730  172.2190  135.5980 O   0  0  0  0  0  0  0  0  0  0  0  0
  182.2550  171.1120  135.9580 C   0  0  0  0  0  2  0  0  0  0  0  0
  180.9120  171.4860  135.9330 O   0  0  0  0  0  0  0  0  0  0  0  0
  180.6050  171.7800  137.2610 C   0  0  0  0  0  1  0  0  0  0  0  0
  192.4510  176.8580  138.9100 C   0  0  0  0  0  2  0  0  0  0  0  0
  191.8180  174.7850  137.7840 C   0  0  0  0  0  2  0  0  0  0  0  0
  192.7800  174.6860  135.5080 C   0  0  2  0  0  3  0  0  0  0  0  0
  191.4310  172.9000  136.3990 O   0  0  0  0  0  0  0  0  0  0  0  0
  192.3680  175.9800  137.6980 C   0  0  2  0  0  3  0  0  0  0  0  0
  193.0390  176.4090  136.0800 S   0  0  0  0  0  0  0  0  0  0  0  0
  191.9480  174.0350  136.5530 C   0  0  0  0  0  0  0  0  0  0  0  0
  195.2020  174.2450  136.0170 C   0  0  0  0  0  3  0  0  0  0  0  0
  196.0610  173.2260  135.6460 C   0  0  0  0  0  0  0  0  0  0  0  0
  194.0500  173.9770  135.3700 N   0  0  0  0  0  0  0  0  0  0  0  0
  194.1930  172.8640  134.6680 N   0  0  0  0  0  0  0  0  0  0  0  0
  195.4200  172.3880  134.8070 N   0  0  0  0  0  0  0  0  0  0  0  0
  197.6750  173.3750  137.5210 C   0  0  0  0  0  2  0  0  0  0  0  0
  197.4930  173.0710  136.0470 C   0  0  0  0  0  3  0  0  0  0  0  0
  197.6140  171.9400  137.0500 C   0  0  0  0  0  2  0  0  0  0  0  0
  1 25  1  6  0  0  0
  1  3  1  0  0  0  0
  3  4  1  0  0  0  0
  4  2  2  0  0  0  0
  4  5  1  0  0  0  0
  5  6  1  0  0  0  0
  7  6  1  0  0  0  0
  9  8  1  6  0  0  0
  9 15  1  0  0  0  0
 10 19  1  0  0  0  0
 11  8  1  0  0  0  0
 12 16  2  0  0  0  0
 13  7  1  1  0  0  0
 13 17  1  0  0  0  0
 14 11  1  0  0  0  0
 14 12  1  0  0  0  0
 15 10  1  0  0  0  0
 16  9  1  0  0  0  0
 16 13  1  0  0  0  0
 17 10  2  0  0  0  0
 19 18  1  1  0  0  0
 19 21  1  0  0  0  0
 20 22  1  0  0  0  0
 21 24  1  0  0  0  0
 23 20  1  0  0  0  0
 23 21  1  0  0  0  0
 24 22  1  0  0  0  0
 27 25  1  0  0  0  0
 27 26  2  0  0  0  0
 28 27  1  0  0  0  0
 29 28  1  0  0  0  0
 30 29  1  0  0  0  0
 31 33  1  0  0  0  0
 32 31  1  0  0  0  0
 32 34  1  0  0  0  0
 33 41  1  1  0  0  0
 33 35  1  0  0  0  0
 33 37  1  0  0  0  0
 34 30  1  1  0  0  0
 34 35  1  0  0  0  0
 37 36  1  1  0  0  0
 38 37  1  0  0  0  0
 38 39  1  0  0  0  0
 41 40  2  0  0  0  0
 42 43  1  0  0  0  0
 42 41  1  0  0  0  0
 44 43  1  0  0  0  0
 44 45  1  0  0  0  0
 46  1  1  0  0  0  0
 48 55  1  1  0  0  0
 48 51  1  0  0  0  0
 48 52  1  0  0  0  0
 49 52  2  0  0  0  0
 50 47  1  0  0  0  0
 50 46  1  1  0  0  0
 51 50  1  0  0  0  0
 52 47  1  0  0  0  0
 54 53  2  0  0  0  0
 54 59  1  0  0  0  0
 55 53  1  0  0  0  0
 56 57  2  0  0  0  0
 56 55  1  0  0  0  0
 57 54  1  0  0  0  0
 59 60  1  0  0  0  0
 59 58  1  0  0  0  0
 60 58  1  0  0  0  0
M  END
>  <MODEL>
6

>  <REMARK>
 VINA RESULT:      -5.7      3.811     10.112
  Name = 
  23 active torsions:
  status: ('A' for Active; 'I' for Inactive)
    1  A    between atoms: C_1  and  C_31
    2  A    between atoms: C_1  and  N_52
    3  A    between atoms: C_1  and  C_56
    4  A    between atoms: O_3  and  C_39
    5  A    between atoms: N_4  and  C_32
    6  A    between atoms: N_4  and  S_54
    7  A    between atoms: C_9  and  N_16
    8  A    between atoms: O_11  and  C_39
    9  A    between atoms: O_11  and  C_57
   10  A    between atoms: C_14  and  C_33
   11  A    between atoms: C_17  and  C_18
   12  A    between atoms: C_18  and  C_24
   13  A    between atoms: C_19  and  O_30
   14  A    between atoms: C_19  and  C_31
   15  A    between atoms: C_22  and  C_55
   16  A    between atoms: C_22  and  C_57
   17  A    between atoms: C_23  and  C_55
   18  A    between atoms: C_29  and  S_54
   19  A    between atoms: O_30  and  C_41
   20  A    between atoms: C_32  and  C_53
   21  A    between atoms: C_41  and  C_58
   22  A    between atoms: C_42  and  C_58
   23  A    between atoms: C_45  and  C_56
                            x       y       z     vdW  Elec       q    Type
                         _______ _______ _______ _____ _____    ______ ____

>  <TORSDO>
F 23

$$$$
=
 OpenBabel11042412243D

 60 66  0  0  1  0  0  0  0  0999 V2000
  189.9690  177.7920  139.4750 C   0  0  2  0  0  3  0  0  0  0  0  0
  187.4890  176.7290  138.5100 O   0  0  0  0  0  0  0  0  0  0  0  0
  188.7660  178.5650  139.1940 N   0  0  0  0  0  2  0  0  0  0  0  0
  187.5650  177.9740  138.6940 C   0  0  0  0  0  0  0  0  0  0  0  0
  186.3880  178.8380  138.4060 C   0  0  0  0  0  2  0  0  0  0  0  0
  185.1920  178.2360  138.9720 N   0  0  0  0  0  2  0  0  0  0  0  0
  184.9110  179.0170  140.5310 S   0  0  0  0  0  0  0  0  0  0  0  0
  180.2650  179.9460  141.5560 C   0  0  0  0  0  2  0  0  0  0  0  0
  181.4580  179.3450  140.8000 C   0  0  2  0  0  3  0  0  0  0  0  0
  181.8810  177.5260  139.1870 C   0  0  0  0  0  0  0  0  0  0  0  0
  179.9270  179.1530  142.8160 C   0  0  0  0  0  2  0  0  0  0  0  0
  182.3030  178.4760  142.9900 C   0  0  0  0  0  3  0  0  0  0  0  0
  183.5480  177.8860  140.9500 C   0  0  1  0  0  3  0  0  0  0  0  0
  181.1560  179.1130  143.7150 C   0  0  0  0  0  2  0  0  0  0  0  0
  181.0140  178.4610  139.7760 O   0  0  0  0  0  0  0  0  0  0  0  0
  182.4670  178.6310  141.6680 C   0  0  0  0  0  0  0  0  0  0  0  0
  183.0320  177.2500  139.7320 N   0  0  0  0  0  0  0  0  0  0  0  0
  181.4570  177.7100  136.7430 C   0  0  0  0  0  1  0  0  0  0  0  0
  181.4690  176.7870  137.9510 C   0  0  1  0  0  3  0  0  0  0  0  0
  181.5680  173.1740  137.5750 C   0  0  0  0  0  2  0  0  0  0  0  0
  182.2720  175.5070  137.6780 C   0  0  0  0  0  3  0  0  0  0  0  0
  182.2010  173.5630  136.2580 C   0  0  0  0  0  2  0  0  0  0  0  0
  181.8430  174.3180  138.5310 C   0  0  0  0  0  2  0  0  0  0  0  0
  182.1740  175.0740  136.2260 C   0  0  0  0  0  2  0  0  0  0  0  0
  190.4360  177.1030  138.1980 C   0  0  0  0  0  2  0  0  0  0  0  0
  192.6440  176.5880  138.9260 O   0  0  0  0  0  0  0  0  0  0  0  0
  191.5560  176.1550  138.4680 C   0  0  0  0  0  0  0  0  0  0  0  0
  191.3810  174.7980  138.2060 O   0  0  0  0  0  0  0  0  0  0  0  0
  191.8760  174.1910  137.0210 C   0  0  0  0  0  2  0  0  0  0  0  0
  190.9110  174.4450  135.8800 C   0  0  0  0  0  2  0  0  0  0  0  0
  188.0410  172.9310  134.6360 C   0  0  0  0  0  2  0  0  0  0  0  0
  189.4170  173.1140  134.5940 O   0  0  0  0  0  0  0  0  0  0  0  0
  187.5440  173.6210  135.8780 C   0  0  1  0  0  0  0  0  0  0  0  0
  189.7750  173.4380  135.9110 C   0  0  2  0  0  3  0  0  0  0  0  0
  188.6810  173.9780  136.6120 O   0  0  0  0  0  0  0  0  0  0  0  0
  185.6210  175.0040  136.3460 O   0  0  0  0  0  1  0  0  0  0  0  0
  186.7480  174.8940  135.5270 C   0  0  1  0  0  3  0  0  0  0  0  0
  187.5920  176.1610  135.6460 C   0  0  0  0  0  2  0  0  0  0  0  0
  186.8630  177.3320  135.0210 C   0  0  0  0  0  1  0  0  0  0  0  0
  186.9010  172.5270  137.9130 O   0  0  0  0  0  0  0  0  0  0  0  0
  186.6930  172.6490  136.6770 C   0  0  0  0  0  0  0  0  0  0  0  0
  185.6970  171.8500  136.0970 O   0  0  0  0  0  0  0  0  0  0  0  0
  184.6320  171.2420  136.8200 C   0  0  0  0  0  2  0  0  0  0  0  0
  184.0040  170.2840  136.0240 O   0  0  0  0  0  0  0  0  0  0  0  0
  184.7910  170.2120  134.8760 C   0  0  0  0  0  1  0  0  0  0  0  0
  189.6600  176.7520  140.5490 C   0  0  0  0  0  2  0  0  0  0  0  0
  190.7600  176.1990  142.6570 C   0  0  0  0  0  2  0  0  0  0  0  0
  190.5820  178.0680  144.2660 C   0  0  2  0  0  3  0  0  0  0  0  0
  191.6980  176.0090  144.8270 O   0  0  0  0  0  0  0  0  0  0  0  0
  190.1850  177.1150  141.9040 C   0  0  2  0  0  3  0  0  0  0  0  0
  190.0350  178.7490  142.6530 S   0  0  0  0  0  0  0  0  0  0  0  0
  191.0820  176.6990  143.9770 C   0  0  0  0  0  0  0  0  0  0  0  0
  188.1600  177.9260  144.9250 C   0  0  0  0  0  3  0  0  0  0  0  0
  187.5370  177.7590  146.1480 C   0  0  0  0  0  0  0  0  0  0  0  0
  189.4740  178.0040  145.2160 N   0  0  0  0  0  0  0  0  0  0  0  0
  189.6400  177.8760  146.5220 N   0  0  0  0  0  0  0  0  0  0  0  0
  188.4680  177.7370  147.1220 N   0  0  0  0  0  0  0  0  0  0  0  0
  185.4490  179.0460  146.5080 C   0  0  0  0  0  2  0  0  0  0  0  0
  186.0660  177.6650  146.3990 C   0  0  0  0  0  3  0  0  0  0  0  0
  185.3160  178.2620  145.2230 C   0  0  0  0  0  2  0  0  0  0  0  0
  1 25  1  6  0  0  0
  1 46  1  0  0  0  0
  2  4  2  0  0  0  0
  3  1  1  0  0  0  0
  4  3  1  0  0  0  0
  5  4  1  0  0  0  0
  5  6  1  0  0  0  0
  6  7  1  0  0  0  0
  8 11  1  0  0  0  0
  9  8  1  1  0  0  0
  9 16  1  0  0  0  0
 10 17  2  0  0  0  0
 10 15  1  0  0  0  0
 11 14  1  0  0  0  0
 12 14  1  0  0  0  0
 13  7  1  6  0  0  0
 13 16  1  0  0  0  0
 15  9  1  0  0  0  0
 16 12  2  0  0  0  0
 17 13  1  0  0  0  0
 19 18  1  6  0  0  0
 19 10  1  0  0  0  0
 20 23  1  0  0  0  0
 21 19  1  0  0  0  0
 21 23  1  0  0  0  0
 22 20  1  0  0  0  0
 24 22  1  0  0  0  0
 24 21  1  0  0  0  0
 25 27  1  0  0  0  0
 27 26  2  0  0  0  0
 28 27  1  0  0  0  0
 29 28  1  0  0  0  0
 30 29  1  0  0  0  0
 31 33  1  0  0  0  0
 32 31  1  0  0  0  0
 32 34  1  0  0  0  0
 33 35  1  0  0  0  0
 33 41  1  1  0  0  0
 34 30  1  6  0  0  0
 34 35  1  0  0  0  0
 37 38  1  0  0  0  0
 37 33  1  0  0  0  0
 37 36  1  1  0  0  0
 39 38  1  0  0  0  0
 41 40  2  0  0  0  0
 42 41  1  0  0  0  0
 42 43  1  0  0  0  0
 44 43  1  0  0  0  0
 45 44  1  0  0  0  0
 47 52  1  0  0  0  0
 48 55  1  1  0  0  0
 50 46  1  1  0  0  0
 50 51  1  0  0  0  0
 50 47  1  0  0  0  0
 51 48  1  0  0  0  0
 52 48  1  0  0  0  0
 52 49  2  0  0  0  0
 53 55  1  0  0  0  0
 53 54  2  0  0  0  0
 54 59  1  0  0  0  0
 54 57  1  0  0  0  0
 55 56  1  0  0  0  0
 56 57  2  0  0  0  0
 59 58  1  0  0  0  0
 60 59  1  0  0  0  0
 60 58  1  0  0  0  0
M  END
>  <MODEL>
7

>  <REMARK>
 VINA RESULT:      -5.6      2.818      5.308
  Name = 
  23 active torsions:
  status: ('A' for Active; 'I' for Inactive)
    1  A    between atoms: C_1  and  C_31
    2  A    between atoms: C_1  and  N_52
    3  A    between atoms: C_1  and  C_56
    4  A    between atoms: O_3  and  C_39
    5  A    between atoms: N_4  and  C_32
    6  A    between atoms: N_4  and  S_54
    7  A    between atoms: C_9  and  N_16
    8  A    between atoms: O_11  and  C_39
    9  A    between atoms: O_11  and  C_57
   10  A    between atoms: C_14  and  C_33
   11  A    between atoms: C_17  and  C_18
   12  A    between atoms: C_18  and  C_24
   13  A    between atoms: C_19  and  O_30
   14  A    between atoms: C_19  and  C_31
   15  A    between atoms: C_22  and  C_55
   16  A    between atoms: C_22  and  C_57
   17  A    between atoms: C_23  and  C_55
   18  A    between atoms: C_29  and  S_54
   19  A    between atoms: O_30  and  C_41
   20  A    between atoms: C_32  and  C_53
   21  A    between atoms: C_41  and  C_58
   22  A    between atoms: C_42  and  C_58
   23  A    between atoms: C_45  and  C_56
                            x       y       z     vdW  Elec       q    Type
                         _______ _______ _______ _____ _____    ______ ____

>  <TORSDO>
F 23

$$$$
=
 OpenBabel11042412243D

 60 66  0  0  1  0  0  0  0  0999 V2000
  187.0910  178.7860  141.7140 C   0  0  2  0  0  3  0  0  0  0  0  0
  184.2390  178.7940  141.4480 O   0  0  0  0  0  0  0  0  0  0  0  0
  186.3550  179.0450  140.4850 N   0  0  0  0  0  2  0  0  0  0  0  0
  184.9280  179.0140  140.4150 C   0  0  0  0  0  0  0  0  0  0  0  0
  184.2510  179.2630  139.1120 C   0  0  0  0  0  2  0  0  0  0  0  0
  182.8100  179.2080  139.2940 N   0  0  0  0  0  2  0  0  0  0  0  0
  182.1370  178.4590  137.8430 S   0  0  0  0  0  0  0  0  0  0  0  0
  179.7820  174.2530  137.3310 C   0  0  0  0  0  2  0  0  0  0  0  0
  180.9280  175.2640  137.1860 C   0  0  2  0  0  3  0  0  0  0  0  0
  183.3340  175.2440  136.6400 C   0  0  0  0  0  0  0  0  0  0  0  0
  179.7830  173.5800  138.7010 C   0  0  0  0  0  2  0  0  0  0  0  0
  180.8290  175.6090  139.6620 C   0  0  0  0  0  3  0  0  0  0  0  0
  182.5840  176.7830  138.3960 C   0  0  1  0  0  3  0  0  0  0  0  0
  179.6780  174.6560  139.7760 C   0  0  0  0  0  2  0  0  0  0  0  0
  182.0590  174.6590  136.5680 O   0  0  0  0  0  0  0  0  0  0  0  0
  181.3600  175.9260  138.4720 C   0  0  0  0  0  0  0  0  0  0  0  0
  183.5800  176.2030  137.4870 N   0  0  0  0  0  0  0  0  0  0  0  0
  185.6590  175.6520  135.8560 C   0  0  0  0  0  1  0  0  0  0  0  0
  184.4500  174.7330  135.7820 C   0  0  1  0  0  3  0  0  0  0  0  0
  183.5050  171.3900  136.8460 C   0  0  0  0  0  2  0  0  0  0  0  0
  184.8340  173.2690  136.0410 C   0  0  0  0  0  3  0  0  0  0  0  0
  184.0840  171.0490  135.4910 C   0  0  0  0  0  2  0  0  0  0  0  0
  184.1810  172.6730  137.2840 C   0  0  0  0  0  2  0  0  0  0  0  0
  184.4740  172.3710  134.8720 C   0  0  0  0  0  2  0  0  0  0  0  0
  188.5730  178.6260  141.3920 C   0  0  0  0  0  2  0  0  0  0  0  0
  188.9890  179.2240  139.1260 O   0  0  0  0  0  0  0  0  0  0  0  0
  188.7860  178.2990  139.9520 C   0  0  0  0  0  0  0  0  0  0  0  0
  188.7540  176.9680  139.5410 O   0  0  0  0  0  0  0  0  0  0  0  0
  188.6000  176.6070  138.1760 C   0  0  0  0  0  2  0  0  0  0  0  0
  189.4500  175.3880  137.8750 C   0  0  0  0  0  2  0  0  0  0  0  0
  192.6620  176.3820  136.9950 C   0  0  0  0  0  2  0  0  0  0  0  0
  191.3460  176.7060  137.3000 O   0  0  0  0  0  0  0  0  0  0  0  0
  192.8340  174.9160  137.2890 C   0  0  1  0  0  0  0  0  0  0  0  0
  190.9140  175.6800  138.1530 C   0  0  2  0  0  3  0  0  0  0  0  0
  191.6750  174.5110  137.9600 O   0  0  0  0  0  0  0  0  0  0  0  0
  191.7280  173.9250  135.3850 O   0  0  0  0  0  1  0  0  0  0  0  0
  192.9770  174.1010  135.9880 C   0  0  1  0  0  3  0  0  0  0  0  0
  193.9370  174.7500  134.9950 C   0  0  0  0  0  2  0  0  0  0  0  0
  195.0420  173.7800  134.6300 C   0  0  0  0  0  1  0  0  0  0  0  0
  194.4630  175.7090  138.8590 O   0  0  0  0  0  0  0  0  0  0  0  0
  194.0460  174.7310  138.1850 C   0  0  0  0  0  0  0  0  0  0  0  0
  194.7490  173.5200  138.2800 O   0  0  0  0  0  0  0  0  0  0  0  0
  196.1670  173.4160  138.3350 C   0  0  0  0  0  2  0  0  0  0  0  0
  196.6910  173.3770  137.0430 O   0  0  0  0  0  0  0  0  0  0  0  0
  197.5290  172.2640  137.0380 C   0  0  0  0  0  1  0  0  0  0  0  0
  186.5560  177.5120  142.3630 C   0  0  0  0  0  2  0  0  0  0  0  0
  186.1230  178.8170  144.3810 C   0  0  0  0  0  2  0  0  0  0  0  0
  186.4250  177.4360  146.4100 C   0  0  2  0  0  3  0  0  0  0  0  0
  185.8080  179.7610  146.5340 O   0  0  0  0  0  0  0  0  0  0  0  0
  186.3450  177.6360  143.8420 C   0  0  2  0  0  3  0  0  0  0  0  0
  186.4360  176.2590  145.0030 S   0  0  0  0  0  0  0  0  0  0  0  0
  186.0780  178.7580  145.8270 C   0  0  0  0  0  0  0  0  0  0  0  0
  188.9150  177.1090  146.5330 C   0  0  0  0  0  3  0  0  0  0  0  0
  189.8600  177.4980  147.4660 C   0  0  0  0  0  0  0  0  0  0  0  0
  187.7360  177.5050  147.0530 N   0  0  0  0  0  0  0  0  0  0  0  0
  187.9500  178.1070  148.2110 N   0  0  0  0  0  0  0  0  0  0  0  0
  189.2420  178.1060  148.4970 N   0  0  0  0  0  0  0  0  0  0  0  0
  191.6390  175.7710  147.4600 C   0  0  0  0  0  2  0  0  0  0  0  0
  191.3340  177.2560  147.4020 C   0  0  0  0  0  3  0  0  0  0  0  0
  191.6640  176.4940  146.1330 C   0  0  0  0  0  2  0  0  0  0  0  0
  1 25  1  6  0  0  0
  1 46  1  0  0  0  0
  3  1  1  0  0  0  0
  4  3  1  0  0  0  0
  4  2  2  0  0  0  0
  5  6  1  0  0  0  0
  5  4  1  0  0  0  0
  7  6  1  0  0  0  0
  8 11  1  0  0  0  0
  9  8  1  1  0  0  0
  9 16  1  0  0  0  0
 10 17  2  0  0  0  0
 11 14  1  0  0  0  0
 12 14  1  0  0  0  0
 13  7  1  6  0  0  0
 13 16  1  0  0  0  0
 15 10  1  0  0  0  0
 15  9  1  0  0  0  0
 16 12  2  0  0  0  0
 17 13  1  0  0  0  0
 19 18  1  1  0  0  0
 19 21  1  0  0  0  0
 19 10  1  0  0  0  0
 20 23  1  0  0  0  0
 21 23  1  0  0  0  0
 22 20  1  0  0  0  0
 24 22  1  0  0  0  0
 24 21  1  0  0  0  0
 26 27  2  0  0  0  0
 27 25  1  0  0  0  0
 28 27  1  0  0  0  0
 29 28  1  0  0  0  0
 30 29  1  0  0  0  0
 31 33  1  0  0  0  0
 31 32  1  0  0  0  0
 32 34  1  0  0  0  0
 33 35  1  0  0  0  0
 33 41  1  1  0  0  0
 34 30  1  6  0  0  0
 35 34  1  0  0  0  0
 37 36  1  6  0  0  0
 37 33  1  0  0  0  0
 38 37  1  0  0  0  0
 39 38  1  0  0  0  0
 41 42  1  0  0  0  0
 41 40  2  0  0  0  0
 42 43  1  0  0  0  0
 44 43  1  0  0  0  0
 45 44  1  0  0  0  0
 47 52  1  0  0  0  0
 48 55  1  6  0  0  0
 50 46  1  1  0  0  0
 50 47  1  0  0  0  0
 50 51  1  0  0  0  0
 51 48  1  0  0  0  0
 52 48  1  0  0  0  0
 52 49  2  0  0  0  0
 53 55  1  0  0  0  0
 53 54  2  0  0  0  0
 54 57  1  0  0  0  0
 55 56  1  0  0  0  0
 56 57  2  0  0  0  0
 59 58  1  0  0  0  0
 59 54  1  0  0  0  0
 60 59  1  0  0  0  0
 60 58  1  0  0  0  0
M  END
>  <MODEL>
8

>  <REMARK>
 VINA RESULT:      -5.5      2.761      4.553
  Name = 
  23 active torsions:
  status: ('A' for Active; 'I' for Inactive)
    1  A    between atoms: C_1  and  C_31
    2  A    between atoms: C_1  and  N_52
    3  A    between atoms: C_1  and  C_56
    4  A    between atoms: O_3  and  C_39
    5  A    between atoms: N_4  and  C_32
    6  A    between atoms: N_4  and  S_54
    7  A    between atoms: C_9  and  N_16
    8  A    between atoms: O_11  and  C_39
    9  A    between atoms: O_11  and  C_57
   10  A    between atoms: C_14  and  C_33
   11  A    between atoms: C_17  and  C_18
   12  A    between atoms: C_18  and  C_24
   13  A    between atoms: C_19  and  O_30
   14  A    between atoms: C_19  and  C_31
   15  A    between atoms: C_22  and  C_55
   16  A    between atoms: C_22  and  C_57
   17  A    between atoms: C_23  and  C_55
   18  A    between atoms: C_29  and  S_54
   19  A    between atoms: O_30  and  C_41
   20  A    between atoms: C_32  and  C_53
   21  A    between atoms: C_41  and  C_58
   22  A    between atoms: C_42  and  C_58
   23  A    between atoms: C_45  and  C_56
                            x       y       z     vdW  Elec       q    Type
                         _______ _______ _______ _____ _____    ______ ____

>  <TORSDO>
F 23

$$$$
=
 OpenBabel11042412243D

 60 66  0  0  1  0  0  0  0  0999 V2000
  184.6360  178.4070  142.6690 C   0  0  2  0  0  3  0  0  0  0  0  0
  184.7730  179.3400  145.3750 O   0  0  0  0  0  0  0  0  0  0  0  0
  185.3010  177.7230  143.7710 N   0  0  0  0  0  2  0  0  0  0  0  0
  185.3500  178.2540  145.0970 C   0  0  0  0  0  0  0  0  0  0  0  0
  186.0730  177.5060  146.1610 C   0  0  0  0  0  2  0  0  0  0  0  0
  187.1450  178.3310  146.6930 N   0  0  0  0  0  2  0  0  0  0  0  0
  188.0060  177.3500  147.8830 S   0  0  0  0  0  0  0  0  0  0  0  0
  192.0310  174.9820  146.5830 C   0  0  0  0  0  2  0  0  0  0  0  0
  190.8350  175.9320  146.4370 C   0  0  2  0  0  3  0  0  0  0  0  0
  190.1310  177.7840  144.9670 C   0  0  0  0  0  0  0  0  0  0  0  0
  193.1850  175.6280  147.3440 C   0  0  0  0  0  2  0  0  0  0  0  0
  191.5520  177.0330  148.5670 C   0  0  0  0  0  3  0  0  0  0  0  0
  189.6300  177.9850  147.3590 C   0  0  1  0  0  3  0  0  0  0  0  0
  192.6850  176.0630  148.7160 C   0  0  0  0  0  2  0  0  0  0  0  0
  190.8880  176.6220  145.1930 O   0  0  0  0  0  0  0  0  0  0  0  0
  190.6780  176.9340  147.5540 C   0  0  0  0  0  0  0  0  0  0  0  0
  189.5700  178.4180  145.9580 N   0  0  0  0  0  0  0  0  0  0  0  0
  190.9280  179.5440  143.3990 C   0  0  0  0  0  1  0  0  0  0  0  0
  190.0070  178.3480  143.5850 C   0  0  1  0  0  3  0  0  0  0  0  0
  189.7500  177.4850  140.0640 C   0  0  0  0  0  2  0  0  0  0  0  0
  190.1820  177.3190  142.4590 C   0  0  0  0  0  3  0  0  0  0  0  0
  191.2040  177.1300  140.2860 C   0  0  0  0  0  2  0  0  0  0  0  0
  189.0720  177.3550  141.4140 C   0  0  0  0  0  2  0  0  0  0  0  0
  191.4970  177.5020  141.7220 C   0  0  0  0  0  2  0  0  0  0  0  0
  185.6850  179.0320  141.7570 C   0  0  0  0  0  2  0  0  0  0  0  0
  184.2080  178.6260  139.9350 O   0  0  0  0  0  0  0  0  0  0  0  0
  185.3980  178.7500  140.3210 C   0  0  0  0  0  0  0  0  0  0  0  0
  186.4560  178.6250  139.4230 O   0  0  0  0  0  0  0  0  0  0  0  0
  186.3250  177.9150  138.2010 C   0  0  0  0  0  2  0  0  0  0  0  0
  187.1940  178.5640  137.1420 C   0  0  0  0  0  2  0  0  0  0  0  0
  188.6500  176.2710  134.9730 C   0  0  0  0  0  2  0  0  0  0  0  0
  188.3260  177.5840  135.2930 O   0  0  0  0  0  0  0  0  0  0  0  0
  188.3260  175.4320  136.1800 C   0  0  1  0  0  0  0  0  0  0  0  0
  188.2880  177.6110  136.6950 C   0  0  2  0  0  3  0  0  0  0  0  0
  188.0400  176.3270  137.2170 O   0  0  0  0  0  0  0  0  0  0  0  0
  187.4540  173.4070  135.1980 O   0  0  0  0  0  1  0  0  0  0  0  0
  187.0920  174.5430  135.9250 C   0  0  1  0  0  3  0  0  0  0  0  0
  186.3990  174.1230  137.2190 C   0  0  0  0  0  2  0  0  0  0  0  0
  185.0660  173.4740  136.9080 C   0  0  0  0  0  1  0  0  0  0  0  0
  189.5180  173.9050  137.5930 O   0  0  0  0  0  0  0  0  0  0  0  0
  189.5390  174.5910  136.5380 C   0  0  0  0  0  0  0  0  0  0  0  0
  190.7060  174.5620  135.7590 O   0  0  0  0  0  0  0  0  0  0  0  0
  191.9900  174.1950  136.2490 C   0  0  0  0  0  2  0  0  0  0  0  0
  192.9760  174.6110  135.3550 O   0  0  0  0  0  0  0  0  0  0  0  0
  193.0400  175.9940  135.5220 C   0  0  0  0  0  1  0  0  0  0  0  0
  183.7160  179.4880  143.2300 C   0  0  0  0  0  2  0  0  0  0  0  0
  181.5450  178.6290  143.9430 C   0  0  0  0  0  2  0  0  0  0  0  0
  179.9440  178.5940  142.0580 C   0  0  2  0  0  3  0  0  0  0  0  0
  179.3340  177.8320  144.2600 O   0  0  0  0  0  0  0  0  0  0  0  0
  182.2610  179.2130  143.0030 C   0  0  2  0  0  3  0  0  0  0  0  0
  181.3820  179.5680  141.4690 S   0  0  0  0  0  0  0  0  0  0  0  0
  180.2020  178.3260  143.4970 C   0  0  0  0  0  0  0  0  0  0  0  0
  180.5480  176.9430  140.2610 C   0  0  0  0  0  3  0  0  0  0  0  0
  180.1550  175.6380  140.0260 C   0  0  0  0  0  0  0  0  0  0  0  0
  179.8260  177.3320  141.3310 N   0  0  0  0  0  0  0  0  0  0  0  0
  179.0610  176.3290  141.7290 N   0  0  0  0  0  0  0  0  0  0  0  0
  179.2320  175.2800  140.9400 N   0  0  0  0  0  0  0  0  0  0  0  0
  179.8670  175.0510  137.6340 C   0  0  0  0  0  2  0  0  0  0  0  0
  180.6190  174.7490  138.9160 C   0  0  0  0  0  3  0  0  0  0  0  0
  181.2650  175.5910  137.8330 C   0  0  0  0  0  2  0  0  0  0  0  0
  1 25  1  6  0  0  0
  1 46  1  0  0  0  0
  1  3  1  0  0  0  0
  3  4  1  0  0  0  0
  4  2  2  0  0  0  0
  4  5  1  0  0  0  0
  5  6  1  0  0  0  0
  6  7  1  0  0  0  0
  8 11  1  0  0  0  0
  9  8  1  1  0  0  0
  9 16  1  0  0  0  0
 10 15  1  0  0  0  0
 10 17  2  0  0  0  0
 11 14  1  0  0  0  0
 12 14  1  0  0  0  0
 13 16  1  0  0  0  0
 13  7  1  6  0  0  0
 15  9  1  0  0  0  0
 16 12  2  0  0  0  0
 17 13  1  0  0  0  0
 19 18  1  6  0  0  0
 19 10  1  0  0  0  0
 20 22  1  0  0  0  0
 20 23  1  0  0  0  0
 21 19  1  0  0  0  0
 22 24  1  0  0  0  0
 23 21  1  0  0  0  0
 24 21  1  0  0  0  0
 26 27  2  0  0  0  0
 27 25  1  0  0  0  0
 28 27  1  0  0  0  0
 29 28  1  0  0  0  0
 30 29  1  0  0  0  0
 31 32  1  0  0  0  0
 31 33  1  0  0  0  0
 32 34  1  0  0  0  0
 33 41  1  1  0  0  0
 33 35  1  0  0  0  0
 34 30  1  6  0  0  0
 34 35  1  0  0  0  0
 37 36  1  1  0  0  0
 37 33  1  0  0  0  0
 37 38  1  0  0  0  0
 39 38  1  0  0  0  0
 41 40  2  0  0  0  0
 42 43  1  0  0  0  0
 42 41  1  0  0  0  0
 44 45  1  0  0  0  0
 44 43  1  0  0  0  0
 48 55  1  6  0  0  0
 48 52  1  0  0  0  0
 50 46  1  6  0  0  0
 50 47  1  0  0  0  0
 51 48  1  0  0  0  0
 51 50  1  0  0  0  0
 52 47  1  0  0  0  0
 52 49  2  0  0  0  0
 53 55  1  0  0  0  0
 54 53  2  0  0  0  0
 54 57  1  0  0  0  0
 55 56  1  0  0  0  0
 57 56  2  0  0  0  0
 58 60  1  0  0  0  0
 58 59  1  0  0  0  0
 59 54  1  0  0  0  0
 60 59  1  0  0  0  0
M  END
>  <MODEL>
9

>  <REMARK>
 VINA RESULT:      -5.5      2.784      9.095
  Name = 
  23 active torsions:
  status: ('A' for Active; 'I' for Inactive)
    1  A    between atoms: C_1  and  C_31
    2  A    between atoms: C_1  and  N_52
    3  A    between atoms: C_1  and  C_56
    4  A    between atoms: O_3  and  C_39
    5  A    between atoms: N_4  and  C_32
    6  A    between atoms: N_4  and  S_54
    7  A    between atoms: C_9  and  N_16
    8  A    between atoms: O_11  and  C_39
    9  A    between atoms: O_11  and  C_57
   10  A    between atoms: C_14  and  C_33
   11  A    between atoms: C_17  and  C_18
   12  A    between atoms: C_18  and  C_24
   13  A    between atoms: C_19  and  O_30
   14  A    between atoms: C_19  and  C_31
   15  A    between atoms: C_22  and  C_55
   16  A    between atoms: C_22  and  C_57
   17  A    between atoms: C_23  and  C_55
   18  A    between atoms: C_29  and  S_54
   19  A    between atoms: O_30  and  C_41
   20  A    between atoms: C_32  and  C_53
   21  A    between atoms: C_41  and  C_58
   22  A    between atoms: C_42  and  C_58
   23  A    between atoms: C_45  and  C_56
                            x       y       z     vdW  Elec       q    Type
                         _______ _______ _______ _____ _____    ______ ____

>  <TORSDO>
F 23

$$$$
