=
 OpenBabel11042411223D

 25 27  0  0  1  0  0  0  0  0999 V2000
  185.3750  178.6320  146.9760 S   0  0  0  0  0  0  0  0  0  0  0  0
  187.2490  177.5000  145.5090 N   0  0  0  0  0  0  0  0  0  0  0  0
  186.1860  177.7980  144.6490 C   0  0  0  0  0  0  0  0  0  0  0  0
  187.9860  177.3290  143.3290 C   0  0  0  0  0  0  0  0  0  0  0  0
  185.1590  178.4180  145.2020 C   0  0  2  0  0  3  0  0  0  0  0  0
  187.1260  178.0940  146.8240 C   0  0  0  0  0  2  0  0  0  0  0  0
  188.4670  177.2990  144.7550 C   0  0  0  0  0  3  0  0  0  0  0  0
  188.7400  177.1870  142.2780 N   0  0  0  0  0  2  0  0  0  0  0  0
  186.5330  177.6680  143.2130 C   0  0  0  0  0  3  0  0  0  0  0  0
  182.9540  179.2510  145.2700 F   0  0  0  0  0  0  0  0  0  0  0  0
  184.0300  179.0330  144.4280 C   0  0  0  0  0  0  0  0  0  0  0  0
  184.4250  180.2420  143.8850 F   0  0  0  0  0  0  0  0  0  0  0  0
  183.6460  178.1870  143.4040 F   0  0  0  0  0  0  0  0  0  0  0  0
  190.1130  176.8670  142.2980 N   0  0  0  0  0  0  0  0  0  0  0  0
  191.0420  177.7240  141.5830 C   0  0  0  0  0  2  0  0  0  0  0  0
  191.5070  177.0370  140.3130 C   0  0  0  0  0  2  0  0  0  0  0  0
  189.1660  176.6490  137.6090 N   0  0  0  0  0  0  0  0  0  0  0  0
  189.6400  178.2250  139.1360 N   0  0  0  0  0  0  0  0  0  0  0  0
  190.4610  177.1650  139.2590 C   0  0  0  0  0  0  0  0  0  0  0  0
  188.8470  177.8700  138.0940 C   0  0  0  0  0  3  0  0  0  0  0  0
  190.8000  174.9880  138.1960 N   0  0  0  0  0  1  0  0  0  0  0  0
  190.1700  176.2270  138.3510 N   0  0  0  0  0  0  0  0  0  0  0  0
  190.6260  175.6120  142.8370 C   0  0  0  0  0  2  0  0  0  0  0  0
  191.7010  175.8880  143.8710 C   0  0  0  0  0  2  0  0  0  0  0  0
  192.2790  174.6960  144.2630 F   0  0  0  0  0  0  0  0  0  0  0  0
  2  6  1  0  0  0  0
  3  5  1  0  0  0  0
  3  2  1  0  0  0  0
  4  7  2  0  0  0  0
  5 11  1  6  0  0  0
  5  1  1  0  0  0  0
  6  1  1  0  0  0  0
  7  2  1  0  0  0  0
  8 14  1  0  0  0  0
  8  4  1  0  0  0  0
  9  4  1  0  0  0  0
  9  3  2  0  0  0  0
 11 10  1  0  0  0  0
 12 11  1  0  0  0  0
 13 11  1  0  0  0  0
 14 23  1  0  0  0  0
 15 14  1  0  0  0  0
 16 15  1  0  0  0  0
 17 20  2  0  0  0  0
 17 22  1  0  0  0  0
 18 19  2  0  0  0  0
 19 16  1  0  0  0  0
 20 18  1  0  0  0  0
 21 22  1  0  0  0  0
 22 19  1  0  0  0  0
 23 24  1  0  0  0  0
 24 25  1  0  0  0  0
M  END
>  <MODEL>
1

>  <REMARK>
 VINA RESULT:      -7.1      0.000      0.000
  Name = 
  7 active torsions:
  status: ('A' for Active; 'I' for Inactive)
    1  A    between atoms: C_6  and  C_10
    2  A    between atoms: C_6  and  C_14
    3  A    between atoms: C_8  and  C_11
    4  A    between atoms: C_14  and  N_23
    5  A    between atoms: C_16  and  C_18
    6  A    between atoms: C_18  and  N_23
    7  A    between atoms: N_21  and  N_23
                            x       y       z     vdW  Elec       q    Type
                         _______ _______ _______ _____ _____    ______ ____

>  <TORSDO>
F 7

$$$$
=
 OpenBabel11042411223D

 25 27  0  0  1  0  0  0  0  0999 V2000
  190.5070  176.3150  136.8980 S   0  0  0  0  0  0  0  0  0  0  0  0
  190.4030  176.9170  139.4620 N   0  0  0  0  0  0  0  0  0  0  0  0
  189.5190  177.7810  138.8070 C   0  0  0  0  0  0  0  0  0  0  0  0
  189.0430  177.9200  141.0340 C   0  0  0  0  0  0  0  0  0  0  0  0
  189.4000  177.5980  137.5040 C   0  0  2  0  0  3  0  0  0  0  0  0
  190.8960  175.8380  138.6310 C   0  0  0  0  0  2  0  0  0  0  0  0
  190.0960  176.8560  140.8750 C   0  0  0  0  0  3  0  0  0  0  0  0
  188.4560  178.2350  142.1510 N   0  0  0  0  0  2  0  0  0  0  0  0
  188.6260  178.5240  139.7290 C   0  0  0  0  0  3  0  0  0  0  0  0
  188.4200  179.6230  136.7950 F   0  0  0  0  0  0  0  0  0  0  0  0
  188.3460  178.2480  136.6550 C   0  0  0  0  0  0  0  0  0  0  0  0
  188.5360  177.9230  135.3250 F   0  0  0  0  0  0  0  0  0  0  0  0
  187.0930  177.8150  137.0480 F   0  0  0  0  0  0  0  0  0  0  0  0
  188.7870  177.7160  143.4200 N   0  0  0  0  0  0  0  0  0  0  0  0
  187.8240  176.8700  144.1030 C   0  0  0  0  0  2  0  0  0  0  0  0
  187.2910  177.5830  145.3330 C   0  0  0  0  0  2  0  0  0  0  0  0
  184.1060  179.2540  145.3020 N   0  0  0  0  0  0  0  0  0  0  0  0
  185.3210  178.0430  143.8540 N   0  0  0  0  0  0  0  0  0  0  0  0
  185.9440  178.1490  145.0430 C   0  0  0  0  0  0  0  0  0  0  0  0
  184.1750  178.7410  144.0520 C   0  0  0  0  0  3  0  0  0  0  0  0
  185.5610  179.2090  147.2130 N   0  0  0  0  0  1  0  0  0  0  0  0
  185.2180  178.8760  145.8990 N   0  0  0  0  0  0  0  0  0  0  0  0
  189.9660  178.1420  144.1670 C   0  0  0  0  0  2  0  0  0  0  0  0
  190.8480  176.9470  144.4760 C   0  0  0  0  0  2  0  0  0  0  0  0
  190.6580  176.5640  145.7890 F   0  0  0  0  0  0  0  0  0  0  0  0
  1  5  1  0  0  0  0
  1  6  1  0  0  0  0
  2  7  1  0  0  0  0
  3  2  1  0  0  0  0
  3  9  2  0  0  0  0
  4  8  1  0  0  0  0
  5 11  1  1  0  0  0
  5  3  1  0  0  0  0
  6  2  1  0  0  0  0
  7  4  2  0  0  0  0
  8 14  1  0  0  0  0
  9  4  1  0  0  0  0
 11 10  1  0  0  0  0
 11 13  1  0  0  0  0
 12 11  1  0  0  0  0
 14 15  1  0  0  0  0
 14 23  1  0  0  0  0
 15 16  1  0  0  0  0
 17 22  1  0  0  0  0
 18 20  1  0  0  0  0
 18 19  2  0  0  0  0
 19 16  1  0  0  0  0
 19 22  1  0  0  0  0
 20 17  2  0  0  0  0
 22 21  1  0  0  0  0
 23 24  1  0  0  0  0
 24 25  1  0  0  0  0
M  END
>  <MODEL>
2

>  <REMARK>
 VINA RESULT:      -7.1      4.069      7.229
  Name = 
  7 active torsions:
  status: ('A' for Active; 'I' for Inactive)
    1  A    between atoms: C_6  and  C_10
    2  A    between atoms: C_6  and  C_14
    3  A    between atoms: C_8  and  C_11
    4  A    between atoms: C_14  and  N_23
    5  A    between atoms: C_16  and  C_18
    6  A    between atoms: C_18  and  N_23
    7  A    between atoms: N_21  and  N_23
                            x       y       z     vdW  Elec       q    Type
                         _______ _______ _______ _____ _____    ______ ____

>  <TORSDO>
F 7

$$$$
=
 OpenBabel11042411223D

 25 27  0  0  1  0  0  0  0  0999 V2000
  189.9530  176.0930  136.7100 S   0  0  0  0  0  0  0  0  0  0  0  0
  190.2360  176.8860  139.2070 N   0  0  0  0  0  0  0  0  0  0  0  0
  189.1560  177.5990  138.6760 C   0  0  0  0  0  0  0  0  0  0  0  0
  189.0680  177.8660  140.9400 C   0  0  0  0  0  0  0  0  0  0  0  0
  188.8300  177.3010  137.4310 C   0  0  2  0  0  3  0  0  0  0  0  0
  190.6950  175.8000  138.3660 C   0  0  0  0  0  2  0  0  0  0  0  0
  190.1920  176.9070  140.6530 C   0  0  0  0  0  3  0  0  0  0  0  0
  188.6560  178.2080  142.1250 N   0  0  0  0  0  2  0  0  0  0  0  0
  188.3600  178.3180  139.7000 C   0  0  0  0  0  3  0  0  0  0  0  0
  186.4730  177.3330  137.4660 F   0  0  0  0  0  0  0  0  0  0  0  0
  187.5750  177.7690  136.7530 C   0  0  0  0  0  0  0  0  0  0  0  0
  187.5510  179.1510  136.6930 F   0  0  0  0  0  0  0  0  0  0  0  0
  187.5190  177.2640  135.4670 F   0  0  0  0  0  0  0  0  0  0  0  0
  189.2620  177.8300  143.3400 N   0  0  0  0  0  0  0  0  0  0  0  0
  188.6100  176.8300  144.1680 C   0  0  0  0  0  2  0  0  0  0  0  0
  187.4020  177.4390  144.8570 C   0  0  0  0  0  2  0  0  0  0  0  0
  187.4690  178.3060  148.3470 N   0  0  0  0  0  0  0  0  0  0  0  0
  188.7860  177.1690  146.9290 N   0  0  0  0  0  0  0  0  0  0  0  0
  187.7070  177.6680  146.2980 C   0  0  0  0  0  0  0  0  0  0  0  0
  188.6080  177.5910  148.2060 C   0  0  0  0  0  3  0  0  0  0  0  0
  185.7120  178.9710  146.8500 N   0  0  0  0  0  1  0  0  0  0  0  0
  186.9230  178.3390  147.1490 N   0  0  0  0  0  0  0  0  0  0  0  0
  190.4130  178.5290  143.9020 C   0  0  0  0  0  2  0  0  0  0  0  0
  191.5620  177.5610  144.1120 C   0  0  0  0  0  2  0  0  0  0  0  0
  191.7120  177.3130  145.4630 F   0  0  0  0  0  0  0  0  0  0  0  0
  1  5  1  0  0  0  0
  1  6  1  0  0  0  0
  2  7  1  0  0  0  0
  3  2  1  0  0  0  0
  3  9  2  0  0  0  0
  4  8  1  0  0  0  0
  5 11  1  1  0  0  0
  5  3  1  0  0  0  0
  6  2  1  0  0  0  0
  7  4  2  0  0  0  0
  8 14  1  0  0  0  0
  9  4  1  0  0  0  0
 11 10  1  0  0  0  0
 12 11  1  0  0  0  0
 13 11  1  0  0  0  0
 14 23  1  0  0  0  0
 14 15  1  0  0  0  0
 15 16  1  0  0  0  0
 16 19  1  0  0  0  0
 18 20  1  0  0  0  0
 19 18  2  0  0  0  0
 19 22  1  0  0  0  0
 20 17  2  0  0  0  0
 21 22  1  0  0  0  0
 22 17  1  0  0  0  0
 23 24  1  0  0  0  0
 24 25  1  0  0  0  0
M  END
>  <MODEL>
3

>  <REMARK>
 VINA RESULT:      -7.1      3.924      7.360
  Name = 
  7 active torsions:
  status: ('A' for Active; 'I' for Inactive)
    1  A    between atoms: C_6  and  C_10
    2  A    between atoms: C_6  and  C_14
    3  A    between atoms: C_8  and  C_11
    4  A    between atoms: C_14  and  N_23
    5  A    between atoms: C_16  and  C_18
    6  A    between atoms: C_18  and  N_23
    7  A    between atoms: N_21  and  N_23
                            x       y       z     vdW  Elec       q    Type
                         _______ _______ _______ _____ _____    ______ ____

>  <TORSDO>
F 7

$$$$
=
 OpenBabel11042411223D

 25 27  0  0  1  0  0  0  0  0999 V2000
  190.4220  176.9630  146.5940 S   0  0  0  0  0  0  0  0  0  0  0  0
  188.5180  176.9780  144.7720 N   0  0  0  0  0  0  0  0  0  0  0  0
  187.9230  177.3510  145.9820 C   0  0  0  0  0  0  0  0  0  0  0  0
  186.4390  177.8780  144.3320 C   0  0  0  0  0  0  0  0  0  0  0  0
  188.7400  177.4440  147.0160 C   0  0  2  0  0  3  0  0  0  0  0  0
  189.9650  176.9430  144.8130 C   0  0  0  0  0  2  0  0  0  0  0  0
  187.6890  177.3810  143.6570 C   0  0  0  0  0  3  0  0  0  0  0  0
  185.3920  178.3490  143.7210 N   0  0  0  0  0  2  0  0  0  0  0  0
  186.5540  177.8980  145.8250 C   0  0  0  0  0  3  0  0  0  0  0  0
  187.5060  179.1160  148.1310 F   0  0  0  0  0  0  0  0  0  0  0  0
  188.3610  178.0490  148.3370 C   0  0  0  0  0  0  0  0  0  0  0  0
  187.7230  177.1110  149.1270 F   0  0  0  0  0  0  0  0  0  0  0  0
  189.4940  178.4910  148.9950 F   0  0  0  0  0  0  0  0  0  0  0  0
  185.2020  178.3680  142.3240 N   0  0  0  0  0  0  0  0  0  0  0  0
  186.1390  179.1110  141.5000 C   0  0  0  0  0  2  0  0  0  0  0  0
  186.0950  178.5940  140.0740 C   0  0  0  0  0  2  0  0  0  0  0  0
  189.1760  178.0930  138.2860 N   0  0  0  0  0  0  0  0  0  0  0  0
  188.4940  177.9570  140.4200 N   0  0  0  0  0  0  0  0  0  0  0  0
  187.4780  178.2930  139.6050 C   0  0  0  0  0  0  0  0  0  0  0  0
  189.5390  177.8350  139.5630 C   0  0  0  0  0  3  0  0  0  0  0  0
  187.1150  178.7250  137.2250 N   0  0  0  0  0  1  0  0  0  0  0  0
  187.8910  178.3790  138.3360 N   0  0  0  0  0  0  0  0  0  0  0  0
  184.0040  177.8390  141.6810 C   0  0  0  0  0  2  0  0  0  0  0  0
  182.8320  178.7740  141.9110 C   0  0  0  0  0  2  0  0  0  0  0  0
  182.4070  178.6640  143.2210 F   0  0  0  0  0  0  0  0  0  0  0  0
  1  5  1  0  0  0  0
  2  6  1  0  0  0  0
  2  3  1  0  0  0  0
  3  5  1  0  0  0  0
  4  9  1  0  0  0  0
  5 11  1  6  0  0  0
  6  1  1  0  0  0  0
  7  4  2  0  0  0  0
  7  2  1  0  0  0  0
  8  4  1  0  0  0  0
  9  3  2  0  0  0  0
 10 11  1  0  0  0  0
 11 13  1  0  0  0  0
 11 12  1  0  0  0  0
 14  8  1  0  0  0  0
 15 14  1  0  0  0  0
 16 15  1  0  0  0  0
 17 22  1  0  0  0  0
 17 20  2  0  0  0  0
 19 16  1  0  0  0  0
 19 18  2  0  0  0  0
 20 18  1  0  0  0  0
 21 22  1  0  0  0  0
 22 19  1  0  0  0  0
 23 24  1  0  0  0  0
 23 14  1  0  0  0  0
 24 25  1  0  0  0  0
M  END
>  <MODEL>
4

>  <REMARK>
 VINA RESULT:      -6.9      3.079      5.166
  Name = 
  7 active torsions:
  status: ('A' for Active; 'I' for Inactive)
    1  A    between atoms: C_6  and  C_10
    2  A    between atoms: C_6  and  C_14
    3  A    between atoms: C_8  and  C_11
    4  A    between atoms: C_14  and  N_23
    5  A    between atoms: C_16  and  C_18
    6  A    between atoms: C_18  and  N_23
    7  A    between atoms: N_21  and  N_23
                            x       y       z     vdW  Elec       q    Type
                         _______ _______ _______ _____ _____    ______ ____

>  <TORSDO>
F 7

$$$$
=
 OpenBabel11042411223D

 25 27  0  0  1  0  0  0  0  0999 V2000
  185.3230  178.5150  146.8340 S   0  0  0  0  0  0  0  0  0  0  0  0
  187.0810  177.3570  145.2480 N   0  0  0  0  0  0  0  0  0  0  0  0
  186.0310  177.7990  144.4350 C   0  0  0  0  0  0  0  0  0  0  0  0
  187.7690  177.2950  143.0460 C   0  0  0  0  0  0  0  0  0  0  0  0
  185.0640  178.4510  145.0540 C   0  0  2  0  0  3  0  0  0  0  0  0
  187.0250  177.8590  146.6050 C   0  0  0  0  0  2  0  0  0  0  0  0
  188.2680  177.1220  144.4550 C   0  0  0  0  0  3  0  0  0  0  0  0
  188.4930  177.1760  141.9720 N   0  0  0  0  0  2  0  0  0  0  0  0
  186.3440  177.7510  142.9870 C   0  0  0  0  0  3  0  0  0  0  0  0
  183.5350  178.4800  143.2580 F   0  0  0  0  0  0  0  0  0  0  0  0
  183.9730  179.2070  144.3510 C   0  0  0  0  0  0  0  0  0  0  0  0
  182.9070  179.4130  145.2070 F   0  0  0  0  0  0  0  0  0  0  0  0
  184.4490  180.4320  143.9250 F   0  0  0  0  0  0  0  0  0  0  0  0
  189.8370  176.7520  141.9380 N   0  0  0  0  0  0  0  0  0  0  0  0
  190.2550  175.6760  142.8200 C   0  0  0  0  0  2  0  0  0  0  0  0
  191.6910  175.8970  143.2590 C   0  0  0  0  0  2  0  0  0  0  0  0
  191.6740  177.4790  146.4900 N   0  0  0  0  0  0  0  0  0  0  0  0
  191.7530  175.3750  145.7090 N   0  0  0  0  0  0  0  0  0  0  0  0
  191.7250  176.2680  144.7020 C   0  0  0  0  0  0  0  0  0  0  0  0
  191.7250  176.1660  146.8110 C   0  0  0  0  0  3  0  0  0  0  0  0
  191.6110  178.6940  144.4180 N   0  0  0  0  0  1  0  0  0  0  0  0
  191.6720  177.5180  145.1730 N   0  0  0  0  0  0  0  0  0  0  0  0
  190.8740  177.4680  141.2030 C   0  0  0  0  0  2  0  0  0  0  0  0
  190.9580  176.9490  139.7790 C   0  0  0  0  0  2  0  0  0  0  0  0
  192.2780  176.9340  139.3730 F   0  0  0  0  0  0  0  0  0  0  0  0
  2  6  1  0  0  0  0
  3  5  1  0  0  0  0
  3  2  1  0  0  0  0
  4  7  2  0  0  0  0
  5 11  1  6  0  0  0
  5  1  1  0  0  0  0
  6  1  1  0  0  0  0
  7  2  1  0  0  0  0
  8  4  1  0  0  0  0
  9  4  1  0  0  0  0
  9  3  2  0  0  0  0
 10 11  1  0  0  0  0
 11 12  1  0  0  0  0
 13 11  1  0  0  0  0
 14  8  1  0  0  0  0
 14 15  1  0  0  0  0
 15 16  1  0  0  0  0
 16 19  1  0  0  0  0
 17 20  2  0  0  0  0
 18 20  1  0  0  0  0
 19 22  1  0  0  0  0
 19 18  2  0  0  0  0
 21 22  1  0  0  0  0
 22 17  1  0  0  0  0
 23 14  1  0  0  0  0
 24 23  1  0  0  0  0
 25 24  1  0  0  0  0
M  END
>  <MODEL>
5

>  <REMARK>
 VINA RESULT:      -6.8      2.009      4.248
  Name = 
  7 active torsions:
  status: ('A' for Active; 'I' for Inactive)
    1  A    between atoms: C_6  and  C_10
    2  A    between atoms: C_6  and  C_14
    3  A    between atoms: C_8  and  C_11
    4  A    between atoms: C_14  and  N_23
    5  A    between atoms: C_16  and  C_18
    6  A    between atoms: C_18  and  N_23
    7  A    between atoms: N_21  and  N_23
                            x       y       z     vdW  Elec       q    Type
                         _______ _______ _______ _____ _____    ______ ____

>  <TORSDO>
F 7

$$$$
=
 OpenBabel11042411223D

 25 27  0  0  1  0  0  0  0  0999 V2000
  187.9930  177.9600  148.3780 S   0  0  0  0  0  0  0  0  0  0  0  0
  188.7440  177.0970  146.0030 N   0  0  0  0  0  0  0  0  0  0  0  0
  187.4660  177.6440  145.8500 C   0  0  0  0  0  0  0  0  0  0  0  0
  188.3300  177.3960  143.7530 C   0  0  0  0  0  0  0  0  0  0  0  0
  186.9350  178.1740  146.9370 C   0  0  2  0  0  3  0  0  0  0  0  0
  189.3530  177.3770  147.2870 C   0  0  0  0  0  2  0  0  0  0  0  0
  189.4130  177.0110  144.7230 C   0  0  0  0  0  3  0  0  0  0  0  0
  188.4660  177.4600  142.4610 N   0  0  0  0  0  2  0  0  0  0  0  0
  187.0690  177.8320  144.4330 C   0  0  0  0  0  3  0  0  0  0  0  0
  185.4520  179.5010  145.6730 F   0  0  0  0  0  0  0  0  0  0  0  0
  185.6900  179.0120  146.9440 C   0  0  0  0  0  0  0  0  0  0  0  0
  184.6050  178.2530  147.3420 F   0  0  0  0  0  0  0  0  0  0  0  0
  185.8410  180.0710  147.8210 F   0  0  0  0  0  0  0  0  0  0  0  0
  189.6140  177.0710  141.7420 N   0  0  0  0  0  0  0  0  0  0  0  0
  189.6070  177.1870  140.2940 C   0  0  0  0  0  2  0  0  0  0  0  0
  188.5710  178.2090  139.8630 C   0  0  0  0  0  2  0  0  0  0  0  0
  187.4270  178.2630  136.4530 N   0  0  0  0  0  0  0  0  0  0  0  0
  189.3800  177.9260  137.5080 N   0  0  0  0  0  0  0  0  0  0  0  0
  188.3830  178.1430  138.3860 C   0  0  0  0  0  0  0  0  0  0  0  0
  188.7470  178.0040  136.3100 C   0  0  0  0  0  3  0  0  0  0  0  0
  185.9860  178.6250  138.3410 N   0  0  0  0  0  1  0  0  0  0  0  0
  187.2240  178.3490  137.7520 N   0  0  0  0  0  0  0  0  0  0  0  0
  190.7380  176.3760  142.3610 C   0  0  0  0  0  2  0  0  0  0  0  0
  191.9830  177.2400  142.3010 C   0  0  0  0  0  2  0  0  0  0  0  0
  191.7380  178.4440  142.9340 F   0  0  0  0  0  0  0  0  0  0  0  0
  2  6  1  0  0  0  0
  3  2  1  0  0  0  0
  3  5  1  0  0  0  0
  4  9  1  0  0  0  0
  4  7  2  0  0  0  0
  5 11  1  6  0  0  0
  5  1  1  0  0  0  0
  6  1  1  0  0  0  0
  7  2  1  0  0  0  0
  8  4  1  0  0  0  0
  9  3  2  0  0  0  0
 10 11  1  0  0  0  0
 11 12  1  0  0  0  0
 11 13  1  0  0  0  0
 14 23  1  0  0  0  0
 14  8  1  0  0  0  0
 15 14  1  0  0  0  0
 16 15  1  0  0  0  0
 17 22  1  0  0  0  0
 18 19  2  0  0  0  0
 19 16  1  0  0  0  0
 20 17  2  0  0  0  0
 20 18  1  0  0  0  0
 22 21  1  0  0  0  0
 22 19  1  0  0  0  0
 24 23  1  0  0  0  0
 24 25  1  0  0  0  0
M  END
>  <MODEL>
6

>  <REMARK>
 VINA RESULT:      -6.7      2.096      2.790
  Name = 
  7 active torsions:
  status: ('A' for Active; 'I' for Inactive)
    1  A    between atoms: C_6  and  C_10
    2  A    between atoms: C_6  and  C_14
    3  A    between atoms: C_8  and  C_11
    4  A    between atoms: C_14  and  N_23
    5  A    between atoms: C_16  and  C_18
    6  A    between atoms: C_18  and  N_23
    7  A    between atoms: N_21  and  N_23
                            x       y       z     vdW  Elec       q    Type
                         _______ _______ _______ _____ _____    ______ ____

>  <TORSDO>
F 7

$$$$
=
 OpenBabel11042411223D

 25 27  0  0  1  0  0  0  0  0999 V2000
  187.9460  177.5890  147.3300 S   0  0  0  0  0  0  0  0  0  0  0  0
  188.6500  177.1070  144.8360 N   0  0  0  0  0  0  0  0  0  0  0  0
  187.3150  177.5230  144.8070 C   0  0  0  0  0  0  0  0  0  0  0  0
  188.0810  177.6270  142.6610 C   0  0  0  0  0  0  0  0  0  0  0  0
  186.7930  177.8570  145.9740 C   0  0  2  0  0  3  0  0  0  0  0  0
  189.2970  177.2960  146.1180 C   0  0  0  0  0  2  0  0  0  0  0  0
  189.2520  177.2490  143.5280 C   0  0  0  0  0  3  0  0  0  0  0  0
  188.1380  177.8600  141.3830 N   0  0  0  0  0  2  0  0  0  0  0  0
  186.8220  177.8350  143.4430 C   0  0  0  0  0  3  0  0  0  0  0  0
  184.5460  177.9910  145.2720 F   0  0  0  0  0  0  0  0  0  0  0  0
  185.4690  178.5460  146.1390 C   0  0  0  0  0  0  0  0  0  0  0  0
  185.0110  178.3970  147.4350 F   0  0  0  0  0  0  0  0  0  0  0  0
  185.6030  179.8940  145.8650 F   0  0  0  0  0  0  0  0  0  0  0  0
  189.2780  177.6890  140.5720 N   0  0  0  0  0  0  0  0  0  0  0  0
  189.3090  178.3180  139.2630 C   0  0  0  0  0  2  0  0  0  0  0  0
  188.9680  177.2980  138.1920 C   0  0  0  0  0  2  0  0  0  0  0  0
  185.5480  176.7690  137.2090 N   0  0  0  0  0  0  0  0  0  0  0  0
  186.7250  178.4150  138.1820 N   0  0  0  0  0  0  0  0  0  0  0  0
  187.5140  177.3690  137.8730 C   0  0  0  0  0  0  0  0  0  0  0  0
  185.5050  178.0070  137.7500 C   0  0  0  0  0  3  0  0  0  0  0  0
  187.2920  175.1510  136.8670 N   0  0  0  0  0  1  0  0  0  0  0  0
  186.8070  176.3900  137.2990 N   0  0  0  0  0  0  0  0  0  0  0  0
  190.3500  176.7540  140.9000 C   0  0  0  0  0  2  0  0  0  0  0  0
  191.7000  177.4190  140.7070 C   0  0  0  0  0  2  0  0  0  0  0  0
  192.2770  176.9550  139.5410 F   0  0  0  0  0  0  0  0  0  0  0  0
  2  6  1  0  0  0  0
  3  2  1  0  0  0  0
  3  5  1  0  0  0  0
  4  9  1  0  0  0  0
  4  7  2  0  0  0  0
  5 11  1  6  0  0  0
  5  1  1  0  0  0  0
  6  1  1  0  0  0  0
  7  2  1  0  0  0  0
  8  4  1  0  0  0  0
  9  3  2  0  0  0  0
 10 11  1  0  0  0  0
 11 12  1  0  0  0  0
 13 11  1  0  0  0  0
 14 23  1  0  0  0  0
 14  8  1  0  0  0  0
 15 14  1  0  0  0  0
 16 15  1  0  0  0  0
 17 22  1  0  0  0  0
 17 20  2  0  0  0  0
 19 18  2  0  0  0  0
 19 16  1  0  0  0  0
 20 18  1  0  0  0  0
 21 22  1  0  0  0  0
 22 19  1  0  0  0  0
 24 23  1  0  0  0  0
 25 24  1  0  0  0  0
M  END
>  <MODEL>
7

>  <REMARK>
 VINA RESULT:      -6.7      2.205      2.859
  Name = 
  7 active torsions:
  status: ('A' for Active; 'I' for Inactive)
    1  A    between atoms: C_6  and  C_10
    2  A    between atoms: C_6  and  C_14
    3  A    between atoms: C_8  and  C_11
    4  A    between atoms: C_14  and  N_23
    5  A    between atoms: C_16  and  C_18
    6  A    between atoms: C_18  and  N_23
    7  A    between atoms: N_21  and  N_23
                            x       y       z     vdW  Elec       q    Type
                         _______ _______ _______ _____ _____    ______ ____

>  <TORSDO>
F 7

$$$$
=
 OpenBabel11042411223D

 25 27  0  0  1  0  0  0  0  0999 V2000
  191.2780  177.1280  144.8050 S   0  0  0  0  0  0  0  0  0  0  0  0
  188.9240  177.2440  143.6260 N   0  0  0  0  0  0  0  0  0  0  0  0
  188.6840  177.1340  145.0000 C   0  0  0  0  0  0  0  0  0  0  0  0
  186.7150  177.7710  144.0390 C   0  0  0  0  0  0  0  0  0  0  0  0
  189.7580  177.1080  145.7680 C   0  0  2  0  0  3  0  0  0  0  0  0
  190.3080  177.5060  143.2890 C   0  0  0  0  0  2  0  0  0  0  0  0
  187.7520  177.7560  142.9480 C   0  0  0  0  0  3  0  0  0  0  0  0
  185.4820  178.1600  143.8980 N   0  0  0  0  0  2  0  0  0  0  0  0
  187.2750  177.4010  145.3770 C   0  0  0  0  0  3  0  0  0  0  0  0
  190.9850  176.9720  147.7770 F   0  0  0  0  0  0  0  0  0  0  0  0
  189.7270  177.2290  147.2640 C   0  0  0  0  0  0  0  0  0  0  0  0
  189.3460  178.5060  147.6330 F   0  0  0  0  0  0  0  0  0  0  0  0
  188.8240  176.3240  147.7910 F   0  0  0  0  0  0  0  0  0  0  0  0
  184.8770  178.5240  142.6780 N   0  0  0  0  0  0  0  0  0  0  0  0
  185.7170  178.9960  141.5920 C   0  0  0  0  0  2  0  0  0  0  0  0
  184.9310  178.9990  140.2940 C   0  0  0  0  0  2  0  0  0  0  0  0
  186.2930  177.5270  137.3080 N   0  0  0  0  0  0  0  0  0  0  0  0
  187.1100  178.4400  139.1890 N   0  0  0  0  0  0  0  0  0  0  0  0
  185.7630  178.4260  139.1990 C   0  0  0  0  0  0  0  0  0  0  0  0
  187.4070  177.8670  137.9960 C   0  0  0  0  0  3  0  0  0  0  0  0
  183.9370  177.7290  137.7300 N   0  0  0  0  0  1  0  0  0  0  0  0
  185.2830  177.8870  138.0730 N   0  0  0  0  0  0  0  0  0  0  0  0
  183.4310  178.6330  142.5130 C   0  0  0  0  0  2  0  0  0  0  0  0
  182.7700  178.8890  143.8550 C   0  0  0  0  0  2  0  0  0  0  0  0
  183.1490  180.1320  144.3240 F   0  0  0  0  0  0  0  0  0  0  0  0
  1  5  1  0  0  0  0
  2  3  1  0  0  0  0
  3  9  2  0  0  0  0
  3  5  1  0  0  0  0
  4  9  1  0  0  0  0
  5 11  1  1  0  0  0
  6  2  1  0  0  0  0
  6  1  1  0  0  0  0
  7  2  1  0  0  0  0
  7  4  2  0  0  0  0
  8  4  1  0  0  0  0
 11 12  1  0  0  0  0
 11 10  1  0  0  0  0
 11 13  1  0  0  0  0
 14  8  1  0  0  0  0
 15 14  1  0  0  0  0
 16 15  1  0  0  0  0
 17 20  2  0  0  0  0
 17 22  1  0  0  0  0
 18 19  2  0  0  0  0
 19 16  1  0  0  0  0
 20 18  1  0  0  0  0
 21 22  1  0  0  0  0
 22 19  1  0  0  0  0
 23 14  1  0  0  0  0
 23 24  1  0  0  0  0
 24 25  1  0  0  0  0
M  END
>  <MODEL>
8

>  <REMARK>
 VINA RESULT:      -6.6      3.237      5.763
  Name = 
  7 active torsions:
  status: ('A' for Active; 'I' for Inactive)
    1  A    between atoms: C_6  and  C_10
    2  A    between atoms: C_6  and  C_14
    3  A    between atoms: C_8  and  C_11
    4  A    between atoms: C_14  and  N_23
    5  A    between atoms: C_16  and  C_18
    6  A    between atoms: C_18  and  N_23
    7  A    between atoms: N_21  and  N_23
                            x       y       z     vdW  Elec       q    Type
                         _______ _______ _______ _____ _____    ______ ____

>  <TORSDO>
F 7

$$$$
=
 OpenBabel11042411223D

 25 27  0  0  1  0  0  0  0  0999 V2000
  190.1700  177.0610  146.3900 S   0  0  0  0  0  0  0  0  0  0  0  0
  188.1470  177.1750  144.7040 N   0  0  0  0  0  0  0  0  0  0  0  0
  187.6440  177.5150  145.9650 C   0  0  0  0  0  0  0  0  0  0  0  0
  186.0620  178.1270  144.4400 C   0  0  0  0  0  0  0  0  0  0  0  0
  188.5300  177.5560  146.9430 C   0  0  2  0  0  3  0  0  0  0  0  0
  189.5930  177.1130  144.6450 C   0  0  0  0  0  2  0  0  0  0  0  0
  187.2530  177.6330  143.6640 C   0  0  0  0  0  3  0  0  0  0  0  0
  184.9850  178.6380  143.9190 N   0  0  0  0  0  2  0  0  0  0  0  0
  186.2780  178.0910  145.9210 C   0  0  0  0  0  3  0  0  0  0  0  0
  187.6550  177.1530  149.0950 F   0  0  0  0  0  0  0  0  0  0  0  0
  188.2540  178.1190  148.3070 C   0  0  0  0  0  0  0  0  0  0  0  0
  189.4340  178.5180  148.9080 F   0  0  0  0  0  0  0  0  0  0  0  0
  187.4130  179.2120  148.2040 F   0  0  0  0  0  0  0  0  0  0  0  0
  184.7010  178.7100  142.5400 N   0  0  0  0  0  0  0  0  0  0  0  0
  183.6540  177.8640  141.9940 C   0  0  0  0  0  2  0  0  0  0  0  0
  182.5360  178.7230  141.4340 C   0  0  0  0  0  2  0  0  0  0  0  0
  179.3140  178.2950  142.9770 N   0  0  0  0  0  0  0  0  0  0  0  0
  181.3850  178.8310  143.6580 N   0  0  0  0  0  0  0  0  0  0  0  0
  181.3440  178.6430  142.3250 C   0  0  0  0  0  0  0  0  0  0  0  0
  180.0990  178.6100  144.0310 C   0  0  0  0  0  3  0  0  0  0  0  0
  179.7010  178.0310  140.6200 N   0  0  0  0  0  1  0  0  0  0  0  0
  180.1100  178.3170  141.9260 N   0  0  0  0  0  0  0  0  0  0  0  0
  185.5350  179.4500  141.5980 C   0  0  0  0  0  2  0  0  0  0  0  0
  185.9800  178.5400  140.4680 C   0  0  0  0  0  2  0  0  0  0  0  0
  185.3320  178.9040  139.3040 F   0  0  0  0  0  0  0  0  0  0  0  0
  1  5  1  0  0  0  0
  2  3  1  0  0  0  0
  3  5  1  0  0  0  0
  4  9  1  0  0  0  0
  5 11  1  6  0  0  0
  6  2  1  0  0  0  0
  6  1  1  0  0  0  0
  7  4  2  0  0  0  0
  7  2  1  0  0  0  0
  8  4  1  0  0  0  0
  9  3  2  0  0  0  0
 11 12  1  0  0  0  0
 11 10  1  0  0  0  0
 13 11  1  0  0  0  0
 14  8  1  0  0  0  0
 15 14  1  0  0  0  0
 16 15  1  0  0  0  0
 16 19  1  0  0  0  0
 17 20  2  0  0  0  0
 18 20  1  0  0  0  0
 19 18  2  0  0  0  0
 21 22  1  0  0  0  0
 22 19  1  0  0  0  0
 22 17  1  0  0  0  0
 23 14  1  0  0  0  0
 24 23  1  0  0  0  0
 25 24  1  0  0  0  0
M  END
>  <MODEL>
9

>  <REMARK>
 VINA RESULT:      -6.6      4.538      7.203
  Name = 
  7 active torsions:
  status: ('A' for Active; 'I' for Inactive)
    1  A    between atoms: C_6  and  C_10
    2  A    between atoms: C_6  and  C_14
    3  A    between atoms: C_8  and  C_11
    4  A    between atoms: C_14  and  N_23
    5  A    between atoms: C_16  and  C_18
    6  A    between atoms: C_18  and  N_23
    7  A    between atoms: N_21  and  N_23
                            x       y       z     vdW  Elec       q    Type
                         _______ _______ _______ _____ _____    ______ ____

>  <TORSDO>
F 7

$$$$
