=
 OpenBabel11042412103D

 37 40  0  0  1  0  0  0  0  0999 V2000
  183.9980  179.1970  140.6510 C   0  0  1  0  0  3  0  0  0  0  0  0
  184.9730  177.9500  138.7420 C   0  0  0  0  0  0  0  0  0  0  0  0
  180.7160  176.1120  139.7480 O   0  0  0  0  0  0  0  0  0  0  0  0
  181.8580  176.2680  139.2420 C   0  0  0  0  0  0  0  0  0  0  0  0
  182.3760  175.4670  138.2860 N   0  0  0  0  0  2  0  0  0  0  0  0
  184.4570  175.3570  136.9960 C   0  0  0  0  0  1  0  0  0  0  0  0
  183.5820  175.9420  137.9990 N   0  0  0  0  0  0  0  0  0  0  0  0
  184.9930  178.9540  139.5810 N   0  0  0  0  0  0  0  0  0  0  0  0
  182.7560  177.2610  139.5610 C   0  0  0  0  0  0  0  0  0  0  0  0
  183.8300  177.0270  138.7610 C   0  0  0  0  0  0  0  0  0  0  0  0
  182.7170  178.4070  140.4660 C   0  0  0  0  0  0  0  0  0  0  0  0
  186.0190  177.7940  137.7820 N   0  0  0  0  0  2  0  0  0  0  0  0
  181.6540  178.6930  141.1430 N   0  0  0  0  0  2  0  0  0  0  0  0
  184.6070  178.8710  141.9750 C   0  0  0  0  0  0  0  0  0  0  0  0
  185.7910  178.2810  146.1970 C   0  0  0  0  0  3  0  0  0  0  0  0
  184.0340  179.1620  143.1320 O   0  0  0  0  0  0  0  0  0  0  0  0
  184.8610  178.7440  144.0490 C   0  0  0  0  0  0  0  0  0  0  0  0
  185.8150  178.2630  142.1030 N   0  0  0  0  0  0  0  0  0  0  0  0
  186.9300  177.7070  145.5710 C   0  0  0  0  0  0  0  0  0  0  0  0
  184.7350  178.8100  145.4330 C   0  0  0  0  0  3  0  0  0  0  0  0
  187.0100  177.6630  144.1650 C   0  0  0  0  0  3  0  0  0  0  0  0
  185.9490  178.1960  143.4390 C   0  0  0  0  0  0  0  0  0  0  0  0
  189.3480  177.4830  146.0410 C   0  0  0  0  0  1  0  0  0  0  0  0
  187.9870  177.1820  146.3190 O   0  0  0  0  0  0  0  0  0  0  0  0
  187.0470  178.7380  137.6730 N   0  0  0  0  0  2  0  0  0  0  0  0
  188.2720  178.0810  138.1170 C   0  0  1  0  0  3  0  0  0  0  0  0
  188.7570  178.6640  139.3600 N   0  0  0  0  0  2  0  0  0  0  0  0
  188.7370  177.6090  140.3600 C   0  0  0  0  0  2  0  0  0  0  0  0
  190.1140  177.3830  140.8920 C   0  0  0  0  0  0  0  0  0  0  0  0
  191.0600  177.2830  140.1260 O   0  0  0  0  0  0  0  0  0  0  0  0
  190.1710  175.8900  142.7840 N   0  0  0  0  0  1  0  0  0  0  0  0
  190.3290  177.2730  142.3650 C   0  0  0  0  0  2  0  0  0  0  0  0
  188.1420  176.6740  138.2080 O   0  0  0  0  0  0  0  0  0  0  0  0
  190.2640  174.9020  137.8810 O   0  0  0  0  0  1  0  0  0  0  0  0
  189.9830  176.9930  136.0990 O   0  0  0  0  0  0  0  0  0  0  0  0
  189.1500  175.8840  137.0700 P   0  0  0  0  0  0  0  0  0  0  0  0
  188.2920  175.0110  136.1830 O   0  0  0  0  0  1  0  0  0  0  0  0
  1 14  1  1  0  0  0
  2 10  1  0  0  0  0
  2  8  2  0  0  0  0
  4  9  1  0  0  0  0
  4  3  2  0  0  0  0
  5  4  1  0  0  0  0
  6  7  1  0  0  0  0
  7  5  1  0  0  0  0
  7 10  1  0  0  0  0
  8  1  1  0  0  0  0
  9 11  1  0  0  0  0
 10  9  2  0  0  0  0
 11  1  1  0  0  0  0
 11 13  2  0  0  0  0
 12  2  1  0  0  0  0
 14 18  2  0  0  0  0
 14 16  1  0  0  0  0
 16 17  1  0  0  0  0
 17 20  1  0  0  0  0
 18 22  1  0  0  0  0
 19 15  1  0  0  0  0
 19 24  1  0  0  0  0
 20 15  2  0  0  0  0
 21 19  2  0  0  0  0
 22 17  2  0  0  0  0
 22 21  1  0  0  0  0
 23 24  1  0  0  0  0
 25 12  1  0  0  0  0
 26 25  1  1  0  0  0
 26 33  1  0  0  0  0
 26 27  1  0  0  0  0
 27 28  1  0  0  0  0
 28 29  1  0  0  0  0
 29 32  1  0  0  0  0
 30 29  2  0  0  0  0
 32 31  1  0  0  0  0
 35 36  2  0  0  0  0
 36 34  1  0  0  0  0
 36 33  1  0  0  0  0
 37 36  1  0  0  0  0
M  END
>  <MODEL>
1

>  <REMARK>
 VINA RESULT:      -7.8      0.000      0.000
  Name = 
  10 active torsions:
  status: ('A' for Active; 'I' for Inactive)
    1  A    between atoms: C_1  and  C_3
    2  A    between atoms: C_7  and  C_29
    3  A    between atoms: C_7  and  C_33
    4  A    between atoms: C_16  and  N_19
    5  A    between atoms: C_16  and  N_30
    6  A    between atoms: C_16  and  O_36
    7  A    between atoms: N_19  and  C_29
    8  A    between atoms: C_24  and  O_34
    9  A    between atoms: P_26  and  O_36
   10  A    between atoms: N_30  and  N_31
                            x       y       z     vdW  Elec       q    Type
                         _______ _______ _______ _____ _____    ______ ____

>  <TORSDO>
F 10

$$$$
=
 OpenBabel11042412103D

 37 40  0  0  1  0  0  0  0  0999 V2000
  189.4410  177.9640  139.3620 C   0  0  1  0  0  3  0  0  0  0  0  0
  190.4850  175.9600  138.3410 C   0  0  0  0  0  0  0  0  0  0  0  0
  186.0200  176.3170  136.7760 O   0  0  0  0  0  0  0  0  0  0  0  0
  187.1720  175.8610  137.0020 C   0  0  0  0  0  0  0  0  0  0  0  0
  187.6310  174.6910  136.5090 N   0  0  0  0  0  2  0  0  0  0  0  0
  189.7200  173.4140  136.6180 C   0  0  0  0  0  1  0  0  0  0  0  0
  188.8750  174.5490  136.9500 N   0  0  0  0  0  0  0  0  0  0  0  0
  190.5710  177.0620  139.0410 N   0  0  0  0  0  0  0  0  0  0  0  0
  188.1450  176.4620  137.7690 C   0  0  0  0  0  0  0  0  0  0  0  0
  189.2020  175.6110  137.7160 C   0  0  0  0  0  0  0  0  0  0  0  0
  188.2240  177.7300  138.4890 C   0  0  0  0  0  0  0  0  0  0  0  0
  191.6400  175.1440  138.1390 N   0  0  0  0  0  2  0  0  0  0  0  0
  187.2590  178.5890  138.4470 N   0  0  0  0  0  2  0  0  0  0  0  0
  189.0730  177.8030  140.8000 C   0  0  0  0  0  0  0  0  0  0  0  0
  187.2430  177.4000  144.8080 C   0  0  0  0  0  3  0  0  0  0  0  0
  187.8220  177.7580  141.2310 O   0  0  0  0  0  0  0  0  0  0  0  0
  187.9010  177.6270  142.5260 C   0  0  0  0  0  0  0  0  0  0  0  0
  189.9950  177.7050  141.7920 N   0  0  0  0  0  0  0  0  0  0  0  0
  188.6110  177.3650  145.1900 C   0  0  0  0  0  0  0  0  0  0  0  0
  186.8720  177.5330  143.4580 C   0  0  0  0  0  3  0  0  0  0  0  0
  189.6160  177.4630  144.2090 C   0  0  0  0  0  3  0  0  0  0  0  0
  189.2160  177.5940  142.8820 C   0  0  0  0  0  0  0  0  0  0  0  0
  190.2850  176.7970  146.9210 C   0  0  0  0  0  1  0  0  0  0  0  0
  188.9910  177.2370  146.5290 O   0  0  0  0  0  0  0  0  0  0  0  0
  192.8940  175.5320  138.6260 N   0  0  0  0  0  2  0  0  0  0  0  0
  193.8160  175.4960  137.4960 C   0  0  1  0  0  3  0  0  0  0  0  0
  193.7260  176.7170  136.7080 N   0  0  0  0  0  2  0  0  0  0  0  0
  194.2390  176.4070  135.3840 C   0  0  0  0  0  2  0  0  0  0  0  0
  195.5310  177.1210  135.1560 C   0  0  0  0  0  0  0  0  0  0  0  0
  195.5960  178.3330  135.2920 O   0  0  0  0  0  0  0  0  0  0  0  0
  197.6340  176.2030  135.8950 N   0  0  0  0  0  1  0  0  0  0  0  0
  196.7430  176.3470  134.7550 C   0  0  0  0  0  2  0  0  0  0  0  0
  195.1490  175.2100  137.8800 O   0  0  0  0  0  0  0  0  0  0  0  0
  195.1420  172.7100  139.1040 O   0  0  0  0  0  1  0  0  0  0  0  0
  197.1390  173.3040  137.2920 O   0  0  0  0  0  1  0  0  0  0  0  0
  195.5090  173.5470  137.6800 P   0  0  0  0  0  0  0  0  0  0  0  0
  194.6560  172.9950  136.5610 O   0  0  0  0  0  0  0  0  0  0  0  0
  1 14  1  1  0  0  0
  2  8  2  0  0  0  0
  3  4  2  0  0  0  0
  4  9  1  0  0  0  0
  5  7  1  0  0  0  0
  5  4  1  0  0  0  0
  6  7  1  0  0  0  0
  7 10  1  0  0  0  0
  8  1  1  0  0  0  0
  9 11  1  0  0  0  0
 10  9  2  0  0  0  0
 10  2  1  0  0  0  0
 11  1  1  0  0  0  0
 12  2  1  0  0  0  0
 12 25  1  0  0  0  0
 13 11  2  0  0  0  0
 14 16  1  0  0  0  0
 14 18  2  0  0  0  0
 15 19  1  0  0  0  0
 16 17  1  0  0  0  0
 17 22  2  0  0  0  0
 17 20  1  0  0  0  0
 18 22  1  0  0  0  0
 19 24  1  0  0  0  0
 20 15  2  0  0  0  0
 21 19  2  0  0  0  0
 22 21  1  0  0  0  0
 24 23  1  0  0  0  0
 26 27  1  1  0  0  0
 26 33  1  0  0  0  0
 26 25  1  0  0  0  0
 28 27  1  0  0  0  0
 29 30  2  0  0  0  0
 29 28  1  0  0  0  0
 32 29  1  0  0  0  0
 32 31  1  0  0  0  0
 35 36  1  0  0  0  0
 36 33  1  0  0  0  0
 36 34  1  0  0  0  0
 37 36  2  0  0  0  0
M  END
>  <MODEL>
2

>  <REMARK>
 VINA RESULT:      -7.4      4.465      5.883
  Name = 
  10 active torsions:
  status: ('A' for Active; 'I' for Inactive)
    1  A    between atoms: C_1  and  C_3
    2  A    between atoms: C_7  and  C_29
    3  A    between atoms: C_7  and  C_33
    4  A    between atoms: C_16  and  N_19
    5  A    between atoms: C_16  and  N_30
    6  A    between atoms: C_16  and  O_36
    7  A    between atoms: N_19  and  C_29
    8  A    between atoms: C_24  and  O_34
    9  A    between atoms: P_26  and  O_36
   10  A    between atoms: N_30  and  N_31
                            x       y       z     vdW  Elec       q    Type
                         _______ _______ _______ _____ _____    ______ ____

>  <TORSDO>
F 10

$$$$
=
 OpenBabel11042412103D

 37 40  0  0  1  0  0  0  0  0999 V2000
  184.4860  179.1840  138.8520 C   0  0  1  0  0  3  0  0  0  0  0  0
  186.2550  177.6340  138.0650 C   0  0  0  0  0  0  0  0  0  0  0  0
  182.0350  175.9540  136.6940 O   0  0  0  0  0  0  0  0  0  0  0  0
  183.2710  176.0310  136.9220 C   0  0  0  0  0  0  0  0  0  0  0  0
  184.1640  175.0810  136.5720 N   0  0  0  0  0  2  0  0  0  0  0  0
  186.5880  174.7710  136.7500 C   0  0  0  0  0  1  0  0  0  0  0  0
  185.3570  175.5120  136.9650 N   0  0  0  0  0  0  0  0  0  0  0  0
  185.8860  178.7690  138.6010 N   0  0  0  0  0  0  0  0  0  0  0  0
  183.9140  177.0750  137.5480 C   0  0  0  0  0  0  0  0  0  0  0  0
  185.2250  176.7160  137.5590 C   0  0  0  0  0  0  0  0  0  0  0  0
  183.4730  178.3600  138.0820 C   0  0  0  0  0  0  0  0  0  0  0  0
  187.6410  177.3240  137.9190 N   0  0  0  0  0  2  0  0  0  0  0  0
  182.2450  178.7490  137.9710 N   0  0  0  0  0  2  0  0  0  0  0  0
  184.2010  179.1020  140.3150 C   0  0  0  0  0  0  0  0  0  0  0  0
  182.6070  178.7860  144.4310 C   0  0  0  0  0  3  0  0  0  0  0  0
  182.9920  178.8910  140.8110 O   0  0  0  0  0  0  0  0  0  0  0  0
  183.1370  178.9000  142.1070 C   0  0  0  0  0  0  0  0  0  0  0  0
  185.1600  179.2550  141.2650 N   0  0  0  0  0  0  0  0  0  0  0  0
  183.9740  179.0160  144.7450 C   0  0  0  0  0  0  0  0  0  0  0  0
  182.1730  178.7260  143.0940 C   0  0  0  0  0  3  0  0  0  0  0  0
  184.9130  179.1850  143.7090 C   0  0  0  0  0  3  0  0  0  0  0  0
  184.4500  179.1200  142.3980 C   0  0  0  0  0  0  0  0  0  0  0  0
  185.4750  178.2730  146.5660 C   0  0  0  0  0  1  0  0  0  0  0  0
  184.4160  179.0820  146.0690 O   0  0  0  0  0  0  0  0  0  0  0  0
  188.6310  178.2460  138.2840 N   0  0  0  0  0  2  0  0  0  0  0  0
  189.4600  177.5970  139.2940 C   0  0  1  0  0  3  0  0  0  0  0  0
  188.8920  177.7640  140.6240 N   0  0  0  0  0  2  0  0  0  0  0  0
  189.9580  177.5050  141.5770 C   0  0  0  0  0  2  0  0  0  0  0  0
  189.5700  176.3850  142.4850 C   0  0  0  0  0  0  0  0  0  0  0  0
  190.3370  175.4540  142.6770 O   0  0  0  0  0  0  0  0  0  0  0  0
  188.3670  176.9540  144.4950 N   0  0  0  0  0  1  0  0  0  0  0  0
  188.2370  176.4040  143.1560 C   0  0  0  0  0  2  0  0  0  0  0  0
  189.7260  176.2370  139.0000 O   0  0  0  0  0  0  0  0  0  0  0  0
  191.5660  174.4220  137.9640 O   0  0  0  0  0  1  0  0  0  0  0  0
  192.4820  176.8250  138.9690 O   0  0  0  0  0  1  0  0  0  0  0  0
  191.2070  176.0640  138.1550 P   0  0  0  0  0  0  0  0  0  0  0  0
  191.0630  176.6900  136.7860 O   0  0  0  0  0  0  0  0  0  0  0  0
  1 14  1  1  0  0  0
  2  8  2  0  0  0  0
  3  4  2  0  0  0  0
  4  9  1  0  0  0  0
  5  4  1  0  0  0  0
  5  7  1  0  0  0  0
  6  7  1  0  0  0  0
  7 10  1  0  0  0  0
  8  1  1  0  0  0  0
  9 10  2  0  0  0  0
  9 11  1  0  0  0  0
 10  2  1  0  0  0  0
 11  1  1  0  0  0  0
 12  2  1  0  0  0  0
 12 25  1  0  0  0  0
 13 11  2  0  0  0  0
 14 16  1  0  0  0  0
 14 18  2  0  0  0  0
 15 19  1  0  0  0  0
 16 17  1  0  0  0  0
 17 22  2  0  0  0  0
 17 20  1  0  0  0  0
 18 22  1  0  0  0  0
 19 24  1  0  0  0  0
 20 15  2  0  0  0  0
 21 19  2  0  0  0  0
 22 21  1  0  0  0  0
 24 23  1  0  0  0  0
 26 25  1  6  0  0  0
 26 27  1  0  0  0  0
 27 28  1  0  0  0  0
 28 29  1  0  0  0  0
 29 30  2  0  0  0  0
 29 32  1  0  0  0  0
 32 31  1  0  0  0  0
 33 26  1  0  0  0  0
 34 36  1  0  0  0  0
 36 35  1  0  0  0  0
 36 33  1  0  0  0  0
 37 36  2  0  0  0  0
M  END
>  <MODEL>
3

>  <REMARK>
 VINA RESULT:      -7.4      1.978      2.566
  Name = 
  10 active torsions:
  status: ('A' for Active; 'I' for Inactive)
    1  A    between atoms: C_1  and  C_3
    2  A    between atoms: C_7  and  C_29
    3  A    between atoms: C_7  and  C_33
    4  A    between atoms: C_16  and  N_19
    5  A    between atoms: C_16  and  N_30
    6  A    between atoms: C_16  and  O_36
    7  A    between atoms: N_19  and  C_29
    8  A    between atoms: C_24  and  O_34
    9  A    between atoms: P_26  and  O_36
   10  A    between atoms: N_30  and  N_31
                            x       y       z     vdW  Elec       q    Type
                         _______ _______ _______ _____ _____    ______ ____

>  <TORSDO>
F 10

$$$$
=
 OpenBabel11042412103D

 37 40  0  0  1  0  0  0  0  0999 V2000
  187.6700  177.9210  137.5210 C   0  0  1  0  0  3  0  0  0  0  0  0
  187.7330  178.2420  139.9790 C   0  0  0  0  0  0  0  0  0  0  0  0
  191.9380  176.5730  138.5500 O   0  0  0  0  0  0  0  0  0  0  0  0
  190.9900  176.9380  139.2950 C   0  0  0  0  0  0  0  0  0  0  0  0
  191.0570  176.9680  140.6430 N   0  0  0  0  0  2  0  0  0  0  0  0
  189.5660  177.5980  142.4820 C   0  0  0  0  0  1  0  0  0  0  0  0
  189.8820  177.4090  141.0760 N   0  0  0  0  0  0  0  0  0  0  0  0
  187.1420  178.3950  138.8220 N   0  0  0  0  0  0  0  0  0  0  0  0
  189.7510  177.3660  138.8750 C   0  0  0  0  0  0  0  0  0  0  0  0
  189.0790  177.6540  140.0210 C   0  0  0  0  0  0  0  0  0  0  0  0
  189.1460  177.5810  137.5640 C   0  0  0  0  0  0  0  0  0  0  0  0
  187.1010  178.6990  141.1750 N   0  0  0  0  0  2  0  0  0  0  0  0
  189.8230  177.4140  136.4750 N   0  0  0  0  0  2  0  0  0  0  0  0
  186.8880  176.7300  137.0750 C   0  0  0  0  0  0  0  0  0  0  0  0
  184.1450  173.7180  135.3470 C   0  0  0  0  0  3  0  0  0  0  0  0
  185.8940  176.7950  136.2020 O   0  0  0  0  0  0  0  0  0  0  0  0
  185.4530  175.5750  136.0790 C   0  0  0  0  0  0  0  0  0  0  0  0
  187.1190  175.4760  137.5430 N   0  0  0  0  0  0  0  0  0  0  0  0
  184.9050  172.8620  136.1880 C   0  0  0  0  0  0  0  0  0  0  0  0
  184.4160  175.0980  135.2850 C   0  0  0  0  0  3  0  0  0  0  0  0
  185.9460  173.3930  136.9720 C   0  0  0  0  0  3  0  0  0  0  0  0
  186.1880  174.7610  136.8880 C   0  0  0  0  0  0  0  0  0  0  0  0
  184.1920  170.7360  135.1420 C   0  0  0  0  0  1  0  0  0  0  0  0
  184.6420  171.4910  136.2600 O   0  0  0  0  0  0  0  0  0  0  0  0
  185.8740  179.3730  141.1330 N   0  0  0  0  0  2  0  0  0  0  0  0
  184.8580  178.4300  141.5870 C   0  0  1  0  0  3  0  0  0  0  0  0
  185.0170  178.1320  143.0040 N   0  0  0  0  0  2  0  0  0  0  0  0
  184.6950  179.3470  143.7330 C   0  0  0  0  0  2  0  0  0  0  0  0
  184.6020  179.0570  145.1950 C   0  0  0  0  0  0  0  0  0  0  0  0
  183.5130  179.0020  145.7430 O   0  0  0  0  0  0  0  0  0  0  0  0
  185.6800  179.3690  147.3280 N   0  0  0  0  0  1  0  0  0  0  0  0
  185.8490  178.8380  145.9860 C   0  0  0  0  0  2  0  0  0  0  0  0
  183.5400  178.8470  141.2800 O   0  0  0  0  0  0  0  0  0  0  0  0
  183.8930  177.6120  138.8090 O   0  0  0  0  0  0  0  0  0  0  0  0
  184.1200  180.3590  138.9730 O   0  0  0  0  0  1  0  0  0  0  0  0
  183.3180  179.0000  139.5870 P   0  0  0  0  0  0  0  0  0  0  0  0
  181.8400  179.1380  139.3010 O   0  0  0  0  0  1  0  0  0  0  0  0
  1 14  1  1  0  0  0
  1 11  1  0  0  0  0
  1  8  1  0  0  0  0
  2 10  1  0  0  0  0
  2 12  1  0  0  0  0
  3  4  2  0  0  0  0
  4  5  1  0  0  0  0
  5  7  1  0  0  0  0
  7  6  1  0  0  0  0
  8  2  2  0  0  0  0
  9  4  1  0  0  0  0
  9 10  2  0  0  0  0
 10  7  1  0  0  0  0
 11  9  1  0  0  0  0
 13 11  2  0  0  0  0
 14 18  2  0  0  0  0
 15 19  1  0  0  0  0
 16 14  1  0  0  0  0
 17 16  1  0  0  0  0
 17 22  2  0  0  0  0
 19 24  1  0  0  0  0
 19 21  2  0  0  0  0
 20 15  2  0  0  0  0
 20 17  1  0  0  0  0
 22 21  1  0  0  0  0
 22 18  1  0  0  0  0
 23 24  1  0  0  0  0
 25 12  1  0  0  0  0
 26 25  1  1  0  0  0
 26 27  1  0  0  0  0
 27 28  1  0  0  0  0
 28 29  1  0  0  0  0
 29 30  2  0  0  0  0
 29 32  1  0  0  0  0
 32 31  1  0  0  0  0
 33 26  1  0  0  0  0
 34 36  2  0  0  0  0
 35 36  1  0  0  0  0
 36 33  1  0  0  0  0
 37 36  1  0  0  0  0
M  END
>  <MODEL>
4

>  <REMARK>
 VINA RESULT:      -7.1      2.759      7.875
  Name = 
  10 active torsions:
  status: ('A' for Active; 'I' for Inactive)
    1  A    between atoms: C_1  and  C_3
    2  A    between atoms: C_7  and  C_29
    3  A    between atoms: C_7  and  C_33
    4  A    between atoms: C_16  and  N_19
    5  A    between atoms: C_16  and  N_30
    6  A    between atoms: C_16  and  O_36
    7  A    between atoms: N_19  and  C_29
    8  A    between atoms: C_24  and  O_34
    9  A    between atoms: P_26  and  O_36
   10  A    between atoms: N_30  and  N_31
                            x       y       z     vdW  Elec       q    Type
                         _______ _______ _______ _____ _____    ______ ____

>  <TORSDO>
F 10

$$$$
=
 OpenBabel11042412103D

 37 40  0  0  1  0  0  0  0  0999 V2000
  189.5680  177.8750  139.3540 C   0  0  1  0  0  3  0  0  0  0  0  0
  190.4610  175.8630  138.2100 C   0  0  0  0  0  0  0  0  0  0  0  0
  185.9050  176.4080  137.0020 O   0  0  0  0  0  0  0  0  0  0  0  0
  187.0540  175.9080  137.1280 C   0  0  0  0  0  0  0  0  0  0  0  0
  187.4320  174.7360  136.5750 N   0  0  0  0  0  2  0  0  0  0  0  0
  189.4770  173.3880  136.4950 C   0  0  0  0  0  1  0  0  0  0  0  0
  188.7010  174.5420  136.9160 N   0  0  0  0  0  0  0  0  0  0  0  0
  190.6380  176.9440  138.9260 N   0  0  0  0  0  0  0  0  0  0  0  0
  188.1020  176.4570  137.8310 C   0  0  0  0  0  0  0  0  0  0  0  0
  189.1220  175.5730  137.6780 C   0  0  0  0  0  0  0  0  0  0  0  0
  188.2800  177.7030  138.5720 C   0  0  0  0  0  0  0  0  0  0  0  0
  191.5670  175.0150  137.9020 N   0  0  0  0  0  2  0  0  0  0  0  0
  187.3460  178.5950  138.6230 N   0  0  0  0  0  2  0  0  0  0  0  0
  189.3050  177.6890  140.8110 C   0  0  0  0  0  0  0  0  0  0  0  0
  187.7760  177.2750  144.9430 C   0  0  0  0  0  3  0  0  0  0  0  0
  188.0920  177.7140  141.3420 O   0  0  0  0  0  0  0  0  0  0  0  0
  188.2640  177.5340  142.6220 C   0  0  0  0  0  0  0  0  0  0  0  0
  190.2940  177.4960  141.7220 N   0  0  0  0  0  0  0  0  0  0  0  0
  189.1640  177.1340  145.2110 C   0  0  0  0  0  0  0  0  0  0  0  0
  187.3090  177.4790  143.6310 C   0  0  0  0  0  3  0  0  0  0  0  0
  190.0920  177.1980  144.1540 C   0  0  0  0  0  3  0  0  0  0  0  0
  189.5980  177.4010  142.8690 C   0  0  0  0  0  0  0  0  0  0  0  0
  191.0200  176.7660  146.8040 C   0  0  0  0  0  1  0  0  0  0  0  0
  189.6390  176.9360  146.5100 O   0  0  0  0  0  0  0  0  0  0  0  0
  192.8680  175.3490  138.3000 N   0  0  0  0  0  2  0  0  0  0  0  0
  193.7760  174.5400  137.4940 C   0  0  1  0  0  3  0  0  0  0  0  0
  193.2820  174.3980  136.1320 N   0  0  0  0  0  2  0  0  0  0  0  0
  194.1750  173.4770  135.4500 C   0  0  0  0  0  2  0  0  0  0  0  0
  193.8210  172.0690  135.7990 C   0  0  0  0  0  0  0  0  0  0  0  0
  192.6630  171.6900  135.7270 O   0  0  0  0  0  0  0  0  0  0  0  0
  196.1920  171.6320  135.8400 N   0  0  0  0  0  1  0  0  0  0  0  0
  194.8900  171.1250  136.2420 C   0  0  0  0  0  2  0  0  0  0  0  0
  195.1110  175.0130  137.5260 O   0  0  0  0  0  0  0  0  0  0  0  0
  196.0930  175.2670  140.1190 O   0  0  0  0  0  1  0  0  0  0  0  0
  197.5780  173.8640  138.2610 O   0  0  0  0  0  0  0  0  0  0  0  0
  196.0090  174.2490  138.7700 P   0  0  0  0  0  0  0  0  0  0  0  0
  195.3020  172.9740  139.1690 O   0  0  0  0  0  1  0  0  0  0  0  0
  1 14  1  1  0  0  0
  2  8  2  0  0  0  0
  3  4  2  0  0  0  0
  4  9  1  0  0  0  0
  5  7  1  0  0  0  0
  5  4  1  0  0  0  0
  6  7  1  0  0  0  0
  7 10  1  0  0  0  0
  8  1  1  0  0  0  0
  9 11  1  0  0  0  0
 10  9  2  0  0  0  0
 10  2  1  0  0  0  0
 11 13  2  0  0  0  0
 11  1  1  0  0  0  0
 12  2  1  0  0  0  0
 12 25  1  0  0  0  0
 14 16  1  0  0  0  0
 14 18  2  0  0  0  0
 15 19  1  0  0  0  0
 16 17  1  0  0  0  0
 17 22  2  0  0  0  0
 17 20  1  0  0  0  0
 18 22  1  0  0  0  0
 19 24  1  0  0  0  0
 20 15  2  0  0  0  0
 21 19  2  0  0  0  0
 22 21  1  0  0  0  0
 24 23  1  0  0  0  0
 26 27  1  6  0  0  0
 26 33  1  0  0  0  0
 26 25  1  0  0  0  0
 28 29  1  0  0  0  0
 28 27  1  0  0  0  0
 29 32  1  0  0  0  0
 30 29  2  0  0  0  0
 31 32  1  0  0  0  0
 33 36  1  0  0  0  0
 35 36  2  0  0  0  0
 36 37  1  0  0  0  0
 36 34  1  0  0  0  0
M  END
>  <MODEL>
5

>  <REMARK>
 VINA RESULT:      -7.1      4.629      6.104
  Name = 
  10 active torsions:
  status: ('A' for Active; 'I' for Inactive)
    1  A    between atoms: C_1  and  C_3
    2  A    between atoms: C_7  and  C_29
    3  A    between atoms: C_7  and  C_33
    4  A    between atoms: C_16  and  N_19
    5  A    between atoms: C_16  and  N_30
    6  A    between atoms: C_16  and  O_36
    7  A    between atoms: N_19  and  C_29
    8  A    between atoms: C_24  and  O_34
    9  A    between atoms: P_26  and  O_36
   10  A    between atoms: N_30  and  N_31
                            x       y       z     vdW  Elec       q    Type
                         _______ _______ _______ _____ _____    ______ ____

>  <TORSDO>
F 10

$$$$
=
 OpenBabel11042412103D

 37 40  0  0  1  0  0  0  0  0999 V2000
  184.3500  179.1940  140.6750 C   0  0  1  0  0  3  0  0  0  0  0  0
  185.2080  178.0650  138.6390 C   0  0  0  0  0  0  0  0  0  0  0  0
  181.0440  176.1220  139.8190 O   0  0  0  0  0  0  0  0  0  0  0  0
  182.1480  176.3200  139.2480 C   0  0  0  0  0  0  0  0  0  0  0  0
  182.6090  175.5790  138.2180 N   0  0  0  0  0  2  0  0  0  0  0  0
  184.6010  175.5660  136.7900 C   0  0  0  0  0  1  0  0  0  0  0  0
  183.7890  176.0840  137.8790 N   0  0  0  0  0  0  0  0  0  0  0  0
  185.2740  179.0230  139.5290 N   0  0  0  0  0  0  0  0  0  0  0  0
  183.0570  177.3050  139.5620 C   0  0  0  0  0  0  0  0  0  0  0  0
  184.0770  177.1290  138.6830 C   0  0  0  0  0  0  0  0  0  0  0  0
  183.0670  178.3990  140.5300 C   0  0  0  0  0  0  0  0  0  0  0  0
  186.1890  177.9760  137.6060 N   0  0  0  0  0  2  0  0  0  0  0  0
  182.0490  178.6350  141.2900 N   0  0  0  0  0  2  0  0  0  0  0  0
  185.0480  178.8040  141.9350 C   0  0  0  0  0  0  0  0  0  0  0  0
  187.5430  177.1810  145.2100 C   0  0  0  0  0  3  0  0  0  0  0  0
  186.0780  177.9730  141.9720 O   0  0  0  0  0  0  0  0  0  0  0  0
  186.4010  177.8670  143.2300 C   0  0  0  0  0  0  0  0  0  0  0  0
  184.6720  179.2590  143.1590 N   0  0  0  0  0  0  0  0  0  0  0  0
  186.6650  177.9860  145.9850 C   0  0  0  0  0  0  0  0  0  0  0  0
  187.4160  177.1140  143.8100 C   0  0  0  0  0  3  0  0  0  0  0  0
  185.6530  178.7310  145.3500 C   0  0  0  0  0  3  0  0  0  0  0  0
  185.5550  178.6430  143.9650 C   0  0  0  0  0  0  0  0  0  0  0  0
  188.0190  177.8980  148.0530 C   0  0  0  0  0  1  0  0  0  0  0  0
  186.7790  178.0560  147.3760 O   0  0  0  0  0  0  0  0  0  0  0  0
  187.2000  178.9370  137.4820 N   0  0  0  0  0  2  0  0  0  0  0  0
  188.4650  178.2540  137.7280 C   0  0  1  0  0  3  0  0  0  0  0  0
  189.2270  178.1030  136.4970 N   0  0  0  0  0  2  0  0  0  0  0  0
  189.0930  176.7170  136.0820 C   0  0  0  0  0  2  0  0  0  0  0  0
  190.3710  175.9840  136.3270 C   0  0  0  0  0  0  0  0  0  0  0  0
  191.3960  176.6000  136.5720 O   0  0  0  0  0  0  0  0  0  0  0  0
  190.2500  173.9440  137.6060 N   0  0  0  0  0  1  0  0  0  0  0  0
  190.3910  174.4920  136.2680 C   0  0  0  0  0  2  0  0  0  0  0  0
  189.2310  178.8630  138.7530 O   0  0  0  0  0  0  0  0  0  0  0  0
  189.3840  178.2750  141.4700 O   0  0  0  0  0  1  0  0  0  0  0  0
  191.3980  177.3970  139.7980 O   0  0  0  0  0  1  0  0  0  0  0  0
  189.7390  177.7100  139.9150 P   0  0  0  0  0  0  0  0  0  0  0  0
  188.9830  176.4210  139.6840 O   0  0  0  0  0  0  0  0  0  0  0  0
  1 14  1  1  0  0  0
  2 10  1  0  0  0  0
  2  8  2  0  0  0  0
  4  9  1  0  0  0  0
  4  3  2  0  0  0  0
  5  4  1  0  0  0  0
  6  7  1  0  0  0  0
  7  5  1  0  0  0  0
  7 10  1  0  0  0  0
  8  1  1  0  0  0  0
  9 11  1  0  0  0  0
 10  9  2  0  0  0  0
 11  1  1  0  0  0  0
 11 13  2  0  0  0  0
 12  2  1  0  0  0  0
 14 16  1  0  0  0  0
 14 18  2  0  0  0  0
 15 19  1  0  0  0  0
 16 17  1  0  0  0  0
 17 20  1  0  0  0  0
 17 22  2  0  0  0  0
 18 22  1  0  0  0  0
 19 24  1  0  0  0  0
 20 15  2  0  0  0  0
 21 19  2  0  0  0  0
 22 21  1  0  0  0  0
 24 23  1  0  0  0  0
 25 12  1  0  0  0  0
 25 26  1  0  0  0  0
 26 27  1  6  0  0  0
 26 33  1  0  0  0  0
 28 29  1  0  0  0  0
 28 27  1  0  0  0  0
 29 30  2  0  0  0  0
 32 29  1  0  0  0  0
 32 31  1  0  0  0  0
 33 36  1  0  0  0  0
 35 36  1  0  0  0  0
 36 34  1  0  0  0  0
 37 36  2  0  0  0  0
M  END
>  <MODEL>
6

>  <REMARK>
 VINA RESULT:      -7.1      1.858      2.660
  Name = 
  10 active torsions:
  status: ('A' for Active; 'I' for Inactive)
    1  A    between atoms: C_1  and  C_3
    2  A    between atoms: C_7  and  C_29
    3  A    between atoms: C_7  and  C_33
    4  A    between atoms: C_16  and  N_19
    5  A    between atoms: C_16  and  N_30
    6  A    between atoms: C_16  and  O_36
    7  A    between atoms: N_19  and  C_29
    8  A    between atoms: C_24  and  O_34
    9  A    between atoms: P_26  and  O_36
   10  A    between atoms: N_30  and  N_31
                            x       y       z     vdW  Elec       q    Type
                         _______ _______ _______ _____ _____    ______ ____

>  <TORSDO>
F 10

$$$$
=
 OpenBabel11042412103D

 37 40  0  0  1  0  0  0  0  0999 V2000
  189.3490  178.1390  139.4370 C   0  0  1  0  0  3  0  0  0  0  0  0
  190.7400  176.4100  138.3270 C   0  0  0  0  0  0  0  0  0  0  0  0
  186.2100  175.7570  137.0770 O   0  0  0  0  0  0  0  0  0  0  0  0
  187.4470  175.5700  137.2190 C   0  0  0  0  0  0  0  0  0  0  0  0
  188.1190  174.5280  136.6840 N   0  0  0  0  0  2  0  0  0  0  0  0
  190.4410  173.7480  136.6370 C   0  0  0  0  0  1  0  0  0  0  0  0
  189.3910  174.6690  137.0370 N   0  0  0  0  0  0  0  0  0  0  0  0
  190.6270  177.5090  139.0300 N   0  0  0  0  0  0  0  0  0  0  0  0
  188.3120  176.3760  137.9220 C   0  0  0  0  0  0  0  0  0  0  0  0
  189.5260  175.7810  137.7880 C   0  0  0  0  0  0  0  0  0  0  0  0
  188.1580  177.6340  138.6480 C   0  0  0  0  0  0  0  0  0  0  0  0
  192.0300  175.8700  138.0390 N   0  0  0  0  0  2  0  0  0  0  0  0
  187.0260  178.2580  138.6810 N   0  0  0  0  0  2  0  0  0  0  0  0
  189.1270  177.9070  140.8950 C   0  0  0  0  0  0  0  0  0  0  0  0
  187.7190  177.3930  145.0590 C   0  0  0  0  0  3  0  0  0  0  0  0
  187.9340  177.9590  141.4680 O   0  0  0  0  0  0  0  0  0  0  0  0
  188.1410  177.7230  142.7330 C   0  0  0  0  0  0  0  0  0  0  0  0
  190.1370  177.6410  141.7640 N   0  0  0  0  0  0  0  0  0  0  0  0
  189.1080  177.1890  145.2730 C   0  0  0  0  0  0  0  0  0  0  0  0
  187.2180  177.6650  143.7720 C   0  0  0  0  0  3  0  0  0  0  0  0
  190.0030  177.2570  144.1880 C   0  0  0  0  0  3  0  0  0  0  0  0
  189.4760  177.5280  142.9290 C   0  0  0  0  0  0  0  0  0  0  0  0
  191.0050  176.7320  146.7940 C   0  0  0  0  0  1  0  0  0  0  0  0
  189.6180  176.9230  146.5470 O   0  0  0  0  0  0  0  0  0  0  0  0
  193.1970  176.5310  138.4420 N   0  0  0  0  0  2  0  0  0  0  0  0
  194.3050  175.6120  138.2040 C   0  0  1  0  0  3  0  0  0  0  0  0
  194.9840  175.2770  139.4480 N   0  0  0  0  0  2  0  0  0  0  0  0
  196.1010  174.4140  139.1030 C   0  0  0  0  0  2  0  0  0  0  0  0
  197.3380  174.8760  139.8010 C   0  0  0  0  0  0  0  0  0  0  0  0
  197.2850  175.2560  140.9600 O   0  0  0  0  0  0  0  0  0  0  0  0
  198.4300  175.2550  137.6850 N   0  0  0  0  0  1  0  0  0  0  0  0
  198.6410  174.8770  139.0730 C   0  0  0  0  0  2  0  0  0  0  0  0
  193.9190  174.4550  137.4840 O   0  0  0  0  0  0  0  0  0  0  0  0
  193.0520  175.2550  134.9620 O   0  0  0  0  0  0  0  0  0  0  0  0
  194.7400  173.0790  135.1660 O   0  0  0  0  0  1  0  0  0  0  0  0
  194.3420  174.5860  135.8290 P   0  0  0  0  0  0  0  0  0  0  0  0
  195.5360  175.5030  135.7020 O   0  0  0  0  0  1  0  0  0  0  0  0
  1 14  1  1  0  0  0
  2  8  2  0  0  0  0
  3  4  2  0  0  0  0
  4  9  1  0  0  0  0
  5  7  1  0  0  0  0
  5  4  1  0  0  0  0
  6  7  1  0  0  0  0
  7 10  1  0  0  0  0
  8  1  1  0  0  0  0
  9 11  1  0  0  0  0
 10  9  2  0  0  0  0
 10  2  1  0  0  0  0
 11 13  2  0  0  0  0
 11  1  1  0  0  0  0
 12  2  1  0  0  0  0
 12 25  1  0  0  0  0
 14 16  1  0  0  0  0
 14 18  2  0  0  0  0
 15 19  1  0  0  0  0
 16 17  1  0  0  0  0
 17 22  2  0  0  0  0
 17 20  1  0  0  0  0
 18 22  1  0  0  0  0
 19 24  1  0  0  0  0
 20 15  2  0  0  0  0
 21 19  2  0  0  0  0
 22 21  1  0  0  0  0
 24 23  1  0  0  0  0
 26 33  1  1  0  0  0
 26 25  1  0  0  0  0
 26 27  1  0  0  0  0
 28 27  1  0  0  0  0
 28 29  1  0  0  0  0
 29 30  2  0  0  0  0
 31 32  1  0  0  0  0
 32 29  1  0  0  0  0
 34 36  2  0  0  0  0
 35 36  1  0  0  0  0
 36 33  1  0  0  0  0
 37 36  1  0  0  0  0
M  END
>  <MODEL>
7

>  <REMARK>
 VINA RESULT:      -6.8      4.329      5.815
  Name = 
  10 active torsions:
  status: ('A' for Active; 'I' for Inactive)
    1  A    between atoms: C_1  and  C_3
    2  A    between atoms: C_7  and  C_29
    3  A    between atoms: C_7  and  C_33
    4  A    between atoms: C_16  and  N_19
    5  A    between atoms: C_16  and  N_30
    6  A    between atoms: C_16  and  O_36
    7  A    between atoms: N_19  and  C_29
    8  A    between atoms: C_24  and  O_34
    9  A    between atoms: P_26  and  O_36
   10  A    between atoms: N_30  and  N_31
                            x       y       z     vdW  Elec       q    Type
                         _______ _______ _______ _____ _____    ______ ____

>  <TORSDO>
F 10

$$$$
=
 OpenBabel11042412103D

 37 40  0  0  1  0  0  0  0  0999 V2000
  183.0910  178.9720  140.7360 C   0  0  1  0  0  3  0  0  0  0  0  0
  183.5010  177.3740  138.8840 C   0  0  0  0  0  0  0  0  0  0  0  0
  179.3620  176.2980  140.9380 O   0  0  0  0  0  0  0  0  0  0  0  0
  180.3840  176.2270  140.2070 C   0  0  0  0  0  0  0  0  0  0  0  0
  180.5980  175.2490  139.3010 N   0  0  0  0  0  2  0  0  0  0  0  0
  182.3410  174.6870  137.6730 C   0  0  0  0  0  1  0  0  0  0  0  0
  181.7660  175.5080  138.7240 N   0  0  0  0  0  0  0  0  0  0  0  0
  183.8090  178.4610  139.5450 N   0  0  0  0  0  0  0  0  0  0  0  0
  181.4370  177.1140  140.2000 C   0  0  0  0  0  0  0  0  0  0  0  0
  182.2880  176.6330  139.2560 C   0  0  0  0  0  0  0  0  0  0  0  0
  181.7180  178.3560  140.9150 C   0  0  0  0  0  0  0  0  0  0  0  0
  184.3010  176.9540  137.7780 N   0  0  0  0  0  2  0  0  0  0  0  0
  180.8580  178.8720  141.7300 N   0  0  0  0  0  2  0  0  0  0  0  0
  183.9190  178.7290  141.9550 C   0  0  0  0  0  0  0  0  0  0  0  0
  185.7540  178.2880  145.9570 C   0  0  0  0  0  3  0  0  0  0  0  0
  183.4790  178.9300  143.1870 O   0  0  0  0  0  0  0  0  0  0  0  0
  184.4770  178.6280  143.9700 C   0  0  0  0  0  0  0  0  0  0  0  0
  185.2050  178.2950  141.8990 N   0  0  0  0  0  0  0  0  0  0  0  0
  186.8620  177.8830  145.1650 C   0  0  0  0  0  0  0  0  0  0  0  0
  184.5380  178.6680  145.3590 C   0  0  0  0  0  3  0  0  0  0  0  0
  186.7490  177.8580  143.7610 C   0  0  0  0  0  3  0  0  0  0  0  0
  185.5330  178.2400  143.2020 C   0  0  0  0  0  0  0  0  0  0  0  0
  189.0640  176.7620  145.0470 C   0  0  0  0  0  1  0  0  0  0  0  0
  188.0750  177.5070  145.7470 O   0  0  0  0  0  0  0  0  0  0  0  0
  185.3870  177.7220  137.3380 N   0  0  0  0  0  2  0  0  0  0  0  0
  186.5500  176.8420  137.3310 C   0  0  1  0  0  3  0  0  0  0  0  0
  186.2360  175.5630  136.7100 N   0  0  0  0  0  2  0  0  0  0  0  0
  187.4010  174.7100  136.8800 C   0  0  0  0  0  2  0  0  0  0  0  0
  186.9720  173.3200  137.2150 C   0  0  0  0  0  0  0  0  0  0  0  0
  187.7780  172.4030  137.1840 O   0  0  0  0  0  0  0  0  0  0  0  0
  184.9030  172.2890  136.5300 N   0  0  0  0  0  1  0  0  0  0  0  0
  185.5500  173.0530  137.5840 C   0  0  0  0  0  2  0  0  0  0  0  0
  187.6940  177.4440  136.7520 O   0  0  0  0  0  0  0  0  0  0  0  0
  190.0190  177.3750  138.2820 O   0  0  0  0  0  1  0  0  0  0  0  0
  187.7470  178.5170  139.3570 O   0  0  0  0  0  1  0  0  0  0  0  0
  188.6250  178.2670  137.9310 P   0  0  0  0  0  0  0  0  0  0  0  0
  189.0390  179.6110  137.3750 O   0  0  0  0  0  0  0  0  0  0  0  0
  1 11  1  0  0  0  0
  1 14  1  1  0  0  0
  2 10  1  0  0  0  0
  2  8  2  0  0  0  0
  4  3  2  0  0  0  0
  5  4  1  0  0  0  0
  6  7  1  0  0  0  0
  7 10  1  0  0  0  0
  7  5  1  0  0  0  0
  8  1  1  0  0  0  0
  9  4  1  0  0  0  0
  9 11  1  0  0  0  0
 10  9  2  0  0  0  0
 11 13  2  0  0  0  0
 12  2  1  0  0  0  0
 14 16  1  0  0  0  0
 16 17  1  0  0  0  0
 17 20  2  0  0  0  0
 18 14  2  0  0  0  0
 18 22  1  0  0  0  0
 19 24  1  0  0  0  0
 19 15  2  0  0  0  0
 20 15  1  0  0  0  0
 21 19  1  0  0  0  0
 22 21  2  0  0  0  0
 22 17  1  0  0  0  0
 23 24  1  0  0  0  0
 25 12  1  0  0  0  0
 26 27  1  6  0  0  0
 26 25  1  0  0  0  0
 27 28  1  0  0  0  0
 28 29  1  0  0  0  0
 29 32  1  0  0  0  0
 30 29  2  0  0  0  0
 31 32  1  0  0  0  0
 33 26  1  0  0  0  0
 33 36  1  0  0  0  0
 36 34  1  0  0  0  0
 36 35  1  0  0  0  0
 37 36  2  0  0  0  0
M  END
>  <MODEL>
8

>  <REMARK>
 VINA RESULT:      -6.8      2.043      3.196
  Name = 
  10 active torsions:
  status: ('A' for Active; 'I' for Inactive)
    1  A    between atoms: C_1  and  C_3
    2  A    between atoms: C_7  and  C_29
    3  A    between atoms: C_7  and  C_33
    4  A    between atoms: C_16  and  N_19
    5  A    between atoms: C_16  and  N_30
    6  A    between atoms: C_16  and  O_36
    7  A    between atoms: N_19  and  C_29
    8  A    between atoms: C_24  and  O_34
    9  A    between atoms: P_26  and  O_36
   10  A    between atoms: N_30  and  N_31
                            x       y       z     vdW  Elec       q    Type
                         _______ _______ _______ _____ _____    ______ ____

>  <TORSDO>
F 10

$$$$
=
 OpenBabel11042412103D

 37 40  0  0  1  0  0  0  0  0999 V2000
  187.3530  177.4820  136.8500 C   0  0  1  0  0  3  0  0  0  0  0  0
  188.7740  177.7430  138.8660 C   0  0  0  0  0  0  0  0  0  0  0  0
  191.4350  176.0110  135.3400 O   0  0  0  0  0  0  0  0  0  0  0  0
  191.0680  176.3810  136.4860 C   0  0  0  0  0  0  0  0  0  0  0  0
  191.8690  176.3770  137.5730 N   0  0  0  0  0  2  0  0  0  0  0  0
  191.6620  176.9990  139.9340 C   0  0  0  0  0  1  0  0  0  0  0  0
  191.1440  176.8350  138.5870 N   0  0  0  0  0  0  0  0  0  0  0  0
  187.6480  177.9370  138.2290 N   0  0  0  0  0  0  0  0  0  0  0  0
  189.8180  176.8470  136.8250 C   0  0  0  0  0  0  0  0  0  0  0  0
  189.8990  177.1230  138.1530 C   0  0  0  0  0  0  0  0  0  0  0  0
  188.5960  177.1070  136.0670 C   0  0  0  0  0  0  0  0  0  0  0  0
  188.9230  178.1860  140.2160 N   0  0  0  0  0  2  0  0  0  0  0  0
  188.5530  176.9490  134.7850 N   0  0  0  0  0  2  0  0  0  0  0  0
  186.4170  176.3200  136.9030 C   0  0  0  0  0  0  0  0  0  0  0  0
  184.2840  172.4560  137.2250 C   0  0  0  0  0  3  0  0  0  0  0  0
  186.7950  175.0940  137.2310 O   0  0  0  0  0  0  0  0  0  0  0  0
  185.7190  174.3610  137.1500 C   0  0  0  0  0  0  0  0  0  0  0  0
  185.0970  176.4200  136.5990 N   0  0  0  0  0  0  0  0  0  0  0  0
  183.1930  173.2730  136.8260 C   0  0  0  0  0  0  0  0  0  0  0  0
  185.5710  173.0000  137.3920 C   0  0  0  0  0  3  0  0  0  0  0  0
  183.3940  174.6480  136.5930 C   0  0  0  0  0  3  0  0  0  0  0  0
  184.6790  175.1530  136.7670 C   0  0  0  0  0  0  0  0  0  0  0  0
  181.0520  173.1470  135.5930 C   0  0  0  0  0  1  0  0  0  0  0  0
  181.9110  172.7440  136.6520 O   0  0  0  0  0  0  0  0  0  0  0  0
  187.8990  178.8890  140.8630 N   0  0  0  0  0  2  0  0  0  0  0  0
  187.6680  178.2200  142.1380 C   0  0  1  0  0  3  0  0  0  0  0  0
  186.2460  178.0070  142.3680 N   0  0  0  0  0  2  0  0  0  0  0  0
  185.5660  179.2340  141.9900 C   0  0  0  0  0  2  0  0  0  0  0  0
  184.3530  178.9170  141.1780 C   0  0  0  0  0  0  0  0  0  0  0  0
  183.2790  178.7280  141.7270 O   0  0  0  0  0  0  0  0  0  0  0  0
  184.1920  180.1280  139.1000 N   0  0  0  0  0  1  0  0  0  0  0  0
  184.4600  178.8280  139.6930 C   0  0  0  0  0  2  0  0  0  0  0  0
  188.4110  177.0220  142.2750 O   0  0  0  0  0  0  0  0  0  0  0  0
  188.7290  176.7650  145.0300 O   0  0  0  0  0  1  0  0  0  0  0  0
  190.2130  178.6670  143.6860 O   0  0  0  0  0  1  0  0  0  0  0  0
  189.5200  177.1260  143.5780 P   0  0  0  0  0  0  0  0  0  0  0  0
  190.6210  176.1130  143.3620 O   0  0  0  0  0  0  0  0  0  0  0  0
  1 14  1  1  0  0  0
  1  8  1  0  0  0  0
  2 12  1  0  0  0  0
  3  4  2  0  0  0  0
  4  9  1  0  0  0  0
  4  5  1  0  0  0  0
  5  7  1  0  0  0  0
  7  6  1  0  0  0  0
  8  2  2  0  0  0  0
  9 10  2  0  0  0  0
 10  7  1  0  0  0  0
 10  2  1  0  0  0  0
 11  9  1  0  0  0  0
 11  1  1  0  0  0  0
 12 25  1  0  0  0  0
 13 11  2  0  0  0  0
 14 16  1  0  0  0  0
 15 20  1  0  0  0  0
 17 16  1  0  0  0  0
 17 20  2  0  0  0  0
 18 22  1  0  0  0  0
 18 14  2  0  0  0  0
 19 15  2  0  0  0  0
 21 22  2  0  0  0  0
 21 19  1  0  0  0  0
 22 17  1  0  0  0  0
 23 24  1  0  0  0  0
 24 19  1  0  0  0  0
 26 25  1  6  0  0  0
 26 33  1  0  0  0  0
 26 27  1  0  0  0  0
 28 27  1  0  0  0  0
 29 30  2  0  0  0  0
 29 28  1  0  0  0  0
 31 32  1  0  0  0  0
 32 29  1  0  0  0  0
 33 36  1  0  0  0  0
 36 35  1  0  0  0  0
 36 34  1  0  0  0  0
 37 36  2  0  0  0  0
M  END
>  <MODEL>
9

>  <REMARK>
 VINA RESULT:      -6.7      2.690      7.815
  Name = 
  10 active torsions:
  status: ('A' for Active; 'I' for Inactive)
    1  A    between atoms: C_1  and  C_3
    2  A    between atoms: C_7  and  C_29
    3  A    between atoms: C_7  and  C_33
    4  A    between atoms: C_16  and  N_19
    5  A    between atoms: C_16  and  N_30
    6  A    between atoms: C_16  and  O_36
    7  A    between atoms: N_19  and  C_29
    8  A    between atoms: C_24  and  O_34
    9  A    between atoms: P_26  and  O_36
   10  A    between atoms: N_30  and  N_31
                            x       y       z     vdW  Elec       q    Type
                         _______ _______ _______ _____ _____    ______ ____

>  <TORSDO>
F 10

$$$$
