=
 OpenBabel11042413203D

 40 42  0  0  1  0  0  0  0  0999 V2000
  188.4470  176.8200  142.5620 C   0  0  0  0  0  3  0  0  0  0  0  0
  187.9520  177.5880  141.5920 C   0  0  0  0  0  3  0  0  0  0  0  0
  189.9150  176.4510  142.6340 C   0  0  1  0  0  3  0  0  0  0  0  0
  188.8110  178.0080  140.4810 C   0  0  0  0  0  0  0  0  0  0  0  0
  190.6050  176.5880  141.2870 C   0  0  0  0  0  3  0  0  0  0  0  0
  188.3870  178.8470  139.6420 O   0  0  0  0  0  0  0  0  0  0  0  0
  190.1270  177.3690  140.3060 C   0  0  0  0  0  0  0  0  0  0  0  0
  190.7570  177.4380  139.0190 N   0  0  0  0  0  2  0  0  0  0  0  0
  192.7710  174.8020  137.4290 C   0  0  0  0  0  0  0  0  0  0  0  0
  194.0830  174.1260  137.2380 C   0  0  0  0  0  1  0  0  0  0  0  0
  192.5370  175.9390  138.1860 C   0  0  0  0  0  0  0  0  0  0  0  0
  190.3580  175.5020  137.4660 C   0  0  0  0  0  0  0  0  0  0  0  0
  191.3070  174.2640  136.8130 S   0  0  0  0  0  0  0  0  0  0  0  0
  193.5410  176.6110  138.8740 O   0  0  0  0  0  1  0  0  0  0  0  0
  191.1960  176.3420  138.2040 C   0  0  0  0  0  0  0  0  0  0  0  0
  188.8620  175.5190  137.4740 C   0  0  0  0  0  2  0  0  0  0  0  0
  188.3080  176.5130  136.4650 C   0  0  0  0  0  2  0  0  0  0  0  0
  187.2290  177.2050  137.0190 O   0  0  0  0  0  0  0  0  0  0  0  0
  186.2340  177.3100  134.8500 C   0  0  0  0  0  1  0  0  0  0  0  0
  186.1200  176.7960  136.2730 C   0  0  2  0  0  3  0  0  0  0  0  0
  184.8360  177.2970  136.9210 C   0  0  0  0  0  2  0  0  0  0  0  0
  185.0880  177.7740  138.2100 O   0  0  0  0  0  0  0  0  0  0  0  0
  183.8250  178.0670  138.7300 C   0  0  0  0  0  2  0  0  0  0  0  0
  184.4080  180.3730  138.9920 O   0  0  0  0  0  1  0  0  0  0  0  0
  183.8950  179.2640  139.6660 C   0  0  2  0  0  3  0  0  0  0  0  0
  184.7540  178.9540  140.8760 C   0  0  0  0  0  1  0  0  0  0  0  0
  190.6130  177.2930  143.7190 C   0  0  2  0  0  3  0  0  0  0  0  0
  191.8830  175.3240  144.2550 O   0  0  0  0  0  0  0  0  0  0  0  0
  191.5060  176.4740  144.6040 C   0  0  0  0  0  0  0  0  0  0  0  0
  191.8620  176.9730  145.8890 N   0  0  0  0  0  1  0  0  0  0  0  0
  189.5900  178.0230  144.5860 C   0  0  0  0  0  2  0  0  0  0  0  0
  188.9110  177.0540  145.5350 C   0  0  0  0  0  2  0  0  0  0  0  0
  188.5350  177.7520  146.7530 N   0  0  0  0  0  2  0  0  0  0  0  0
  186.9380  178.7710  148.0930 O   0  0  0  0  0  0  0  0  0  0  0  0
  187.1950  178.1710  147.0150 C   0  0  0  0  0  0  0  0  0  0  0  0
  184.8720  179.3790  144.5290 C   0  0  0  0  0  2  0  0  0  0  0  0
  183.9050  178.6780  145.4600 C   0  0  0  0  0  2  0  0  0  0  0  0
  186.2400  178.7770  144.7930 C   0  0  0  0  0  2  0  0  0  0  0  0
  184.7430  178.1990  146.6210 C   0  0  0  0  0  2  0  0  0  0  0  0
  186.1010  177.9010  146.0260 C   0  0  0  0  0  3  0  0  0  0  0  0
  1  3  1  0  0  0  0
  2  1  2  0  0  0  0
  3 27  1  1  0  0  0
  4  2  1  0  0  0  0
  5  3  1  0  0  0  0
  6  4  2  0  0  0  0
  7  4  1  0  0  0  0
  7  5  2  0  0  0  0
  8  7  1  0  0  0  0
  9 11  2  0  0  0  0
 10  9  1  0  0  0  0
 11 15  1  0  0  0  0
 11 14  1  0  0  0  0
 12 16  1  0  0  0  0
 12 15  2  0  0  0  0
 13  9  1  0  0  0  0
 13 12  1  0  0  0  0
 15  8  1  0  0  0  0
 17 18  1  0  0  0  0
 17 16  1  0  0  0  0
 20 19  1  6  0  0  0
 20 21  1  0  0  0  0
 20 18  1  0  0  0  0
 21 22  1  0  0  0  0
 22 23  1  0  0  0  0
 23 25  1  0  0  0  0
 24 25  1  0  0  0  0
 25 26  1  1  0  0  0
 27 31  1  1  0  0  0
 27 29  1  0  0  0  0
 28 29  2  0  0  0  0
 29 30  1  0  0  0  0
 31 32  1  0  0  0  0
 32 33  1  0  0  0  0
 33 35  1  0  0  0  0
 35 34  2  0  0  0  0
 36 38  1  0  0  0  0
 36 37  1  0  0  0  0
 37 39  1  0  0  0  0
 38 40  1  0  0  0  0
 40 39  1  0  0  0  0
 40 35  1  0  0  0  0
M  END
>  <MODEL>
1

>  <REMARK>
 VINA RESULT:      -7.7      0.000      0.000
  Name = 
  16 active torsions:
  status: ('A' for Active; 'I' for Inactive)
    1  A    between atoms: C_3  and  C_19
    2  A    between atoms: O_4  and  C_8
    3  A    between atoms: O_4  and  C_35
    4  A    between atoms: C_7  and  C_8
    5  A    between atoms: C_7  and  C_33
    6  A    between atoms: N_9  and  C_27
    7  A    between atoms: C_10  and  O_16
    8  A    between atoms: C_10  and  C_35
    9  A    between atoms: C_12  and  C_19
   10  A    between atoms: C_12  and  C_27
   11  A    between atoms: O_16  and  C_38
   12  A    between atoms: C_18  and  C_19
   13  A    between atoms: C_21  and  C_38
   14  A    between atoms: C_29  and  C_30
   15  A    between atoms: C_32  and  N_34
   16  A    between atoms: N_34  and  C_40
                            x       y       z     vdW  Elec       q    Type
                         _______ _______ _______ _____ _____    ______ ____

>  <TORSDO>
F 16

$$$$
=
 OpenBabel11042413203D

 40 42  0  0  1  0  0  0  0  0999 V2000
  191.4890  177.0090  139.4620 C   0  0  0  0  0  3  0  0  0  0  0  0
  191.6780  176.0110  138.5990 C   0  0  0  0  0  3  0  0  0  0  0  0
  190.1090  177.5340  139.8030 C   0  0  1  0  0  3  0  0  0  0  0  0
  190.5420  175.4630  137.8540 C   0  0  0  0  0  0  0  0  0  0  0  0
  189.0870  177.1940  138.7310 C   0  0  0  0  0  3  0  0  0  0  0  0
  190.6930  174.4310  137.1480 O   0  0  0  0  0  0  0  0  0  0  0  0
  189.2570  176.1840  137.8650 C   0  0  0  0  0  0  0  0  0  0  0  0
  188.3120  175.9180  136.8190 N   0  0  0  0  0  2  0  0  0  0  0  0
  185.2410  173.9660  137.3540 C   0  0  0  0  0  0  0  0  0  0  0  0
  184.5750  172.6550  137.5840 C   0  0  0  0  0  1  0  0  0  0  0  0
  186.5920  174.1690  137.1250 C   0  0  0  0  0  0  0  0  0  0  0  0
  185.8570  176.3870  137.0830 C   0  0  0  0  0  0  0  0  0  0  0  0
  184.4800  175.4600  137.4010 S   0  0  0  0  0  0  0  0  0  0  0  0
  187.5170  173.1330  137.0710 O   0  0  0  0  0  1  0  0  0  0  0  0
  186.9430  175.5160  136.9620 C   0  0  0  0  0  0  0  0  0  0  0  0
  185.9290  177.8770  137.1930 C   0  0  0  0  0  2  0  0  0  0  0  0
  184.9690  178.4070  138.2470 C   0  0  0  0  0  2  0  0  0  0  0  0
  185.6480  178.6210  139.4480 O   0  0  0  0  0  0  0  0  0  0  0  0
  183.3080  178.6510  139.9280 C   0  0  0  0  0  1  0  0  0  0  0  0
  184.7050  178.3590  140.4450 C   0  0  2  0  0  3  0  0  0  0  0  0
  185.0020  179.1960  141.6830 C   0  0  0  0  0  2  0  0  0  0  0  0
  183.9160  179.1790  142.5610 O   0  0  0  0  0  0  0  0  0  0  0  0
  184.4260  179.6720  143.7640 C   0  0  0  0  0  2  0  0  0  0  0  0
  183.6660  179.1210  145.9650 O   0  0  0  0  0  1  0  0  0  0  0  0
  184.3440  178.6150  144.8550 C   0  0  2  0  0  3  0  0  0  0  0  0
  185.7290  178.1530  145.2640 C   0  0  0  0  0  1  0  0  0  0  0  0
  189.6780  177.0090  141.1860 C   0  0  2  0  0  3  0  0  0  0  0  0
  188.3240  178.9690  141.5020 O   0  0  0  0  0  0  0  0  0  0  0  0
  188.4950  177.7450  141.7440 C   0  0  0  0  0  0  0  0  0  0  0  0
  187.6040  177.0690  142.6230 N   0  0  0  0  0  1  0  0  0  0  0  0
  190.8290  177.0910  142.1850 C   0  0  0  0  0  2  0  0  0  0  0  0
  190.7870  175.9150  143.1420 C   0  0  0  0  0  2  0  0  0  0  0  0
  191.7380  176.1310  144.2180 N   0  0  0  0  0  2  0  0  0  0  0  0
  192.2100  176.6740  146.4250 O   0  0  0  0  0  0  0  0  0  0  0  0
  191.3320  176.5030  145.5360 C   0  0  0  0  0  0  0  0  0  0  0  0
  188.6840  178.5350  146.9140 C   0  0  0  0  0  2  0  0  0  0  0  0
  188.4840  177.2730  147.7260 C   0  0  0  0  0  2  0  0  0  0  0  0
  189.4470  178.1290  145.6650 C   0  0  0  0  0  2  0  0  0  0  0  0
  189.6080  176.3510  147.3170 C   0  0  0  0  0  2  0  0  0  0  0  0
  189.8830  176.6880  145.8690 C   0  0  0  0  0  3  0  0  0  0  0  0
  1  3  1  0  0  0  0
  2  1  2  0  0  0  0
  3 27  1  1  0  0  0
  4  7  1  0  0  0  0
  4  2  1  0  0  0  0
  5  3  1  0  0  0  0
  6  4  2  0  0  0  0
  7  5  2  0  0  0  0
  8 15  1  0  0  0  0
  8  7  1  0  0  0  0
  9 13  1  0  0  0  0
  9 10  1  0  0  0  0
 11  9  2  0  0  0  0
 12 16  1  0  0  0  0
 12 13  1  0  0  0  0
 14 11  1  0  0  0  0
 15 12  2  0  0  0  0
 15 11  1  0  0  0  0
 16 17  1  0  0  0  0
 17 18  1  0  0  0  0
 18 20  1  0  0  0  0
 20 19  1  6  0  0  0
 20 21  1  0  0  0  0
 21 22  1  0  0  0  0
 22 23  1  0  0  0  0
 23 25  1  0  0  0  0
 25 26  1  1  0  0  0
 25 24  1  0  0  0  0
 27 29  1  0  0  0  0
 27 31  1  1  0  0  0
 28 29  2  0  0  0  0
 29 30  1  0  0  0  0
 31 32  1  0  0  0  0
 32 33  1  0  0  0  0
 33 35  1  0  0  0  0
 35 40  1  0  0  0  0
 35 34  2  0  0  0  0
 36 37  1  0  0  0  0
 38 40  1  0  0  0  0
 38 36  1  0  0  0  0
 39 37  1  0  0  0  0
 40 39  1  0  0  0  0
M  END
>  <MODEL>
2

>  <REMARK>
 VINA RESULT:      -7.6      2.408      5.066
  Name = 
  16 active torsions:
  status: ('A' for Active; 'I' for Inactive)
    1  A    between atoms: C_3  and  C_19
    2  A    between atoms: O_4  and  C_8
    3  A    between atoms: O_4  and  C_35
    4  A    between atoms: C_7  and  C_8
    5  A    between atoms: C_7  and  C_33
    6  A    between atoms: N_9  and  C_27
    7  A    between atoms: C_10  and  O_16
    8  A    between atoms: C_10  and  C_35
    9  A    between atoms: C_12  and  C_19
   10  A    between atoms: C_12  and  C_27
   11  A    between atoms: O_16  and  C_38
   12  A    between atoms: C_18  and  C_19
   13  A    between atoms: C_21  and  C_38
   14  A    between atoms: C_29  and  C_30
   15  A    between atoms: C_32  and  N_34
   16  A    between atoms: N_34  and  C_40
                            x       y       z     vdW  Elec       q    Type
                         _______ _______ _______ _____ _____    ______ ____

>  <TORSDO>
F 16

$$$$
=
 OpenBabel11042413203D

 40 42  0  0  1  0  0  0  0  0999 V2000
  187.3230  176.6660  144.4170 C   0  0  0  0  0  3  0  0  0  0  0  0
  186.5320  177.4430  145.1560 C   0  0  0  0  0  3  0  0  0  0  0  0
  187.6170  176.9610  142.9600 C   0  0  1  0  0  3  0  0  0  0  0  0
  185.8160  178.5600  144.5340 C   0  0  0  0  0  0  0  0  0  0  0  0
  186.5610  177.8580  142.3350 C   0  0  0  0  0  3  0  0  0  0  0  0
  185.1830  179.3780  145.2530 O   0  0  0  0  0  0  0  0  0  0  0  0
  185.7670  178.6570  143.0650 C   0  0  0  0  0  0  0  0  0  0  0  0
  184.7340  179.4490  142.4630 N   0  0  0  0  0  2  0  0  0  0  0  0
  181.3670  178.3500  141.4680 C   0  0  0  0  0  0  0  0  0  0  0  0
  179.9670  178.0050  141.8360 C   0  0  0  0  0  1  0  0  0  0  0  0
  182.3860  178.6840  142.3460 C   0  0  0  0  0  0  0  0  0  0  0  0
  183.5350  178.9010  140.3230 C   0  0  0  0  0  0  0  0  0  0  0  0
  181.9560  178.4670  139.9030 S   0  0  0  0  0  0  0  0  0  0  0  0
  182.2150  178.7300  143.7250 O   0  0  0  0  0  1  0  0  0  0  0  0
  183.6010  178.9830  141.7160 C   0  0  0  0  0  0  0  0  0  0  0  0
  184.5760  179.3780  139.3600 C   0  0  0  0  0  2  0  0  0  0  0  0
  185.2850  178.2170  138.6810 C   0  0  0  0  0  2  0  0  0  0  0  0
  186.6450  178.5030  138.5420 O   0  0  0  0  0  0  0  0  0  0  0  0
  186.3900  176.5490  137.1920 C   0  0  0  0  0  1  0  0  0  0  0  0
  187.0090  177.9290  137.3220 C   0  0  2  0  0  3  0  0  0  0  0  0
  188.5260  177.8460  137.2110 C   0  0  0  0  0  2  0  0  0  0  0  0
  188.9260  176.5500  136.8800 O   0  0  0  0  0  0  0  0  0  0  0  0
  190.2460  176.6870  136.4480 C   0  0  0  0  0  2  0  0  0  0  0  0
  190.3980  174.8770  138.0060 O   0  0  0  0  0  1  0  0  0  0  0  0
  191.1510  175.6940  137.1620 C   0  0  2  0  0  3  0  0  0  0  0  0
  192.2190  176.4150  137.9600 C   0  0  0  0  0  1  0  0  0  0  0  0
  189.0280  177.5630  142.8230 C   0  0  2  0  0  3  0  0  0  0  0  0
  189.2750  178.2010  140.5190 O   0  0  0  0  0  0  0  0  0  0  0  0
  189.5950  177.4060  141.4420 C   0  0  0  0  0  0  0  0  0  0  0  0
  190.4390  176.2970  141.1570 N   0  0  0  0  0  1  0  0  0  0  0  0
  189.9900  176.9340  143.8280 C   0  0  0  0  0  2  0  0  0  0  0  0
  190.9630  177.9730  144.3520 C   0  0  0  0  0  2  0  0  0  0  0  0
  191.7050  177.4200  145.4720 N   0  0  0  0  0  2  0  0  0  0  0  0
  191.8030  176.6890  147.6730 O   0  0  0  0  0  0  0  0  0  0  0  0
  191.1020  177.1720  146.7430 C   0  0  0  0  0  0  0  0  0  0  0  0
  188.4580  178.2370  148.9580 C   0  0  0  0  0  2  0  0  0  0  0  0
  187.8810  176.9170  148.4910 C   0  0  0  0  0  2  0  0  0  0  0  0
  189.4790  178.6560  147.9150 C   0  0  0  0  0  2  0  0  0  0  0  0
  188.9460  176.3010  147.6170 C   0  0  0  0  0  2  0  0  0  0  0  0
  189.6530  177.4750  146.9760 C   0  0  0  0  0  3  0  0  0  0  0  0
  1  2  2  0  0  0  0
  3 27  1  1  0  0  0
  3  1  1  0  0  0  0
  4  2  1  0  0  0  0
  4  6  2  0  0  0  0
  5  3  1  0  0  0  0
  5  7  2  0  0  0  0
  7  4  1  0  0  0  0
  8  7  1  0  0  0  0
  9 10  1  0  0  0  0
  9 11  2  0  0  0  0
 11 14  1  0  0  0  0
 12 15  2  0  0  0  0
 13 12  1  0  0  0  0
 13  9  1  0  0  0  0
 15 11  1  0  0  0  0
 15  8  1  0  0  0  0
 16 12  1  0  0  0  0
 17 16  1  0  0  0  0
 18 17  1  0  0  0  0
 20 19  1  1  0  0  0
 20 18  1  0  0  0  0
 21 20  1  0  0  0  0
 22 21  1  0  0  0  0
 23 22  1  0  0  0  0
 23 25  1  0  0  0  0
 25 26  1  1  0  0  0
 25 24  1  0  0  0  0
 27 31  1  1  0  0  0
 28 29  2  0  0  0  0
 29 27  1  0  0  0  0
 30 29  1  0  0  0  0
 31 32  1  0  0  0  0
 32 33  1  0  0  0  0
 33 35  1  0  0  0  0
 35 40  1  0  0  0  0
 35 34  2  0  0  0  0
 37 36  1  0  0  0  0
 38 36  1  0  0  0  0
 39 37  1  0  0  0  0
 40 39  1  0  0  0  0
 40 38  1  0  0  0  0
M  END
>  <MODEL>
3

>  <REMARK>
 VINA RESULT:      -7.5      2.890      6.597
  Name = 
  16 active torsions:
  status: ('A' for Active; 'I' for Inactive)
    1  A    between atoms: C_3  and  C_19
    2  A    between atoms: O_4  and  C_8
    3  A    between atoms: O_4  and  C_35
    4  A    between atoms: C_7  and  C_8
    5  A    between atoms: C_7  and  C_33
    6  A    between atoms: N_9  and  C_27
    7  A    between atoms: C_10  and  O_16
    8  A    between atoms: C_10  and  C_35
    9  A    between atoms: C_12  and  C_19
   10  A    between atoms: C_12  and  C_27
   11  A    between atoms: O_16  and  C_38
   12  A    between atoms: C_18  and  C_19
   13  A    between atoms: C_21  and  C_38
   14  A    between atoms: C_29  and  C_30
   15  A    between atoms: C_32  and  N_34
   16  A    between atoms: N_34  and  C_40
                            x       y       z     vdW  Elec       q    Type
                         _______ _______ _______ _____ _____    ______ ____

>  <TORSDO>
F 16

$$$$
=
 OpenBabel11042413203D

 40 42  0  0  1  0  0  0  0  0999 V2000
  183.5780  178.6980  142.2130 C   0  0  0  0  0  3  0  0  0  0  0  0
  184.5740  178.4160  143.0520 C   0  0  0  0  0  3  0  0  0  0  0  0
  183.7680  178.7260  140.7090 C   0  0  1  0  0  3  0  0  0  0  0  0
  185.9350  178.2370  142.5380 C   0  0  0  0  0  0  0  0  0  0  0  0
  185.2250  178.9190  140.3220 C   0  0  0  0  0  3  0  0  0  0  0  0
  186.8480  177.8320  143.3060 O   0  0  0  0  0  0  0  0  0  0  0  0
  186.2390  178.6260  141.1500 C   0  0  0  0  0  0  0  0  0  0  0  0
  187.6050  178.8750  140.7910 N   0  0  0  0  0  2  0  0  0  0  0  0
  189.4340  177.3480  137.9890 C   0  0  0  0  0  0  0  0  0  0  0  0
  189.7020  177.2540  136.5280 C   0  0  0  0  0  1  0  0  0  0  0  0
  188.4760  178.1430  138.5970 C   0  0  0  0  0  0  0  0  0  0  0  0
  189.4350  177.1770  140.4960 C   0  0  0  0  0  0  0  0  0  0  0  0
  190.3010  176.5540  139.1850 S   0  0  0  0  0  0  0  0  0  0  0  0
  187.6140  178.9700  137.8850 O   0  0  0  0  0  1  0  0  0  0  0  0
  188.4620  178.0460  139.9940 C   0  0  0  0  0  0  0  0  0  0  0  0
  189.8320  177.0320  141.9310 C   0  0  0  0  0  2  0  0  0  0  0  0
  191.2940  177.3940  142.1460 C   0  0  0  0  0  2  0  0  0  0  0  0
  191.7300  176.9080  143.3800 O   0  0  0  0  0  0  0  0  0  0  0  0
  191.6740  179.1720  144.1390 C   0  0  0  0  0  1  0  0  0  0  0  0
  191.1510  177.7590  144.3250 C   0  0  2  0  0  3  0  0  0  0  0  0
  191.4490  177.2610  145.7340 C   0  0  0  0  0  2  0  0  0  0  0  0
  190.3610  176.5490  146.2440 O   0  0  0  0  0  0  0  0  0  0  0  0
  189.2540  177.3590  145.9820 C   0  0  0  0  0  2  0  0  0  0  0  0
  187.0330  177.8080  146.7510 O   0  0  0  0  0  1  0  0  0  0  0  0
  188.2820  177.3350  147.1530 C   0  0  2  0  0  3  0  0  0  0  0  0
  188.8050  178.1720  148.3040 C   0  0  0  0  0  1  0  0  0  0  0  0
  183.1790  177.4470  140.0850 C   0  0  2  0  0  3  0  0  0  0  0  0
  183.1360  178.5500  137.9500 O   0  0  0  0  0  0  0  0  0  0  0  0
  183.2130  177.4650  138.5850 C   0  0  0  0  0  0  0  0  0  0  0  0
  183.2490  176.2330  137.8730 N   0  0  0  0  0  1  0  0  0  0  0  0
  181.7400  177.2260  140.5460 C   0  0  0  0  0  2  0  0  0  0  0  0
  180.7930  178.1280  139.7760 C   0  0  0  0  0  2  0  0  0  0  0  0
  180.3230  179.1920  140.6470 N   0  0  0  0  0  2  0  0  0  0  0  0
  179.6560  181.3900  140.9790 O   0  0  0  0  0  0  0  0  0  0  0  0
  180.0640  180.5140  140.1700 C   0  0  0  0  0  0  0  0  0  0  0  0
  181.1890  182.8490  137.6570 C   0  0  0  0  0  2  0  0  0  0  0  0
  179.7720  182.6190  137.1740 C   0  0  0  0  0  2  0  0  0  0  0  0
  181.5480  181.6560  138.5250 C   0  0  0  0  0  2  0  0  0  0  0  0
  179.1370  181.7200  138.2070 C   0  0  0  0  0  2  0  0  0  0  0  0
  180.2690  180.8620  138.7270 C   0  0  0  0  0  3  0  0  0  0  0  0
  1  2  2  0  0  0  0
  3 27  1  6  0  0  0
  3  1  1  0  0  0  0
  4  2  1  0  0  0  0
  4  6  2  0  0  0  0
  5  3  1  0  0  0  0
  5  7  2  0  0  0  0
  7  4  1  0  0  0  0
  8  7  1  0  0  0  0
  9 11  2  0  0  0  0
  9 13  1  0  0  0  0
 10  9  1  0  0  0  0
 11 15  1  0  0  0  0
 12 16  1  0  0  0  0
 13 12  1  0  0  0  0
 14 11  1  0  0  0  0
 15 12  2  0  0  0  0
 15  8  1  0  0  0  0
 16 17  1  0  0  0  0
 17 18  1  0  0  0  0
 18 20  1  0  0  0  0
 20 19  1  1  0  0  0
 20 21  1  0  0  0  0
 21 22  1  0  0  0  0
 23 22  1  0  0  0  0
 23 25  1  0  0  0  0
 24 25  1  0  0  0  0
 25 26  1  1  0  0  0
 27 31  1  6  0  0  0
 28 29  2  0  0  0  0
 29 27  1  0  0  0  0
 30 29  1  0  0  0  0
 32 31  1  0  0  0  0
 32 33  1  0  0  0  0
 35 33  1  0  0  0  0
 35 34  2  0  0  0  0
 36 38  1  0  0  0  0
 37 36  1  0  0  0  0
 37 39  1  0  0  0  0
 38 40  1  0  0  0  0
 39 40  1  0  0  0  0
 40 35  1  0  0  0  0
M  END
>  <MODEL>
4

>  <REMARK>
 VINA RESULT:      -7.4      3.389      8.042
  Name = 
  16 active torsions:
  status: ('A' for Active; 'I' for Inactive)
    1  A    between atoms: C_3  and  C_19
    2  A    between atoms: O_4  and  C_8
    3  A    between atoms: O_4  and  C_35
    4  A    between atoms: C_7  and  C_8
    5  A    between atoms: C_7  and  C_33
    6  A    between atoms: N_9  and  C_27
    7  A    between atoms: C_10  and  O_16
    8  A    between atoms: C_10  and  C_35
    9  A    between atoms: C_12  and  C_19
   10  A    between atoms: C_12  and  C_27
   11  A    between atoms: O_16  and  C_38
   12  A    between atoms: C_18  and  C_19
   13  A    between atoms: C_21  and  C_38
   14  A    between atoms: C_29  and  C_30
   15  A    between atoms: C_32  and  N_34
   16  A    between atoms: N_34  and  C_40
                            x       y       z     vdW  Elec       q    Type
                         _______ _______ _______ _____ _____    ______ ____

>  <TORSDO>
F 16

$$$$
=
 OpenBabel11042413203D

 40 42  0  0  1  0  0  0  0  0999 V2000
  184.8590  179.9020  143.6440 C   0  0  0  0  0  3  0  0  0  0  0  0
  184.9490  179.5120  144.9150 C   0  0  0  0  0  3  0  0  0  0  0  0
  185.3010  179.0190  142.4930 C   0  0  1  0  0  3  0  0  0  0  0  0
  185.5980  178.2410  145.2470 C   0  0  0  0  0  0  0  0  0  0  0  0
  186.2830  177.9480  142.9390 C   0  0  0  0  0  3  0  0  0  0  0  0
  185.5570  177.8050  146.4280 O   0  0  0  0  0  0  0  0  0  0  0  0
  186.3740  177.5360  144.2120 C   0  0  0  0  0  0  0  0  0  0  0  0
  187.3500  176.5700  144.6260 N   0  0  0  0  0  2  0  0  0  0  0  0
  190.5680  177.0660  146.3360 C   0  0  0  0  0  0  0  0  0  0  0  0
  191.3430  177.2220  147.5980 C   0  0  0  0  0  1  0  0  0  0  0  0
  189.1910  176.9580  146.2290 C   0  0  0  0  0  0  0  0  0  0  0  0
  189.7700  176.7630  143.9740 C   0  0  0  0  0  0  0  0  0  0  0  0
  191.2340  176.9190  144.8050 S   0  0  0  0  0  0  0  0  0  0  0  0
  188.3390  176.9950  147.3270 O   0  0  0  0  0  1  0  0  0  0  0  0
  188.7360  176.7990  144.9130 C   0  0  0  0  0  0  0  0  0  0  0  0
  189.6410  176.3750  142.5340 C   0  0  0  0  0  2  0  0  0  0  0  0
  189.7870  177.5780  141.6160 C   0  0  0  0  0  2  0  0  0  0  0  0
  190.9010  177.4160  140.7900 O   0  0  0  0  0  0  0  0  0  0  0  0
  191.5320  176.5780  138.6430 C   0  0  0  0  0  1  0  0  0  0  0  0
  190.4080  176.7960  139.6390 C   0  0  2  0  0  3  0  0  0  0  0  0
  189.3020  177.6400  139.0190 C   0  0  0  0  0  2  0  0  0  0  0  0
  188.2920  176.8270  138.5010 O   0  0  0  0  0  0  0  0  0  0  0  0
  187.3120  177.7180  138.0590 C   0  0  0  0  0  2  0  0  0  0  0  0
  187.4880  179.7430  136.7950 O   0  0  0  0  0  1  0  0  0  0  0  0
  187.7300  178.3690  136.7490 C   0  0  2  0  0  3  0  0  0  0  0  0
  186.9870  177.7540  135.5800 C   0  0  0  0  0  1  0  0  0  0  0  0
  184.0670  178.4080  141.8020 C   0  0  2  0  0  3  0  0  0  0  0  0
  183.7720  177.6000  139.5580 O   0  0  0  0  0  0  0  0  0  0  0  0
  184.1070  178.5540  140.3090 C   0  0  0  0  0  0  0  0  0  0  0  0
  184.6060  179.7580  139.7390 N   0  0  0  0  0  1  0  0  0  0  0  0
  182.7790  179.0360  142.3280 C   0  0  0  0  0  2  0  0  0  0  0  0
  181.5810  178.5100  141.5590 C   0  0  0  0  0  2  0  0  0  0  0  0
  180.5120  179.4940  141.5960 N   0  0  0  0  0  2  0  0  0  0  0  0
  179.1750  181.0720  140.5420 O   0  0  0  0  0  0  0  0  0  0  0  0
  180.1110  180.2340  140.4410 C   0  0  0  0  0  0  0  0  0  0  0  0
  181.0130  181.4570  137.1660 C   0  0  0  0  0  2  0  0  0  0  0  0
  180.3220  180.1680  136.7740 C   0  0  0  0  0  2  0  0  0  0  0  0
  181.4340  181.2980  138.6160 C   0  0  0  0  0  2  0  0  0  0  0  0
  179.7960  179.5860  138.0640 C   0  0  0  0  0  2  0  0  0  0  0  0
  180.7880  180.0200  139.1210 C   0  0  0  0  0  3  0  0  0  0  0  0
  1  2  2  0  0  0  0
  2  4  1  0  0  0  0
  3 27  1  1  0  0  0
  3  5  1  0  0  0  0
  3  1  1  0  0  0  0
  4  6  2  0  0  0  0
  5  7  2  0  0  0  0
  7  8  1  0  0  0  0
  7  4  1  0  0  0  0
  8 15  1  0  0  0  0
  9 10  1  0  0  0  0
 11  9  2  0  0  0  0
 11 14  1  0  0  0  0
 12 13  1  0  0  0  0
 12 15  2  0  0  0  0
 13  9  1  0  0  0  0
 15 11  1  0  0  0  0
 16 12  1  0  0  0  0
 17 16  1  0  0  0  0
 18 17  1  0  0  0  0
 20 19  1  6  0  0  0
 20 18  1  0  0  0  0
 21 20  1  0  0  0  0
 22 21  1  0  0  0  0
 23 22  1  0  0  0  0
 25 26  1  6  0  0  0
 25 24  1  0  0  0  0
 25 23  1  0  0  0  0
 27 31  1  1  0  0  0
 28 29  2  0  0  0  0
 29 27  1  0  0  0  0
 30 29  1  0  0  0  0
 32 33  1  0  0  0  0
 32 31  1  0  0  0  0
 35 34  2  0  0  0  0
 35 33  1  0  0  0  0
 36 38  1  0  0  0  0
 37 36  1  0  0  0  0
 37 39  1  0  0  0  0
 38 40  1  0  0  0  0
 39 40  1  0  0  0  0
 40 35  1  0  0  0  0
M  END
>  <MODEL>
5

>  <REMARK>
 VINA RESULT:      -7.4      3.306      7.518
  Name = 
  16 active torsions:
  status: ('A' for Active; 'I' for Inactive)
    1  A    between atoms: C_3  and  C_19
    2  A    between atoms: O_4  and  C_8
    3  A    between atoms: O_4  and  C_35
    4  A    between atoms: C_7  and  C_8
    5  A    between atoms: C_7  and  C_33
    6  A    between atoms: N_9  and  C_27
    7  A    between atoms: C_10  and  O_16
    8  A    between atoms: C_10  and  C_35
    9  A    between atoms: C_12  and  C_19
   10  A    between atoms: C_12  and  C_27
   11  A    between atoms: O_16  and  C_38
   12  A    between atoms: C_18  and  C_19
   13  A    between atoms: C_21  and  C_38
   14  A    between atoms: C_29  and  C_30
   15  A    between atoms: C_32  and  N_34
   16  A    between atoms: N_34  and  C_40
                            x       y       z     vdW  Elec       q    Type
                         _______ _______ _______ _____ _____    ______ ____

>  <TORSDO>
F 16

$$$$
=
 OpenBabel11042413203D

 40 42  0  0  1  0  0  0  0  0999 V2000
  191.1940  179.1040  144.4610 C   0  0  0  0  0  3  0  0  0  0  0  0
  191.9280  178.6000  143.4700 C   0  0  0  0  0  3  0  0  0  0  0  0
  189.8030  178.5920  144.7800 C   0  0  1  0  0  3  0  0  0  0  0  0
  191.3520  177.5980  142.5690 C   0  0  0  0  0  0  0  0  0  0  0  0
  189.1730  177.8750  143.5980 C   0  0  0  0  0  3  0  0  0  0  0  0
  192.0840  177.0170  141.7240 O   0  0  0  0  0  0  0  0  0  0  0  0
  189.9000  177.3500  142.6000 C   0  0  0  0  0  0  0  0  0  0  0  0
  189.2840  176.7330  141.4610 N   0  0  0  0  0  2  0  0  0  0  0  0
  189.3190  177.4410  137.8510 C   0  0  0  0  0  0  0  0  0  0  0  0
  189.8270  177.1350  136.4870 C   0  0  0  0  0  1  0  0  0  0  0  0
  189.7280  176.8410  139.0310 C   0  0  0  0  0  0  0  0  0  0  0  0
  188.0990  178.2860  139.8790 C   0  0  0  0  0  0  0  0  0  0  0  0
  188.0940  178.5300  138.2060 S   0  0  0  0  0  0  0  0  0  0  0  0
  190.7050  175.8530  139.0810 O   0  0  0  0  0  1  0  0  0  0  0  0
  189.0610  177.3140  140.1690 C   0  0  0  0  0  0  0  0  0  0  0  0
  187.0670  178.8150  140.8240 C   0  0  0  0  0  2  0  0  0  0  0  0
  185.6580  178.4930  140.3510 C   0  0  0  0  0  2  0  0  0  0  0  0
  184.9420  179.6740  140.1430 O   0  0  0  0  0  0  0  0  0  0  0  0
  183.0130  180.5160  139.0140 C   0  0  0  0  0  1  0  0  0  0  0  0
  183.8520  179.2980  139.3540 C   0  0  2  0  0  3  0  0  0  0  0  0
  183.0110  178.2570  140.0810 C   0  0  0  0  0  2  0  0  0  0  0  0
  181.7440  178.7660  140.3760 O   0  0  0  0  0  0  0  0  0  0  0  0
  181.5770  178.5260  141.7420 C   0  0  0  0  0  2  0  0  0  0  0  0
  180.2930  180.5240  142.0330 O   0  0  0  0  0  1  0  0  0  0  0  0
  180.2790  179.1450  142.2410 C   0  0  2  0  0  3  0  0  0  0  0  0
  180.0710  178.8480  143.7130 C   0  0  0  0  0  1  0  0  0  0  0  0
  189.8520  177.6930  146.0300 C   0  0  2  0  0  3  0  0  0  0  0  0
  192.0490  177.1900  146.8660 O   0  0  0  0  0  0  0  0  0  0  0  0
  191.1020  176.8660  146.1020 C   0  0  0  0  0  0  0  0  0  0  0  0
  191.2480  175.7470  145.2330 N   0  0  0  0  0  1  0  0  0  0  0  0
  188.6400  176.7670  146.0860 C   0  0  0  0  0  2  0  0  0  0  0  0
  187.9640  176.8580  147.4410 C   0  0  0  0  0  2  0  0  0  0  0  0
  187.6170  178.2420  147.7170 N   0  0  0  0  0  2  0  0  0  0  0  0
  186.2490  180.0890  147.3970 O   0  0  0  0  0  0  0  0  0  0  0  0
  186.4950  178.8850  147.1120 C   0  0  0  0  0  0  0  0  0  0  0  0
  184.8090  178.7180  143.9240 C   0  0  0  0  0  2  0  0  0  0  0  0
  183.6310  178.4840  144.8460 C   0  0  0  0  0  2  0  0  0  0  0  0
  186.0550  178.3620  144.7150 C   0  0  0  0  0  2  0  0  0  0  0  0
  184.1820  178.6280  146.2440 C   0  0  0  0  0  2  0  0  0  0  0  0
  185.6130  178.1460  146.1530 C   0  0  0  0  0  3  0  0  0  0  0  0
  1  3  1  0  0  0  0
  2  1  2  0  0  0  0
  3 27  1  1  0  0  0
  4  7  1  0  0  0  0
  4  2  1  0  0  0  0
  5  3  1  0  0  0  0
  6  4  2  0  0  0  0
  7  5  2  0  0  0  0
  8  7  1  0  0  0  0
  9 13  1  0  0  0  0
  9 11  2  0  0  0  0
 10  9  1  0  0  0  0
 11 14  1  0  0  0  0
 11 15  1  0  0  0  0
 12 15  2  0  0  0  0
 12 16  1  0  0  0  0
 13 12  1  0  0  0  0
 15  8  1  0  0  0  0
 17 16  1  0  0  0  0
 18 17  1  0  0  0  0
 20 19  1  1  0  0  0
 20 21  1  0  0  0  0
 20 18  1  0  0  0  0
 21 22  1  0  0  0  0
 22 23  1  0  0  0  0
 23 25  1  0  0  0  0
 24 25  1  0  0  0  0
 25 26  1  1  0  0  0
 27 31  1  6  0  0  0
 27 29  1  0  0  0  0
 29 28  2  0  0  0  0
 30 29  1  0  0  0  0
 31 32  1  0  0  0  0
 32 33  1  0  0  0  0
 35 34  2  0  0  0  0
 35 33  1  0  0  0  0
 36 38  1  0  0  0  0
 36 37  1  0  0  0  0
 37 39  1  0  0  0  0
 38 40  1  0  0  0  0
 40 39  1  0  0  0  0
 40 35  1  0  0  0  0
M  END
>  <MODEL>
6

>  <REMARK>
 VINA RESULT:      -7.3      2.412      3.592
  Name = 
  16 active torsions:
  status: ('A' for Active; 'I' for Inactive)
    1  A    between atoms: C_3  and  C_19
    2  A    between atoms: O_4  and  C_8
    3  A    between atoms: O_4  and  C_35
    4  A    between atoms: C_7  and  C_8
    5  A    between atoms: C_7  and  C_33
    6  A    between atoms: N_9  and  C_27
    7  A    between atoms: C_10  and  O_16
    8  A    between atoms: C_10  and  C_35
    9  A    between atoms: C_12  and  C_19
   10  A    between atoms: C_12  and  C_27
   11  A    between atoms: O_16  and  C_38
   12  A    between atoms: C_18  and  C_19
   13  A    between atoms: C_21  and  C_38
   14  A    between atoms: C_29  and  C_30
   15  A    between atoms: C_32  and  N_34
   16  A    between atoms: N_34  and  C_40
                            x       y       z     vdW  Elec       q    Type
                         _______ _______ _______ _____ _____    ______ ____

>  <TORSDO>
F 16

$$$$
=
 OpenBabel11042413203D

 40 42  0  0  1  0  0  0  0  0999 V2000
  190.3030  176.7250  136.6240 C   0  0  0  0  0  3  0  0  0  0  0  0
  189.5490  175.7020  136.2220 C   0  0  0  0  0  3  0  0  0  0  0  0
  189.7090  177.9720  137.2480 C   0  0  1  0  0  3  0  0  0  0  0  0
  188.0880  175.8070  136.2650 C   0  0  0  0  0  0  0  0  0  0  0  0
  188.2420  178.1450  136.8930 C   0  0  0  0  0  3  0  0  0  0  0  0
  187.3780  174.7960  136.0220 O   0  0  0  0  0  0  0  0  0  0  0  0
  187.4670  177.1220  136.5010 C   0  0  0  0  0  0  0  0  0  0  0  0
  186.1010  177.3160  136.1090 N   0  0  0  0  0  2  0  0  0  0  0  0
  183.1170  175.5650  137.3580 C   0  0  0  0  0  0  0  0  0  0  0  0
  182.1500  174.4390  137.2540 C   0  0  0  0  0  1  0  0  0  0  0  0
  184.1580  175.8350  136.4850 C   0  0  0  0  0  0  0  0  0  0  0  0
  184.4900  177.5610  138.0230 C   0  0  0  0  0  0  0  0  0  0  0  0
  183.1670  176.6860  138.6050 S   0  0  0  0  0  0  0  0  0  0  0  0
  184.4250  175.0600  135.3610 O   0  0  0  0  0  1  0  0  0  0  0  0
  184.9230  176.9530  136.8420 C   0  0  0  0  0  0  0  0  0  0  0  0
  185.2220  178.6170  138.7910 C   0  0  0  0  0  2  0  0  0  0  0  0
  184.4080  179.1120  139.9770 C   0  0  0  0  0  2  0  0  0  0  0  0
  185.2520  179.3780  141.0570 O   0  0  0  0  0  0  0  0  0  0  0  0
  183.1800  178.5350  141.8960 C   0  0  0  0  0  1  0  0  0  0  0  0
  184.6670  178.7170  142.1400 C   0  0  2  0  0  3  0  0  0  0  0  0
  184.9050  179.5000  143.4250 C   0  0  0  0  0  2  0  0  0  0  0  0
  185.4990  178.6880  144.3940 O   0  0  0  0  0  0  0  0  0  0  0  0
  184.6100  178.7130  145.4700 C   0  0  0  0  0  2  0  0  0  0  0  0
  185.6760  179.7480  147.3450 O   0  0  0  0  0  1  0  0  0  0  0  0
  185.3500  178.5130  146.7840 C   0  0  2  0  0  3  0  0  0  0  0  0
  186.6080  177.6940  146.5740 C   0  0  0  0  0  1  0  0  0  0  0  0
  189.9260  177.9460  138.7730 C   0  0  2  0  0  3  0  0  0  0  0  0
  190.4530  175.7070  139.4700 O   0  0  0  0  0  0  0  0  0  0  0  0
  190.8720  176.8650  139.2060 C   0  0  0  0  0  0  0  0  0  0  0  0
  192.2470  177.1770  139.4000 N   0  0  0  0  0  1  0  0  0  0  0  0
  188.6010  177.7700  139.5110 C   0  0  0  0  0  2  0  0  0  0  0  0
  188.7110  178.2960  140.9300 C   0  0  0  0  0  2  0  0  0  0  0  0
  187.9010  177.4750  141.8140 N   0  0  0  0  0  2  0  0  0  0  0  0
  187.6270  176.2930  143.7930 O   0  0  0  0  0  0  0  0  0  0  0  0
  188.3820  177.0010  143.0730 C   0  0  0  0  0  0  0  0  0  0  0  0
  191.6820  175.9320  144.0760 C   0  0  0  0  0  2  0  0  0  0  0  0
  191.3050  176.7610  145.2860 C   0  0  0  0  0  2  0  0  0  0  0  0
  190.7990  176.4060  142.9360 C   0  0  0  0  0  2  0  0  0  0  0  0
  189.8810  177.2000  145.0440 C   0  0  0  0  0  2  0  0  0  0  0  0
  189.7640  177.3390  143.5420 C   0  0  0  0  0  3  0  0  0  0  0  0
  1  3  1  0  0  0  0
  2  4  1  0  0  0  0
  2  1  2  0  0  0  0
  3 27  1  1  0  0  0
  4  7  1  0  0  0  0
  5  3  1  0  0  0  0
  6  4  2  0  0  0  0
  7  5  2  0  0  0  0
  8  7  1  0  0  0  0
  8 15  1  0  0  0  0
  9 13  1  0  0  0  0
 10  9  1  0  0  0  0
 11 15  1  0  0  0  0
 11  9  2  0  0  0  0
 12 13  1  0  0  0  0
 12 16  1  0  0  0  0
 14 11  1  0  0  0  0
 15 12  2  0  0  0  0
 16 17  1  0  0  0  0
 17 18  1  0  0  0  0
 18 20  1  0  0  0  0
 20 19  1  6  0  0  0
 20 21  1  0  0  0  0
 21 22  1  0  0  0  0
 22 23  1  0  0  0  0
 23 25  1  0  0  0  0
 25 26  1  6  0  0  0
 25 24  1  0  0  0  0
 27 29  1  0  0  0  0
 27 31  1  1  0  0  0
 29 30  1  0  0  0  0
 29 28  2  0  0  0  0
 31 32  1  0  0  0  0
 32 33  1  0  0  0  0
 33 35  1  0  0  0  0
 35 40  1  0  0  0  0
 35 34  2  0  0  0  0
 36 37  1  0  0  0  0
 38 40  1  0  0  0  0
 38 36  1  0  0  0  0
 39 37  1  0  0  0  0
 40 39  1  0  0  0  0
M  END
>  <MODEL>
7

>  <REMARK>
 VINA RESULT:      -7.2      2.614      6.553
  Name = 
  16 active torsions:
  status: ('A' for Active; 'I' for Inactive)
    1  A    between atoms: C_3  and  C_19
    2  A    between atoms: O_4  and  C_8
    3  A    between atoms: O_4  and  C_35
    4  A    between atoms: C_7  and  C_8
    5  A    between atoms: C_7  and  C_33
    6  A    between atoms: N_9  and  C_27
    7  A    between atoms: C_10  and  O_16
    8  A    between atoms: C_10  and  C_35
    9  A    between atoms: C_12  and  C_19
   10  A    between atoms: C_12  and  C_27
   11  A    between atoms: O_16  and  C_38
   12  A    between atoms: C_18  and  C_19
   13  A    between atoms: C_21  and  C_38
   14  A    between atoms: C_29  and  C_30
   15  A    between atoms: C_32  and  N_34
   16  A    between atoms: N_34  and  C_40
                            x       y       z     vdW  Elec       q    Type
                         _______ _______ _______ _____ _____    ______ ____

>  <TORSDO>
F 16

$$$$
=
 OpenBabel11042413203D

 40 42  0  0  1  0  0  0  0  0999 V2000
  191.1520  179.1040  144.3960 C   0  0  0  0  0  3  0  0  0  0  0  0
  191.9450  178.6010  143.4500 C   0  0  0  0  0  3  0  0  0  0  0  0
  189.7680  178.5510  144.6710 C   0  0  1  0  0  3  0  0  0  0  0  0
  191.4420  177.5570  142.5530 C   0  0  0  0  0  0  0  0  0  0  0  0
  189.2130  177.7830  143.4830 C   0  0  0  0  0  3  0  0  0  0  0  0
  192.2290  176.9820  141.7550 O   0  0  0  0  0  0  0  0  0  0  0  0
  190.0000  177.2580  142.5300 C   0  0  0  0  0  0  0  0  0  0  0  0
  189.4550  176.5910  141.3830 N   0  0  0  0  0  2  0  0  0  0  0  0
  189.5830  177.1860  137.7560 C   0  0  0  0  0  0  0  0  0  0  0  0
  190.1250  176.8360  136.4150 C   0  0  0  0  0  1  0  0  0  0  0  0
  189.9610  176.6230  138.9640 C   0  0  0  0  0  0  0  0  0  0  0  0
  188.3140  178.0960  139.7240 C   0  0  0  0  0  0  0  0  0  0  0  0
  188.3520  178.2870  138.0450 S   0  0  0  0  0  0  0  0  0  0  0  0
  190.9340  175.6350  139.0700 O   0  0  0  0  0  1  0  0  0  0  0  0
  189.2650  177.1320  140.0690 C   0  0  0  0  0  0  0  0  0  0  0  0
  187.2590  178.6550  140.6250 C   0  0  0  0  0  2  0  0  0  0  0  0
  185.8820  178.5920  139.9820 C   0  0  0  0  0  2  0  0  0  0  0  0
  184.9940  179.4180  140.6730 O   0  0  0  0  0  0  0  0  0  0  0  0
  183.4250  177.6170  140.6990 C   0  0  0  0  0  1  0  0  0  0  0  0
  183.7260  179.0300  140.2320 C   0  0  2  0  0  3  0  0  0  0  0  0
  183.6470  179.1180  138.7140 C   0  0  0  0  0  2  0  0  0  0  0  0
  182.5250  178.4360  138.2380 O   0  0  0  0  0  0  0  0  0  0  0  0
  183.0110  177.6380  137.2000 C   0  0  0  0  0  2  0  0  0  0  0  0
  181.1080  176.3400  137.8480 O   0  0  0  0  0  1  0  0  0  0  0  0
  182.3530  176.2670  137.2230 C   0  0  2  0  0  3  0  0  0  0  0  0
  183.2310  175.2600  137.9390 C   0  0  0  0  0  1  0  0  0  0  0  0
  189.7940  177.6870  145.9450 C   0  0  2  0  0  3  0  0  0  0  0  0
  191.3090  175.9630  145.2330 O   0  0  0  0  0  0  0  0  0  0  0  0
  191.0460  176.8690  146.0660 C   0  0  0  0  0  0  0  0  0  0  0  0
  191.9040  177.0680  147.1840 N   0  0  0  0  0  1  0  0  0  0  0  0
  188.5860  176.7540  145.9990 C   0  0  0  0  0  2  0  0  0  0  0  0
  187.9370  176.8050  147.3690 C   0  0  0  0  0  2  0  0  0  0  0  0
  187.5990  178.1800  147.6940 N   0  0  0  0  0  2  0  0  0  0  0  0
  186.2470  180.0490  147.4330 O   0  0  0  0  0  0  0  0  0  0  0  0
  186.4850  178.8550  147.1060 C   0  0  0  0  0  0  0  0  0  0  0  0
  184.8020  178.8300  143.9120 C   0  0  0  0  0  2  0  0  0  0  0  0
  183.6230  178.5540  144.8220 C   0  0  0  0  0  2  0  0  0  0  0  0
  186.0470  178.4390  144.6880 C   0  0  0  0  0  2  0  0  0  0  0  0
  184.1730  178.6350  146.2260 C   0  0  0  0  0  2  0  0  0  0  0  0
  185.6040  178.1590  146.1130 C   0  0  0  0  0  3  0  0  0  0  0  0
  1  3  1  0  0  0  0
  2  1  2  0  0  0  0
  3 27  1  1  0  0  0
  4  2  1  0  0  0  0
  5  3  1  0  0  0  0
  6  4  2  0  0  0  0
  7  4  1  0  0  0  0
  7  5  2  0  0  0  0
  8  7  1  0  0  0  0
  9 13  1  0  0  0  0
  9 11  2  0  0  0  0
 10  9  1  0  0  0  0
 11 14  1  0  0  0  0
 11 15  1  0  0  0  0
 12 15  2  0  0  0  0
 12 16  1  0  0  0  0
 13 12  1  0  0  0  0
 15  8  1  0  0  0  0
 17 16  1  0  0  0  0
 17 18  1  0  0  0  0
 20 18  1  0  0  0  0
 20 19  1  6  0  0  0
 21 20  1  0  0  0  0
 22 21  1  0  0  0  0
 23 25  1  0  0  0  0
 23 22  1  0  0  0  0
 25 24  1  0  0  0  0
 25 26  1  1  0  0  0
 27 31  1  6  0  0  0
 27 29  1  0  0  0  0
 28 29  2  0  0  0  0
 29 30  1  0  0  0  0
 31 32  1  0  0  0  0
 32 33  1  0  0  0  0
 35 34  2  0  0  0  0
 35 33  1  0  0  0  0
 36 38  1  0  0  0  0
 36 37  1  0  0  0  0
 37 39  1  0  0  0  0
 38 40  1  0  0  0  0
 40 39  1  0  0  0  0
 40 35  1  0  0  0  0
M  END
>  <MODEL>
8

>  <REMARK>
 VINA RESULT:      -7.2      2.246      3.389
  Name = 
  16 active torsions:
  status: ('A' for Active; 'I' for Inactive)
    1  A    between atoms: C_3  and  C_19
    2  A    between atoms: O_4  and  C_8
    3  A    between atoms: O_4  and  C_35
    4  A    between atoms: C_7  and  C_8
    5  A    between atoms: C_7  and  C_33
    6  A    between atoms: N_9  and  C_27
    7  A    between atoms: C_10  and  O_16
    8  A    between atoms: C_10  and  C_35
    9  A    between atoms: C_12  and  C_19
   10  A    between atoms: C_12  and  C_27
   11  A    between atoms: O_16  and  C_38
   12  A    between atoms: C_18  and  C_19
   13  A    between atoms: C_21  and  C_38
   14  A    between atoms: C_29  and  C_30
   15  A    between atoms: C_32  and  N_34
   16  A    between atoms: N_34  and  C_40
                            x       y       z     vdW  Elec       q    Type
                         _______ _______ _______ _____ _____    ______ ____

>  <TORSDO>
F 16

$$$$
=
 OpenBabel11042413203D

 40 42  0  0  1  0  0  0  0  0999 V2000
  187.5100  176.8700  143.2380 C   0  0  0  0  0  3  0  0  0  0  0  0
  186.7020  177.8340  142.7950 C   0  0  0  0  0  3  0  0  0  0  0  0
  188.8820  176.6260  142.6420 C   0  0  1  0  0  3  0  0  0  0  0  0
  187.0800  178.6220  141.6190 C   0  0  0  0  0  0  0  0  0  0  0  0
  189.0050  177.1970  141.2390 C   0  0  0  0  0  3  0  0  0  0  0  0
  186.3910  179.6230  141.2860 O   0  0  0  0  0  0  0  0  0  0  0  0
  188.2090  178.1770  140.7850 C   0  0  0  0  0  0  0  0  0  0  0  0
  188.2980  178.6590  139.4370 N   0  0  0  0  0  2  0  0  0  0  0  0
  188.3160  176.4890  136.4670 C   0  0  0  0  0  0  0  0  0  0  0  0
  189.0420  175.5590  135.5590 C   0  0  0  0  0  1  0  0  0  0  0  0
  188.8590  177.1720  137.5440 C   0  0  0  0  0  0  0  0  0  0  0  0
  186.6420  177.8910  137.7090 C   0  0  0  0  0  0  0  0  0  0  0  0
  186.6760  176.8290  136.3940 S   0  0  0  0  0  0  0  0  0  0  0  0
  190.1960  177.0720  137.9100 O   0  0  0  0  0  1  0  0  0  0  0  0
  187.9340  177.9650  138.2360 C   0  0  0  0  0  0  0  0  0  0  0  0
  185.3980  178.4230  138.3470 C   0  0  0  0  0  2  0  0  0  0  0  0
  184.2100  177.5020  138.1110 C   0  0  0  0  0  2  0  0  0  0  0  0
  183.4820  177.3490  139.2920 O   0  0  0  0  0  0  0  0  0  0  0  0
  182.0300  177.2480  137.3980 C   0  0  0  0  0  1  0  0  0  0  0  0
  182.2040  176.9630  138.8780 C   0  0  2  0  0  3  0  0  0  0  0  0
  181.1440  177.6960  139.6910 C   0  0  0  0  0  2  0  0  0  0  0  0
  181.5680  177.8700  141.0100 O   0  0  0  0  0  0  0  0  0  0  0  0
  181.0240  179.0970  141.3970 C   0  0  0  0  0  2  0  0  0  0  0  0
  179.6880  177.7720  142.8750 O   0  0  0  0  0  1  0  0  0  0  0  0
  180.3670  178.9860  142.7640 C   0  0  2  0  0  3  0  0  0  0  0  0
  179.4070  180.1360  142.9950 C   0  0  0  0  0  1  0  0  0  0  0  0
  189.9660  177.1870  143.5810 C   0  0  2  0  0  3  0  0  0  0  0  0
  191.9900  177.4050  142.3030 O   0  0  0  0  0  0  0  0  0  0  0  0
  191.3510  176.7690  143.1840 C   0  0  0  0  0  0  0  0  0  0  0  0
  191.9150  175.5920  143.7510 N   0  0  0  0  0  1  0  0  0  0  0  0
  189.7140  176.7580  145.0250 C   0  0  0  0  0  2  0  0  0  0  0  0
  190.1510  177.8470  145.9860 C   0  0  0  0  0  2  0  0  0  0  0  0
  189.6580  177.5430  147.3190 N   0  0  0  0  0  2  0  0  0  0  0  0
  187.9320  177.4540  148.8670 O   0  0  0  0  0  0  0  0  0  0  0  0
  188.2940  177.7390  147.6940 C   0  0  0  0  0  0  0  0  0  0  0  0
  184.9880  179.0040  146.9810 C   0  0  0  0  0  2  0  0  0  0  0  0
  185.0510  177.8770  145.9710 C   0  0  0  0  0  2  0  0  0  0  0  0
  186.4240  179.3480  147.3360 C   0  0  0  0  0  2  0  0  0  0  0  0
  186.3680  177.1830  146.2280 C   0  0  0  0  0  2  0  0  0  0  0  0
  187.2980  178.2740  146.7110 C   0  0  0  0  0  3  0  0  0  0  0  0
  2  1  2  0  0  0  0
  3  1  1  0  0  0  0
  3 27  1  1  0  0  0
  4  2  1  0  0  0  0
  5  3  1  0  0  0  0
  6  4  2  0  0  0  0
  7  5  2  0  0  0  0
  7  4  1  0  0  0  0
  8  7  1  0  0  0  0
  9 11  2  0  0  0  0
 10  9  1  0  0  0  0
 11 14  1  0  0  0  0
 11 15  1  0  0  0  0
 12 15  2  0  0  0  0
 12 16  1  0  0  0  0
 13  9  1  0  0  0  0
 13 12  1  0  0  0  0
 15  8  1  0  0  0  0
 17 16  1  0  0  0  0
 17 18  1  0  0  0  0
 20 19  1  6  0  0  0
 20 18  1  0  0  0  0
 20 21  1  0  0  0  0
 21 22  1  0  0  0  0
 22 23  1  0  0  0  0
 23 25  1  0  0  0  0
 25 24  1  0  0  0  0
 25 26  1  6  0  0  0
 27 31  1  1  0  0  0
 28 29  2  0  0  0  0
 29 27  1  0  0  0  0
 29 30  1  0  0  0  0
 31 32  1  0  0  0  0
 32 33  1  0  0  0  0
 33 35  1  0  0  0  0
 35 34  2  0  0  0  0
 36 38  1  0  0  0  0
 37 39  1  0  0  0  0
 37 36  1  0  0  0  0
 39 40  1  0  0  0  0
 40 38  1  0  0  0  0
 40 35  1  0  0  0  0
M  END
>  <MODEL>
9

>  <REMARK>
 VINA RESULT:      -7.1      2.510      3.501
  Name = 
  16 active torsions:
  status: ('A' for Active; 'I' for Inactive)
    1  A    between atoms: C_3  and  C_19
    2  A    between atoms: O_4  and  C_8
    3  A    between atoms: O_4  and  C_35
    4  A    between atoms: C_7  and  C_8
    5  A    between atoms: C_7  and  C_33
    6  A    between atoms: N_9  and  C_27
    7  A    between atoms: C_10  and  O_16
    8  A    between atoms: C_10  and  C_35
    9  A    between atoms: C_12  and  C_19
   10  A    between atoms: C_12  and  C_27
   11  A    between atoms: O_16  and  C_38
   12  A    between atoms: C_18  and  C_19
   13  A    between atoms: C_21  and  C_38
   14  A    between atoms: C_29  and  C_30
   15  A    between atoms: C_32  and  N_34
   16  A    between atoms: N_34  and  C_40
                            x       y       z     vdW  Elec       q    Type
                         _______ _______ _______ _____ _____    ______ ____

>  <TORSDO>
F 16

$$$$
