=
 OpenBabel11042413033D

 40 45  0  0  1  0  0  0  0  0999 V2000
  186.1210  178.9720  141.4460 C   0  0  0  0  0  2  0  0  0  0  0  0
  189.1800  177.3490  144.7670 C   0  0  0  0  0  0  0  0  0  0  0  0
  183.2200  178.4780  142.3020 C   0  0  0  0  0  3  0  0  0  0  0  0
  188.0090  177.7680  144.3230 C   0  0  0  0  0  0  0  0  0  0  0  0
  189.0730  177.0800  146.2380 C   0  0  0  0  0  3  0  0  0  0  0  0
  187.6770  178.1600  142.9970 N   0  0  0  0  0  0  0  0  0  0  0  0
  186.3250  178.5210  142.6820 C   0  0  0  0  0  0  0  0  0  0  0  0
  184.9230  179.3560  140.8400 O   0  0  0  0  0  0  0  0  0  0  0  0
  183.6290  178.8950  141.1040 C   0  0  0  0  0  0  0  0  0  0  0  0
  185.6870  178.3570  145.2150 C   0  0  0  0  0  3  0  0  0  0  0  0
  183.9700  178.4040  143.5540 C   0  0  0  0  0  3  0  0  0  0  0  0
  187.0630  177.8130  145.3900 C   0  0  0  0  0  0  0  0  0  0  0  0
  187.6400  177.4490  146.5240 C   0  0  0  0  0  3  0  0  0  0  0  0
  185.2830  178.4390  143.7580 C   0  0  0  0  0  0  0  0  0  0  0  0
  182.7650  179.9170  138.9990 C   0  0  0  0  0  3  0  0  0  0  0  0
  182.6560  178.9250  139.9860 C   0  0  0  0  0  0  0  0  0  0  0  0
  181.6230  177.9750  139.8830 C   0  0  0  0  0  3  0  0  0  0  0  0
  181.8620  179.9620  137.9320 C   0  0  0  0  0  3  0  0  0  0  0  0
  180.8400  179.0130  137.8420 C   0  0  0  0  0  0  0  0  0  0  0  0
  180.7200  178.0200  138.8170 C   0  0  0  0  0  3  0  0  0  0  0  0
  179.0320  178.4020  135.7510 C   0  0  0  0  0  2  0  0  0  0  0  0
  179.9250  179.0540  136.7520 N   0  0  0  0  0  0  0  0  0  0  0  0
  179.1460  179.7760  135.7030 C   0  0  1  0  0  3  0  0  0  0  0  0
  180.2450  181.7020  134.5950 C   0  0  0  0  0  1  0  0  0  0  0  0
  180.0930  180.1940  134.5940 C   0  0  0  0  0  2  0  0  0  0  0  0
  190.4390  177.2030  143.9670 C   0  0  1  0  0  3  0  0  0  0  0  0
  191.6530  177.5660  144.8040 C   0  0  0  0  0  1  0  0  0  0  0  0
  190.5660  175.8950  143.4910 O   0  0  0  0  0  0  0  0  0  0  0  0
  189.9230  175.8960  142.3000 N   0  0  0  0  0  2  0  0  0  0  0  0
  190.6850  176.7640  141.4140 C   0  0  0  0  0  2  0  0  0  0  0  0
  189.6500  178.3420  139.7420 C   0  0  0  0  0  2  0  0  0  0  0  0
  190.6460  176.8820  137.5720 C   0  0  0  0  0  2  0  0  0  0  0  0
  189.2090  177.3680  137.4030 C   0  0  0  0  0  2  0  0  0  0  0  0
  190.8500  176.2390  138.9480 C   0  0  0  0  0  2  0  0  0  0  0  0
  188.8610  178.4600  138.4280 C   0  0  1  0  0  3  0  0  0  0  0  0
  190.0040  176.8870  140.0560 C   0  0  1  0  0  3  0  0  0  0  0  0
  187.4910  178.4270  138.6930 O   0  0  0  0  0  0  0  0  0  0  0  0
  186.9610  177.5520  137.7420 C   0  0  0  0  0  2  0  0  0  0  0  0
  184.6570  176.6890  137.5040 C   0  0  0  0  0  1  0  0  0  0  0  0
  185.5230  177.9300  137.4550 C   0  0  0  0  0  2  0  0  0  0  0  0
  1  7  1  0  0  0  0
  2  5  1  0  0  0  0
  3 11  1  0  0  0  0
  4  2  2  0  0  0  0
  4 12  1  0  0  0  0
  5 13  2  0  0  0  0
  6  4  1  0  0  0  0
  7  6  2  0  0  0  0
  7 14  1  0  0  0  0
  8  9  1  0  0  0  0
  8  1  1  0  0  0  0
  9  3  2  0  0  0  0
 10 12  2  0  0  0  0
 11 14  2  0  0  0  0
 12 13  1  0  0  0  0
 14 10  1  0  0  0  0
 15 16  1  0  0  0  0
 16  9  1  0  0  0  0
 17 16  2  0  0  0  0
 18 15  2  0  0  0  0
 19 18  1  0  0  0  0
 19 20  2  0  0  0  0
 20 17  1  0  0  0  0
 21 22  1  0  0  0  0
 22 19  1  0  0  0  0
 23 25  1  6  0  0  0
 23 21  1  0  0  0  0
 23 22  1  0  0  0  0
 25 24  1  0  0  0  0
 26  2  1  0  0  0  0
 26 27  1  1  0  0  0
 28 26  1  0  0  0  0
 29 28  1  0  0  0  0
 30 29  1  0  0  0  0
 31 36  1  0  0  0  0
 32 34  1  0  0  0  0
 33 32  1  0  0  0  0
 33 35  1  0  0  0  0
 34 36  1  0  0  0  0
 35 37  1  1  0  0  0
 35 31  1  0  0  0  0
 36 30  1  1  0  0  0
 38 37  1  0  0  0  0
 40 39  1  0  0  0  0
 40 38  1  0  0  0  0
M  END
>  <MODEL>
1

>  <REMARK>
 VINA RESULT:      -8.4      0.000      0.000
  Name = 
  11 active torsions:
  status: ('A' for Active; 'I' for Inactive)
    1  A    between atoms: C_2  and  C_3
    2  A    between atoms: C_3  and  O_24
    3  A    between atoms: N_6  and  O_24
    4  A    between atoms: N_6  and  C_37
    5  A    between atoms: C_11  and  C_18
    6  A    between atoms: C_20  and  C_23
    7  A    between atoms: C_20  and  O_36
    8  A    between atoms: N_21  and  C_34
    9  A    between atoms: C_30  and  C_38
   10  A    between atoms: C_31  and  O_36
   11  A    between atoms: C_35  and  C_37
                            x       y       z     vdW  Elec       q    Type
                         _______ _______ _______ _____ _____    ______ ____

>  <TORSDO>
F 11

$$$$
=
 OpenBabel11042413033D

 40 45  0  0  1  0  0  0  0  0999 V2000
  188.4190  178.4660  140.3730 C   0  0  0  0  0  2  0  0  0  0  0  0
  184.0250  178.8710  142.2540 C   0  0  0  0  0  0  0  0  0  0  0  0
  188.3010  177.1730  137.5970 C   0  0  0  0  0  3  0  0  0  0  0  0
  184.8960  178.7250  141.2740 C   0  0  0  0  0  0  0  0  0  0  0  0
  182.6440  178.9300  141.6720 C   0  0  0  0  0  3  0  0  0  0  0  0
  186.3120  178.6520  141.3790 N   0  0  0  0  0  0  0  0  0  0  0  0
  187.1000  178.4190  140.2030 C   0  0  0  0  0  0  0  0  0  0  0  0
  189.4320  178.2410  139.4380 O   0  0  0  0  0  0  0  0  0  0  0  0
  189.4020  177.4190  138.3070 C   0  0  0  0  0  0  0  0  0  0  0  0
  184.9530  178.6270  138.7190 C   0  0  0  0  0  3  0  0  0  0  0  0
  186.9420  177.6660  137.8100 C   0  0  0  0  0  3  0  0  0  0  0  0
  184.2210  178.6710  140.0170 C   0  0  0  0  0  0  0  0  0  0  0  0
  182.9180  178.8130  140.1950 C   0  0  0  0  0  3  0  0  0  0  0  0
  186.4010  178.2180  138.8900 C   0  0  0  0  0  0  0  0  0  0  0  0
  190.8120  176.3650  136.5400 C   0  0  0  0  0  3  0  0  0  0  0  0
  190.6890  176.8370  137.8560 C   0  0  0  0  0  0  0  0  0  0  0  0
  191.8000  176.7510  138.7160 C   0  0  0  0  0  3  0  0  0  0  0  0
  192.0180  175.8180  136.0900 C   0  0  0  0  0  3  0  0  0  0  0  0
  193.1140  175.7380  136.9540 C   0  0  0  0  0  0  0  0  0  0  0  0
  193.0050  176.2040  138.2660 C   0  0  0  0  0  3  0  0  0  0  0  0
  195.1430  174.3130  135.5870 C   0  0  0  0  0  2  0  0  0  0  0  0
  194.3430  175.1870  136.4940 N   0  0  0  0  0  0  0  0  0  0  0  0
  195.8240  175.0060  136.5680 C   0  0  1  0  0  3  0  0  0  0  0  0
  197.4740  174.5010  138.3480 C   0  0  0  0  0  1  0  0  0  0  0  0
  196.1460  174.0960  137.7370 C   0  0  0  0  0  2  0  0  0  0  0  0
  184.3360  179.0070  143.7140 C   0  0  1  0  0  3  0  0  0  0  0  0
  183.0610  179.0020  144.5390 C   0  0  0  0  0  1  0  0  0  0  0  0
  185.1760  177.9720  144.1340 O   0  0  0  0  0  0  0  0  0  0  0  0
  186.0700  178.5650  144.9590 N   0  0  0  0  0  2  0  0  0  0  0  0
  186.1410  177.7440  146.1590 C   0  0  0  0  0  2  0  0  0  0  0  0
  188.5560  178.0030  145.4860 C   0  0  0  0  0  2  0  0  0  0  0  0
  189.4320  177.8760  148.1410 C   0  0  0  0  0  2  0  0  0  0  0  0
  190.2900  177.0910  147.1530 C   0  0  0  0  0  2  0  0  0  0  0  0
  187.9420  177.5880  147.9240 C   0  0  0  0  0  2  0  0  0  0  0  0
  189.9940  177.5040  145.7010 C   0  0  1  0  0  3  0  0  0  0  0  0
  187.5790  177.3320  146.4520 C   0  0  1  0  0  3  0  0  0  0  0  0
  190.2540  176.4270  144.8510 O   0  0  0  0  0  0  0  0  0  0  0  0
  189.6160  176.7520  143.6520 C   0  0  0  0  0  2  0  0  0  0  0  0
  191.6770  177.2870  142.3980 C   0  0  0  0  0  1  0  0  0  0  0  0
  190.4940  176.3460  142.4880 C   0  0  0  0  0  2  0  0  0  0  0  0
  2 26  1  0  0  0  0
  3 11  1  0  0  0  0
  3  9  2  0  0  0  0
  4  6  1  0  0  0  0
  4  2  2  0  0  0  0
  5  2  1  0  0  0  0
  7  1  1  0  0  0  0
  7  6  2  0  0  0  0
  8  1  1  0  0  0  0
  9  8  1  0  0  0  0
 10 14  1  0  0  0  0
 10 12  2  0  0  0  0
 11 14  2  0  0  0  0
 12 13  1  0  0  0  0
 12  4  1  0  0  0  0
 13  5  2  0  0  0  0
 14  7  1  0  0  0  0
 15 16  1  0  0  0  0
 16  9  1  0  0  0  0
 16 17  2  0  0  0  0
 18 15  2  0  0  0  0
 18 19  1  0  0  0  0
 19 20  2  0  0  0  0
 20 17  1  0  0  0  0
 21 22  1  0  0  0  0
 21 23  1  0  0  0  0
 22 23  1  0  0  0  0
 22 19  1  0  0  0  0
 23 25  1  1  0  0  0
 25 24  1  0  0  0  0
 26 28  1  0  0  0  0
 26 27  1  1  0  0  0
 28 29  1  0  0  0  0
 29 30  1  0  0  0  0
 31 35  1  0  0  0  0
 31 36  1  0  0  0  0
 33 32  1  0  0  0  0
 34 32  1  0  0  0  0
 35 37  1  6  0  0  0
 35 33  1  0  0  0  0
 36 30  1  6  0  0  0
 36 34  1  0  0  0  0
 38 37  1  0  0  0  0
 39 40  1  0  0  0  0
 40 38  1  0  0  0  0
M  END
>  <MODEL>
2

>  <REMARK>
 VINA RESULT:      -8.3      2.898      9.380
  Name = 
  11 active torsions:
  status: ('A' for Active; 'I' for Inactive)
    1  A    between atoms: C_2  and  C_3
    2  A    between atoms: C_3  and  O_24
    3  A    between atoms: N_6  and  O_24
    4  A    between atoms: N_6  and  C_37
    5  A    between atoms: C_11  and  C_18
    6  A    between atoms: C_20  and  C_23
    7  A    between atoms: C_20  and  O_36
    8  A    between atoms: N_21  and  C_34
    9  A    between atoms: C_30  and  C_38
   10  A    between atoms: C_31  and  O_36
   11  A    between atoms: C_35  and  C_37
                            x       y       z     vdW  Elec       q    Type
                         _______ _______ _______ _____ _____    ______ ____

>  <TORSDO>
F 11

$$$$
=
 OpenBabel11042413033D

 40 45  0  0  1  0  0  0  0  0999 V2000
  188.8890  178.3210  139.5590 C   0  0  0  0  0  2  0  0  0  0  0  0
  184.4280  178.9360  141.2140 C   0  0  0  0  0  0  0  0  0  0  0  0
  188.8790  176.6480  136.9920 C   0  0  0  0  0  3  0  0  0  0  0  0
  185.3350  178.6630  140.2940 C   0  0  0  0  0  0  0  0  0  0  0  0
  183.0690  178.8950  140.5830 C   0  0  0  0  0  3  0  0  0  0  0  0
  186.7470  178.6220  140.4560 N   0  0  0  0  0  0  0  0  0  0  0  0
  187.5770  178.2350  139.3530 C   0  0  0  0  0  0  0  0  0  0  0  0
  189.9360  177.9790  138.7010 O   0  0  0  0  0  0  0  0  0  0  0  0
  189.9520  177.0050  137.6970 C   0  0  0  0  0  0  0  0  0  0  0  0
  185.4830  178.2060  137.7830 C   0  0  0  0  0  3  0  0  0  0  0  0
  187.5100  177.1500  137.0860 C   0  0  0  0  0  3  0  0  0  0  0  0
  184.7060  178.4250  139.0350 C   0  0  0  0  0  0  0  0  0  0  0  0
  183.3960  178.5750  139.1470 C   0  0  0  0  0  3  0  0  0  0  0  0
  186.9270  177.8430  138.0590 C   0  0  0  0  0  0  0  0  0  0  0  0
  192.3210  176.4910  138.2870 C   0  0  0  0  0  3  0  0  0  0  0  0
  191.2580  176.3800  137.3770 C   0  0  0  0  0  0  0  0  0  0  0  0
  191.4600  175.6680  136.1800 C   0  0  0  0  0  3  0  0  0  0  0  0
  193.5590  175.9040  138.0100 C   0  0  0  0  0  3  0  0  0  0  0  0
  193.7480  175.2000  136.8180 C   0  0  0  0  0  0  0  0  0  0  0  0
  192.6990  175.0820  135.9020 C   0  0  0  0  0  3  0  0  0  0  0  0
  196.3120  174.0080  136.9570 C   0  0  0  0  0  2  0  0  0  0  0  0
  195.0060  174.5970  136.5390 N   0  0  0  0  0  0  0  0  0  0  0  0
  196.0600  174.1010  135.6040 C   0  0  1  0  0  3  0  0  0  0  0  0
  198.2420  175.2620  135.4220 C   0  0  0  0  0  1  0  0  0  0  0  0
  196.7840  175.2920  135.0080 C   0  0  0  0  0  2  0  0  0  0  0  0
  184.6870  179.2800  142.6500 C   0  0  1  0  0  3  0  0  0  0  0  0
  183.6930  178.5780  143.5580 C   0  0  0  0  0  1  0  0  0  0  0  0
  185.9900  178.9260  143.0100 O   0  0  0  0  0  0  0  0  0  0  0  0
  185.8450  177.8520  143.8200 N   0  0  0  0  0  2  0  0  0  0  0  0
  187.1710  177.2740  143.9910 C   0  0  0  0  0  2  0  0  0  0  0  0
  188.9140  177.8940  145.7030 C   0  0  0  0  0  2  0  0  0  0  0  0
  186.9770  178.4430  147.6470 C   0  0  0  0  0  2  0  0  0  0  0  0
  188.1960  177.6820  148.1640 C   0  0  0  0  0  2  0  0  0  0  0  0
  186.4500  177.8210  146.3490 C   0  0  0  0  0  2  0  0  0  0  0  0
  189.3640  177.7500  147.1660 C   0  0  1  0  0  3  0  0  0  0  0  0
  187.5580  177.2270  145.4640 C   0  0  1  0  0  3  0  0  0  0  0  0
  190.1590  176.6100  147.3070 O   0  0  0  0  0  0  0  0  0  0  0  0
  191.0490  176.6570  146.2320 C   0  0  0  0  0  2  0  0  0  0  0  0
  192.4360  175.6680  148.0230 C   0  0  0  0  0  1  0  0  0  0  0  0
  192.2400  175.7700  146.5250 C   0  0  0  0  0  2  0  0  0  0  0  0
  2 26  1  0  0  0  0
  3 11  1  0  0  0  0
  3  9  2  0  0  0  0
  4  6  1  0  0  0  0
  4  2  2  0  0  0  0
  5  2  1  0  0  0  0
  7  1  1  0  0  0  0
  7  6  2  0  0  0  0
  8  1  1  0  0  0  0
  9  8  1  0  0  0  0
 10 14  1  0  0  0  0
 10 12  2  0  0  0  0
 11 14  2  0  0  0  0
 12 13  1  0  0  0  0
 12  4  1  0  0  0  0
 13  5  2  0  0  0  0
 14  7  1  0  0  0  0
 16  9  1  0  0  0  0
 16 15  2  0  0  0  0
 17 16  1  0  0  0  0
 18 15  1  0  0  0  0
 19 18  2  0  0  0  0
 20 17  2  0  0  0  0
 20 19  1  0  0  0  0
 22 19  1  0  0  0  0
 22 21  1  0  0  0  0
 23 25  1  6  0  0  0
 23 22  1  0  0  0  0
 23 21  1  0  0  0  0
 25 24  1  0  0  0  0
 26 28  1  0  0  0  0
 26 27  1  1  0  0  0
 28 29  1  0  0  0  0
 29 30  1  0  0  0  0
 31 35  1  0  0  0  0
 32 33  1  0  0  0  0
 34 32  1  0  0  0  0
 35 37  1  6  0  0  0
 35 33  1  0  0  0  0
 36 30  1  6  0  0  0
 36 31  1  0  0  0  0
 36 34  1  0  0  0  0
 38 40  1  0  0  0  0
 38 37  1  0  0  0  0
 40 39  1  0  0  0  0
M  END
>  <MODEL>
3

>  <REMARK>
 VINA RESULT:      -7.9      3.089     10.068
  Name = 
  11 active torsions:
  status: ('A' for Active; 'I' for Inactive)
    1  A    between atoms: C_2  and  C_3
    2  A    between atoms: C_3  and  O_24
    3  A    between atoms: N_6  and  O_24
    4  A    between atoms: N_6  and  C_37
    5  A    between atoms: C_11  and  C_18
    6  A    between atoms: C_20  and  C_23
    7  A    between atoms: C_20  and  O_36
    8  A    between atoms: N_21  and  C_34
    9  A    between atoms: C_30  and  C_38
   10  A    between atoms: C_31  and  O_36
   11  A    between atoms: C_35  and  C_37
                            x       y       z     vdW  Elec       q    Type
                         _______ _______ _______ _____ _____    ______ ____

>  <TORSDO>
F 11

$$$$
=
 OpenBabel11042413033D

 40 45  0  0  1  0  0  0  0  0999 V2000
  186.1080  178.8450  141.4290 C   0  0  0  0  0  2  0  0  0  0  0  0
  189.0380  177.2130  144.8590 C   0  0  0  0  0  0  0  0  0  0  0  0
  183.1760  178.5830  142.2840 C   0  0  0  0  0  3  0  0  0  0  0  0
  187.9000  177.6810  144.3830 C   0  0  0  0  0  0  0  0  0  0  0  0
  188.9060  177.0310  146.3410 C   0  0  0  0  0  3  0  0  0  0  0  0
  187.6000  178.0200  143.0350 N   0  0  0  0  0  0  0  0  0  0  0  0
  186.2760  178.4500  142.6890 C   0  0  0  0  0  0  0  0  0  0  0  0
  184.9400  179.2700  140.7920 O   0  0  0  0  0  0  0  0  0  0  0  0
  183.6180  178.9070  141.0690 C   0  0  0  0  0  0  0  0  0  0  0  0
  185.6140  178.4630  145.2210 C   0  0  0  0  0  3  0  0  0  0  0  0
  183.9140  178.5290  143.5450 C   0  0  0  0  0  3  0  0  0  0  0  0
  186.9520  177.8430  145.4380 C   0  0  0  0  0  0  0  0  0  0  0  0
  187.4990  177.5050  146.5940 C   0  0  0  0  0  3  0  0  0  0  0  0
  185.2250  178.4920  143.7590 C   0  0  0  0  0  0  0  0  0  0  0  0
  181.3680  179.4590  140.1470 C   0  0  0  0  0  3  0  0  0  0  0  0
  182.6550  178.9390  139.9430 C   0  0  0  0  0  0  0  0  0  0  0  0
  183.0010  178.4640  138.6640 C   0  0  0  0  0  3  0  0  0  0  0  0
  180.4440  179.5060  139.0980 C   0  0  0  0  0  3  0  0  0  0  0  0
  180.7990  179.0310  137.8320 C   0  0  0  0  0  0  0  0  0  0  0  0
  182.0770  178.5100  137.6150 C   0  0  0  0  0  3  0  0  0  0  0  0
  178.9340  178.4440  135.7850 C   0  0  0  0  0  2  0  0  0  0  0  0
  179.8620  179.0840  136.7630 N   0  0  0  0  0  0  0  0  0  0  0  0
  179.0740  179.8160  135.7260 C   0  0  1  0  0  3  0  0  0  0  0  0
  180.2050  181.7110  134.5980 C   0  0  0  0  0  1  0  0  0  0  0  0
  180.0030  180.2080  134.5950 C   0  0  0  0  0  2  0  0  0  0  0  0
  190.2900  176.9440  144.0790 C   0  0  1  0  0  3  0  0  0  0  0  0
  191.4020  176.4650  144.9960 C   0  0  0  0  0  1  0  0  0  0  0  0
  190.0520  175.9900  143.0860 O   0  0  0  0  0  0  0  0  0  0  0  0
  190.8930  176.3210  142.0790 N   0  0  0  0  0  2  0  0  0  0  0  0
  190.4520  177.6130  141.5730 C   0  0  0  0  0  2  0  0  0  0  0  0
  190.6830  176.2260  139.4810 C   0  0  0  0  0  2  0  0  0  0  0  0
  188.7370  177.7210  138.1350 C   0  0  0  0  0  2  0  0  0  0  0  0
  189.9600  177.3670  137.2920 C   0  0  0  0  0  2  0  0  0  0  0  0
  189.1540  178.2650  139.5060 C   0  0  0  0  0  2  0  0  0  0  0  0
  190.7890  176.2500  137.9480 C   0  0  1  0  0  3  0  0  0  0  0  0
  190.4430  177.6260  140.0490 C   0  0  1  0  0  3  0  0  0  0  0  0
  192.1260  176.3820  137.5670 O   0  0  0  0  0  0  0  0  0  0  0  0
  192.6300  175.0790  137.5660 C   0  0  0  0  0  2  0  0  0  0  0  0
  192.6880  172.9940  136.2400 C   0  0  0  0  0  1  0  0  0  0  0  0
  191.9060  174.2600  136.5190 C   0  0  0  0  0  2  0  0  0  0  0  0
  1  7  1  0  0  0  0
  2  5  1  0  0  0  0
  3 11  1  0  0  0  0
  4  2  2  0  0  0  0
  4 12  1  0  0  0  0
  5 13  2  0  0  0  0
  6  4  1  0  0  0  0
  7  6  2  0  0  0  0
  7 14  1  0  0  0  0
  8  9  1  0  0  0  0
  8  1  1  0  0  0  0
  9  3  2  0  0  0  0
 10 12  2  0  0  0  0
 11 14  2  0  0  0  0
 12 13  1  0  0  0  0
 14 10  1  0  0  0  0
 16 15  1  0  0  0  0
 16  9  1  0  0  0  0
 17 16  2  0  0  0  0
 18 15  2  0  0  0  0
 19 18  1  0  0  0  0
 20 19  2  0  0  0  0
 20 17  1  0  0  0  0
 21 22  1  0  0  0  0
 22 19  1  0  0  0  0
 23 25  1  6  0  0  0
 23 21  1  0  0  0  0
 23 22  1  0  0  0  0
 25 24  1  0  0  0  0
 26  2  1  0  0  0  0
 26 27  1  1  0  0  0
 28 26  1  0  0  0  0
 29 28  1  0  0  0  0
 30 29  1  0  0  0  0
 31 36  1  0  0  0  0
 32 34  1  0  0  0  0
 33 35  1  0  0  0  0
 33 32  1  0  0  0  0
 34 36  1  0  0  0  0
 35 37  1  1  0  0  0
 35 31  1  0  0  0  0
 36 30  1  1  0  0  0
 38 37  1  0  0  0  0
 39 40  1  0  0  0  0
 40 38  1  0  0  0  0
M  END
>  <MODEL>
4

>  <REMARK>
 VINA RESULT:      -7.6      1.407      2.480
  Name = 
  11 active torsions:
  status: ('A' for Active; 'I' for Inactive)
    1  A    between atoms: C_2  and  C_3
    2  A    between atoms: C_3  and  O_24
    3  A    between atoms: N_6  and  O_24
    4  A    between atoms: N_6  and  C_37
    5  A    between atoms: C_11  and  C_18
    6  A    between atoms: C_20  and  C_23
    7  A    between atoms: C_20  and  O_36
    8  A    between atoms: N_21  and  C_34
    9  A    between atoms: C_30  and  C_38
   10  A    between atoms: C_31  and  O_36
   11  A    between atoms: C_35  and  C_37
                            x       y       z     vdW  Elec       q    Type
                         _______ _______ _______ _____ _____    ______ ____

>  <TORSDO>
F 11

$$$$
=
 OpenBabel11042413033D

 40 45  0  0  1  0  0  0  0  0999 V2000
  186.6620  178.7370  140.3160 C   0  0  0  0  0  2  0  0  0  0  0  0
  182.1190  178.8040  141.8550 C   0  0  0  0  0  0  0  0  0  0  0  0
  186.8730  177.3290  137.6010 C   0  0  0  0  0  3  0  0  0  0  0  0
  183.0720  178.7010  140.9480 C   0  0  0  0  0  0  0  0  0  0  0  0
  180.7880  178.7110  141.1740 C   0  0  0  0  0  3  0  0  0  0  0  0
  184.4770  178.7650  141.1580 N   0  0  0  0  0  0  0  0  0  0  0  0
  185.3700  178.5600  140.0530 C   0  0  0  0  0  0  0  0  0  0  0  0
  187.7590  178.5710  139.4680 O   0  0  0  0  0  0  0  0  0  0  0  0
  187.8900  177.7060  138.3770 C   0  0  0  0  0  0  0  0  0  0  0  0
  183.3320  178.5080  138.4120 C   0  0  0  0  0  3  0  0  0  0  0  0
  185.4620  177.7010  137.6930 C   0  0  0  0  0  3  0  0  0  0  0  0
  182.5030  178.5350  139.6500 C   0  0  0  0  0  0  0  0  0  0  0  0
  181.1820  178.5620  139.7270 C   0  0  0  0  0  3  0  0  0  0  0  0
  184.7930  178.2430  138.7050 C   0  0  0  0  0  0  0  0  0  0  0  0
  189.5520  176.8340  136.7340 C   0  0  0  0  0  3  0  0  0  0  0  0
  189.2540  177.2290  138.0470 C   0  0  0  0  0  0  0  0  0  0  0  0
  190.2690  177.1680  139.0210 C   0  0  0  0  0  3  0  0  0  0  0  0
  190.8340  176.3870  136.3970 C   0  0  0  0  0  3  0  0  0  0  0  0
  191.8320  176.3310  137.3740 C   0  0  0  0  0  0  0  0  0  0  0  0
  191.5500  176.7200  138.6850 C   0  0  0  0  0  3  0  0  0  0  0  0
  194.2170  175.5840  136.0430 C   0  0  0  0  0  2  0  0  0  0  0  0
  193.1380  175.8820  137.0310 N   0  0  0  0  0  0  0  0  0  0  0  0
  194.4760  175.3110  137.3710 C   0  0  1  0  0  3  0  0  0  0  0  0
  195.3560  173.3880  138.6640 C   0  0  0  0  0  1  0  0  0  0  0  0
  194.3160  173.8300  137.6520 C   0  0  0  0  0  2  0  0  0  0  0  0
  182.3050  179.0270  143.3260 C   0  0  1  0  0  3  0  0  0  0  0  0
  181.0420  178.6690  144.0880 C   0  0  0  0  0  1  0  0  0  0  0  0
  183.3770  178.2670  143.8040 O   0  0  0  0  0  0  0  0  0  0  0  0
  184.1640  179.1530  144.4590 N   0  0  0  0  0  2  0  0  0  0  0  0
  184.8590  178.4070  145.4980 C   0  0  0  0  0  2  0  0  0  0  0  0
  187.0170  177.2680  146.1290 C   0  0  0  0  0  2  0  0  0  0  0  0
  187.7020  176.8250  143.4510 C   0  0  0  0  0  2  0  0  0  0  0  0
  188.8600  177.2830  144.3340 C   0  0  0  0  0  2  0  0  0  0  0  0
  186.4610  177.6960  143.6790 C   0  0  0  0  0  2  0  0  0  0  0  0
  188.5190  177.1380  145.8270 C   0  0  1  0  0  3  0  0  0  0  0  0
  186.3210  178.1910  145.1270 C   0  0  1  0  0  3  0  0  0  0  0  0
  189.2340  178.0890  146.5590 O   0  0  0  0  0  0  0  0  0  0  0  0
  189.9700  177.3500  147.4870 C   0  0  0  0  0  2  0  0  0  0  0  0
  192.0420  176.0220  147.7140 C   0  0  0  0  0  1  0  0  0  0  0  0
  190.9550  176.4620  146.7570 C   0  0  0  0  0  2  0  0  0  0  0  0
  2 26  1  0  0  0  0
  3 11  1  0  0  0  0
  3  9  2  0  0  0  0
  4  6  1  0  0  0  0
  4  2  2  0  0  0  0
  5  2  1  0  0  0  0
  7  1  1  0  0  0  0
  7  6  2  0  0  0  0
  8  1  1  0  0  0  0
  9  8  1  0  0  0  0
 10 14  1  0  0  0  0
 10 12  2  0  0  0  0
 11 14  2  0  0  0  0
 12 13  1  0  0  0  0
 12  4  1  0  0  0  0
 13  5  2  0  0  0  0
 14  7  1  0  0  0  0
 15 16  1  0  0  0  0
 16  9  1  0  0  0  0
 16 17  2  0  0  0  0
 18 15  2  0  0  0  0
 18 19  1  0  0  0  0
 19 20  2  0  0  0  0
 20 17  1  0  0  0  0
 21 22  1  0  0  0  0
 21 23  1  0  0  0  0
 22 23  1  0  0  0  0
 22 19  1  0  0  0  0
 23 25  1  6  0  0  0
 25 24  1  0  0  0  0
 26 28  1  0  0  0  0
 26 27  1  1  0  0  0
 28 29  1  0  0  0  0
 29 30  1  0  0  0  0
 32 34  1  0  0  0  0
 32 33  1  0  0  0  0
 33 35  1  0  0  0  0
 34 36  1  0  0  0  0
 35 31  1  0  0  0  0
 35 37  1  1  0  0  0
 36 30  1  1  0  0  0
 36 31  1  0  0  0  0
 37 38  1  0  0  0  0
 40 38  1  0  0  0  0
 40 39  1  0  0  0  0
M  END
>  <MODEL>
5

>  <REMARK>
 VINA RESULT:      -7.6      2.621      9.218
  Name = 
  11 active torsions:
  status: ('A' for Active; 'I' for Inactive)
    1  A    between atoms: C_2  and  C_3
    2  A    between atoms: C_3  and  O_24
    3  A    between atoms: N_6  and  O_24
    4  A    between atoms: N_6  and  C_37
    5  A    between atoms: C_11  and  C_18
    6  A    between atoms: C_20  and  C_23
    7  A    between atoms: C_20  and  O_36
    8  A    between atoms: N_21  and  C_34
    9  A    between atoms: C_30  and  C_38
   10  A    between atoms: C_31  and  O_36
   11  A    between atoms: C_35  and  C_37
                            x       y       z     vdW  Elec       q    Type
                         _______ _______ _______ _____ _____    ______ ____

>  <TORSDO>
F 11

$$$$
=
 OpenBabel11042413033D

 40 45  0  0  1  0  0  0  0  0999 V2000
  183.9930  178.1670  141.5260 C   0  0  0  0  0  2  0  0  0  0  0  0
  180.1680  180.6220  139.9920 C   0  0  0  0  0  0  0  0  0  0  0  0
  184.4120  178.5680  144.5350 C   0  0  0  0  0  3  0  0  0  0  0  0
  180.9250  180.0330  140.8990 C   0  0  0  0  0  0  0  0  0  0  0  0
  178.9330  181.1480  140.6590 C   0  0  0  0  0  3  0  0  0  0  0  0
  182.1690  179.3770  140.6920 N   0  0  0  0  0  0  0  0  0  0  0  0
  182.8900  178.8530  141.8170 C   0  0  0  0  0  0  0  0  0  0  0  0
  184.9150  177.5800  142.3950 O   0  0  0  0  0  0  0  0  0  0  0  0
  185.2560  177.9730  143.6930 C   0  0  0  0  0  0  0  0  0  0  0  0
  180.8740  179.4290  143.3830 C   0  0  0  0  0  3  0  0  0  0  0  0
  183.0120  178.9350  144.3260 C   0  0  0  0  0  3  0  0  0  0  0  0
  180.3070  180.1080  142.1830 C   0  0  0  0  0  0  0  0  0  0  0  0
  179.1390  180.7210  142.0890 C   0  0  0  0  0  3  0  0  0  0  0  0
  182.3260  179.0460  143.1930 C   0  0  0  0  0  0  0  0  0  0  0  0
  187.5540  177.1030  143.2650 C   0  0  0  0  0  3  0  0  0  0  0  0
  186.6270  177.6560  144.1610 C   0  0  0  0  0  0  0  0  0  0  0  0
  187.0290  177.9040  145.4870 C   0  0  0  0  0  3  0  0  0  0  0  0
  188.8550  176.8020  143.6810 C   0  0  0  0  0  3  0  0  0  0  0  0
  189.2410  177.0530  145.0000 C   0  0  0  0  0  0  0  0  0  0  0  0
  188.3290  177.6030  145.9040 C   0  0  0  0  0  3  0  0  0  0  0  0
  191.8050  175.9200  145.4000 C   0  0  0  0  0  2  0  0  0  0  0  0
  190.5670  176.7530  145.4230 N   0  0  0  0  0  0  0  0  0  0  0  0
  191.7800  177.0020  146.2570 C   0  0  1  0  0  3  0  0  0  0  0  0
  192.6200  175.6540  148.1600 C   0  0  0  0  0  1  0  0  0  0  0  0
  191.4970  176.5510  147.6760 C   0  0  0  0  0  2  0  0  0  0  0  0
  180.4460  180.7220  138.5220 C   0  0  1  0  0  3  0  0  0  0  0  0
  181.6900  181.5540  138.2660 C   0  0  0  0  0  1  0  0  0  0  0  0
  180.6060  179.4490  137.9670 O   0  0  0  0  0  0  0  0  0  0  0  0
  181.8880  179.4190  137.5340 N   0  0  0  0  0  2  0  0  0  0  0  0
  182.1800  178.0350  137.1870 C   0  0  0  0  0  2  0  0  0  0  0  0
  184.5050  177.4330  137.9540 C   0  0  0  0  0  2  0  0  0  0  0  0
  185.1110  176.1880  135.5210 C   0  0  0  0  0  2  0  0  0  0  0  0
  186.2360  177.0470  136.0920 C   0  0  0  0  0  2  0  0  0  0  0  0
  183.7730  176.9360  135.5640 C   0  0  0  0  0  2  0  0  0  0  0  0
  185.9930  177.3800  137.5730 C   0  0  1  0  0  3  0  0  0  0  0  0
  183.6380  177.8750  136.7740 C   0  0  1  0  0  3  0  0  0  0  0  0
  186.6040  178.5980  137.8800 O   0  0  0  0  0  0  0  0  0  0  0  0
  187.8910  178.5000  137.3460 C   0  0  0  0  0  2  0  0  0  0  0  0
  188.3610  178.3030  139.7640 C   0  0  0  0  0  1  0  0  0  0  0  0
  188.8210  177.9000  138.3790 C   0  0  0  0  0  2  0  0  0  0  0  0
  1  7  1  0  0  0  0
  1  8  1  0  0  0  0
  2  5  1  0  0  0  0
  2  4  2  0  0  0  0
  4 12  1  0  0  0  0
  5 13  2  0  0  0  0
  6  4  1  0  0  0  0
  6  7  2  0  0  0  0
  7 14  1  0  0  0  0
  8  9  1  0  0  0  0
  9 16  1  0  0  0  0
  9  3  2  0  0  0  0
 11  3  1  0  0  0  0
 12 10  2  0  0  0  0
 13 12  1  0  0  0  0
 14 10  1  0  0  0  0
 14 11  2  0  0  0  0
 15 18  2  0  0  0  0
 15 16  1  0  0  0  0
 16 17  2  0  0  0  0
 17 20  1  0  0  0  0
 18 19  1  0  0  0  0
 19 22  1  0  0  0  0
 19 20  2  0  0  0  0
 21 22  1  0  0  0  0
 21 23  1  0  0  0  0
 22 23  1  0  0  0  0
 23 25  1  1  0  0  0
 25 24  1  0  0  0  0
 26 27  1  1  0  0  0
 26  2  1  0  0  0  0
 28 26  1  0  0  0  0
 29 28  1  0  0  0  0
 30 29  1  0  0  0  0
 32 34  1  0  0  0  0
 32 33  1  0  0  0  0
 33 35  1  0  0  0  0
 34 36  1  0  0  0  0
 35 37  1  6  0  0  0
 35 31  1  0  0  0  0
 36 30  1  1  0  0  0
 36 31  1  0  0  0  0
 38 37  1  0  0  0  0
 38 40  1  0  0  0  0
 40 39  1  0  0  0  0
M  END
>  <MODEL>
6

>  <REMARK>
 VINA RESULT:      -7.5      2.277      9.188
  Name = 
  11 active torsions:
  status: ('A' for Active; 'I' for Inactive)
    1  A    between atoms: C_2  and  C_3
    2  A    between atoms: C_3  and  O_24
    3  A    between atoms: N_6  and  O_24
    4  A    between atoms: N_6  and  C_37
    5  A    between atoms: C_11  and  C_18
    6  A    between atoms: C_20  and  C_23
    7  A    between atoms: C_20  and  O_36
    8  A    between atoms: N_21  and  C_34
    9  A    between atoms: C_30  and  C_38
   10  A    between atoms: C_31  and  O_36
   11  A    between atoms: C_35  and  C_37
                            x       y       z     vdW  Elec       q    Type
                         _______ _______ _______ _____ _____    ______ ____

>  <TORSDO>
F 11

$$$$
=
 OpenBabel11042413033D

 40 45  0  0  1  0  0  0  0  0999 V2000
  188.9070  178.2600  140.1030 C   0  0  0  0  0  2  0  0  0  0  0  0
  184.7390  178.7940  142.4170 C   0  0  0  0  0  0  0  0  0  0  0  0
  188.4680  176.9950  137.3450 C   0  0  0  0  0  3  0  0  0  0  0  0
  185.5020  178.6280  141.3540 C   0  0  0  0  0  0  0  0  0  0  0  0
  183.3100  178.9040  141.9770 C   0  0  0  0  0  3  0  0  0  0  0  0
  186.9180  178.5070  141.3160 N   0  0  0  0  0  0  0  0  0  0  0  0
  187.5760  178.2580  140.0650 C   0  0  0  0  0  0  0  0  0  0  0  0
  189.8130  178.0090  139.0700 O   0  0  0  0  0  0  0  0  0  0  0  0
  189.6420  177.1990  137.9430 C   0  0  0  0  0  0  0  0  0  0  0  0
  185.3000  178.5510  138.8060 C   0  0  0  0  0  3  0  0  0  0  0  0
  187.1540  177.5320  137.6960 C   0  0  0  0  0  3  0  0  0  0  0  0
  184.7040  178.6080  140.1710 C   0  0  0  0  0  0  0  0  0  0  0  0
  183.4310  178.7920  140.4790 C   0  0  0  0  0  3  0  0  0  0  0  0
  186.7430  178.0920  138.8280 C   0  0  0  0  0  0  0  0  0  0  0  0
  192.0230  176.4830  138.1360 C   0  0  0  0  0  3  0  0  0  0  0  0
  190.8560  176.5780  137.3620 C   0  0  0  0  0  0  0  0  0  0  0  0
  190.8690  176.0710  136.0490 C   0  0  0  0  0  3  0  0  0  0  0  0
  193.1790  175.8950  137.6120 C   0  0  0  0  0  3  0  0  0  0  0  0
  193.1790  175.3960  136.3060 C   0  0  0  0  0  0  0  0  0  0  0  0
  192.0240  175.4850  135.5240 C   0  0  0  0  0  3  0  0  0  0  0  0
  195.1590  173.6060  135.3630 C   0  0  0  0  0  2  0  0  0  0  0  0
  194.3530  174.7920  135.7750 N   0  0  0  0  0  0  0  0  0  0  0  0
  195.7440  174.8490  135.2340 C   0  0  1  0  0  3  0  0  0  0  0  0
  197.3790  173.8130  136.7820 C   0  0  0  0  0  1  0  0  0  0  0  0
  196.7020  175.1090  136.3800 C   0  0  0  0  0  2  0  0  0  0  0  0
  185.1990  178.9070  143.8400 C   0  0  1  0  0  3  0  0  0  0  0  0
  184.0130  179.0030  144.7820 C   0  0  0  0  0  1  0  0  0  0  0  0
  185.9910  177.8080  144.1850 O   0  0  0  0  0  0  0  0  0  0  0  0
  186.8300  178.2740  145.1400 N   0  0  0  0  0  2  0  0  0  0  0  0
  187.6090  177.1350  145.6050 C   0  0  0  0  0  2  0  0  0  0  0  0
  188.9070  176.3780  143.5800 C   0  0  0  0  0  2  0  0  0  0  0  0
  190.5130  178.6700  143.6070 C   0  0  0  0  0  2  0  0  0  0  0  0
  191.2650  177.3720  143.3220 C   0  0  0  0  0  2  0  0  0  0  0  0
  189.5750  178.5080  144.8090 C   0  0  0  0  0  2  0  0  0  0  0  0
  190.3000  176.2360  142.9460 C   0  0  1  0  0  3  0  0  0  0  0  0
  188.9750  177.0980  144.9280 C   0  0  1  0  0  3  0  0  0  0  0  0
  190.8630  175.0110  143.3100 O   0  0  0  0  0  0  0  0  0  0  0  0
  192.0500  175.3420  143.9680 C   0  0  0  0  0  2  0  0  0  0  0  0
  192.0580  175.6290  146.4230 C   0  0  0  0  0  1  0  0  0  0  0  0
  192.1080  174.6180  145.2970 C   0  0  0  0  0  2  0  0  0  0  0  0
  2 26  1  0  0  0  0
  3 11  1  0  0  0  0
  3  9  2  0  0  0  0
  4  2  2  0  0  0  0
  5  2  1  0  0  0  0
  6  4  1  0  0  0  0
  7  1  1  0  0  0  0
  7  6  2  0  0  0  0
  8  1  1  0  0  0  0
  9  8  1  0  0  0  0
 10 14  1  0  0  0  0
 10 12  2  0  0  0  0
 11 14  2  0  0  0  0
 12 13  1  0  0  0  0
 12  4  1  0  0  0  0
 13  5  2  0  0  0  0
 14  7  1  0  0  0  0
 16  9  1  0  0  0  0
 16 15  2  0  0  0  0
 17 16  1  0  0  0  0
 18 15  1  0  0  0  0
 19 18  2  0  0  0  0
 20 17  2  0  0  0  0
 20 19  1  0  0  0  0
 21 22  1  0  0  0  0
 22 19  1  0  0  0  0
 23 21  1  0  0  0  0
 23 22  1  0  0  0  0
 23 25  1  1  0  0  0
 25 24  1  0  0  0  0
 26 28  1  0  0  0  0
 26 27  1  1  0  0  0
 28 29  1  0  0  0  0
 29 30  1  0  0  0  0
 31 36  1  0  0  0  0
 32 34  1  0  0  0  0
 33 32  1  0  0  0  0
 34 36  1  0  0  0  0
 35 37  1  1  0  0  0
 35 33  1  0  0  0  0
 35 31  1  0  0  0  0
 36 30  1  6  0  0  0
 37 38  1  0  0  0  0
 38 40  1  0  0  0  0
 40 39  1  0  0  0  0
M  END
>  <MODEL>
7

>  <REMARK>
 VINA RESULT:      -7.4      3.070      9.210
  Name = 
  11 active torsions:
  status: ('A' for Active; 'I' for Inactive)
    1  A    between atoms: C_2  and  C_3
    2  A    between atoms: C_3  and  O_24
    3  A    between atoms: N_6  and  O_24
    4  A    between atoms: N_6  and  C_37
    5  A    between atoms: C_11  and  C_18
    6  A    between atoms: C_20  and  C_23
    7  A    between atoms: C_20  and  O_36
    8  A    between atoms: N_21  and  C_34
    9  A    between atoms: C_30  and  C_38
   10  A    between atoms: C_31  and  O_36
   11  A    between atoms: C_35  and  C_37
                            x       y       z     vdW  Elec       q    Type
                         _______ _______ _______ _____ _____    ______ ____

>  <TORSDO>
F 11

$$$$
=
 OpenBabel11042413033D

 40 45  0  0  1  0  0  0  0  0999 V2000
  186.2870  178.6530  143.0890 C   0  0  0  0  0  2  0  0  0  0  0  0
  189.3210  177.4650  146.6090 C   0  0  0  0  0  0  0  0  0  0  0  0
  183.3890  178.6100  144.0860 C   0  0  0  0  0  3  0  0  0  0  0  0
  188.1750  177.8900  146.1130 C   0  0  0  0  0  0  0  0  0  0  0  0
  189.2490  177.5100  148.1060 C   0  0  0  0  0  3  0  0  0  0  0  0
  187.8260  178.0330  144.7420 N   0  0  0  0  0  0  0  0  0  0  0  0
  186.4990  178.4460  144.3860 C   0  0  0  0  0  0  0  0  0  0  0  0
  185.1040  179.0140  142.4410 O   0  0  0  0  0  0  0  0  0  0  0  0
  183.7860  178.7360  142.8200 C   0  0  0  0  0  0  0  0  0  0  0  0
  185.9470  178.8570  146.9110 C   0  0  0  0  0  3  0  0  0  0  0  0
  184.1780  178.7230  145.3110 C   0  0  0  0  0  3  0  0  0  0  0  0
  187.2780  178.2360  147.1670 C   0  0  0  0  0  0  0  0  0  0  0  0
  187.8650  178.0590  148.3390 C   0  0  0  0  0  3  0  0  0  0  0  0
  185.4960  178.6790  145.4770 C   0  0  0  0  0  0  0  0  0  0  0  0
  181.4220  178.8500  142.0330 C   0  0  0  0  0  3  0  0  0  0  0  0
  182.7770  178.6280  141.7400 C   0  0  0  0  0  0  0  0  0  0  0  0
  183.1430  178.3140  140.4180 C   0  0  0  0  0  3  0  0  0  0  0  0
  180.4520  178.7610  141.0300 C   0  0  0  0  0  3  0  0  0  0  0  0
  180.8290  178.4470  139.7210 C   0  0  0  0  0  0  0  0  0  0  0  0
  182.1730  178.2240  139.4150 C   0  0  0  0  0  3  0  0  0  0  0  0
  178.9310  177.5940  137.8020 C   0  0  0  0  0  2  0  0  0  0  0  0
  179.8430  178.3630  138.6980 N   0  0  0  0  0  0  0  0  0  0  0  0
  178.9500  178.9670  137.6650 C   0  0  1  0  0  3  0  0  0  0  0  0
  179.7860  180.8820  136.3320 C   0  0  0  0  0  1  0  0  0  0  0  0
  179.7900  179.3720  136.4700 C   0  0  0  0  0  2  0  0  0  0  0  0
  190.5320  177.0440  145.8310 C   0  0  1  0  0  3  0  0  0  0  0  0
  191.4250  176.1470  146.6700 C   0  0  0  0  0  1  0  0  0  0  0  0
  190.1550  176.3780  144.6620 O   0  0  0  0  0  0  0  0  0  0  0  0
  191.0020  176.8380  143.7120 N   0  0  0  0  0  2  0  0  0  0  0  0
  190.1830  177.4930  142.7020 C   0  0  0  0  0  2  0  0  0  0  0  0
  189.8240  177.8290  140.2300 C   0  0  0  0  0  2  0  0  0  0  0  0
  192.5360  177.4350  139.6640 C   0  0  0  0  0  2  0  0  0  0  0  0
  191.5790  176.7590  138.6850 C   0  0  0  0  0  2  0  0  0  0  0  0
  192.1200  177.1650  141.1140 C   0  0  0  0  0  2  0  0  0  0  0  0
  190.1530  177.3170  138.8190 C   0  0  1  0  0  3  0  0  0  0  0  0
  190.5980  177.0590  141.3010 C   0  0  1  0  0  3  0  0  0  0  0  0
  189.2340  176.3340  138.4450 O   0  0  0  0  0  0  0  0  0  0  0  0
  188.1360  177.0370  137.9450 C   0  0  0  0  0  2  0  0  0  0  0  0
  187.1890  177.4810  135.7060 C   0  0  0  0  0  1  0  0  0  0  0  0
  188.4470  177.5280  136.5470 C   0  0  0  0  0  2  0  0  0  0  0  0
  1  7  1  0  0  0  0
  2  5  1  0  0  0  0
  3 11  1  0  0  0  0
  4  2  2  0  0  0  0
  4 12  1  0  0  0  0
  5 13  2  0  0  0  0
  6  4  1  0  0  0  0
  7  6  2  0  0  0  0
  7 14  1  0  0  0  0
  8  9  1  0  0  0  0
  8  1  1  0  0  0  0
  9  3  2  0  0  0  0
 10 12  2  0  0  0  0
 11 14  2  0  0  0  0
 12 13  1  0  0  0  0
 14 10  1  0  0  0  0
 16 15  1  0  0  0  0
 16  9  1  0  0  0  0
 17 16  2  0  0  0  0
 18 15  2  0  0  0  0
 19 18  1  0  0  0  0
 20 19  2  0  0  0  0
 20 17  1  0  0  0  0
 21 22  1  0  0  0  0
 22 19  1  0  0  0  0
 23 25  1  6  0  0  0
 23 21  1  0  0  0  0
 23 22  1  0  0  0  0
 24 25  1  0  0  0  0
 26  2  1  0  0  0  0
 26 27  1  1  0  0  0
 28 26  1  0  0  0  0
 29 28  1  0  0  0  0
 30 29  1  0  0  0  0
 31 36  1  0  0  0  0
 32 34  1  0  0  0  0
 33 35  1  0  0  0  0
 33 32  1  0  0  0  0
 34 36  1  0  0  0  0
 35 37  1  1  0  0  0
 35 31  1  0  0  0  0
 36 30  1  1  0  0  0
 38 37  1  0  0  0  0
 39 40  1  0  0  0  0
 40 38  1  0  0  0  0
M  END
>  <MODEL>
8

>  <REMARK>
 VINA RESULT:      -7.4      1.538      2.115
  Name = 
  11 active torsions:
  status: ('A' for Active; 'I' for Inactive)
    1  A    between atoms: C_2  and  C_3
    2  A    between atoms: C_3  and  O_24
    3  A    between atoms: N_6  and  O_24
    4  A    between atoms: N_6  and  C_37
    5  A    between atoms: C_11  and  C_18
    6  A    between atoms: C_20  and  C_23
    7  A    between atoms: C_20  and  O_36
    8  A    between atoms: N_21  and  C_34
    9  A    between atoms: C_30  and  C_38
   10  A    between atoms: C_31  and  O_36
   11  A    between atoms: C_35  and  C_37
                            x       y       z     vdW  Elec       q    Type
                         _______ _______ _______ _____ _____    ______ ____

>  <TORSDO>
F 11

$$$$
=
 OpenBabel11042413033D

 40 45  0  0  1  0  0  0  0  0999 V2000
  188.8320  176.5540  142.6560 C   0  0  0  0  0  2  0  0  0  0  0  0
  186.8820  178.1840  146.7250 C   0  0  0  0  0  0  0  0  0  0  0  0
  191.8290  177.1890  142.5530 C   0  0  0  0  0  3  0  0  0  0  0  0
  187.8750  177.7930  145.9490 C   0  0  0  0  0  0  0  0  0  0  0  0
  187.4270  178.5120  148.0820 C   0  0  0  0  0  3  0  0  0  0  0  0
  187.7980  177.3650  144.5950 N   0  0  0  0  0  0  0  0  0  0  0  0
  189.0010  177.0430  143.8830 C   0  0  0  0  0  0  0  0  0  0  0  0
  189.7990  176.1930  141.7160 O   0  0  0  0  0  0  0  0  0  0  0  0
  191.0870  176.7120  141.5520 C   0  0  0  0  0  0  0  0  0  0  0  0
  190.3850  177.3260  146.0860 C   0  0  0  0  0  3  0  0  0  0  0  0
  191.5010  177.2820  143.9740 C   0  0  0  0  0  3  0  0  0  0  0  0
  189.1070  177.8240  146.6680 C   0  0  0  0  0  0  0  0  0  0  0  0
  188.8930  178.2080  147.9160 C   0  0  0  0  0  3  0  0  0  0  0  0
  190.3200  177.2040  144.5780 C   0  0  0  0  0  0  0  0  0  0  0  0
  193.0100  177.0350  139.9960 C   0  0  0  0  0  3  0  0  0  0  0  0
  191.6660  176.6770  140.1880 C   0  0  0  0  0  0  0  0  0  0  0  0
  190.9020  176.2840  139.0730 C   0  0  0  0  0  3  0  0  0  0  0  0
  193.5800  177.0020  138.7190 C   0  0  0  0  0  3  0  0  0  0  0  0
  192.8100  176.6110  137.6200 C   0  0  0  0  0  0  0  0  0  0  0  0
  191.4710  176.2520  137.7970 C   0  0  0  0  0  3  0  0  0  0  0  0
  193.3380  176.2880  134.8580 C   0  0  0  0  0  2  0  0  0  0  0  0
  193.3910  176.5720  136.3220 N   0  0  0  0  0  0  0  0  0  0  0  0
  194.5340  176.7440  135.3760 C   0  0  1  0  0  3  0  0  0  0  0  0
  196.9150  176.0630  135.2710 C   0  0  0  0  0  1  0  0  0  0  0  0
  195.5030  175.5950  135.5680 C   0  0  0  0  0  2  0  0  0  0  0  0
  185.4310  178.2530  146.3540 C   0  0  1  0  0  3  0  0  0  0  0  0
  184.5560  177.8770  147.5370 C   0  0  0  0  0  1  0  0  0  0  0  0
  185.1010  179.5360  145.9100 O   0  0  0  0  0  0  0  0  0  0  0  0
  184.0380  179.3550  145.0910 N   0  0  0  0  0  2  0  0  0  0  0  0
  184.5550  178.7950  143.8500 C   0  0  0  0  0  2  0  0  0  0  0  0
  183.8040  178.0010  141.5790 C   0  0  0  0  0  2  0  0  0  0  0  0
  181.1150  178.5170  142.1590 C   0  0  0  0  0  2  0  0  0  0  0  0
  181.5500  178.9270  140.7550 C   0  0  0  0  0  2  0  0  0  0  0  0
  182.1210  179.0010  143.2100 C   0  0  0  0  0  2  0  0  0  0  0  0
  182.8930  178.2830  140.3730 C   0  0  1  0  0  3  0  0  0  0  0  0
  183.5730  179.0100  142.7050 C   0  0  1  0  0  3  0  0  0  0  0  0
  183.5580  179.1050  139.4600 O   0  0  0  0  0  0  0  0  0  0  0  0
  183.6280  178.3550  138.2840 C   0  0  0  0  0  2  0  0  0  0  0  0
  185.0950  176.8840  136.9450 C   0  0  0  0  0  1  0  0  0  0  0  0
  185.0580  177.9200  138.0490 C   0  0  0  0  0  2  0  0  0  0  0  0
  1  7  1  0  0  0  0
  2  5  1  0  0  0  0
  3 11  1  0  0  0  0
  4 12  1  0  0  0  0
  4  2  2  0  0  0  0
  6  4  1  0  0  0  0
  7 14  1  0  0  0  0
  7  6  2  0  0  0  0
  8  1  1  0  0  0  0
  9  8  1  0  0  0  0
  9  3  2  0  0  0  0
 10 12  2  0  0  0  0
 11 14  2  0  0  0  0
 12 13  1  0  0  0  0
 13  5  2  0  0  0  0
 14 10  1  0  0  0  0
 15 16  1  0  0  0  0
 16  9  1  0  0  0  0
 17 16  2  0  0  0  0
 18 15  2  0  0  0  0
 19 20  2  0  0  0  0
 19 18  1  0  0  0  0
 20 17  1  0  0  0  0
 21 23  1  0  0  0  0
 21 22  1  0  0  0  0
 22 19  1  0  0  0  0
 23 25  1  1  0  0  0
 23 22  1  0  0  0  0
 24 25  1  0  0  0  0
 26  2  1  0  0  0  0
 26 27  1  1  0  0  0
 28 26  1  0  0  0  0
 29 28  1  0  0  0  0
 30 29  1  0  0  0  0
 31 36  1  0  0  0  0
 32 34  1  0  0  0  0
 33 32  1  0  0  0  0
 35 37  1  6  0  0  0
 35 33  1  0  0  0  0
 35 31  1  0  0  0  0
 36 34  1  0  0  0  0
 36 30  1  1  0  0  0
 38 37  1  0  0  0  0
 39 40  1  0  0  0  0
 40 38  1  0  0  0  0
M  END
>  <MODEL>
9

>  <REMARK>
 VINA RESULT:      -7.2      2.851      8.585
  Name = 
  11 active torsions:
  status: ('A' for Active; 'I' for Inactive)
    1  A    between atoms: C_2  and  C_3
    2  A    between atoms: C_3  and  O_24
    3  A    between atoms: N_6  and  O_24
    4  A    between atoms: N_6  and  C_37
    5  A    between atoms: C_11  and  C_18
    6  A    between atoms: C_20  and  C_23
    7  A    between atoms: C_20  and  O_36
    8  A    between atoms: N_21  and  C_34
    9  A    between atoms: C_30  and  C_38
   10  A    between atoms: C_31  and  O_36
   11  A    between atoms: C_35  and  C_37
                            x       y       z     vdW  Elec       q    Type
                         _______ _______ _______ _____ _____    ______ ____

>  <TORSDO>
F 11

$$$$
