=
 OpenBabel11032420103D

 36 38  0  0  1  0  0  0  0  0999 V2000
  184.6310  179.1090  145.0870 C   0  0  0  0  0  3  0  0  0  0  0  0
  186.4800  177.7160  144.2750 C   0  0  0  0  0  0  0  0  0  0  0  0
  186.7250  178.9390  146.4000 C   0  0  2  0  0  3  0  0  0  0  0  0
  185.2100  178.4740  144.0520 C   0  0  0  0  0  0  0  0  0  0  0  0
  185.1870  179.0090  146.4800 C   0  0  2  0  0  3  0  0  0  0  0  0
  184.5810  177.7960  147.1720 C   0  0  0  0  0  1  0  0  0  0  0  0
  187.1850  177.9180  145.3940 C   0  0  0  0  0  3  0  0  0  0  0  0
  180.2660  178.8630  141.9680 C   0  0  0  0  0  3  0  0  0  0  0  0
  183.3020  178.7830  142.3800 C   0  0  0  0  0  0  0  0  0  0  0  0
  184.5500  179.2870  140.4950 N   0  0  0  0  0  0  0  0  0  0  0  0
  182.3500  178.5320  143.2230 N   0  0  0  0  0  0  0  0  0  0  0  0
  180.1490  178.2630  144.2340 N   0  0  0  0  0  1  0  0  0  0  0  0
  180.8020  179.2090  140.6910 N   0  0  0  0  0  0  0  0  0  0  0  0
  182.1400  179.3970  140.2210 C   0  0  0  0  0  0  0  0  0  0  0  0
  183.2180  179.1840  140.9910 C   0  0  0  0  0  0  0  0  0  0  0  0
  185.4930  178.9810  141.5660 C   0  0  0  0  0  3  0  0  0  0  0  0
  184.6770  178.6470  142.7280 N   0  0  0  0  0  0  0  0  0  0  0  0
  180.9280  178.5740  143.0860 C   0  0  2  0  0  3  0  0  0  0  0  0
  182.3600  178.7890  137.8040 C   0  0  0  0  0  1  0  0  0  0  0  0
  182.1400  181.1830  138.4310 C   0  0  0  0  0  1  0  0  0  0  0  0
  182.3020  179.7980  138.8480 N   0  0  0  0  0  0  0  0  0  0  0  0
  186.9330  176.7080  143.3670 N   0  0  0  0  0  2  0  0  0  0  0  0
  188.2480  176.2190  143.3860 N   0  0  0  0  0  0  0  0  0  0  0  0
  189.1150  176.5450  142.4780 C   0  0  0  0  0  3  0  0  0  0  0  0
  188.7820  177.4510  141.3350 C   0  0  0  0  0  2  0  0  0  0  0  0
  189.7950  177.2800  140.2190 C   0  0  0  0  0  1  0  0  0  0  0  0
  187.4380  178.8300  147.7470 C   0  0  0  0  0  2  0  0  0  0  0  0
  187.9980  177.5010  147.9490 N   0  0  0  0  0  2  0  0  0  0  0  0
  189.4430  177.6340  147.8980 C   0  0  0  0  0  2  0  0  0  0  0  0
  190.0440  176.4310  147.1900 C   0  0  0  0  0  2  0  0  0  0  0  0
  191.4830  176.7140  146.7810 C   0  0  2  0  0  3  0  0  0  0  0  0
  191.3630  178.1160  144.7110 O   0  0  0  0  0  1  0  0  0  0  0  0
  191.8040  175.8720  144.5770 O   0  0  0  0  0  0  0  0  0  0  0  0
  191.5600  176.8730  145.2990 C   0  0  0  0  0  0  0  0  0  0  0  0
  192.4080  175.5890  147.2230 C   0  0  0  0  0  2  0  0  0  0  0  0
  192.9090  175.8490  148.4990 O   0  0  0  0  0  1  0  0  0  0  0  0
  1  5  1  0  0  0  0
  2  7  2  0  0  0  0
  3  5  1  0  0  0  0
  3 27  1  1  0  0  0
  4  2  1  0  0  0  0
  4  1  2  0  0  0  0
  5  6  1  6  0  0  0
  7  3  1  0  0  0  0
  8 18  1  0  0  0  0
  9 17  1  0  0  0  0
  9 11  2  0  0  0  0
 10 15  1  0  0  0  0
 10 16  2  0  0  0  0
 13  8  2  0  0  0  0
 14 13  1  0  0  0  0
 14 15  2  0  0  0  0
 15  9  1  0  0  0  0
 16 17  1  0  0  0  0
 17  4  1  0  0  0  0
 18 11  1  0  0  0  0
 18 12  1  6  0  0  0
 19 21  1  0  0  0  0
 20 21  1  0  0  0  0
 21 14  1  0  0  0  0
 22 23  1  0  0  0  0
 22  2  1  0  0  0  0
 24 23  2  0  0  0  0
 25 24  1  0  0  0  0
 26 25  1  0  0  0  0
 27 28  1  0  0  0  0
 29 28  1  0  0  0  0
 30 29  1  0  0  0  0
 31 30  1  6  0  0  0
 31 35  1  0  0  0  0
 32 34  1  0  0  0  0
 33 34  2  0  0  0  0
 34 31  1  0  0  0  0
 35 36  1  0  0  0  0
M  END
>  <MODEL>
1

>  <REMARK>
 VINA RESULT:      -7.2      0.000      0.000
  Name = 
  12 active torsions:
  status: ('A' for Active; 'I' for Inactive)
    1  A    between atoms: C_3  and  C_35
    2  A    between atoms: N_4  and  C_22
    3  A    between atoms: N_4  and  C_34
    4  A    between atoms: C_5  and  C_31
    5  A    between atoms: N_10  and  N_13
    6  A    between atoms: N_13  and  C_16
    7  A    between atoms: C_17  and  C_22
    8  A    between atoms: C_19  and  N_27
    9  A    between atoms: C_21  and  N_33
   10  A    between atoms: C_25  and  C_35
   11  A    between atoms: C_32  and  C_34
   12  A    between atoms: C_32  and  C_35
                            x       y       z     vdW  Elec       q    Type
                         _______ _______ _______ _____ _____    ______ ____

>  <TORSDO>
F 12

$$$$
=
 OpenBabel11032420103D

 36 38  0  0  1  0  0  0  0  0999 V2000
  190.8520  176.8700  141.5980 C   0  0  0  0  0  3  0  0  0  0  0  0
  189.4710  177.8740  139.8360 C   0  0  0  0  0  0  0  0  0  0  0  0
  188.4300  177.2310  141.9750 C   0  0  2  0  0  3  0  0  0  0  0  0
  190.7100  177.1730  140.2940 C   0  0  0  0  0  0  0  0  0  0  0  0
  189.8300  177.2910  142.6180 C   0  0  2  0  0  3  0  0  0  0  0  0
  190.1800  178.6810  143.1300 C   0  0  0  0  0  1  0  0  0  0  0  0
  188.4000  177.9210  140.6370 C   0  0  0  0  0  3  0  0  0  0  0  0
  190.5890  173.8710  136.0500 C   0  0  0  0  0  3  0  0  0  0  0  0
  191.4360  175.8460  138.2350 C   0  0  0  0  0  0  0  0  0  0  0  0
  193.5980  176.6520  138.0270 N   0  0  0  0  0  0  0  0  0  0  0  0
  190.3150  175.2120  138.0870 N   0  0  0  0  0  0  0  0  0  0  0  0
  188.5430  173.7960  137.1980 N   0  0  0  0  0  1  0  0  0  0  0  0
  191.9290  174.2200  135.7050 N   0  0  0  0  0  0  0  0  0  0  0  0
  192.8720  175.1280  136.2820 C   0  0  0  0  0  0  0  0  0  0  0  0
  192.6240  175.8160  137.4080 C   0  0  0  0  0  0  0  0  0  0  0  0
  193.0320  177.2430  139.2370 C   0  0  0  0  0  3  0  0  0  0  0  0
  191.6830  176.6990  139.3490 N   0  0  0  0  0  0  0  0  0  0  0  0
  189.8670  174.3020  137.0810 C   0  0  2  0  0  3  0  0  0  0  0  0
  195.1450  174.2170  135.7690 C   0  0  0  0  0  1  0  0  0  0  0  0
  194.3720  176.2650  134.5940 C   0  0  0  0  0  1  0  0  0  0  0  0
  194.1440  175.2600  135.6220 N   0  0  0  0  0  0  0  0  0  0  0  0
  189.4120  178.5760  138.5910 N   0  0  0  0  0  2  0  0  0  0  0  0
  188.1980  178.9700  138.0100 N   0  0  0  0  0  0  0  0  0  0  0  0
  187.8350  178.5620  136.8330 C   0  0  0  0  0  3  0  0  0  0  0  0
  188.6830  177.6550  135.9990 C   0  0  0  0  0  2  0  0  0  0  0  0
  188.1190  177.5560  134.5950 C   0  0  0  0  0  1  0  0  0  0  0  0
  187.2790  177.6370  142.8940 C   0  0  0  0  0  2  0  0  0  0  0  0
  187.2490  176.8260  144.1030 N   0  0  0  0  0  2  0  0  0  0  0  0
  187.5020  177.7170  145.2210 C   0  0  0  0  0  2  0  0  0  0  0  0
  188.2240  176.9630  146.3260 C   0  0  0  0  0  2  0  0  0  0  0  0
  189.3840  177.7850  146.8660 C   0  0  2  0  0  3  0  0  0  0  0  0
  191.1360  176.5640  145.5600 O   0  0  0  0  0  0  0  0  0  0  0  0
  191.2620  176.6950  147.8440 O   0  0  0  0  0  1  0  0  0  0  0  0
  190.6430  176.9880  146.7880 C   0  0  0  0  0  0  0  0  0  0  0  0
  189.1330  178.2030  148.3090 C   0  0  0  0  0  2  0  0  0  0  0  0
  187.7840  178.5050  148.4960 O   0  0  0  0  0  1  0  0  0  0  0  0
  1  5  1  0  0  0  0
  2  4  1  0  0  0  0
  2  7  2  0  0  0  0
  3  5  1  0  0  0  0
  3 27  1  1  0  0  0
  4  1  2  0  0  0  0
  5  6  1  6  0  0  0
  7  3  1  0  0  0  0
  8 18  1  0  0  0  0
  9 17  1  0  0  0  0
 10 16  2  0  0  0  0
 11  9  2  0  0  0  0
 13  8  2  0  0  0  0
 13 14  1  0  0  0  0
 14 15  2  0  0  0  0
 15 10  1  0  0  0  0
 15  9  1  0  0  0  0
 16 17  1  0  0  0  0
 17  4  1  0  0  0  0
 18 12  1  1  0  0  0
 18 11  1  0  0  0  0
 20 21  1  0  0  0  0
 21 19  1  0  0  0  0
 21 14  1  0  0  0  0
 22  2  1  0  0  0  0
 23 22  1  0  0  0  0
 24 23  2  0  0  0  0
 25 24  1  0  0  0  0
 26 25  1  0  0  0  0
 27 28  1  0  0  0  0
 28 29  1  0  0  0  0
 29 30  1  0  0  0  0
 31 30  1  1  0  0  0
 31 35  1  0  0  0  0
 32 34  2  0  0  0  0
 34 31  1  0  0  0  0
 34 33  1  0  0  0  0
 35 36  1  0  0  0  0
M  END
>  <MODEL>
2

>  <REMARK>
 VINA RESULT:      -7.2      4.523      8.183
  Name = 
  12 active torsions:
  status: ('A' for Active; 'I' for Inactive)
    1  A    between atoms: C_3  and  C_35
    2  A    between atoms: N_4  and  C_22
    3  A    between atoms: N_4  and  C_34
    4  A    between atoms: C_5  and  C_31
    5  A    between atoms: N_10  and  N_13
    6  A    between atoms: N_13  and  C_16
    7  A    between atoms: C_17  and  C_22
    8  A    between atoms: C_19  and  N_27
    9  A    between atoms: C_21  and  N_33
   10  A    between atoms: C_25  and  C_35
   11  A    between atoms: C_32  and  C_34
   12  A    between atoms: C_32  and  C_35
                            x       y       z     vdW  Elec       q    Type
                         _______ _______ _______ _____ _____    ______ ____

>  <TORSDO>
F 12

$$$$
=
 OpenBabel11032420103D

 36 38  0  0  1  0  0  0  0  0999 V2000
  186.4840  177.7970  143.7410 C   0  0  0  0  0  3  0  0  0  0  0  0
  186.8340  178.7000  141.4860 C   0  0  0  0  0  0  0  0  0  0  0  0
  188.7740  178.3400  142.9630 C   0  0  2  0  0  3  0  0  0  0  0  0
  185.9570  178.4030  142.6610 C   0  0  0  0  0  0  0  0  0  0  0  0
  187.9160  177.3390  143.7630 C   0  0  2  0  0  3  0  0  0  0  0  0
  187.9940  175.9240  143.2060 C   0  0  0  0  0  1  0  0  0  0  0  0
  188.1650  178.6480  141.6210 C   0  0  0  0  0  3  0  0  0  0  0  0
  181.4100  177.1780  140.0620 C   0  0  0  0  0  3  0  0  0  0  0  0
  183.5010  178.3750  141.9560 C   0  0  0  0  0  0  0  0  0  0  0  0
  182.6480  179.8180  143.5540 N   0  0  0  0  0  0  0  0  0  0  0  0
  183.6630  177.5630  140.9580 N   0  0  0  0  0  0  0  0  0  0  0  0
  183.2330  176.0790  139.0730 N   0  0  0  0  0  1  0  0  0  0  0  0
  180.6520  178.0100  140.9390 N   0  0  0  0  0  2  0  0  0  0  0  0
  181.0130  178.8060  142.0720 C   0  0  0  0  0  0  0  0  0  0  0  0
  182.2830  178.9550  142.4800 C   0  0  0  0  0  0  0  0  0  0  0  0
  184.0950  179.7750  143.7420 C   0  0  0  0  0  3  0  0  0  0  0  0
  184.6020  178.8780  142.7090 N   0  0  0  0  0  0  0  0  0  0  0  0
  182.7230  176.9650  140.0620 C   0  0  0  0  0  0  0  0  0  0  0  0
  179.3040  180.6320  142.1330 C   0  0  0  0  0  1  0  0  0  0  0  0
  179.3090  178.9230  143.9360 C   0  0  0  0  0  1  0  0  0  0  0  0
  179.9490  179.4910  142.7590 N   0  0  0  0  0  0  0  0  0  0  0  0
  186.2990  178.9570  140.1850 N   0  0  0  0  0  2  0  0  0  0  0  0
  186.2370  177.9680  139.1920 N   0  0  0  0  0  0  0  0  0  0  0  0
  187.1470  177.8610  138.2720 C   0  0  0  0  0  3  0  0  0  0  0  0
  188.3190  178.7850  138.1880 C   0  0  0  0  0  2  0  0  0  0  0  0
  189.0780  178.5520  136.8950 C   0  0  0  0  0  1  0  0  0  0  0  0
  190.2630  178.0020  142.8920 C   0  0  0  0  0  2  0  0  0  0  0  0
  191.0430  178.8350  143.7980 N   0  0  0  0  0  2  0  0  0  0  0  0
  191.9900  177.9640  144.4690 C   0  0  0  0  0  2  0  0  0  0  0  0
  191.2510  176.8080  145.1240 C   0  0  0  0  0  2  0  0  0  0  0  0
  191.3250  176.9140  146.6400 C   0  0  2  0  0  3  0  0  0  0  0  0
  192.8780  176.0550  148.4050 O   0  0  0  0  0  1  0  0  0  0  0  0
  192.5090  174.8540  146.4890 O   0  0  0  0  0  0  0  0  0  0  0  0
  192.2660  175.8840  147.1690 C   0  0  0  0  0  0  0  0  0  0  0  0
  189.9520  176.7220  147.2690 C   0  0  0  0  0  2  0  0  0  0  0  0
  189.1110  177.7810  146.9250 O   0  0  0  0  0  1  0  0  0  0  0  0
  1  5  1  0  0  0  0
  2  7  2  0  0  0  0
  2  4  1  0  0  0  0
  3 27  1  6  0  0  0
  3  5  1  0  0  0  0
  4 17  1  0  0  0  0
  4  1  2  0  0  0  0
  5  6  1  6  0  0  0
  7  3  1  0  0  0  0
  8 18  2  0  0  0  0
  8 13  1  0  0  0  0
  9 15  1  0  0  0  0
  9 17  1  0  0  0  0
 10 16  2  0  0  0  0
 11  9  2  0  0  0  0
 12 18  1  0  0  0  0
 13 14  1  0  0  0  0
 14 15  2  0  0  0  0
 14 21  1  0  0  0  0
 15 10  1  0  0  0  0
 17 16  1  0  0  0  0
 18 11  1  0  0  0  0
 19 21  1  0  0  0  0
 21 20  1  0  0  0  0
 22  2  1  0  0  0  0
 23 22  1  0  0  0  0
 24 23  2  0  0  0  0
 25 24  1  0  0  0  0
 26 25  1  0  0  0  0
 27 28  1  0  0  0  0
 28 29  1  0  0  0  0
 29 30  1  0  0  0  0
 31 30  1  6  0  0  0
 31 34  1  0  0  0  0
 31 35  1  0  0  0  0
 33 34  2  0  0  0  0
 34 32  1  0  0  0  0
 36 35  1  0  0  0  0
M  END
>  <MODEL>
3

>  <REMARK>
 VINA RESULT:      -7.1      2.314      3.832
  Name = 
  12 active torsions:
  status: ('A' for Active; 'I' for Inactive)
    1  A    between atoms: C_3  and  C_35
    2  A    between atoms: N_4  and  C_22
    3  A    between atoms: N_4  and  C_34
    4  A    between atoms: C_5  and  C_31
    5  A    between atoms: N_10  and  N_13
    6  A    between atoms: N_13  and  C_16
    7  A    between atoms: C_17  and  C_22
    8  A    between atoms: C_19  and  N_27
    9  A    between atoms: C_21  and  N_33
   10  A    between atoms: C_25  and  C_35
   11  A    between atoms: C_32  and  C_34
   12  A    between atoms: C_32  and  C_35
                            x       y       z     vdW  Elec       q    Type
                         _______ _______ _______ _____ _____    ______ ____

>  <TORSDO>
F 12

$$$$
=
 OpenBabel11032420103D

 36 38  0  0  1  0  0  0  0  0999 V2000
  190.7750  176.7350  141.7310 C   0  0  0  0  0  3  0  0  0  0  0  0
  189.4140  177.8210  140.0020 C   0  0  0  0  0  0  0  0  0  0  0  0
  188.3430  177.0530  142.0840 C   0  0  2  0  0  3  0  0  0  0  0  0
  190.6520  177.1070  140.4440 C   0  0  0  0  0  0  0  0  0  0  0  0
  189.7310  177.0900  142.7540 C   0  0  2  0  0  3  0  0  0  0  0  0
  190.0590  178.4530  143.3470 C   0  0  0  0  0  1  0  0  0  0  0  0
  188.3300  177.8150  140.7860 C   0  0  0  0  0  3  0  0  0  0  0  0
  190.6260  174.0760  136.0000 C   0  0  0  0  0  3  0  0  0  0  0  0
  191.4230  175.9120  138.3210 C   0  0  0  0  0  0  0  0  0  0  0  0
  193.5870  176.7300  138.2100 N   0  0  0  0  0  0  0  0  0  0  0  0
  190.3060  175.2880  138.1110 N   0  0  0  0  0  0  0  0  0  0  0  0
  188.5560  173.9280  137.0970 N   0  0  0  0  0  1  0  0  0  0  0  0
  191.9720  174.4470  135.7050 N   0  0  0  0  0  0  0  0  0  0  0  0
  192.9010  175.3180  136.3580 C   0  0  0  0  0  0  0  0  0  0  0  0
  192.6280  175.9330  137.5180 C   0  0  0  0  0  0  0  0  0  0  0  0
  192.9950  177.2440  139.4410 C   0  0  0  0  0  3  0  0  0  0  0  0
  191.6450  176.6930  139.4910 N   0  0  0  0  0  0  0  0  0  0  0  0
  189.8810  174.4410  137.0400 C   0  0  2  0  0  3  0  0  0  0  0  0
  195.2130  174.4770  135.9020 C   0  0  0  0  0  1  0  0  0  0  0  0
  194.4130  176.5100  134.7190 C   0  0  0  0  0  1  0  0  0  0  0  0
  194.1870  175.4910  135.7340 N   0  0  0  0  0  0  0  0  0  0  0  0
  189.3700  178.5900  138.7970 N   0  0  0  0  0  2  0  0  0  0  0  0
  188.1660  178.8860  138.1410 N   0  0  0  0  0  0  0  0  0  0  0  0
  187.9760  178.5970  136.8900 C   0  0  0  0  0  3  0  0  0  0  0  0
  189.0250  177.9420  136.0470 C   0  0  0  0  0  2  0  0  0  0  0  0
  188.3760  177.1570  134.9230 C   0  0  0  0  0  1  0  0  0  0  0  0
  187.1720  177.3990  143.0040 C   0  0  0  0  0  2  0  0  0  0  0  0
  186.3030  178.4050  142.4080 N   0  0  0  0  0  2  0  0  0  0  0  0
  184.9350  177.9900  142.6580 C   0  0  0  0  0  2  0  0  0  0  0  0
  183.9850  178.8090  141.7990 C   0  0  0  0  0  2  0  0  0  0  0  0
  183.9700  178.2880  140.3690 C   0  0  2  0  0  3  0  0  0  0  0  0
  182.4240  179.6870  138.9850 O   0  0  0  0  0  0  0  0  0  0  0  0
  184.6720  180.1260  139.0290 O   0  0  0  0  0  1  0  0  0  0  0  0
  183.7130  179.4160  139.4280 C   0  0  0  0  0  0  0  0  0  0  0  0
  182.9020  177.2180  140.1880 C   0  0  0  0  0  2  0  0  0  0  0  0
  183.1650  176.4620  139.0450 O   0  0  0  0  0  1  0  0  0  0  0  0
  1  5  1  0  0  0  0
  2  4  1  0  0  0  0
  2  7  2  0  0  0  0
  3  5  1  0  0  0  0
  3 27  1  1  0  0  0
  4  1  2  0  0  0  0
  5  6  1  6  0  0  0
  7  3  1  0  0  0  0
  8 18  1  0  0  0  0
  9 17  1  0  0  0  0
 10 16  2  0  0  0  0
 11  9  2  0  0  0  0
 13  8  2  0  0  0  0
 13 14  1  0  0  0  0
 14 15  2  0  0  0  0
 15 10  1  0  0  0  0
 15  9  1  0  0  0  0
 16 17  1  0  0  0  0
 17  4  1  0  0  0  0
 18 12  1  1  0  0  0
 18 11  1  0  0  0  0
 20 21  1  0  0  0  0
 21 19  1  0  0  0  0
 21 14  1  0  0  0  0
 22  2  1  0  0  0  0
 23 22  1  0  0  0  0
 24 23  2  0  0  0  0
 25 24  1  0  0  0  0
 26 25  1  0  0  0  0
 28 29  1  0  0  0  0
 28 27  1  0  0  0  0
 30 29  1  0  0  0  0
 31 35  1  1  0  0  0
 31 30  1  0  0  0  0
 32 34  2  0  0  0  0
 33 34  1  0  0  0  0
 34 31  1  0  0  0  0
 36 35  1  0  0  0  0
M  END
>  <MODEL>
4

>  <REMARK>
 VINA RESULT:      -7.0      5.238      9.376
  Name = 
  12 active torsions:
  status: ('A' for Active; 'I' for Inactive)
    1  A    between atoms: C_3  and  C_35
    2  A    between atoms: N_4  and  C_22
    3  A    between atoms: N_4  and  C_34
    4  A    between atoms: C_5  and  C_31
    5  A    between atoms: N_10  and  N_13
    6  A    between atoms: N_13  and  C_16
    7  A    between atoms: C_17  and  C_22
    8  A    between atoms: C_19  and  N_27
    9  A    between atoms: C_21  and  N_33
   10  A    between atoms: C_25  and  C_35
   11  A    between atoms: C_32  and  C_34
   12  A    between atoms: C_32  and  C_35
                            x       y       z     vdW  Elec       q    Type
                         _______ _______ _______ _____ _____    ______ ____

>  <TORSDO>
F 12

$$$$
=
 OpenBabel11032420103D

 36 38  0  0  1  0  0  0  0  0999 V2000
  188.5250  178.4840  139.2220 C   0  0  0  0  0  3  0  0  0  0  0  0
  189.6730  176.3760  138.7130 C   0  0  0  0  0  0  0  0  0  0  0  0
  187.7170  177.0450  137.3730 C   0  0  2  0  0  3  0  0  0  0  0  0
  189.3590  177.5110  139.6340 C   0  0  0  0  0  0  0  0  0  0  0  0
  187.9650  178.4980  137.8260 C   0  0  2  0  0  3  0  0  0  0  0  0
  188.9290  179.2400  136.9110 C   0  0  0  0  0  1  0  0  0  0  0  0
  188.9120  176.1680  137.6320 C   0  0  0  0  0  3  0  0  0  0  0  0
  186.9750  177.5320  144.4570 C   0  0  0  0  0  3  0  0  0  0  0  0
  189.0090  177.4600  142.1650 C   0  0  0  0  0  0  0  0  0  0  0  0
  191.2040  177.1300  142.8280 N   0  0  0  0  0  0  0  0  0  0  0  0
  187.7270  177.6470  142.1230 N   0  0  0  0  0  0  0  0  0  0  0  0
  185.3870  177.8740  142.7630 N   0  0  0  0  0  1  0  0  0  0  0  0
  188.2260  177.3160  145.1070 N   0  0  0  0  0  2  0  0  0  0  0  0
  189.5560  177.1360  144.6120 C   0  0  0  0  0  0  0  0  0  0  0  0
  189.8650  177.2230  143.3090 C   0  0  0  0  0  0  0  0  0  0  0  0
  191.2110  177.2800  141.3760 C   0  0  0  0  0  3  0  0  0  0  0  0
  189.8210  177.5070  140.9950 N   0  0  0  0  0  0  0  0  0  0  0  0
  186.7380  177.6690  143.1540 C   0  0  0  0  0  0  0  0  0  0  0  0
  190.3500  177.1870  146.9840 C   0  0  0  0  0  1  0  0  0  0  0  0
  191.7690  176.0980  145.2600 C   0  0  0  0  0  1  0  0  0  0  0  0
  190.5900  176.8880  145.5830 N   0  0  0  0  0  0  0  0  0  0  0  0
  190.8210  175.5430  138.8990 N   0  0  0  0  0  2  0  0  0  0  0  0
  191.1520  174.5130  138.0060 N   0  0  0  0  0  0  0  0  0  0  0  0
  192.3350  174.4110  137.4820 C   0  0  0  0  0  3  0  0  0  0  0  0
  193.4310  175.3860  137.7740 C   0  0  0  0  0  2  0  0  0  0  0  0
  194.7710  174.6760  137.7870 C   0  0  0  0  0  1  0  0  0  0  0  0
  187.1480  176.8960  135.9620 C   0  0  0  0  0  2  0  0  0  0  0  0
  185.7710  177.3660  135.8890 N   0  0  0  0  0  2  0  0  0  0  0  0
  185.0140  176.6290  136.8840 C   0  0  0  0  0  2  0  0  0  0  0  0
  183.8610  177.4810  137.3870 C   0  0  0  0  0  2  0  0  0  0  0  0
  184.0490  177.8230  138.8580 C   0  0  2  0  0  3  0  0  0  0  0  0
  182.0920  178.0030  140.4090 O   0  0  0  0  0  1  0  0  0  0  0  0
  182.8020  175.9580  139.6580 O   0  0  0  0  0  0  0  0  0  0  0  0
  182.9500  177.2080  139.6590 C   0  0  0  0  0  0  0  0  0  0  0  0
  184.0550  179.3300  139.0730 C   0  0  0  0  0  2  0  0  0  0  0  0
  185.0660  179.6860  139.9660 O   0  0  0  0  0  1  0  0  0  0  0  0
  1  4  2  0  0  0  0
  2 22  1  0  0  0  0
  2  4  1  0  0  0  0
  3 27  1  6  0  0  0
  3  7  1  0  0  0  0
  3  5  1  0  0  0  0
  4 17  1  0  0  0  0
  5  6  1  6  0  0  0
  5  1  1  0  0  0  0
  7  2  2  0  0  0  0
  8 13  1  0  0  0  0
  9 15  1  0  0  0  0
 10 15  1  0  0  0  0
 11  9  2  0  0  0  0
 11 18  1  0  0  0  0
 12 18  1  0  0  0  0
 14 13  1  0  0  0  0
 14 21  1  0  0  0  0
 15 14  2  0  0  0  0
 16 10  2  0  0  0  0
 17 16  1  0  0  0  0
 17  9  1  0  0  0  0
 18  8  2  0  0  0  0
 20 21  1  0  0  0  0
 21 19  1  0  0  0  0
 23 22  1  0  0  0  0
 24 25  1  0  0  0  0
 24 23  2  0  0  0  0
 25 26  1  0  0  0  0
 28 27  1  0  0  0  0
 28 29  1  0  0  0  0
 29 30  1  0  0  0  0
 31 30  1  6  0  0  0
 31 35  1  0  0  0  0
 31 34  1  0  0  0  0
 33 34  2  0  0  0  0
 34 32  1  0  0  0  0
 35 36  1  0  0  0  0
M  END
>  <MODEL>
5

>  <REMARK>
 VINA RESULT:      -6.8      4.127      9.040
  Name = 
  12 active torsions:
  status: ('A' for Active; 'I' for Inactive)
    1  A    between atoms: C_3  and  C_35
    2  A    between atoms: N_4  and  C_22
    3  A    between atoms: N_4  and  C_34
    4  A    between atoms: C_5  and  C_31
    5  A    between atoms: N_10  and  N_13
    6  A    between atoms: N_13  and  C_16
    7  A    between atoms: C_17  and  C_22
    8  A    between atoms: C_19  and  N_27
    9  A    between atoms: C_21  and  N_33
   10  A    between atoms: C_25  and  C_35
   11  A    between atoms: C_32  and  C_34
   12  A    between atoms: C_32  and  C_35
                            x       y       z     vdW  Elec       q    Type
                         _______ _______ _______ _____ _____    ______ ____

>  <TORSDO>
F 12

$$$$
=
 OpenBabel11032420103D

 36 38  0  0  1  0  0  0  0  0999 V2000
  190.8340  176.7400  141.6320 C   0  0  0  0  0  3  0  0  0  0  0  0
  189.5260  177.8620  139.8860 C   0  0  0  0  0  0  0  0  0  0  0  0
  188.4040  177.1070  141.9460 C   0  0  2  0  0  3  0  0  0  0  0  0
  190.7410  177.1210  140.3440 C   0  0  0  0  0  0  0  0  0  0  0  0
  189.7810  177.1120  142.6390 C   0  0  2  0  0  3  0  0  0  0  0  0
  190.1270  178.4650  143.2440 C   0  0  0  0  0  1  0  0  0  0  0  0
  188.4280  177.8750  140.6510 C   0  0  0  0  0  3  0  0  0  0  0  0
  190.7620  173.9600  135.9910 C   0  0  0  0  0  3  0  0  0  0  0  0
  191.5320  175.8730  138.2590 C   0  0  0  0  0  0  0  0  0  0  0  0
  193.6860  176.7140  138.1290 N   0  0  0  0  0  0  0  0  0  0  0  0
  190.4230  175.2300  138.0650 N   0  0  0  0  0  0  0  0  0  0  0  0
  188.6920  173.8200  137.0880 N   0  0  0  0  0  1  0  0  0  0  0  0
  192.1050  174.3390  135.6890 N   0  0  0  0  0  0  0  0  0  0  0  0
  193.0210  175.2400  136.3170 C   0  0  0  0  0  0  0  0  0  0  0  0
  192.7390  175.8860  137.4590 C   0  0  0  0  0  0  0  0  0  0  0  0
  193.0850  177.2560  139.3430 C   0  0  0  0  0  3  0  0  0  0  0  0
  191.7420  176.6910  139.4070 N   0  0  0  0  0  0  0  0  0  0  0  0
  190.0110  174.3470  137.0190 C   0  0  2  0  0  3  0  0  0  0  0  0
  194.5560  176.5780  134.8630 C   0  0  0  0  0  1  0  0  0  0  0  0
  195.4550  174.6010  136.0710 C   0  0  0  0  0  1  0  0  0  0  0  0
  194.3070  175.4100  135.6910 N   0  0  0  0  0  0  0  0  0  0  0  0
  189.5180  178.6370  138.6840 N   0  0  0  0  0  2  0  0  0  0  0  0
  188.3280  179.0110  138.0410 N   0  0  0  0  0  0  0  0  0  0  0  0
  188.0680  178.6600  136.8190 C   0  0  0  0  0  3  0  0  0  0  0  0
  189.0170  177.8470  135.9960 C   0  0  0  0  0  2  0  0  0  0  0  0
  188.2490  176.9900  135.0080 C   0  0  0  0  0  1  0  0  0  0  0  0
  187.2250  177.4720  142.8470 C   0  0  0  0  0  2  0  0  0  0  0  0
  186.2170  178.2350  142.1260 N   0  0  0  0  0  2  0  0  0  0  0  0
  185.0150  178.2340  142.9400 C   0  0  0  0  0  2  0  0  0  0  0  0
  184.8000  179.6120  143.5410 C   0  0  0  0  0  2  0  0  0  0  0  0
  183.9170  179.5270  144.7780 C   0  0  2  0  0  3  0  0  0  0  0  0
  185.6960  179.6700  146.5330 O   0  0  0  0  0  1  0  0  0  0  0  0
  184.4390  177.7690  146.2970 O   0  0  0  0  0  0  0  0  0  0  0  0
  184.6930  178.9380  145.9080 C   0  0  0  0  0  0  0  0  0  0  0  0
  182.6820  178.6780  144.5100 C   0  0  0  0  0  2  0  0  0  0  0  0
  181.9110  179.2520  143.4990 O   0  0  0  0  0  1  0  0  0  0  0  0
  1  5  1  0  0  0  0
  2  4  1  0  0  0  0
  2  7  2  0  0  0  0
  3  5  1  0  0  0  0
  3 27  1  1  0  0  0
  4  1  2  0  0  0  0
  5  6  1  6  0  0  0
  7  3  1  0  0  0  0
  8 18  1  0  0  0  0
  9 17  1  0  0  0  0
 10 16  2  0  0  0  0
 11  9  2  0  0  0  0
 13  8  2  0  0  0  0
 13 14  1  0  0  0  0
 14 15  2  0  0  0  0
 15 10  1  0  0  0  0
 15  9  1  0  0  0  0
 16 17  1  0  0  0  0
 17  4  1  0  0  0  0
 18 12  1  1  0  0  0
 18 11  1  0  0  0  0
 19 21  1  0  0  0  0
 21 20  1  0  0  0  0
 21 14  1  0  0  0  0
 22  2  1  0  0  0  0
 23 22  1  0  0  0  0
 24 23  2  0  0  0  0
 25 24  1  0  0  0  0
 26 25  1  0  0  0  0
 28 27  1  0  0  0  0
 28 29  1  0  0  0  0
 29 30  1  0  0  0  0
 31 30  1  6  0  0  0
 31 34  1  0  0  0  0
 34 33  2  0  0  0  0
 34 32  1  0  0  0  0
 35 31  1  0  0  0  0
 36 35  1  0  0  0  0
M  END
>  <MODEL>
6

>  <REMARK>
 VINA RESULT:      -6.7      4.960      9.060
  Name = 
  12 active torsions:
  status: ('A' for Active; 'I' for Inactive)
    1  A    between atoms: C_3  and  C_35
    2  A    between atoms: N_4  and  C_22
    3  A    between atoms: N_4  and  C_34
    4  A    between atoms: C_5  and  C_31
    5  A    between atoms: N_10  and  N_13
    6  A    between atoms: N_13  and  C_16
    7  A    between atoms: C_17  and  C_22
    8  A    between atoms: C_19  and  N_27
    9  A    between atoms: C_21  and  N_33
   10  A    between atoms: C_25  and  C_35
   11  A    between atoms: C_32  and  C_34
   12  A    between atoms: C_32  and  C_35
                            x       y       z     vdW  Elec       q    Type
                         _______ _______ _______ _____ _____    ______ ____

>  <TORSDO>
F 12

$$$$
=
 OpenBabel11032420103D

 36 38  0  0  1  0  0  0  0  0999 V2000
  186.7170  178.1120  137.5780 C   0  0  0  0  0  3  0  0  0  0  0  0
  186.8130  178.4160  140.0110 C   0  0  0  0  0  0  0  0  0  0  0  0
  188.6290  177.2060  138.8680 C   0  0  2  0  0  3  0  0  0  0  0  0
  186.0600  178.3900  138.7190 C   0  0  0  0  0  0  0  0  0  0  0  0
  188.2070  177.9060  137.5610 C   0  0  2  0  0  3  0  0  0  0  0  0
  188.8930  179.2520  137.3690 C   0  0  0  0  0  1  0  0  0  0  0  0
  188.0350  177.8770  140.0780 C   0  0  0  0  0  3  0  0  0  0  0  0
  181.9470  174.9930  138.0180 C   0  0  0  0  0  3  0  0  0  0  0  0
  183.6850  177.4630  138.5440 C   0  0  0  0  0  0  0  0  0  0  0  0
  182.5080  179.3660  139.1420 N   0  0  0  0  0  0  0  0  0  0  0  0
  184.0380  176.2710  138.1760 N   0  0  0  0  0  0  0  0  0  0  0  0
  183.9810  173.9120  137.5670 N   0  0  0  0  0  1  0  0  0  0  0  0
  181.0110  176.0120  138.3680 N   0  0  0  0  0  2  0  0  0  0  0  0
  181.1690  177.3740  138.7740 C   0  0  0  0  0  0  0  0  0  0  0  0
  182.3630  177.9840  138.8230 C   0  0  0  0  0  0  0  0  0  0  0  0
  183.9210  179.7310  139.0960 C   0  0  0  0  0  3  0  0  0  0  0  0
  184.6290  178.5200  138.6960 N   0  0  0  0  0  0  0  0  0  0  0  0
  183.2720  175.0880  137.9380 C   0  0  0  0  0  0  0  0  0  0  0  0
  179.5710  178.2460  140.4900 C   0  0  0  0  0  1  0  0  0  0  0  0
  179.2910  178.9370  138.1200 C   0  0  0  0  0  1  0  0  0  0  0  0
  179.9720  178.1050  139.1010 N   0  0  0  0  0  0  0  0  0  0  0  0
  186.3040  179.0780  141.1730 N   0  0  0  0  0  2  0  0  0  0  0  0
  186.4230  178.5300  142.4590 N   0  0  0  0  0  0  0  0  0  0  0  0
  185.3870  178.2930  143.2030 C   0  0  0  0  0  3  0  0  0  0  0  0
  183.9910  178.5970  142.7590 C   0  0  0  0  0  2  0  0  0  0  0  0
  183.1450  179.0160  143.9460 C   0  0  0  0  0  1  0  0  0  0  0  0
  190.1270  176.9310  138.9990 C   0  0  0  0  0  2  0  0  0  0  0  0
  190.4580  176.3850  140.3080 N   0  0  0  0  0  2  0  0  0  0  0  0
  191.5060  177.2200  140.8660 C   0  0  0  0  0  2  0  0  0  0  0  0
  191.1280  177.6460  142.2750 C   0  0  0  0  0  2  0  0  0  0  0  0
  190.7120  176.4410  143.1070 C   0  0  2  0  0  3  0  0  0  0  0  0
  188.2850  175.8380  143.2130 O   0  0  0  0  0  0  0  0  0  0  0  0
  189.1140  177.5680  144.4660 O   0  0  0  0  0  1  0  0  0  0  0  0
  189.3320  176.6490  143.6350 C   0  0  0  0  0  0  0  0  0  0  0  0
  191.6740  176.2180  144.2660 C   0  0  0  0  0  2  0  0  0  0  0  0
  192.0600  174.8790  144.3220 O   0  0  0  0  0  1  0  0  0  0  0  0
  1  4  2  0  0  0  0
  2  7  2  0  0  0  0
  2 22  1  0  0  0  0
  3 27  1  1  0  0  0
  3  7  1  0  0  0  0
  4  2  1  0  0  0  0
  5  6  1  1  0  0  0
  5  1  1  0  0  0  0
  5  3  1  0  0  0  0
  8 13  1  0  0  0  0
  9 17  1  0  0  0  0
  9 15  1  0  0  0  0
 11  9  2  0  0  0  0
 12 18  1  0  0  0  0
 13 14  1  0  0  0  0
 14 15  2  0  0  0  0
 14 21  1  0  0  0  0
 15 10  1  0  0  0  0
 16 10  2  0  0  0  0
 17  4  1  0  0  0  0
 17 16  1  0  0  0  0
 18  8  2  0  0  0  0
 18 11  1  0  0  0  0
 20 21  1  0  0  0  0
 21 19  1  0  0  0  0
 22 23  1  0  0  0  0
 23 24  2  0  0  0  0
 25 24  1  0  0  0  0
 25 26  1  0  0  0  0
 27 28  1  0  0  0  0
 28 29  1  0  0  0  0
 29 30  1  0  0  0  0
 31 30  1  1  0  0  0
 31 34  1  0  0  0  0
 31 35  1  0  0  0  0
 32 34  2  0  0  0  0
 34 33  1  0  0  0  0
 35 36  1  0  0  0  0
M  END
>  <MODEL>
7

>  <REMARK>
 VINA RESULT:      -6.6      2.826      5.650
  Name = 
  12 active torsions:
  status: ('A' for Active; 'I' for Inactive)
    1  A    between atoms: C_3  and  C_35
    2  A    between atoms: N_4  and  C_22
    3  A    between atoms: N_4  and  C_34
    4  A    between atoms: C_5  and  C_31
    5  A    between atoms: N_10  and  N_13
    6  A    between atoms: N_13  and  C_16
    7  A    between atoms: C_17  and  C_22
    8  A    between atoms: C_19  and  N_27
    9  A    between atoms: C_21  and  N_33
   10  A    between atoms: C_25  and  C_35
   11  A    between atoms: C_32  and  C_34
   12  A    between atoms: C_32  and  C_35
                            x       y       z     vdW  Elec       q    Type
                         _______ _______ _______ _____ _____    ______ ____

>  <TORSDO>
F 12

$$$$
=
 OpenBabel11032420103D

 36 38  0  0  1  0  0  0  0  0999 V2000
  190.9570  177.6140  141.4290 C   0  0  0  0  0  3  0  0  0  0  0  0
  188.8770  176.9240  142.5330 C   0  0  0  0  0  0  0  0  0  0  0  0
  191.0430  176.2650  143.5060 C   0  0  2  0  0  3  0  0  0  0  0  0
  189.6290  177.4160  141.3370 C   0  0  0  0  0  0  0  0  0  0  0  0
  191.6900  177.4280  142.7290 C   0  0  2  0  0  3  0  0  0  0  0  0
  191.6650  178.7370  143.5050 C   0  0  0  0  0  1  0  0  0  0  0  0
  189.5440  176.4010  143.5680 C   0  0  0  0  0  3  0  0  0  0  0  0
  190.2500  175.1270  136.5090 C   0  0  0  0  0  3  0  0  0  0  0  0
  189.2650  176.7930  138.8860 C   0  0  0  0  0  0  0  0  0  0  0  0
  187.3190  177.9860  138.4930 N   0  0  0  0  0  0  0  0  0  0  0  0
  190.3200  176.0460  138.7840 N   0  0  0  0  0  0  0  0  0  0  0  0
  192.0050  174.5030  137.9360 N   0  0  0  0  0  1  0  0  0  0  0  0
  189.0580  175.7500  136.0300 N   0  0  0  0  0  0  0  0  0  0  0  0
  188.0980  176.6080  136.6510 C   0  0  0  0  0  0  0  0  0  0  0  0
  188.2320  177.0600  137.9070 C   0  0  0  0  0  0  0  0  0  0  0  0
  187.7450  178.2940  139.8550 C   0  0  0  0  0  3  0  0  0  0  0  0
  188.9820  177.5470  140.0610 N   0  0  0  0  0  0  0  0  0  0  0  0
  190.8090  175.2380  137.7110 C   0  0  2  0  0  3  0  0  0  0  0  0
  185.6710  176.3990  136.0750 C   0  0  0  0  0  1  0  0  0  0  0  0
  187.0100  178.2080  135.0230 C   0  0  0  0  0  1  0  0  0  0  0  0
  186.9690  177.0140  135.8550 N   0  0  0  0  0  0  0  0  0  0  0  0
  187.4590  177.0700  142.6510 N   0  0  0  0  0  2  0  0  0  0  0  0
  186.8700  177.9080  143.6090 N   0  0  0  0  0  0  0  0  0  0  0  0
  185.6320  178.2880  143.5220 C   0  0  0  0  0  3  0  0  0  0  0  0
  184.7420  177.8780  142.3910 C   0  0  0  0  0  2  0  0  0  0  0  0
  183.4260  178.6280  142.4630 C   0  0  0  0  0  1  0  0  0  0  0  0
  191.6810  175.9570  144.8600 C   0  0  0  0  0  2  0  0  0  0  0  0
  191.4470  177.0290  145.8170 N   0  0  0  0  0  2  0  0  0  0  0  0
  191.2480  176.4080  147.1140 C   0  0  0  0  0  2  0  0  0  0  0  0
  189.7650  176.1720  147.3480 C   0  0  0  0  0  2  0  0  0  0  0  0
  188.9880  177.4750  147.2250 C   0  0  2  0  0  3  0  0  0  0  0  0
  187.9330  177.8750  149.4600 O   0  0  0  0  0  1  0  0  0  0  0  0
  189.8300  179.0030  148.8450 O   0  0  0  0  0  0  0  0  0  0  0  0
  188.9450  178.1590  148.5500 C   0  0  0  0  0  0  0  0  0  0  0  0
  187.5690  177.2210  146.7350 C   0  0  0  0  0  2  0  0  0  0  0  0
  186.8020  178.3800  146.8540 O   0  0  0  0  0  1  0  0  0  0  0  0
  1  5  1  0  0  0  0
  2 22  1  0  0  0  0
  2  7  2  0  0  0  0
  3  7  1  0  0  0  0
  3 27  1  1  0  0  0
  4  1  2  0  0  0  0
  4  2  1  0  0  0  0
  5  6  1  1  0  0  0
  5  3  1  0  0  0  0
  8 18  1  0  0  0  0
  9 17  1  0  0  0  0
 10 16  2  0  0  0  0
 11  9  2  0  0  0  0
 13  8  2  0  0  0  0
 13 14  1  0  0  0  0
 14 15  2  0  0  0  0
 15 10  1  0  0  0  0
 15  9  1  0  0  0  0
 16 17  1  0  0  0  0
 17  4  1  0  0  0  0
 18 12  1  6  0  0  0
 18 11  1  0  0  0  0
 20 21  1  0  0  0  0
 21 19  1  0  0  0  0
 21 14  1  0  0  0  0
 22 23  1  0  0  0  0
 24 23  2  0  0  0  0
 25 26  1  0  0  0  0
 25 24  1  0  0  0  0
 27 28  1  0  0  0  0
 28 29  1  0  0  0  0
 29 30  1  0  0  0  0
 31 35  1  1  0  0  0
 31 30  1  0  0  0  0
 31 34  1  0  0  0  0
 34 33  2  0  0  0  0
 34 32  1  0  0  0  0
 35 36  1  0  0  0  0
M  END
>  <MODEL>
8

>  <REMARK>
 VINA RESULT:      -6.5      3.412      6.531
  Name = 
  12 active torsions:
  status: ('A' for Active; 'I' for Inactive)
    1  A    between atoms: C_3  and  C_35
    2  A    between atoms: N_4  and  C_22
    3  A    between atoms: N_4  and  C_34
    4  A    between atoms: C_5  and  C_31
    5  A    between atoms: N_10  and  N_13
    6  A    between atoms: N_13  and  C_16
    7  A    between atoms: C_17  and  C_22
    8  A    between atoms: C_19  and  N_27
    9  A    between atoms: C_21  and  N_33
   10  A    between atoms: C_25  and  C_35
   11  A    between atoms: C_32  and  C_34
   12  A    between atoms: C_32  and  C_35
                            x       y       z     vdW  Elec       q    Type
                         _______ _______ _______ _____ _____    ______ ____

>  <TORSDO>
F 12

$$$$
=
 OpenBabel11032420103D

 36 38  0  0  1  0  0  0  0  0999 V2000
  187.0840  177.4940  137.1460 C   0  0  0  0  0  3  0  0  0  0  0  0
  186.4470  178.2230  139.4010 C   0  0  0  0  0  0  0  0  0  0  0  0
  188.7330  177.3970  138.9930 C   0  0  2  0  0  3  0  0  0  0  0  0
  186.0980  177.7660  138.0200 C   0  0  0  0  0  0  0  0  0  0  0  0
  188.5290  177.7170  137.4980 C   0  0  2  0  0  3  0  0  0  0  0  0
  188.9130  179.1480  137.1480 C   0  0  0  0  0  1  0  0  0  0  0  0
  187.6970  178.0700  139.8540 C   0  0  0  0  0  3  0  0  0  0  0  0
  183.2560  173.2820  137.1500 C   0  0  0  0  0  3  0  0  0  0  0  0
  184.1480  176.1900  137.5250 C   0  0  0  0  0  0  0  0  0  0  0  0
  182.4340  177.7470  137.4490 N   0  0  0  0  0  0  0  0  0  0  0  0
  184.8610  175.1080  137.4940 N   0  0  0  0  0  0  0  0  0  0  0  0
  185.5340  172.7680  137.3840 N   0  0  0  0  0  1  0  0  0  0  0  0
  182.0440  174.0320  137.0710 N   0  0  0  0  0  0  0  0  0  0  0  0
  181.7580  175.4260  137.2130 C   0  0  0  0  0  0  0  0  0  0  0  0
  182.7140  176.3500  137.3960 C   0  0  0  0  0  0  0  0  0  0  0  0
  183.6790  178.4860  137.6390 C   0  0  0  0  0  3  0  0  0  0  0  0
  184.7360  177.4810  137.6590 N   0  0  0  0  0  0  0  0  0  0  0  0
  184.4920  173.7350  137.3430 C   0  0  2  0  0  3  0  0  0  0  0  0
  179.7490  175.9310  135.8100 C   0  0  0  0  0  1  0  0  0  0  0  0
  179.5100  175.8680  138.2820 C   0  0  0  0  0  1  0  0  0  0  0  0
  180.3780  175.8260  137.1150 N   0  0  0  0  0  0  0  0  0  0  0  0
  185.5060  178.9020  140.2360 N   0  0  0  0  0  2  0  0  0  0  0  0
  185.8910  179.5700  141.4080 N   0  0  0  0  0  0  0  0  0  0  0  0
  185.2860  179.3760  142.5400 C   0  0  0  0  0  3  0  0  0  0  0  0
  184.1260  178.4420  142.6820 C   0  0  0  0  0  2  0  0  0  0  0  0
  183.2750  178.8430  143.8720 C   0  0  0  0  0  1  0  0  0  0  0  0
  190.1610  177.5820  139.5040 C   0  0  0  0  0  2  0  0  0  0  0  0
  190.5540  176.5000  140.3970 N   0  0  0  0  0  2  0  0  0  0  0  0
  190.8120  177.0910  141.6970 C   0  0  0  0  0  2  0  0  0  0  0  0
  189.8010  176.5750  142.7060 C   0  0  0  0  0  2  0  0  0  0  0  0
  189.4370  177.6640  143.7060 C   0  0  2  0  0  3  0  0  0  0  0  0
  191.5530  177.5670  145.0400 O   0  0  0  0  0  1  0  0  0  0  0  0
  190.9430  179.4920  143.9570 O   0  0  0  0  0  0  0  0  0  0  0  0
  190.6820  178.2930  144.2360 C   0  0  0  0  0  0  0  0  0  0  0  0
  188.6190  177.0980  144.8580 C   0  0  0  0  0  2  0  0  0  0  0  0
  187.2680  177.3980  144.6850 O   0  0  0  0  0  1  0  0  0  0  0  0
  1  5  1  0  0  0  0
  1  4  2  0  0  0  0
  2  7  2  0  0  0  0
  2 22  1  0  0  0  0
  3 27  1  1  0  0  0
  3  7  1  0  0  0  0
  4  2  1  0  0  0  0
  5  6  1  1  0  0  0
  5  3  1  0  0  0  0
  8 18  1  0  0  0  0
  9 17  1  0  0  0  0
 10 16  2  0  0  0  0
 11  9  2  0  0  0  0
 13  8  2  0  0  0  0
 13 14  1  0  0  0  0
 14 15  2  0  0  0  0
 15 10  1  0  0  0  0
 15  9  1  0  0  0  0
 16 17  1  0  0  0  0
 17  4  1  0  0  0  0
 18 12  1  6  0  0  0
 18 11  1  0  0  0  0
 19 21  1  0  0  0  0
 21 14  1  0  0  0  0
 21 20  1  0  0  0  0
 22 23  1  0  0  0  0
 23 24  2  0  0  0  0
 24 25  1  0  0  0  0
 25 26  1  0  0  0  0
 27 28  1  0  0  0  0
 28 29  1  0  0  0  0
 29 30  1  0  0  0  0
 31 30  1  6  0  0  0
 31 34  1  0  0  0  0
 31 35  1  0  0  0  0
 33 34  2  0  0  0  0
 34 32  1  0  0  0  0
 36 35  1  0  0  0  0
M  END
>  <MODEL>
9

>  <REMARK>
 VINA RESULT:      -6.4      3.366      6.316
  Name = 
  12 active torsions:
  status: ('A' for Active; 'I' for Inactive)
    1  A    between atoms: C_3  and  C_35
    2  A    between atoms: N_4  and  C_22
    3  A    between atoms: N_4  and  C_34
    4  A    between atoms: C_5  and  C_31
    5  A    between atoms: N_10  and  N_13
    6  A    between atoms: N_13  and  C_16
    7  A    between atoms: C_17  and  C_22
    8  A    between atoms: C_19  and  N_27
    9  A    between atoms: C_21  and  N_33
   10  A    between atoms: C_25  and  C_35
   11  A    between atoms: C_32  and  C_34
   12  A    between atoms: C_32  and  C_35
                            x       y       z     vdW  Elec       q    Type
                         _______ _______ _______ _____ _____    ______ ____

>  <TORSDO>
F 12

$$$$
