=
 OpenBabel11042412373D

 41 43  0  0  1  0  0  0  0  0999 V2000
  189.7050  177.4410  137.8100 C   0  0  0  0  0  0  0  0  0  0  0  0
  190.2380  176.7640  136.8330 N   0  0  0  0  0  0  0  0  0  0  0  0
  190.1950  174.4150  136.9820 O   0  0  0  0  0  0  0  0  0  0  0  0
  190.8740  175.4750  136.8920 C   0  0  0  0  0  0  0  0  0  0  0  0
  194.4700  176.1660  136.0440 C   0  0  0  0  0  3  0  0  0  0  0  0
  192.9960  174.5030  137.6340 N   0  0  0  0  0  0  0  0  0  0  0  0
  194.3530  174.4270  137.6370 C   0  0  0  0  0  0  0  0  0  0  0  0
  193.0800  176.2640  136.0320 C   0  0  0  0  0  3  0  0  0  0  0  0
  195.0350  173.4280  138.4980 C   0  0  0  0  0  1  0  0  0  0  0  0
  192.3430  175.4040  136.8510 C   0  0  0  0  0  0  0  0  0  0  0  0
  195.0820  175.2530  136.8430 N   0  0  0  0  0  0  0  0  0  0  0  0
  189.0580  178.7530  137.4970 C   0  0  0  0  0  2  0  0  0  0  0  0
  186.7160  178.0940  137.4120 C   0  0  0  0  0  0  0  0  0  0  0  0
  185.6890  177.6630  138.0850 C   0  0  0  0  0  3  0  0  0  0  0  0
  187.7600  178.5590  136.7790 C   0  0  0  0  0  3  0  0  0  0  0  0
  184.5290  178.5640  138.3280 C   0  0  0  0  0  2  0  0  0  0  0  0
  185.9550  178.4100  144.4650 C   0  0  0  0  0  2  0  0  0  0  0  0
  185.1800  178.4370  140.6510 N   0  0  0  0  0  0  0  0  0  0  0  0
  187.2800  178.1590  142.5040 O   0  0  0  0  0  0  0  0  0  0  0  0
  184.2420  178.6950  146.2910 N   0  0  0  0  0  1  0  0  0  0  0  0
  186.1300  178.3500  142.9760 C   0  0  0  0  0  0  0  0  0  0  0  0
  182.8410  179.0230  140.2180 C   0  0  0  0  0  2  0  0  0  0  0  0
  184.9780  178.5130  142.0680 C   0  0  0  0  0  0  0  0  0  0  0  0
  184.5300  178.6310  144.9000 C   0  0  0  0  0  0  0  0  0  0  0  0
  183.5310  178.7670  144.0230 C   0  0  0  0  0  3  0  0  0  0  0  0
  182.6380  178.8500  141.6550 N   0  0  0  0  0  0  0  0  0  0  0  0
  183.7460  178.7120  142.5620 C   0  0  0  0  0  0  0  0  0  0  0  0
  184.2280  178.6310  139.7860 C   0  0  0  0  0  0  0  0  0  0  0  0
  181.2740  178.9510  142.1510 C   0  0  0  0  0  1  0  0  0  0  0  0
  189.6470  176.9280  139.2130 C   0  0  0  0  0  2  0  0  0  0  0  0
  190.6640  177.5810  140.0180 N   0  0  0  0  0  2  0  0  0  0  0  0
  190.4270  177.1860  141.3930 C   0  0  0  0  0  2  0  0  0  0  0  0
  191.7190  177.2920  142.1790 C   0  0  0  0  0  2  0  0  0  0  0  0
  190.6010  178.9480  143.4790 O   0  0  0  0  0  1  0  0  0  0  0  0
  191.4400  177.8350  143.5680 C   0  0  1  0  0  3  0  0  0  0  0  0
  190.7750  176.7570  144.4010 C   0  0  0  0  0  2  0  0  0  0  0  0
  189.5580  177.3250  145.1080 C   0  0  0  0  0  2  0  0  0  0  0  0
  189.8230  177.4590  146.6020 C   0  0  2  0  0  3  0  0  0  0  0  0
  190.8420  176.5810  146.9700 O   0  0  0  0  0  1  0  0  0  0  0  0
  188.5620  177.1170  147.3820 C   0  0  0  0  0  2  0  0  0  0  0  0
  188.4120  178.0390  148.5800 C   0  0  0  0  0  1  0  0  0  0  0  0
  1 30  1  0  0  0  0
  2  4  1  0  0  0  0
  2  1  2  0  0  0  0
  4  3  2  0  0  0  0
  5 11  2  0  0  0  0
  6  7  2  0  0  0  0
  7  9  1  0  0  0  0
  8  5  1  0  0  0  0
  8 10  2  0  0  0  0
 10  4  1  0  0  0  0
 10  6  1  0  0  0  0
 11  7  1  0  0  0  0
 12  1  1  0  0  0  0
 13 14  2  0  0  0  0
 14 16  1  0  0  0  0
 15 13  2  0  0  0  0
 15 12  1  0  0  0  0
 16 28  1  0  0  0  0
 17 24  1  0  0  0  0
 18 23  1  0  0  0  0
 19 21  2  0  0  0  0
 21 17  1  0  0  0  0
 22 26  1  0  0  0  0
 23 27  2  0  0  0  0
 23 21  1  0  0  0  0
 24 20  1  0  0  0  0
 25 24  2  0  0  0  0
 26 29  1  0  0  0  0
 26 27  1  0  0  0  0
 27 25  1  0  0  0  0
 28 22  1  0  0  0  0
 28 18  2  0  0  0  0
 30 31  1  0  0  0  0
 31 32  1  0  0  0  0
 32 33  1  0  0  0  0
 33 35  1  0  0  0  0
 35 34  1  6  0  0  0
 35 36  1  0  0  0  0
 36 37  1  0  0  0  0
 37 38  1  0  0  0  0
 38 39  1  1  0  0  0
 38 40  1  0  0  0  0
 40 41  1  0  0  0  0
M  END
>  <MODEL>
1

>  <REMARK>
 VINA RESULT:      -8.0      0.000      0.000
  Name = 
  15 active torsions:
  status: ('A' for Active; 'I' for Inactive)
    1  A    between atoms: C_8  and  C_23
    2  A    between atoms: C_8  and  C_31
    3  A    between atoms: C_9  and  C_41
    4  A    between atoms: C_11  and  C_16
    5  A    between atoms: C_11  and  N_19
    6  A    between atoms: C_14  and  C_25
    7  A    between atoms: C_14  and  C_34
    8  A    between atoms: C_16  and  C_38
    9  A    between atoms: N_19  and  C_36
   10  A    between atoms: C_23  and  C_36
   11  A    between atoms: C_27  and  C_30
   12  A    between atoms: C_28  and  C_34
   13  A    between atoms: C_28  and  C_38
   14  A    between atoms: C_30  and  N_32
   15  A    between atoms: C_39  and  C_41
                            x       y       z     vdW  Elec       q    Type
                         _______ _______ _______ _____ _____    ______ ____

>  <TORSDO>
F 15

$$$$
=
 OpenBabel11042412373D

 41 43  0  0  1  0  0  0  0  0999 V2000
  185.0170  178.4830  139.3740 C   0  0  0  0  0  0  0  0  0  0  0  0
  186.3110  178.6100  139.3040 N   0  0  0  0  0  0  0  0  0  0  0  0
  186.9480  178.8190  137.0480 O   0  0  0  0  0  0  0  0  0  0  0  0
  187.1710  178.3240  138.1870 C   0  0  0  0  0  0  0  0  0  0  0  0
  189.6700  175.5490  137.7620 C   0  0  0  0  0  3  0  0  0  0  0  0
  189.1960  177.6800  139.4050 N   0  0  0  0  0  0  0  0  0  0  0  0
  190.2840  176.8910  139.6050 C   0  0  0  0  0  0  0  0  0  0  0  0
  188.5510  176.3500  137.5370 C   0  0  0  0  0  3  0  0  0  0  0  0
  191.2110  177.1820  140.7270 C   0  0  0  0  0  1  0  0  0  0  0  0
  188.3250  177.4340  138.3880 C   0  0  0  0  0  0  0  0  0  0  0  0
  190.5150  175.8320  138.7880 N   0  0  0  0  0  0  0  0  0  0  0  0
  184.3280  178.8870  140.6390 C   0  0  0  0  0  2  0  0  0  0  0  0
  184.8840  179.3150  142.9700 C   0  0  0  0  0  0  0  0  0  0  0  0
  184.4350  179.6510  144.1440 C   0  0  0  0  0  3  0  0  0  0  0  0
  185.2890  178.9480  141.7840 C   0  0  0  0  0  3  0  0  0  0  0  0
  184.3960  178.6450  145.2400 C   0  0  0  0  0  2  0  0  0  0  0  0
  190.3680  176.7850  144.4650 C   0  0  0  0  0  2  0  0  0  0  0  0
  186.6490  177.8710  144.8370 N   0  0  0  0  0  0  0  0  0  0  0  0
  188.5550  177.0310  142.9430 O   0  0  0  0  0  0  0  0  0  0  0  0
  192.0230  176.6230  146.3580 N   0  0  0  0  0  1  0  0  0  0  0  0
  188.9440  177.1260  144.1360 C   0  0  0  0  0  0  0  0  0  0  0  0
  186.1630  178.6310  147.1140 C   0  0  0  0  0  2  0  0  0  0  0  0
  188.0060  177.5680  145.1850 C   0  0  0  0  0  0  0  0  0  0  0  0
  190.7030  176.9280  145.9260 C   0  0  0  0  0  0  0  0  0  0  0  0
  189.8020  177.3310  146.8270 C   0  0  0  0  0  3  0  0  0  0  0  0
  187.4700  178.0820  147.4680 N   0  0  0  0  0  0  0  0  0  0  0  0
  188.4110  177.6660  146.4610 C   0  0  0  0  0  0  0  0  0  0  0  0
  185.7800  178.3240  145.6910 C   0  0  0  0  0  0  0  0  0  0  0  0
  187.8370  178.0910  148.8750 C   0  0  0  0  0  1  0  0  0  0  0  0
  184.1860  178.0230  138.2190 C   0  0  0  0  0  2  0  0  0  0  0  0
  183.7090  176.6720  138.4630 N   0  0  0  0  0  2  0  0  0  0  0  0
  182.4420  176.5450  137.7710 C   0  0  0  0  0  2  0  0  0  0  0  0
  181.3150  176.5050  138.7850 C   0  0  0  0  0  2  0  0  0  0  0  0
  179.7750  178.1930  138.1040 O   0  0  0  0  0  1  0  0  0  0  0  0
  180.7830  177.9060  139.0260 C   0  0  1  0  0  3  0  0  0  0  0  0
  180.2290  177.9930  140.4350 C   0  0  0  0  0  2  0  0  0  0  0  0
  180.5390  179.3550  141.0290 C   0  0  0  0  0  2  0  0  0  0  0  0
  179.5540  179.6880  142.1420 C   0  0  2  0  0  3  0  0  0  0  0  0
  179.9330  180.8850  142.7500 O   0  0  0  0  0  1  0  0  0  0  0  0
  179.5540  178.5770  143.1820 C   0  0  0  0  0  2  0  0  0  0  0  0
  180.8550  178.5840  143.9670 C   0  0  0  0  0  1  0  0  0  0  0  0
  1 12  1  0  0  0  0
  2  1  2  0  0  0  0
  3  4  2  0  0  0  0
  4 10  1  0  0  0  0
  4  2  1  0  0  0  0
  5 11  2  0  0  0  0
  6  7  2  0  0  0  0
  7  9  1  0  0  0  0
  8  5  1  0  0  0  0
  8 10  2  0  0  0  0
 10  6  1  0  0  0  0
 11  7  1  0  0  0  0
 12 15  1  0  0  0  0
 13 14  2  0  0  0  0
 14 16  1  0  0  0  0
 15 13  2  0  0  0  0
 16 28  1  0  0  0  0
 17 24  1  0  0  0  0
 18 23  1  0  0  0  0
 18 28  2  0  0  0  0
 19 21  2  0  0  0  0
 21 17  1  0  0  0  0
 21 23  1  0  0  0  0
 22 26  1  0  0  0  0
 23 27  2  0  0  0  0
 24 20  1  0  0  0  0
 24 25  2  0  0  0  0
 26 29  1  0  0  0  0
 27 25  1  0  0  0  0
 27 26  1  0  0  0  0
 28 22  1  0  0  0  0
 30 31  1  0  0  0  0
 30  1  1  0  0  0  0
 32 31  1  0  0  0  0
 32 33  1  0  0  0  0
 33 35  1  0  0  0  0
 35 34  1  6  0  0  0
 35 36  1  0  0  0  0
 36 37  1  0  0  0  0
 37 38  1  0  0  0  0
 38 39  1  1  0  0  0
 38 40  1  0  0  0  0
 40 41  1  0  0  0  0
M  END
>  <MODEL>
2

>  <REMARK>
 VINA RESULT:      -7.9      2.836      7.406
  Name = 
  15 active torsions:
  status: ('A' for Active; 'I' for Inactive)
    1  A    between atoms: C_8  and  C_23
    2  A    between atoms: C_8  and  C_31
    3  A    between atoms: C_9  and  C_41
    4  A    between atoms: C_11  and  C_16
    5  A    between atoms: C_11  and  N_19
    6  A    between atoms: C_14  and  C_25
    7  A    between atoms: C_14  and  C_34
    8  A    between atoms: C_16  and  C_38
    9  A    between atoms: N_19  and  C_36
   10  A    between atoms: C_23  and  C_36
   11  A    between atoms: C_27  and  C_30
   12  A    between atoms: C_28  and  C_34
   13  A    between atoms: C_28  and  C_38
   14  A    between atoms: C_30  and  N_32
   15  A    between atoms: C_39  and  C_41
                            x       y       z     vdW  Elec       q    Type
                         _______ _______ _______ _____ _____    ______ ____

>  <TORSDO>
F 15

$$$$
=
 OpenBabel11042412373D

 41 43  0  0  1  0  0  0  0  0999 V2000
  189.3170  177.3620  138.8960 C   0  0  0  0  0  0  0  0  0  0  0  0
  189.8420  176.2650  138.4290 N   0  0  0  0  0  0  0  0  0  0  0  0
  190.2520  175.9710  136.1300 O   0  0  0  0  0  0  0  0  0  0  0  0
  189.6000  175.6380  137.1580 C   0  0  0  0  0  0  0  0  0  0  0  0
  187.9020  172.3010  136.8190 C   0  0  0  0  0  3  0  0  0  0  0  0
  187.2550  174.9310  137.1810 N   0  0  0  0  0  0  0  0  0  0  0  0
  186.2780  173.9880  137.1240 C   0  0  0  0  0  0  0  0  0  0  0  0
  188.9190  173.2530  136.8810 C   0  0  0  0  0  3  0  0  0  0  0  0
  184.8540  174.3910  137.2460 C   0  0  0  0  0  1  0  0  0  0  0  0
  188.5680  174.5930  137.0660 C   0  0  0  0  0  0  0  0  0  0  0  0
  186.6030  172.6830  136.9410 N   0  0  0  0  0  0  0  0  0  0  0  0
  189.7590  177.8470  140.2400 C   0  0  0  0  0  2  0  0  0  0  0  0
  191.2660  177.1700  142.0270 C   0  0  0  0  0  0  0  0  0  0  0  0
  191.7340  177.4470  143.2100 C   0  0  0  0  0  3  0  0  0  0  0  0
  190.7460  176.9090  140.8580 C   0  0  0  0  0  3  0  0  0  0  0  0
  191.3670  176.5940  144.3730 C   0  0  0  0  0  2  0  0  0  0  0  0
  185.3190  178.3350  144.0510 C   0  0  0  0  0  2  0  0  0  0  0  0
  189.0700  177.2970  144.1280 N   0  0  0  0  0  0  0  0  0  0  0  0
  186.9070  177.7380  142.3810 O   0  0  0  0  0  0  0  0  0  0  0  0
  183.9410  178.9280  146.0750 N   0  0  0  0  0  1  0  0  0  0  0  0
  186.6880  177.9090  143.6080 C   0  0  0  0  0  0  0  0  0  0  0  0
  189.8780  177.0390  146.4260 C   0  0  0  0  0  2  0  0  0  0  0  0
  187.7690  177.6900  144.5880 C   0  0  0  0  0  0  0  0  0  0  0  0
  185.1920  178.5160  145.5400 C   0  0  0  0  0  0  0  0  0  0  0  0
  186.2150  178.3040  146.3730 C   0  0  0  0  0  3  0  0  0  0  0  0
  188.6250  177.6720  146.8310 N   0  0  0  0  0  0  0  0  0  0  0  0
  187.5470  177.8760  145.8980 C   0  0  0  0  0  0  0  0  0  0  0  0
  190.0550  177.0250  144.9320 C   0  0  0  0  0  0  0  0  0  0  0  0
  188.4570  177.9730  148.2440 C   0  0  0  0  0  1  0  0  0  0  0  0
  188.3500  178.1930  138.1140 C   0  0  0  0  0  2  0  0  0  0  0  0
  187.1600  178.4400  138.9090 N   0  0  0  0  0  2  0  0  0  0  0  0
  186.0240  178.2900  138.0200 C   0  0  0  0  0  2  0  0  0  0  0  0
  184.7780  178.0080  138.8360 C   0  0  0  0  0  2  0  0  0  0  0  0
  184.1450  180.2760  139.2110 O   0  0  0  0  0  1  0  0  0  0  0  0
  184.5640  179.1110  139.8560 C   0  0  1  0  0  3  0  0  0  0  0  0
  183.5110  178.6710  140.8540 C   0  0  0  0  0  2  0  0  0  0  0  0
  182.1860  178.4520  140.1460 C   0  0  0  0  0  2  0  0  0  0  0  0
  181.0400  179.0260  140.9680 C   0  0  2  0  0  3  0  0  0  0  0  0
  181.4160  179.0770  142.3100 O   0  0  0  0  0  1  0  0  0  0  0  0
  179.8100  178.1410  140.8270 C   0  0  0  0  0  2  0  0  0  0  0  0
  180.2100  176.7380  140.4050 C   0  0  0  0  0  1  0  0  0  0  0  0
  1 12  1  0  0  0  0
  2  1  2  0  0  0  0
  3  4  2  0  0  0  0
  4  2  1  0  0  0  0
  5  8  1  0  0  0  0
  5 11  2  0  0  0  0
  7  6  2  0  0  0  0
  7  9  1  0  0  0  0
  8 10  2  0  0  0  0
 10  4  1  0  0  0  0
 10  6  1  0  0  0  0
 11  7  1  0  0  0  0
 12 15  1  0  0  0  0
 13 14  2  0  0  0  0
 14 16  1  0  0  0  0
 15 13  2  0  0  0  0
 16 28  1  0  0  0  0
 17 24  1  0  0  0  0
 18 23  1  0  0  0  0
 18 28  2  0  0  0  0
 19 21  2  0  0  0  0
 21 17  1  0  0  0  0
 21 23  1  0  0  0  0
 22 26  1  0  0  0  0
 23 27  2  0  0  0  0
 24 20  1  0  0  0  0
 24 25  2  0  0  0  0
 26 29  1  0  0  0  0
 27 25  1  0  0  0  0
 27 26  1  0  0  0  0
 28 22  1  0  0  0  0
 30  1  1  0  0  0  0
 30 31  1  0  0  0  0
 32 33  1  0  0  0  0
 32 31  1  0  0  0  0
 33 35  1  0  0  0  0
 35 34  1  6  0  0  0
 35 36  1  0  0  0  0
 37 36  1  0  0  0  0
 37 38  1  0  0  0  0
 38 39  1  1  0  0  0
 40 38  1  0  0  0  0
 41 40  1  0  0  0  0
M  END
>  <MODEL>
3

>  <REMARK>
 VINA RESULT:      -7.8      2.581      6.783
  Name = 
  15 active torsions:
  status: ('A' for Active; 'I' for Inactive)
    1  A    between atoms: C_8  and  C_23
    2  A    between atoms: C_8  and  C_31
    3  A    between atoms: C_9  and  C_41
    4  A    between atoms: C_11  and  C_16
    5  A    between atoms: C_11  and  N_19
    6  A    between atoms: C_14  and  C_25
    7  A    between atoms: C_14  and  C_34
    8  A    between atoms: C_16  and  C_38
    9  A    between atoms: N_19  and  C_36
   10  A    between atoms: C_23  and  C_36
   11  A    between atoms: C_27  and  C_30
   12  A    between atoms: C_28  and  C_34
   13  A    between atoms: C_28  and  C_38
   14  A    between atoms: C_30  and  N_32
   15  A    between atoms: C_39  and  C_41
                            x       y       z     vdW  Elec       q    Type
                         _______ _______ _______ _____ _____    ______ ____

>  <TORSDO>
F 15

$$$$
=
 OpenBabel11042412373D

 41 43  0  0  1  0  0  0  0  0999 V2000
  188.8260  177.7350  140.9420 C   0  0  0  0  0  0  0  0  0  0  0  0
  189.2590  177.0160  141.9380 N   0  0  0  0  0  0  0  0  0  0  0  0
  187.4000  176.5890  143.3180 O   0  0  0  0  0  0  0  0  0  0  0  0
  188.6390  176.8100  143.2190 C   0  0  0  0  0  0  0  0  0  0  0  0
  191.5930  176.7040  145.5410 C   0  0  0  0  0  3  0  0  0  0  0  0
  188.9040  177.1790  145.6260 N   0  0  0  0  0  0  0  0  0  0  0  0
  189.6490  177.2610  146.7590 C   0  0  0  0  0  0  0  0  0  0  0  0
  190.8470  176.6210  144.3660 C   0  0  0  0  0  3  0  0  0  0  0  0
  188.9960  177.5980  148.0500 C   0  0  0  0  0  1  0  0  0  0  0  0
  189.4730  176.8660  144.4300 C   0  0  0  0  0  0  0  0  0  0  0  0
  190.9840  177.0210  146.7140 N   0  0  0  0  0  0  0  0  0  0  0  0
  189.6300  177.7640  139.6810 C   0  0  0  0  0  2  0  0  0  0  0  0
  191.3000  176.2800  138.7150 C   0  0  0  0  0  0  0  0  0  0  0  0
  191.7670  175.7410  137.6260 C   0  0  0  0  0  3  0  0  0  0  0  0
  190.8250  176.8690  139.7790 C   0  0  0  0  0  3  0  0  0  0  0  0
  193.0930  176.1620  137.0980 C   0  0  0  0  0  2  0  0  0  0  0  0
  198.7040  173.3090  137.4090 C   0  0  0  0  0  2  0  0  0  0  0  0
  195.2980  175.1810  137.1890 N   0  0  0  0  0  0  0  0  0  0  0  0
  198.0470  175.5850  137.6420 O   0  0  0  0  0  0  0  0  0  0  0  0
  199.0160  170.8310  137.0750 N   0  0  0  0  0  1  0  0  0  0  0  0
  197.6770  174.4020  137.4220 C   0  0  0  0  0  0  0  0  0  0  0  0
  193.4320  173.6140  136.9360 C   0  0  0  0  0  2  0  0  0  0  0  0
  196.2500  174.1090  137.1840 C   0  0  0  0  0  0  0  0  0  0  0  0
  198.1330  171.9450  137.1230 C   0  0  0  0  0  0  0  0  0  0  0  0
  196.8290  171.7480  136.9110 C   0  0  0  0  0  3  0  0  0  0  0  0
  194.4520  172.5960  136.6950 N   0  0  0  0  0  0  0  0  0  0  0  0
  195.8470  172.8520  136.9420 C   0  0  0  0  0  0  0  0  0  0  0  0
  194.0190  174.9950  137.0490 C   0  0  0  0  0  0  0  0  0  0  0  0
  193.9920  171.2690  136.3160 C   0  0  0  0  0  1  0  0  0  0  0  0
  187.5240  178.4710  140.9820 C   0  0  0  0  0  2  0  0  0  0  0  0
  187.0290  178.6670  139.6310 N   0  0  0  0  0  2  0  0  0  0  0  0
  185.5950  178.4630  139.6780 C   0  0  0  0  0  2  0  0  0  0  0  0
  185.0260  179.1590  140.9000 C   0  0  0  0  0  2  0  0  0  0  0  0
  183.4590  177.3780  140.6630 O   0  0  0  0  0  1  0  0  0  0  0  0
  183.6140  178.6720  141.1650 C   0  0  1  0  0  3  0  0  0  0  0  0
  183.3570  178.6760  142.6590 C   0  0  0  0  0  2  0  0  0  0  0  0
  184.6510  178.9430  143.4060 C   0  0  0  0  0  2  0  0  0  0  0  0
  184.5210  178.5280  144.8650 C   0  0  2  0  0  3  0  0  0  0  0  0
  183.4390  179.1940  145.4400 O   0  0  0  0  0  1  0  0  0  0  0  0
  185.7910  178.8900  145.6210 C   0  0  0  0  0  2  0  0  0  0  0  0
  185.6280  178.6010  147.1030 C   0  0  0  0  0  1  0  0  0  0  0  0
  1 30  1  0  0  0  0
  1  2  2  0  0  0  0
  2  4  1  0  0  0  0
  4  3  2  0  0  0  0
  4 10  1  0  0  0  0
  5 11  2  0  0  0  0
  6  7  2  0  0  0  0
  7  9  1  0  0  0  0
  8 10  2  0  0  0  0
  8  5  1  0  0  0  0
 10  6  1  0  0  0  0
 11  7  1  0  0  0  0
 12 15  1  0  0  0  0
 12  1  1  0  0  0  0
 13 15  2  0  0  0  0
 14 13  2  0  0  0  0
 16 14  1  0  0  0  0
 17 21  1  0  0  0  0
 20 24  1  0  0  0  0
 21 19  2  0  0  0  0
 22 28  1  0  0  0  0
 23 18  1  0  0  0  0
 23 21  1  0  0  0  0
 24 17  1  0  0  0  0
 25 27  1  0  0  0  0
 25 24  2  0  0  0  0
 26 22  1  0  0  0  0
 26 27  1  0  0  0  0
 27 23  2  0  0  0  0
 28 16  1  0  0  0  0
 28 18  2  0  0  0  0
 29 26  1  0  0  0  0
 31 32  1  0  0  0  0
 31 30  1  0  0  0  0
 32 33  1  0  0  0  0
 33 35  1  0  0  0  0
 35 34  1  1  0  0  0
 35 36  1  0  0  0  0
 36 37  1  0  0  0  0
 37 38  1  0  0  0  0
 38 39  1  1  0  0  0
 38 40  1  0  0  0  0
 40 41  1  0  0  0  0
M  END
>  <MODEL>
4

>  <REMARK>
 VINA RESULT:      -7.7      2.873     10.110
  Name = 
  15 active torsions:
  status: ('A' for Active; 'I' for Inactive)
    1  A    between atoms: C_8  and  C_23
    2  A    between atoms: C_8  and  C_31
    3  A    between atoms: C_9  and  C_41
    4  A    between atoms: C_11  and  C_16
    5  A    between atoms: C_11  and  N_19
    6  A    between atoms: C_14  and  C_25
    7  A    between atoms: C_14  and  C_34
    8  A    between atoms: C_16  and  C_38
    9  A    between atoms: N_19  and  C_36
   10  A    between atoms: C_23  and  C_36
   11  A    between atoms: C_27  and  C_30
   12  A    between atoms: C_28  and  C_34
   13  A    between atoms: C_28  and  C_38
   14  A    between atoms: C_30  and  N_32
   15  A    between atoms: C_39  and  C_41
                            x       y       z     vdW  Elec       q    Type
                         _______ _______ _______ _____ _____    ______ ____

>  <TORSDO>
F 15

$$$$
=
 OpenBabel11042412373D

 41 43  0  0  1  0  0  0  0  0999 V2000
  183.6310  178.2200  139.9720 C   0  0  0  0  0  0  0  0  0  0  0  0
  182.5000  178.1770  139.3280 N   0  0  0  0  0  0  0  0  0  0  0  0
  180.4960  178.6540  140.4680 O   0  0  0  0  0  0  0  0  0  0  0  0
  181.2030  177.8200  139.8370 C   0  0  0  0  0  0  0  0  0  0  0  0
  180.2360  174.5840  138.1870 C   0  0  0  0  0  3  0  0  0  0  0  0
  180.2530  175.7230  140.6710 N   0  0  0  0  0  0  0  0  0  0  0  0
  179.8060  174.4500  140.5050 C   0  0  0  0  0  0  0  0  0  0  0  0
  180.7040  175.8890  138.3380 C   0  0  0  0  0  3  0  0  0  0  0  0
  179.3140  173.6810  141.6760 C   0  0  0  0  0  1  0  0  0  0  0  0
  180.7040  176.4540  139.6160 C   0  0  0  0  0  0  0  0  0  0  0  0
  179.7970  173.8890  139.2690 N   0  0  0  0  0  0  0  0  0  0  0  0
  184.8540  178.6660  139.2360 C   0  0  0  0  0  2  0  0  0  0  0  0
  186.1030  178.0640  137.2350 C   0  0  0  0  0  0  0  0  0  0  0  0
  187.1970  178.2380  136.5510 C   0  0  0  0  0  3  0  0  0  0  0  0
  185.0370  177.8920  137.9690 C   0  0  0  0  0  3  0  0  0  0  0  0
  188.1950  177.1380  136.4540 C   0  0  0  0  0  2  0  0  0  0  0  0
  189.6000  178.0390  142.5310 C   0  0  0  0  0  2  0  0  0  0  0  0
  188.6340  177.5640  138.7910 N   0  0  0  0  0  0  0  0  0  0  0  0
  187.5860  178.3180  141.2920 O   0  0  0  0  0  0  0  0  0  0  0  0
  191.8970  177.6540  143.4920 N   0  0  0  0  0  1  0  0  0  0  0  0
  188.8020  177.9950  141.2610 C   0  0  0  0  0  0  0  0  0  0  0  0
  190.4800  176.5910  137.5070 C   0  0  0  0  0  2  0  0  0  0  0  0
  189.4220  177.5800  139.9880 C   0  0  0  0  0  0  0  0  0  0  0  0
  191.0410  177.6410  142.3560 C   0  0  0  0  0  0  0  0  0  0  0  0
  191.5410  177.2780  141.1710 C   0  0  0  0  0  3  0  0  0  0  0  0
  191.3040  176.8550  138.6860 N   0  0  0  0  0  0  0  0  0  0  0  0
  190.7200  177.2390  139.9440 C   0  0  0  0  0  0  0  0  0  0  0  0
  189.0900  177.1520  137.6450 C   0  0  0  0  0  0  0  0  0  0  0  0
  192.7290  176.5900  138.5740 C   0  0  0  0  0  1  0  0  0  0  0  0
  183.7430  177.9150  141.4320 C   0  0  0  0  0  2  0  0  0  0  0  0
  183.5410  179.1290  142.2050 N   0  0  0  0  0  2  0  0  0  0  0  0
  184.7850  179.3930  142.9010 C   0  0  0  0  0  2  0  0  0  0  0  0
  185.0400  178.2930  143.9130 C   0  0  0  0  0  2  0  0  0  0  0  0
  183.8580  178.9810  145.8660 O   0  0  0  0  0  1  0  0  0  0  0  0
  185.1340  178.8820  145.3080 C   0  0  1  0  0  3  0  0  0  0  0  0
  186.0030  177.9870  146.1710 C   0  0  0  0  0  2  0  0  0  0  0  0
  187.2340  177.5570  145.3940 C   0  0  0  0  0  2  0  0  0  0  0  0
  188.4790  177.6690  146.2640 C   0  0  2  0  0  3  0  0  0  0  0  0
  189.4790  176.8470  145.7460 O   0  0  0  0  0  1  0  0  0  0  0  0
  188.1580  177.2310  147.6850 C   0  0  0  0  0  2  0  0  0  0  0  0
  188.7350  178.2160  148.6880 C   0  0  0  0  0  1  0  0  0  0  0  0
  1 30  1  0  0  0  0
  2  4  1  0  0  0  0
  2  1  2  0  0  0  0
  4  3  2  0  0  0  0
  5  8  1  0  0  0  0
  5 11  2  0  0  0  0
  7  6  2  0  0  0  0
  7  9  1  0  0  0  0
  8 10  2  0  0  0  0
 10  4  1  0  0  0  0
 10  6  1  0  0  0  0
 11  7  1  0  0  0  0
 12  1  1  0  0  0  0
 13 15  2  0  0  0  0
 14 13  2  0  0  0  0
 15 12  1  0  0  0  0
 16 14  1  0  0  0  0
 16 28  1  0  0  0  0
 18 23  1  0  0  0  0
 21 19  2  0  0  0  0
 21 17  1  0  0  0  0
 22 28  1  0  0  0  0
 22 26  1  0  0  0  0
 23 21  1  0  0  0  0
 24 17  1  0  0  0  0
 24 20  1  0  0  0  0
 25 24  2  0  0  0  0
 26 27  1  0  0  0  0
 27 23  2  0  0  0  0
 27 25  1  0  0  0  0
 28 18  2  0  0  0  0
 29 26  1  0  0  0  0
 30 31  1  0  0  0  0
 31 32  1  0  0  0  0
 32 33  1  0  0  0  0
 33 35  1  0  0  0  0
 35 34  1  1  0  0  0
 35 36  1  0  0  0  0
 37 36  1  0  0  0  0
 37 38  1  0  0  0  0
 38 39  1  6  0  0  0
 38 40  1  0  0  0  0
 40 41  1  0  0  0  0
M  END
>  <MODEL>
5

>  <REMARK>
 VINA RESULT:      -7.6      2.792      8.234
  Name = 
  15 active torsions:
  status: ('A' for Active; 'I' for Inactive)
    1  A    between atoms: C_8  and  C_23
    2  A    between atoms: C_8  and  C_31
    3  A    between atoms: C_9  and  C_41
    4  A    between atoms: C_11  and  C_16
    5  A    between atoms: C_11  and  N_19
    6  A    between atoms: C_14  and  C_25
    7  A    between atoms: C_14  and  C_34
    8  A    between atoms: C_16  and  C_38
    9  A    between atoms: N_19  and  C_36
   10  A    between atoms: C_23  and  C_36
   11  A    between atoms: C_27  and  C_30
   12  A    between atoms: C_28  and  C_34
   13  A    between atoms: C_28  and  C_38
   14  A    between atoms: C_30  and  N_32
   15  A    between atoms: C_39  and  C_41
                            x       y       z     vdW  Elec       q    Type
                         _______ _______ _______ _____ _____    ______ ____

>  <TORSDO>
F 15

$$$$
=
 OpenBabel11042412373D

 41 43  0  0  1  0  0  0  0  0999 V2000
  185.0870  178.4420  139.2330 C   0  0  0  0  0  0  0  0  0  0  0  0
  186.3500  178.5720  138.9420 N   0  0  0  0  0  0  0  0  0  0  0  0
  186.6830  178.1760  136.6450 O   0  0  0  0  0  0  0  0  0  0  0  0
  187.0680  178.0000  137.8350 C   0  0  0  0  0  0  0  0  0  0  0  0
  189.7870  175.4190  137.5580 C   0  0  0  0  0  3  0  0  0  0  0  0
  189.0500  177.4900  139.1810 N   0  0  0  0  0  0  0  0  0  0  0  0
  190.1770  176.7800  139.4480 C   0  0  0  0  0  0  0  0  0  0  0  0
  188.6300  176.1390  137.2640 C   0  0  0  0  0  3  0  0  0  0  0  0
  191.0040  177.1240  140.6320 C   0  0  0  0  0  1  0  0  0  0  0  0
  188.2690  177.1940  138.1060 C   0  0  0  0  0  0  0  0  0  0  0  0
  190.5390  175.7500  138.6400 N   0  0  0  0  0  0  0  0  0  0  0  0
  184.5510  179.1730  140.4230 C   0  0  0  0  0  2  0  0  0  0  0  0
  185.0950  179.3810  142.7860 C   0  0  0  0  0  0  0  0  0  0  0  0
  184.6440  179.6340  143.9810 C   0  0  0  0  0  3  0  0  0  0  0  0
  185.5000  179.0990  141.5770 C   0  0  0  0  0  3  0  0  0  0  0  0
  184.5530  178.5420  144.9870 C   0  0  0  0  0  2  0  0  0  0  0  0
  190.4950  176.4790  144.5930 C   0  0  0  0  0  2  0  0  0  0  0  0
  186.7960  177.6840  144.7330 N   0  0  0  0  0  0  0  0  0  0  0  0
  188.7520  176.6660  142.9820 O   0  0  0  0  0  0  0  0  0  0  0  0
  192.0660  176.4050  146.5600 N   0  0  0  0  0  1  0  0  0  0  0  0
  189.0960  176.8330  144.1810 C   0  0  0  0  0  0  0  0  0  0  0  0
  186.2410  178.6120  146.9310 C   0  0  0  0  0  2  0  0  0  0  0  0
  188.1290  177.3700  145.1580 C   0  0  0  0  0  0  0  0  0  0  0  0
  190.7750  176.7140  146.0540 C   0  0  0  0  0  0  0  0  0  0  0  0
  189.8500  177.2010  146.8870 C   0  0  0  0  0  3  0  0  0  0  0  0
  187.5170  178.0550  147.3760 N   0  0  0  0  0  0  0  0  0  0  0  0
  188.4850  177.5460  146.4400 C   0  0  0  0  0  0  0  0  0  0  0  0
  185.9070  178.2180  145.5170 C   0  0  0  0  0  0  0  0  0  0  0  0
  187.8270  178.1510  148.7930 C   0  0  0  0  0  1  0  0  0  0  0  0
  184.1390  177.6560  138.3850 C   0  0  0  0  0  2  0  0  0  0  0  0
  183.1840  176.9610  139.2310 N   0  0  0  0  0  2  0  0  0  0  0  0
  181.8670  177.4360  138.8520 C   0  0  0  0  0  2  0  0  0  0  0  0
  180.9360  177.3470  140.0460 C   0  0  0  0  0  2  0  0  0  0  0  0
  180.3270  179.4880  140.8970 O   0  0  0  0  0  1  0  0  0  0  0  0
  179.9340  178.4850  140.0090 C   0  0  1  0  0  3  0  0  0  0  0  0
  179.8660  179.0450  138.6010 C   0  0  0  0  0  2  0  0  0  0  0  0
  179.9090  180.5610  138.6450 C   0  0  0  0  0  2  0  0  0  0  0  0
  181.0780  181.0860  137.8230 C   0  0  2  0  0  3  0  0  0  0  0  0
  182.2460  181.0120  138.5830 O   0  0  0  0  0  1  0  0  0  0  0  0
  180.8270  182.5350  137.4330 C   0  0  0  0  0  2  0  0  0  0  0  0
  180.6900  182.6630  135.9250 C   0  0  0  0  0  1  0  0  0  0  0  0
  1 12  1  0  0  0  0
  2  1  2  0  0  0  0
  3  4  2  0  0  0  0
  4 10  1  0  0  0  0
  4  2  1  0  0  0  0
  5 11  2  0  0  0  0
  6  7  2  0  0  0  0
  7  9  1  0  0  0  0
  8  5  1  0  0  0  0
  8 10  2  0  0  0  0
 10  6  1  0  0  0  0
 11  7  1  0  0  0  0
 12 15  1  0  0  0  0
 13 14  2  0  0  0  0
 14 16  1  0  0  0  0
 15 13  2  0  0  0  0
 16 28  1  0  0  0  0
 17 24  1  0  0  0  0
 18 23  1  0  0  0  0
 18 28  2  0  0  0  0
 19 21  2  0  0  0  0
 21 17  1  0  0  0  0
 21 23  1  0  0  0  0
 22 26  1  0  0  0  0
 23 27  2  0  0  0  0
 24 20  1  0  0  0  0
 24 25  2  0  0  0  0
 26 29  1  0  0  0  0
 27 25  1  0  0  0  0
 27 26  1  0  0  0  0
 28 22  1  0  0  0  0
 30 31  1  0  0  0  0
 30  1  1  0  0  0  0
 32 31  1  0  0  0  0
 32 33  1  0  0  0  0
 35 33  1  0  0  0  0
 35 34  1  1  0  0  0
 36 37  1  0  0  0  0
 36 35  1  0  0  0  0
 38 39  1  1  0  0  0
 38 37  1  0  0  0  0
 40 38  1  0  0  0  0
 41 40  1  0  0  0  0
M  END
>  <MODEL>
6

>  <REMARK>
 VINA RESULT:      -7.5      2.996      7.932
  Name = 
  15 active torsions:
  status: ('A' for Active; 'I' for Inactive)
    1  A    between atoms: C_8  and  C_23
    2  A    between atoms: C_8  and  C_31
    3  A    between atoms: C_9  and  C_41
    4  A    between atoms: C_11  and  C_16
    5  A    between atoms: C_11  and  N_19
    6  A    between atoms: C_14  and  C_25
    7  A    between atoms: C_14  and  C_34
    8  A    between atoms: C_16  and  C_38
    9  A    between atoms: N_19  and  C_36
   10  A    between atoms: C_23  and  C_36
   11  A    between atoms: C_27  and  C_30
   12  A    between atoms: C_28  and  C_34
   13  A    between atoms: C_28  and  C_38
   14  A    between atoms: C_30  and  N_32
   15  A    between atoms: C_39  and  C_41
                            x       y       z     vdW  Elec       q    Type
                         _______ _______ _______ _____ _____    ______ ____

>  <TORSDO>
F 15

$$$$
=
 OpenBabel11042412373D

 41 43  0  0  1  0  0  0  0  0999 V2000
  189.0680  177.7260  140.3690 C   0  0  0  0  0  0  0  0  0  0  0  0
  188.0130  177.9940  141.0850 N   0  0  0  0  0  0  0  0  0  0  0  0
  188.3100  176.5020  142.8810 O   0  0  0  0  0  0  0  0  0  0  0  0
  187.6250  177.4150  142.3430 C   0  0  0  0  0  0  0  0  0  0  0  0
  184.1270  178.6590  142.9350 C   0  0  0  0  0  3  0  0  0  0  0  0
  186.3730  178.0270  144.3570 N   0  0  0  0  0  0  0  0  0  0  0  0
  185.2540  178.4520  145.0000 C   0  0  0  0  0  0  0  0  0  0  0  0
  185.2640  178.2200  142.2570 C   0  0  0  0  0  3  0  0  0  0  0  0
  185.2550  178.5840  146.4780 C   0  0  0  0  0  1  0  0  0  0  0  0
  186.4030  177.9020  143.0020 C   0  0  0  0  0  0  0  0  0  0  0  0
  184.1410  178.7680  144.2890 N   0  0  0  0  0  0  0  0  0  0  0  0
  189.2850  178.4940  139.1040 C   0  0  0  0  0  2  0  0  0  0  0  0
  188.2260  176.7910  137.7250 C   0  0  0  0  0  0  0  0  0  0  0  0
  187.1830  176.0300  137.5560 C   0  0  0  0  0  3  0  0  0  0  0  0
  189.2390  177.5950  137.9100 C   0  0  0  0  0  3  0  0  0  0  0  0
  186.2480  176.2910  136.4280 C   0  0  0  0  0  2  0  0  0  0  0  0
  182.1400  179.8150  139.6550 C   0  0  0  0  0  2  0  0  0  0  0  0
  184.7720  177.6850  137.7350 N   0  0  0  0  0  0  0  0  0  0  0  0
  184.4880  180.0000  139.3120 O   0  0  0  0  0  0  0  0  0  0  0  0
  179.6840  179.2780  139.8150 N   0  0  0  0  0  1  0  0  0  0  0  0
  183.4420  179.3400  139.0810 C   0  0  0  0  0  0  0  0  0  0  0  0
  183.7070  175.8750  136.4730 C   0  0  0  0  0  2  0  0  0  0  0  0
  183.5080  178.1180  138.2560 C   0  0  0  0  0  0  0  0  0  0  0  0
  180.9690  178.9310  139.3160 C   0  0  0  0  0  0  0  0  0  0  0  0
  181.0990  177.8340  138.5650 C   0  0  0  0  0  3  0  0  0  0  0  0
  182.4940  176.2060  137.2170 N   0  0  0  0  0  0  0  0  0  0  0  0
  182.3980  177.4040  138.0100 C   0  0  0  0  0  0  0  0  0  0  0  0
  184.9020  176.6560  136.9510 C   0  0  0  0  0  0  0  0  0  0  0  0
  181.3390  175.3440  137.0230 C   0  0  0  0  0  1  0  0  0  0  0  0
  190.1070  176.7380  140.7980 C   0  0  0  0  0  2  0  0  0  0  0  0
  191.4060  177.1380  140.2850 N   0  0  0  0  0  2  0  0  0  0  0  0
  192.1700  177.6220  141.4180 C   0  0  0  0  0  2  0  0  0  0  0  0
  191.6780  176.9490  142.6840 C   0  0  0  0  0  2  0  0  0  0  0  0
  190.5890  178.8380  143.6480 O   0  0  0  0  0  1  0  0  0  0  0  0
  191.6500  177.9480  143.8260 C   0  0  1  0  0  3  0  0  0  0  0  0
  191.4800  177.2040  145.1360 C   0  0  0  0  0  2  0  0  0  0  0  0
  190.1290  177.5290  145.7450 C   0  0  0  0  0  2  0  0  0  0  0  0
  190.1070  177.1630  147.2230 C   0  0  2  0  0  3  0  0  0  0  0  0
  190.7560  175.9420  147.4060 O   0  0  0  0  0  1  0  0  0  0  0  0
  188.6690  177.0410  147.7050 C   0  0  0  0  0  2  0  0  0  0  0  0
  188.3120  178.2060  148.6120 C   0  0  0  0  0  1  0  0  0  0  0  0
  1 30  1  0  0  0  0
  1  2  2  0  0  0  0
  2  4  1  0  0  0  0
  4  3  2  0  0  0  0
  4 10  1  0  0  0  0
  5 11  2  0  0  0  0
  6  7  2  0  0  0  0
  7  9  1  0  0  0  0
  8  5  1  0  0  0  0
  8 10  2  0  0  0  0
 10  6  1  0  0  0  0
 11  7  1  0  0  0  0
 12  1  1  0  0  0  0
 13 15  2  0  0  0  0
 14 13  2  0  0  0  0
 15 12  1  0  0  0  0
 16 28  1  0  0  0  0
 16 14  1  0  0  0  0
 18 23  1  0  0  0  0
 21 19  2  0  0  0  0
 21 17  1  0  0  0  0
 22 28  1  0  0  0  0
 22 26  1  0  0  0  0
 23 21  1  0  0  0  0
 24 17  1  0  0  0  0
 24 20  1  0  0  0  0
 25 24  2  0  0  0  0
 26 27  1  0  0  0  0
 27 23  2  0  0  0  0
 27 25  1  0  0  0  0
 28 18  2  0  0  0  0
 29 26  1  0  0  0  0
 31 30  1  0  0  0  0
 31 32  1  0  0  0  0
 32 33  1  0  0  0  0
 33 35  1  0  0  0  0
 35 34  1  6  0  0  0
 35 36  1  0  0  0  0
 36 37  1  0  0  0  0
 37 38  1  0  0  0  0
 38 39  1  6  0  0  0
 38 40  1  0  0  0  0
 40 41  1  0  0  0  0
M  END
>  <MODEL>
7

>  <REMARK>
 VINA RESULT:      -7.5      2.722      6.069
  Name = 
  15 active torsions:
  status: ('A' for Active; 'I' for Inactive)
    1  A    between atoms: C_8  and  C_23
    2  A    between atoms: C_8  and  C_31
    3  A    between atoms: C_9  and  C_41
    4  A    between atoms: C_11  and  C_16
    5  A    between atoms: C_11  and  N_19
    6  A    between atoms: C_14  and  C_25
    7  A    between atoms: C_14  and  C_34
    8  A    between atoms: C_16  and  C_38
    9  A    between atoms: N_19  and  C_36
   10  A    between atoms: C_23  and  C_36
   11  A    between atoms: C_27  and  C_30
   12  A    between atoms: C_28  and  C_34
   13  A    between atoms: C_28  and  C_38
   14  A    between atoms: C_30  and  N_32
   15  A    between atoms: C_39  and  C_41
                            x       y       z     vdW  Elec       q    Type
                         _______ _______ _______ _____ _____    ______ ____

>  <TORSDO>
F 15

$$$$
=
 OpenBabel11042412373D

 41 43  0  0  1  0  0  0  0  0999 V2000
  182.8530  179.2540  139.0700 C   0  0  0  0  0  0  0  0  0  0  0  0
  181.8860  180.1210  139.1710 N   0  0  0  0  0  0  0  0  0  0  0  0
  179.6660  179.5970  138.5890 O   0  0  0  0  0  0  0  0  0  0  0  0
  180.7180  180.2480  138.3400 C   0  0  0  0  0  0  0  0  0  0  0  0
  180.7890  181.5470  134.8140 C   0  0  0  0  0  3  0  0  0  0  0  0
  180.7970  182.4970  137.3750 N   0  0  0  0  0  0  0  0  0  0  0  0
  180.8190  183.3600  136.3260 C   0  0  0  0  0  0  0  0  0  0  0  0
  180.7610  180.6460  135.8770 C   0  0  0  0  0  3  0  0  0  0  0  0
  180.8600  184.8240  136.5740 C   0  0  0  0  0  1  0  0  0  0  0  0
  180.7660  181.1510  137.1800 C   0  0  0  0  0  0  0  0  0  0  0  0
  180.8180  182.8840  135.0550 N   0  0  0  0  0  0  0  0  0  0  0  0
  183.9510  179.2900  140.0850 C   0  0  0  0  0  2  0  0  0  0  0  0
  184.4710  178.2250  142.2110 C   0  0  0  0  0  0  0  0  0  0  0  0
  185.3950  177.9540  143.0870 C   0  0  0  0  0  3  0  0  0  0  0  0
  183.5670  178.5470  141.3250 C   0  0  0  0  0  3  0  0  0  0  0  0
  185.3780  178.6240  144.4160 C   0  0  0  0  0  2  0  0  0  0  0  0
  191.3240  176.6720  145.1540 C   0  0  0  0  0  2  0  0  0  0  0  0
  187.6510  177.8230  144.5820 N   0  0  0  0  0  0  0  0  0  0  0  0
  189.9960  177.0690  143.2190 O   0  0  0  0  0  0  0  0  0  0  0  0
  192.4000  176.3360  147.4070 N   0  0  0  0  0  1  0  0  0  0  0  0
  190.0460  177.0700  144.4770 C   0  0  0  0  0  0  0  0  0  0  0  0
  186.5670  178.4350  146.6920 C   0  0  0  0  0  2  0  0  0  0  0  0
  188.8600  177.4620  145.2620 C   0  0  0  0  0  0  0  0  0  0  0  0
  191.2500  176.7040  146.6570 C   0  0  0  0  0  0  0  0  0  0  0  0
  190.1400  177.0650  147.3080 C   0  0  0  0  0  3  0  0  0  0  0  0
  187.7260  177.8290  147.3450 N   0  0  0  0  0  0  0  0  0  0  0  0
  188.9020  177.4610  146.6040 C   0  0  0  0  0  0  0  0  0  0  0  0
  186.5850  178.2380  145.2000 C   0  0  0  0  0  0  0  0  0  0  0  0
  187.6950  177.7310  148.7960 C   0  0  0  0  0  1  0  0  0  0  0  0
  182.8710  178.1800  138.0290 C   0  0  0  0  0  2  0  0  0  0  0  0
  184.2440  177.8400  137.6980 N   0  0  0  0  0  2  0  0  0  0  0  0
  184.3170  176.3920  137.6570 C   0  0  0  0  0  2  0  0  0  0  0  0
  184.9400  175.9560  136.3450 C   0  0  0  0  0  2  0  0  0  0  0  0
  186.7540  174.5780  135.6400 O   0  0  0  0  0  1  0  0  0  0  0  0
  186.3880  175.5580  136.5650 C   0  0  1  0  0  3  0  0  0  0  0  0
  187.2720  176.7790  136.3950 C   0  0  0  0  0  2  0  0  0  0  0  0
  188.3450  176.7950  137.4680 C   0  0  0  0  0  2  0  0  0  0  0  0
  188.0960  177.9270  138.4540 C   0  0  2  0  0  3  0  0  0  0  0  0
  188.7260  179.0850  137.9960 O   0  0  0  0  0  1  0  0  0  0  0  0
  188.6600  177.5580  139.8180 C   0  0  0  0  0  2  0  0  0  0  0  0
  188.1820  178.5390  140.8750 C   0  0  0  0  0  1  0  0  0  0  0  0
  1  2  2  0  0  0  0
  1 12  1  0  0  0  0
  4  3  2  0  0  0  0
  4  2  1  0  0  0  0
  5 11  2  0  0  0  0
  5  8  1  0  0  0  0
  7  9  1  0  0  0  0
  7  6  2  0  0  0  0
  8 10  2  0  0  0  0
 10  6  1  0  0  0  0
 10  4  1  0  0  0  0
 11  7  1  0  0  0  0
 12 15  1  0  0  0  0
 13 14  2  0  0  0  0
 14 16  1  0  0  0  0
 15 13  2  0  0  0  0
 16 28  1  0  0  0  0
 17 24  1  0  0  0  0
 18 28  2  0  0  0  0
 18 23  1  0  0  0  0
 19 21  2  0  0  0  0
 21 17  1  0  0  0  0
 21 23  1  0  0  0  0
 22 26  1  0  0  0  0
 23 27  2  0  0  0  0
 24 25  2  0  0  0  0
 24 20  1  0  0  0  0
 26 29  1  0  0  0  0
 27 25  1  0  0  0  0
 27 26  1  0  0  0  0
 28 22  1  0  0  0  0
 30  1  1  0  0  0  0
 31 30  1  0  0  0  0
 32 31  1  0  0  0  0
 33 35  1  0  0  0  0
 33 32  1  0  0  0  0
 35 34  1  6  0  0  0
 36 35  1  0  0  0  0
 36 37  1  0  0  0  0
 37 38  1  0  0  0  0
 38 39  1  6  0  0  0
 38 40  1  0  0  0  0
 40 41  1  0  0  0  0
M  END
>  <MODEL>
8

>  <REMARK>
 VINA RESULT:      -7.4      3.810      9.362
  Name = 
  15 active torsions:
  status: ('A' for Active; 'I' for Inactive)
    1  A    between atoms: C_8  and  C_23
    2  A    between atoms: C_8  and  C_31
    3  A    between atoms: C_9  and  C_41
    4  A    between atoms: C_11  and  C_16
    5  A    between atoms: C_11  and  N_19
    6  A    between atoms: C_14  and  C_25
    7  A    between atoms: C_14  and  C_34
    8  A    between atoms: C_16  and  C_38
    9  A    between atoms: N_19  and  C_36
   10  A    between atoms: C_23  and  C_36
   11  A    between atoms: C_27  and  C_30
   12  A    between atoms: C_28  and  C_34
   13  A    between atoms: C_28  and  C_38
   14  A    between atoms: C_30  and  N_32
   15  A    between atoms: C_39  and  C_41
                            x       y       z     vdW  Elec       q    Type
                         _______ _______ _______ _____ _____    ______ ____

>  <TORSDO>
F 15

$$$$
=
 OpenBabel11042412373D

 41 43  0  0  1  0  0  0  0  0999 V2000
  188.3450  178.1500  139.3320 C   0  0  0  0  0  0  0  0  0  0  0  0
  187.2260  178.3020  138.6830 N   0  0  0  0  0  0  0  0  0  0  0  0
  187.1680  179.3100  136.5570 O   0  0  0  0  0  0  0  0  0  0  0  0
  187.0150  178.2740  137.2610 C   0  0  0  0  0  0  0  0  0  0  0  0
  186.8470  175.3230  134.9370 C   0  0  0  0  0  3  0  0  0  0  0  0
  185.5950  176.2800  137.1690 N   0  0  0  0  0  0  0  0  0  0  0  0
  185.2090  175.0980  136.6230 C   0  0  0  0  0  0  0  0  0  0  0  0
  187.2620  176.5360  135.4870 C   0  0  0  0  0  3  0  0  0  0  0  0
  184.0950  174.3290  137.2340 C   0  0  0  0  0  1  0  0  0  0  0  0
  186.6080  177.0090  136.6280 C   0  0  0  0  0  0  0  0  0  0  0  0
  185.8320  174.6270  135.5120 N   0  0  0  0  0  0  0  0  0  0  0  0
  188.3110  178.1760  140.8270 C   0  0  0  0  0  2  0  0  0  0  0  0
  186.3700  178.3170  142.2890 C   0  0  0  0  0  0  0  0  0  0  0  0
  185.7130  177.7690  143.2700 C   0  0  0  0  0  3  0  0  0  0  0  0
  187.0760  178.8530  141.3300 C   0  0  0  0  0  3  0  0  0  0  0  0
  185.6820  178.4300  144.6030 C   0  0  0  0  0  2  0  0  0  0  0  0
  191.5740  176.3520  145.4300 C   0  0  0  0  0  2  0  0  0  0  0  0
  187.9340  177.5800  144.8030 N   0  0  0  0  0  0  0  0  0  0  0  0
  190.2770  176.7620  143.4760 O   0  0  0  0  0  0  0  0  0  0  0  0
  192.6140  176.0120  147.6990 N   0  0  0  0  0  1  0  0  0  0  0  0
  190.3130  176.7730  144.7340 C   0  0  0  0  0  0  0  0  0  0  0  0
  186.8380  178.2340  146.8950 C   0  0  0  0  0  2  0  0  0  0  0  0
  189.1260  177.1980  145.5010 C   0  0  0  0  0  0  0  0  0  0  0  0
  191.4820  176.3990  146.9320 C   0  0  0  0  0  0  0  0  0  0  0  0
  190.3720  176.7900  147.5660 C   0  0  0  0  0  3  0  0  0  0  0  0
  187.9750  177.6080  147.5680 N   0  0  0  0  0  0  0  0  0  0  0  0
  189.1530  177.2070  146.8430 C   0  0  0  0  0  0  0  0  0  0  0  0
  186.8700  178.0240  145.4050 C   0  0  0  0  0  0  0  0  0  0  0  0
  187.9260  177.5230  149.0180 C   0  0  0  0  0  1  0  0  0  0  0  0
  189.6460  177.8750  138.6470 C   0  0  0  0  0  2  0  0  0  0  0  0
  190.0710  176.5140  138.9260 N   0  0  0  0  0  2  0  0  0  0  0  0
  190.5890  175.9760  137.6830 C   0  0  0  0  0  2  0  0  0  0  0  0
  191.9240  175.3050  137.9420 C   0  0  0  0  0  2  0  0  0  0  0  0
  193.5030  176.9960  138.5180 O   0  0  0  0  0  1  0  0  0  0  0  0
  193.0550  176.1960  137.4640 C   0  0  1  0  0  3  0  0  0  0  0  0
  194.1930  175.3310  136.9580 C   0  0  0  0  0  2  0  0  0  0  0  0
  193.9370  173.8780  137.3160 C   0  0  0  0  0  2  0  0  0  0  0  0
  195.2350  173.1920  137.7180 C   0  0  2  0  0  3  0  0  0  0  0  0
  195.4260  173.3340  139.0920 O   0  0  0  0  0  1  0  0  0  0  0  0
  196.4060  173.8280  136.9830 C   0  0  0  0  0  2  0  0  0  0  0  0
  197.5450  174.1170  137.9450 C   0  0  0  0  0  1  0  0  0  0  0  0
  1 12  1  0  0  0  0
  2  1  2  0  0  0  0
  3  4  2  0  0  0  0
  4  2  1  0  0  0  0
  5  8  1  0  0  0  0
  5 11  2  0  0  0  0
  7  6  2  0  0  0  0
  7  9  1  0  0  0  0
  8 10  2  0  0  0  0
 10  6  1  0  0  0  0
 10  4  1  0  0  0  0
 11  7  1  0  0  0  0
 12 15  1  0  0  0  0
 13 14  2  0  0  0  0
 14 16  1  0  0  0  0
 15 13  2  0  0  0  0
 16 28  1  0  0  0  0
 17 24  1  0  0  0  0
 18 28  2  0  0  0  0
 18 23  1  0  0  0  0
 19 21  2  0  0  0  0
 21 17  1  0  0  0  0
 21 23  1  0  0  0  0
 22 26  1  0  0  0  0
 23 27  2  0  0  0  0
 24 25  2  0  0  0  0
 24 20  1  0  0  0  0
 26 29  1  0  0  0  0
 27 25  1  0  0  0  0
 27 26  1  0  0  0  0
 28 22  1  0  0  0  0
 30 31  1  0  0  0  0
 30  1  1  0  0  0  0
 32 33  1  0  0  0  0
 32 31  1  0  0  0  0
 35 33  1  0  0  0  0
 35 34  1  1  0  0  0
 36 37  1  0  0  0  0
 36 35  1  0  0  0  0
 37 38  1  0  0  0  0
 38 39  1  1  0  0  0
 40 38  1  0  0  0  0
 40 41  1  0  0  0  0
M  END
>  <MODEL>
9

>  <REMARK>
 VINA RESULT:      -7.4      2.868      7.347
  Name = 
  15 active torsions:
  status: ('A' for Active; 'I' for Inactive)
    1  A    between atoms: C_8  and  C_23
    2  A    between atoms: C_8  and  C_31
    3  A    between atoms: C_9  and  C_41
    4  A    between atoms: C_11  and  C_16
    5  A    between atoms: C_11  and  N_19
    6  A    between atoms: C_14  and  C_25
    7  A    between atoms: C_14  and  C_34
    8  A    between atoms: C_16  and  C_38
    9  A    between atoms: N_19  and  C_36
   10  A    between atoms: C_23  and  C_36
   11  A    between atoms: C_27  and  C_30
   12  A    between atoms: C_28  and  C_34
   13  A    between atoms: C_28  and  C_38
   14  A    between atoms: C_30  and  N_32
   15  A    between atoms: C_39  and  C_41
                            x       y       z     vdW  Elec       q    Type
                         _______ _______ _______ _____ _____    ______ ____

>  <TORSDO>
F 15

$$$$
