=
 OpenBabel11042411453D

 25 28  0  0  1  0  0  0  0  0999 V2000
  188.8710  177.4610  144.5190 C   0  0  0  0  0  0  0  0  0  0  0  0
  189.7320  178.7190  142.6370 C   0  0  0  0  0  3  0  0  0  0  0  0
  187.9220  177.1410  142.3150 C   0  0  0  0  0  3  0  0  0  0  0  0
  189.7610  178.4060  143.9990 C   0  0  0  0  0  3  0  0  0  0  0  0
  188.8140  178.0890  141.7900 C   0  0  0  0  0  0  0  0  0  0  0  0
  187.9520  176.8290  143.6760 C   0  0  0  0  0  3  0  0  0  0  0  0
  187.4300  178.7160  139.8810 N   0  0  0  0  0  0  0  0  0  0  0  0
  188.8090  178.4320  140.3330 C   0  0  2  0  0  3  0  0  0  0  0  0
  189.5610  175.7560  137.8240 N   0  0  0  0  0  0  0  0  0  0  0  0
  187.4740  177.0470  138.1020 C   0  0  0  0  0  3  0  0  0  0  0  0
  186.8140  178.1150  138.8920 C   0  0  0  0  0  0  0  0  0  0  0  0
  189.4160  177.3370  139.5070 C   0  0  0  0  0  0  0  0  0  0  0  0
  185.4820  178.4940  138.5650 N   0  0  0  0  0  1  0  0  0  0  0  0
  190.6150  176.7760  139.4860 C   0  0  0  0  0  0  0  0  0  0  0  0
  188.7090  176.7080  138.4400 C   0  0  0  0  0  0  0  0  0  0  0  0
  190.6770  175.7980  138.4400 N   0  0  0  0  0  0  0  0  0  0  0  0
  192.6360  177.3660  141.0850 C   0  0  0  0  0  3  0  0  0  0  0  0
  191.7140  177.0980  140.3570 C   0  0  0  0  0  0  0  0  0  0  0  0
  188.3800  177.2520  147.2990 C   0  0  0  0  0  2  0  0  0  0  0  0
  189.4970  176.4700  147.0960 C   0  0  1  0  0  3  0  0  0  0  0  0
  188.9010  177.1430  145.9060 N   0  0  0  0  0  0  0  0  0  0  0  0
  190.7500  177.2180  147.5030 C   0  0  0  0  0  2  0  0  0  0  0  0
  191.7750  176.9440  146.5970 O   0  0  0  0  0  0  0  0  0  0  0  0
  192.2090  175.6630  146.9370 C   0  0  0  0  0  2  0  0  0  0  0  0
  192.8520  175.6960  148.3080 C   0  0  0  0  0  1  0  0  0  0  0  0
  1 21  1  0  0  0  0
  2  4  2  0  0  0  0
  3  6  1  0  0  0  0
  4  1  1  0  0  0  0
  5  3  2  0  0  0  0
  5  2  1  0  0  0  0
  6  1  2  0  0  0  0
  7  8  1  0  0  0  0
  8  5  1  1  0  0  0
  9 16  2  0  0  0  0
  9 15  1  0  0  0  0
 10 15  2  0  0  0  0
 10 11  1  0  0  0  0
 11  7  2  0  0  0  0
 12  8  1  0  0  0  0
 13 11  1  0  0  0  0
 14 12  2  0  0  0  0
 14 18  1  0  0  0  0
 15 12  1  0  0  0  0
 16 14  1  0  0  0  0
 18 17  3  0  0  0  0
 20 19  1  0  0  0  0
 20 22  1  1  0  0  0
 21 20  1  0  0  0  0
 21 19  1  0  0  0  0
 23 24  1  0  0  0  0
 23 22  1  0  0  0  0
 24 25  1  0  0  0  0
M  END
>  <MODEL>
1

>  <REMARK>
 VINA RESULT:      -6.9      0.000      0.000
  Name = 
  6 active torsions:
  status: ('A' for Active; 'I' for Inactive)
    1  A    between atoms: C_3  and  N_21
    2  A    between atoms: C_4  and  C_22
    3  A    between atoms: O_7  and  C_11
    4  A    between atoms: O_7  and  C_12
    5  A    between atoms: C_11  and  C_20
    6  A    between atoms: C_17  and  C_19
                            x       y       z     vdW  Elec       q    Type
                         _______ _______ _______ _____ _____    ______ ____

>  <TORSDO>
F 6

$$$$
=
 OpenBabel11042411453D

 25 28  0  0  1  0  0  0  0  0999 V2000
  189.9710  177.1560  142.2380 C   0  0  0  0  0  0  0  0  0  0  0  0
  188.2110  176.0530  143.4840 C   0  0  0  0  0  3  0  0  0  0  0  0
  189.2760  178.0350  144.3840 C   0  0  0  0  0  3  0  0  0  0  0  0
  189.0290  176.1280  142.3530 C   0  0  0  0  0  3  0  0  0  0  0  0
  188.3300  177.0040  144.5030 C   0  0  0  0  0  0  0  0  0  0  0  0
  190.0940  178.1090  143.2530 C   0  0  0  0  0  3  0  0  0  0  0  0
  186.1120  177.4510  145.4150 N   0  0  0  0  0  0  0  0  0  0  0  0
  187.4510  176.8980  145.7100 C   0  0  0  0  0  0  0  0  0  0  0  0
  188.1760  179.0410  148.6930 N   0  0  0  0  0  0  0  0  0  0  0  0
  186.1610  179.0410  147.2650 C   0  0  0  0  0  3  0  0  0  0  0  0
  185.5160  178.4030  146.0910 C   0  0  0  0  0  0  0  0  0  0  0  0
  188.0560  177.5910  146.8950 C   0  0  0  0  0  0  0  0  0  0  0  0
  184.2200  178.8370  145.6940 N   0  0  0  0  0  1  0  0  0  0  0  0
  189.1860  177.4230  147.5640 C   0  0  0  0  0  0  0  0  0  0  0  0
  187.3720  178.6240  147.6010 C   0  0  0  0  0  0  0  0  0  0  0  0
  189.2380  178.3360  148.6680 N   0  0  0  0  0  2  0  0  0  0  0  0
  191.0710  175.6550  147.0110 C   0  0  0  0  0  3  0  0  0  0  0  0
  190.2110  176.4600  147.2620 C   0  0  0  0  0  0  0  0  0  0  0  0
  191.9900  177.7480  140.3430 C   0  0  0  0  0  2  0  0  0  0  0  0
  191.1480  176.8820  139.6780 C   0  0  1  0  0  3  0  0  0  0  0  0
  190.8040  177.2320  141.0860 N   0  0  0  0  0  0  0  0  0  0  0  0
  190.2290  177.6450  138.7460 C   0  0  0  0  0  2  0  0  0  0  0  0
  188.9190  177.1940  138.9080 O   0  0  0  0  0  0  0  0  0  0  0  0
  188.1490  178.0760  138.1510 C   0  0  0  0  0  2  0  0  0  0  0  0
  189.0600  178.9660  137.3320 C   0  0  0  0  0  1  0  0  0  0  0  0
  1  4  2  0  0  0  0
  1  6  1  0  0  0  0
  2  5  2  0  0  0  0
  3  5  1  0  0  0  0
  4  2  1  0  0  0  0
  5  8  1  0  0  0  0
  6  3  2  0  0  0  0
  7  8  2  0  0  0  0
  7 11  1  0  0  0  0
  8 12  1  0  0  0  0
 10 15  1  0  0  0  0
 11 10  2  0  0  0  0
 12 14  2  0  0  0  0
 12 15  1  0  0  0  0
 13 11  1  0  0  0  0
 14 16  1  0  0  0  0
 15  9  2  0  0  0  0
 16  9  1  0  0  0  0
 17 18  3  0  0  0  0
 18 14  1  0  0  0  0
 19 21  1  0  0  0  0
 20 22  1  6  0  0  0
 20 19  1  0  0  0  0
 20 21  1  0  0  0  0
 21  1  1  0  0  0  0
 22 23  1  0  0  0  0
 24 23  1  0  0  0  0
 25 24  1  0  0  0  0
M  END
>  <MODEL>
2

>  <REMARK>
 VINA RESULT:      -6.6      2.683      7.468
  Name = 
  6 active torsions:
  status: ('A' for Active; 'I' for Inactive)
    1  A    between atoms: C_3  and  N_21
    2  A    between atoms: C_4  and  C_22
    3  A    between atoms: O_7  and  C_11
    4  A    between atoms: O_7  and  C_12
    5  A    between atoms: C_11  and  C_20
    6  A    between atoms: C_17  and  C_19
                            x       y       z     vdW  Elec       q    Type
                         _______ _______ _______ _____ _____    ______ ____

>  <TORSDO>
F 6

$$$$
=
 OpenBabel11042411453D

 25 28  0  0  1  0  0  0  0  0999 V2000
  189.2200  177.6390  144.4230 C   0  0  0  0  0  0  0  0  0  0  0  0
  189.9330  178.8690  142.4620 C   0  0  0  0  0  3  0  0  0  0  0  0
  188.2290  177.1570  142.2670 C   0  0  0  0  0  3  0  0  0  0  0  0
  190.0260  178.6190  143.8340 C   0  0  0  0  0  3  0  0  0  0  0  0
  189.0360  178.1400  141.6740 C   0  0  0  0  0  0  0  0  0  0  0  0
  188.3230  176.9080  143.6390 C   0  0  0  0  0  3  0  0  0  0  0  0
  187.5640  178.6880  139.8070 N   0  0  0  0  0  0  0  0  0  0  0  0
  188.9620  178.4170  140.2040 C   0  0  2  0  0  3  0  0  0  0  0  0
  189.5820  175.6260  137.7860 N   0  0  0  0  0  0  0  0  0  0  0  0
  187.5160  176.9400  138.1050 C   0  0  0  0  0  3  0  0  0  0  0  0
  186.8990  178.0470  138.8760 C   0  0  0  0  0  0  0  0  0  0  0  0
  189.5250  177.2820  139.4010 C   0  0  0  0  0  0  0  0  0  0  0  0
  185.5550  178.4190  138.5960 N   0  0  0  0  0  1  0  0  0  0  0  0
  190.7200  176.7140  139.3480 C   0  0  0  0  0  0  0  0  0  0  0  0
  188.7650  176.6100  138.3990 C   0  0  0  0  0  0  0  0  0  0  0  0
  190.7270  175.6890  138.3450 N   0  0  0  0  0  0  0  0  0  0  0  0
  192.8140  177.3650  140.8230 C   0  0  0  0  0  3  0  0  0  0  0  0
  191.8600  177.0680  140.1500 C   0  0  0  0  0  0  0  0  0  0  0  0
  189.7070  176.5440  146.9880 C   0  0  0  0  0  2  0  0  0  0  0  0
  189.0730  177.7400  147.2490 C   0  0  1  0  0  3  0  0  0  0  0  0
  189.3160  177.3850  145.8200 N   0  0  0  0  0  0  0  0  0  0  0  0
  187.6100  177.5070  147.5670 C   0  0  0  0  0  2  0  0  0  0  0  0
  186.9280  178.7240  147.5550 O   0  0  0  0  0  0  0  0  0  0  0  0
  185.6940  178.4290  146.9780 C   0  0  0  0  0  2  0  0  0  0  0  0
  185.7490  178.7180  145.4920 C   0  0  0  0  0  1  0  0  0  0  0  0
  1 21  1  0  0  0  0
  2  4  2  0  0  0  0
  3  6  1  0  0  0  0
  4  1  1  0  0  0  0
  5  3  2  0  0  0  0
  5  2  1  0  0  0  0
  6  1  2  0  0  0  0
  7  8  1  0  0  0  0
  8  5  1  1  0  0  0
  9 16  2  0  0  0  0
  9 15  1  0  0  0  0
 10 15  2  0  0  0  0
 10 11  1  0  0  0  0
 11  7  2  0  0  0  0
 12  8  1  0  0  0  0
 13 11  1  0  0  0  0
 14 12  2  0  0  0  0
 14 18  1  0  0  0  0
 15 12  1  0  0  0  0
 16 14  1  0  0  0  0
 18 17  3  0  0  0  0
 19 20  1  0  0  0  0
 20 22  1  6  0  0  0
 21 19  1  0  0  0  0
 21 20  1  0  0  0  0
 23 22  1  0  0  0  0
 24 23  1  0  0  0  0
 25 24  1  0  0  0  0
M  END
>  <MODEL>
3

>  <REMARK>
 VINA RESULT:      -6.5      1.427      2.535
  Name = 
  6 active torsions:
  status: ('A' for Active; 'I' for Inactive)
    1  A    between atoms: C_3  and  N_21
    2  A    between atoms: C_4  and  C_22
    3  A    between atoms: O_7  and  C_11
    4  A    between atoms: O_7  and  C_12
    5  A    between atoms: C_11  and  C_20
    6  A    between atoms: C_17  and  C_19
                            x       y       z     vdW  Elec       q    Type
                         _______ _______ _______ _____ _____    ______ ____

>  <TORSDO>
F 6

$$$$
=
 OpenBabel11042411453D

 25 28  0  0  1  0  0  0  0  0999 V2000
  190.7420  176.9780  142.6430 C   0  0  0  0  0  0  0  0  0  0  0  0
  188.9280  177.0290  141.0390 C   0  0  0  0  0  3  0  0  0  0  0  0
  191.1760  177.6050  140.3450 C   0  0  0  0  0  3  0  0  0  0  0  0
  189.3880  176.8030  142.3400 C   0  0  0  0  0  3  0  0  0  0  0  0
  189.8180  177.4300  140.0380 C   0  0  0  0  0  0  0  0  0  0  0  0
  191.6350  177.3800  141.6460 C   0  0  0  0  0  3  0  0  0  0  0  0
  188.0330  178.4360  138.7130 N   0  0  0  0  0  0  0  0  0  0  0  0
  189.3000  177.6770  138.6550 C   0  0  2  0  0  3  0  0  0  0  0  0
  188.0060  174.7940  136.6480 N   0  0  0  0  0  0  0  0  0  0  0  0
  186.7740  176.7860  137.4290 C   0  0  0  0  0  3  0  0  0  0  0  0
  186.8960  178.0620  138.1760 C   0  0  0  0  0  0  0  0  0  0  0  0
  189.1090  176.3940  137.9010 C   0  0  0  0  0  0  0  0  0  0  0  0
  185.7520  178.8970  138.3090 N   0  0  0  0  0  1  0  0  0  0  0  0
  189.9340  175.4230  137.5410 C   0  0  0  0  0  0  0  0  0  0  0  0
  187.8540  176.0260  137.3340 C   0  0  0  0  0  0  0  0  0  0  0  0
  189.2250  174.4430  136.7720 N   0  0  0  0  0  0  0  0  0  0  0  0
  192.5150  175.2930  138.0970 C   0  0  0  0  0  3  0  0  0  0  0  0
  191.3390  175.3510  137.8440 C   0  0  0  0  0  0  0  0  0  0  0  0
  191.8450  175.8990  145.0160 C   0  0  0  0  0  2  0  0  0  0  0  0
  191.4140  177.1550  145.3870 C   0  0  1  0  0  3  0  0  0  0  0  0
  191.2100  176.7480  143.9670 N   0  0  0  0  0  0  0  0  0  0  0  0
  190.0880  177.0680  146.1160 C   0  0  0  0  0  2  0  0  0  0  0  0
  189.2270  178.0580  145.6410 O   0  0  0  0  0  0  0  0  0  0  0  0
  187.9840  177.7270  146.1770 C   0  0  0  0  0  2  0  0  0  0  0  0
  187.0020  177.4690  145.0530 C   0  0  0  0  0  1  0  0  0  0  0  0
  1 21  1  0  0  0  0
  2  4  2  0  0  0  0
  3  6  1  0  0  0  0
  4  1  1  0  0  0  0
  5  3  2  0  0  0  0
  5  2  1  0  0  0  0
  6  1  2  0  0  0  0
  8  7  1  0  0  0  0
  8  5  1  1  0  0  0
  9 16  2  0  0  0  0
  9 15  1  0  0  0  0
 10 11  1  0  0  0  0
 11 13  1  0  0  0  0
 11  7  2  0  0  0  0
 12  8  1  0  0  0  0
 14 18  1  0  0  0  0
 14 12  2  0  0  0  0
 15 10  2  0  0  0  0
 15 12  1  0  0  0  0
 16 14  1  0  0  0  0
 18 17  3  0  0  0  0
 19 20  1  0  0  0  0
 20 22  1  1  0  0  0
 21 19  1  0  0  0  0
 21 20  1  0  0  0  0
 23 22  1  0  0  0  0
 23 24  1  0  0  0  0
 25 24  1  0  0  0  0
M  END
>  <MODEL>
4

>  <REMARK>
 VINA RESULT:      -6.5      1.772      3.010
  Name = 
  6 active torsions:
  status: ('A' for Active; 'I' for Inactive)
    1  A    between atoms: C_3  and  N_21
    2  A    between atoms: C_4  and  C_22
    3  A    between atoms: O_7  and  C_11
    4  A    between atoms: O_7  and  C_12
    5  A    between atoms: C_11  and  C_20
    6  A    between atoms: C_17  and  C_19
                            x       y       z     vdW  Elec       q    Type
                         _______ _______ _______ _____ _____    ______ ____

>  <TORSDO>
F 6

$$$$
=
 OpenBabel11042411453D

 25 28  0  0  1  0  0  0  0  0999 V2000
  182.6480  178.8510  143.0620 C   0  0  0  0  0  0  0  0  0  0  0  0
  184.8400  179.6500  143.7120 C   0  0  0  0  0  3  0  0  0  0  0  0
  184.5920  178.2510  141.7490 C   0  0  0  0  0  3  0  0  0  0  0  0
  183.4620  179.5840  143.9330 C   0  0  0  0  0  3  0  0  0  0  0  0
  185.4110  178.9860  142.6210 C   0  0  0  0  0  0  0  0  0  0  0  0
  183.2140  178.1850  141.9710 C   0  0  0  0  0  3  0  0  0  0  0  0
  187.1950  179.1860  140.9700 N   0  0  0  0  0  0  0  0  0  0  0  0
  186.8910  179.0620  142.4110 C   0  0  2  0  0  3  0  0  0  0  0  0
  188.9860  176.0250  143.0520 N   0  0  0  0  0  0  0  0  0  0  0  0
  188.6540  177.2300  140.9220 C   0  0  0  0  0  3  0  0  0  0  0  0
  187.9760  178.3850  140.2850 C   0  0  0  0  0  0  0  0  0  0  0  0
  187.5930  177.8710  142.9950 C   0  0  0  0  0  0  0  0  0  0  0  0
  188.1810  178.6280  138.8980 N   0  0  0  0  0  1  0  0  0  0  0  0
  187.6780  177.3810  144.2220 C   0  0  0  0  0  0  0  0  0  0  0  0
  188.4320  177.0250  142.2120 C   0  0  0  0  0  0  0  0  0  0  0  0
  188.5410  176.2360  144.2290 N   0  0  0  0  0  0  0  0  0  0  0  0
  186.4860  178.3570  146.3700 C   0  0  0  0  0  3  0  0  0  0  0  0
  187.0300  177.9120  145.3910 C   0  0  0  0  0  0  0  0  0  0  0  0
  180.0420  178.2490  143.9900 C   0  0  0  0  0  2  0  0  0  0  0  0
  179.8360  179.1680  142.9830 C   0  0  1  0  0  3  0  0  0  0  0  0
  181.2450  178.7840  143.2880 N   0  0  0  0  0  0  0  0  0  0  0  0
  179.4040  178.4710  141.7090 C   0  0  0  0  0  2  0  0  0  0  0  0
  179.3050  177.0990  141.9360 O   0  0  0  0  0  0  0  0  0  0  0  0
  179.2980  176.5320  140.6620 C   0  0  0  0  0  2  0  0  0  0  0  0
  180.4220  177.1260  139.8390 C   0  0  0  0  0  1  0  0  0  0  0  0
  1 21  1  0  0  0  0
  1  4  1  0  0  0  0
  2  4  2  0  0  0  0
  3  6  1  0  0  0  0
  3  5  2  0  0  0  0
  5  2  1  0  0  0  0
  6  1  2  0  0  0  0
  7  8  1  0  0  0  0
  8  5  1  6  0  0  0
  8 12  1  0  0  0  0
  9 16  2  0  0  0  0
 10 15  2  0  0  0  0
 11 10  1  0  0  0  0
 11  7  2  0  0  0  0
 12 14  2  0  0  0  0
 13 11  1  0  0  0  0
 14 16  1  0  0  0  0
 14 18  1  0  0  0  0
 15 12  1  0  0  0  0
 15  9  1  0  0  0  0
 18 17  3  0  0  0  0
 20 22  1  6  0  0  0
 20 21  1  0  0  0  0
 20 19  1  0  0  0  0
 21 19  1  0  0  0  0
 22 23  1  0  0  0  0
 24 23  1  0  0  0  0
 25 24  1  0  0  0  0
M  END
>  <MODEL>
5

>  <REMARK>
 VINA RESULT:      -6.3      5.191      7.690
  Name = 
  6 active torsions:
  status: ('A' for Active; 'I' for Inactive)
    1  A    between atoms: C_3  and  N_21
    2  A    between atoms: C_4  and  C_22
    3  A    between atoms: O_7  and  C_11
    4  A    between atoms: O_7  and  C_12
    5  A    between atoms: C_11  and  C_20
    6  A    between atoms: C_17  and  C_19
                            x       y       z     vdW  Elec       q    Type
                         _______ _______ _______ _____ _____    ______ ____

>  <TORSDO>
F 6

$$$$
=
 OpenBabel11042411453D

 25 28  0  0  1  0  0  0  0  0999 V2000
  182.3010  178.4540  141.9180 C   0  0  0  0  0  0  0  0  0  0  0  0
  184.5050  178.1990  140.9480 C   0  0  0  0  0  3  0  0  0  0  0  0
  184.2470  179.2660  143.1080 C   0  0  0  0  0  3  0  0  0  0  0  0
  183.1220  178.0130  140.8750 C   0  0  0  0  0  3  0  0  0  0  0  0
  185.0730  178.8250  142.0630 C   0  0  0  0  0  0  0  0  0  0  0  0
  182.8640  179.0800  143.0340 C   0  0  0  0  0  3  0  0  0  0  0  0
  187.1020  179.1440  140.7450 N   0  0  0  0  0  0  0  0  0  0  0  0
  186.5570  179.0220  142.1140 C   0  0  2  0  0  3  0  0  0  0  0  0
  188.7400  176.1870  143.2170 N   0  0  0  0  0  0  0  0  0  0  0  0
  188.6980  177.3190  141.0220 C   0  0  0  0  0  3  0  0  0  0  0  0
  188.0550  178.4000  140.2360 C   0  0  0  0  0  0  0  0  0  0  0  0
  187.2360  177.9060  142.8520 C   0  0  0  0  0  0  0  0  0  0  0  0
  188.4840  178.6320  138.9000 N   0  0  0  0  0  1  0  0  0  0  0  0
  187.1400  177.4490  144.0910 C   0  0  0  0  0  0  0  0  0  0  0  0
  188.2670  177.1200  142.2590 C   0  0  0  0  0  0  0  0  0  0  0  0
  188.0770  176.3820  144.2890 N   0  0  0  0  0  0  0  0  0  0  0  0
  185.5100  178.3620  145.9600 C   0  0  0  0  0  3  0  0  0  0  0  0
  186.2540  177.9450  145.1090 C   0  0  0  0  0  0  0  0  0  0  0  0
  179.6820  177.4680  141.4870 C   0  0  0  0  0  2  0  0  0  0  0  0
  179.4850  178.7210  142.0280 C   0  0  1  0  0  3  0  0  0  0  0  0
  180.8930  178.2650  141.8430 N   0  0  0  0  0  0  0  0  0  0  0  0
  179.1500  179.7220  140.9400 C   0  0  0  0  0  2  0  0  0  0  0  0
  180.0670  180.7730  140.9720 O   0  0  0  0  0  0  0  0  0  0  0  0
  180.1170  181.2350  139.6580 C   0  0  0  0  0  2  0  0  0  0  0  0
  181.3470  180.6770  138.9730 C   0  0  0  0  0  1  0  0  0  0  0  0
  1  6  1  0  0  0  0
  2  5  2  0  0  0  0
  4  2  1  0  0  0  0
  4  1  2  0  0  0  0
  5  3  1  0  0  0  0
  6  3  2  0  0  0  0
  7  8  1  0  0  0  0
  8  5  1  6  0  0  0
  8 12  1  0  0  0  0
  9 16  2  0  0  0  0
 10 15  2  0  0  0  0
 11  7  2  0  0  0  0
 11 10  1  0  0  0  0
 12 14  2  0  0  0  0
 13 11  1  0  0  0  0
 14 16  1  0  0  0  0
 14 18  1  0  0  0  0
 15 12  1  0  0  0  0
 15  9  1  0  0  0  0
 18 17  3  0  0  0  0
 19 21  1  0  0  0  0
 19 20  1  0  0  0  0
 20 22  1  6  0  0  0
 21  1  1  0  0  0  0
 21 20  1  0  0  0  0
 22 23  1  0  0  0  0
 24 23  1  0  0  0  0
 25 24  1  0  0  0  0
M  END
>  <MODEL>
6

>  <REMARK>
 VINA RESULT:      -6.0      5.111      8.152
  Name = 
  6 active torsions:
  status: ('A' for Active; 'I' for Inactive)
    1  A    between atoms: C_3  and  N_21
    2  A    between atoms: C_4  and  C_22
    3  A    between atoms: O_7  and  C_11
    4  A    between atoms: O_7  and  C_12
    5  A    between atoms: C_11  and  C_20
    6  A    between atoms: C_17  and  C_19
                            x       y       z     vdW  Elec       q    Type
                         _______ _______ _______ _____ _____    ______ ____

>  <TORSDO>
F 6

$$$$
=
 OpenBabel11042411453D

 25 28  0  0  1  0  0  0  0  0999 V2000
  189.0050  177.5740  141.3780 C   0  0  0  0  0  0  0  0  0  0  0  0
  188.9240  176.1060  143.3030 C   0  0  0  0  0  3  0  0  0  0  0  0
  187.7730  178.2370  143.3540 C   0  0  0  0  0  3  0  0  0  0  0  0
  189.3620  176.3740  142.0030 C   0  0  0  0  0  3  0  0  0  0  0  0
  188.1290  177.0340  143.9830 C   0  0  0  0  0  0  0  0  0  0  0  0
  188.2110  178.5040  142.0540 C   0  0  0  0  0  3  0  0  0  0  0  0
  186.2880  177.1850  145.5780 N   0  0  0  0  0  0  0  0  0  0  0  0
  187.6810  176.7300  145.3790 C   0  0  0  0  0  0  0  0  0  0  0  0
  189.1840  178.6320  148.2340 N   0  0  0  0  0  0  0  0  0  0  0  0
  186.8250  178.5850  147.5020 C   0  0  0  0  0  3  0  0  0  0  0  0
  185.8820  178.0080  146.5140 C   0  0  0  0  0  0  0  0  0  0  0  0
  188.5880  177.3580  146.3970 C   0  0  0  0  0  0  0  0  0  0  0  0
  184.5050  178.3560  146.5880 N   0  0  0  0  0  1  0  0  0  0  0  0
  189.8780  177.2310  146.6630 C   0  0  0  0  0  0  0  0  0  0  0  0
  188.1030  178.2510  147.3980 C   0  0  0  0  0  0  0  0  0  0  0  0
  190.2220  178.0330  147.8000 N   0  0  0  0  0  2  0  0  0  0  0  0
  191.5920  175.7050  145.3500 C   0  0  0  0  0  3  0  0  0  0  0  0
  190.8100  176.4010  145.9470 C   0  0  0  0  0  0  0  0  0  0  0  0
  189.4230  178.6270  138.7840 C   0  0  0  0  0  2  0  0  0  0  0  0
  190.2830  177.5520  138.8520 C   0  0  1  0  0  3  0  0  0  0  0  0
  189.4510  177.8460  140.0540 N   0  0  0  0  0  0  0  0  0  0  0  0
  189.6960  176.3550  138.1330 C   0  0  0  0  0  2  0  0  0  0  0  0
  190.5640  175.2680  138.2450 O   0  0  0  0  0  0  0  0  0  0  0  0
  191.7530  175.7080  137.6640 C   0  0  0  0  0  2  0  0  0  0  0  0
  192.7360  174.5590  137.5930 C   0  0  0  0  0  1  0  0  0  0  0  0
  1  4  2  0  0  0  0
  1  6  1  0  0  0  0
  2  5  2  0  0  0  0
  3  5  1  0  0  0  0
  4  2  1  0  0  0  0
  5  8  1  0  0  0  0
  6  3  2  0  0  0  0
  7 11  1  0  0  0  0
  8  7  2  0  0  0  0
  8 12  1  0  0  0  0
 11 13  1  0  0  0  0
 11 10  2  0  0  0  0
 12 14  2  0  0  0  0
 12 15  1  0  0  0  0
 14 16  1  0  0  0  0
 15 10  1  0  0  0  0
 15  9  2  0  0  0  0
 16  9  1  0  0  0  0
 17 18  3  0  0  0  0
 18 14  1  0  0  0  0
 19 20  1  0  0  0  0
 19 21  1  0  0  0  0
 20 22  1  6  0  0  0
 20 21  1  0  0  0  0
 21  1  1  0  0  0  0
 22 23  1  0  0  0  0
 24 23  1  0  0  0  0
 25 24  1  0  0  0  0
M  END
>  <MODEL>
7

>  <REMARK>
 VINA RESULT:      -5.9      2.692      7.254
  Name = 
  6 active torsions:
  status: ('A' for Active; 'I' for Inactive)
    1  A    between atoms: C_3  and  N_21
    2  A    between atoms: C_4  and  C_22
    3  A    between atoms: O_7  and  C_11
    4  A    between atoms: O_7  and  C_12
    5  A    between atoms: C_11  and  C_20
    6  A    between atoms: C_17  and  C_19
                            x       y       z     vdW  Elec       q    Type
                         _______ _______ _______ _____ _____    ______ ____

>  <TORSDO>
F 6

$$$$
=
 OpenBabel11042411453D

 25 28  0  0  1  0  0  0  0  0999 V2000
  185.5990  178.6290  140.7050 C   0  0  0  0  0  0  0  0  0  0  0  0
  183.7800  178.9410  139.1370 C   0  0  0  0  0  3  0  0  0  0  0  0
  183.3070  178.5640  141.4830 C   0  0  0  0  0  3  0  0  0  0  0  0
  185.1500  178.8580  139.4000 C   0  0  0  0  0  3  0  0  0  0  0  0
  182.8540  178.7940  140.1750 C   0  0  0  0  0  0  0  0  0  0  0  0
  184.6780  178.4820  141.7450 C   0  0  0  0  0  3  0  0  0  0  0  0
  180.7960  180.0570  140.5280 N   0  0  0  0  0  0  0  0  0  0  0  0
  181.3900  178.8760  139.8670 C   0  0  0  0  0  0  0  0  0  0  0  0
  179.0720  176.3280  141.3340 N   0  0  0  0  0  0  0  0  0  0  0  0
  179.0950  178.7680  141.7110 C   0  0  0  0  0  3  0  0  0  0  0  0
  179.7750  180.0360  141.3510 C   0  0  0  0  0  0  0  0  0  0  0  0
  180.6710  177.6260  140.2810 C   0  0  0  0  0  0  0  0  0  0  0  0
  179.3050  181.2560  141.9130 N   0  0  0  0  0  1  0  0  0  0  0  0
  180.7890  176.3540  139.9320 C   0  0  0  0  0  0  0  0  0  0  0  0
  179.5650  177.6490  141.1810 C   0  0  2  0  0  3  0  0  0  0  0  0
  179.7920  175.5720  140.6010 N   0  0  0  0  0  0  0  0  0  0  0  0
  182.5550  175.3680  138.2310 C   0  0  0  0  0  3  0  0  0  0  0  0
  181.7490  175.8180  139.0050 C   0  0  0  0  0  0  0  0  0  0  0  0
  188.4040  178.2740  140.5670 C   0  0  0  0  0  2  0  0  0  0  0  0
  188.1750  178.6270  141.8800 C   0  0  1  0  0  3  0  0  0  0  0  0
  186.9940  178.5450  140.9720 N   0  0  0  0  0  0  0  0  0  0  0  0
  188.1920  177.4010  142.7700 C   0  0  0  0  0  2  0  0  0  0  0  0
  188.1130  177.7910  144.1070 O   0  0  0  0  0  0  0  0  0  0  0  0
  186.9490  177.1890  144.5800 C   0  0  0  0  0  2  0  0  0  0  0  0
  186.0460  178.2430  145.1870 C   0  0  0  0  0  1  0  0  0  0  0  0
  1 21  1  0  0  0  0
  1  6  1  0  0  0  0
  2  4  1  0  0  0  0
  2  5  2  0  0  0  0
  3  6  2  0  0  0  0
  4  1  2  0  0  0  0
  5  3  1  0  0  0  0
  7 11  1  0  0  0  0
  8  5  1  0  0  0  0
  8 12  1  0  0  0  0
  8  7  2  0  0  0  0
 11 10  2  0  0  0  0
 11 13  1  0  0  0  0
 12 15  1  0  0  0  0
 14 12  2  0  0  0  0
 14 16  1  0  0  0  0
 15  9  1  0  0  0  0
 15 10  1  6  0  0  0
 16  9  2  0  0  0  0
 17 18  3  0  0  0  0
 18 14  1  0  0  0  0
 19 21  1  0  0  0  0
 19 20  1  0  0  0  0
 20 22  1  1  0  0  0
 21 20  1  0  0  0  0
 22 23  1  0  0  0  0
 23 24  1  0  0  0  0
 24 25  1  0  0  0  0
M  END
>  <MODEL>
8

>  <REMARK>
 VINA RESULT:      -5.8      5.054      7.712
  Name = 
  6 active torsions:
  status: ('A' for Active; 'I' for Inactive)
    1  A    between atoms: C_3  and  N_21
    2  A    between atoms: C_4  and  C_22
    3  A    between atoms: O_7  and  C_11
    4  A    between atoms: O_7  and  C_12
    5  A    between atoms: C_11  and  C_20
    6  A    between atoms: C_17  and  C_19
                            x       y       z     vdW  Elec       q    Type
                         _______ _______ _______ _____ _____    ______ ____

>  <TORSDO>
F 6

$$$$
=
 OpenBabel11042411453D

 25 28  0  0  1  0  0  0  0  0999 V2000
  188.6000  177.9240  140.6200 C   0  0  0  0  0  0  0  0  0  0  0  0
  188.8630  176.3660  142.4550 C   0  0  0  0  0  3  0  0  0  0  0  0
  187.4590  178.3230  142.7170 C   0  0  0  0  0  3  0  0  0  0  0  0
  189.1560  176.7520  141.1450 C   0  0  0  0  0  3  0  0  0  0  0  0
  188.0150  177.1480  143.2460 C   0  0  0  0  0  0  0  0  0  0  0  0
  187.7530  178.7090  141.4060 C   0  0  0  0  0  3  0  0  0  0  0  0
  186.3780  177.1800  145.0560 N   0  0  0  0  0  0  0  0  0  0  0  0
  187.7240  176.7200  144.6520 C   0  0  0  0  0  0  0  0  0  0  0  0
  189.6070  178.3090  147.4710 N   0  0  0  0  0  0  0  0  0  0  0  0
  187.1790  178.3790  147.0240 C   0  0  0  0  0  3  0  0  0  0  0  0
  186.1090  177.9170  146.1070 C   0  0  0  0  0  0  0  0  0  0  0  0
  188.7620  177.2290  145.6080 C   0  0  0  0  0  0  0  0  0  0  0  0
  184.7610  178.2830  146.3760 N   0  0  0  0  0  1  0  0  0  0  0  0
  190.0700  177.0520  145.7050 C   0  0  0  0  0  0  0  0  0  0  0  0
  188.4250  178.0310  146.7380 C   0  0  0  0  0  0  0  0  0  0  0  0
  190.5690  177.7350  146.8630 N   0  0  0  0  0  2  0  0  0  0  0  0
  191.5690  175.6290  144.0570 C   0  0  0  0  0  3  0  0  0  0  0  0
  190.8870  176.2770  144.8090 C   0  0  0  0  0  0  0  0  0  0  0  0
  189.1850  179.3430  138.2410 C   0  0  0  0  0  2  0  0  0  0  0  0
  189.1370  178.0240  137.8420 C   0  0  1  0  0  3  0  0  0  0  0  0
  188.8990  178.3170  139.2850 N   0  0  0  0  0  0  0  0  0  0  0  0
  187.8090  177.7170  137.1810 C   0  0  0  0  0  2  0  0  0  0  0  0
  186.8820  178.7070  137.5090 O   0  0  0  0  0  0  0  0  0  0  0  0
  185.6910  178.0160  137.7220 C   0  0  0  0  0  2  0  0  0  0  0  0
  185.0120  178.5500  138.9660 C   0  0  0  0  0  1  0  0  0  0  0  0
  1  4  2  0  0  0  0
  1  6  1  0  0  0  0
  2  5  2  0  0  0  0
  3  5  1  0  0  0  0
  4  2  1  0  0  0  0
  5  8  1  0  0  0  0
  6  3  2  0  0  0  0
  7 11  1  0  0  0  0
  8  7  2  0  0  0  0
  8 12  1  0  0  0  0
 11 13  1  0  0  0  0
 11 10  2  0  0  0  0
 12 14  2  0  0  0  0
 12 15  1  0  0  0  0
 14 16  1  0  0  0  0
 15 10  1  0  0  0  0
 15  9  2  0  0  0  0
 16  9  1  0  0  0  0
 17 18  3  0  0  0  0
 18 14  1  0  0  0  0
 19 21  1  0  0  0  0
 20 22  1  6  0  0  0
 20 19  1  0  0  0  0
 20 21  1  0  0  0  0
 21  1  1  0  0  0  0
 22 23  1  0  0  0  0
 23 24  1  0  0  0  0
 24 25  1  0  0  0  0
M  END
>  <MODEL>
9

>  <REMARK>
 VINA RESULT:      -5.8      3.006      7.449
  Name = 
  6 active torsions:
  status: ('A' for Active; 'I' for Inactive)
    1  A    between atoms: C_3  and  N_21
    2  A    between atoms: C_4  and  C_22
    3  A    between atoms: O_7  and  C_11
    4  A    between atoms: O_7  and  C_12
    5  A    between atoms: C_11  and  C_20
    6  A    between atoms: C_17  and  C_19
                            x       y       z     vdW  Elec       q    Type
                         _______ _______ _______ _____ _____    ______ ____

>  <TORSDO>
F 6

$$$$
