=
 OpenBabel11042409583D

 38 42  0  0  1  0  0  0  0  0999 V2000
  187.1280  177.5060  144.8280 C   0  0  0  0  0  0  0  0  0  0  0  0
  189.0420  177.7290  147.5180 N   0  0  0  0  0  0  0  0  0  0  0  0
  185.7020  178.8010  146.8900 C   0  0  0  0  0  3  0  0  0  0  0  0
  187.4360  177.3600  146.1370 C   0  0  0  0  0  0  0  0  0  0  0  0
  188.3590  177.3010  144.1740 C   0  0  0  0  0  0  0  0  0  0  0  0
  187.8980  178.2660  148.0510 C   0  0  0  0  0  3  0  0  0  0  0  0
  186.8590  178.0550  147.1380 C   0  0  0  0  0  0  0  0  0  0  0  0
  188.7020  177.1730  146.3630 N   0  0  0  0  0  0  0  0  0  0  0  0
  185.2210  178.8300  145.5510 C   0  0  0  0  0  3  0  0  0  0  0  0
  189.3480  177.1770  145.1800 C   0  0  0  0  0  3  0  0  0  0  0  0
  185.9520  178.2160  144.4900 C   0  0  0  0  0  0  0  0  0  0  0  0
  188.6560  177.4010  142.7330 C   0  0  0  0  0  0  0  0  0  0  0  0
  188.0280  178.3830  141.9550 C   0  0  0  0  0  3  0  0  0  0  0  0
  189.6190  176.5750  142.1420 C   0  0  0  0  0  3  0  0  0  0  0  0
  189.9260  176.7050  140.7860 C   0  0  0  0  0  3  0  0  0  0  0  0
  188.3350  178.5120  140.5990 C   0  0  0  0  0  3  0  0  0  0  0  0
  189.2830  177.6690  140.0010 C   0  0  0  0  0  0  0  0  0  0  0  0
  187.7160  176.3840  137.6170 C   0  0  0  0  0  1  0  0  0  0  0  0
  189.6320  177.7700  138.6120 N   0  0  0  0  0  2  0  0  0  0  0  0
  188.9490  177.2100  137.4800 C   0  0  0  0  0  0  0  0  0  0  0  0
  189.4080  177.4150  136.3280 O   0  0  0  0  0  0  0  0  0  0  0  0
  185.5160  178.4270  143.0770 C   0  0  0  0  0  2  0  0  0  0  0  0
  184.0280  178.5800  142.9790 C   0  0  0  0  0  0  0  0  0  0  0  0
  183.3400  178.4220  141.7500 C   0  0  0  0  0  0  0  0  0  0  0  0
  181.9170  179.0270  144.0960 C   0  0  0  0  0  3  0  0  0  0  0  0
  183.3030  178.8700  144.1430 C   0  0  0  0  0  3  0  0  0  0  0  0
  181.2430  178.8960  142.8830 C   0  0  0  0  0  3  0  0  0  0  0  0
  181.9510  178.5900  141.7190 C   0  0  0  0  0  3  0  0  0  0  0  0
  184.5000  179.3030  139.7160 C   0  0  0  0  0  1  0  0  0  0  0  0
  184.0200  178.0660  140.4570 C   0  0  2  0  0  3  0  0  0  0  0  0
  183.1330  177.1920  139.5830 C   0  0  0  0  0  2  0  0  0  0  0  0
  183.6760  177.1140  138.2380 N   0  0  0  0  0  2  0  0  0  0  0  0
  183.8510  175.7040  137.9290 C   0  0  0  0  0  2  0  0  0  0  0  0
  183.8350  175.4580  136.1280 S   0  0  0  0  0  0  0  0  0  0  0  0
  185.0180  174.0810  136.2160 C   0  0  0  0  0  2  0  0  0  0  0  0
  184.7630  173.2510  137.4580 C   0  0  1  0  0  3  0  0  0  0  0  0
  183.9720  172.0190  137.0750 C   0  0  0  0  0  1  0  0  0  0  0  0
  185.9790  172.8590  138.0180 O   0  0  0  0  0  1  0  0  0  0  0  0
  1  4  1  0  0  0  0
  2  6  2  0  0  0  0
  3  7  1  0  0  0  0
  4  8  1  0  0  0  0
  4  7  2  0  0  0  0
  5  1  1  0  0  0  0
  5 10  2  0  0  0  0
  7  6  1  0  0  0  0
  8  2  1  0  0  0  0
  9  3  2  0  0  0  0
 10  8  1  0  0  0  0
 11  1  2  0  0  0  0
 11  9  1  0  0  0  0
 12  5  1  0  0  0  0
 13 12  2  0  0  0  0
 14 12  1  0  0  0  0
 15 14  2  0  0  0  0
 16 13  1  0  0  0  0
 17 16  2  0  0  0  0
 17 15  1  0  0  0  0
 19 17  1  0  0  0  0
 20 18  1  0  0  0  0
 20 19  1  0  0  0  0
 21 20  2  0  0  0  0
 22 11  1  0  0  0  0
 23 22  1  0  0  0  0
 23 26  1  0  0  0  0
 24 23  2  0  0  0  0
 25 26  2  0  0  0  0
 27 25  1  0  0  0  0
 28 24  1  0  0  0  0
 28 27  2  0  0  0  0
 30 29  1  6  0  0  0
 30 24  1  0  0  0  0
 31 30  1  0  0  0  0
 32 31  1  0  0  0  0
 33 32  1  0  0  0  0
 34 35  1  0  0  0  0
 34 33  1  0  0  0  0
 35 36  1  0  0  0  0
 36 37  1  6  0  0  0
 36 38  1  0  0  0  0
M  END
>  <MODEL>
1

>  <REMARK>
 VINA RESULT:      -9.4      0.000      0.000
  Name = 
  11 active torsions:
  status: ('A' for Active; 'I' for Inactive)
    1  A    between atoms: N_3  and  C_38
    2  A    between atoms: C_4  and  C_12
    3  A    between atoms: C_5  and  C_31
    4  A    between atoms: C_6  and  C_23
    5  A    between atoms: C_7  and  C_14
    6  A    between atoms: C_12  and  S_28
    7  A    between atoms: C_14  and  C_22
    8  A    between atoms: C_22  and  N_34
    9  A    between atoms: C_27  and  S_28
   10  A    between atoms: C_27  and  N_34
   11  A    between atoms: C_31  and  C_37
                            x       y       z     vdW  Elec       q    Type
                         _______ _______ _______ _____ _____    ______ ____

>  <TORSDO>
F 11

$$$$
=
 OpenBabel11042409583D

 38 42  0  0  1  0  0  0  0  0999 V2000
  189.0660  176.7940  144.2730 C   0  0  0  0  0  0  0  0  0  0  0  0
  191.7380  177.0260  146.2120 N   0  0  0  0  0  0  0  0  0  0  0  0
  188.2660  177.4450  146.8990 C   0  0  0  0  0  3  0  0  0  0  0  0
  189.8270  176.5290  145.3600 C   0  0  0  0  0  0  0  0  0  0  0  0
  190.0100  176.9510  143.2380 C   0  0  0  0  0  0  0  0  0  0  0  0
  190.7830  177.2260  147.1760 C   0  0  0  0  0  3  0  0  0  0  0  0
  189.5360  176.9340  146.6120 C   0  0  0  0  0  0  0  0  0  0  0  0
  191.1060  176.5840  145.1330 N   0  0  0  0  0  0  0  0  0  0  0  0
  187.3520  177.5650  145.8150 C   0  0  0  0  0  3  0  0  0  0  0  0
  191.2930  176.8950  143.8350 C   0  0  0  0  0  3  0  0  0  0  0  0
  187.7530  177.2800  144.4760 C   0  0  0  0  0  0  0  0  0  0  0  0
  189.7690  177.3190  141.8310 C   0  0  0  0  0  0  0  0  0  0  0  0
  190.4440  176.6450  140.8050 C   0  0  0  0  0  3  0  0  0  0  0  0
  188.8120  178.2850  141.4980 C   0  0  0  0  0  3  0  0  0  0  0  0
  188.5580  178.5980  140.1610 C   0  0  0  0  0  3  0  0  0  0  0  0
  190.1900  176.9580  139.4680 C   0  0  0  0  0  3  0  0  0  0  0  0
  189.2480  177.9420  139.1350 C   0  0  0  0  0  0  0  0  0  0  0  0
  187.1610  176.5220  137.2850 C   0  0  0  0  0  1  0  0  0  0  0  0
  188.9530  178.2920  137.7740 N   0  0  0  0  0  2  0  0  0  0  0  0
  188.0050  177.6840  136.8840 C   0  0  0  0  0  0  0  0  0  0  0  0
  187.8830  178.1400  135.7180 O   0  0  0  0  0  0  0  0  0  0  0  0
  186.8280  177.5950  143.3460 C   0  0  0  0  0  2  0  0  0  0  0  0
  185.5230  178.1420  143.8430 C   0  0  0  0  0  0  0  0  0  0  0  0
  184.4340  178.3860  142.9690 C   0  0  0  0  0  0  0  0  0  0  0  0
  184.1830  178.9130  145.7180 C   0  0  0  0  0  3  0  0  0  0  0  0
  185.3780  178.3980  145.2140 C   0  0  0  0  0  3  0  0  0  0  0  0
  183.1200  179.1760  144.8550 C   0  0  0  0  0  3  0  0  0  0  0  0
  183.2450  178.9080  143.4900 C   0  0  0  0  0  3  0  0  0  0  0  0
  185.1660  179.2160  140.7250 C   0  0  0  0  0  1  0  0  0  0  0  0
  184.4730  178.1020  141.4940 C   0  0  2  0  0  3  0  0  0  0  0  0
  183.0840  177.8140  140.9450 C   0  0  0  0  0  2  0  0  0  0  0  0
  182.8010  178.6850  139.8160 N   0  0  0  0  0  2  0  0  0  0  0  0
  181.3850  179.0090  139.8710 C   0  0  0  0  0  2  0  0  0  0  0  0
  180.5640  177.9860  141.1290 S   0  0  0  0  0  0  0  0  0  0  0  0
  179.2200  179.1880  141.3570 C   0  0  0  0  0  2  0  0  0  0  0  0
  179.2180  179.7070  142.7810 C   0  0  1  0  0  3  0  0  0  0  0  0
  179.5960  178.5810  143.7190 C   0  0  0  0  0  1  0  0  0  0  0  0
  180.1480  180.7390  142.9060 O   0  0  0  0  0  1  0  0  0  0  0  0
  1 11  2  0  0  0  0
  1  4  1  0  0  0  0
  2  6  2  0  0  0  0
  4  7  2  0  0  0  0
  5 10  2  0  0  0  0
  5  1  1  0  0  0  0
  7  3  1  0  0  0  0
  7  6  1  0  0  0  0
  8  4  1  0  0  0  0
  8  2  1  0  0  0  0
  9  3  2  0  0  0  0
 10  8  1  0  0  0  0
 11  9  1  0  0  0  0
 12  5  1  0  0  0  0
 13 12  2  0  0  0  0
 14 12  1  0  0  0  0
 15 14  2  0  0  0  0
 16 13  1  0  0  0  0
 17 16  2  0  0  0  0
 17 15  1  0  0  0  0
 19 17  1  0  0  0  0
 20 18  1  0  0  0  0
 20 19  1  0  0  0  0
 21 20  2  0  0  0  0
 22 23  1  0  0  0  0
 22 11  1  0  0  0  0
 23 26  1  0  0  0  0
 24 28  1  0  0  0  0
 24 23  2  0  0  0  0
 26 25  2  0  0  0  0
 27 25  1  0  0  0  0
 28 27  2  0  0  0  0
 30 29  1  6  0  0  0
 30 24  1  0  0  0  0
 31 30  1  0  0  0  0
 32 33  1  0  0  0  0
 32 31  1  0  0  0  0
 33 34  1  0  0  0  0
 34 35  1  0  0  0  0
 35 36  1  0  0  0  0
 36 38  1  0  0  0  0
 36 37  1  1  0  0  0
M  END
>  <MODEL>
2

>  <REMARK>
 VINA RESULT:      -9.3      2.526      4.083
  Name = 
  11 active torsions:
  status: ('A' for Active; 'I' for Inactive)
    1  A    between atoms: N_3  and  C_38
    2  A    between atoms: C_4  and  C_12
    3  A    between atoms: C_5  and  C_31
    4  A    between atoms: C_6  and  C_23
    5  A    between atoms: C_7  and  C_14
    6  A    between atoms: C_12  and  S_28
    7  A    between atoms: C_14  and  C_22
    8  A    between atoms: C_22  and  N_34
    9  A    between atoms: C_27  and  S_28
   10  A    between atoms: C_27  and  N_34
   11  A    between atoms: C_31  and  C_37
                            x       y       z     vdW  Elec       q    Type
                         _______ _______ _______ _____ _____    ______ ____

>  <TORSDO>
F 11

$$$$
=
 OpenBabel11042409583D

 38 42  0  0  1  0  0  0  0  0999 V2000
  187.2070  177.5150  144.9640 C   0  0  0  0  0  0  0  0  0  0  0  0
  189.1200  177.7200  147.6560 N   0  0  0  0  0  0  0  0  0  0  0  0
  185.7960  178.8360  147.0190 C   0  0  0  0  0  3  0  0  0  0  0  0
  187.5110  177.3690  146.2740 C   0  0  0  0  0  0  0  0  0  0  0  0
  188.4370  177.2900  144.3120 C   0  0  0  0  0  0  0  0  0  0  0  0
  187.9830  178.2750  148.1850 C   0  0  0  0  0  3  0  0  0  0  0  0
  186.9420  178.0760  147.2720 C   0  0  0  0  0  0  0  0  0  0  0  0
  188.7750  177.1660  146.5030 N   0  0  0  0  0  0  0  0  0  0  0  0
  185.3180  178.8670  145.6790 C   0  0  0  0  0  3  0  0  0  0  0  0
  189.4220  177.1560  145.3200 C   0  0  0  0  0  3  0  0  0  0  0  0
  186.0420  178.2390  144.6210 C   0  0  0  0  0  0  0  0  0  0  0  0
  188.7360  177.3810  142.8720 C   0  0  0  0  0  0  0  0  0  0  0  0
  188.1200  178.3660  142.0890 C   0  0  0  0  0  3  0  0  0  0  0  0
  189.6930  176.5440  142.2860 C   0  0  0  0  0  3  0  0  0  0  0  0
  190.0040  176.6640  140.9300 C   0  0  0  0  0  3  0  0  0  0  0  0
  188.4300  178.4860  140.7320 C   0  0  0  0  0  3  0  0  0  0  0  0
  189.3720  177.6310  140.1400 C   0  0  0  0  0  0  0  0  0  0  0  0
  187.3920  177.4130  137.7260 C   0  0  0  0  0  1  0  0  0  0  0  0
  189.7230  177.7230  138.7510 N   0  0  0  0  0  2  0  0  0  0  0  0
  188.8610  177.6380  137.6060 C   0  0  0  0  0  0  0  0  0  0  0  0
  189.3590  177.7490  136.4570 O   0  0  0  0  0  0  0  0  0  0  0  0
  185.6110  178.4510  143.2070 C   0  0  0  0  0  2  0  0  0  0  0  0
  184.1210  178.5760  143.1000 C   0  0  0  0  0  0  0  0  0  0  0  0
  183.4450  178.4270  141.8630 C   0  0  0  0  0  0  0  0  0  0  0  0
  181.9930  178.9570  144.2090 C   0  0  0  0  0  3  0  0  0  0  0  0
  183.3810  178.8270  144.2640 C   0  0  0  0  0  3  0  0  0  0  0  0
  181.3300  178.8350  142.9880 C   0  0  0  0  0  3  0  0  0  0  0  0
  182.0540  178.5670  141.8240 C   0  0  0  0  0  3  0  0  0  0  0  0
  184.6450  179.3700  139.8790 C   0  0  0  0  0  1  0  0  0  0  0  0
  184.1420  178.1120  140.5690 C   0  0  2  0  0  3  0  0  0  0  0  0
  183.2610  177.2780  139.6510 C   0  0  0  0  0  2  0  0  0  0  0  0
  183.5340  177.6050  138.2620 N   0  0  0  0  0  2  0  0  0  0  0  0
  182.3720  177.1950  137.4900 C   0  0  0  0  0  2  0  0  0  0  0  0
  180.8660  177.9160  138.2100 S   0  0  0  0  0  0  0  0  0  0  0  0
  181.2810  179.5870  137.6280 C   0  0  0  0  0  2  0  0  0  0  0  0
  181.3090  180.5550  138.7940 C   0  0  1  0  0  3  0  0  0  0  0  0
  181.4840  181.9620  138.2650 C   0  0  0  0  0  1  0  0  0  0  0  0
  180.1070  180.4760  139.4990 O   0  0  0  0  0  1  0  0  0  0  0  0
  1  4  1  0  0  0  0
  2  6  2  0  0  0  0
  3  7  1  0  0  0  0
  4  8  1  0  0  0  0
  4  7  2  0  0  0  0
  5  1  1  0  0  0  0
  5 10  2  0  0  0  0
  7  6  1  0  0  0  0
  8  2  1  0  0  0  0
  9  3  2  0  0  0  0
 10  8  1  0  0  0  0
 11  1  2  0  0  0  0
 11  9  1  0  0  0  0
 12  5  1  0  0  0  0
 13 12  2  0  0  0  0
 14 12  1  0  0  0  0
 15 14  2  0  0  0  0
 16 13  1  0  0  0  0
 17 16  2  0  0  0  0
 17 15  1  0  0  0  0
 19 17  1  0  0  0  0
 20 18  1  0  0  0  0
 20 19  1  0  0  0  0
 21 20  2  0  0  0  0
 22 11  1  0  0  0  0
 23 22  1  0  0  0  0
 23 26  1  0  0  0  0
 24 23  2  0  0  0  0
 25 26  2  0  0  0  0
 27 25  1  0  0  0  0
 28 24  1  0  0  0  0
 28 27  2  0  0  0  0
 30 29  1  6  0  0  0
 30 24  1  0  0  0  0
 31 30  1  0  0  0  0
 32 31  1  0  0  0  0
 33 34  1  0  0  0  0
 33 32  1  0  0  0  0
 35 34  1  0  0  0  0
 35 36  1  0  0  0  0
 36 37  1  6  0  0  0
 36 38  1  0  0  0  0
M  END
>  <MODEL>
3

>  <REMARK>
 VINA RESULT:      -9.2      2.083      2.995
  Name = 
  11 active torsions:
  status: ('A' for Active; 'I' for Inactive)
    1  A    between atoms: N_3  and  C_38
    2  A    between atoms: C_4  and  C_12
    3  A    between atoms: C_5  and  C_31
    4  A    between atoms: C_6  and  C_23
    5  A    between atoms: C_7  and  C_14
    6  A    between atoms: C_12  and  S_28
    7  A    between atoms: C_14  and  C_22
    8  A    between atoms: C_22  and  N_34
    9  A    between atoms: C_27  and  S_28
   10  A    between atoms: C_27  and  N_34
   11  A    between atoms: C_31  and  C_37
                            x       y       z     vdW  Elec       q    Type
                         _______ _______ _______ _____ _____    ______ ____

>  <TORSDO>
F 11

$$$$
=
 OpenBabel11042409583D

 38 42  0  0  1  0  0  0  0  0999 V2000
  187.1580  177.5440  144.8800 C   0  0  0  0  0  0  0  0  0  0  0  0
  189.0920  177.7500  147.5580 N   0  0  0  0  0  0  0  0  0  0  0  0
  185.7530  178.8390  146.9540 C   0  0  0  0  0  3  0  0  0  0  0  0
  187.4750  177.3930  146.1870 C   0  0  0  0  0  0  0  0  0  0  0  0
  188.3850  177.3340  144.2170 C   0  0  0  0  0  0  0  0  0  0  0  0
  187.9540  178.2910  148.0990 C   0  0  0  0  0  3  0  0  0  0  0  0
  186.9080  178.0880  147.1930 C   0  0  0  0  0  0  0  0  0  0  0  0
  188.7420  177.1990  146.4040 N   0  0  0  0  0  0  0  0  0  0  0  0
  185.2630  178.8740  145.6180 C   0  0  0  0  0  3  0  0  0  0  0  0
  189.3790  177.2030  145.2160 C   0  0  0  0  0  3  0  0  0  0  0  0
  185.9840  178.2590  144.5510 C   0  0  0  0  0  0  0  0  0  0  0  0
  188.6720  177.4370  142.7740 C   0  0  0  0  0  0  0  0  0  0  0  0
  188.0820  178.4540  142.0130 C   0  0  0  0  0  3  0  0  0  0  0  0
  189.5920  176.5750  142.1650 C   0  0  0  0  0  3  0  0  0  0  0  0
  189.8920  176.7050  140.8080 C   0  0  0  0  0  3  0  0  0  0  0  0
  188.3820  178.5840  140.6560 C   0  0  0  0  0  3  0  0  0  0  0  0
  189.2860  177.7060  140.0400 C   0  0  0  0  0  0  0  0  0  0  0  0
  187.3410  177.2270  137.6350 C   0  0  0  0  0  1  0  0  0  0  0  0
  189.6260  177.8060  138.6480 N   0  0  0  0  0  2  0  0  0  0  0  0
  188.7770  177.6050  137.5080 C   0  0  0  0  0  0  0  0  0  0  0  0
  189.2610  177.7470  136.3560 O   0  0  0  0  0  0  0  0  0  0  0  0
  185.5400  178.4760  143.1410 C   0  0  0  0  0  2  0  0  0  0  0  0
  184.0490  178.6020  143.0490 C   0  0  0  0  0  0  0  0  0  0  0  0
  183.3610  178.4570  141.8180 C   0  0  0  0  0  0  0  0  0  0  0  0
  181.9320  178.9840  144.1800 C   0  0  0  0  0  3  0  0  0  0  0  0
  183.3200  178.8530  144.2210 C   0  0  0  0  0  3  0  0  0  0  0  0
  181.2580  178.8650  142.9650 C   0  0  0  0  0  3  0  0  0  0  0  0
  181.9690  178.5980  141.7930 C   0  0  0  0  0  3  0  0  0  0  0  0
  184.4170  179.4070  139.7580 C   0  0  0  0  0  1  0  0  0  0  0  0
  184.0450  178.1430  140.5170 C   0  0  2  0  0  3  0  0  0  0  0  0
  183.2140  177.1960  139.6650 C   0  0  0  0  0  2  0  0  0  0  0  0
  183.2670  177.5990  138.2710 N   0  0  0  0  0  2  0  0  0  0  0  0
  182.1750  176.9230  137.5890 C   0  0  0  0  0  2  0  0  0  0  0  0
  182.2450  175.1390  137.9250 S   0  0  0  0  0  0  0  0  0  0  0  0
  180.4670  175.0460  138.2880 C   0  0  0  0  0  2  0  0  0  0  0  0
  180.2440  174.9160  139.7820 C   0  0  1  0  0  3  0  0  0  0  0  0
  179.5560  176.1640  140.2910 C   0  0  0  0  0  1  0  0  0  0  0  0
  179.4350  173.8090  140.0400 O   0  0  0  0  0  1  0  0  0  0  0  0
  1  4  1  0  0  0  0
  2  6  2  0  0  0  0
  3  7  1  0  0  0  0
  4  8  1  0  0  0  0
  4  7  2  0  0  0  0
  5  1  1  0  0  0  0
  5 10  2  0  0  0  0
  7  6  1  0  0  0  0
  8  2  1  0  0  0  0
  9  3  2  0  0  0  0
 10  8  1  0  0  0  0
 11  1  2  0  0  0  0
 11  9  1  0  0  0  0
 12  5  1  0  0  0  0
 13 12  2  0  0  0  0
 14 12  1  0  0  0  0
 15 14  2  0  0  0  0
 16 13  1  0  0  0  0
 17 16  2  0  0  0  0
 17 15  1  0  0  0  0
 19 17  1  0  0  0  0
 20 18  1  0  0  0  0
 20 19  1  0  0  0  0
 21 20  2  0  0  0  0
 22 11  1  0  0  0  0
 23 22  1  0  0  0  0
 23 26  1  0  0  0  0
 24 23  2  0  0  0  0
 25 26  2  0  0  0  0
 27 25  1  0  0  0  0
 28 24  1  0  0  0  0
 28 27  2  0  0  0  0
 30 29  1  6  0  0  0
 30 24  1  0  0  0  0
 31 30  1  0  0  0  0
 32 31  1  0  0  0  0
 33 34  1  0  0  0  0
 33 32  1  0  0  0  0
 34 35  1  0  0  0  0
 35 36  1  0  0  0  0
 36 38  1  0  0  0  0
 36 37  1  6  0  0  0
M  END
>  <MODEL>
4

>  <REMARK>
 VINA RESULT:      -9.2      1.701      2.061
  Name = 
  11 active torsions:
  status: ('A' for Active; 'I' for Inactive)
    1  A    between atoms: N_3  and  C_38
    2  A    between atoms: C_4  and  C_12
    3  A    between atoms: C_5  and  C_31
    4  A    between atoms: C_6  and  C_23
    5  A    between atoms: C_7  and  C_14
    6  A    between atoms: C_12  and  S_28
    7  A    between atoms: C_14  and  C_22
    8  A    between atoms: C_22  and  N_34
    9  A    between atoms: C_27  and  S_28
   10  A    between atoms: C_27  and  N_34
   11  A    between atoms: C_31  and  C_37
                            x       y       z     vdW  Elec       q    Type
                         _______ _______ _______ _____ _____    ______ ____

>  <TORSDO>
F 11

$$$$
=
 OpenBabel11042409583D

 38 42  0  0  1  0  0  0  0  0999 V2000
  189.4550  176.7930  144.9760 C   0  0  0  0  0  0  0  0  0  0  0  0
  192.1090  176.7390  146.9520 N   0  0  0  0  0  0  0  0  0  0  0  0
  188.7270  177.6910  147.5500 C   0  0  0  0  0  3  0  0  0  0  0  0
  190.1570  176.4790  146.0890 C   0  0  0  0  0  0  0  0  0  0  0  0
  190.4240  176.7570  143.9530 C   0  0  0  0  0  0  0  0  0  0  0  0
  191.1820  177.1250  147.8860 C   0  0  0  0  0  3  0  0  0  0  0  0
  189.9130  176.9870  147.3140 C   0  0  0  0  0  0  0  0  0  0  0  0
  191.4330  176.3360  145.8850 N   0  0  0  0  0  0  0  0  0  0  0  0
  187.8530  177.8830  146.4440 C   0  0  0  0  0  3  0  0  0  0  0  0
  191.6780  176.5480  144.5770 C   0  0  0  0  0  3  0  0  0  0  0  0
  188.2240  177.4730  145.1280 C   0  0  0  0  0  0  0  0  0  0  0  0
  190.2560  177.0810  142.5250 C   0  0  0  0  0  0  0  0  0  0  0  0
  191.3800  177.2400  141.7050 C   0  0  0  0  0  3  0  0  0  0  0  0
  188.9790  177.1550  141.9540 C   0  0  0  0  0  3  0  0  0  0  0  0
  188.8280  177.4200  140.5910 C   0  0  0  0  0  3  0  0  0  0  0  0
  191.2290  177.5040  140.3420 C   0  0  0  0  0  3  0  0  0  0  0  0
  189.9500  177.6020  139.7740 C   0  0  0  0  0  0  0  0  0  0  0  0
  189.8400  175.4610  137.4940 C   0  0  0  0  0  1  0  0  0  0  0  0
  189.7490  177.8680  138.3780 N   0  0  0  0  0  2  0  0  0  0  0  0
  189.6830  176.9300  137.2930 C   0  0  0  0  0  0  0  0  0  0  0  0
  189.4910  177.3590  136.1270 O   0  0  0  0  0  0  0  0  0  0  0  0
  187.3680  177.8590  143.9670 C   0  0  0  0  0  2  0  0  0  0  0  0
  185.9790  178.2150  144.4040 C   0  0  0  0  0  0  0  0  0  0  0  0
  184.9210  178.3790  143.4740 C   0  0  0  0  0  0  0  0  0  0  0  0
  184.4460  178.7080  146.2240 C   0  0  0  0  0  3  0  0  0  0  0  0
  185.7230  178.3710  145.7740 C   0  0  0  0  0  3  0  0  0  0  0  0
  183.4110  178.8930  145.3080 C   0  0  0  0  0  3  0  0  0  0  0  0
  183.6480  178.7240  143.9420 C   0  0  0  0  0  3  0  0  0  0  0  0
  185.7760  179.3780  141.3450 C   0  0  0  0  0  1  0  0  0  0  0  0
  185.0830  178.1890  141.9920 C   0  0  2  0  0  3  0  0  0  0  0  0
  183.7530  177.8780  141.3220 C   0  0  0  0  0  2  0  0  0  0  0  0
  183.5460  178.7580  140.1850 N   0  0  0  0  0  2  0  0  0  0  0  0
  182.5840  178.1070  139.3100 C   0  0  0  0  0  2  0  0  0  0  0  0
  183.1220  178.2560  137.5800 S   0  0  0  0  0  0  0  0  0  0  0  0
  184.1170  176.7370  137.6650 C   0  0  0  0  0  2  0  0  0  0  0  0
  185.4790  176.9690  137.0420 C   0  0  1  0  0  3  0  0  0  0  0  0
  186.1370  178.1530  137.7160 C   0  0  0  0  0  1  0  0  0  0  0  0
  186.2760  175.8380  137.2230 O   0  0  0  0  0  1  0  0  0  0  0  0
  1 11  2  0  0  0  0
  1  4  1  0  0  0  0
  2  6  2  0  0  0  0
  4  7  2  0  0  0  0
  5 10  2  0  0  0  0
  5  1  1  0  0  0  0
  7  3  1  0  0  0  0
  7  6  1  0  0  0  0
  8  4  1  0  0  0  0
  8  2  1  0  0  0  0
  9  3  2  0  0  0  0
 10  8  1  0  0  0  0
 11  9  1  0  0  0  0
 12  5  1  0  0  0  0
 13 12  2  0  0  0  0
 14 12  1  0  0  0  0
 15 14  2  0  0  0  0
 16 13  1  0  0  0  0
 17 16  2  0  0  0  0
 17 15  1  0  0  0  0
 19 17  1  0  0  0  0
 20 18  1  0  0  0  0
 20 19  1  0  0  0  0
 21 20  2  0  0  0  0
 22 23  1  0  0  0  0
 22 11  1  0  0  0  0
 23 26  1  0  0  0  0
 24 28  1  0  0  0  0
 24 23  2  0  0  0  0
 26 25  2  0  0  0  0
 27 25  1  0  0  0  0
 28 27  2  0  0  0  0
 30 29  1  6  0  0  0
 30 24  1  0  0  0  0
 31 30  1  0  0  0  0
 32 31  1  0  0  0  0
 33 32  1  0  0  0  0
 34 35  1  0  0  0  0
 34 33  1  0  0  0  0
 36 38  1  0  0  0  0
 36 35  1  0  0  0  0
 36 37  1  1  0  0  0
M  END
>  <MODEL>
5

>  <REMARK>
 VINA RESULT:      -9.1      1.876      2.787
  Name = 
  11 active torsions:
  status: ('A' for Active; 'I' for Inactive)
    1  A    between atoms: N_3  and  C_38
    2  A    between atoms: C_4  and  C_12
    3  A    between atoms: C_5  and  C_31
    4  A    between atoms: C_6  and  C_23
    5  A    between atoms: C_7  and  C_14
    6  A    between atoms: C_12  and  S_28
    7  A    between atoms: C_14  and  C_22
    8  A    between atoms: C_22  and  N_34
    9  A    between atoms: C_27  and  S_28
   10  A    between atoms: C_27  and  N_34
   11  A    between atoms: C_31  and  C_37
                            x       y       z     vdW  Elec       q    Type
                         _______ _______ _______ _____ _____    ______ ____

>  <TORSDO>
F 11

$$$$
=
 OpenBabel11042409583D

 38 42  0  0  1  0  0  0  0  0999 V2000
  186.0030  178.5550  143.6710 C   0  0  0  0  0  0  0  0  0  0  0  0
  184.0030  178.7930  146.2970 N   0  0  0  0  0  0  0  0  0  0  0  0
  187.3060  177.5020  145.9410 C   0  0  0  0  0  3  0  0  0  0  0  0
  185.6640  178.8950  144.9360 C   0  0  0  0  0  0  0  0  0  0  0  0
  184.8010  178.7190  142.9520 C   0  0  0  0  0  0  0  0  0  0  0  0
  185.1050  178.2880  146.9390 C   0  0  0  0  0  3  0  0  0  0  0  0
  186.1790  178.3240  146.0430 C   0  0  0  0  0  0  0  0  0  0  0  0
  184.4020  179.1670  145.0890 N   0  0  0  0  0  0  0  0  0  0  0  0
  187.8230  177.2650  144.6360 C   0  0  0  0  0  3  0  0  0  0  0  0
  183.7910  179.0250  143.8960 C   0  0  0  0  0  3  0  0  0  0  0  0
  187.1520  177.7550  143.4760 C   0  0  0  0  0  0  0  0  0  0  0  0
  184.5420  178.4300  141.5300 C   0  0  0  0  0  0  0  0  0  0  0  0
  183.4300  177.6620  141.1620 C   0  0  0  0  0  3  0  0  0  0  0  0
  185.3510  178.9820  140.5290 C   0  0  0  0  0  3  0  0  0  0  0  0
  185.0750  178.7400  139.1820 C   0  0  0  0  0  3  0  0  0  0  0  0
  183.1530  177.4200  139.8150 C   0  0  0  0  0  3  0  0  0  0  0  0
  183.9780  177.9530  138.8120 C   0  0  0  0  0  0  0  0  0  0  0  0
  185.0690  175.5680  137.1050 C   0  0  0  0  0  1  0  0  0  0  0  0
  183.7280  177.7330  137.4160 N   0  0  0  0  0  2  0  0  0  0  0  0
  184.1940  176.6580  136.5870 C   0  0  0  0  0  0  0  0  0  0  0  0
  183.8600  176.6330  135.3750 O   0  0  0  0  0  0  0  0  0  0  0  0
  187.6180  177.3300  142.1210 C   0  0  0  0  0  2  0  0  0  0  0  0
  189.1110  177.4040  142.0060 C   0  0  0  0  0  0  0  0  0  0  0  0
  189.7680  177.3280  140.7530 C   0  0  0  0  0  0  0  0  0  0  0  0
  191.2610  177.6420  143.1130 C   0  0  0  0  0  3  0  0  0  0  0  0
  189.8690  177.5730  143.1740 C   0  0  0  0  0  3  0  0  0  0  0  0
  191.9100  177.5420  141.8820 C   0  0  0  0  0  3  0  0  0  0  0  0
  191.1660  177.3910  140.7100 C   0  0  0  0  0  3  0  0  0  0  0  0
  189.7270  176.1910  138.5240 C   0  0  0  0  0  1  0  0  0  0  0  0
  189.0450  177.1930  139.4430 C   0  0  2  0  0  3  0  0  0  0  0  0
  188.8580  178.5430  138.7680 C   0  0  0  0  0  2  0  0  0  0  0  0
  188.9850  178.4050  137.3270 N   0  0  0  0  0  2  0  0  0  0  0  0
  187.6660  178.6300  136.7580 C   0  0  0  0  0  2  0  0  0  0  0  0
  187.5220  177.7600  135.1680 S   0  0  0  0  0  0  0  0  0  0  0  0
  189.3180  177.5040  135.0440 C   0  0  0  0  0  2  0  0  0  0  0  0
  189.6150  176.0850  134.6030 C   0  0  1  0  0  3  0  0  0  0  0  0
  191.0400  175.7390  134.9750 C   0  0  0  0  0  1  0  0  0  0  0  0
  188.7450  175.2020  135.2440 O   0  0  0  0  0  1  0  0  0  0  0  0
  1  4  1  0  0  0  0
  2  6  2  0  0  0  0
  3  7  1  0  0  0  0
  4  8  1  0  0  0  0
  4  7  2  0  0  0  0
  5  1  1  0  0  0  0
  5 10  2  0  0  0  0
  7  6  1  0  0  0  0
  8  2  1  0  0  0  0
  9  3  2  0  0  0  0
 10  8  1  0  0  0  0
 11  1  2  0  0  0  0
 11  9  1  0  0  0  0
 12  5  1  0  0  0  0
 13 12  1  0  0  0  0
 14 12  2  0  0  0  0
 15 14  1  0  0  0  0
 16 13  2  0  0  0  0
 17 15  2  0  0  0  0
 17 16  1  0  0  0  0
 19 17  1  0  0  0  0
 20 18  1  0  0  0  0
 20 19  1  0  0  0  0
 21 20  2  0  0  0  0
 22 11  1  0  0  0  0
 23 22  1  0  0  0  0
 23 26  1  0  0  0  0
 24 23  2  0  0  0  0
 25 26  2  0  0  0  0
 27 25  1  0  0  0  0
 28 24  1  0  0  0  0
 28 27  2  0  0  0  0
 30 29  1  6  0  0  0
 30 24  1  0  0  0  0
 31 30  1  0  0  0  0
 32 31  1  0  0  0  0
 33 32  1  0  0  0  0
 34 33  1  0  0  0  0
 35 34  1  0  0  0  0
 36 37  1  1  0  0  0
 36 35  1  0  0  0  0
 36 38  1  0  0  0  0
M  END
>  <MODEL>
6

>  <REMARK>
 VINA RESULT:      -8.9      2.166      5.513
  Name = 
  11 active torsions:
  status: ('A' for Active; 'I' for Inactive)
    1  A    between atoms: N_3  and  C_38
    2  A    between atoms: C_4  and  C_12
    3  A    between atoms: C_5  and  C_31
    4  A    between atoms: C_6  and  C_23
    5  A    between atoms: C_7  and  C_14
    6  A    between atoms: C_12  and  S_28
    7  A    between atoms: C_14  and  C_22
    8  A    between atoms: C_22  and  N_34
    9  A    between atoms: C_27  and  S_28
   10  A    between atoms: C_27  and  N_34
   11  A    between atoms: C_31  and  C_37
                            x       y       z     vdW  Elec       q    Type
                         _______ _______ _______ _____ _____    ______ ____

>  <TORSDO>
F 11

$$$$
=
 OpenBabel11042409583D

 38 42  0  0  1  0  0  0  0  0999 V2000
  186.0500  178.5210  143.6840 C   0  0  0  0  0  0  0  0  0  0  0  0
  184.1780  178.6380  146.4100 N   0  0  0  0  0  0  0  0  0  0  0  0
  187.5110  177.4980  145.8700 C   0  0  0  0  0  3  0  0  0  0  0  0
  185.7620  178.8300  144.9690 C   0  0  0  0  0  0  0  0  0  0  0  0
  184.8080  178.6410  143.0280 C   0  0  0  0  0  0  0  0  0  0  0  0
  185.3320  178.1730  146.9880 C   0  0  0  0  0  3  0  0  0  0  0  0
  186.3560  178.2680  146.0410 C   0  0  0  0  0  0  0  0  0  0  0  0
  184.4990  179.0440  145.1890 N   0  0  0  0  0  0  0  0  0  0  0  0
  187.9720  177.3010  144.5370 C   0  0  0  0  0  3  0  0  0  0  0  0
  183.8350  178.8910  144.0260 C   0  0  0  0  0  3  0  0  0  0  0  0
  187.2220  177.7760  143.4190 C   0  0  0  0  0  0  0  0  0  0  0  0
  184.4900  178.3610  141.6170 C   0  0  0  0  0  0  0  0  0  0  0  0
  183.4290  177.5040  141.2950 C   0  0  0  0  0  3  0  0  0  0  0  0
  185.1860  179.0020  140.5850 C   0  0  0  0  0  3  0  0  0  0  0  0
  184.8510  178.7640  139.2510 C   0  0  0  0  0  3  0  0  0  0  0  0
  183.0940  177.2660  139.9600 C   0  0  0  0  0  3  0  0  0  0  0  0
  183.8070  177.8910  138.9250 C   0  0  0  0  0  0  0  0  0  0  0  0
  181.3930  179.1420  137.3760 C   0  0  0  0  0  1  0  0  0  0  0  0
  183.4940  177.6780  137.5410 N   0  0  0  0  0  2  0  0  0  0  0  0
  182.4090  178.2290  136.7790 C   0  0  0  0  0  0  0  0  0  0  0  0
  182.3030  177.9270  135.5620 O   0  0  0  0  0  0  0  0  0  0  0  0
  187.6370  177.3890  142.0370 C   0  0  0  0  0  2  0  0  0  0  0  0
  189.1270  177.4290  141.8800 C   0  0  0  0  0  0  0  0  0  0  0  0
  189.7490  177.3010  140.6130 C   0  0  0  0  0  0  0  0  0  0  0  0
  191.3110  177.6530  142.9210 C   0  0  0  0  0  3  0  0  0  0  0  0
  189.9200  177.6160  143.0210 C   0  0  0  0  0  3  0  0  0  0  0  0
  191.9240  177.5030  141.6780 C   0  0  0  0  0  3  0  0  0  0  0  0
  191.1450  177.3330  140.5310 C   0  0  0  0  0  3  0  0  0  0  0  0
  189.7170  176.2340  138.3490 C   0  0  0  0  0  1  0  0  0  0  0  0
  188.9870  177.1420  139.3270 C   0  0  2  0  0  3  0  0  0  0  0  0
  188.6550  178.4910  138.7060 C   0  0  0  0  0  2  0  0  0  0  0  0
  188.8770  178.4500  137.2710 N   0  0  0  0  0  2  0  0  0  0  0  0
  187.5960  178.7030  136.6320 C   0  0  0  0  0  2  0  0  0  0  0  0
  187.3070  177.4800  135.3190 S   0  0  0  0  0  0  0  0  0  0  0  0
  186.5050  176.3130  136.4590 C   0  0  0  0  0  2  0  0  0  0  0  0
  186.8390  174.8870  136.0690 C   0  0  1  0  0  3  0  0  0  0  0  0
  188.1130  174.8830  135.2520 C   0  0  0  0  0  1  0  0  0  0  0  0
  187.0290  174.1180  137.2180 O   0  0  0  0  0  1  0  0  0  0  0  0
  1  4  1  0  0  0  0
  2  6  2  0  0  0  0
  3  7  1  0  0  0  0
  4  8  1  0  0  0  0
  4  7  2  0  0  0  0
  5  1  1  0  0  0  0
  5 10  2  0  0  0  0
  7  6  1  0  0  0  0
  8  2  1  0  0  0  0
  9  3  2  0  0  0  0
 10  8  1  0  0  0  0
 11  1  2  0  0  0  0
 11  9  1  0  0  0  0
 12  5  1  0  0  0  0
 13 12  1  0  0  0  0
 14 12  2  0  0  0  0
 15 14  1  0  0  0  0
 16 13  2  0  0  0  0
 17 15  2  0  0  0  0
 17 16  1  0  0  0  0
 19 17  1  0  0  0  0
 20 18  1  0  0  0  0
 20 19  1  0  0  0  0
 21 20  2  0  0  0  0
 22 11  1  0  0  0  0
 23 22  1  0  0  0  0
 23 26  1  0  0  0  0
 24 23  2  0  0  0  0
 25 26  2  0  0  0  0
 27 25  1  0  0  0  0
 28 24  1  0  0  0  0
 28 27  2  0  0  0  0
 30 29  1  6  0  0  0
 30 24  1  0  0  0  0
 31 30  1  0  0  0  0
 32 31  1  0  0  0  0
 33 32  1  0  0  0  0
 34 35  1  0  0  0  0
 34 33  1  0  0  0  0
 36 37  1  6  0  0  0
 36 35  1  0  0  0  0
 36 38  1  0  0  0  0
M  END
>  <MODEL>
7

>  <REMARK>
 VINA RESULT:      -8.7      2.233      5.434
  Name = 
  11 active torsions:
  status: ('A' for Active; 'I' for Inactive)
    1  A    between atoms: N_3  and  C_38
    2  A    between atoms: C_4  and  C_12
    3  A    between atoms: C_5  and  C_31
    4  A    between atoms: C_6  and  C_23
    5  A    between atoms: C_7  and  C_14
    6  A    between atoms: C_12  and  S_28
    7  A    between atoms: C_14  and  C_22
    8  A    between atoms: C_22  and  N_34
    9  A    between atoms: C_27  and  S_28
   10  A    between atoms: C_27  and  N_34
   11  A    between atoms: C_31  and  C_37
                            x       y       z     vdW  Elec       q    Type
                         _______ _______ _______ _____ _____    ______ ____

>  <TORSDO>
F 11

$$$$
=
 OpenBabel11042409583D

 38 42  0  0  1  0  0  0  0  0999 V2000
  182.3210  178.9860  141.5160 C   0  0  0  0  0  0  0  0  0  0  0  0
  179.0700  178.4970  141.1360 N   0  0  0  0  0  0  0  0  0  0  0  0
  181.1230  178.6330  144.0460 C   0  0  0  0  0  3  0  0  0  0  0  0
  181.0050  179.2080  141.7430 C   0  0  0  0  0  0  0  0  0  0  0  0
  182.3640  178.6250  140.1540 C   0  0  0  0  0  0  0  0  0  0  0  0
  179.1050  178.5020  142.5070 C   0  0  0  0  0  3  0  0  0  0  0  0
  180.3750  178.9340  142.9030 C   0  0  0  0  0  0  0  0  0  0  0  0
  180.2430  178.9540  140.7220 N   0  0  0  0  0  0  0  0  0  0  0  0
  182.5380  178.5760  143.9020 C   0  0  0  0  0  3  0  0  0  0  0  0
  181.0240  178.5340  139.7060 C   0  0  0  0  0  3  0  0  0  0  0  0
  183.1560  178.7110  142.6230 C   0  0  0  0  0  0  0  0  0  0  0  0
  183.5310  178.2040  139.3580 C   0  0  0  0  0  0  0  0  0  0  0  0
  183.4710  177.0320  138.5930 C   0  0  0  0  0  3  0  0  0  0  0  0
  184.6790  179.0030  139.2940 C   0  0  0  0  0  3  0  0  0  0  0  0
  185.7650  178.6200  138.5040 C   0  0  0  0  0  3  0  0  0  0  0  0
  184.5570  176.6490  137.8030 C   0  0  0  0  0  3  0  0  0  0  0  0
  185.7170  177.4380  137.7560 C   0  0  0  0  0  0  0  0  0  0  0  0
  188.6730  177.2170  138.7590 C   0  0  0  0  0  1  0  0  0  0  0  0
  186.8540  177.0830  136.9550 N   0  0  0  0  0  2  0  0  0  0  0  0
  188.2250  176.9600  137.3610 C   0  0  0  0  0  0  0  0  0  0  0  0
  189.0870  176.6300  136.5060 O   0  0  0  0  0  0  0  0  0  0  0  0
  184.6220  178.4580  142.4840 C   0  0  0  0  0  2  0  0  0  0  0  0
  185.2990  178.4050  143.8210 C   0  0  0  0  0  0  0  0  0  0  0  0
  186.5950  177.8530  143.9800 C   0  0  0  0  0  0  0  0  0  0  0  0
  185.2230  178.8990  146.1990 C   0  0  0  0  0  3  0  0  0  0  0  0
  184.6320  178.9340  144.9350 C   0  0  0  0  0  3  0  0  0  0  0  0
  186.4870  178.3350  146.3600 C   0  0  0  0  0  3  0  0  0  0  0  0
  187.1700  177.8200  145.2560 C   0  0  0  0  0  3  0  0  0  0  0  0
  188.0970  176.0010  143.2220 C   0  0  0  0  0  1  0  0  0  0  0  0
  187.4090  177.3030  142.8430 C   0  0  2  0  0  3  0  0  0  0  0  0
  188.3980  178.3330  142.3170 C   0  0  0  0  0  2  0  0  0  0  0  0
  189.7580  177.9240  142.6240 N   0  0  0  0  0  2  0  0  0  0  0  0
  190.2530  178.8230  143.6530 C   0  0  0  0  0  2  0  0  0  0  0  0
  191.8630  178.2390  144.2630 S   0  0  0  0  0  0  0  0  0  0  0  0
  191.1350  176.7650  145.0370 C   0  0  0  0  0  2  0  0  0  0  0  0
  191.3790  176.7840  146.5320 C   0  0  1  0  0  3  0  0  0  0  0  0
  190.0490  176.7410  147.2520 C   0  0  0  0  0  1  0  0  0  0  0  0
  192.1350  175.6690  146.8990 O   0  0  0  0  0  1  0  0  0  0  0  0
  1  4  2  0  0  0  0
  1 11  1  0  0  0  0
  2  6  2  0  0  0  0
  4  7  1  0  0  0  0
  5  1  1  0  0  0  0
  6  7  1  0  0  0  0
  7  3  2  0  0  0  0
  8  2  1  0  0  0  0
  8  4  1  0  0  0  0
  9  3  1  0  0  0  0
 10  5  2  0  0  0  0
 10  8  1  0  0  0  0
 11  9  2  0  0  0  0
 12  5  1  0  0  0  0
 13 12  2  0  0  0  0
 14 12  1  0  0  0  0
 15 14  2  0  0  0  0
 16 13  1  0  0  0  0
 17 16  2  0  0  0  0
 17 15  1  0  0  0  0
 19 20  1  0  0  0  0
 19 17  1  0  0  0  0
 20 18  1  0  0  0  0
 21 20  2  0  0  0  0
 22 11  1  0  0  0  0
 22 23  1  0  0  0  0
 23 24  2  0  0  0  0
 23 26  1  0  0  0  0
 24 28  1  0  0  0  0
 25 27  1  0  0  0  0
 26 25  2  0  0  0  0
 28 27  2  0  0  0  0
 30 29  1  1  0  0  0
 30 24  1  0  0  0  0
 31 32  1  0  0  0  0
 31 30  1  0  0  0  0
 32 33  1  0  0  0  0
 33 34  1  0  0  0  0
 34 35  1  0  0  0  0
 35 36  1  0  0  0  0
 36 38  1  0  0  0  0
 36 37  1  1  0  0  0
M  END
>  <MODEL>
8

>  <REMARK>
 VINA RESULT:      -8.7      3.250      7.168
  Name = 
  11 active torsions:
  status: ('A' for Active; 'I' for Inactive)
    1  A    between atoms: N_3  and  C_38
    2  A    between atoms: C_4  and  C_12
    3  A    between atoms: C_5  and  C_31
    4  A    between atoms: C_6  and  C_23
    5  A    between atoms: C_7  and  C_14
    6  A    between atoms: C_12  and  S_28
    7  A    between atoms: C_14  and  C_22
    8  A    between atoms: C_22  and  N_34
    9  A    between atoms: C_27  and  S_28
   10  A    between atoms: C_27  and  N_34
   11  A    between atoms: C_31  and  C_37
                            x       y       z     vdW  Elec       q    Type
                         _______ _______ _______ _____ _____    ______ ____

>  <TORSDO>
F 11

$$$$
=
 OpenBabel11042409583D

 38 42  0  0  1  0  0  0  0  0999 V2000
  184.7890  178.4450  138.7060 C   0  0  0  0  0  0  0  0  0  0  0  0
  182.6330  176.7320  136.8700 N   0  0  0  0  0  0  0  0  0  0  0  0
  182.3600  178.1780  140.1160 C   0  0  0  0  0  3  0  0  0  0  0  0
  183.6060  178.2080  138.0930 C   0  0  0  0  0  0  0  0  0  0  0  0
  185.7340  177.8670  137.8340 C   0  0  0  0  0  0  0  0  0  0  0  0
  181.8040  177.0170  137.9250 C   0  0  0  0  0  3  0  0  0  0  0  0
  182.4500  177.9540  138.7380 C   0  0  0  0  0  0  0  0  0  0  0  0
  183.7070  177.4970  137.0090 N   0  0  0  0  0  0  0  0  0  0  0  0
  183.5380  178.6180  140.7830 C   0  0  0  0  0  3  0  0  0  0  0  0
  185.0080  177.2030  136.8160 C   0  0  0  0  0  3  0  0  0  0  0  0
  184.7830  178.7170  140.0930 C   0  0  0  0  0  0  0  0  0  0  0  0
  187.1940  177.7570  138.0130 C   0  0  0  0  0  0  0  0  0  0  0  0
  188.0410  178.7330  137.4740 C   0  0  0  0  0  3  0  0  0  0  0  0
  187.7440  176.7270  138.7860 C   0  0  0  0  0  3  0  0  0  0  0  0
  189.1240  176.6540  138.9870 C   0  0  0  0  0  3  0  0  0  0  0  0
  189.4210  178.6600  137.6750 C   0  0  0  0  0  3  0  0  0  0  0  0
  189.9750  177.6150  138.4290 C   0  0  0  0  0  0  0  0  0  0  0  0
  191.9680  175.8170  136.8210 C   0  0  0  0  0  1  0  0  0  0  0  0
  191.3870  177.5030  138.6640 N   0  0  0  0  0  2  0  0  0  0  0  0
  192.3470  176.7040  137.9570 C   0  0  0  0  0  0  0  0  0  0  0  0
  193.5530  176.7450  138.3090 O   0  0  0  0  0  0  0  0  0  0  0  0
  186.0310  179.0000  140.8650 C   0  0  0  0  0  2  0  0  0  0  0  0
  185.8400  178.7460  142.3300 C   0  0  0  0  0  0  0  0  0  0  0  0
  186.7310  177.9290  143.0690 C   0  0  0  0  0  0  0  0  0  0  0  0
  184.5380  179.1380  144.3440 C   0  0  0  0  0  3  0  0  0  0  0  0
  184.7570  179.3520  142.9830 C   0  0  0  0  0  3  0  0  0  0  0  0
  185.4010  178.3150  145.0660 C   0  0  0  0  0  3  0  0  0  0  0  0
  186.4940  177.7190  144.4320 C   0  0  0  0  0  3  0  0  0  0  0  0
  188.3190  176.0010  143.2170 C   0  0  0  0  0  1  0  0  0  0  0  0
  187.9450  177.2720  142.4730 C   0  0  2  0  0  3  0  0  0  0  0  0
  189.1150  178.2400  142.3830 C   0  0  0  0  0  2  0  0  0  0  0  0
  190.3690  177.5280  142.5560 N   0  0  0  0  0  2  0  0  0  0  0  0
  191.1260  178.2360  143.5760 C   0  0  0  0  0  2  0  0  0  0  0  0
  191.3050  177.1890  145.0510 S   0  0  0  0  0  0  0  0  0  0  0  0
  189.8430  177.9150  145.8520 C   0  0  0  0  0  2  0  0  0  0  0  0
  189.7780  177.4900  147.3050 C   0  0  1  0  0  3  0  0  0  0  0  0
  188.3510  177.1230  147.6500 C   0  0  0  0  0  1  0  0  0  0  0  0
  190.5990  176.3790  147.5070 O   0  0  0  0  0  1  0  0  0  0  0  0
  1 11  1  0  0  0  0
  2  8  1  0  0  0  0
  2  6  2  0  0  0  0
  3  9  1  0  0  0  0
  4  1  2  0  0  0  0
  4  7  1  0  0  0  0
  5 12  1  0  0  0  0
  5  1  1  0  0  0  0
  6  7  1  0  0  0  0
  7  3  2  0  0  0  0
  8  4  1  0  0  0  0
 10  8  1  0  0  0  0
 10  5  2  0  0  0  0
 11  9  2  0  0  0  0
 11 22  1  0  0  0  0
 12 14  1  0  0  0  0
 13 16  1  0  0  0  0
 13 12  2  0  0  0  0
 14 15  2  0  0  0  0
 16 17  2  0  0  0  0
 17 19  1  0  0  0  0
 17 15  1  0  0  0  0
 18 20  1  0  0  0  0
 20 21  2  0  0  0  0
 20 19  1  0  0  0  0
 22 23  1  0  0  0  0
 23 26  2  0  0  0  0
 23 24  1  0  0  0  0
 24 28  2  0  0  0  0
 25 27  2  0  0  0  0
 26 25  1  0  0  0  0
 28 27  1  0  0  0  0
 30 24  1  0  0  0  0
 30 29  1  1  0  0  0
 31 30  1  0  0  0  0
 31 32  1  0  0  0  0
 32 33  1  0  0  0  0
 33 34  1  0  0  0  0
 34 35  1  0  0  0  0
 35 36  1  0  0  0  0
 36 38  1  0  0  0  0
 36 37  1  6  0  0  0
M  END
>  <MODEL>
9

>  <REMARK>
 VINA RESULT:      -8.6      3.256      7.304
  Name = 
  11 active torsions:
  status: ('A' for Active; 'I' for Inactive)
    1  A    between atoms: N_3  and  C_38
    2  A    between atoms: C_4  and  C_12
    3  A    between atoms: C_5  and  C_31
    4  A    between atoms: C_6  and  C_23
    5  A    between atoms: C_7  and  C_14
    6  A    between atoms: C_12  and  S_28
    7  A    between atoms: C_14  and  C_22
    8  A    between atoms: C_22  and  N_34
    9  A    between atoms: C_27  and  S_28
   10  A    between atoms: C_27  and  N_34
   11  A    between atoms: C_31  and  C_37
                            x       y       z     vdW  Elec       q    Type
                         _______ _______ _______ _____ _____    ______ ____

>  <TORSDO>
F 11

$$$$
