=
 OpenBabel11042410273D

 35 37  0  0  1  0  0  0  0  0999 V2000
  190.4960  176.5360  140.8790 O   0  0  0  0  0  1  0  0  0  0  0  0
  189.4970  176.8260  138.7250 C   0  0  0  0  0  0  0  0  0  0  0  0
  187.5890  178.3470  140.0490 N   0  0  0  0  0  0  0  0  0  0  0  0
  190.3250  175.8020  138.1330 N   0  0  0  0  0  0  0  0  0  0  0  0
  189.8630  177.4680  140.0510 C   0  0  1  0  0  3  0  0  0  0  0  0
  188.4220  177.2180  138.1010 N   0  0  0  0  0  0  0  0  0  0  0  0
  187.5970  178.3210  138.5900 C   0  0  0  0  0  2  0  0  0  0  0  0
  188.6290  177.9900  140.7450 C   0  0  0  0  0  0  0  0  0  0  0  0
  189.7650  174.8030  137.2270 C   0  0  2  0  0  3  0  0  0  0  0  0
  190.4880  173.6110  137.3180 O   0  0  0  0  0  1  0  0  0  0  0  0
  189.7930  175.2780  135.9140 O   0  0  0  0  0  0  0  0  0  0  0  0
  188.8110  174.5450  135.2440 C   0  0  0  0  0  2  0  0  0  0  0  0
  187.4960  175.3100  135.2360 C   0  0  0  0  0  2  0  0  0  0  0  0
  184.4470  174.6270  137.4380 C   0  0  0  0  0  0  0  0  0  0  0  0
  185.3650  175.3160  136.6210 C   0  0  0  0  0  0  0  0  0  0  0  0
  186.4660  174.6220  136.0780 C   0  0  0  0  0  0  0  0  0  0  0  0
  185.1670  176.7700  136.3310 C   0  0  0  0  0  1  0  0  0  0  0  0
  186.6350  173.2600  136.3530 C   0  0  0  0  0  3  0  0  0  0  0  0
  184.6310  173.2660  137.7000 C   0  0  0  0  0  3  0  0  0  0  0  0
  185.7200  172.5830  137.1600 C   0  0  0  0  0  3  0  0  0  0  0  0
  183.0600  175.4360  138.1510 Cl  0  0  0  0  0  0  0  0  0  0  0  0
  187.7750  177.4450  142.9160 C   0  0  0  0  0  3  0  0  0  0  0  0
  188.6170  178.0920  142.1750 N   0  0  0  0  0  0  0  0  0  0  0  0
  187.7640  177.5430  144.3880 C   0  0  0  0  0  0  0  0  0  0  0  0
  185.3470  178.3630  144.5500 C   0  0  0  0  0  1  0  0  0  0  0  0
  188.9500  177.1920  145.0450 C   0  0  0  0  0  3  0  0  0  0  0  0
  189.0440  177.2610  146.4360 C   0  0  0  0  0  3  0  0  0  0  0  0
  186.6510  177.9660  145.1580 C   0  0  0  0  0  0  0  0  0  0  0  0
  187.9480  177.6820  147.1880 C   0  0  0  0  0  0  0  0  0  0  0  0
  186.7570  178.0340  146.5500 C   0  0  0  0  0  3  0  0  0  0  0  0
  188.0410  177.7550  148.5710 O   0  0  0  0  0  1  0  0  0  0  0  0
  191.7410  175.6800  138.4600 C   0  0  0  0  0  2  0  0  0  0  0  0
  192.5760  176.6160  137.5950 C   0  0  0  0  0  2  0  0  0  0  0  0
  193.9130  176.0800  137.4010 N   0  0  0  0  0  2  0  0  0  0  0  0
  193.8570  174.6640  137.7160 C   0  0  0  0  0  1  0  0  0  0  0  0
  2  5  1  0  0  0  0
  3  8  2  0  0  0  0
  4 32  1  0  0  0  0
  4  2  1  0  0  0  0
  5  8  1  0  0  0  0
  5  1  1  1  0  0  0
  6  7  1  0  0  0  0
  6  2  2  0  0  0  0
  7  3  1  0  0  0  0
  8 23  1  0  0  0  0
  9 10  1  6  0  0  0
  9  4  1  0  0  0  0
 11  9  1  0  0  0  0
 12 11  1  0  0  0  0
 13 12  1  0  0  0  0
 13 16  1  0  0  0  0
 14 19  1  0  0  0  0
 14 21  1  0  0  0  0
 15 14  2  0  0  0  0
 16 18  2  0  0  0  0
 16 15  1  0  0  0  0
 17 15  1  0  0  0  0
 18 20  1  0  0  0  0
 20 19  2  0  0  0  0
 22 24  1  0  0  0  0
 23 22  2  0  0  0  0
 24 26  2  0  0  0  0
 24 28  1  0  0  0  0
 25 28  1  0  0  0  0
 26 27  1  0  0  0  0
 27 29  2  0  0  0  0
 28 30  2  0  0  0  0
 29 31  1  0  0  0  0
 30 29  1  0  0  0  0
 33 32  1  0  0  0  0
 34 33  1  0  0  0  0
 34 35  1  0  0  0  0
M  END
>  <MODEL>
1

>  <REMARK>
 VINA RESULT:      -7.7      0.000      0.000
  Name = 
  10 active torsions:
  status: ('A' for Active; 'I' for Inactive)
    1  A    between atoms: C_3  and  C_7
    2  A    between atoms: C_5  and  N_6
    3  A    between atoms: C_5  and  O_8
    4  A    between atoms: N_6  and  C_12
    5  A    between atoms: O_8  and  C_17
    6  A    between atoms: N_10  and  C_28
    7  A    between atoms: C_12  and  C_19
    8  A    between atoms: C_14  and  C_16
    9  A    between atoms: C_14  and  C_17
   10  A    between atoms: C_19  and  N_21
                            x       y       z     vdW  Elec       q    Type
                         _______ _______ _______ _____ _____    ______ ____

>  <TORSDO>
F 10

$$$$
=
 OpenBabel11042410273D

 35 37  0  0  1  0  0  0  0  0999 V2000
  186.3140  178.4230  141.3380 O   0  0  0  0  0  1  0  0  0  0  0  0
  183.9620  178.7690  141.6060 C   0  0  0  0  0  0  0  0  0  0  0  0
  184.4290  178.3820  144.3160 N   0  0  0  0  0  0  0  0  0  0  0  0
  183.7220  178.6690  140.1860 N   0  0  0  0  0  0  0  0  0  0  0  0
  185.3540  179.0290  142.1540 C   0  0  1  0  0  3  0  0  0  0  0  0
  182.9620  178.6490  142.4330 N   0  0  0  0  0  0  0  0  0  0  0  0
  183.1160  178.8430  143.8730 C   0  0  0  0  0  2  0  0  0  0  0  0
  185.4800  178.4850  143.5570 C   0  0  0  0  0  0  0  0  0  0  0  0
  182.6030  177.8920  139.6580 C   0  0  2  0  0  3  0  0  0  0  0  0
  181.3940  178.4130  140.1230 O   0  0  0  0  0  1  0  0  0  0  0  0
  182.7260  176.5550  140.0410 O   0  0  0  0  0  0  0  0  0  0  0  0
  181.7890  175.8700  139.2640 C   0  0  0  0  0  2  0  0  0  0  0  0
  182.2460  175.8160  137.8130 C   0  0  0  0  0  2  0  0  0  0  0  0
  182.7010  172.2000  136.6600 C   0  0  0  0  0  0  0  0  0  0  0  0
  182.0910  173.4450  136.9120 C   0  0  0  0  0  0  0  0  0  0  0  0
  182.8500  174.4850  137.4870 C   0  0  0  0  0  0  0  0  0  0  0  0
  180.6520  173.6580  136.5660 C   0  0  0  0  0  1  0  0  0  0  0  0
  184.1980  174.2730  137.7990 C   0  0  0  0  0  3  0  0  0  0  0  0
  184.0490  172.0060  136.9780 C   0  0  0  0  0  3  0  0  0  0  0  0
  184.7970  173.0380  137.5450 C   0  0  0  0  0  3  0  0  0  0  0  0
  181.8080  170.8610  135.9540 Cl  0  0  0  0  0  0  0  0  0  0  0  0
  187.0550  178.0330  145.3050 C   0  0  0  0  0  3  0  0  0  0  0  0
  186.7690  178.0890  144.0430 N   0  0  0  0  0  0  0  0  0  0  0  0
  188.3790  177.6190  145.8090 C   0  0  0  0  0  0  0  0  0  0  0  0
  187.7690  177.8510  148.2820 C   0  0  0  0  0  1  0  0  0  0  0  0
  189.3420  177.3030  144.8440 C   0  0  0  0  0  3  0  0  0  0  0  0
  190.6290  176.9100  145.2200 C   0  0  0  0  0  3  0  0  0  0  0  0
  188.7240  177.5310  147.1810 C   0  0  0  0  0  0  0  0  0  0  0  0
  190.9650  176.8290  146.5700 C   0  0  0  0  0  0  0  0  0  0  0  0
  190.0160  177.1400  147.5460 C   0  0  0  0  0  3  0  0  0  0  0  0
  192.2440  176.4440  146.9460 O   0  0  0  0  0  1  0  0  0  0  0  0
  184.6180  179.2840  139.2140 C   0  0  0  0  0  2  0  0  0  0  0  0
  185.1160  178.2500  138.2100 C   0  0  0  0  0  2  0  0  0  0  0  0
  186.4540  178.5820  137.7500 N   0  0  0  0  0  2  0  0  0  0  0  0
  187.2400  177.3620  137.8040 C   0  0  0  0  0  1  0  0  0  0  0  0
  2  5  1  0  0  0  0
  2  6  2  0  0  0  0
  4  2  1  0  0  0  0
  5  1  1  6  0  0  0
  5  8  1  0  0  0  0
  6  7  1  0  0  0  0
  7  3  1  0  0  0  0
  8 23  1  0  0  0  0
  8  3  2  0  0  0  0
  9 11  1  0  0  0  0
  9 10  1  1  0  0  0
  9  4  1  0  0  0  0
 12 11  1  0  0  0  0
 13 12  1  0  0  0  0
 14 15  2  0  0  0  0
 14 19  1  0  0  0  0
 15 16  1  0  0  0  0
 16 18  2  0  0  0  0
 16 13  1  0  0  0  0
 17 15  1  0  0  0  0
 19 20  2  0  0  0  0
 20 18  1  0  0  0  0
 21 14  1  0  0  0  0
 22 24  1  0  0  0  0
 23 22  2  0  0  0  0
 24 28  1  0  0  0  0
 26 27  1  0  0  0  0
 26 24  2  0  0  0  0
 27 29  2  0  0  0  0
 28 30  2  0  0  0  0
 28 25  1  0  0  0  0
 29 31  1  0  0  0  0
 29 30  1  0  0  0  0
 32  4  1  0  0  0  0
 33 32  1  0  0  0  0
 34 35  1  0  0  0  0
 34 33  1  0  0  0  0
M  END
>  <MODEL>
2

>  <REMARK>
 VINA RESULT:      -7.5      3.758      5.559
  Name = 
  10 active torsions:
  status: ('A' for Active; 'I' for Inactive)
    1  A    between atoms: C_3  and  C_7
    2  A    between atoms: C_5  and  N_6
    3  A    between atoms: C_5  and  O_8
    4  A    between atoms: N_6  and  C_12
    5  A    between atoms: O_8  and  C_17
    6  A    between atoms: N_10  and  C_28
    7  A    between atoms: C_12  and  C_19
    8  A    between atoms: C_14  and  C_16
    9  A    between atoms: C_14  and  C_17
   10  A    between atoms: C_19  and  N_21
                            x       y       z     vdW  Elec       q    Type
                         _______ _______ _______ _____ _____    ______ ____

>  <TORSDO>
F 10

$$$$
=
 OpenBabel11042410273D

 35 37  0  0  1  0  0  0  0  0999 V2000
  192.4480  176.9630  139.0060 O   0  0  0  0  0  1  0  0  0  0  0  0
  190.1070  176.4970  138.8460 C   0  0  0  0  0  0  0  0  0  0  0  0
  190.7440  175.1970  136.4760 N   0  0  0  0  0  0  0  0  0  0  0  0
  189.7860  177.4210  139.9070 N   0  0  0  0  0  0  0  0  0  0  0  0
  191.5210  175.9790  138.6520 C   0  0  1  0  0  3  0  0  0  0  0  0
  189.1620  176.0880  138.0480 N   0  0  0  0  0  0  0  0  0  0  0  0
  189.3950  175.0750  137.0200 C   0  0  0  0  0  2  0  0  0  0  0  0
  191.7450  175.5800  137.2130 C   0  0  0  0  0  0  0  0  0  0  0  0
  188.6610  178.3460  139.7950 C   0  0  2  0  0  3  0  0  0  0  0  0
  188.9360  179.3250  138.8390 O   0  0  0  0  0  1  0  0  0  0  0  0
  188.4080  178.9440  141.0320 O   0  0  0  0  0  0  0  0  0  0  0  0
  187.0440  178.7450  141.2560 C   0  0  0  0  0  2  0  0  0  0  0  0
  186.8350  177.7110  142.3520 C   0  0  0  0  0  2  0  0  0  0  0  0
  185.0680  178.5840  145.6280 C   0  0  0  0  0  0  0  0  0  0  0  0
  186.0750  178.1700  144.7340 C   0  0  0  0  0  0  0  0  0  0  0  0
  185.8170  178.1760  143.3470 C   0  0  0  0  0  0  0  0  0  0  0  0
  187.4070  177.7320  145.2550 C   0  0  0  0  0  1  0  0  0  0  0  0
  184.5690  178.5950  142.8730 C   0  0  0  0  0  3  0  0  0  0  0  0
  183.8260  178.9990  145.1360 C   0  0  0  0  0  3  0  0  0  0  0  0
  183.5760  179.0060  143.7640 C   0  0  0  0  0  3  0  0  0  0  0  0
  185.3230  178.5900  147.3660 Cl  0  0  0  0  0  0  0  0  0  0  0  0
  194.0330  174.8740  137.1080 C   0  0  0  0  0  3  0  0  0  0  0  0
  193.0720  175.6240  136.6710 N   0  0  0  0  0  0  0  0  0  0  0  0
  195.3970  174.9120  136.5480 C   0  0  0  0  0  0  0  0  0  0  0  0
  196.4000  173.3090  138.2700 C   0  0  0  0  0  1  0  0  0  0  0  0
  195.5870  175.7240  135.4240 C   0  0  0  0  0  3  0  0  0  0  0  0
  196.8440  175.8360  134.8260 C   0  0  0  0  0  3  0  0  0  0  0  0
  196.5020  174.1960  137.0740 C   0  0  0  0  0  0  0  0  0  0  0  0
  197.9280  175.1330  135.3490 C   0  0  0  0  0  0  0  0  0  0  0  0
  197.7570  174.3170  136.4690 C   0  0  0  0  0  3  0  0  0  0  0  0
  199.1790  175.2460  134.7590 O   0  0  0  0  0  1  0  0  0  0  0  0
  190.6060  177.5180  141.1100 C   0  0  0  0  0  2  0  0  0  0  0  0
  190.2810  176.3850  142.0760 C   0  0  0  0  0  2  0  0  0  0  0  0
  190.5470  176.7850  143.4470 N   0  0  0  0  0  2  0  0  0  0  0  0
  190.9590  178.1770  143.4150 C   0  0  0  0  0  1  0  0  0  0  0  0
  2  4  1  0  0  0  0
  3  7  1  0  0  0  0
  3  8  2  0  0  0  0
  4 32  1  0  0  0  0
  5  2  1  0  0  0  0
  5  1  1  6  0  0  0
  6  2  2  0  0  0  0
  7  6  1  0  0  0  0
  8  5  1  0  0  0  0
  9 10  1  6  0  0  0
  9  4  1  0  0  0  0
  9 11  1  0  0  0  0
 11 12  1  0  0  0  0
 12 13  1  0  0  0  0
 13 16  1  0  0  0  0
 14 21  1  0  0  0  0
 15 17  1  0  0  0  0
 15 14  2  0  0  0  0
 16 15  1  0  0  0  0
 18 16  2  0  0  0  0
 18 20  1  0  0  0  0
 19 14  1  0  0  0  0
 20 19  2  0  0  0  0
 23 22  2  0  0  0  0
 23  8  1  0  0  0  0
 24 28  1  0  0  0  0
 24 22  1  0  0  0  0
 26 24  2  0  0  0  0
 27 29  2  0  0  0  0
 27 26  1  0  0  0  0
 28 25  1  0  0  0  0
 29 30  1  0  0  0  0
 30 28  2  0  0  0  0
 31 29  1  0  0  0  0
 32 33  1  0  0  0  0
 33 34  1  0  0  0  0
 35 34  1  0  0  0  0
M  END
>  <MODEL>
3

>  <REMARK>
 VINA RESULT:      -7.4      3.321      9.072
  Name = 
  10 active torsions:
  status: ('A' for Active; 'I' for Inactive)
    1  A    between atoms: C_3  and  C_7
    2  A    between atoms: C_5  and  N_6
    3  A    between atoms: C_5  and  O_8
    4  A    between atoms: N_6  and  C_12
    5  A    between atoms: O_8  and  C_17
    6  A    between atoms: N_10  and  C_28
    7  A    between atoms: C_12  and  C_19
    8  A    between atoms: C_14  and  C_16
    9  A    between atoms: C_14  and  C_17
   10  A    between atoms: C_19  and  N_21
                            x       y       z     vdW  Elec       q    Type
                         _______ _______ _______ _____ _____    ______ ____

>  <TORSDO>
F 10

$$$$
=
 OpenBabel11042410273D

 35 37  0  0  1  0  0  0  0  0999 V2000
  190.7840  176.9150  140.5690 O   0  0  0  0  0  1  0  0  0  0  0  0
  189.8550  177.0900  138.3720 C   0  0  0  0  0  0  0  0  0  0  0  0
  187.6770  178.2800  139.6170 N   0  0  0  0  0  0  0  0  0  0  0  0
  190.8560  176.2140  137.8110 N   0  0  0  0  0  0  0  0  0  0  0  0
  190.0560  177.7550  139.7210 C   0  0  1  0  0  3  0  0  0  0  0  0
  188.7640  177.3250  137.7000 N   0  0  0  0  0  0  0  0  0  0  0  0
  187.7580  178.2820  138.1590 C   0  0  0  0  0  2  0  0  0  0  0  0
  188.7260  178.0730  140.3590 C   0  0  0  0  0  0  0  0  0  0  0  0
  190.4980  175.1580  136.8670 C   0  0  2  0  0  3  0  0  0  0  0  0
  189.8780  175.7070  135.7430 O   0  0  0  0  0  1  0  0  0  0  0  0
  189.6470  174.2370  137.4810 O   0  0  0  0  0  0  0  0  0  0  0  0
  188.7560  173.8450  136.4780 C   0  0  0  0  0  2  0  0  0  0  0  0
  188.3280  172.4000  136.6880 C   0  0  0  0  0  2  0  0  0  0  0  0
  184.7640  171.3970  135.7390 C   0  0  0  0  0  0  0  0  0  0  0  0
  186.1720  171.4520  135.7340 C   0  0  0  0  0  0  0  0  0  0  0  0
  186.8360  172.2720  136.6710 C   0  0  0  0  0  0  0  0  0  0  0  0
  186.9510  170.6430  134.7470 C   0  0  0  0  0  1  0  0  0  0  0  0
  186.0940  173.0180  137.5930 C   0  0  0  0  0  3  0  0  0  0  0  0
  184.0390  172.1490  136.6690 C   0  0  0  0  0  3  0  0  0  0  0  0
  184.7000  172.9570  137.5930 C   0  0  0  0  0  3  0  0  0  0  0  0
  183.8760  170.4030  134.5940 Cl  0  0  0  0  0  0  0  0  0  0  0  0
  187.8240  177.4020  142.4750 C   0  0  0  0  0  3  0  0  0  0  0  0
  188.6310  178.1460  141.7880 N   0  0  0  0  0  0  0  0  0  0  0  0
  187.7280  177.4700  143.9460 C   0  0  0  0  0  0  0  0  0  0  0  0
  185.2940  178.2540  143.9860 C   0  0  0  0  0  1  0  0  0  0  0  0
  188.8800  177.1230  144.6620 C   0  0  0  0  0  3  0  0  0  0  0  0
  188.8950  177.1660  146.0570 C   0  0  0  0  0  3  0  0  0  0  0  0
  186.5670  177.8630  144.6590 C   0  0  0  0  0  0  0  0  0  0  0  0
  187.7510  177.5560  146.7540 C   0  0  0  0  0  0  0  0  0  0  0  0
  186.5940  177.9040  146.0560 C   0  0  0  0  0  3  0  0  0  0  0  0
  187.7650  177.6030  148.1410 O   0  0  0  0  0  1  0  0  0  0  0  0
  192.2570  176.3010  138.2060 C   0  0  0  0  0  2  0  0  0  0  0  0
  193.0990  175.2900  137.4360 C   0  0  0  0  0  2  0  0  0  0  0  0
  194.5140  175.5940  137.5650 N   0  0  0  0  0  2  0  0  0  0  0  0
  195.1210  174.5010  138.3030 C   0  0  0  0  0  1  0  0  0  0  0  0
  2  5  1  0  0  0  0
  3  8  2  0  0  0  0
  4 32  1  0  0  0  0
  4  2  1  0  0  0  0
  5  8  1  0  0  0  0
  5  1  1  1  0  0  0
  6  7  1  0  0  0  0
  6  2  2  0  0  0  0
  7  3  1  0  0  0  0
  8 23  1  0  0  0  0
  9 10  1  6  0  0  0
  9 11  1  0  0  0  0
  9  4  1  0  0  0  0
 12 13  1  0  0  0  0
 12 11  1  0  0  0  0
 14 19  1  0  0  0  0
 15 14  2  0  0  0  0
 15 16  1  0  0  0  0
 16 13  1  0  0  0  0
 16 18  2  0  0  0  0
 17 15  1  0  0  0  0
 18 20  1  0  0  0  0
 19 20  2  0  0  0  0
 21 14  1  0  0  0  0
 22 24  1  0  0  0  0
 23 22  2  0  0  0  0
 24 28  2  0  0  0  0
 24 26  1  0  0  0  0
 25 28  1  0  0  0  0
 26 27  2  0  0  0  0
 27 29  1  0  0  0  0
 28 30  1  0  0  0  0
 29 31  1  0  0  0  0
 30 29  2  0  0  0  0
 33 34  1  0  0  0  0
 33 32  1  0  0  0  0
 34 35  1  0  0  0  0
M  END
>  <MODEL>
4

>  <REMARK>
 VINA RESULT:      -7.3      1.553      2.128
  Name = 
  10 active torsions:
  status: ('A' for Active; 'I' for Inactive)
    1  A    between atoms: C_3  and  C_7
    2  A    between atoms: C_5  and  N_6
    3  A    between atoms: C_5  and  O_8
    4  A    between atoms: N_6  and  C_12
    5  A    between atoms: O_8  and  C_17
    6  A    between atoms: N_10  and  C_28
    7  A    between atoms: C_12  and  C_19
    8  A    between atoms: C_14  and  C_16
    9  A    between atoms: C_14  and  C_17
   10  A    between atoms: C_19  and  N_21
                            x       y       z     vdW  Elec       q    Type
                         _______ _______ _______ _____ _____    ______ ____

>  <TORSDO>
F 10

$$$$
=
 OpenBabel11042410273D

 35 37  0  0  1  0  0  0  0  0999 V2000
  191.1600  176.8300  140.7840 O   0  0  0  0  0  1  0  0  0  0  0  0
  190.1440  176.9910  138.6240 C   0  0  0  0  0  0  0  0  0  0  0  0
  187.9320  177.9890  139.9730 N   0  0  0  0  0  0  0  0  0  0  0  0
  191.1850  176.2040  138.0070 N   0  0  0  0  0  0  0  0  0  0  0  0
  190.3450  177.6360  139.9830 C   0  0  1  0  0  3  0  0  0  0  0  0
  189.0160  177.1630  137.9950 N   0  0  0  0  0  0  0  0  0  0  0  0
  187.9610  178.0330  138.5140 C   0  0  0  0  0  2  0  0  0  0  0  0
  189.0180  177.8400  140.6740 C   0  0  0  0  0  0  0  0  0  0  0  0
  190.8710  175.1480  137.0470 C   0  0  2  0  0  3  0  0  0  0  0  0
  190.4890  175.7060  135.8250 O   0  0  0  0  0  1  0  0  0  0  0  0
  189.8450  174.3400  137.5440 O   0  0  0  0  0  0  0  0  0  0  0  0
  189.2370  173.7940  136.4120 C   0  0  0  0  0  2  0  0  0  0  0  0
  187.8650  173.2380  136.7670 C   0  0  0  0  0  2  0  0  0  0  0  0
  184.5030  175.0580  136.7210 C   0  0  0  0  0  0  0  0  0  0  0  0
  185.4860  174.0950  137.0250 C   0  0  0  0  0  0  0  0  0  0  0  0
  186.7900  174.2490  136.5100 C   0  0  0  0  0  0  0  0  0  0  0  0
  185.1460  172.9240  137.8920 C   0  0  0  0  0  1  0  0  0  0  0  0
  187.0960  175.3530  135.7060 C   0  0  0  0  0  3  0  0  0  0  0  0
  184.8270  176.1550  135.9170 C   0  0  0  0  0  3  0  0  0  0  0  0
  186.1180  176.3040  135.4100 C   0  0  0  0  0  3  0  0  0  0  0  0
  182.8590  174.9190  137.3240 Cl  0  0  0  0  0  0  0  0  0  0  0  0
  187.9320  177.4860  142.7800 C   0  0  0  0  0  3  0  0  0  0  0  0
  188.9680  177.8710  142.1060 N   0  0  0  0  0  0  0  0  0  0  0  0
  187.8800  177.5100  144.2540 C   0  0  0  0  0  0  0  0  0  0  0  0
  185.4360  178.2520  144.3890 C   0  0  0  0  0  1  0  0  0  0  0  0
  189.0580  177.1620  144.9250 C   0  0  0  0  0  3  0  0  0  0  0  0
  189.1140  177.1640  146.3200 C   0  0  0  0  0  3  0  0  0  0  0  0
  186.7350  177.8630  145.0120 C   0  0  0  0  0  0  0  0  0  0  0  0
  187.9870  177.5160  147.0610 C   0  0  0  0  0  0  0  0  0  0  0  0
  186.8030  177.8640  146.4080 C   0  0  0  0  0  3  0  0  0  0  0  0
  188.0420  177.5230  148.4480 O   0  0  0  0  0  1  0  0  0  0  0  0
  192.5890  176.3830  138.3570 C   0  0  0  0  0  2  0  0  0  0  0  0
  193.4720  176.2780  137.1190 C   0  0  0  0  0  2  0  0  0  0  0  0
  194.7100  175.5840  137.4270 N   0  0  0  0  0  2  0  0  0  0  0  0
  194.3530  174.2480  137.8720 C   0  0  0  0  0  1  0  0  0  0  0  0
  2  5  1  0  0  0  0
  3  8  2  0  0  0  0
  4 32  1  0  0  0  0
  4  2  1  0  0  0  0
  5  8  1  0  0  0  0
  5  1  1  1  0  0  0
  6  7  1  0  0  0  0
  6  2  2  0  0  0  0
  7  3  1  0  0  0  0
  8 23  1  0  0  0  0
  9 10  1  6  0  0  0
  9 11  1  0  0  0  0
  9  4  1  0  0  0  0
 12 13  1  0  0  0  0
 12 11  1  0  0  0  0
 14 15  1  0  0  0  0
 14 21  1  0  0  0  0
 15 17  1  0  0  0  0
 16 13  1  0  0  0  0
 16 15  2  0  0  0  0
 18 16  1  0  0  0  0
 19 14  2  0  0  0  0
 20 18  2  0  0  0  0
 20 19  1  0  0  0  0
 22 24  1  0  0  0  0
 23 22  2  0  0  0  0
 24 26  2  0  0  0  0
 24 28  1  0  0  0  0
 25 28  1  0  0  0  0
 26 27  1  0  0  0  0
 27 29  2  0  0  0  0
 28 30  2  0  0  0  0
 29 31  1  0  0  0  0
 30 29  1  0  0  0  0
 33 34  1  0  0  0  0
 33 32  1  0  0  0  0
 34 35  1  0  0  0  0
M  END
>  <MODEL>
5

>  <REMARK>
 VINA RESULT:      -7.2      0.768      1.536
  Name = 
  10 active torsions:
  status: ('A' for Active; 'I' for Inactive)
    1  A    between atoms: C_3  and  C_7
    2  A    between atoms: C_5  and  N_6
    3  A    between atoms: C_5  and  O_8
    4  A    between atoms: N_6  and  C_12
    5  A    between atoms: O_8  and  C_17
    6  A    between atoms: N_10  and  C_28
    7  A    between atoms: C_12  and  C_19
    8  A    between atoms: C_14  and  C_16
    9  A    between atoms: C_14  and  C_17
   10  A    between atoms: C_19  and  N_21
                            x       y       z     vdW  Elec       q    Type
                         _______ _______ _______ _____ _____    ______ ____

>  <TORSDO>
F 10

$$$$
=
 OpenBabel11042410273D

 35 37  0  0  1  0  0  0  0  0999 V2000
  189.8040  177.5590  139.8410 O   0  0  0  0  0  1  0  0  0  0  0  0
  187.6850  178.0660  138.8520 C   0  0  0  0  0  0  0  0  0  0  0  0
  186.8330  178.5670  141.4470 N   0  0  0  0  0  0  0  0  0  0  0  0
  188.0790  177.5170  137.5760 N   0  0  0  0  0  0  0  0  0  0  0  0
  188.7160  178.4350  139.9030 C   0  0  1  0  0  3  0  0  0  0  0  0
  186.4210  178.2620  139.1010 N   0  0  0  0  0  0  0  0  0  0  0  0
  185.9610  178.9090  140.3270 C   0  0  0  0  0  2  0  0  0  0  0  0
  188.1100  178.3750  141.2840 C   0  0  0  0  0  0  0  0  0  0  0  0
  187.1810  176.6550  136.8110 C   0  0  2  0  0  3  0  0  0  0  0  0
  186.0650  177.3790  136.3870 O   0  0  0  0  0  1  0  0  0  0  0  0
  186.7780  175.5700  137.5920 O   0  0  0  0  0  0  0  0  0  0  0  0
  186.3510  174.6060  136.6760 C   0  0  0  0  0  2  0  0  0  0  0  0
  185.7100  173.4340  137.4060 C   0  0  0  0  0  2  0  0  0  0  0  0
  182.0500  172.5550  136.7360 C   0  0  0  0  0  0  0  0  0  0  0  0
  183.4500  172.4250  136.8260 C   0  0  0  0  0  0  0  0  0  0  0  0
  184.2160  173.5010  137.3230 C   0  0  0  0  0  0  0  0  0  0  0  0
  184.1140  171.1530  136.4040 C   0  0  0  0  0  1  0  0  0  0  0  0
  183.5800  174.6820  137.7210 C   0  0  0  0  0  3  0  0  0  0  0  0
  181.4320  173.7430  137.1390 C   0  0  0  0  0  3  0  0  0  0  0  0
  182.1920  174.8030  137.6310 C   0  0  0  0  0  3  0  0  0  0  0  0
  181.0410  171.2560  136.1180 Cl  0  0  0  0  0  0  0  0  0  0  0  0
  188.5110  177.5880  143.5110 C   0  0  0  0  0  3  0  0  0  0  0  0
  188.9540  178.1090  142.4120 N   0  0  0  0  0  0  0  0  0  0  0  0
  189.3780  177.3060  144.6710 C   0  0  0  0  0  0  0  0  0  0  0  0
  187.5600  177.7050  146.4240 C   0  0  0  0  0  1  0  0  0  0  0  0
  190.7080  176.9740  144.3890 C   0  0  0  0  0  3  0  0  0  0  0  0
  191.6110  176.7000  145.4180 C   0  0  0  0  0  3  0  0  0  0  0  0
  188.9540  177.3570  146.0230 C   0  0  0  0  0  0  0  0  0  0  0  0
  191.1900  176.7560  146.7460 C   0  0  0  0  0  0  0  0  0  0  0  0
  189.8670  177.0840  147.0460 C   0  0  0  0  0  3  0  0  0  0  0  0
  192.0880  176.4880  147.7700 O   0  0  0  0  0  1  0  0  0  0  0  0
  189.4090  177.7450  137.0230 C   0  0  0  0  0  2  0  0  0  0  0  0
  189.9010  176.5100  136.2770 C   0  0  0  0  0  2  0  0  0  0  0  0
  190.7240  175.6810  137.1420 N   0  0  0  0  0  2  0  0  0  0  0  0
  190.1550  174.3450  137.1200 C   0  0  0  0  0  1  0  0  0  0  0  0
  2  6  2  0  0  0  0
  2  5  1  0  0  0  0
  4  2  1  0  0  0  0
  5  1  1  1  0  0  0
  5  8  1  0  0  0  0
  6  7  1  0  0  0  0
  7  3  1  0  0  0  0
  8  3  2  0  0  0  0
  8 23  1  0  0  0  0
  9 10  1  1  0  0  0
  9  4  1  0  0  0  0
  9 11  1  0  0  0  0
 12 13  1  0  0  0  0
 12 11  1  0  0  0  0
 14 15  2  0  0  0  0
 14 19  1  0  0  0  0
 15 16  1  0  0  0  0
 16 13  1  0  0  0  0
 16 18  2  0  0  0  0
 17 15  1  0  0  0  0
 19 20  2  0  0  0  0
 20 18  1  0  0  0  0
 21 14  1  0  0  0  0
 22 24  1  0  0  0  0
 23 22  2  0  0  0  0
 24 28  1  0  0  0  0
 26 24  2  0  0  0  0
 26 27  1  0  0  0  0
 27 29  2  0  0  0  0
 28 25  1  0  0  0  0
 28 30  2  0  0  0  0
 29 30  1  0  0  0  0
 29 31  1  0  0  0  0
 32  4  1  0  0  0  0
 33 32  1  0  0  0  0
 33 34  1  0  0  0  0
 35 34  1  0  0  0  0
M  END
>  <MODEL>
6

>  <REMARK>
 VINA RESULT:      -7.2      2.154      3.194
  Name = 
  10 active torsions:
  status: ('A' for Active; 'I' for Inactive)
    1  A    between atoms: C_3  and  C_7
    2  A    between atoms: C_5  and  N_6
    3  A    between atoms: C_5  and  O_8
    4  A    between atoms: N_6  and  C_12
    5  A    between atoms: O_8  and  C_17
    6  A    between atoms: N_10  and  C_28
    7  A    between atoms: C_12  and  C_19
    8  A    between atoms: C_14  and  C_16
    9  A    between atoms: C_14  and  C_17
   10  A    between atoms: C_19  and  N_21
                            x       y       z     vdW  Elec       q    Type
                         _______ _______ _______ _____ _____    ______ ____

>  <TORSDO>
F 10

$$$$
=
 OpenBabel11042410273D

 35 37  0  0  1  0  0  0  0  0999 V2000
  192.4050  176.9950  139.2210 O   0  0  0  0  0  1  0  0  0  0  0  0
  190.0780  176.4990  138.9780 C   0  0  0  0  0  0  0  0  0  0  0  0
  190.7820  175.4140  136.5210 N   0  0  0  0  0  0  0  0  0  0  0  0
  189.7190  177.3250  140.1070 N   0  0  0  0  0  0  0  0  0  0  0  0
  191.5050  176.0260  138.7690 C   0  0  1  0  0  3  0  0  0  0  0  0
  189.1550  176.1400  138.1310 N   0  0  0  0  0  0  0  0  0  0  0  0
  189.4260  175.2210  137.0280 C   0  0  0  0  0  2  0  0  0  0  0  0
  191.7620  175.7530  137.3060 C   0  0  0  0  0  0  0  0  0  0  0  0
  188.5770  178.2340  140.0510 C   0  0  2  0  0  3  0  0  0  0  0  0
  188.7760  179.1960  139.0590 O   0  0  0  0  0  1  0  0  0  0  0  0
  188.3990  178.8540  141.2890 O   0  0  0  0  0  0  0  0  0  0  0  0
  187.0430  178.6880  141.5840 C   0  0  0  0  0  2  0  0  0  0  0  0
  186.8690  177.6840  142.7140 C   0  0  0  0  0  2  0  0  0  0  0  0
  183.4890  178.8050  144.1030 C   0  0  0  0  0  0  0  0  0  0  0  0
  184.4690  178.3750  143.1870 C   0  0  0  0  0  0  0  0  0  0  0  0
  185.7760  178.1060  143.6460 C   0  0  0  0  0  0  0  0  0  0  0  0
  184.1230  178.2030  141.7430 C   0  0  0  0  0  1  0  0  0  0  0  0
  186.0840  178.2650  145.0020 C   0  0  0  0  0  3  0  0  0  0  0  0
  183.8140  178.9580  145.4540 C   0  0  0  0  0  3  0  0  0  0  0  0
  185.1070  178.6890  145.9040 C   0  0  0  0  0  3  0  0  0  0  0  0
  181.8460  179.1660  143.5930 Cl  0  0  0  0  0  0  0  0  0  0  0  0
  194.0140  174.9830  137.0250 C   0  0  0  0  0  3  0  0  0  0  0  0
  193.0970  175.8680  136.7950 N   0  0  0  0  0  0  0  0  0  0  0  0
  195.3860  175.0950  136.4950 C   0  0  0  0  0  0  0  0  0  0  0  0
  196.4550  173.6420  138.3070 C   0  0  0  0  0  1  0  0  0  0  0  0
  195.5470  175.8700  135.3400 C   0  0  0  0  0  3  0  0  0  0  0  0
  196.8080  176.0460  134.7670 C   0  0  0  0  0  3  0  0  0  0  0  0
  196.5250  174.4820  137.0760 C   0  0  0  0  0  0  0  0  0  0  0  0
  197.9250  175.4450  135.3450 C   0  0  0  0  0  0  0  0  0  0  0  0
  197.7830  174.6670  136.4950 C   0  0  0  0  0  3  0  0  0  0  0  0
  199.1800  175.6220  134.7780 O   0  0  0  0  0  1  0  0  0  0  0  0
  190.5150  177.3370  141.3290 C   0  0  0  0  0  2  0  0  0  0  0  0
  190.1820  176.1320  142.2010 C   0  0  0  0  0  2  0  0  0  0  0  0
  190.6930  176.3160  143.5490 N   0  0  0  0  0  2  0  0  0  0  0  0
  190.4430  177.6980  143.9170 C   0  0  0  0  0  1  0  0  0  0  0  0
  2  4  1  0  0  0  0
  3  7  1  0  0  0  0
  3  8  2  0  0  0  0
  4 32  1  0  0  0  0
  5  2  1  0  0  0  0
  5  1  1  6  0  0  0
  6  2  2  0  0  0  0
  7  6  1  0  0  0  0
  8  5  1  0  0  0  0
  9 10  1  6  0  0  0
  9  4  1  0  0  0  0
  9 11  1  0  0  0  0
 11 12  1  0  0  0  0
 12 13  1  0  0  0  0
 13 16  1  0  0  0  0
 14 19  1  0  0  0  0
 15 16  1  0  0  0  0
 15 14  2  0  0  0  0
 16 18  2  0  0  0  0
 17 15  1  0  0  0  0
 18 20  1  0  0  0  0
 19 20  2  0  0  0  0
 21 14  1  0  0  0  0
 23 22  2  0  0  0  0
 23  8  1  0  0  0  0
 24 22  1  0  0  0  0
 24 28  1  0  0  0  0
 26 24  2  0  0  0  0
 27 26  1  0  0  0  0
 27 29  2  0  0  0  0
 28 25  1  0  0  0  0
 29 30  1  0  0  0  0
 30 28  2  0  0  0  0
 31 29  1  0  0  0  0
 32 33  1  0  0  0  0
 33 34  1  0  0  0  0
 34 35  1  0  0  0  0
M  END
>  <MODEL>
7

>  <REMARK>
 VINA RESULT:      -7.1      3.134      8.932
  Name = 
  10 active torsions:
  status: ('A' for Active; 'I' for Inactive)
    1  A    between atoms: C_3  and  C_7
    2  A    between atoms: C_5  and  N_6
    3  A    between atoms: C_5  and  O_8
    4  A    between atoms: N_6  and  C_12
    5  A    between atoms: O_8  and  C_17
    6  A    between atoms: N_10  and  C_28
    7  A    between atoms: C_12  and  C_19
    8  A    between atoms: C_14  and  C_16
    9  A    between atoms: C_14  and  C_17
   10  A    between atoms: C_19  and  N_21
                            x       y       z     vdW  Elec       q    Type
                         _______ _______ _______ _____ _____    ______ ____

>  <TORSDO>
F 10

$$$$
=
 OpenBabel11042410273D

 35 37  0  0  1  0  0  0  0  0999 V2000
  189.1830  177.4410  140.1860 O   0  0  0  0  0  1  0  0  0  0  0  0
  187.6530  177.6260  138.3570 C   0  0  0  0  0  0  0  0  0  0  0  0
  185.8750  178.6550  140.2240 N   0  0  0  0  0  0  0  0  0  0  0  0
  188.4890  176.8240  137.4940 N   0  0  0  0  0  0  0  0  0  0  0  0
  188.2040  178.2630  139.6190 C   0  0  1  0  0  3  0  0  0  0  0  0
  186.4050  177.8180  138.0360 N   0  0  0  0  0  0  0  0  0  0  0  0
  185.5310  178.7030  138.8060 C   0  0  0  0  0  2  0  0  0  0  0  0
  187.1010  178.4860  140.6250 C   0  0  0  0  0  0  0  0  0  0  0  0
  187.9230  175.7770  136.6480 C   0  0  2  0  0  3  0  0  0  0  0  0
  187.0690  176.3370  135.6950 O   0  0  0  0  0  1  0  0  0  0  0  0
  187.2250  174.8540  137.4300 O   0  0  0  0  0  0  0  0  0  0  0  0
  186.2800  174.2930  136.5680 C   0  0  0  0  0  2  0  0  0  0  0  0
  185.5580  173.1430  137.2560 C   0  0  0  0  0  2  0  0  0  0  0  0
  181.7740  172.6760  136.9720 C   0  0  0  0  0  0  0  0  0  0  0  0
  183.1520  172.3820  136.9470 C   0  0  0  0  0  0  0  0  0  0  0  0
  184.0800  173.3850  137.3010 C   0  0  0  0  0  0  0  0  0  0  0  0
  183.6220  171.0180  136.5540 C   0  0  0  0  0  1  0  0  0  0  0  0
  183.6260  174.6540  137.6730 C   0  0  0  0  0  3  0  0  0  0  0  0
  181.3380  173.9500  137.3480 C   0  0  0  0  0  3  0  0  0  0  0  0
  182.2590  174.9370  137.6980 C   0  0  0  0  0  3  0  0  0  0  0  0
  180.5680  171.4750  136.5340 Cl  0  0  0  0  0  0  0  0  0  0  0  0
  187.0170  177.6010  142.8500 C   0  0  0  0  0  3  0  0  0  0  0  0
  187.4180  178.5120  142.0230 N   0  0  0  0  0  0  0  0  0  0  0  0
  187.3470  177.6220  144.2880 C   0  0  0  0  0  0  0  0  0  0  0  0
  189.7220  176.7200  143.9940 C   0  0  0  0  0  1  0  0  0  0  0  0
  186.3420  178.0710  145.1520 C   0  0  0  0  0  3  0  0  0  0  0  0
  186.5530  178.1180  146.5310 C   0  0  0  0  0  3  0  0  0  0  0  0
  188.5920  177.2160  144.8320 C   0  0  0  0  0  0  0  0  0  0  0  0
  187.7770  177.7150  147.0620 C   0  0  0  0  0  0  0  0  0  0  0  0
  188.7920  177.2650  146.2150 C   0  0  0  0  0  3  0  0  0  0  0  0
  187.9880  177.7570  148.4330 O   0  0  0  0  0  1  0  0  0  0  0  0
  189.9390  176.9790  137.4750 C   0  0  0  0  0  2  0  0  0  0  0  0
  190.6110  175.7030  136.9820 C   0  0  0  0  0  2  0  0  0  0  0  0
  191.2660  175.0100  138.0790 N   0  0  0  0  0  2  0  0  0  0  0  0
  192.4810  174.4200  137.5460 C   0  0  0  0  0  1  0  0  0  0  0  0
  2  5  1  0  0  0  0
  3  8  2  0  0  0  0
  4  2  1  0  0  0  0
  5  1  1  1  0  0  0
  5  8  1  0  0  0  0
  6  2  2  0  0  0  0
  6  7  1  0  0  0  0
  7  3  1  0  0  0  0
  8 23  1  0  0  0  0
  9 10  1  6  0  0  0
  9 11  1  0  0  0  0
  9  4  1  0  0  0  0
 12 13  1  0  0  0  0
 12 11  1  0  0  0  0
 13 16  1  0  0  0  0
 14 19  1  0  0  0  0
 15 14  2  0  0  0  0
 15 16  1  0  0  0  0
 16 18  2  0  0  0  0
 17 15  1  0  0  0  0
 18 20  1  0  0  0  0
 19 20  2  0  0  0  0
 21 14  1  0  0  0  0
 22 24  1  0  0  0  0
 23 22  2  0  0  0  0
 24 28  2  0  0  0  0
 24 26  1  0  0  0  0
 25 28  1  0  0  0  0
 26 27  2  0  0  0  0
 27 29  1  0  0  0  0
 28 30  1  0  0  0  0
 29 31  1  0  0  0  0
 30 29  2  0  0  0  0
 32  4  1  0  0  0  0
 33 32  1  0  0  0  0
 33 34  1  0  0  0  0
 35 34  1  0  0  0  0
M  END
>  <MODEL>
8

>  <REMARK>
 VINA RESULT:      -7.1      1.798      2.888
  Name = 
  10 active torsions:
  status: ('A' for Active; 'I' for Inactive)
    1  A    between atoms: C_3  and  C_7
    2  A    between atoms: C_5  and  N_6
    3  A    between atoms: C_5  and  O_8
    4  A    between atoms: N_6  and  C_12
    5  A    between atoms: O_8  and  C_17
    6  A    between atoms: N_10  and  C_28
    7  A    between atoms: C_12  and  C_19
    8  A    between atoms: C_14  and  C_16
    9  A    between atoms: C_14  and  C_17
   10  A    between atoms: C_19  and  N_21
                            x       y       z     vdW  Elec       q    Type
                         _______ _______ _______ _____ _____    ______ ____

>  <TORSDO>
F 10

$$$$
=
 OpenBabel11042410273D

 35 37  0  0  1  0  0  0  0  0999 V2000
  182.4750  178.7200  142.7600 O   0  0  0  0  0  1  0  0  0  0  0  0
  182.4220  179.0610  140.3930 C   0  0  0  0  0  0  0  0  0  0  0  0
  185.1720  179.3820  140.5910 N   0  0  0  0  0  0  0  0  0  0  0  0
  180.9830  179.1820  140.3800 N   0  0  0  0  0  0  0  0  0  0  0  0
  183.1490  178.4350  141.5690 C   0  0  1  0  0  3  0  0  0  0  0  0
  183.1070  179.4840  139.3690 N   0  0  0  0  0  0  0  0  0  0  0  0
  184.5540  179.2970  139.2710 C   0  0  0  0  0  2  0  0  0  0  0  0
  184.5610  178.9620  141.6600 C   0  0  0  0  0  0  0  0  0  0  0  0
  180.3160  180.2260  139.6070 C   0  0  2  0  0  3  0  0  0  0  0  0
  179.8960  181.2560  140.4520 O   0  0  0  0  0  1  0  0  0  0  0  0
  179.2200  179.6910  138.9260 O   0  0  0  0  0  0  0  0  0  0  0  0
  179.6770  179.4720  137.6240 C   0  0  0  0  0  2  0  0  0  0  0  0
  179.4280  178.0280  137.2140 C   0  0  0  0  0  2  0  0  0  0  0  0
  182.0700  175.3270  136.6350 C   0  0  0  0  0  0  0  0  0  0  0  0
  180.8280  175.9270  136.9210 C   0  0  0  0  0  0  0  0  0  0  0  0
  180.7120  177.3330  136.8810 C   0  0  0  0  0  0  0  0  0  0  0  0
  179.6450  175.0780  137.2590 C   0  0  0  0  0  1  0  0  0  0  0  0
  181.8260  178.1140  136.5570 C   0  0  0  0  0  3  0  0  0  0  0  0
  183.1720  176.1240  136.3120 C   0  0  0  0  0  3  0  0  0  0  0  0
  183.0530  177.5130  136.2720 C   0  0  0  0  0  3  0  0  0  0  0  0
  182.2830  173.5830  136.6760 Cl  0  0  0  0  0  0  0  0  0  0  0  0
  185.6960  177.9310  143.5000 C   0  0  0  0  0  3  0  0  0  0  0  0
  185.2190  178.9930  142.9330 N   0  0  0  0  0  0  0  0  0  0  0  0
  186.3810  177.9600  144.8070 C   0  0  0  0  0  0  0  0  0  0  0  0
  188.5040  176.7970  143.9840 C   0  0  0  0  0  1  0  0  0  0  0  0
  185.6750  178.5420  145.8670 C   0  0  0  0  0  3  0  0  0  0  0  0
  186.2320  178.6080  147.1460 C   0  0  0  0  0  3  0  0  0  0  0  0
  187.6770  177.4380  145.0470 C   0  0  0  0  0  0  0  0  0  0  0  0
  187.5050  178.0910  147.3780 C   0  0  0  0  0  0  0  0  0  0  0  0
  188.2240  177.5080  146.3320 C   0  0  0  0  0  3  0  0  0  0  0  0
  188.0590  178.1510  148.6490 O   0  0  0  0  0  1  0  0  0  0  0  0
  180.1350  178.3090  141.1840 C   0  0  0  0  0  2  0  0  0  0  0  0
  180.0600  176.9160  140.5700 C   0  0  0  0  0  2  0  0  0  0  0  0
  178.9950  176.1400  141.1830 N   0  0  0  0  0  2  0  0  0  0  0  0
  179.3110  174.7380  140.9730 C   0  0  0  0  0  1  0  0  0  0  0  0
  2  5  1  0  0  0  0
  3  8  2  0  0  0  0
  4  2  1  0  0  0  0
  4 32  1  0  0  0  0
  5  8  1  0  0  0  0
  5  1  1  1  0  0  0
  6  2  2  0  0  0  0
  7  6  1  0  0  0  0
  7  3  1  0  0  0  0
  8 23  1  0  0  0  0
  9  4  1  0  0  0  0
  9 10  1  1  0  0  0
 11  9  1  0  0  0  0
 12 11  1  0  0  0  0
 13 12  1  0  0  0  0
 14 21  1  0  0  0  0
 14 15  1  0  0  0  0
 15 17  1  0  0  0  0
 16 15  2  0  0  0  0
 16 13  1  0  0  0  0
 18 16  1  0  0  0  0
 19 14  2  0  0  0  0
 20 19  1  0  0  0  0
 20 18  2  0  0  0  0
 22 24  1  0  0  0  0
 23 22  2  0  0  0  0
 24 28  2  0  0  0  0
 24 26  1  0  0  0  0
 25 28  1  0  0  0  0
 26 27  2  0  0  0  0
 27 29  1  0  0  0  0
 28 30  1  0  0  0  0
 29 31  1  0  0  0  0
 30 29  2  0  0  0  0
 33 34  1  0  0  0  0
 33 32  1  0  0  0  0
 35 34  1  0  0  0  0
M  END
>  <MODEL>
9

>  <REMARK>
 VINA RESULT:      -7.0      5.135      7.604
  Name = 
  10 active torsions:
  status: ('A' for Active; 'I' for Inactive)
    1  A    between atoms: C_3  and  C_7
    2  A    between atoms: C_5  and  N_6
    3  A    between atoms: C_5  and  O_8
    4  A    between atoms: N_6  and  C_12
    5  A    between atoms: O_8  and  C_17
    6  A    between atoms: N_10  and  C_28
    7  A    between atoms: C_12  and  C_19
    8  A    between atoms: C_14  and  C_16
    9  A    between atoms: C_14  and  C_17
   10  A    between atoms: C_19  and  N_21
                            x       y       z     vdW  Elec       q    Type
                         _______ _______ _______ _____ _____    ______ ____

>  <TORSDO>
F 10

$$$$
