=
 OpenBabel11032420513D

 44 48  0  0  1  0  0  0  0  0999 V2000
  189.7960  176.3780  147.3560 N   0  0  0  0  0  2  0  0  0  0  0  0
  191.1940  176.7490  147.2410 C   0  0  0  0  0  2  0  0  0  0  0  0
  191.6840  176.4560  145.8360 C   0  0  0  0  0  2  0  0  0  0  0  0
  191.5380  177.6410  145.0080 N   0  0  0  0  0  2  0  0  0  0  0  0
  191.2090  177.1930  143.6640 C   0  0  0  0  0  2  0  0  0  0  0  0
  189.8910  177.7610  143.2470 C   0  0  0  0  0  3  0  0  0  0  0  0
  188.1840  178.4540  141.6730 C   0  0  0  0  0  1  0  0  0  0  0  0
  189.5260  177.8770  141.9700 C   0  0  0  0  0  0  0  0  0  0  0  0
  188.8390  177.1330  139.1100 N   0  0  0  0  0  0  0  0  0  0  0  0
  190.4200  177.4690  140.9230 N   0  0  0  0  0  2  0  0  0  0  0  0
  190.0670  177.1530  139.5720 C   0  0  0  0  0  0  0  0  0  0  0  0
  190.2800  176.5420  137.4460 C   0  0  0  0  0  0  0  0  0  0  0  0
  190.7840  176.1460  136.2320 C   0  0  0  0  0  0  0  0  0  0  0  0
  192.3770  176.6340  138.5070 N   0  0  0  0  0  0  0  0  0  0  0  0
  191.0260  176.7750  138.5320 C   0  0  0  0  0  0  0  0  0  0  0  0
  188.4600  176.1390  135.4650 C   0  0  0  0  0  3  0  0  0  0  0  0
  188.9780  176.7420  137.7360 C   0  0  0  0  0  0  0  0  0  0  0  0
  192.1860  175.9900  136.1590 C   0  0  0  0  0  0  0  0  0  0  0  0
  192.9940  175.4790  134.6450 S   0  0  0  0  0  1  0  0  0  0  0  0
  189.8450  175.9380  135.2010 C   0  0  0  0  0  3  0  0  0  0  0  0
  192.9670  176.2420  137.3260 C   0  0  0  0  0  3  0  0  0  0  0  0
  188.0080  176.5450  136.7500 C   0  0  0  0  0  3  0  0  0  0  0  0
  189.1080  177.5220  147.9270 C   0  0  0  0  0  2  0  0  0  0  0  0
  186.8730  178.6170  147.6610 C   0  0  0  0  0  3  0  0  0  0  0  0
  187.8180  177.4040  145.7910 C   0  0  0  0  0  3  0  0  0  0  0  0
  186.6990  177.7250  145.0170 C   0  0  0  0  0  3  0  0  0  0  0  0
  185.6590  178.4950  145.5600 C   0  0  0  0  0  0  0  0  0  0  0  0
  187.9030  177.8440  147.1150 C   0  0  0  0  0  0  0  0  0  0  0  0
  185.7540  178.9390  146.8870 C   0  0  0  0  0  3  0  0  0  0  0  0
  183.4180  179.2250  145.3000 O   0  0  0  0  0  0  0  0  0  0  0  0
  184.4830  178.8410  144.7430 C   0  0  0  0  0  0  0  0  0  0  0  0
  184.5440  178.7400  143.3170 N   0  0  0  0  0  2  0  0  0  0  0  0
  183.4260  178.9960  142.5080 N   0  0  0  0  0  2  0  0  0  0  0  0
  183.5090  178.1180  141.3480 C   0  0  0  0  0  2  0  0  0  0  0  0
  182.8730  178.7800  140.1230 C   0  0  2  0  0  3  0  0  0  0  0  0
  180.2210  176.5760  139.9150 C   0  0  0  0  0  0  0  0  0  0  0  0
  179.0380  176.2890  140.2300 O   0  0  0  0  0  0  0  0  0  0  0  0
  182.4650  176.3260  139.4720 C   0  0  1  0  0  3  0  0  0  0  0  0
  182.0520  177.8030  139.2730 C   0  0  1  0  0  3  0  0  0  0  0  0
  181.2510  175.6140  139.8430 N   0  0  0  0  0  2  0  0  0  0  0  0
  183.0090  175.7650  138.1710 C   0  0  0  0  0  1  0  0  0  0  0  0
  180.6360  177.8880  139.6060 N   0  0  0  0  0  2  0  0  0  0  0  0
  185.2220  178.6310  139.2940 C   0  0  0  0  0  1  0  0  0  0  0  0
  183.9410  179.4430  139.2670 C   0  0  0  0  0  2  0  0  0  0  0  0
  1 23  1  0  0  0  0
  2  1  1  0  0  0  0
  3  2  1  0  0  0  0
  4  3  1  0  0  0  0
  5  4  1  0  0  0  0
  6  5  1  0  0  0  0
  7  8  1  0  0  0  0
  8  6  2  0  0  0  0
  9 11  2  0  0  0  0
 10  8  1  0  0  0  0
 11 10  1  0  0  0  0
 12 17  1  0  0  0  0
 12 15  2  0  0  0  0
 13 12  1  0  0  0  0
 14 15  1  0  0  0  0
 15 11  1  0  0  0  0
 16 22  1  0  0  0  0
 17  9  1  0  0  0  0
 18 13  2  0  0  0  0
 18 21  1  0  0  0  0
 19 18  1  0  0  0  0
 20 16  2  0  0  0  0
 20 13  1  0  0  0  0
 21 14  2  0  0  0  0
 22 17  2  0  0  0  0
 25 28  2  0  0  0  0
 26 27  2  0  0  0  0
 26 25  1  0  0  0  0
 27 29  1  0  0  0  0
 28 24  1  0  0  0  0
 28 23  1  0  0  0  0
 29 24  2  0  0  0  0
 31 30  2  0  0  0  0
 31 27  1  0  0  0  0
 32 31  1  0  0  0  0
 33 32  1  0  0  0  0
 34 33  1  0  0  0  0
 35 44  1  6  0  0  0
 35 34  1  0  0  0  0
 36 37  2  0  0  0  0
 38 41  1  6  0  0  0
 38 40  1  0  0  0  0
 39 38  1  0  0  0  0
 39 42  1  0  0  0  0
 39 35  1  1  0  0  0
 40 36  1  0  0  0  0
 42 36  1  0  0  0  0
 44 43  1  0  0  0  0
M  END
>  <MODEL>
1

>  <REMARK>
 VINA RESULT:      -8.6      0.000      0.000
  Name = 
  14 active torsions:
  status: ('A' for Active; 'I' for Inactive)
    1  A    between atoms: C_5  and  C_12
    2  A    between atoms: C_5  and  N_31
    3  A    between atoms: N_8  and  C_33
    4  A    between atoms: C_11  and  C_44
    5  A    between atoms: C_18  and  N_27
    6  A    between atoms: C_18  and  C_44
    7  A    between atoms: C_19  and  C_44
    8  A    between atoms: C_21  and  C_29
    9  A    between atoms: N_27  and  N_34
   10  A    between atoms: N_31  and  C_38
   11  A    between atoms: C_35  and  C_42
   12  A    between atoms: C_37  and  C_38
   13  A    between atoms: C_37  and  N_40
   14  A    between atoms: N_40  and  C_42
                            x       y       z     vdW  Elec       q    Type
                         _______ _______ _______ _____ _____    ______ ____

>  <TORSDO>
F 14

$$$$
=
 OpenBabel11032420513D

 44 48  0  0  1  0  0  0  0  0999 V2000
  189.9940  176.0370  143.2500 N   0  0  0  0  0  2  0  0  0  0  0  0
  190.9770  176.6950  142.4100 C   0  0  0  0  0  2  0  0  0  0  0  0
  190.2910  177.2860  141.1930 C   0  0  0  0  0  2  0  0  0  0  0  0
  190.5450  176.4500  140.0320 N   0  0  0  0  0  2  0  0  0  0  0  0
  190.3420  177.2750  138.8510 C   0  0  0  0  0  2  0  0  0  0  0  0
  191.0060  176.6430  137.6700 C   0  0  0  0  0  3  0  0  0  0  0  0
  191.1280  175.7590  135.4180 C   0  0  0  0  0  1  0  0  0  0  0  0
  190.3610  176.3870  136.5310 C   0  0  0  0  0  0  0  0  0  0  0  0
  187.9920  174.5570  137.0200 N   0  0  0  0  0  0  0  0  0  0  0  0
  188.9650  176.6970  136.4060 N   0  0  0  0  0  2  0  0  0  0  0  0
  187.8680  175.8170  136.6740 C   0  0  0  0  0  0  0  0  0  0  0  0
  185.7790  175.0820  136.8700 C   0  0  0  0  0  0  0  0  0  0  0  0
  184.4090  174.9890  136.8790 C   0  0  0  0  0  0  0  0  0  0  0  0
  185.8160  177.3440  136.2320 N   0  0  0  0  0  0  0  0  0  0  0  0
  186.4570  176.1940  136.5640 C   0  0  0  0  0  0  0  0  0  0  0  0
  184.7470  172.6510  137.5220 C   0  0  0  0  0  3  0  0  0  0  0  0
  186.6430  174.0840  137.1500 C   0  0  0  0  0  0  0  0  0  0  0  0
  183.7010  176.1630  136.5430 C   0  0  0  0  0  0  0  0  0  0  0  0
  181.9120  176.2010  136.5110 S   0  0  0  0  0  1  0  0  0  0  0  0
  183.8690  173.7310  137.2190 C   0  0  0  0  0  3  0  0  0  0  0  0
  184.4390  177.3410  136.2190 C   0  0  0  0  0  3  0  0  0  0  0  0
  186.1580  172.8190  137.4890 C   0  0  0  0  0  3  0  0  0  0  0  0
  189.7860  176.9000  144.4000 C   0  0  0  0  0  2  0  0  0  0  0  0
  187.8100  177.7770  145.6600 C   0  0  0  0  0  3  0  0  0  0  0  0
  187.5910  177.3340  143.2900 C   0  0  0  0  0  3  0  0  0  0  0  0
  186.2610  177.7640  143.3320 C   0  0  0  0  0  3  0  0  0  0  0  0
  185.6970  178.2040  144.5390 C   0  0  0  0  0  0  0  0  0  0  0  0
  188.3640  177.3340  144.4540 C   0  0  0  0  0  0  0  0  0  0  0  0
  186.4800  178.2080  145.7030 C   0  0  0  0  0  3  0  0  0  0  0  0
  183.8020  179.0730  145.6700 O   0  0  0  0  0  0  0  0  0  0  0  0
  184.2990  178.6670  144.5840 C   0  0  0  0  0  0  0  0  0  0  0  0
  183.4980  178.6510  143.3980 N   0  0  0  0  0  2  0  0  0  0  0  0
  182.1440  179.0190  143.4130 N   0  0  0  0  0  2  0  0  0  0  0  0
  181.7700  179.3850  142.0530 C   0  0  0  0  0  2  0  0  0  0  0  0
  181.6730  178.1410  141.1650 C   0  0  2  0  0  3  0  0  0  0  0  0
  184.6560  178.8510  139.5750 C   0  0  0  0  0  0  0  0  0  0  0  0
  185.9110  178.7610  139.5580 O   0  0  0  0  0  0  0  0  0  0  0  0
  182.5460  179.7420  139.3530 C   0  0  1  0  0  3  0  0  0  0  0  0
  182.4500  178.2810  139.8510 C   0  0  1  0  0  3  0  0  0  0  0  0
  183.9650  180.0140  139.1720 N   0  0  0  0  0  2  0  0  0  0  0  0
  181.8270  179.8800  138.0240 C   0  0  0  0  0  1  0  0  0  0  0  0
  183.8170  177.8020  140.0020 N   0  0  0  0  0  2  0  0  0  0  0  0
  180.1060  176.9330  139.6440 C   0  0  0  0  0  1  0  0  0  0  0  0
  180.2170  177.8110  140.8770 C   0  0  0  0  0  2  0  0  0  0  0  0
  1 23  1  0  0  0  0
  2  1  1  0  0  0  0
  3  2  1  0  0  0  0
  4  3  1  0  0  0  0
  5  4  1  0  0  0  0
  6  5  1  0  0  0  0
  7  8  1  0  0  0  0
  8  6  2  0  0  0  0
  9 17  1  0  0  0  0
 10  8  1  0  0  0  0
 10 11  1  0  0  0  0
 11  9  2  0  0  0  0
 12 13  1  0  0  0  0
 12 17  1  0  0  0  0
 13 20  1  0  0  0  0
 14 15  1  0  0  0  0
 15 11  1  0  0  0  0
 15 12  2  0  0  0  0
 17 22  2  0  0  0  0
 18 13  2  0  0  0  0
 19 18  1  0  0  0  0
 20 16  2  0  0  0  0
 21 14  2  0  0  0  0
 21 18  1  0  0  0  0
 22 16  1  0  0  0  0
 23 28  1  0  0  0  0
 24 29  1  0  0  0  0
 25 26  2  0  0  0  0
 25 28  1  0  0  0  0
 26 27  1  0  0  0  0
 27 31  1  0  0  0  0
 27 29  2  0  0  0  0
 28 24  2  0  0  0  0
 31 30  2  0  0  0  0
 32 33  1  0  0  0  0
 32 31  1  0  0  0  0
 34 33  1  0  0  0  0
 35 44  1  6  0  0  0
 35 34  1  0  0  0  0
 36 42  1  0  0  0  0
 37 36  2  0  0  0  0
 38 41  1  6  0  0  0
 38 39  1  0  0  0  0
 39 42  1  0  0  0  0
 39 35  1  1  0  0  0
 40 38  1  0  0  0  0
 40 36  1  0  0  0  0
 43 44  1  0  0  0  0
M  END
>  <MODEL>
2

>  <REMARK>
 VINA RESULT:      -8.5      2.803      4.890
  Name = 
  14 active torsions:
  status: ('A' for Active; 'I' for Inactive)
    1  A    between atoms: C_5  and  C_12
    2  A    between atoms: C_5  and  N_31
    3  A    between atoms: N_8  and  C_33
    4  A    between atoms: C_11  and  C_44
    5  A    between atoms: C_18  and  N_27
    6  A    between atoms: C_18  and  C_44
    7  A    between atoms: C_19  and  C_44
    8  A    between atoms: C_21  and  C_29
    9  A    between atoms: N_27  and  N_34
   10  A    between atoms: N_31  and  C_38
   11  A    between atoms: C_35  and  C_42
   12  A    between atoms: C_37  and  C_38
   13  A    between atoms: C_37  and  N_40
   14  A    between atoms: N_40  and  C_42
                            x       y       z     vdW  Elec       q    Type
                         _______ _______ _______ _____ _____    ______ ____

>  <TORSDO>
F 14

$$$$
=
 OpenBabel11032420513D

 44 48  0  0  1  0  0  0  0  0999 V2000
  189.0780  176.7420  146.6590 N   0  0  0  0  0  2  0  0  0  0  0  0
  190.4160  177.2760  146.8360 C   0  0  0  0  0  2  0  0  0  0  0  0
  191.3430  176.6800  145.7940 C   0  0  0  0  0  2  0  0  0  0  0  0
  191.6470  177.6760  144.7810 N   0  0  0  0  0  2  0  0  0  0  0  0
  191.3430  177.0850  143.4870 C   0  0  0  0  0  2  0  0  0  0  0  0
  190.0540  177.6350  142.9670 C   0  0  0  0  0  3  0  0  0  0  0  0
  188.4700  178.3150  141.2640 C   0  0  0  0  0  1  0  0  0  0  0  0
  189.7930  177.7580  141.6650 C   0  0  0  0  0  0  0  0  0  0  0  0
  189.3400  176.5100  138.9380 N   0  0  0  0  0  0  0  0  0  0  0  0
  190.7790  177.3770  140.6930 N   0  0  0  0  0  2  0  0  0  0  0  0
  190.5300  176.8160  139.3990 C   0  0  0  0  0  0  0  0  0  0  0  0
  190.9160  175.9620  137.3840 C   0  0  0  0  0  0  0  0  0  0  0  0
  191.5200  175.4980  136.2420 C   0  0  0  0  0  0  0  0  0  0  0  0
  192.9270  176.5800  138.4320 N   0  0  0  0  0  0  0  0  0  0  0  0
  191.5730  176.4770  138.4290 C   0  0  0  0  0  0  0  0  0  0  0  0
  189.2590  174.9630  135.4710 C   0  0  0  0  0  3  0  0  0  0  0  0
  189.5890  175.9620  137.6350 C   0  0  0  0  0  0  0  0  0  0  0  0
  192.9290  175.5900  136.1990 C   0  0  0  0  0  0  0  0  0  0  0  0
  193.8610  175.0270  134.7790 S   0  0  0  0  0  1  0  0  0  0  0  0
  190.6660  174.9810  135.2460 C   0  0  0  0  0  3  0  0  0  0  0  0
  193.6150  176.1410  137.3220 C   0  0  0  0  0  3  0  0  0  0  0  0
  188.7020  175.4570  136.6820 C   0  0  0  0  0  3  0  0  0  0  0  0
  188.1640  177.7110  147.2380 C   0  0  0  0  0  2  0  0  0  0  0  0
  187.1610  177.5950  144.9480 C   0  0  0  0  0  3  0  0  0  0  0  0
  185.8860  178.6070  146.7400 C   0  0  0  0  0  3  0  0  0  0  0  0
  184.8300  178.8460  145.8550 C   0  0  0  0  0  3  0  0  0  0  0  0
  184.9330  178.4610  144.5090 C   0  0  0  0  0  0  0  0  0  0  0  0
  187.0530  177.9870  146.2860 C   0  0  0  0  0  0  0  0  0  0  0  0
  186.1050  177.8330  144.0620 C   0  0  0  0  0  3  0  0  0  0  0  0
  182.6960  179.0770  144.0160 O   0  0  0  0  0  0  0  0  0  0  0  0
  183.8190  178.7040  143.5770 C   0  0  0  0  0  0  0  0  0  0  0  0
  184.0050  178.5150  142.1700 N   0  0  0  0  0  2  0  0  0  0  0  0
  182.9520  178.6710  141.2560 N   0  0  0  0  0  2  0  0  0  0  0  0
  183.0550  177.5980  140.2750 C   0  0  0  0  0  2  0  0  0  0  0  0
  183.5440  178.1400  138.9300 C   0  0  2  0  0  3  0  0  0  0  0  0
  186.5630  178.4660  137.2830 C   0  0  0  0  0  0  0  0  0  0  0  0
  187.5730  179.1700  137.0210 O   0  0  0  0  0  0  0  0  0  0  0  0
  184.8040  177.0120  136.9930 C   0  0  1  0  0  3  0  0  0  0  0  0
  184.8520  177.4910  138.4630 C   0  0  1  0  0  3  0  0  0  0  0  0
  185.9320  177.6440  136.3250 N   0  0  0  0  0  2  0  0  0  0  0  0
  184.9580  175.5040  136.9400 C   0  0  0  0  0  1  0  0  0  0  0  0
  185.9620  178.4310  138.5570 N   0  0  0  0  0  2  0  0  0  0  0  0
  182.4170  180.3420  138.6000 C   0  0  0  0  0  1  0  0  0  0  0  0
  183.7080  179.6510  138.9970 C   0  0  0  0  0  2  0  0  0  0  0  0
  1  2  1  0  0  0  0
  1 23  1  0  0  0  0
  3  2  1  0  0  0  0
  4  3  1  0  0  0  0
  5  4  1  0  0  0  0
  6  5  1  0  0  0  0
  7  8  1  0  0  0  0
  8  6  2  0  0  0  0
  9 11  2  0  0  0  0
 10  8  1  0  0  0  0
 11 10  1  0  0  0  0
 12 17  1  0  0  0  0
 12 15  2  0  0  0  0
 13 12  1  0  0  0  0
 15 14  1  0  0  0  0
 15 11  1  0  0  0  0
 16 22  1  0  0  0  0
 17  9  1  0  0  0  0
 18 13  2  0  0  0  0
 18 21  1  0  0  0  0
 19 18  1  0  0  0  0
 20 16  2  0  0  0  0
 20 13  1  0  0  0  0
 21 14  2  0  0  0  0
 22 17  2  0  0  0  0
 24 28  1  0  0  0  0
 26 25  1  0  0  0  0
 27 26  2  0  0  0  0
 28 25  2  0  0  0  0
 28 23  1  0  0  0  0
 29 27  1  0  0  0  0
 29 24  2  0  0  0  0
 31 30  2  0  0  0  0
 31 27  1  0  0  0  0
 32 31  1  0  0  0  0
 33 32  1  0  0  0  0
 34 33  1  0  0  0  0
 35 44  1  1  0  0  0
 35 34  1  0  0  0  0
 36 42  1  0  0  0  0
 37 36  2  0  0  0  0
 38 41  1  1  0  0  0
 38 39  1  0  0  0  0
 39 42  1  0  0  0  0
 39 35  1  6  0  0  0
 40 38  1  0  0  0  0
 40 36  1  0  0  0  0
 43 44  1  0  0  0  0
M  END
>  <MODEL>
3

>  <REMARK>
 VINA RESULT:      -8.4      1.931      2.647
  Name = 
  14 active torsions:
  status: ('A' for Active; 'I' for Inactive)
    1  A    between atoms: C_5  and  C_12
    2  A    between atoms: C_5  and  N_31
    3  A    between atoms: N_8  and  C_33
    4  A    between atoms: C_11  and  C_44
    5  A    between atoms: C_18  and  N_27
    6  A    between atoms: C_18  and  C_44
    7  A    between atoms: C_19  and  C_44
    8  A    between atoms: C_21  and  C_29
    9  A    between atoms: N_27  and  N_34
   10  A    between atoms: N_31  and  C_38
   11  A    between atoms: C_35  and  C_42
   12  A    between atoms: C_37  and  C_38
   13  A    between atoms: C_37  and  N_40
   14  A    between atoms: N_40  and  C_42
                            x       y       z     vdW  Elec       q    Type
                         _______ _______ _______ _____ _____    ______ ____

>  <TORSDO>
F 14

$$$$
=
 OpenBabel11032420513D

 44 48  0  0  1  0  0  0  0  0999 V2000
  183.2080  178.2430  140.4510 N   0  0  0  0  0  2  0  0  0  0  0  0
  182.4290  177.1650  139.8710 C   0  0  0  0  0  2  0  0  0  0  0  0
  180.9550  177.5170  139.9260 C   0  0  0  0  0  2  0  0  0  0  0  0
  180.1840  176.5130  139.2130 N   0  0  0  0  0  2  0  0  0  0  0  0
  180.8560  175.2360  139.4000 C   0  0  0  0  0  2  0  0  0  0  0  0
  180.6220  174.3600  138.2130 C   0  0  0  0  0  3  0  0  0  0  0  0
  181.0990  173.4290  136.0270 C   0  0  0  0  0  1  0  0  0  0  0  0
  181.4300  174.3500  137.1520 C   0  0  0  0  0  0  0  0  0  0  0  0
  184.3660  173.5850  137.1230 N   0  0  0  0  0  0  0  0  0  0  0  0
  182.5700  175.2220  137.1040 N   0  0  0  0  0  2  0  0  0  0  0  0
  183.9460  174.8270  137.0620 C   0  0  0  0  0  0  0  0  0  0  0  0
  186.1620  174.9820  136.9910 C   0  0  0  0  0  0  0  0  0  0  0  0
  187.4500  175.4550  136.9400 C   0  0  0  0  0  0  0  0  0  0  0  0
  185.1690  177.1120  136.9110 N   0  0  0  0  0  0  0  0  0  0  0  0
  185.0730  175.7590  136.9780 C   0  0  0  0  0  0  0  0  0  0  0  0
  188.1320  173.1080  137.0580 C   0  0  0  0  0  3  0  0  0  0  0  0
  185.7960  173.6860  137.0740 C   0  0  0  0  0  0  0  0  0  0  0  0
  187.5970  176.8580  136.8650 C   0  0  0  0  0  0  0  0  0  0  0  0
  189.2120  177.6270  136.7920 S   0  0  0  0  0  1  0  0  0  0  0  0
  188.4750  174.4880  136.9720 C   0  0  0  0  0  3  0  0  0  0  0  0
  186.4260  177.6720  136.8530 C   0  0  0  0  0  3  0  0  0  0  0  0
  186.7740  172.6900  137.1120 C   0  0  0  0  0  3  0  0  0  0  0  0
  182.4860  178.6910  141.6300 C   0  0  0  0  0  2  0  0  0  0  0  0
  184.7360  178.3280  142.6630 C   0  0  0  0  0  3  0  0  0  0  0  0
  182.8870  178.9970  144.0760 C   0  0  0  0  0  3  0  0  0  0  0  0
  183.7350  178.9930  145.1880 C   0  0  0  0  0  3  0  0  0  0  0  0
  185.0890  178.6560  145.0450 C   0  0  0  0  0  0  0  0  0  0  0  0
  183.3860  178.6600  142.8150 C   0  0  0  0  0  0  0  0  0  0  0  0
  185.5850  178.3240  143.7750 C   0  0  0  0  0  3  0  0  0  0  0  0
  185.7880  179.4680  147.1610 O   0  0  0  0  0  0  0  0  0  0  0  0
  185.9860  178.6590  146.2140 C   0  0  0  0  0  0  0  0  0  0  0  0
  187.0870  177.7470  146.2770 N   0  0  0  0  0  2  0  0  0  0  0  0
  188.0030  177.7630  147.3400 N   0  0  0  0  0  2  0  0  0  0  0  0
  188.9730  176.7010  147.1050 C   0  0  0  0  0  2  0  0  0  0  0  0
  190.2730  177.2750  146.5350 C   0  0  2  0  0  3  0  0  0  0  0  0
  190.4770  176.4230  143.1930 C   0  0  0  0  0  0  0  0  0  0  0  0
  190.2790  175.5710  142.2890 O   0  0  0  0  0  0  0  0  0  0  0  0
  191.5010  178.0770  144.4220 C   0  0  1  0  0  3  0  0  0  0  0  0
  190.1460  177.7050  145.0680 C   0  0  1  0  0  3  0  0  0  0  0  0
  191.6200  177.2500  143.2300 N   0  0  0  0  0  2  0  0  0  0  0  0
  191.4970  179.5420  144.0290 C   0  0  0  0  0  1  0  0  0  0  0  0
  189.5800  176.6330  144.2590 N   0  0  0  0  0  2  0  0  0  0  0  0
  192.0870  176.4380  148.0310 C   0  0  0  0  0  1  0  0  0  0  0  0
  191.4050  176.2700  146.6860 C   0  0  0  0  0  2  0  0  0  0  0  0
  1 23  1  0  0  0  0
  2  3  1  0  0  0  0
  2  1  1  0  0  0  0
  4  5  1  0  0  0  0
  4  3  1  0  0  0  0
  6  5  1  0  0  0  0
  7  8  1  0  0  0  0
  8  6  2  0  0  0  0
 10  8  1  0  0  0  0
 11 10  1  0  0  0  0
 11  9  2  0  0  0  0
 12 17  1  0  0  0  0
 13 20  1  0  0  0  0
 13 12  1  0  0  0  0
 14 15  1  0  0  0  0
 15 12  2  0  0  0  0
 15 11  1  0  0  0  0
 16 22  1  0  0  0  0
 17 22  2  0  0  0  0
 17  9  1  0  0  0  0
 18 13  2  0  0  0  0
 19 18  1  0  0  0  0
 20 16  2  0  0  0  0
 21 18  1  0  0  0  0
 21 14  2  0  0  0  0
 23 28  1  0  0  0  0
 24 28  2  0  0  0  0
 24 29  1  0  0  0  0
 25 26  2  0  0  0  0
 27 26  1  0  0  0  0
 27 31  1  0  0  0  0
 28 25  1  0  0  0  0
 29 27  2  0  0  0  0
 31 32  1  0  0  0  0
 31 30  2  0  0  0  0
 32 33  1  0  0  0  0
 34 33  1  0  0  0  0
 35 44  1  6  0  0  0
 35 34  1  0  0  0  0
 36 40  1  0  0  0  0
 36 42  1  0  0  0  0
 37 36  2  0  0  0  0
 38 41  1  6  0  0  0
 38 39  1  0  0  0  0
 39 35  1  1  0  0  0
 40 38  1  0  0  0  0
 42 39  1  0  0  0  0
 44 43  1  0  0  0  0
M  END
>  <MODEL>
4

>  <REMARK>
 VINA RESULT:      -8.3      2.907      8.165
  Name = 
  14 active torsions:
  status: ('A' for Active; 'I' for Inactive)
    1  A    between atoms: C_5  and  C_12
    2  A    between atoms: C_5  and  N_31
    3  A    between atoms: N_8  and  C_33
    4  A    between atoms: C_11  and  C_44
    5  A    between atoms: C_18  and  N_27
    6  A    between atoms: C_18  and  C_44
    7  A    between atoms: C_19  and  C_44
    8  A    between atoms: C_21  and  C_29
    9  A    between atoms: N_27  and  N_34
   10  A    between atoms: N_31  and  C_38
   11  A    between atoms: C_35  and  C_42
   12  A    between atoms: C_37  and  C_38
   13  A    between atoms: C_37  and  N_40
   14  A    between atoms: N_40  and  C_42
                            x       y       z     vdW  Elec       q    Type
                         _______ _______ _______ _____ _____    ______ ____

>  <TORSDO>
F 14

$$$$
=
 OpenBabel11032420513D

 44 48  0  0  1  0  0  0  0  0999 V2000
  181.7680  178.4880  141.8380 N   0  0  0  0  0  2  0  0  0  0  0  0
  181.0500  178.5440  140.5790 C   0  0  0  0  0  2  0  0  0  0  0  0
  180.9960  177.1590  139.9630 C   0  0  0  0  0  2  0  0  0  0  0  0
  181.1940  177.2540  138.5260 N   0  0  0  0  0  2  0  0  0  0  0  0
  182.6070  177.0260  138.2670 C   0  0  0  0  0  2  0  0  0  0  0  0
  182.8340  176.8580  136.7990 C   0  0  0  0  0  3  0  0  0  0  0  0
  184.1380  176.8130  134.7580 C   0  0  0  0  0  1  0  0  0  0  0  0
  184.0310  177.0100  136.2310 C   0  0  0  0  0  0  0  0  0  0  0  0
  186.7210  175.6170  136.3880 N   0  0  0  0  0  0  0  0  0  0  0  0
  185.1680  177.3710  137.0300 N   0  0  0  0  0  2  0  0  0  0  0  0
  186.4370  176.7090  137.0590 C   0  0  0  0  0  0  0  0  0  0  0  0
  188.5350  176.2380  137.6210 C   0  0  0  0  0  0  0  0  0  0  0  0
  189.7840  176.2590  138.1910 C   0  0  0  0  0  0  0  0  0  0  0  0
  187.7850  178.1730  138.7250 N   0  0  0  0  0  0  0  0  0  0  0  0
  187.5790  177.1400  137.8680 C   0  0  0  0  0  0  0  0  0  0  0  0
  190.2160  174.2250  136.9000 C   0  0  0  0  0  3  0  0  0  0  0  0
  188.0760  175.3150  136.7490 C   0  0  0  0  0  0  0  0  0  0  0  0
  190.0440  177.3190  139.0870 C   0  0  0  0  0  0  0  0  0  0  0  0
  191.6250  177.4830  139.9100 S   0  0  0  0  0  1  0  0  0  0  0  0
  190.6600  175.2190  137.8190 C   0  0  0  0  0  3  0  0  0  0  0  0
  189.0130  178.2730  139.3400 C   0  0  0  0  0  3  0  0  0  0  0  0
  188.9050  174.2630  136.3520 C   0  0  0  0  0  3  0  0  0  0  0  0
  183.1290  178.9160  141.5600 C   0  0  0  0  0  2  0  0  0  0  0  0
  183.4420  179.3890  143.9970 C   0  0  0  0  0  3  0  0  0  0  0  0
  185.1900  178.2270  142.7910 C   0  0  0  0  0  3  0  0  0  0  0  0
  185.9460  178.1450  143.9640 C   0  0  0  0  0  3  0  0  0  0  0  0
  185.4560  178.6850  145.1630 C   0  0  0  0  0  0  0  0  0  0  0  0
  183.9410  178.8540  142.8050 C   0  0  0  0  0  0  0  0  0  0  0  0
  184.1980  179.3070  145.1710 C   0  0  0  0  0  3  0  0  0  0  0  0
  185.9140  179.2640  147.4160 O   0  0  0  0  0  0  0  0  0  0  0  0
  186.2470  178.5930  146.4020 C   0  0  0  0  0  0  0  0  0  0  0  0
  187.3980  177.7440  146.4570 N   0  0  0  0  0  2  0  0  0  0  0  0
  188.2160  177.6800  147.5950 N   0  0  0  0  0  2  0  0  0  0  0  0
  189.1540  176.5810  147.4040 C   0  0  0  0  0  2  0  0  0  0  0  0
  190.4650  177.0890  146.7980 C   0  0  2  0  0  3  0  0  0  0  0  0
  190.4110  176.4020  143.4130 C   0  0  0  0  0  0  0  0  0  0  0  0
  190.0860  175.6210  142.4820 O   0  0  0  0  0  0  0  0  0  0  0  0
  191.6490  177.8880  144.6600 C   0  0  1  0  0  3  0  0  0  0  0  0
  190.3010  177.6070  145.3640 C   0  0  1  0  0  3  0  0  0  0  0  0
  191.6270  177.1190  143.4240 N   0  0  0  0  0  2  0  0  0  0  0  0
  191.7620  179.3670  144.3390 C   0  0  0  0  0  1  0  0  0  0  0  0
  189.5950  176.6350  144.5390 N   0  0  0  0  0  2  0  0  0  0  0  0
  192.3550  176.1150  148.1050 C   0  0  0  0  0  1  0  0  0  0  0  0
  191.5240  175.9990  146.8410 C   0  0  0  0  0  2  0  0  0  0  0  0
  2  1  1  0  0  0  0
  3  2  1  0  0  0  0
  4  3  1  0  0  0  0
  5  4  1  0  0  0  0
  6  5  1  0  0  0  0
  7  8  1  0  0  0  0
  8  6  2  0  0  0  0
  8 10  1  0  0  0  0
  9 17  1  0  0  0  0
  9 11  2  0  0  0  0
 10 11  1  0  0  0  0
 11 15  1  0  0  0  0
 12 15  1  0  0  0  0
 12 13  1  0  0  0  0
 13 18  1  0  0  0  0
 14 21  1  0  0  0  0
 15 14  2  0  0  0  0
 16 20  1  0  0  0  0
 17 12  2  0  0  0  0
 18 21  2  0  0  0  0
 18 19  1  0  0  0  0
 20 13  2  0  0  0  0
 22 17  1  0  0  0  0
 22 16  2  0  0  0  0
 23  1  1  0  0  0  0
 23 28  1  0  0  0  0
 24 29  1  0  0  0  0
 25 28  1  0  0  0  0
 25 26  2  0  0  0  0
 26 27  1  0  0  0  0
 27 29  2  0  0  0  0
 27 31  1  0  0  0  0
 28 24  2  0  0  0  0
 31 32  1  0  0  0  0
 31 30  2  0  0  0  0
 32 33  1  0  0  0  0
 34 33  1  0  0  0  0
 35 44  1  6  0  0  0
 35 34  1  0  0  0  0
 36 40  1  0  0  0  0
 36 42  1  0  0  0  0
 37 36  2  0  0  0  0
 38 41  1  6  0  0  0
 38 39  1  0  0  0  0
 39 35  1  1  0  0  0
 40 38  1  0  0  0  0
 42 39  1  0  0  0  0
 44 43  1  0  0  0  0
M  END
>  <MODEL>
5

>  <REMARK>
 VINA RESULT:      -8.3      2.593      7.688
  Name = 
  14 active torsions:
  status: ('A' for Active; 'I' for Inactive)
    1  A    between atoms: C_5  and  C_12
    2  A    between atoms: C_5  and  N_31
    3  A    between atoms: N_8  and  C_33
    4  A    between atoms: C_11  and  C_44
    5  A    between atoms: C_18  and  N_27
    6  A    between atoms: C_18  and  C_44
    7  A    between atoms: C_19  and  C_44
    8  A    between atoms: C_21  and  C_29
    9  A    between atoms: N_27  and  N_34
   10  A    between atoms: N_31  and  C_38
   11  A    between atoms: C_35  and  C_42
   12  A    between atoms: C_37  and  C_38
   13  A    between atoms: C_37  and  N_40
   14  A    between atoms: N_40  and  C_42
                            x       y       z     vdW  Elec       q    Type
                         _______ _______ _______ _____ _____    ______ ____

>  <TORSDO>
F 14

$$$$
=
 OpenBabel11032420513D

 44 48  0  0  1  0  0  0  0  0999 V2000
  187.3430  177.8360  145.9250 N   0  0  0  0  0  2  0  0  0  0  0  0
  188.6780  177.2860  146.0710 C   0  0  0  0  0  2  0  0  0  0  0  0
  189.5970  177.9040  145.0350 C   0  0  0  0  0  2  0  0  0  0  0  0
  190.4180  176.8690  144.4290 N   0  0  0  0  0  2  0  0  0  0  0  0
  190.2150  176.9410  142.9900 C   0  0  0  0  0  2  0  0  0  0  0  0
  191.5310  177.1070  142.2990 C   0  0  0  0  0  3  0  0  0  0  0  0
  192.9990  177.5480  140.4230 C   0  0  0  0  0  1  0  0  0  0  0  0
  191.6330  177.4010  141.0030 C   0  0  0  0  0  0  0  0  0  0  0  0
  190.7170  175.6630  138.6910 N   0  0  0  0  0  0  0  0  0  0  0  0
  190.4520  177.5490  140.2000 N   0  0  0  0  0  2  0  0  0  0  0  0
  190.0320  176.6920  139.1320 C   0  0  0  0  0  0  0  0  0  0  0  0
  188.8090  175.8810  137.4630 C   0  0  0  0  0  0  0  0  0  0  0  0
  187.8290  175.6800  136.5230 C   0  0  0  0  0  0  0  0  0  0  0  0
  187.7800  177.7670  138.4180 N   0  0  0  0  0  0  0  0  0  0  0  0
  188.7960  176.8680  138.3660 C   0  0  0  0  0  0  0  0  0  0  0  0
  189.1810  173.7830  135.7730 C   0  0  0  0  0  3  0  0  0  0  0  0
  189.9260  175.1380  137.6150 C   0  0  0  0  0  0  0  0  0  0  0  0
  186.7490  176.5900  136.5420 C   0  0  0  0  0  0  0  0  0  0  0  0
  185.3940  176.4600  135.3790 S   0  0  0  0  0  1  0  0  0  0  0  0
  188.0160  174.5920  135.6450 C   0  0  0  0  0  3  0  0  0  0  0  0
  186.7510  177.6380  137.5110 C   0  0  0  0  0  3  0  0  0  0  0  0
  190.1580  174.0520  136.7680 C   0  0  0  0  0  3  0  0  0  0  0  0
  187.1400  178.0650  144.5060 C   0  0  0  0  0  2  0  0  0  0  0  0
  185.1820  178.1880  142.9530 C   0  0  0  0  0  3  0  0  0  0  0  0
  184.8670  178.7440  145.2890 C   0  0  0  0  0  3  0  0  0  0  0  0
  183.5120  178.9880  145.0480 C   0  0  0  0  0  3  0  0  0  0  0  0
  182.9820  178.8350  143.7580 C   0  0  0  0  0  0  0  0  0  0  0  0
  185.7040  178.3490  144.2410 C   0  0  0  0  0  0  0  0  0  0  0  0
  183.8260  178.4320  142.7120 C   0  0  0  0  0  3  0  0  0  0  0  0
  180.6810  178.2990  143.9710 O   0  0  0  0  0  0  0  0  0  0  0  0
  181.5520  179.0840  143.5050 C   0  0  0  0  0  0  0  0  0  0  0  0
  181.1470  180.2140  142.7250 N   0  0  0  0  0  2  0  0  0  0  0  0
  179.8020  180.4480  142.4040 N   0  0  0  0  0  2  0  0  0  0  0  0
  179.6820  180.4290  140.9520 C   0  0  0  0  0  2  0  0  0  0  0  0
  180.2790  179.1410  140.3780 C   0  0  2  0  0  3  0  0  0  0  0  0
  183.4040  179.9450  139.1450 C   0  0  0  0  0  0  0  0  0  0  0  0
  184.6540  179.8360  139.2350 O   0  0  0  0  0  0  0  0  0  0  0  0
  181.3320  180.8870  138.8110 C   0  0  1  0  0  3  0  0  0  0  0  0
  181.1770  179.3880  139.1600 C   0  0  1  0  0  3  0  0  0  0  0  0
  182.7630  181.1510  138.7890 N   0  0  0  0  0  2  0  0  0  0  0  0
  180.7410  181.1580  137.4400 C   0  0  0  0  0  1  0  0  0  0  0  0
  182.5210  178.8740  139.3920 N   0  0  0  0  0  2  0  0  0  0  0  0
  179.3080  176.8890  140.8370 C   0  0  0  0  0  1  0  0  0  0  0  0
  179.1740  178.1600  140.0200 C   0  0  0  0  0  2  0  0  0  0  0  0
  1  2  1  0  0  0  0
  3  2  1  0  0  0  0
  4  3  1  0  0  0  0
  5  4  1  0  0  0  0
  6  5  1  0  0  0  0
  7  8  1  0  0  0  0
  8  6  2  0  0  0  0
  9 11  2  0  0  0  0
 10  8  1  0  0  0  0
 11 10  1  0  0  0  0
 12 17  1  0  0  0  0
 12 15  2  0  0  0  0
 13 18  2  0  0  0  0
 13 12  1  0  0  0  0
 15 14  1  0  0  0  0
 15 11  1  0  0  0  0
 16 22  1  0  0  0  0
 17  9  1  0  0  0  0
 18 21  1  0  0  0  0
 19 18  1  0  0  0  0
 20 16  2  0  0  0  0
 20 13  1  0  0  0  0
 21 14  2  0  0  0  0
 22 17  2  0  0  0  0
 23  1  1  0  0  0  0
 24 28  1  0  0  0  0
 26 25  1  0  0  0  0
 27 26  2  0  0  0  0
 28 23  1  0  0  0  0
 28 25  2  0  0  0  0
 29 24  2  0  0  0  0
 29 27  1  0  0  0  0
 31 27  1  0  0  0  0
 31 30  2  0  0  0  0
 32 31  1  0  0  0  0
 33 32  1  0  0  0  0
 34 33  1  0  0  0  0
 35 44  1  6  0  0  0
 35 34  1  0  0  0  0
 36 37  2  0  0  0  0
 36 42  1  0  0  0  0
 38 41  1  6  0  0  0
 38 39  1  0  0  0  0
 39 42  1  0  0  0  0
 39 35  1  1  0  0  0
 40 38  1  0  0  0  0
 40 36  1  0  0  0  0
 44 43  1  0  0  0  0
M  END
>  <MODEL>
6

>  <REMARK>
 VINA RESULT:      -8.2      2.557      3.940
  Name = 
  14 active torsions:
  status: ('A' for Active; 'I' for Inactive)
    1  A    between atoms: C_5  and  C_12
    2  A    between atoms: C_5  and  N_31
    3  A    between atoms: N_8  and  C_33
    4  A    between atoms: C_11  and  C_44
    5  A    between atoms: C_18  and  N_27
    6  A    between atoms: C_18  and  C_44
    7  A    between atoms: C_19  and  C_44
    8  A    between atoms: C_21  and  C_29
    9  A    between atoms: N_27  and  N_34
   10  A    between atoms: N_31  and  C_38
   11  A    between atoms: C_35  and  C_42
   12  A    between atoms: C_37  and  C_38
   13  A    between atoms: C_37  and  N_40
   14  A    between atoms: N_40  and  C_42
                            x       y       z     vdW  Elec       q    Type
                         _______ _______ _______ _____ _____    ______ ____

>  <TORSDO>
F 14

$$$$
=
 OpenBabel11032420513D

 44 48  0  0  1  0  0  0  0  0999 V2000
  190.0060  178.1200  144.3970 N   0  0  0  0  0  2  0  0  0  0  0  0
  190.9640  177.2350  143.7620 C   0  0  0  0  0  2  0  0  0  0  0  0
  190.3110  176.5390  142.5840 C   0  0  0  0  0  2  0  0  0  0  0  0
  189.7530  177.5280  141.6770 N   0  0  0  0  0  2  0  0  0  0  0  0
  189.8870  177.0030  140.3270 C   0  0  0  0  0  2  0  0  0  0  0  0
  189.7200  178.1080  139.3340 C   0  0  0  0  0  3  0  0  0  0  0  0
  189.0370  179.1030  137.2330 C   0  0  0  0  0  1  0  0  0  0  0  0
  189.1550  177.9250  138.1400 C   0  0  0  0  0  0  0  0  0  0  0  0
  186.3220  177.0580  137.4890 N   0  0  0  0  0  0  0  0  0  0  0  0
  188.6980  176.6220  137.7490 N   0  0  0  0  0  2  0  0  0  0  0  0
  187.3550  176.2510  137.4190 C   0  0  0  0  0  0  0  0  0  0  0  0
  185.6230  174.9950  136.8160 C   0  0  0  0  0  0  0  0  0  0  0  0
  184.8270  173.9490  136.4220 C   0  0  0  0  0  0  0  0  0  0  0  0
  187.6150  173.7480  136.7830 N   0  0  0  0  0  0  0  0  0  0  0  0
  186.9470  174.9110  136.9910 C   0  0  0  0  0  0  0  0  0  0  0  0
  182.9660  175.5300  136.5840 C   0  0  0  0  0  3  0  0  0  0  0  0
  185.2050  176.2480  137.0960 C   0  0  0  0  0  0  0  0  0  0  0  0
  185.4820  172.7190  136.1900 C   0  0  0  0  0  0  0  0  0  0  0  0
  184.5810  171.2610  135.6720 S   0  0  0  0  0  1  0  0  0  0  0  0
  183.4490  174.2210  136.2980 C   0  0  0  0  0  3  0  0  0  0  0  0
  186.8940  172.6450  136.3820 C   0  0  0  0  0  3  0  0  0  0  0  0
  183.8490  176.5670  136.9920 C   0  0  0  0  0  3  0  0  0  0  0  0
  189.1850  177.2920  145.2630 C   0  0  0  0  0  2  0  0  0  0  0  0
  187.1040  177.5840  143.9030 C   0  0  0  0  0  3  0  0  0  0  0  0
  187.0560  178.1370  146.2600 C   0  0  0  0  0  3  0  0  0  0  0  0
  185.7070  178.4890  146.1500 C   0  0  0  0  0  3  0  0  0  0  0  0
  185.0480  178.3910  144.9160 C   0  0  0  0  0  0  0  0  0  0  0  0
  187.7560  177.6900  145.1360 C   0  0  0  0  0  0  0  0  0  0  0  0
  185.7550  177.9360  143.7930 C   0  0  0  0  0  3  0  0  0  0  0  0
  182.9500  179.0070  145.8360 O   0  0  0  0  0  0  0  0  0  0  0  0
  183.6240  178.7530  144.8000 C   0  0  0  0  0  0  0  0  0  0  0  0
  183.0010  178.8140  143.5130 N   0  0  0  0  0  2  0  0  0  0  0  0
  181.6330  179.0890  143.3650 N   0  0  0  0  0  2  0  0  0  0  0  0
  181.3940  179.3980  141.9610 C   0  0  0  0  0  2  0  0  0  0  0  0
  181.4900  178.1320  141.1050 C   0  0  2  0  0  3  0  0  0  0  0  0
  184.6670  178.9810  140.0450 C   0  0  0  0  0  0  0  0  0  0  0  0
  185.9060  178.9800  140.2610 O   0  0  0  0  0  0  0  0  0  0  0  0
  182.5840  179.7060  139.3900 C   0  0  1  0  0  3  0  0  0  0  0  0
  182.4870  178.2670  139.9480 C   0  0  1  0  0  3  0  0  0  0  0  0
  183.9910  180.0700  139.4560 N   0  0  0  0  0  2  0  0  0  0  0  0
  182.1160  179.7300  137.9480 C   0  0  0  0  0  1  0  0  0  0  0  0
  183.8310  177.8940  140.3730 N   0  0  0  0  0  2  0  0  0  0  0  0
  180.2560  176.8950  139.3240 C   0  0  0  0  0  1  0  0  0  0  0  0
  180.1190  177.7510  140.5690 C   0  0  0  0  0  2  0  0  0  0  0  0
  1 23  1  0  0  0  0
  2  1  1  0  0  0  0
  3  2  1  0  0  0  0
  4  3  1  0  0  0  0
  5  4  1  0  0  0  0
  6  5  1  0  0  0  0
  7  8  1  0  0  0  0
  8  6  2  0  0  0  0
 10  8  1  0  0  0  0
 11  9  2  0  0  0  0
 11 10  1  0  0  0  0
 12 15  2  0  0  0  0
 12 17  1  0  0  0  0
 13 12  1  0  0  0  0
 14 15  1  0  0  0  0
 15 11  1  0  0  0  0
 16 22  1  0  0  0  0
 17  9  1  0  0  0  0
 18 21  1  0  0  0  0
 18 13  2  0  0  0  0
 19 18  1  0  0  0  0
 20 13  1  0  0  0  0
 20 16  2  0  0  0  0
 21 14  2  0  0  0  0
 22 17  2  0  0  0  0
 24 28  1  0  0  0  0
 26 25  1  0  0  0  0
 27 26  2  0  0  0  0
 28 23  1  0  0  0  0
 28 25  2  0  0  0  0
 29 24  2  0  0  0  0
 29 27  1  0  0  0  0
 31 27  1  0  0  0  0
 31 30  2  0  0  0  0
 32 31  1  0  0  0  0
 33 32  1  0  0  0  0
 34 33  1  0  0  0  0
 35 44  1  6  0  0  0
 35 34  1  0  0  0  0
 36 37  2  0  0  0  0
 36 42  1  0  0  0  0
 38 41  1  6  0  0  0
 38 40  1  0  0  0  0
 38 39  1  0  0  0  0
 39 42  1  0  0  0  0
 39 35  1  1  0  0  0
 40 36  1  0  0  0  0
 43 44  1  0  0  0  0
M  END
>  <MODEL>
7

>  <REMARK>
 VINA RESULT:      -8.2      2.728      4.344
  Name = 
  14 active torsions:
  status: ('A' for Active; 'I' for Inactive)
    1  A    between atoms: C_5  and  C_12
    2  A    between atoms: C_5  and  N_31
    3  A    between atoms: N_8  and  C_33
    4  A    between atoms: C_11  and  C_44
    5  A    between atoms: C_18  and  N_27
    6  A    between atoms: C_18  and  C_44
    7  A    between atoms: C_19  and  C_44
    8  A    between atoms: C_21  and  C_29
    9  A    between atoms: N_27  and  N_34
   10  A    between atoms: N_31  and  C_38
   11  A    between atoms: C_35  and  C_42
   12  A    between atoms: C_37  and  C_38
   13  A    between atoms: C_37  and  N_40
   14  A    between atoms: N_40  and  C_42
                            x       y       z     vdW  Elec       q    Type
                         _______ _______ _______ _____ _____    ______ ____

>  <TORSDO>
F 14

$$$$
=
 OpenBabel11032420513D

 44 48  0  0  1  0  0  0  0  0999 V2000
  183.2950  177.9380  140.4110 N   0  0  0  0  0  2  0  0  0  0  0  0
  182.3580  176.9190  139.9780 C   0  0  0  0  0  2  0  0  0  0  0  0
  180.9640  177.2750  140.4560 C   0  0  0  0  0  2  0  0  0  0  0  0
  180.0400  177.2570  139.3340 N   0  0  0  0  0  2  0  0  0  0  0  0
  180.7610  176.7220  138.1890 C   0  0  0  0  0  2  0  0  0  0  0  0
  180.7180  177.7010  137.0600 C   0  0  0  0  0  3  0  0  0  0  0  0
  181.4050  178.6640  134.9460 C   0  0  0  0  0  1  0  0  0  0  0  0
  181.5440  177.6360  136.0160 C   0  0  0  0  0  0  0  0  0  0  0  0
  184.4110  177.7580  137.0020 N   0  0  0  0  0  0  0  0  0  0  0  0
  182.5460  176.6090  135.9510 N   0  0  0  0  0  2  0  0  0  0  0  0
  183.8840  176.6880  136.4530 C   0  0  0  0  0  0  0  0  0  0  0  0
  185.9710  176.0970  136.9400 C   0  0  0  0  0  0  0  0  0  0  0  0
  187.1470  175.4030  137.0740 C   0  0  0  0  0  0  0  0  0  0  0  0
  184.8130  174.3240  135.9170 N   0  0  0  0  0  0  0  0  0  0  0  0
  184.8580  175.5960  136.3920 C   0  0  0  0  0  0  0  0  0  0  0  0
  188.0360  177.4470  138.0840 C   0  0  0  0  0  3  0  0  0  0  0  0
  185.7570  177.3750  137.3190 C   0  0  0  0  0  0  0  0  0  0  0  0
  187.1460  174.0730  136.5970 C   0  0  0  0  0  0  0  0  0  0  0  0
  188.6030  173.0390  136.7010 S   0  0  0  0  0  1  0  0  0  0  0  0
  188.2210  176.0970  137.6690 C   0  0  0  0  0  3  0  0  0  0  0  0
  185.9510  173.5540  136.0150 C   0  0  0  0  0  3  0  0  0  0  0  0
  186.7890  178.1060  137.9090 C   0  0  0  0  0  3  0  0  0  0  0  0
  182.6410  178.6810  141.4740 C   0  0  0  0  0  2  0  0  0  0  0  0
  184.8410  178.3210  142.6110 C   0  0  0  0  0  3  0  0  0  0  0  0
  182.9340  179.0180  143.9310 C   0  0  0  0  0  3  0  0  0  0  0  0
  183.7320  179.0240  145.0800 C   0  0  0  0  0  3  0  0  0  0  0  0
  185.0890  178.6790  145.0020 C   0  0  0  0  0  0  0  0  0  0  0  0
  183.4870  178.6610  142.6980 C   0  0  0  0  0  0  0  0  0  0  0  0
  185.6390  178.3280  143.7600 C   0  0  0  0  0  3  0  0  0  0  0  0
  185.6900  179.5070  147.1420 O   0  0  0  0  0  0  0  0  0  0  0  0
  185.9330  178.6930  146.2100 C   0  0  0  0  0  0  0  0  0  0  0  0
  187.0350  177.7860  146.3270 N   0  0  0  0  0  2  0  0  0  0  0  0
  187.9020  177.8130  147.4290 N   0  0  0  0  0  2  0  0  0  0  0  0
  188.8750  176.7430  147.2530 C   0  0  0  0  0  2  0  0  0  0  0  0
  190.1910  177.2950  146.6970 C   0  0  2  0  0  3  0  0  0  0  0  0
  190.4660  176.3280  143.3910 C   0  0  0  0  0  0  0  0  0  0  0  0
  190.2820  175.4480  142.5120 O   0  0  0  0  0  0  0  0  0  0  0  0
  191.4730  178.0160  144.5880 C   0  0  1  0  0  3  0  0  0  0  0  0
  190.1000  177.6750  145.2140 C   0  0  1  0  0  3  0  0  0  0  0  0
  191.6140  177.1480  143.4270 N   0  0  0  0  0  2  0  0  0  0  0  0
  191.4890  179.4670  144.1450 C   0  0  0  0  0  1  0  0  0  0  0  0
  189.5450  176.5800  144.4290 N   0  0  0  0  0  2  0  0  0  0  0  0
  192.0980  176.6370  148.1640 C   0  0  0  0  0  1  0  0  0  0  0  0
  191.3160  176.2950  146.9100 C   0  0  0  0  0  2  0  0  0  0  0  0
  1 23  1  0  0  0  0
  2  1  1  0  0  0  0
  2  3  1  0  0  0  0
  4  3  1  0  0  0  0
  5  4  1  0  0  0  0
  6  5  1  0  0  0  0
  7  8  1  0  0  0  0
  8  6  2  0  0  0  0
  9 17  1  0  0  0  0
 10  8  1  0  0  0  0
 10 11  1  0  0  0  0
 11  9  2  0  0  0  0
 12 13  1  0  0  0  0
 12 17  1  0  0  0  0
 13 20  1  0  0  0  0
 14 21  2  0  0  0  0
 14 15  1  0  0  0  0
 15 11  1  0  0  0  0
 15 12  2  0  0  0  0
 17 22  2  0  0  0  0
 18 19  1  0  0  0  0
 18 13  2  0  0  0  0
 20 16  2  0  0  0  0
 21 18  1  0  0  0  0
 22 16  1  0  0  0  0
 23 28  1  0  0  0  0
 24 28  2  0  0  0  0
 24 29  1  0  0  0  0
 25 26  2  0  0  0  0
 27 26  1  0  0  0  0
 27 31  1  0  0  0  0
 28 25  1  0  0  0  0
 29 27  2  0  0  0  0
 31 32  1  0  0  0  0
 31 30  2  0  0  0  0
 32 33  1  0  0  0  0
 34 33  1  0  0  0  0
 35 44  1  6  0  0  0
 35 34  1  0  0  0  0
 36 40  1  0  0  0  0
 36 42  1  0  0  0  0
 37 36  2  0  0  0  0
 38 41  1  6  0  0  0
 38 39  1  0  0  0  0
 39 35  1  1  0  0  0
 40 38  1  0  0  0  0
 42 39  1  0  0  0  0
 44 43  1  0  0  0  0
M  END
>  <MODEL>
8

>  <REMARK>
 VINA RESULT:      -8.1      2.905      8.185
  Name = 
  14 active torsions:
  status: ('A' for Active; 'I' for Inactive)
    1  A    between atoms: C_5  and  C_12
    2  A    between atoms: C_5  and  N_31
    3  A    between atoms: N_8  and  C_33
    4  A    between atoms: C_11  and  C_44
    5  A    between atoms: C_18  and  N_27
    6  A    between atoms: C_18  and  C_44
    7  A    between atoms: C_19  and  C_44
    8  A    between atoms: C_21  and  C_29
    9  A    between atoms: N_27  and  N_34
   10  A    between atoms: N_31  and  C_38
   11  A    between atoms: C_35  and  C_42
   12  A    between atoms: C_37  and  C_38
   13  A    between atoms: C_37  and  N_40
   14  A    between atoms: N_40  and  C_42
                            x       y       z     vdW  Elec       q    Type
                         _______ _______ _______ _____ _____    ______ ____

>  <TORSDO>
F 14

$$$$
=
 OpenBabel11032420513D

 44 48  0  0  1  0  0  0  0  0999 V2000
  186.3290  177.5130  145.9520 N   0  0  0  0  0  2  0  0  0  0  0  0
  185.6690  178.7780  146.2120 C   0  0  0  0  0  2  0  0  0  0  0  0
  184.3300  178.8090  145.5010 C   0  0  0  0  0  2  0  0  0  0  0  0
  184.3880  179.7400  144.3870 N   0  0  0  0  0  2  0  0  0  0  0  0
  183.5040  179.2310  143.3500 C   0  0  0  0  0  2  0  0  0  0  0  0
  182.2700  178.6580  143.9700 C   0  0  0  0  0  3  0  0  0  0  0  0
  179.8970  178.2050  144.1530 C   0  0  0  0  0  1  0  0  0  0  0  0
  181.0550  178.8280  143.4500 C   0  0  0  0  0  0  0  0  0  0  0  0
  181.4190  177.9410  140.5710 N   0  0  0  0  0  0  0  0  0  0  0  0
  180.8830  179.6070  142.2560 N   0  0  0  0  0  2  0  0  0  0  0  0
  181.0340  179.1500  140.9080 C   0  0  0  0  0  0  0  0  0  0  0  0
  181.0870  179.1790  138.6860 C   0  0  0  0  0  0  0  0  0  0  0  0
  181.0180  179.5650  137.3700 C   0  0  0  0  0  0  0  0  0  0  0  0
  180.4310  181.2700  139.5370 N   0  0  0  0  0  0  0  0  0  0  0  0
  180.8120  179.9800  139.7220 C   0  0  0  0  0  0  0  0  0  0  0  0
  181.7400  177.2860  136.8460 C   0  0  0  0  0  3  0  0  0  0  0  0
  181.4500  177.9600  139.1370 C   0  0  0  0  0  0  0  0  0  0  0  0
  180.6210  180.8990  137.1310 C   0  0  0  0  0  0  0  0  0  0  0  0
  180.4830  181.5510  135.4690 S   0  0  0  0  0  1  0  0  0  0  0  0
  181.3530  178.5860  136.4120 C   0  0  0  0  0  3  0  0  0  0  0  0
  180.3310  181.7400  138.2460 C   0  0  0  0  0  3  0  0  0  0  0  0
  181.7950  176.9580  138.2270 C   0  0  0  0  0  3  0  0  0  0  0  0
  187.7440  177.7200  146.2080 C   0  0  0  0  0  2  0  0  0  0  0  0
  189.8160  178.0740  144.8510 C   0  0  0  0  0  3  0  0  0  0  0  0
  187.9430  176.9080  143.8540 C   0  0  0  0  0  3  0  0  0  0  0  0
  188.6710  176.7490  142.6710 C   0  0  0  0  0  3  0  0  0  0  0  0
  189.9770  177.2520  142.5700 C   0  0  0  0  0  0  0  0  0  0  0  0
  188.5120  177.5750  144.9420 C   0  0  0  0  0  0  0  0  0  0  0  0
  190.5450  177.9140  143.6680 C   0  0  0  0  0  3  0  0  0  0  0  0
  191.9120  177.5590  141.2320 O   0  0  0  0  0  0  0  0  0  0  0  0
  190.7490  177.0780  141.3270 C   0  0  0  0  0  0  0  0  0  0  0  0
  190.1820  176.3660  140.2230 N   0  0  0  0  0  2  0  0  0  0  0  0
  190.8570  176.2360  139.0000 N   0  0  0  0  0  2  0  0  0  0  0  0
  189.8550  176.0430  137.9590 C   0  0  0  0  0  2  0  0  0  0  0  0
  189.8430  177.2320  136.9940 C   0  0  2  0  0  3  0  0  0  0  0  0
  187.0860  178.2500  138.8100 C   0  0  0  0  0  0  0  0  0  0  0  0
  186.6060  178.6320  139.9080 O   0  0  0  0  0  0  0  0  0  0  0  0
  187.2810  177.1570  136.7950 C   0  0  1  0  0  3  0  0  0  0  0  0
  188.5340  178.0280  137.0420 C   0  0  1  0  0  3  0  0  0  0  0  0
  186.4050  177.3770  137.9360 N   0  0  0  0  0  2  0  0  0  0  0  0
  186.5860  177.6050  135.5230 C   0  0  0  0  0  1  0  0  0  0  0  0
  188.3540  178.6560  138.3450 N   0  0  0  0  0  2  0  0  0  0  0  0
  191.3530  175.8840  135.5330 C   0  0  0  0  0  1  0  0  0  0  0  0
  190.1150  176.7620  135.5740 C   0  0  0  0  0  2  0  0  0  0  0  0
  1 23  1  0  0  0  0
  1  2  1  0  0  0  0
  3  2  1  0  0  0  0
  4  3  1  0  0  0  0
  5  6  1  0  0  0  0
  5  4  1  0  0  0  0
  8  6  2  0  0  0  0
  8  7  1  0  0  0  0
  9 11  2  0  0  0  0
 10  8  1  0  0  0  0
 11 10  1  0  0  0  0
 12 17  1  0  0  0  0
 12 15  2  0  0  0  0
 13 12  1  0  0  0  0
 14 15  1  0  0  0  0
 15 11  1  0  0  0  0
 16 22  1  0  0  0  0
 17  9  1  0  0  0  0
 18 13  2  0  0  0  0
 18 21  1  0  0  0  0
 19 18  1  0  0  0  0
 20 16  2  0  0  0  0
 20 13  1  0  0  0  0
 21 14  2  0  0  0  0
 22 17  2  0  0  0  0
 24 28  1  0  0  0  0
 25 28  2  0  0  0  0
 26 25  1  0  0  0  0
 27 26  2  0  0  0  0
 27 29  1  0  0  0  0
 28 23  1  0  0  0  0
 29 24  2  0  0  0  0
 30 31  2  0  0  0  0
 31 27  1  0  0  0  0
 32 31  1  0  0  0  0
 33 32  1  0  0  0  0
 34 33  1  0  0  0  0
 35 44  1  6  0  0  0
 35 34  1  0  0  0  0
 36 37  2  0  0  0  0
 38 41  1  6  0  0  0
 38 39  1  0  0  0  0
 38 40  1  0  0  0  0
 39 35  1  1  0  0  0
 39 42  1  0  0  0  0
 40 36  1  0  0  0  0
 42 36  1  0  0  0  0
 43 44  1  0  0  0  0
M  END
>  <MODEL>
9

>  <REMARK>
 VINA RESULT:      -8.1      3.430      8.057
  Name = 
  14 active torsions:
  status: ('A' for Active; 'I' for Inactive)
    1  A    between atoms: C_5  and  C_12
    2  A    between atoms: C_5  and  N_31
    3  A    between atoms: N_8  and  C_33
    4  A    between atoms: C_11  and  C_44
    5  A    between atoms: C_18  and  N_27
    6  A    between atoms: C_18  and  C_44
    7  A    between atoms: C_19  and  C_44
    8  A    between atoms: C_21  and  C_29
    9  A    between atoms: N_27  and  N_34
   10  A    between atoms: N_31  and  C_38
   11  A    between atoms: C_35  and  C_42
   12  A    between atoms: C_37  and  C_38
   13  A    between atoms: C_37  and  N_40
   14  A    between atoms: N_40  and  C_42
                            x       y       z     vdW  Elec       q    Type
                         _______ _______ _______ _____ _____    ______ ____

>  <TORSDO>
F 14

$$$$
