=
 OpenBabel11032419163D

 30 31  0  0  1  0  0  0  0  0999 V2000
  186.2230  178.7080  140.3290 C   0  0  0  0  0  3  0  0  0  0  0  0
  190.5190  177.2820  139.9470 C   0  0  1  0  0  3  0  0  0  0  0  0
  188.6480  178.3310  138.4790 C   0  0  0  0  0  3  0  0  0  0  0  0
  187.2290  178.6640  141.2030 C   0  0  0  0  0  3  0  0  0  0  0  0
  186.2400  177.9870  139.0170 C   0  0  2  0  0  3  0  0  0  0  0  0
  189.1330  177.8340  139.7820 C   0  0  0  0  0  0  0  0  0  0  0  0
  191.6000  176.8160  142.0770 O   0  0  0  0  0  0  0  0  0  0  0  0
  189.3610  177.5730  142.0400 N   0  0  0  0  0  0  0  0  0  0  0  0
  190.5820  177.1780  141.4310 C   0  0  0  0  0  0  0  0  0  0  0  0
  188.5220  177.9870  140.9680 C   0  0  0  0  0  0  0  0  0  0  0  0
  187.3630  178.4440  138.1410 C   0  0  0  0  0  3  0  0  0  0  0  0
  191.3230  175.6860  138.1530 C   0  0  0  0  0  0  0  0  0  0  0  0
  190.5870  175.9560  139.3470 N   0  0  0  0  0  2  0  0  0  0  0  0
  191.3820  174.3500  137.6560 N   0  0  0  0  0  2  0  0  0  0  0  0
  191.9160  176.6180  137.5440 O   0  0  0  0  0  0  0  0  0  0  0  0
  193.4910  173.4980  136.8230 C   0  0  0  0  0  1  0  0  0  0  0  0
  192.1160  174.0100  136.4500 C   0  0  0  0  0  2  0  0  0  0  0  0
  185.0250  178.1800  138.3600 O   0  0  0  0  0  0  0  0  0  0  0  0
  184.4050  179.2220  139.0530 C   0  0  0  0  0  1  0  0  0  0  0  0
  189.1190  177.8400  143.4580 C   0  0  2  0  0  3  0  0  0  0  0  0
  190.3330  177.7500  145.5460 O   0  0  0  0  0  1  0  0  0  0  0  0
  190.4350  178.0950  144.1960 C   0  0  2  0  0  3  0  0  0  0  0  0
  190.8500  179.5480  144.0690 C   0  0  0  0  0  1  0  0  0  0  0  0
  188.2820  176.7370  144.1020 C   0  0  0  0  0  2  0  0  0  0  0  0
  186.8810  177.2420  144.3820 C   0  0  0  0  0  2  0  0  0  0  0  0
  186.8610  177.9240  145.6640 N   0  0  0  0  0  2  0  0  0  0  0  0
  185.7100  178.8140  145.6590 C   0  0  2  0  0  3  0  0  0  0  0  0
  185.0280  178.6980  146.8720 O   0  0  0  0  0  1  0  0  0  0  0  0
  183.6220  179.0070  144.9650 C   0  0  0  0  0  1  0  0  0  0  0  0
  184.8570  178.4640  144.6120 O   0  0  0  0  0  0  0  0  0  0  0  0
  1  4  2  0  0  0  0
  2 13  1  6  0  0  0
  2  9  1  0  0  0  0
  3  6  1  0  0  0  0
  5 18  1  6  0  0  0
  5  1  1  0  0  0  0
  6  2  1  0  0  0  0
  6 10  2  0  0  0  0
  8 20  1  0  0  0  0
  9  8  1  0  0  0  0
  9  7  2  0  0  0  0
 10  4  1  0  0  0  0
 10  8  1  0  0  0  0
 11  3  2  0  0  0  0
 11  5  1  0  0  0  0
 12 13  1  0  0  0  0
 14 12  1  0  0  0  0
 15 12  2  0  0  0  0
 17 16  1  0  0  0  0
 17 14  1  0  0  0  0
 18 19  1  0  0  0  0
 20 24  1  1  0  0  0
 20 22  1  0  0  0  0
 22 23  1  1  0  0  0
 22 21  1  0  0  0  0
 24 25  1  0  0  0  0
 25 26  1  0  0  0  0
 27 26  1  0  0  0  0
 27 28  1  1  0  0  0
 30 29  1  0  0  0  0
 30 27  1  0  0  0  0
M  END
>  <MODEL>
1

>  <REMARK>
 VINA RESULT:      -6.9      0.000      0.000
  Name = 
  10 active torsions:
  status: ('A' for Active; 'I' for Inactive)
    1  A    between atoms: C_3  and  N_20
    2  A    between atoms: C_3  and  C_25
    3  A    between atoms: C_3  and  C_26
    4  A    between atoms: C_4  and  N_22
    5  A    between atoms: C_4  and  C_26
    6  A    between atoms: O_5  and  C_15
    7  A    between atoms: C_8  and  N_9
    8  A    between atoms: C_10  and  O_18
    9  A    between atoms: C_10  and  N_22
   10  A    between atoms: N_16  and  C_27
                            x       y       z     vdW  Elec       q    Type
                         _______ _______ _______ _____ _____    ______ ____

>  <TORSDO>
F 10

$$$$
=
 OpenBabel11032419163D

 30 31  0  0  1  0  0  0  0  0999 V2000
  191.5700  176.7740  141.7490 C   0  0  0  0  0  3  0  0  0  0  0  0
  187.5230  178.7600  141.1840 C   0  0  1  0  0  3  0  0  0  0  0  0
  189.4680  178.6940  142.9080 C   0  0  0  0  0  3  0  0  0  0  0  0
  190.8990  177.1380  140.6550 C   0  0  0  0  0  3  0  0  0  0  0  0
  190.9480  176.7010  143.1090 C   0  0  2  0  0  3  0  0  0  0  0  0
  188.8720  178.2720  141.6250 C   0  0  0  0  0  0  0  0  0  0  0  0
  186.5940  178.4940  138.9510 O   0  0  0  0  0  0  0  0  0  0  0  0
  188.6960  177.5420  139.4670 N   0  0  0  0  0  0  0  0  0  0  0  0
  187.5150  178.2690  139.7790 C   0  0  0  0  0  0  0  0  0  0  0  0
  189.4970  177.6040  140.6410 C   0  0  0  0  0  0  0  0  0  0  0  0
  190.4220  178.0280  143.5580 C   0  0  0  0  0  3  0  0  0  0  0  0
  185.4040  178.7840  142.5730 C   0  0  0  0  0  0  0  0  0  0  0  0
  186.4880  178.0850  141.9580 N   0  0  0  0  0  2  0  0  0  0  0  0
  184.4040  178.0450  143.2710 N   0  0  0  0  0  2  0  0  0  0  0  0
  185.3320  180.0410  142.4980 O   0  0  0  0  0  0  0  0  0  0  0  0
  183.5930  178.9310  145.3740 C   0  0  0  0  0  1  0  0  0  0  0  0
  183.2760  178.6960  143.9130 C   0  0  0  0  0  2  0  0  0  0  0  0
  191.8860  176.2330  144.0290 O   0  0  0  0  0  0  0  0  0  0  0  0
  191.4140  176.6620  145.2710 C   0  0  0  0  0  1  0  0  0  0  0  0
  189.1600  177.1250  138.1440 C   0  0  2  0  0  3  0  0  0  0  0  0
  189.1590  179.5280  137.8910 O   0  0  0  0  0  1  0  0  0  0  0  0
  189.2470  178.3210  137.1940 C   0  0  2  0  0  3  0  0  0  0  0  0
  188.1560  178.2540  136.1440 C   0  0  0  0  0  1  0  0  0  0  0  0
  188.3100  175.9850  137.5850 C   0  0  0  0  0  2  0  0  0  0  0  0
  189.2030  174.8810  137.0540 C   0  0  0  0  0  2  0  0  0  0  0  0
  190.3990  174.7920  137.8730 N   0  0  0  0  0  2  0  0  0  0  0  0
  191.5280  174.6290  136.9700 C   0  0  2  0  0  3  0  0  0  0  0  0
  192.6130  174.1030  137.6730 O   0  0  0  0  0  1  0  0  0  0  0  0
  192.7520  176.4230  137.3710 C   0  0  0  0  0  1  0  0  0  0  0  0
  191.8770  175.8700  136.4370 O   0  0  0  0  0  0  0  0  0  0  0  0
  1  5  1  0  0  0  0
  2  6  1  0  0  0  0
  2 13  1  1  0  0  0
  3 11  2  0  0  0  0
  4  1  2  0  0  0  0
  5 11  1  0  0  0  0
  5 18  1  1  0  0  0
  6  3  1  0  0  0  0
  7  9  2  0  0  0  0
  8  9  1  0  0  0  0
  8 10  1  0  0  0  0
  9  2  1  0  0  0  0
 10  4  1  0  0  0  0
 10  6  2  0  0  0  0
 12 14  1  0  0  0  0
 13 12  1  0  0  0  0
 14 17  1  0  0  0  0
 15 12  2  0  0  0  0
 17 16  1  0  0  0  0
 18 19  1  0  0  0  0
 20 24  1  6  0  0  0
 20  8  1  0  0  0  0
 22 23  1  6  0  0  0
 22 21  1  0  0  0  0
 22 20  1  0  0  0  0
 25 24  1  0  0  0  0
 25 26  1  0  0  0  0
 27 28  1  1  0  0  0
 27 26  1  0  0  0  0
 30 27  1  0  0  0  0
 30 29  1  0  0  0  0
M  END
>  <MODEL>
2

>  <REMARK>
 VINA RESULT:      -6.2      2.025      8.146
  Name = 
  10 active torsions:
  status: ('A' for Active; 'I' for Inactive)
    1  A    between atoms: C_3  and  N_20
    2  A    between atoms: C_3  and  C_25
    3  A    between atoms: C_3  and  C_26
    4  A    between atoms: C_4  and  N_22
    5  A    between atoms: C_4  and  C_26
    6  A    between atoms: O_5  and  C_15
    7  A    between atoms: C_8  and  N_9
    8  A    between atoms: C_10  and  O_18
    9  A    between atoms: C_10  and  N_22
   10  A    between atoms: N_16  and  C_27
                            x       y       z     vdW  Elec       q    Type
                         _______ _______ _______ _____ _____    ______ ____

>  <TORSDO>
F 10

$$$$
=
 OpenBabel11032419163D

 30 31  0  0  1  0  0  0  0  0999 V2000
  185.0930  178.6100  142.9080 C   0  0  0  0  0  3  0  0  0  0  0  0
  188.1890  178.1350  139.6180 C   0  0  1  0  0  3  0  0  0  0  0  0
  185.7560  178.9940  139.9320 C   0  0  0  0  0  3  0  0  0  0  0  0
  186.4260  178.6390  142.9260 C   0  0  0  0  0  3  0  0  0  0  0  0
  184.2970  178.1050  141.7440 C   0  0  2  0  0  3  0  0  0  0  0  0
  186.9980  178.4190  140.4850 C   0  0  0  0  0  0  0  0  0  0  0  0
  190.4170  177.5870  140.4280 O   0  0  0  0  0  0  0  0  0  0  0  0
  188.6490  177.8830  141.9700 N   0  0  0  0  0  0  0  0  0  0  0  0
  189.2050  177.8300  140.6630 C   0  0  0  0  0  0  0  0  0  0  0  0
  187.2940  178.2730  141.7870 C   0  0  0  0  0  0  0  0  0  0  0  0
  184.5550  178.8980  140.5020 C   0  0  0  0  0  3  0  0  0  0  0  0
  188.5270  176.7400  137.5310 C   0  0  0  0  0  0  0  0  0  0  0  0
  187.9280  176.9500  138.8100 N   0  0  0  0  0  2  0  0  0  0  0  0
  188.2600  175.5300  136.8240 N   0  0  0  0  0  2  0  0  0  0  0  0
  189.2860  177.6160  137.0300 O   0  0  0  0  0  0  0  0  0  0  0  0
  190.1190  174.4630  135.6960 C   0  0  0  0  0  1  0  0  0  0  0  0
  188.8420  175.2560  135.5220 C   0  0  0  0  0  2  0  0  0  0  0  0
  182.9370  178.1460  142.0530 O   0  0  0  0  0  0  0  0  0  0  0  0
  182.8570  178.9240  143.2100 C   0  0  0  0  0  1  0  0  0  0  0  0
  189.3700  177.8870  143.2430 C   0  0  2  0  0  3  0  0  0  0  0  0
  191.6920  177.2150  143.2660 O   0  0  0  0  0  1  0  0  0  0  0  0
  190.8310  178.2920  143.0410 C   0  0  2  0  0  3  0  0  0  0  0  0
  191.2010  179.4440  143.9560 C   0  0  0  0  0  1  0  0  0  0  0  0
  189.2200  176.5570  143.9770 C   0  0  0  0  0  2  0  0  0  0  0  0
  189.1510  176.7910  145.4730 C   0  0  0  0  0  2  0  0  0  0  0  0
  188.2840  177.9250  145.7430 N   0  0  0  0  0  2  0  0  0  0  0  0
  187.3790  177.5290  146.8110 C   0  0  2  0  0  3  0  0  0  0  0  0
  186.6650  178.6440  147.2540 O   0  0  0  0  0  1  0  0  0  0  0  0
  188.1850  178.0300  148.8060 C   0  0  0  0  0  1  0  0  0  0  0  0
  188.1150  176.9980  147.8700 O   0  0  0  0  0  0  0  0  0  0  0  0
  1  4  2  0  0  0  0
  2 13  1  6  0  0  0
  2  6  1  0  0  0  0
  2  9  1  0  0  0  0
  3  6  1  0  0  0  0
  3 11  2  0  0  0  0
  5 18  1  1  0  0  0
  5  1  1  0  0  0  0
  6 10  2  0  0  0  0
  7  9  2  0  0  0  0
  8 20  1  0  0  0  0
  9  8  1  0  0  0  0
 10  8  1  0  0  0  0
 10  4  1  0  0  0  0
 11  5  1  0  0  0  0
 12 13  1  0  0  0  0
 14 12  1  0  0  0  0
 15 12  2  0  0  0  0
 17 16  1  0  0  0  0
 17 14  1  0  0  0  0
 18 19  1  0  0  0  0
 20 24  1  6  0  0  0
 22 20  1  0  0  0  0
 22 21  1  0  0  0  0
 22 23  1  1  0  0  0
 24 25  1  0  0  0  0
 25 26  1  0  0  0  0
 26 27  1  0  0  0  0
 27 28  1  1  0  0  0
 27 30  1  0  0  0  0
 30 29  1  0  0  0  0
M  END
>  <MODEL>
3

>  <REMARK>
 VINA RESULT:      -6.1      2.127      2.937
  Name = 
  10 active torsions:
  status: ('A' for Active; 'I' for Inactive)
    1  A    between atoms: C_3  and  N_20
    2  A    between atoms: C_3  and  C_25
    3  A    between atoms: C_3  and  C_26
    4  A    between atoms: C_4  and  N_22
    5  A    between atoms: C_4  and  C_26
    6  A    between atoms: O_5  and  C_15
    7  A    between atoms: C_8  and  N_9
    8  A    between atoms: C_10  and  O_18
    9  A    between atoms: C_10  and  N_22
   10  A    between atoms: N_16  and  C_27
                            x       y       z     vdW  Elec       q    Type
                         _______ _______ _______ _____ _____    ______ ____

>  <TORSDO>
F 10

$$$$
=
 OpenBabel11032419163D

 30 31  0  0  1  0  0  0  0  0999 V2000
  187.5560  177.8770  144.6850 C   0  0  0  0  0  3  0  0  0  0  0  0
  184.7030  179.0330  141.3430 C   0  0  1  0  0  3  0  0  0  0  0  0
  184.8730  179.1740  143.9330 C   0  0  0  0  0  3  0  0  0  0  0  0
  187.7630  178.2170  143.4120 C   0  0  0  0  0  3  0  0  0  0  0  0
  186.2080  177.5210  145.2320 C   0  0  2  0  0  3  0  0  0  0  0  0
  185.4410  178.7870  142.6270 C   0  0  0  0  0  0  0  0  0  0  0  0
  185.6600  178.8380  139.1140 O   0  0  0  0  0  0  0  0  0  0  0  0
  186.9700  178.2900  141.0050 N   0  0  0  0  0  0  0  0  0  0  0  0
  185.7770  178.7150  140.3620 C   0  0  0  0  0  0  0  0  0  0  0  0
  186.7010  178.3800  142.3980 C   0  0  0  0  0  0  0  0  0  0  0  0
  185.2350  178.6500  145.1040 C   0  0  0  0  0  3  0  0  0  0  0  0
  182.4250  178.3460  140.4750 C   0  0  0  0  0  0  0  0  0  0  0  0
  183.6120  178.0740  141.2220 N   0  0  0  0  0  2  0  0  0  0  0  0
  181.4240  177.3360  140.3620 N   0  0  0  0  0  2  0  0  0  0  0  0
  182.2630  179.4670  139.9200 O   0  0  0  0  0  0  0  0  0  0  0  0
  179.0760  177.8930  140.5710 C   0  0  0  0  0  1  0  0  0  0  0  0
  180.1980  177.5490  139.6150 C   0  0  0  0  0  2  0  0  0  0  0  0
  186.3290  177.1550  146.5730 O   0  0  0  0  0  0  0  0  0  0  0  0
  186.8850  178.2720  147.2000 C   0  0  0  0  0  1  0  0  0  0  0  0
  188.2960  178.1320  140.4050 C   0  0  2  0  0  3  0  0  0  0  0  0
  188.4300  176.6490  138.5010 O   0  0  0  0  0  1  0  0  0  0  0  0
  188.1920  177.9700  138.8870 C   0  0  2  0  0  3  0  0  0  0  0  0
  189.1640  178.8930  138.1800 C   0  0  0  0  0  1  0  0  0  0  0  0
  189.0810  177.0030  141.0690 C   0  0  0  0  0  2  0  0  0  0  0  0
  190.5220  177.4230  141.2780 C   0  0  0  0  0  2  0  0  0  0  0  0
  191.1650  176.4990  142.1960 N   0  0  0  0  0  2  0  0  0  0  0  0
  191.1250  177.1070  143.5170 C   0  0  2  0  0  3  0  0  0  0  0  0
  191.7810  178.3390  143.4820 O   0  0  0  0  0  1  0  0  0  0  0  0
  191.4470  176.8050  145.6810 C   0  0  0  0  0  1  0  0  0  0  0  0
  191.7610  176.2680  144.4330 O   0  0  0  0  0  0  0  0  0  0  0  0
  1  5  1  0  0  0  0
  2 13  1  6  0  0  0
  2  6  1  0  0  0  0
  3 11  2  0  0  0  0
  4  1  2  0  0  0  0
  5 18  1  1  0  0  0
  6  3  1  0  0  0  0
  7  9  2  0  0  0  0
  8 10  1  0  0  0  0
  9  8  1  0  0  0  0
  9  2  1  0  0  0  0
 10  6  2  0  0  0  0
 10  4  1  0  0  0  0
 11  5  1  0  0  0  0
 12 13  1  0  0  0  0
 14 12  1  0  0  0  0
 15 12  2  0  0  0  0
 17 14  1  0  0  0  0
 17 16  1  0  0  0  0
 18 19  1  0  0  0  0
 20  8  1  0  0  0  0
 20 24  1  1  0  0  0
 21 22  1  0  0  0  0
 22 23  1  6  0  0  0
 22 20  1  0  0  0  0
 24 25  1  0  0  0  0
 25 26  1  0  0  0  0
 26 27  1  0  0  0  0
 27 28  1  6  0  0  0
 27 30  1  0  0  0  0
 30 29  1  0  0  0  0
M  END
>  <MODEL>
4

>  <REMARK>
 VINA RESULT:      -6.1      2.781      7.409
  Name = 
  10 active torsions:
  status: ('A' for Active; 'I' for Inactive)
    1  A    between atoms: C_3  and  N_20
    2  A    between atoms: C_3  and  C_25
    3  A    between atoms: C_3  and  C_26
    4  A    between atoms: C_4  and  N_22
    5  A    between atoms: C_4  and  C_26
    6  A    between atoms: O_5  and  C_15
    7  A    between atoms: C_8  and  N_9
    8  A    between atoms: C_10  and  O_18
    9  A    between atoms: C_10  and  N_22
   10  A    between atoms: N_16  and  C_27
                            x       y       z     vdW  Elec       q    Type
                         _______ _______ _______ _____ _____    ______ ____

>  <TORSDO>
F 10

$$$$
=
 OpenBabel11032419163D

 30 31  0  0  1  0  0  0  0  0999 V2000
  187.7690  177.5900  145.0800 C   0  0  0  0  0  3  0  0  0  0  0  0
  186.6270  178.9260  140.8910 C   0  0  1  0  0  3  0  0  0  0  0  0
  185.8120  179.2030  143.3430 C   0  0  0  0  0  3  0  0  0  0  0  0
  188.4970  177.8180  143.9860 C   0  0  0  0  0  3  0  0  0  0  0  0
  186.2770  177.4620  145.0630 C   0  0  2  0  0  3  0  0  0  0  0  0
  186.7700  178.6600  142.3610 C   0  0  0  0  0  0  0  0  0  0  0  0
  188.3220  178.4610  139.2080 O   0  0  0  0  0  0  0  0  0  0  0  0
  188.7080  177.8520  141.4590 N   0  0  0  0  0  0  0  0  0  0  0  0
  187.9320  178.4000  140.4030 C   0  0  0  0  0  0  0  0  0  0  0  0
  187.9430  178.0660  142.6390 C   0  0  0  0  0  0  0  0  0  0  0  0
  185.6130  178.7060  144.5640 C   0  0  0  0  0  3  0  0  0  0  0  0
  184.5310  178.6640  139.4930 C   0  0  0  0  0  0  0  0  0  0  0  0
  185.5320  178.1250  140.3580 N   0  0  0  0  0  2  0  0  0  0  0  0
  183.5200  177.8020  138.9740 N   0  0  0  0  0  2  0  0  0  0  0  0
  184.5410  179.8880  139.1910 O   0  0  0  0  0  0  0  0  0  0  0  0
  181.2400  178.6160  138.8940 C   0  0  0  0  0  1  0  0  0  0  0  0
  182.4770  178.2880  138.0870 C   0  0  0  0  0  2  0  0  0  0  0  0
  185.8170  177.1660  146.3460 O   0  0  0  0  0  0  0  0  0  0  0  0
  185.1230  178.3090  146.7490 C   0  0  0  0  0  1  0  0  0  0  0  0
  190.1210  177.4720  141.4210 C   0  0  2  0  0  3  0  0  0  0  0  0
  190.3540  175.8830  139.6160 O   0  0  0  0  0  1  0  0  0  0  0  0
  190.5760  177.2110  139.9840 C   0  0  2  0  0  3  0  0  0  0  0  0
  192.0440  177.5510  139.8150 C   0  0  0  0  0  1  0  0  0  0  0  0
  190.4130  176.3020  142.3570 C   0  0  0  0  0  2  0  0  0  0  0  0
  191.5990  176.6260  143.2440 C   0  0  0  0  0  2  0  0  0  0  0  0
  191.7980  175.5480  144.1960 N   0  0  0  0  0  2  0  0  0  0  0  0
  191.5580  176.0960  145.5220 C   0  0  2  0  0  3  0  0  0  0  0  0
  191.8790  177.4550  145.5290 O   0  0  0  0  0  1  0  0  0  0  0  0
  192.0580  176.0330  147.6730 C   0  0  0  0  0  1  0  0  0  0  0  0
  192.3530  175.4260  146.4520 O   0  0  0  0  0  0  0  0  0  0  0  0
  2 13  1  6  0  0  0
  2  6  1  0  0  0  0
  3 11  2  0  0  0  0
  4  1  2  0  0  0  0
  5  1  1  0  0  0  0
  5 18  1  1  0  0  0
  6 10  2  0  0  0  0
  6  3  1  0  0  0  0
  7  9  2  0  0  0  0
  8 10  1  0  0  0  0
  9  2  1  0  0  0  0
  9  8  1  0  0  0  0
 10  4  1  0  0  0  0
 11  5  1  0  0  0  0
 12 13  1  0  0  0  0
 14 12  1  0  0  0  0
 15 12  2  0  0  0  0
 17 16  1  0  0  0  0
 17 14  1  0  0  0  0
 18 19  1  0  0  0  0
 20  8  1  0  0  0  0
 20 24  1  1  0  0  0
 21 22  1  0  0  0  0
 22 23  1  1  0  0  0
 22 20  1  0  0  0  0
 24 25  1  0  0  0  0
 25 26  1  0  0  0  0
 26 27  1  0  0  0  0
 27 28  1  6  0  0  0
 27 30  1  0  0  0  0
 30 29  1  0  0  0  0
M  END
>  <MODEL>
5

>  <REMARK>
 VINA RESULT:      -6.1      2.547      6.498
  Name = 
  10 active torsions:
  status: ('A' for Active; 'I' for Inactive)
    1  A    between atoms: C_3  and  N_20
    2  A    between atoms: C_3  and  C_25
    3  A    between atoms: C_3  and  C_26
    4  A    between atoms: C_4  and  N_22
    5  A    between atoms: C_4  and  C_26
    6  A    between atoms: O_5  and  C_15
    7  A    between atoms: C_8  and  N_9
    8  A    between atoms: C_10  and  O_18
    9  A    between atoms: C_10  and  N_22
   10  A    between atoms: N_16  and  C_27
                            x       y       z     vdW  Elec       q    Type
                         _______ _______ _______ _____ _____    ______ ____

>  <TORSDO>
F 10

$$$$
=
 OpenBabel11032419163D

 30 31  0  0  1  0  0  0  0  0999 V2000
  191.1730  176.5200  141.7680 C   0  0  0  0  0  3  0  0  0  0  0  0
  187.2380  178.7780  141.5290 C   0  0  1  0  0  3  0  0  0  0  0  0
  189.2880  178.5420  143.1100 C   0  0  0  0  0  3  0  0  0  0  0  0
  190.4540  176.9540  140.7310 C   0  0  0  0  0  3  0  0  0  0  0  0
  190.6410  176.4520  143.1660 C   0  0  2  0  0  3  0  0  0  0  0  0
  188.5790  178.1920  141.8640 C   0  0  0  0  0  0  0  0  0  0  0  0
  186.1420  178.6310  139.3610 O   0  0  0  0  0  0  0  0  0  0  0  0
  188.2060  177.5320  139.7090 N   0  0  0  0  0  0  0  0  0  0  0  0
  187.1010  178.3250  140.1180 C   0  0  0  0  0  0  0  0  0  0  0  0
  189.0880  177.5110  140.8240 C   0  0  0  0  0  0  0  0  0  0  0  0
  190.2370  177.7990  143.6780 C   0  0  0  0  0  3  0  0  0  0  0  0
  185.1940  178.9010  143.0210 C   0  0  0  0  0  0  0  0  0  0  0  0
  186.2160  178.1530  142.3590 N   0  0  0  0  0  2  0  0  0  0  0  0
  184.2000  178.2090  143.7740 N   0  0  0  0  0  2  0  0  0  0  0  0
  185.1710  180.1590  142.9390 O   0  0  0  0  0  0  0  0  0  0  0  0
  181.8790  178.8860  143.6200 C   0  0  0  0  0  1  0  0  0  0  0  0
  183.1340  178.9120  144.4660 C   0  0  0  0  0  2  0  0  0  0  0  0
  191.6070  175.9010  144.0080 O   0  0  0  0  0  0  0  0  0  0  0  0
  191.5540  176.6760  145.1680 C   0  0  0  0  0  1  0  0  0  0  0  0
  188.5500  177.1180  138.3480 C   0  0  2  0  0  3  0  0  0  0  0  0
  189.0670  179.4710  138.1560 O   0  0  0  0  0  1  0  0  0  0  0  0
  189.3520  178.2080  137.6340 C   0  0  2  0  0  3  0  0  0  0  0  0
  189.0710  178.1930  136.1440 C   0  0  0  0  0  1  0  0  0  0  0  0
  187.3130  176.6840  137.5640 C   0  0  0  0  0  2  0  0  0  0  0  0
  187.4420  175.2310  137.1510 C   0  0  0  0  0  2  0  0  0  0  0  0
  186.7310  175.0210  135.9020 N   0  0  0  0  0  2  0  0  0  0  0  0
  185.5640  174.2060  136.2030 C   0  0  2  0  0  3  0  0  0  0  0  0
  184.4540  175.0330  136.3860 O   0  0  0  0  0  1  0  0  0  0  0  0
  184.6860  172.6410  137.4900 C   0  0  0  0  0  1  0  0  0  0  0  0
  185.7970  173.4760  137.3690 O   0  0  0  0  0  0  0  0  0  0  0  0
  1  5  1  0  0  0  0
  2  6  1  0  0  0  0
  2 13  1  1  0  0  0
  3 11  2  0  0  0  0
  4 10  1  0  0  0  0
  4  1  2  0  0  0  0
  5 11  1  0  0  0  0
  5 18  1  1  0  0  0
  6  3  1  0  0  0  0
  7  9  2  0  0  0  0
  8  9  1  0  0  0  0
  8 10  1  0  0  0  0
  9  2  1  0  0  0  0
 10  6  2  0  0  0  0
 12 14  1  0  0  0  0
 13 12  1  0  0  0  0
 14 17  1  0  0  0  0
 15 12  2  0  0  0  0
 16 17  1  0  0  0  0
 18 19  1  0  0  0  0
 20 24  1  6  0  0  0
 20  8  1  0  0  0  0
 22 23  1  6  0  0  0
 22 21  1  0  0  0  0
 22 20  1  0  0  0  0
 25 24  1  0  0  0  0
 26 27  1  0  0  0  0
 26 25  1  0  0  0  0
 27 28  1  1  0  0  0
 27 30  1  0  0  0  0
 30 29  1  0  0  0  0
M  END
>  <MODEL>
6

>  <REMARK>
 VINA RESULT:      -5.9      2.731      7.939
  Name = 
  10 active torsions:
  status: ('A' for Active; 'I' for Inactive)
    1  A    between atoms: C_3  and  N_20
    2  A    between atoms: C_3  and  C_25
    3  A    between atoms: C_3  and  C_26
    4  A    between atoms: C_4  and  N_22
    5  A    between atoms: C_4  and  C_26
    6  A    between atoms: O_5  and  C_15
    7  A    between atoms: C_8  and  N_9
    8  A    between atoms: C_10  and  O_18
    9  A    between atoms: C_10  and  N_22
   10  A    between atoms: N_16  and  C_27
                            x       y       z     vdW  Elec       q    Type
                         _______ _______ _______ _____ _____    ______ ____

>  <TORSDO>
F 10

$$$$
=
 OpenBabel11032419163D

 30 31  0  0  1  0  0  0  0  0999 V2000
  188.9950  177.9730  138.7290 C   0  0  0  0  0  3  0  0  0  0  0  0
  184.6120  178.7140  139.6680 C   0  0  1  0  0  3  0  0  0  0  0  0
  186.1100  177.9980  137.6680 C   0  0  0  0  0  3  0  0  0  0  0  0
  188.2890  177.8450  139.8530 C   0  0  0  0  0  3  0  0  0  0  0  0
  188.4940  178.7050  137.5230 C   0  0  2  0  0  3  0  0  0  0  0  0
  185.9560  178.3900  139.0830 C   0  0  0  0  0  0  0  0  0  0  0  0
  184.1380  178.9690  142.0410 O   0  0  0  0  0  0  0  0  0  0  0  0
  186.3560  178.5730  141.3240 N   0  0  0  0  0  0  0  0  0  0  0  0
  184.9670  178.7830  141.1120 C   0  0  0  0  0  0  0  0  0  0  0  0
  186.8990  178.3140  140.0360 C   0  0  0  0  0  0  0  0  0  0  0  0
  187.2440  178.0930  136.9740 C   0  0  0  0  0  3  0  0  0  0  0  0
  182.8090  180.3530  138.9750 C   0  0  0  0  0  0  0  0  0  0  0  0
  184.1820  180.0240  139.1940 N   0  0  0  0  0  2  0  0  0  0  0  0
  182.4660  181.6740  138.5590 N   0  0  0  0  0  2  0  0  0  0  0  0
  181.9100  179.4860  139.1490 O   0  0  0  0  0  0  0  0  0  0  0  0
  180.7500  181.8780  136.8610 C   0  0  0  0  0  1  0  0  0  0  0  0
  181.0890  182.0720  138.3230 C   0  0  0  0  0  2  0  0  0  0  0  0
  189.4820  178.7170  136.5380 O   0  0  0  0  0  0  0  0  0  0  0  0
  189.5150  177.4090  136.0490 C   0  0  0  0  0  1  0  0  0  0  0  0
  187.0330  178.3230  142.5970 C   0  0  2  0  0  3  0  0  0  0  0  0
  188.0810  176.1660  142.8970 O   0  0  0  0  0  1  0  0  0  0  0  0
  188.2750  177.4530  142.3920 C   0  0  2  0  0  3  0  0  0  0  0  0
  189.4870  178.0840  143.0490 C   0  0  0  0  0  1  0  0  0  0  0  0
  186.0750  177.7510  143.6400 C   0  0  0  0  0  2  0  0  0  0  0  0
  186.1340  178.5750  144.9100 C   0  0  0  0  0  2  0  0  0  0  0  0
  186.9510  177.8880  145.8940 N   0  0  0  0  0  2  0  0  0  0  0  0
  186.4570  178.2700  147.2070 C   0  0  2  0  0  3  0  0  0  0  0  0
  185.6580  179.4090  147.0900 O   0  0  0  0  0  1  0  0  0  0  0  0
  188.3190  177.3910  148.0060 C   0  0  0  0  0  1  0  0  0  0  0  0
  187.5360  178.5450  148.0480 O   0  0  0  0  0  0  0  0  0  0  0  0
  1  4  2  0  0  0  0
  2 13  1  6  0  0  0
  2  9  1  0  0  0  0
  3  6  1  0  0  0  0
  4 10  1  0  0  0  0
  5 18  1  6  0  0  0
  5  1  1  0  0  0  0
  6  2  1  0  0  0  0
  6 10  2  0  0  0  0
  8 20  1  0  0  0  0
  9  8  1  0  0  0  0
  9  7  2  0  0  0  0
 10  8  1  0  0  0  0
 11  5  1  0  0  0  0
 11  3  2  0  0  0  0
 12 15  2  0  0  0  0
 12 13  1  0  0  0  0
 14 12  1  0  0  0  0
 16 17  1  0  0  0  0
 17 14  1  0  0  0  0
 19 18  1  0  0  0  0
 20 24  1  1  0  0  0
 22 20  1  0  0  0  0
 22 21  1  0  0  0  0
 22 23  1  1  0  0  0
 24 25  1  0  0  0  0
 25 26  1  0  0  0  0
 26 27  1  0  0  0  0
 27 28  1  6  0  0  0
 27 30  1  0  0  0  0
 29 30  1  0  0  0  0
M  END
>  <MODEL>
7

>  <REMARK>
 VINA RESULT:      -5.7      3.004      6.242
  Name = 
  10 active torsions:
  status: ('A' for Active; 'I' for Inactive)
    1  A    between atoms: C_3  and  N_20
    2  A    between atoms: C_3  and  C_25
    3  A    between atoms: C_3  and  C_26
    4  A    between atoms: C_4  and  N_22
    5  A    between atoms: C_4  and  C_26
    6  A    between atoms: O_5  and  C_15
    7  A    between atoms: C_8  and  N_9
    8  A    between atoms: C_10  and  O_18
    9  A    between atoms: C_10  and  N_22
   10  A    between atoms: N_16  and  C_27
                            x       y       z     vdW  Elec       q    Type
                         _______ _______ _______ _____ _____    ______ ____

>  <TORSDO>
F 10

$$$$
=
 OpenBabel11032419163D

 30 31  0  0  1  0  0  0  0  0999 V2000
  191.8430  175.2550  136.2040 C   0  0  0  0  0  3  0  0  0  0  0  0
  190.2420  177.4250  139.8600 C   0  0  1  0  0  3  0  0  0  0  0  0
  192.5190  176.7520  138.8020 C   0  0  0  0  0  3  0  0  0  0  0  0
  190.7360  175.9710  136.4030 C   0  0  0  0  0  3  0  0  0  0  0  0
  192.7140  174.7610  137.3170 C   0  0  2  0  0  3  0  0  0  0  0  0
  191.0440  176.7840  138.7650 C   0  0  0  0  0  0  0  0  0  0  0  0
  187.8630  177.9230  139.7520 O   0  0  0  0  0  0  0  0  0  0  0  0
  188.9080  176.7990  137.9540 N   0  0  0  0  0  0  0  0  0  0  0  0
  188.8920  177.4160  139.2330 C   0  0  0  0  0  0  0  0  0  0  0  0
  190.2670  176.4550  137.7190 C   0  0  0  0  0  0  0  0  0  0  0  0
  193.2760  175.8850  138.1300 C   0  0  0  0  0  3  0  0  0  0  0  0
  190.9800  176.8890  142.2240 C   0  0  0  0  0  0  0  0  0  0  0  0
  190.2550  176.5640  141.0370 N   0  0  0  0  0  2  0  0  0  0  0  0
  190.9020  176.0190  143.3500 N   0  0  0  0  0  2  0  0  0  0  0  0
  191.6820  177.9360  142.2750 O   0  0  0  0  0  0  0  0  0  0  0  0
  190.7220  177.0980  145.5110 C   0  0  0  0  0  1  0  0  0  0  0  0
  191.6120  176.2960  144.5870 C   0  0  0  0  0  2  0  0  0  0  0  0
  193.7550  173.9950  136.7930 O   0  0  0  0  0  0  0  0  0  0  0  0
  194.6460  173.8280  137.8550 C   0  0  0  0  0  1  0  0  0  0  0  0
  187.8510  176.8200  136.9420 C   0  0  2  0  0  3  0  0  0  0  0  0
  187.1690  179.1370  136.8480 O   0  0  0  0  0  1  0  0  0  0  0  0
  187.8670  178.1380  136.1660 C   0  0  2  0  0  3  0  0  0  0  0  0
  187.2740  177.9540  134.7820 C   0  0  0  0  0  1  0  0  0  0  0  0
  186.4860  176.5070  137.5510 C   0  0  0  0  0  2  0  0  0  0  0  0
  185.9070  175.2570  136.9190 C   0  0  0  0  0  2  0  0  0  0  0  0
  186.9870  174.3570  136.5540 N   0  0  0  0  0  2  0  0  0  0  0  0
  186.5380  173.0050  136.8470 C   0  0  2  0  0  3  0  0  0  0  0  0
  185.7040  173.0240  137.9670 O   0  0  0  0  0  1  0  0  0  0  0  0
  188.7470  173.0100  136.8530 C   0  0  0  0  0  1  0  0  0  0  0  0
  187.6430  172.1940  137.1060 O   0  0  0  0  0  0  0  0  0  0  0  0
  1  4  2  0  0  0  0
  1  5  1  0  0  0  0
  2 13  1  1  0  0  0
  4 10  1  0  0  0  0
  5 18  1  6  0  0  0
  5 11  1  0  0  0  0
  6  3  1  0  0  0  0
  6  2  1  0  0  0  0
  8  9  1  0  0  0  0
  9  7  2  0  0  0  0
  9  2  1  0  0  0  0
 10  8  1  0  0  0  0
 10  6  2  0  0  0  0
 11  3  2  0  0  0  0
 12 15  2  0  0  0  0
 12 14  1  0  0  0  0
 13 12  1  0  0  0  0
 14 17  1  0  0  0  0
 17 16  1  0  0  0  0
 18 19  1  0  0  0  0
 20 24  1  1  0  0  0
 20  8  1  0  0  0  0
 22 23  1  6  0  0  0
 22 21  1  0  0  0  0
 22 20  1  0  0  0  0
 25 24  1  0  0  0  0
 26 27  1  0  0  0  0
 26 25  1  0  0  0  0
 27 30  1  0  0  0  0
 27 28  1  1  0  0  0
 29 30  1  0  0  0  0
M  END
>  <MODEL>
8

>  <REMARK>
 VINA RESULT:      -5.7      3.390      7.591
  Name = 
  10 active torsions:
  status: ('A' for Active; 'I' for Inactive)
    1  A    between atoms: C_3  and  N_20
    2  A    between atoms: C_3  and  C_25
    3  A    between atoms: C_3  and  C_26
    4  A    between atoms: C_4  and  N_22
    5  A    between atoms: C_4  and  C_26
    6  A    between atoms: O_5  and  C_15
    7  A    between atoms: C_8  and  N_9
    8  A    between atoms: C_10  and  O_18
    9  A    between atoms: C_10  and  N_22
   10  A    between atoms: N_16  and  C_27
                            x       y       z     vdW  Elec       q    Type
                         _______ _______ _______ _____ _____    ______ ____

>  <TORSDO>
F 10

$$$$
=
 OpenBabel11032419163D

 30 31  0  0  1  0  0  0  0  0999 V2000
  191.8470  175.3460  136.6030 C   0  0  0  0  0  3  0  0  0  0  0  0
  190.6800  177.4820  140.4390 C   0  0  1  0  0  3  0  0  0  0  0  0
  192.8130  176.9050  139.0690 C   0  0  0  0  0  3  0  0  0  0  0  0
  190.7460  176.0120  136.9540 C   0  0  0  0  0  3  0  0  0  0  0  0
  192.8910  174.9070  137.5830 C   0  0  2  0  0  3  0  0  0  0  0  0
  191.3480  176.8670  139.2430 C   0  0  0  0  0  0  0  0  0  0  0  0
  188.2890  177.8660  140.6690 O   0  0  0  0  0  0  0  0  0  0  0  0
  189.1200  176.7700  138.7460 N   0  0  0  0  0  0  0  0  0  0  0  0
  189.2560  177.4020  140.0110 C   0  0  0  0  0  0  0  0  0  0  0  0
  190.4470  176.4880  138.3210 C   0  0  0  0  0  0  0  0  0  0  0  0
  193.5080  176.0660  138.3000 C   0  0  0  0  0  3  0  0  0  0  0  0
  191.2060  177.1680  142.8970 C   0  0  0  0  0  0  0  0  0  0  0  0
  190.9030  176.6370  141.6060 N   0  0  0  0  0  2  0  0  0  0  0  0
  191.3600  176.2770  143.9990 N   0  0  0  0  0  2  0  0  0  0  0  0
  191.3350  178.4120  143.0610 O   0  0  0  0  0  0  0  0  0  0  0  0
  190.3780  177.0970  146.0560 C   0  0  0  0  0  1  0  0  0  0  0  0
  191.6650  176.7540  145.3370 C   0  0  0  0  0  2  0  0  0  0  0  0
  193.8830  174.1850  136.9190 O   0  0  0  0  0  0  0  0  0  0  0  0
  194.6740  175.1530  136.2970 C   0  0  0  0  0  1  0  0  0  0  0  0
  187.9290  176.7300  137.8960 C   0  0  2  0  0  3  0  0  0  0  0  0
  187.8190  176.0330  135.5850 O   0  0  0  0  0  1  0  0  0  0  0  0
  188.0170  175.5800  136.8910 C   0  0  2  0  0  3  0  0  0  0  0  0
  187.0030  174.5010  137.2190 C   0  0  0  0  0  1  0  0  0  0  0  0
  187.6680  178.0800  137.2320 C   0  0  0  0  0  2  0  0  0  0  0  0
  186.2260  178.4940  137.4420 C   0  0  0  0  0  2  0  0  0  0  0  0
  185.9720  178.6520  138.8630 N   0  0  0  0  0  2  0  0  0  0  0  0
  184.5320  178.7780  139.0320 C   0  0  2  0  0  3  0  0  0  0  0  0
  183.8840  178.1820  137.9480 O   0  0  0  0  0  1  0  0  0  0  0  0
  182.8250  180.1600  138.8000 C   0  0  0  0  0  1  0  0  0  0  0  0
  184.1880  180.1280  139.0940 O   0  0  0  0  0  0  0  0  0  0  0  0
  1  4  2  0  0  0  0
  1  5  1  0  0  0  0
  2 13  1  1  0  0  0
  3  6  1  0  0  0  0
  4 10  1  0  0  0  0
  5 18  1  6  0  0  0
  5 11  1  0  0  0  0
  6  2  1  0  0  0  0
  8  9  1  0  0  0  0
  9  2  1  0  0  0  0
  9  7  2  0  0  0  0
 10  8  1  0  0  0  0
 10  6  2  0  0  0  0
 11  3  2  0  0  0  0
 12 15  2  0  0  0  0
 12 14  1  0  0  0  0
 13 12  1  0  0  0  0
 14 17  1  0  0  0  0
 17 16  1  0  0  0  0
 19 18  1  0  0  0  0
 20 24  1  6  0  0  0
 20  8  1  0  0  0  0
 21 22  1  0  0  0  0
 22 23  1  1  0  0  0
 22 20  1  0  0  0  0
 24 25  1  0  0  0  0
 25 26  1  0  0  0  0
 26 27  1  0  0  0  0
 27 28  1  6  0  0  0
 27 30  1  0  0  0  0
 29 30  1  0  0  0  0
M  END
>  <MODEL>
9

>  <REMARK>
 VINA RESULT:      -5.6      3.014      6.912
  Name = 
  10 active torsions:
  status: ('A' for Active; 'I' for Inactive)
    1  A    between atoms: C_3  and  N_20
    2  A    between atoms: C_3  and  C_25
    3  A    between atoms: C_3  and  C_26
    4  A    between atoms: C_4  and  N_22
    5  A    between atoms: C_4  and  C_26
    6  A    between atoms: O_5  and  C_15
    7  A    between atoms: C_8  and  N_9
    8  A    between atoms: C_10  and  O_18
    9  A    between atoms: C_10  and  N_22
   10  A    between atoms: N_16  and  C_27
                            x       y       z     vdW  Elec       q    Type
                         _______ _______ _______ _____ _____    ______ ____

>  <TORSDO>
F 10

$$$$
