=
 OpenBabel11042411393D

 45 50  0  0  1  0  0  0  0  0999 V2000
  184.9820  177.4510  138.1120 N   0  0  0  0  0  2  0  0  0  0  0  0
  183.5670  177.8750  139.9940 N   0  0  0  0  0  0  0  0  0  0  0  0
  184.6380  175.8270  136.3590 N   0  0  0  0  0  0  0  0  0  0  0  0
  183.9100  177.1150  138.9990 C   0  0  0  0  0  3  0  0  0  0  0  0
  185.4250  176.6280  137.0220 C   0  0  0  0  0  0  0  0  0  0  0  0
  183.6040  171.1090  136.5510 C   0  0  0  0  0  3  0  0  0  0  0  0
  181.4650  172.8460  136.2660 C   0  0  0  0  0  0  0  0  0  0  0  0
  182.6560  173.2970  136.7690 C   0  0  0  0  0  0  0  0  0  0  0  0
  183.2100  175.7530  136.4280 C   0  0  1  0  0  3  0  0  0  0  0  0
  181.3040  171.5300  135.8410 C   0  0  0  0  0  3  0  0  0  0  0  0
  182.3770  176.5940  135.8120 C   0  0  0  0  0  2  0  0  0  0  0  0
  181.0960  174.9490  136.6410 C   0  0  0  0  0  0  0  0  0  0  0  0
  180.5260  173.9000  136.1310 N   0  0  0  0  0  0  0  0  0  0  0  0
  182.4690  174.7080  137.1880 C   0  0  1  0  0  3  0  0  0  0  0  0
  182.3920  170.6540  135.9930 C   0  0  0  0  0  3  0  0  0  0  0  0
  183.7430  172.4460  136.9540 C   0  0  0  0  0  3  0  0  0  0  0  0
  181.0160  176.1980  135.9700 N   0  0  0  0  0  2  0  0  0  0  0  0
  184.3280  180.0570  139.5550 O   0  0  0  0  0  0  0  0  0  0  0  0
  184.1970  179.1070  140.3780 C   0  0  0  0  0  0  0  0  0  0  0  0
  185.0870  178.3980  144.4660 N   0  0  0  0  0  0  0  0  0  0  0  0
  183.7140  178.5690  143.9910 C   0  0  0  0  0  2  0  0  0  0  0  0
  185.6480  178.0020  142.0900 C   0  0  0  0  0  2  0  0  0  0  0  0
  186.5210  178.2240  146.3060 O   0  0  0  0  0  0  0  0  0  0  0  0
  185.3560  178.4440  145.8730 C   0  0  0  0  0  0  0  0  0  0  0  0
  184.3420  178.7430  146.7720 O   0  0  0  0  0  1  0  0  0  0  0  0
  183.6730  179.4990  142.7760 C   0  0  0  0  0  2  0  0  0  0  0  0
  186.1710  178.1050  143.5210 C   0  0  0  0  0  2  0  0  0  0  0  0
  184.7830  179.2180  141.7480 C   0  0  0  0  0  3  0  0  0  0  0  0
  187.1530  176.6920  136.5670 S   0  0  0  0  0  0  0  0  0  0  0  0
  187.5890  177.8000  137.9450 C   0  0  0  0  0  2  0  0  0  0  0  0
  188.8940  177.7190  140.1120 C   0  0  0  0  0  0  0  0  0  0  0  0
  188.3950  177.0920  138.9290 N   0  0  0  0  0  2  0  0  0  0  0  0
  188.6000  178.9180  140.3770 O   0  0  0  0  0  0  0  0  0  0  0  0
  189.5740  178.1110  143.1700 C   0  0  1  0  0  3  0  0  0  0  0  0
  191.0540  177.9120  144.7390 C   0  0  1  0  0  3  0  0  0  0  0  0
  191.2290  177.3840  140.9650 C   0  0  0  0  0  2  0  0  0  0  0  0
  191.0920  178.3050  143.2600 C   0  0  1  0  0  3  0  0  0  0  0  0
  191.8730  177.3620  142.3390 C   0  0  0  0  0  2  0  0  0  0  0  0
  189.7620  176.9320  141.0390 C   0  0  1  0  0  3  0  0  0  0  0  0
  189.2110  176.9080  142.4070 N   0  0  0  0  0  2  0  0  0  0  0  0
  189.5400  177.7810  144.6540 C   0  0  0  0  0  2  0  0  0  0  0  0
  191.6440  176.5990  144.9840 N   0  0  0  0  0  2  0  0  0  0  0  0
  191.9760  176.1450  146.2960 C   0  0  0  0  0  0  0  0  0  0  0  0
  192.4050  174.9750  146.4580 O   0  0  0  0  0  0  0  0  0  0  0  0
  191.8240  176.9830  147.3950 O   0  0  0  0  0  1  0  0  0  0  0  0
  1  4  1  0  0  0  0
  2 19  1  0  0  0  0
  3  5  2  0  0  0  0
  4  2  2  0  0  0  0
  5  1  1  0  0  0  0
  6 16  1  0  0  0  0
  7  8  1  0  0  0  0
  8 16  2  0  0  0  0
  8 14  1  0  0  0  0
  9  3  1  6  0  0  0
  9 14  1  0  0  0  0
 10 15  1  0  0  0  0
 10  7  2  0  0  0  0
 11 17  1  0  0  0  0
 11  9  1  0  0  0  0
 13  7  1  0  0  0  0
 13 12  2  0  0  0  0
 14 12  1  6  0  0  0
 15  6  2  0  0  0  0
 17 12  1  0  0  0  0
 18 19  2  0  0  0  0
 19 28  1  0  0  0  0
 20 24  1  0  0  0  0
 21 20  1  0  0  0  0
 22 27  1  0  0  0  0
 24 23  2  0  0  0  0
 24 25  1  0  0  0  0
 26 21  1  0  0  0  0
 27 20  1  0  0  0  0
 28 22  1  0  0  0  0
 28 26  1  0  0  0  0
 29  5  1  0  0  0  0
 29 30  1  0  0  0  0
 30 32  1  0  0  0  0
 31 33  2  0  0  0  0
 32 31  1  0  0  0  0
 34 37  1  0  0  0  0
 34 41  1  1  0  0  0
 35 42  1  6  0  0  0
 36 39  1  0  0  0  0
 36 38  1  0  0  0  0
 37 38  1  6  0  0  0
 37 35  1  0  0  0  0
 39 31  1  6  0  0  0
 39 40  1  0  0  0  0
 40 34  1  0  0  0  0
 41 35  1  0  0  0  0
 42 43  1  0  0  0  0
 43 44  2  0  0  0  0
 43 45  1  0  0  0  0
M  END
>  <MODEL>
1

>  <REMARK>
 VINA RESULT:      -9.3      0.000      0.000
  Name = 
  8 active torsions:
  status: ('A' for Active; 'I' for Inactive)
    1  A    between atoms: C_1  and  C_28
    2  A    between atoms: S_9  and  C_17
    3  A    between atoms: S_9  and  C_39
    4  A    between atoms: C_12  and  N_18
    5  A    between atoms: C_17  and  N_33
    6  A    between atoms: C_19  and  N_26
    7  A    between atoms: N_22  and  C_23
    8  A    between atoms: C_23  and  C_36
                            x       y       z     vdW  Elec       q    Type
                         _______ _______ _______ _____ _____    ______ ____

>  <TORSDO>
F 8

$$$$
=
 OpenBabel11042411393D

 45 50  0  0  1  0  0  0  0  0999 V2000
  183.3250  177.1070  139.2260 N   0  0  0  0  0  2  0  0  0  0  0  0
  183.5950  178.2320  141.3200 N   0  0  0  0  0  0  0  0  0  0  0  0
  181.4890  175.6900  138.5530 N   0  0  0  0  0  0  0  0  0  0  0  0
  182.9920  177.3350  140.5990 C   0  0  0  0  0  3  0  0  0  0  0  0
  182.7160  176.1040  138.3980 C   0  0  0  0  0  0  0  0  0  0  0  0
  181.4390  180.4050  137.4890 C   0  0  0  0  0  3  0  0  0  0  0  0
  179.8880  179.5920  139.6360 C   0  0  0  0  0  0  0  0  0  0  0  0
  180.2680  178.6880  138.6800 C   0  0  0  0  0  0  0  0  0  0  0  0
  180.4760  176.2580  139.3910 C   0  0  1  0  0  3  0  0  0  0  0  0
  180.3000  180.9210  139.5900 C   0  0  0  0  0  3  0  0  0  0  0  0
  180.2040  175.8520  140.6320 C   0  0  0  0  0  2  0  0  0  0  0  0
  179.0160  177.7290  140.3200 C   0  0  0  0  0  0  0  0  0  0  0  0
  179.1650  178.9670  140.6830 N   0  0  0  0  0  0  0  0  0  0  0  0
  179.6060  177.3960  138.9840 C   0  0  1  0  0  3  0  0  0  0  0  0
  181.0830  181.3270  138.4950 C   0  0  0  0  0  3  0  0  0  0  0  0
  181.0220  179.0670  137.5720 C   0  0  0  0  0  3  0  0  0  0  0  0
  179.2280  176.6830  141.2560 N   0  0  0  0  0  2  0  0  0  0  0  0
  184.5760  179.7740  139.8400 O   0  0  0  0  0  0  0  0  0  0  0  0
  184.6700  179.0820  140.8930 C   0  0  0  0  0  0  0  0  0  0  0  0
  188.1220  177.7570  142.9750 N   0  0  0  0  0  0  0  0  0  0  0  0
  186.7800  177.2940  143.3270 C   0  0  0  0  0  2  0  0  0  0  0  0
  187.0970  178.4780  140.8430 C   0  0  0  0  0  2  0  0  0  0  0  0
  190.3880  177.8340  143.5520 O   0  0  0  0  0  0  0  0  0  0  0  0
  189.2110  177.5090  143.8720 C   0  0  0  0  0  0  0  0  0  0  0  0
  188.9820  176.9190  145.1090 O   0  0  0  0  0  1  0  0  0  0  0  0
  185.7380  178.3720  143.0220 C   0  0  0  0  0  2  0  0  0  0  0  0
  188.3710  178.4030  141.6810 C   0  0  0  0  0  2  0  0  0  0  0  0
  185.9490  179.0680  141.6660 C   0  0  0  0  0  3  0  0  0  0  0  0
  183.7040  175.3710  137.1000 S   0  0  0  0  0  0  0  0  0  0  0  0
  184.2400  176.9830  136.4450 C   0  0  0  0  0  2  0  0  0  0  0  0
  186.5490  177.9460  136.8290 C   0  0  0  0  0  0  0  0  0  0  0  0
  185.6790  176.9870  136.2240 N   0  0  0  0  0  2  0  0  0  0  0  0
  186.0970  178.8050  137.6360 O   0  0  0  0  0  0  0  0  0  0  0  0
  188.8000  175.8520  137.5500 C   0  0  1  0  0  3  0  0  0  0  0  0
  190.8870  175.5260  138.0290 C   0  0  1  0  0  3  0  0  0  0  0  0
  188.8370  178.7020  137.5240 C   0  0  0  0  0  2  0  0  0  0  0  0
  189.8570  176.6070  138.3640 C   0  0  1  0  0  3  0  0  0  0  0  0
  190.1550  178.0050  137.8100 C   0  0  0  0  0  2  0  0  0  0  0  0
  188.0060  177.9110  136.5020 C   0  0  1  0  0  3  0  0  0  0  0  0
  188.4800  176.5310  136.2850 N   0  0  0  0  0  2  0  0  0  0  0  0
  189.8140  174.7530  137.2750 C   0  0  0  0  0  2  0  0  0  0  0  0
  191.9020  175.9910  137.0900 N   0  0  0  0  0  2  0  0  0  0  0  0
  193.2030  176.3980  137.5150 C   0  0  0  0  0  0  0  0  0  0  0  0
  194.0660  176.7130  136.6560 O   0  0  0  0  0  0  0  0  0  0  0  0
  193.5260  176.4440  138.8670 O   0  0  0  0  0  1  0  0  0  0  0  0
  1  4  1  0  0  0  0
  4  2  2  0  0  0  0
  5  3  2  0  0  0  0
  5  1  1  0  0  0  0
  6 16  2  0  0  0  0
  6 15  1  0  0  0  0
  7 13  1  0  0  0  0
  8  7  2  0  0  0  0
  9  3  1  1  0  0  0
  9 11  1  0  0  0  0
 10  7  1  0  0  0  0
 11 17  1  0  0  0  0
 12 13  2  0  0  0  0
 12 17  1  0  0  0  0
 14  8  1  1  0  0  0
 14  9  1  0  0  0  0
 14 12  1  0  0  0  0
 15 10  2  0  0  0  0
 16  8  1  0  0  0  0
 18 19  2  0  0  0  0
 19  2  1  0  0  0  0
 19 28  1  0  0  0  0
 20 21  1  0  0  0  0
 20 24  1  0  0  0  0
 22 28  1  0  0  0  0
 22 27  1  0  0  0  0
 23 24  2  0  0  0  0
 24 25  1  0  0  0  0
 26 21  1  0  0  0  0
 27 20  1  0  0  0  0
 28 26  1  0  0  0  0
 29  5  1  0  0  0  0
 30 29  1  0  0  0  0
 31 33  2  0  0  0  0
 32 30  1  0  0  0  0
 32 31  1  0  0  0  0
 34 41  1  6  0  0  0
 34 37  1  0  0  0  0
 35 42  1  6  0  0  0
 35 37  1  0  0  0  0
 36 38  1  0  0  0  0
 37 38  1  6  0  0  0
 39 31  1  1  0  0  0
 39 36  1  0  0  0  0
 40 39  1  0  0  0  0
 40 34  1  0  0  0  0
 41 35  1  0  0  0  0
 42 43  1  0  0  0  0
 43 45  1  0  0  0  0
 44 43  2  0  0  0  0
M  END
>  <MODEL>
2

>  <REMARK>
 VINA RESULT:      -8.7      3.213      5.697
  Name = 
  8 active torsions:
  status: ('A' for Active; 'I' for Inactive)
    1  A    between atoms: C_1  and  C_28
    2  A    between atoms: S_9  and  C_17
    3  A    between atoms: S_9  and  C_39
    4  A    between atoms: C_12  and  N_18
    5  A    between atoms: C_17  and  N_33
    6  A    between atoms: C_19  and  N_26
    7  A    between atoms: N_22  and  C_23
    8  A    between atoms: C_23  and  C_36
                            x       y       z     vdW  Elec       q    Type
                         _______ _______ _______ _____ _____    ______ ____

>  <TORSDO>
F 8

$$$$
=
 OpenBabel11042411393D

 45 50  0  0  1  0  0  0  0  0999 V2000
  189.4530  177.4260  139.0600 N   0  0  0  0  0  2  0  0  0  0  0  0
  190.0910  176.4340  141.1410 N   0  0  0  0  0  0  0  0  0  0  0  0
  190.3520  176.9430  136.8720 N   0  0  0  0  0  0  0  0  0  0  0  0
  190.3300  176.6530  139.8830 C   0  0  0  0  0  3  0  0  0  0  0  0
  189.6900  177.7280  137.6760 C   0  0  0  0  0  0  0  0  0  0  0  0
  194.9040  176.7180  135.2610 C   0  0  0  0  0  3  0  0  0  0  0  0
  193.7350  174.3300  136.0420 C   0  0  0  0  0  0  0  0  0  0  0  0
  193.2390  175.5220  136.5000 C   0  0  0  0  0  0  0  0  0  0  0  0
  190.7760  175.5980  137.1190 C   0  0  1  0  0  3  0  0  0  0  0  0
  194.7970  174.2780  135.1430 C   0  0  0  0  0  3  0  0  0  0  0  0
  189.9860  174.5270  137.0360 C   0  0  0  0  0  2  0  0  0  0  0  0
  192.0700  173.7400  137.2990 C   0  0  0  0  0  0  0  0  0  0  0  0
  192.9560  173.2350  136.4950 N   0  0  0  0  0  0  0  0  0  0  0  0
  192.1710  175.2230  137.4850 C   0  0  1  0  0  3  0  0  0  0  0  0
  195.3880  175.4940  134.7560 C   0  0  0  0  0  3  0  0  0  0  0  0
  193.8200  176.7400  136.1530 C   0  0  0  0  0  3  0  0  0  0  0  0
  190.7170  173.3170  137.2210 N   0  0  0  0  0  2  0  0  0  0  0  0
  188.1080  177.6800  141.3540 O   0  0  0  0  0  0  0  0  0  0  0  0
  188.9750  176.9370  141.8920 C   0  0  0  0  0  0  0  0  0  0  0  0
  189.0740  177.3630  146.1140 N   0  0  0  0  0  0  0  0  0  0  0  0
  190.1980  177.7670  145.2680 C   0  0  0  0  0  2  0  0  0  0  0  0
  187.7500  177.3950  144.0250 C   0  0  0  0  0  2  0  0  0  0  0  0
  188.2840  176.9890  148.2840 O   0  0  0  0  0  1  0  0  0  0  0  0
  189.2600  177.2620  147.5310 C   0  0  0  0  0  0  0  0  0  0  0  0
  190.5170  177.4520  148.0890 O   0  0  0  0  0  0  0  0  0  0  0  0
  190.2710  176.8950  144.0130 C   0  0  0  0  0  2  0  0  0  0  0  0
  187.7470  177.1370  145.5300 C   0  0  0  0  0  2  0  0  0  0  0  0
  188.9030  176.6420  143.3560 C   0  0  0  0  0  3  0  0  0  0  0  0
  189.0630  179.2740  137.0320 S   0  0  0  0  0  0  0  0  0  0  0  0
  187.4710  178.5470  136.5310 C   0  0  0  0  0  2  0  0  0  0  0  0
  185.3650  178.3010  137.9140 C   0  0  0  0  0  0  0  0  0  0  0  0
  186.3850  179.1080  137.3220 N   0  0  0  0  0  2  0  0  0  0  0  0
  185.4030  177.0430  137.8150 O   0  0  0  0  0  0  0  0  0  0  0  0
  184.7560  178.4900  141.0060 C   0  0  1  0  0  3  0  0  0  0  0  0
  183.2440  178.5810  142.5550 C   0  0  1  0  0  3  0  0  0  0  0  0
  183.0260  178.0560  138.7830 C   0  0  0  0  0  2  0  0  0  0  0  0
  183.3850  177.8380  141.2240 C   0  0  1  0  0  3  0  0  0  0  0  0
  182.3660  178.2100  140.1420 C   0  0  0  0  0  2  0  0  0  0  0  0
  184.2570  178.9670  138.6630 C   0  0  1  0  0  3  0  0  0  0  0  0
  184.7250  179.5130  139.9510 N   0  0  0  0  0  2  0  0  0  0  0  0
  184.6330  179.1740  142.3590 C   0  0  0  0  0  2  0  0  0  0  0  0
  182.2470  179.6450  142.4990 N   0  0  0  0  0  2  0  0  0  0  0  0
  180.9670  179.5240  143.1190 C   0  0  0  0  0  0  0  0  0  0  0  0
  180.1770  180.5020  143.1100 O   0  0  0  0  0  0  0  0  0  0  0  0
  180.5890  178.3370  143.7380 O   0  0  0  0  0  1  0  0  0  0  0  0
  1  4  1  0  0  0  0
  2 19  1  0  0  0  0
  3  5  2  0  0  0  0
  4  2  2  0  0  0  0
  5  1  1  0  0  0  0
  6 16  1  0  0  0  0
  7 13  1  0  0  0  0
  7  8  1  0  0  0  0
  9  3  1  6  0  0  0
  9 14  1  0  0  0  0
 10  7  2  0  0  0  0
 11  9  1  0  0  0  0
 11 17  1  0  0  0  0
 12 14  1  0  0  0  0
 13 12  2  0  0  0  0
 14  8  1  6  0  0  0
 15 10  1  0  0  0  0
 15  6  2  0  0  0  0
 16  8  2  0  0  0  0
 17 12  1  0  0  0  0
 18 19  2  0  0  0  0
 19 28  1  0  0  0  0
 20 24  1  0  0  0  0
 21 20  1  0  0  0  0
 22 27  1  0  0  0  0
 24 25  2  0  0  0  0
 24 23  1  0  0  0  0
 26 21  1  0  0  0  0
 27 20  1  0  0  0  0
 28 26  1  0  0  0  0
 28 22  1  0  0  0  0
 29  5  1  0  0  0  0
 30 29  1  0  0  0  0
 30 32  1  0  0  0  0
 32 31  1  0  0  0  0
 33 31  2  0  0  0  0
 34 37  1  0  0  0  0
 34 41  1  1  0  0  0
 35 42  1  6  0  0  0
 36 38  1  0  0  0  0
 37 38  1  6  0  0  0
 37 35  1  0  0  0  0
 39 31  1  1  0  0  0
 39 36  1  0  0  0  0
 39 40  1  0  0  0  0
 40 34  1  0  0  0  0
 41 35  1  0  0  0  0
 42 43  1  0  0  0  0
 43 45  1  0  0  0  0
 44 43  2  0  0  0  0
M  END
>  <MODEL>
3

>  <REMARK>
 VINA RESULT:      -8.5      3.645      8.230
  Name = 
  8 active torsions:
  status: ('A' for Active; 'I' for Inactive)
    1  A    between atoms: C_1  and  C_28
    2  A    between atoms: S_9  and  C_17
    3  A    between atoms: S_9  and  C_39
    4  A    between atoms: C_12  and  N_18
    5  A    between atoms: C_17  and  N_33
    6  A    between atoms: C_19  and  N_26
    7  A    between atoms: N_22  and  C_23
    8  A    between atoms: C_23  and  C_36
                            x       y       z     vdW  Elec       q    Type
                         _______ _______ _______ _____ _____    ______ ____

>  <TORSDO>
F 8

$$$$
=
 OpenBabel11042411393D

 45 50  0  0  1  0  0  0  0  0999 V2000
  185.0060  177.2460  137.6790 N   0  0  0  0  0  2  0  0  0  0  0  0
  186.3050  177.2650  135.6710 N   0  0  0  0  0  0  0  0  0  0  0  0
  183.2350  175.7120  138.2620 N   0  0  0  0  0  0  0  0  0  0  0  0
  185.2660  176.8490  136.3290 C   0  0  0  0  0  3  0  0  0  0  0  0
  183.8540  176.8460  138.4370 C   0  0  0  0  0  0  0  0  0  0  0  0
  179.1920  173.3580  137.0490 C   0  0  0  0  0  3  0  0  0  0  0  0
  181.5910  172.1300  136.4110 C   0  0  0  0  0  0  0  0  0  0  0  0
  181.5460  173.4810  136.6300 C   0  0  0  0  0  0  0  0  0  0  0  0
  183.6670  174.5960  137.4760 C   0  0  1  0  0  3  0  0  0  0  0  0
  180.4600  171.3300  136.5460 C   0  0  0  0  0  3  0  0  0  0  0  0
  184.7980  173.9170  137.6790 C   0  0  0  0  0  2  0  0  0  0  0  0
  183.6480  172.7600  136.1390 C   0  0  0  0  0  0  0  0  0  0  0  0
  182.9170  171.6870  136.1710 N   0  0  0  0  0  0  0  0  0  0  0  0
  182.8900  174.0360  136.3350 C   0  0  1  0  0  3  0  0  0  0  0  0
  179.2450  171.9610  136.8650 C   0  0  0  0  0  3  0  0  0  0  0  0
  180.3530  174.1370  136.9230 C   0  0  0  0  0  3  0  0  0  0  0  0
  184.8970  172.7880  136.8140 N   0  0  0  0  0  2  0  0  0  0  0  0
  186.9940  179.3290  136.5610 O   0  0  0  0  0  0  0  0  0  0  0  0
  187.3050  178.1770  136.1500 C   0  0  0  0  0  0  0  0  0  0  0  0
  191.0570  176.3820  136.9950 N   0  0  0  0  0  0  0  0  0  0  0  0
  190.3340  177.1700  137.9930 C   0  0  0  0  0  2  0  0  0  0  0  0
  188.8930  176.2750  135.8020 C   0  0  0  0  0  2  0  0  0  0  0  0
  193.0470  175.2980  136.4150 O   0  0  0  0  0  0  0  0  0  0  0  0
  192.4290  176.0400  137.2270 C   0  0  0  0  0  0  0  0  0  0  0  0
  193.0960  176.5300  138.3420 O   0  0  0  0  0  1  0  0  0  0  0  0
  189.4970  178.2610  137.3190 C   0  0  0  0  0  2  0  0  0  0  0  0
  190.3680  175.8790  135.8010 C   0  0  0  0  0  2  0  0  0  0  0  0
  188.7420  177.7750  136.0690 C   0  0  0  0  0  3  0  0  0  0  0  0
  183.2230  177.9780  139.6700 S   0  0  0  0  0  0  0  0  0  0  0  0
  184.6250  179.1260  139.4930 C   0  0  0  0  0  2  0  0  0  0  0  0
  186.7670  178.6350  140.7490 C   0  0  0  0  0  0  0  0  0  0  0  0
  185.4300  179.1350  140.7070 N   0  0  0  0  0  2  0  0  0  0  0  0
  187.3280  178.2100  139.7010 O   0  0  0  0  0  0  0  0  0  0  0  0
  189.3780  177.1180  141.6700 C   0  0  1  0  0  3  0  0  0  0  0  0
  190.4380  176.1550  143.2950 C   0  0  1  0  0  3  0  0  0  0  0  0
  186.9170  177.5970  143.0270 C   0  0  0  0  0  2  0  0  0  0  0  0
  188.9750  176.2290  142.8530 C   0  0  1  0  0  3  0  0  0  0  0  0
  188.0190  176.9250  143.8270 C   0  0  0  0  0  2  0  0  0  0  0  0
  187.4990  178.6310  142.0510 C   0  0  1  0  0  3  0  0  0  0  0  0
  188.9570  178.5140  141.8530 N   0  0  0  0  0  2  0  0  0  0  0  0
  190.8360  176.9860  142.0830 C   0  0  0  0  0  2  0  0  0  0  0  0
  190.6940  176.9160  144.5140 N   0  0  0  0  0  2  0  0  0  0  0  0
  191.5530  176.4350  145.5470 C   0  0  0  0  0  0  0  0  0  0  0  0
  191.8030  177.1670  146.5380 O   0  0  0  0  0  1  0  0  0  0  0  0
  192.1200  175.1680  145.4650 O   0  0  0  0  0  0  0  0  0  0  0  0
  1  5  1  0  0  0  0
  2 19  1  0  0  0  0
  2  4  2  0  0  0  0
  3  5  2  0  0  0  0
  4  1  1  0  0  0  0
  5 29  1  0  0  0  0
  7 10  2  0  0  0  0
  7  8  1  0  0  0  0
  8 16  2  0  0  0  0
  9 11  1  0  0  0  0
  9  3  1  1  0  0  0
 10 15  1  0  0  0  0
 12 13  2  0  0  0  0
 12 17  1  0  0  0  0
 13  7  1  0  0  0  0
 14 12  1  1  0  0  0
 14  8  1  0  0  0  0
 14  9  1  0  0  0  0
 15  6  2  0  0  0  0
 16  6  1  0  0  0  0
 17 11  1  0  0  0  0
 19 18  2  0  0  0  0
 20 24  1  0  0  0  0
 20 21  1  0  0  0  0
 22 28  1  0  0  0  0
 23 24  2  0  0  0  0
 24 25  1  0  0  0  0
 26 21  1  0  0  0  0
 27 22  1  0  0  0  0
 27 20  1  0  0  0  0
 28 19  1  0  0  0  0
 28 26  1  0  0  0  0
 30 29  1  0  0  0  0
 30 32  1  0  0  0  0
 32 31  1  0  0  0  0
 33 31  2  0  0  0  0
 34 40  1  0  0  0  0
 34 41  1  1  0  0  0
 34 37  1  0  0  0  0
 35 42  1  1  0  0  0
 36 38  1  0  0  0  0
 37 35  1  0  0  0  0
 37 38  1  1  0  0  0
 39 31  1  6  0  0  0
 39 36  1  0  0  0  0
 40 39  1  0  0  0  0
 41 35  1  0  0  0  0
 42 43  1  0  0  0  0
 43 44  1  0  0  0  0
 45 43  2  0  0  0  0
M  END
>  <MODEL>
4

>  <REMARK>
 VINA RESULT:      -8.5      2.526      5.234
  Name = 
  8 active torsions:
  status: ('A' for Active; 'I' for Inactive)
    1  A    between atoms: C_1  and  C_28
    2  A    between atoms: S_9  and  C_17
    3  A    between atoms: S_9  and  C_39
    4  A    between atoms: C_12  and  N_18
    5  A    between atoms: C_17  and  N_33
    6  A    between atoms: C_19  and  N_26
    7  A    between atoms: N_22  and  C_23
    8  A    between atoms: C_23  and  C_36
                            x       y       z     vdW  Elec       q    Type
                         _______ _______ _______ _____ _____    ______ ____

>  <TORSDO>
F 8

$$$$
=
 OpenBabel11042411393D

 45 50  0  0  1  0  0  0  0  0999 V2000
  184.0340  177.6740  138.5350 N   0  0  0  0  0  2  0  0  0  0  0  0
  183.7230  177.6800  140.9070 N   0  0  0  0  0  0  0  0  0  0  0  0
  182.7970  176.3970  136.9000 N   0  0  0  0  0  0  0  0  0  0  0  0
  183.5020  177.1350  139.7490 C   0  0  0  0  0  3  0  0  0  0  0  0
  183.8500  177.0890  137.2360 C   0  0  0  0  0  0  0  0  0  0  0  0
  181.4170  180.9050  137.9690 C   0  0  0  0  0  3  0  0  0  0  0  0
  179.9700  178.8470  139.1300 C   0  0  0  0  0  0  0  0  0  0  0  0
  180.7090  178.6170  137.9990 C   0  0  0  0  0  0  0  0  0  0  0  0
  181.5760  176.2570  137.6340 C   0  0  1  0  0  3  0  0  0  0  0  0
  179.9580  180.0920  139.7530 C   0  0  0  0  0  3  0  0  0  0  0  0
  181.3100  175.2600  138.4810 C   0  0  0  0  0  2  0  0  0  0  0  0
  179.6440  176.7420  138.7260 C   0  0  0  0  0  0  0  0  0  0  0  0
  179.3670  177.6560  139.6060 N   0  0  0  0  0  0  0  0  0  0  0  0
  180.4470  177.2260  137.5580 C   0  0  1  0  0  3  0  0  0  0  0  0
  180.6900  181.1320  139.1550 C   0  0  0  0  0  3  0  0  0  0  0  0
  181.4250  179.6340  137.3720 C   0  0  0  0  0  3  0  0  0  0  0  0
  180.0660  175.4540  139.1490 N   0  0  0  0  0  2  0  0  0  0  0  0
  184.6490  179.7530  140.2930 O   0  0  0  0  0  0  0  0  0  0  0  0
  184.5300  178.8410  141.1580 C   0  0  0  0  0  0  0  0  0  0  0  0
  185.6800  178.4410  145.2230 N   0  0  0  0  0  0  0  0  0  0  0  0
  184.4130  179.0600  144.8350 C   0  0  0  0  0  2  0  0  0  0  0  0
  185.7050  177.5210  142.9280 C   0  0  0  0  0  2  0  0  0  0  0  0
  187.2010  177.9930  146.9440 O   0  0  0  0  0  0  0  0  0  0  0  0
  186.1480  178.5820  146.5700 C   0  0  0  0  0  0  0  0  0  0  0  0
  185.4570  179.3780  147.4740 O   0  0  0  0  0  1  0  0  0  0  0  0
  184.5410  179.7470  143.4730 C   0  0  0  0  0  2  0  0  0  0  0  0
  186.4310  177.6180  144.2680 C   0  0  0  0  0  2  0  0  0  0  0  0
  185.3080  178.9130  142.4320 C   0  0  0  0  0  3  0  0  0  0  0  0
  185.1480  177.3050  136.0250 S   0  0  0  0  0  0  0  0  0  0  0  0
  186.3120  176.2270  136.9180 C   0  0  0  0  0  2  0  0  0  0  0  0
  188.1290  177.7630  137.7810 C   0  0  0  0  0  0  0  0  0  0  0  0
  186.9640  176.9630  137.9910 N   0  0  0  0  0  2  0  0  0  0  0  0
  188.6100  177.9060  136.6220 O   0  0  0  0  0  0  0  0  0  0  0  0
  190.3450  176.7840  139.8050 C   0  0  1  0  0  3  0  0  0  0  0  0
  191.1020  176.8430  141.8340 C   0  0  1  0  0  3  0  0  0  0  0  0
  187.9400  178.2530  140.2330 C   0  0  0  0  0  2  0  0  0  0  0  0
  189.7090  176.8140  141.2000 C   0  0  1  0  0  3  0  0  0  0  0  0
  188.8440  178.0560  141.4370 C   0  0  0  0  0  2  0  0  0  0  0  0
  188.7660  178.4400  138.9510 C   0  0  1  0  0  3  0  0  0  0  0  0
  190.1840  178.0590  139.0910 N   0  0  0  0  0  2  0  0  0  0  0  0
  191.7230  176.7500  140.4470 C   0  0  0  0  0  2  0  0  0  0  0  0
  191.4210  178.1380  142.4250 N   0  0  0  0  0  2  0  0  0  0  0  0
  191.6630  178.3000  143.8220 C   0  0  0  0  0  0  0  0  0  0  0  0
  192.0140  179.4220  144.2670 O   0  0  0  0  0  0  0  0  0  0  0  0
  191.5200  177.2260  144.6950 O   0  0  0  0  0  1  0  0  0  0  0  0
  1  4  1  0  0  0  0
  2 19  1  0  0  0  0
  3  5  2  0  0  0  0
  4  2  2  0  0  0  0
  5  1  1  0  0  0  0
  6 15  1  0  0  0  0
  7 13  1  0  0  0  0
  7 10  1  0  0  0  0
  8  7  2  0  0  0  0
  9  3  1  1  0  0  0
  9 11  1  0  0  0  0
 11 17  1  0  0  0  0
 12 17  1  0  0  0  0
 12 13  2  0  0  0  0
 14  9  1  0  0  0  0
 14  8  1  1  0  0  0
 14 12  1  0  0  0  0
 15 10  2  0  0  0  0
 16  6  2  0  0  0  0
 16  8  1  0  0  0  0
 18 19  2  0  0  0  0
 19 28  1  0  0  0  0
 20 24  1  0  0  0  0
 21 20  1  0  0  0  0
 22 27  1  0  0  0  0
 24 23  2  0  0  0  0
 24 25  1  0  0  0  0
 26 21  1  0  0  0  0
 27 20  1  0  0  0  0
 28 22  1  0  0  0  0
 28 26  1  0  0  0  0
 29 30  1  0  0  0  0
 29  5  1  0  0  0  0
 30 32  1  0  0  0  0
 31 32  1  0  0  0  0
 33 31  2  0  0  0  0
 34 41  1  1  0  0  0
 34 37  1  0  0  0  0
 35 42  1  6  0  0  0
 36 38  1  0  0  0  0
 37 38  1  6  0  0  0
 37 35  1  0  0  0  0
 39 31  1  6  0  0  0
 39 40  1  0  0  0  0
 39 36  1  0  0  0  0
 40 34  1  0  0  0  0
 41 35  1  0  0  0  0
 42 43  1  0  0  0  0
 43 44  2  0  0  0  0
 43 45  1  0  0  0  0
M  END
>  <MODEL>
5

>  <REMARK>
 VINA RESULT:      -8.4      2.308      4.036
  Name = 
  8 active torsions:
  status: ('A' for Active; 'I' for Inactive)
    1  A    between atoms: C_1  and  C_28
    2  A    between atoms: S_9  and  C_17
    3  A    between atoms: S_9  and  C_39
    4  A    between atoms: C_12  and  N_18
    5  A    between atoms: C_17  and  N_33
    6  A    between atoms: C_19  and  N_26
    7  A    between atoms: N_22  and  C_23
    8  A    between atoms: C_23  and  C_36
                            x       y       z     vdW  Elec       q    Type
                         _______ _______ _______ _____ _____    ______ ____

>  <TORSDO>
F 8

$$$$
=
 OpenBabel11042411393D

 45 50  0  0  1  0  0  0  0  0999 V2000
  186.4490  175.9300  136.5890 N   0  0  0  0  0  2  0  0  0  0  0  0
  185.5260  173.8240  137.2470 N   0  0  0  0  0  0  0  0  0  0  0  0
  188.7850  176.5130  136.4110 N   0  0  0  0  0  0  0  0  0  0  0  0
  186.5450  174.6250  137.1670 C   0  0  0  0  0  3  0  0  0  0  0  0
  187.5340  176.8670  136.5100 C   0  0  0  0  0  0  0  0  0  0  0  0
  193.0710  176.3780  138.6430 C   0  0  0  0  0  3  0  0  0  0  0  0
  192.4310  174.2150  137.0340 C   0  0  0  0  0  0  0  0  0  0  0  0
  191.4420  175.0280  137.5210 C   0  0  0  0  0  0  0  0  0  0  0  0
  189.3030  175.2020  136.1610 C   0  0  1  0  0  3  0  0  0  0  0  0
  193.7760  174.4700  137.2870 C   0  0  0  0  0  3  0  0  0  0  0  0
  189.1180  174.5170  135.0310 C   0  0  0  0  0  2  0  0  0  0  0  0
  190.6160  173.3490  136.2250 C   0  0  0  0  0  0  0  0  0  0  0  0
  191.9070  173.2150  136.1770 N   0  0  0  0  0  0  0  0  0  0  0  0
  190.1370  174.4400  137.1320 C   0  0  1  0  0  3  0  0  0  0  0  0
  194.0920  175.5670  138.1080 C   0  0  0  0  0  3  0  0  0  0  0  0
  191.7240  176.1060  138.3560 C   0  0  0  0  0  3  0  0  0  0  0  0
  189.8510  173.2940  135.0300 N   0  0  0  0  0  2  0  0  0  0  0  0
  183.8900  174.1800  135.5950 O   0  0  0  0  0  0  0  0  0  0  0  0
  184.1850  174.1110  136.8210 C   0  0  0  0  0  0  0  0  0  0  0  0
  181.0170  175.9730  138.9440 N   0  0  0  0  0  0  0  0  0  0  0  0
  182.2050  176.7140  138.5190 C   0  0  0  0  0  2  0  0  0  0  0  0
  181.7350  174.2710  137.3000 C   0  0  0  0  0  2  0  0  0  0  0  0
  179.0510  175.9740  140.2130 O   0  0  0  0  0  0  0  0  0  0  0  0
  180.1190  176.5650  139.8910 C   0  0  0  0  0  0  0  0  0  0  0  0
  180.4200  177.7900  140.4720 O   0  0  0  0  0  1  0  0  0  0  0  0
  183.4310  175.7980  138.4830 C   0  0  0  0  0  2  0  0  0  0  0  0
  180.7030  174.6670  138.3530 C   0  0  0  0  0  2  0  0  0  0  0  0
  183.1530  174.4200  137.8560 C   0  0  0  0  0  3  0  0  0  0  0  0
  187.1460  178.6120  136.5750 S   0  0  0  0  0  0  0  0  0  0  0  0
  186.0220  178.4220  137.9940 C   0  0  0  0  0  2  0  0  0  0  0  0
  186.1250  178.6270  140.5150 C   0  0  0  0  0  0  0  0  0  0  0  0
  186.7650  178.4990  139.2440 N   0  0  0  0  0  2  0  0  0  0  0  0
  184.8660  178.6210  140.6040 O   0  0  0  0  0  0  0  0  0  0  0  0
  188.7140  177.0750  141.4410 C   0  0  1  0  0  3  0  0  0  0  0  0
  189.8550  176.2800  143.1020 C   0  0  1  0  0  3  0  0  0  0  0  0
  186.4150  177.9160  142.9020 C   0  0  0  0  0  2  0  0  0  0  0  0
  188.3650  176.3950  142.7700 C   0  0  1  0  0  3  0  0  0  0  0  0
  187.5410  177.2890  143.7030 C   0  0  0  0  0  2  0  0  0  0  0  0
  186.9680  178.7570  141.7410 C   0  0  1  0  0  3  0  0  0  0  0  0
  188.3930  178.5100  141.4490 N   0  0  0  0  0  2  0  0  0  0  0  0
  190.1920  176.9000  141.7530 C   0  0  0  0  0  2  0  0  0  0  0  0
  190.2610  177.1870  144.1710 N   0  0  0  0  0  2  0  0  0  0  0  0
  191.3170  176.8710  145.0790 C   0  0  0  0  0  0  0  0  0  0  0  0
  191.6810  177.7230  145.9290 O   0  0  0  0  0  1  0  0  0  0  0  0
  191.9490  175.6330  145.0270 O   0  0  0  0  0  0  0  0  0  0  0  0
  1  4  1  0  0  0  0
  3  5  2  0  0  0  0
  4  2  2  0  0  0  0
  5 29  1  0  0  0  0
  5  1  1  0  0  0  0
  7 10  2  0  0  0  0
  7  8  1  0  0  0  0
  8 16  2  0  0  0  0
  9  3  1  6  0  0  0
  9 14  1  0  0  0  0
 10 15  1  0  0  0  0
 11  9  1  0  0  0  0
 13 12  2  0  0  0  0
 13  7  1  0  0  0  0
 14 12  1  6  0  0  0
 14  8  1  0  0  0  0
 15  6  2  0  0  0  0
 16  6  1  0  0  0  0
 17 11  1  0  0  0  0
 17 12  1  0  0  0  0
 18 19  2  0  0  0  0
 19  2  1  0  0  0  0
 19 28  1  0  0  0  0
 20 24  1  0  0  0  0
 21 20  1  0  0  0  0
 22 28  1  0  0  0  0
 22 27  1  0  0  0  0
 24 23  2  0  0  0  0
 24 25  1  0  0  0  0
 26 21  1  0  0  0  0
 27 20  1  0  0  0  0
 28 26  1  0  0  0  0
 29 30  1  0  0  0  0
 30 32  1  0  0  0  0
 31 33  2  0  0  0  0
 32 31  1  0  0  0  0
 34 40  1  0  0  0  0
 34 41  1  1  0  0  0
 34 37  1  0  0  0  0
 35 42  1  1  0  0  0
 36 38  1  0  0  0  0
 37 35  1  0  0  0  0
 37 38  1  1  0  0  0
 39 31  1  6  0  0  0
 39 36  1  0  0  0  0
 40 39  1  0  0  0  0
 41 35  1  0  0  0  0
 42 43  1  0  0  0  0
 43 44  1  0  0  0  0
 45 43  2  0  0  0  0
M  END
>  <MODEL>
6

>  <REMARK>
 VINA RESULT:      -8.3      3.289      6.682
  Name = 
  8 active torsions:
  status: ('A' for Active; 'I' for Inactive)
    1  A    between atoms: C_1  and  C_28
    2  A    between atoms: S_9  and  C_17
    3  A    between atoms: S_9  and  C_39
    4  A    between atoms: C_12  and  N_18
    5  A    between atoms: C_17  and  N_33
    6  A    between atoms: C_19  and  N_26
    7  A    between atoms: N_22  and  C_23
    8  A    between atoms: C_23  and  C_36
                            x       y       z     vdW  Elec       q    Type
                         _______ _______ _______ _____ _____    ______ ____

>  <TORSDO>
F 8

$$$$
=
 OpenBabel11042411393D

 45 50  0  0  1  0  0  0  0  0999 V2000
  183.5120  177.8330  139.4910 N   0  0  0  0  0  2  0  0  0  0  0  0
  183.9270  177.5050  137.1580 N   0  0  0  0  0  0  0  0  0  0  0  0
  181.9530  179.3780  140.4970 N   0  0  0  0  0  0  0  0  0  0  0  0
  183.4150  178.2170  138.1160 C   0  0  0  0  0  3  0  0  0  0  0  0
  182.9970  178.6020  140.5890 C   0  0  0  0  0  0  0  0  0  0  0  0
  180.3210  174.8760  139.8430 C   0  0  0  0  0  3  0  0  0  0  0  0
  179.5670  176.7640  137.9600 C   0  0  0  0  0  0  0  0  0  0  0  0
  179.9770  177.1590  139.2060 C   0  0  0  0  0  0  0  0  0  0  0  0
  181.0240  179.4650  139.4110 C   0  0  1  0  0  3  0  0  0  0  0  0
  179.5600  175.4230  137.5850 C   0  0  0  0  0  3  0  0  0  0  0  0
  181.1530  180.2860  138.3670 C   0  0  0  0  0  2  0  0  0  0  0  0
  179.4360  178.9270  137.8790 C   0  0  0  0  0  0  0  0  0  0  0  0
  179.2960  177.8780  137.1260 N   0  0  0  0  0  0  0  0  0  0  0  0
  179.7960  178.6280  139.3020 C   0  0  1  0  0  3  0  0  0  0  0  0
  179.9380  174.4710  138.5470 C   0  0  0  0  0  3  0  0  0  0  0  0
  180.3350  176.2370  140.1870 C   0  0  0  0  0  3  0  0  0  0  0  0
  180.1360  180.0620  137.3930 N   0  0  0  0  0  2  0  0  0  0  0  0
  184.1740  175.2870  137.8990 O   0  0  0  0  0  0  0  0  0  0  0  0
  184.6720  176.2880  137.3110 C   0  0  0  0  0  0  0  0  0  0  0  0
  188.8950  175.8740  137.2290 N   0  0  0  0  0  0  0  0  0  0  0  0
  188.2210  176.7520  138.1860 C   0  0  0  0  0  2  0  0  0  0  0  0
  186.6720  174.8360  136.9200 C   0  0  0  0  0  2  0  0  0  0  0  0
  190.9220  175.1840  136.2870 O   0  0  0  0  0  0  0  0  0  0  0  0
  190.3130  175.9820  137.0530 C   0  0  0  0  0  0  0  0  0  0  0  0
  191.0300  176.9720  137.7110 O   0  0  0  0  0  1  0  0  0  0  0  0
  186.9230  177.3040  137.5940 C   0  0  0  0  0  2  0  0  0  0  0  0
  188.1430  174.8400  136.5100 C   0  0  0  0  0  2  0  0  0  0  0  0
  186.0910  176.2500  136.8420 C   0  0  0  0  0  3  0  0  0  0  0  0
  183.8500  178.5050  142.1580 S   0  0  0  0  0  0  0  0  0  0  0  0
  185.4690  178.9040  141.4280 C   0  0  0  0  0  2  0  0  0  0  0  0
  187.8970  178.2530  141.7190 C   0  0  0  0  0  0  0  0  0  0  0  0
  186.5300  178.1960  142.1300 N   0  0  0  0  0  2  0  0  0  0  0  0
  188.2470  178.9780  140.7470 O   0  0  0  0  0  0  0  0  0  0  0  0
  188.3980  177.8760  144.8140 C   0  0  1  0  0  3  0  0  0  0  0  0
  189.8500  177.5700  146.3920 C   0  0  1  0  0  3  0  0  0  0  0  0
  190.2250  178.2250  142.6530 C   0  0  0  0  0  2  0  0  0  0  0  0
  189.8200  178.3770  145.0920 C   0  0  1  0  0  3  0  0  0  0  0  0
  190.8270  177.9500  144.0190 C   0  0  0  0  0  2  0  0  0  0  0  0
  188.9120  177.4490  142.4640 C   0  0  1  0  0  3  0  0  0  0  0  0
  188.3570  176.9000  143.7160 N   0  0  0  0  0  2  0  0  0  0  0  0
  188.4160  177.1280  146.1370 C   0  0  0  0  0  2  0  0  0  0  0  0
  190.7380  176.4140  146.3130 N   0  0  0  0  0  2  0  0  0  0  0  0
  191.7860  176.1930  147.2560 C   0  0  0  0  0  0  0  0  0  0  0  0
  192.4690  175.1390  147.1890 O   0  0  0  0  0  0  0  0  0  0  0  0
  192.0560  177.1280  148.2490 O   0  0  0  0  0  1  0  0  0  0  0  0
  1  5  1  0  0  0  0
  2 19  1  0  0  0  0
  2  4  2  0  0  0  0
  3  5  2  0  0  0  0
  4  1  1  0  0  0  0
  5 29  1  0  0  0  0
  6 16  1  0  0  0  0
  7  8  1  0  0  0  0
  8 14  1  0  0  0  0
  8 16  2  0  0  0  0
  9  3  1  6  0  0  0
 10  7  2  0  0  0  0
 10 15  1  0  0  0  0
 11  9  1  0  0  0  0
 13 12  2  0  0  0  0
 13  7  1  0  0  0  0
 14 12  1  6  0  0  0
 14  9  1  0  0  0  0
 15  6  2  0  0  0  0
 17 12  1  0  0  0  0
 17 11  1  0  0  0  0
 19 18  2  0  0  0  0
 20 21  1  0  0  0  0
 23 24  2  0  0  0  0
 24 20  1  0  0  0  0
 24 25  1  0  0  0  0
 26 21  1  0  0  0  0
 27 22  1  0  0  0  0
 27 20  1  0  0  0  0
 28 22  1  0  0  0  0
 28 19  1  0  0  0  0
 28 26  1  0  0  0  0
 30 32  1  0  0  0  0
 30 29  1  0  0  0  0
 31 32  1  0  0  0  0
 33 31  2  0  0  0  0
 34 37  1  0  0  0  0
 34 41  1  1  0  0  0
 35 42  1  6  0  0  0
 36 38  1  0  0  0  0
 37 38  1  6  0  0  0
 37 35  1  0  0  0  0
 39 31  1  1  0  0  0
 39 36  1  0  0  0  0
 39 40  1  0  0  0  0
 40 34  1  0  0  0  0
 41 35  1  0  0  0  0
 42 43  1  0  0  0  0
 43 45  1  0  0  0  0
 44 43  2  0  0  0  0
M  END
>  <MODEL>
7

>  <REMARK>
 VINA RESULT:      -8.2      2.921      5.197
  Name = 
  8 active torsions:
  status: ('A' for Active; 'I' for Inactive)
    1  A    between atoms: C_1  and  C_28
    2  A    between atoms: S_9  and  C_17
    3  A    between atoms: S_9  and  C_39
    4  A    between atoms: C_12  and  N_18
    5  A    between atoms: C_17  and  N_33
    6  A    between atoms: C_19  and  N_26
    7  A    between atoms: N_22  and  C_23
    8  A    between atoms: C_23  and  C_36
                            x       y       z     vdW  Elec       q    Type
                         _______ _______ _______ _____ _____    ______ ____

>  <TORSDO>
F 8

$$$$
=
 OpenBabel11042411393D

 45 50  0  0  1  0  0  0  0  0999 V2000
  185.0270  178.4200  139.9020 N   0  0  0  0  0  2  0  0  0  0  0  0
  184.1250  177.9970  142.0770 N   0  0  0  0  0  0  0  0  0  0  0  0
  183.9290  178.1010  137.7750 N   0  0  0  0  0  0  0  0  0  0  0  0
  184.0570  177.8530  140.7880 C   0  0  0  0  0  3  0  0  0  0  0  0
  185.0170  178.2600  138.4750 C   0  0  0  0  0  0  0  0  0  0  0  0
  181.7900  173.8590  136.8860 C   0  0  0  0  0  3  0  0  0  0  0  0
  180.1540  175.9310  137.7270 C   0  0  0  0  0  0  0  0  0  0  0  0
  181.4990  175.9680  137.9820 C   0  0  0  0  0  0  0  0  0  0  0  0
  182.5760  178.2570  138.2200 C   0  0  1  0  0  3  0  0  0  0  0  0
  179.5760  174.8900  137.0050 C   0  0  0  0  0  3  0  0  0  0  0  0
  181.8750  179.3890  138.1310 C   0  0  0  0  0  2  0  0  0  0  0  0
  180.4210  177.8070  138.7790 C   0  0  0  0  0  0  0  0  0  0  0  0
  179.5080  177.1120  138.1710 N   0  0  0  0  0  0  0  0  0  0  0  0
  181.7710  177.1590  138.8240 C   0  0  1  0  0  3  0  0  0  0  0  0
  180.4120  173.8400  136.5860 C   0  0  0  0  0  3  0  0  0  0  0  0
  182.3470  174.9310  137.6010 C   0  0  0  0  0  3  0  0  0  0  0  0
  180.5230  179.2040  138.5460 N   0  0  0  0  0  2  0  0  0  0  0  0
  185.6650  179.7530  142.3530 O   0  0  0  0  0  0  0  0  0  0  0  0
  185.1550  178.6880  142.8000 C   0  0  0  0  0  0  0  0  0  0  0  0
  187.5700  177.8640  146.1920 N   0  0  0  0  0  0  0  0  0  0  0  0
  188.1280  177.9250  144.8410 C   0  0  0  0  0  2  0  0  0  0  0  0
  185.6290  179.0550  145.2290 C   0  0  0  0  0  2  0  0  0  0  0  0
  187.9220  177.3170  148.4390 O   0  0  0  0  0  1  0  0  0  0  0  0
  188.3570  177.3100  147.2540 C   0  0  0  0  0  0  0  0  0  0  0  0
  189.5990  176.7500  146.9890 O   0  0  0  0  0  0  0  0  0  0  0  0
  187.0880  177.4910  143.8050 C   0  0  0  0  0  2  0  0  0  0  0  0
  186.2470  178.4310  146.4780 C   0  0  0  0  0  2  0  0  0  0  0  0
  185.6870  178.0750  144.0550 C   0  0  0  0  0  3  0  0  0  0  0  0
  186.5880  178.2530  137.6190 S   0  0  0  0  0  0  0  0  0  0  0  0
  186.4700  176.4880  137.1870 C   0  0  0  0  0  2  0  0  0  0  0  0
  188.5630  175.1580  136.6780 C   0  0  0  0  0  0  0  0  0  0  0  0
  187.6730  175.7820  137.6050 N   0  0  0  0  0  2  0  0  0  0  0  0
  188.3610  175.2470  135.4340 O   0  0  0  0  0  0  0  0  0  0  0  0
  191.5240  176.0790  137.2710 C   0  0  1  0  0  3  0  0  0  0  0  0
  193.6220  175.5380  137.2920 C   0  0  1  0  0  3  0  0  0  0  0  0
  190.5110  173.7000  136.0700 C   0  0  0  0  0  2  0  0  0  0  0  0
  192.4350  175.2290  136.3760 C   0  0  1  0  0  3  0  0  0  0  0  0
  192.0090  173.7590  136.3110 C   0  0  0  0  0  2  0  0  0  0  0  0
  189.7440  174.4070  137.1990 C   0  0  1  0  0  3  0  0  0  0  0  0
  190.5920  175.2570  138.0560 N   0  0  0  0  0  2  0  0  0  0  0  0
  192.7230  176.4280  138.1390 C   0  0  0  0  0  2  0  0  0  0  0  0
  194.0390  174.3800  138.0770 N   0  0  0  0  0  2  0  0  0  0  0  0
  195.4120  174.0950  138.3440 C   0  0  0  0  0  0  0  0  0  0  0  0
  195.7110  173.1310  139.0940 O   0  0  0  0  0  1  0  0  0  0  0  0
  196.4190  174.8760  137.7890 O   0  0  0  0  0  0  0  0  0  0  0  0
  1  4  1  0  0  0  0
  2 19  1  0  0  0  0
  3  5  2  0  0  0  0
  4  2  2  0  0  0  0
  5  1  1  0  0  0  0
  6 16  1  0  0  0  0
  7  8  1  0  0  0  0
  7 13  1  0  0  0  0
  9  3  1  6  0  0  0
  9 14  1  0  0  0  0
 10  7  2  0  0  0  0
 11  9  1  0  0  0  0
 11 17  1  0  0  0  0
 12 14  1  0  0  0  0
 13 12  2  0  0  0  0
 14  8  1  6  0  0  0
 15  6  2  0  0  0  0
 15 10  1  0  0  0  0
 16  8  2  0  0  0  0
 17 12  1  0  0  0  0
 18 19  2  0  0  0  0
 19 28  1  0  0  0  0
 20 27  1  0  0  0  0
 20 24  1  0  0  0  0
 21 20  1  0  0  0  0
 22 27  1  0  0  0  0
 24 23  1  0  0  0  0
 25 24  2  0  0  0  0
 26 28  1  0  0  0  0
 26 21  1  0  0  0  0
 28 22  1  0  0  0  0
 29  5  1  0  0  0  0
 30 32  1  0  0  0  0
 30 29  1  0  0  0  0
 31 32  1  0  0  0  0
 33 31  2  0  0  0  0
 34 40  1  0  0  0  0
 34 41  1  1  0  0  0
 35 42  1  1  0  0  0
 35 41  1  0  0  0  0
 36 38  1  0  0  0  0
 36 39  1  0  0  0  0
 37 38  1  1  0  0  0
 37 34  1  0  0  0  0
 37 35  1  0  0  0  0
 39 31  1  6  0  0  0
 39 40  1  0  0  0  0
 42 43  1  0  0  0  0
 43 44  1  0  0  0  0
 45 43  2  0  0  0  0
M  END
>  <MODEL>
8

>  <REMARK>
 VINA RESULT:      -8.1      3.574      4.864
  Name = 
  8 active torsions:
  status: ('A' for Active; 'I' for Inactive)
    1  A    between atoms: C_1  and  C_28
    2  A    between atoms: S_9  and  C_17
    3  A    between atoms: S_9  and  C_39
    4  A    between atoms: C_12  and  N_18
    5  A    between atoms: C_17  and  N_33
    6  A    between atoms: C_19  and  N_26
    7  A    between atoms: N_22  and  C_23
    8  A    between atoms: C_23  and  C_36
                            x       y       z     vdW  Elec       q    Type
                         _______ _______ _______ _____ _____    ______ ____

>  <TORSDO>
F 8

$$$$
=
 OpenBabel11042411393D

 45 50  0  0  1  0  0  0  0  0999 V2000
  183.7910  177.1980  138.8200 N   0  0  0  0  0  2  0  0  0  0  0  0
  183.8840  177.9340  141.0950 N   0  0  0  0  0  0  0  0  0  0  0  0
  182.1390  175.7510  137.8160 N   0  0  0  0  0  0  0  0  0  0  0  0
  183.4010  177.1300  140.1950 C   0  0  0  0  0  3  0  0  0  0  0  0
  183.3170  176.3110  137.7950 C   0  0  0  0  0  0  0  0  0  0  0  0
  181.5590  180.5440  137.5830 C   0  0  0  0  0  3  0  0  0  0  0  0
  180.0690  179.1960  139.4910 C   0  0  0  0  0  0  0  0  0  0  0  0
  180.5730  178.5240  138.4090 C   0  0  0  0  0  0  0  0  0  0  0  0
  181.0500  176.0450  138.6970 C   0  0  1  0  0  3  0  0  0  0  0  0
  180.3240  180.5500  139.6930 C   0  0  0  0  0  3  0  0  0  0  0  0
  180.8010  175.3980  139.8380 C   0  0  0  0  0  2  0  0  0  0  0  0
  179.4080  177.1560  139.8060 C   0  0  0  0  0  0  0  0  0  0  0  0
  179.4030  178.3190  140.3830 N   0  0  0  0  0  0  0  0  0  0  0  0
  180.0600  177.1330  138.4580 C   0  0  1  0  0  3  0  0  0  0  0  0
  181.0760  181.2280  138.7180 C   0  0  0  0  0  3  0  0  0  0  0  0
  181.3010  179.1740  137.4160 C   0  0  0  0  0  3  0  0  0  0  0  0
  179.7210  175.9920  140.5550 N   0  0  0  0  0  2  0  0  0  0  0  0
  184.7800  179.7540  139.9050 O   0  0  0  0  0  0  0  0  0  0  0  0
  184.8700  178.9550  140.8790 C   0  0  0  0  0  0  0  0  0  0  0  0
  188.0820  177.8020  143.4010 N   0  0  0  0  0  0  0  0  0  0  0  0
  186.7070  177.3680  143.6510 C   0  0  0  0  0  2  0  0  0  0  0  0
  187.2840  178.3490  141.1260 C   0  0  0  0  0  2  0  0  0  0  0  0
  190.2780  177.9250  144.1990 O   0  0  0  0  0  0  0  0  0  0  0  0
  189.0720  177.6260  144.4220 C   0  0  0  0  0  0  0  0  0  0  0  0
  188.7130  177.1380  145.6720 O   0  0  0  0  0  1  0  0  0  0  0  0
  185.7100  178.4180  143.1560 C   0  0  0  0  0  2  0  0  0  0  0  0
  188.4660  178.3420  142.0920 C   0  0  0  0  0  2  0  0  0  0  0  0
  186.0630  179.0030  141.7770 C   0  0  0  0  0  3  0  0  0  0  0  0
  184.4120  175.9380  136.4320 S   0  0  0  0  0  0  0  0  0  0  0  0
  185.7930  176.8930  137.1360 C   0  0  0  0  0  2  0  0  0  0  0  0
  188.2240  176.2340  136.8820 C   0  0  0  0  0  0  0  0  0  0  0  0
  186.9200  176.0180  137.4250 N   0  0  0  0  0  2  0  0  0  0  0  0
  188.4610  177.2440  136.1630 O   0  0  0  0  0  0  0  0  0  0  0  0
  191.2610  176.6480  137.6370 C   0  0  1  0  0  3  0  0  0  0  0  0
  193.2850  175.8900  137.4950 C   0  0  1  0  0  3  0  0  0  0  0  0
  190.0050  174.7610  135.9090 C   0  0  0  0  0  2  0  0  0  0  0  0
  192.0830  175.9470  136.5490 C   0  0  1  0  0  3  0  0  0  0  0  0
  191.4970  174.5930  136.1340 C   0  0  0  0  0  2  0  0  0  0  0  0
  189.3080  175.2520  137.1870 C   0  0  1  0  0  3  0  0  0  0  0  0
  190.2340  175.7690  138.2130 N   0  0  0  0  0  2  0  0  0  0  0  0
  192.4800  176.6420  138.5460 C   0  0  0  0  0  2  0  0  0  0  0  0
  193.5620  174.5370  137.9680 N   0  0  0  0  0  2  0  0  0  0  0  0
  194.8880  174.0730  138.2180 C   0  0  0  0  0  0  0  0  0  0  0  0
  195.0640  172.9260  138.7030 O   0  0  0  0  0  1  0  0  0  0  0  0
  195.9860  174.8790  137.9370 O   0  0  0  0  0  0  0  0  0  0  0  0
  1  4  1  0  0  0  0
  4  2  2  0  0  0  0
  5  3  2  0  0  0  0
  5  1  1  0  0  0  0
  6 15  1  0  0  0  0
  7 10  1  0  0  0  0
  7 13  1  0  0  0  0
  8  7  2  0  0  0  0
  9  3  1  1  0  0  0
  9 11  1  0  0  0  0
 11 17  1  0  0  0  0
 12 13  2  0  0  0  0
 12 17  1  0  0  0  0
 14  8  1  1  0  0  0
 14  9  1  0  0  0  0
 14 12  1  0  0  0  0
 15 10  2  0  0  0  0
 16  6  2  0  0  0  0
 16  8  1  0  0  0  0
 18 19  2  0  0  0  0
 19  2  1  0  0  0  0
 19 28  1  0  0  0  0
 20 21  1  0  0  0  0
 20 24  1  0  0  0  0
 22 28  1  0  0  0  0
 22 27  1  0  0  0  0
 23 24  2  0  0  0  0
 24 25  1  0  0  0  0
 26 21  1  0  0  0  0
 27 20  1  0  0  0  0
 28 26  1  0  0  0  0
 29 30  1  0  0  0  0
 29  5  1  0  0  0  0
 30 32  1  0  0  0  0
 31 32  1  0  0  0  0
 33 31  2  0  0  0  0
 34 40  1  0  0  0  0
 34 41  1  1  0  0  0
 35 42  1  1  0  0  0
 35 41  1  0  0  0  0
 36 38  1  0  0  0  0
 36 39  1  0  0  0  0
 37 38  1  1  0  0  0
 37 35  1  0  0  0  0
 37 34  1  0  0  0  0
 39 31  1  6  0  0  0
 39 40  1  0  0  0  0
 42 43  1  0  0  0  0
 43 44  1  0  0  0  0
 45 43  2  0  0  0  0
M  END
>  <MODEL>
9

>  <REMARK>
 VINA RESULT:      -8.1      3.633      5.526
  Name = 
  8 active torsions:
  status: ('A' for Active; 'I' for Inactive)
    1  A    between atoms: C_1  and  C_28
    2  A    between atoms: S_9  and  C_17
    3  A    between atoms: S_9  and  C_39
    4  A    between atoms: C_12  and  N_18
    5  A    between atoms: C_17  and  N_33
    6  A    between atoms: C_19  and  N_26
    7  A    between atoms: N_22  and  C_23
    8  A    between atoms: C_23  and  C_36
                            x       y       z     vdW  Elec       q    Type
                         _______ _______ _______ _____ _____    ______ ____

>  <TORSDO>
F 8

$$$$
