=
 OpenBabel11042412543D

 43 45  0  0  1  0  0  0  0  0999 V2000
  186.4100  174.1900  137.2170 O   0  0  0  0  0  0  0  0  0  0  0  0
  187.0490  176.4620  136.7220 C   0  0  0  0  0  2  0  0  0  0  0  0
  183.4910  171.8230  137.0120 C   0  0  0  0  0  2  0  0  0  0  0  0
  185.2240  173.6500  136.6390 C   0  0  2  0  0  0  0  0  0  0  0  0
  183.9350  175.3220  138.0570 C   0  0  0  0  0  2  0  0  0  0  0  0
  183.5580  176.7910  137.9520 C   0  0  0  0  0  2  0  0  0  0  0  0
  182.7490  174.0940  136.2640 C   0  0  0  0  0  0  0  0  0  0  0  0
  186.1970  177.6800  134.7270 C   0  0  0  0  0  1  0  0  0  0  0  0
  187.1210  175.0030  136.3020 C   0  0  1  0  0  3  0  0  0  0  0  0
  185.8330  177.1240  136.0890 C   0  0  2  0  0  3  0  0  0  0  0  0
  185.4480  173.1280  135.2060 C   0  0  0  0  0  1  0  0  0  0  0  0
  185.3110  178.1970  136.9320 N   0  0  0  0  0  2  0  0  0  0  0  0
  184.0770  174.6850  136.6710 C   0  0  2  0  0  3  0  0  0  0  0  0
  184.7990  177.6470  138.1870 C   0  0  1  0  0  3  0  0  0  0  0  0
  184.7890  172.4700  137.5100 C   0  0  0  0  0  2  0  0  0  0  0  0
  182.4410  172.7970  136.5210 C   0  0  0  0  0  0  0  0  0  0  0  0
  180.8720  171.8780  134.9890 O   0  0  0  0  0  0  0  0  0  0  0  0
  181.1150  172.2200  136.1770 C   0  0  0  0  0  0  0  0  0  0  0  0
  180.0630  171.9990  137.1850 C   0  0  0  0  0  3  0  0  0  0  0  0
  179.4620  172.9880  137.8350 C   0  0  0  0  0  2  0  0  0  0  0  0
  180.9710  175.7840  135.2540 C   0  0  0  0  0  3  0  0  0  0  0  0
  181.7780  175.0130  135.7110 C   0  0  0  0  0  0  0  0  0  0  0  0
  188.5800  174.5840  136.2850 C   0  0  0  0  0  2  0  0  0  0  0  0
  189.4690  175.7280  136.7370 C   0  0  0  0  0  2  0  0  0  0  0  0
  190.8180  174.0240  137.7010 O   0  0  0  0  0  0  0  0  0  0  0  0
  190.4680  175.2340  137.7250 C   0  0  0  0  0  0  0  0  0  0  0  0
  190.5780  176.2530  139.8590 O   0  0  0  0  0  0  0  0  0  0  0  0
  192.1390  176.9080  138.3620 F   0  0  0  0  0  0  0  0  0  0  0  0
  191.0620  176.1550  138.7010 C   0  0  0  0  0  0  0  0  0  0  0  0
  184.4750  178.7920  139.1330 C   0  0  0  0  0  2  0  0  0  0  0  0
  182.5180  178.7160  140.6730 C   0  0  0  0  0  1  0  0  0  0  0  0
  183.9560  178.2720  140.4640 C   0  0  2  0  0  3  0  0  0  0  0  0
  184.8250  178.8220  141.5790 C   0  0  0  0  0  2  0  0  0  0  0  0
  185.0790  177.8180  142.5330 O   0  0  0  0  0  0  0  0  0  0  0  0
  186.3580  178.0120  143.1080 C   0  0  1  0  0  3  0  0  0  0  0  0
  187.7510  176.8360  144.6260 O   0  0  0  0  0  0  0  0  0  0  0  0
  186.4920  177.4510  144.5180 C   0  0  1  0  0  3  0  0  0  0  0  0
  187.4850  177.3910  142.3210 C   0  0  2  0  0  3  0  0  0  0  0  0
  186.3820  178.5740  145.5290 C   0  0  0  0  0  1  0  0  0  0  0  0
  188.0430  176.3870  143.3290 C   0  0  1  0  0  3  0  0  0  0  0  0
  189.5260  176.0770  143.1820 C   0  0  0  0  0  1  0  0  0  0  0  0
  188.4660  178.4990  141.9530 C   0  0  0  0  0  2  0  0  0  0  0  0
  188.4500  178.7100  140.5750 O   0  0  0  0  0  1  0  0  0  0  0  0
  3 15  1  0  0  0  0
  4 11  1  6  0  0  0
  4 13  1  0  0  0  0
  4  1  1  0  0  0  0
  4 15  1  0  0  0  0
  6  5  1  0  0  0  0
  6 14  1  0  0  0  0
  7 16  2  0  0  0  0
  7 13  1  0  0  0  0
  9 23  1  1  0  0  0
  9  2  1  0  0  0  0
  9  1  1  0  0  0  0
 10  8  1  6  0  0  0
 10  2  1  0  0  0  0
 10 12  1  0  0  0  0
 12 14  1  0  0  0  0
 13  5  1  1  0  0  0
 14 30  1  1  0  0  0
 16  3  1  0  0  0  0
 17 18  2  0  0  0  0
 18 16  1  0  0  0  0
 18 19  1  0  0  0  0
 19 20  2  0  0  0  0
 21 22  3  0  0  0  0
 22  7  1  0  0  0  0
 23 24  1  0  0  0  0
 24 26  1  0  0  0  0
 25 26  2  0  0  0  0
 26 29  1  0  0  0  0
 28 29  1  0  0  0  0
 29 27  2  0  0  0  0
 30 32  1  0  0  0  0
 32 31  1  1  0  0  0
 32 33  1  0  0  0  0
 33 34  1  0  0  0  0
 35 34  1  6  0  0  0
 35 37  1  0  0  0  0
 37 36  1  0  0  0  0
 37 39  1  1  0  0  0
 38 42  1  1  0  0  0
 38 35  1  0  0  0  0
 38 40  1  0  0  0  0
 40 41  1  1  0  0  0
 40 36  1  0  0  0  0
 43 42  1  0  0  0  0
M  END
>  <MODEL>
1

>  <REMARK>
 VINA RESULT:      -6.3      0.000      0.000
  Name = 
  13 active torsions:
  status: ('A' for Active; 'I' for Inactive)
    1  A    between atoms: C_2  and  C_23
    2  A    between atoms: C_2  and  O_28
    3  A    between atoms: C_3  and  C_42
    4  A    between atoms: C_5  and  O_28
    5  A    between atoms: C_6  and  C_18
    6  A    between atoms: C_13  and  C_21
    7  A    between atoms: C_19  and  C_34
    8  A    between atoms: C_23  and  C_32
    9  A    between atoms: C_25  and  C_26
   10  A    between atoms: C_25  and  C_33
   11  A    between atoms: C_32  and  C_39
   12  A    between atoms: C_33  and  C_34
   13  A    between atoms: C_41  and  C_42
                            x       y       z     vdW  Elec       q    Type
                         _______ _______ _______ _____ _____    ______ ____

>  <TORSDO>
F 13

$$$$
=
 OpenBabel11042412543D

 43 45  0  0  1  0  0  0  0  0999 V2000
  181.4920  179.3950  137.0200 O   0  0  0  0  0  0  0  0  0  0  0  0
  181.2990  180.3980  139.2040 C   0  0  0  0  0  2  0  0  0  0  0  0
  180.9510  176.1500  135.1940 C   0  0  0  0  0  2  0  0  0  0  0  0
  180.8350  178.1590  136.7520 C   0  0  2  0  0  0  0  0  0  0  0  0
  182.4380  177.1020  138.4210 C   0  0  0  0  0  2  0  0  0  0  0  0
  182.5150  176.9640  139.9320 C   0  0  0  0  0  2  0  0  0  0  0  0
  180.4880  175.7980  137.6290 C   0  0  0  0  0  0  0  0  0  0  0  0
  179.4640  179.8150  140.7800 C   0  0  0  0  0  1  0  0  0  0  0  0
  180.6980  180.2540  137.8160 C   0  0  1  0  0  3  0  0  0  0  0  0
  180.7400  179.3240  140.1250 C   0  0  2  0  0  3  0  0  0  0  0  0
  179.3510  178.3460  136.3820 C   0  0  0  0  0  1  0  0  0  0  0  0
  181.7050  178.9480  141.1550 N   0  0  0  0  0  2  0  0  0  0  0  0
  180.9840  177.1880  137.9450 C   0  0  2  0  0  3  0  0  0  0  0  0
  182.8730  178.3160  140.5440 C   0  0  1  0  0  3  0  0  0  0  0  0
  181.5440  177.5160  135.5590 C   0  0  0  0  0  2  0  0  0  0  0  0
  180.5740  175.2820  136.3760 C   0  0  0  0  0  0  0  0  0  0  0  0
  178.9310  173.6590  135.8120 O   0  0  0  0  0  0  0  0  0  0  0  0
  180.1420  173.8940  136.0650 C   0  0  0  0  0  0  0  0  0  0  0  0
  181.0870  172.7650  136.0110 C   0  0  0  0  0  3  0  0  0  0  0  0
  182.2100  172.7240  136.7170 C   0  0  0  0  0  2  0  0  0  0  0  0
  179.6660  174.3410  139.6870 C   0  0  0  0  0  3  0  0  0  0  0  0
  180.0430  175.0020  138.7520 C   0  0  0  0  0  0  0  0  0  0  0  0
  180.6470  181.6300  137.1740 C   0  0  0  0  0  2  0  0  0  0  0  0
  179.8000  182.5750  138.0070 C   0  0  0  0  0  2  0  0  0  0  0  0
  179.2080  184.8740  137.8720 O   0  0  0  0  0  0  0  0  0  0  0  0
  180.0530  183.9830  137.5900 C   0  0  0  0  0  0  0  0  0  0  0  0
  182.3100  184.6940  137.5230 O   0  0  0  0  0  0  0  0  0  0  0  0
  181.3400  184.2720  135.5270 F   0  0  0  0  0  0  0  0  0  0  0  0
  181.2890  184.3340  136.8810 C   0  0  0  0  0  0  0  0  0  0  0  0
  183.9530  178.1440  141.6000 C   0  0  0  0  0  2  0  0  0  0  0  0
  185.5550  178.7790  139.8000 C   0  0  0  0  0  1  0  0  0  0  0  0
  185.1850  178.9680  141.2620 C   0  0  2  0  0  3  0  0  0  0  0  0
  186.3360  178.5150  142.1400 C   0  0  0  0  0  2  0  0  0  0  0  0
  187.5620  178.7620  141.4950 O   0  0  0  0  0  0  0  0  0  0  0  0
  188.5260  177.8120  141.9120 C   0  0  1  0  0  3  0  0  0  0  0  0
  190.8930  177.7020  142.0080 O   0  0  0  0  0  0  0  0  0  0  0  0
  189.8220  177.8550  141.1130 C   0  0  1  0  0  3  0  0  0  0  0  0
  188.9410  177.9540  143.3560 C   0  0  2  0  0  3  0  0  0  0  0  0
  189.8370  176.7300  140.0980 C   0  0  0  0  0  1  0  0  0  0  0  0
  190.4340  178.2510  143.2160 C   0  0  1  0  0  3  0  0  0  0  0  0
  191.2970  177.7960  144.3830 C   0  0  0  0  0  1  0  0  0  0  0  0
  188.6430  176.6360  144.0620 C   0  0  0  0  0  2  0  0  0  0  0  0
  188.3460  175.6490  143.1220 O   0  0  0  0  0  1  0  0  0  0  0  0
  1  9  1  0  0  0  0
  2 10  1  0  0  0  0
  3 15  1  0  0  0  0
  3 16  1  0  0  0  0
  4 11  1  6  0  0  0
  4  1  1  0  0  0  0
  4 13  1  0  0  0  0
  5  6  1  0  0  0  0
  6 14  1  0  0  0  0
  7 13  1  0  0  0  0
  7 22  1  0  0  0  0
  9 23  1  6  0  0  0
  9  2  1  0  0  0  0
 10  8  1  1  0  0  0
 10 12  1  0  0  0  0
 13  5  1  6  0  0  0
 14 12  1  0  0  0  0
 14 30  1  1  0  0  0
 15  4  1  0  0  0  0
 16  7  2  0  0  0  0
 17 18  2  0  0  0  0
 18 16  1  0  0  0  0
 19 18  1  0  0  0  0
 19 20  2  0  0  0  0
 22 21  3  0  0  0  0
 23 24  1  0  0  0  0
 26 25  2  0  0  0  0
 26 24  1  0  0  0  0
 28 29  1  0  0  0  0
 29 27  2  0  0  0  0
 29 26  1  0  0  0  0
 32 31  1  6  0  0  0
 32 30  1  0  0  0  0
 32 33  1  0  0  0  0
 34 33  1  0  0  0  0
 35 34  1  6  0  0  0
 35 38  1  0  0  0  0
 36 40  1  0  0  0  0
 37 39  1  6  0  0  0
 37 35  1  0  0  0  0
 37 36  1  0  0  0  0
 38 42  1  1  0  0  0
 40 38  1  0  0  0  0
 40 41  1  1  0  0  0
 43 42  1  0  0  0  0
M  END
>  <MODEL>
2

>  <REMARK>
 VINA RESULT:      -6.2      4.104      6.786
  Name = 
  13 active torsions:
  status: ('A' for Active; 'I' for Inactive)
    1  A    between atoms: C_2  and  C_23
    2  A    between atoms: C_2  and  O_28
    3  A    between atoms: C_3  and  C_42
    4  A    between atoms: C_5  and  O_28
    5  A    between atoms: C_6  and  C_18
    6  A    between atoms: C_13  and  C_21
    7  A    between atoms: C_19  and  C_34
    8  A    between atoms: C_23  and  C_32
    9  A    between atoms: C_25  and  C_26
   10  A    between atoms: C_25  and  C_33
   11  A    between atoms: C_32  and  C_39
   12  A    between atoms: C_33  and  C_34
   13  A    between atoms: C_41  and  C_42
                            x       y       z     vdW  Elec       q    Type
                         _______ _______ _______ _____ _____    ______ ____

>  <TORSDO>
F 13

$$$$
=
 OpenBabel11042412543D

 43 45  0  0  1  0  0  0  0  0999 V2000
  184.3650  175.9010  137.6450 O   0  0  0  0  0  0  0  0  0  0  0  0
  186.5790  176.8520  137.5710 C   0  0  0  0  0  2  0  0  0  0  0  0
  180.7450  176.8520  138.0320 C   0  0  0  0  0  2  0  0  0  0  0  0
  183.2290  176.7480  137.4880 C   0  0  2  0  0  0  0  0  0  0  0  0
  183.8780  177.8020  139.7100 C   0  0  0  0  0  2  0  0  0  0  0  0
  184.8570  178.8660  140.1750 C   0  0  0  0  0  2  0  0  0  0  0  0
  182.1570  178.9020  138.3090 C   0  0  0  0  0  0  0  0  0  0  0  0
  187.0450  179.0610  136.5240 C   0  0  0  0  0  1  0  0  0  0  0  0
  185.4220  176.2680  136.7790 C   0  0  1  0  0  3  0  0  0  0  0  0
  186.4070  178.3580  137.7060 C   0  0  2  0  0  3  0  0  0  0  0  0
  182.9050  177.0340  136.0080 C   0  0  0  0  0  1  0  0  0  0  0  0
  186.9970  178.8540  138.9470 N   0  0  0  0  0  2  0  0  0  0  0  0
  183.4140  178.0650  138.2740 C   0  0  2  0  0  3  0  0  0  0  0  0
  186.2770  178.3120  140.0980 C   0  0  1  0  0  3  0  0  0  0  0  0
  182.0310  176.0210  138.1030 C   0  0  0  0  0  2  0  0  0  0  0  0
  180.9240  178.3310  138.3060 C   0  0  0  0  0  0  0  0  0  0  0  0
  179.2130  179.6860  137.3650 O   0  0  0  0  0  0  0  0  0  0  0  0
  179.6820  179.1410  138.4000 C   0  0  0  0  0  0  0  0  0  0  0  0
  178.9450  179.3150  139.6630 C   0  0  0  0  0  3  0  0  0  0  0  0
  179.5360  179.6050  140.8150 C   0  0  0  0  0  2  0  0  0  0  0  0
  182.4850  181.5130  138.6340 C   0  0  0  0  0  3  0  0  0  0  0  0
  182.3360  180.3260  138.4820 C   0  0  0  0  0  0  0  0  0  0  0  0
  185.9210  175.0360  136.0440 C   0  0  0  0  0  2  0  0  0  0  0  0
  187.1220  174.4400  136.7570 C   0  0  0  0  0  2  0  0  0  0  0  0
  187.8040  172.2880  137.5030 O   0  0  0  0  0  0  0  0  0  0  0  0
  186.8610  173.0100  137.0800 C   0  0  0  0  0  0  0  0  0  0  0  0
  184.6820  172.5380  137.8750 O   0  0  0  0  0  0  0  0  0  0  0  0
  185.1500  171.8380  135.7780 F   0  0  0  0  0  0  0  0  0  0  0  0
  185.5120  172.4510  136.9320 C   0  0  0  0  0  0  0  0  0  0  0  0
  187.0430  178.6530  141.3670 C   0  0  0  0  0  2  0  0  0  0  0  0
  185.9460  178.1150  143.5380 C   0  0  0  0  0  1  0  0  0  0  0  0
  186.8420  177.5860  142.4310 C   0  0  2  0  0  3  0  0  0  0  0  0
  188.1920  177.2070  143.0080 C   0  0  0  0  0  2  0  0  0  0  0  0
  188.0300  176.6460  144.2890 O   0  0  0  0  0  0  0  0  0  0  0  0
  188.8810  177.3000  145.2130 C   0  0  1  0  0  3  0  0  0  0  0  0
  189.5680  176.9480  147.4550 O   0  0  0  0  0  0  0  0  0  0  0  0
  188.4300  177.1750  146.6620 C   0  0  1  0  0  3  0  0  0  0  0  0
  190.3060  176.8040  145.1910 C   0  0  2  0  0  3  0  0  0  0  0  0
  187.7470  178.4530  147.0990 C   0  0  0  0  0  1  0  0  0  0  0  0
  190.4630  176.2690  146.6140 C   0  0  1  0  0  3  0  0  0  0  0  0
  191.8780  176.3180  147.1720 C   0  0  0  0  0  1  0  0  0  0  0  0
  191.2110  177.9910  144.8800 C   0  0  0  0  0  2  0  0  0  0  0  0
  190.4550  179.0450  144.3690 O   0  0  0  0  0  1  0  0  0  0  0  0
  2 10  1  0  0  0  0
  3 15  1  0  0  0  0
  3 16  1  0  0  0  0
  4 11  1  6  0  0  0
  4  1  1  0  0  0  0
  4 15  1  0  0  0  0
  4 13  1  0  0  0  0
  5  6  1  0  0  0  0
  7 22  1  0  0  0  0
  9 23  1  1  0  0  0
  9  2  1  0  0  0  0
  9  1  1  0  0  0  0
 10  8  1  6  0  0  0
 10 12  1  0  0  0  0
 12 14  1  0  0  0  0
 13  7  1  0  0  0  0
 13  5  1  1  0  0  0
 14  6  1  0  0  0  0
 14 30  1  1  0  0  0
 16  7  2  0  0  0  0
 16 18  1  0  0  0  0
 17 18  2  0  0  0  0
 18 19  1  0  0  0  0
 19 20  2  0  0  0  0
 22 21  3  0  0  0  0
 23 24  1  0  0  0  0
 24 26  1  0  0  0  0
 26 25  2  0  0  0  0
 28 29  1  0  0  0  0
 29 26  1  0  0  0  0
 29 27  2  0  0  0  0
 30 32  1  0  0  0  0
 32 33  1  0  0  0  0
 32 31  1  1  0  0  0
 33 34  1  0  0  0  0
 35 34  1  6  0  0  0
 35 37  1  0  0  0  0
 37 39  1  1  0  0  0
 37 36  1  0  0  0  0
 38 42  1  1  0  0  0
 38 35  1  0  0  0  0
 38 40  1  0  0  0  0
 40 41  1  1  0  0  0
 40 36  1  0  0  0  0
 43 42  1  0  0  0  0
M  END
>  <MODEL>
3

>  <REMARK>
 VINA RESULT:      -5.7      2.961      4.754
  Name = 
  13 active torsions:
  status: ('A' for Active; 'I' for Inactive)
    1  A    between atoms: C_2  and  C_23
    2  A    between atoms: C_2  and  O_28
    3  A    between atoms: C_3  and  C_42
    4  A    between atoms: C_5  and  O_28
    5  A    between atoms: C_6  and  C_18
    6  A    between atoms: C_13  and  C_21
    7  A    between atoms: C_19  and  C_34
    8  A    between atoms: C_23  and  C_32
    9  A    between atoms: C_25  and  C_26
   10  A    between atoms: C_25  and  C_33
   11  A    between atoms: C_32  and  C_39
   12  A    between atoms: C_33  and  C_34
   13  A    between atoms: C_41  and  C_42
                            x       y       z     vdW  Elec       q    Type
                         _______ _______ _______ _____ _____    ______ ____

>  <TORSDO>
F 13

$$$$
=
 OpenBabel11042412543D

 43 45  0  0  1  0  0  0  0  0999 V2000
  186.2830  179.1280  144.9660 O   0  0  0  0  0  0  0  0  0  0  0  0
  188.0760  177.6270  144.3780 C   0  0  0  0  0  2  0  0  0  0  0  0
  182.7850  180.0960  143.9710 C   0  0  0  0  0  2  0  0  0  0  0  0
  184.9700  178.8880  144.4650 C   0  0  2  0  0  0  0  0  0  0  0  0
  185.9060  179.3950  142.1540 C   0  0  0  0  0  2  0  0  0  0  0  0
  186.6700  178.6280  141.0880 C   0  0  0  0  0  2  0  0  0  0  0  0
  183.6490  178.3950  142.3490 C   0  0  0  0  0  0  0  0  0  0  0  0
  187.6620  175.3100  143.5700 C   0  0  0  0  0  1  0  0  0  0  0  0
  186.9360  177.9280  145.3360 C   0  0  1  0  0  3  0  0  0  0  0  0
  187.5690  176.7820  143.2180 C   0  0  2  0  0  3  0  0  0  0  0  0
  184.1950  177.8560  145.3070 C   0  0  0  0  0  1  0  0  0  0  0  0
  188.3270  177.0420  141.9970 N   0  0  0  0  0  2  0  0  0  0  0  0
  185.0190  178.4580  142.9810 C   0  0  2  0  0  3  0  0  0  0  0  0
  188.1080  178.4180  141.5520 C   0  0  1  0  0  3  0  0  0  0  0  0
  184.2100  180.2140  144.5240 C   0  0  0  0  0  2  0  0  0  0  0  0
  182.6490  179.2290  142.7370 C   0  0  0  0  0  0  0  0  0  0  0  0
  181.2000  179.6100  140.8910 O   0  0  0  0  0  0  0  0  0  0  0  0
  181.3150  179.2160  142.0820 C   0  0  0  0  0  0  0  0  0  0  0  0
  180.1050  178.7270  142.7650 C   0  0  0  0  0  3  0  0  0  0  0  0
  180.1260  178.1650  143.9670 C   0  0  0  0  0  2  0  0  0  0  0  0
  183.3700  176.7550  140.2840 C   0  0  0  0  0  3  0  0  0  0  0  0
  183.4990  177.4980  141.2250 C   0  0  0  0  0  0  0  0  0  0  0  0
  187.5140  178.0800  146.7320 C   0  0  0  0  0  2  0  0  0  0  0  0
  188.3750  176.8810  147.0850 C   0  0  0  0  0  2  0  0  0  0  0  0
  189.7190  178.2700  148.4700 O   0  0  0  0  0  0  0  0  0  0  0  0
  189.6870  177.3400  147.6210 C   0  0  0  0  0  0  0  0  0  0  0  0
  191.6560  177.2400  146.3100 O   0  0  0  0  0  0  0  0  0  0  0  0
  191.3090  175.5080  147.7180 F   0  0  0  0  0  0  0  0  0  0  0  0
  190.9310  176.6950  147.1830 C   0  0  0  0  0  0  0  0  0  0  0  0
  189.0760  178.7330  140.4220 C   0  0  0  0  0  2  0  0  0  0  0  0
  191.2410  177.5030  140.5190 C   0  0  0  0  0  1  0  0  0  0  0  0
  189.8210  177.4850  139.9760 C   0  0  2  0  0  3  0  0  0  0  0  0
  189.8560  177.4480  138.4610 C   0  0  0  0  0  2  0  0  0  0  0  0
  189.0790  176.3750  137.9850 O   0  0  0  0  0  0  0  0  0  0  0  0
  188.1050  176.8510  137.0750 C   0  0  1  0  0  3  0  0  0  0  0  0
  186.8790  175.9550  135.2530 O   0  0  0  0  0  0  0  0  0  0  0  0
  188.1880  176.2150  135.6930 C   0  0  1  0  0  3  0  0  0  0  0  0
  186.6830  176.6360  137.5310 C   0  0  2  0  0  3  0  0  0  0  0  0
  188.8740  177.1640  134.7320 C   0  0  0  0  0  1  0  0  0  0  0  0
  186.1430  175.7270  136.4260 C   0  0  1  0  0  3  0  0  0  0  0  0
  184.6490  175.8450  136.1630 C   0  0  0  0  0  1  0  0  0  0  0  0
  185.9990  177.9970  137.5930 C   0  0  0  0  0  2  0  0  0  0  0  0
  186.9160  179.0050  137.2970 O   0  0  0  0  0  1  0  0  0  0  0  0
  1  9  1  0  0  0  0
  2  9  1  0  0  0  0
  3 15  1  0  0  0  0
  4 15  1  0  0  0  0
  4  1  1  0  0  0  0
  4 11  1  1  0  0  0
  6 14  1  0  0  0  0
  6  5  1  0  0  0  0
  7 16  2  0  0  0  0
  7 13  1  0  0  0  0
  9 23  1  1  0  0  0
 10  8  1  1  0  0  0
 10  2  1  0  0  0  0
 12 10  1  0  0  0  0
 13  5  1  6  0  0  0
 13  4  1  0  0  0  0
 14 30  1  6  0  0  0
 14 12  1  0  0  0  0
 16  3  1  0  0  0  0
 17 18  2  0  0  0  0
 18 16  1  0  0  0  0
 18 19  1  0  0  0  0
 19 20  2  0  0  0  0
 21 22  3  0  0  0  0
 22  7  1  0  0  0  0
 23 24  1  0  0  0  0
 24 26  1  0  0  0  0
 26 25  2  0  0  0  0
 27 29  2  0  0  0  0
 29 26  1  0  0  0  0
 29 28  1  0  0  0  0
 32 30  1  0  0  0  0
 32 31  1  1  0  0  0
 33 32  1  0  0  0  0
 34 33  1  0  0  0  0
 35 38  1  0  0  0  0
 35 34  1  1  0  0  0
 36 37  1  0  0  0  0
 36 40  1  0  0  0  0
 37 39  1  6  0  0  0
 37 35  1  0  0  0  0
 38 42  1  6  0  0  0
 40 41  1  6  0  0  0
 40 38  1  0  0  0  0
 43 42  1  0  0  0  0
M  END
>  <MODEL>
4

>  <REMARK>
 VINA RESULT:      -5.5      3.337      8.257
  Name = 
  13 active torsions:
  status: ('A' for Active; 'I' for Inactive)
    1  A    between atoms: C_2  and  C_23
    2  A    between atoms: C_2  and  O_28
    3  A    between atoms: C_3  and  C_42
    4  A    between atoms: C_5  and  O_28
    5  A    between atoms: C_6  and  C_18
    6  A    between atoms: C_13  and  C_21
    7  A    between atoms: C_19  and  C_34
    8  A    between atoms: C_23  and  C_32
    9  A    between atoms: C_25  and  C_26
   10  A    between atoms: C_25  and  C_33
   11  A    between atoms: C_32  and  C_39
   12  A    between atoms: C_33  and  C_34
   13  A    between atoms: C_41  and  C_42
                            x       y       z     vdW  Elec       q    Type
                         _______ _______ _______ _____ _____    ______ ____

>  <TORSDO>
F 13

$$$$
=
 OpenBabel11042412543D

 43 45  0  0  1  0  0  0  0  0999 V2000
  181.8810  178.2850  137.0310 O   0  0  0  0  0  0  0  0  0  0  0  0
  183.5340  179.2170  138.5180 C   0  0  0  0  0  2  0  0  0  0  0  0
  180.7790  175.0300  135.4970 C   0  0  0  0  0  2  0  0  0  0  0  0
  181.6720  176.8740  137.0060 C   0  0  2  0  0  0  0  0  0  0  0  0
  184.0200  176.6800  136.0480 C   0  0  0  0  0  2  0  0  0  0  0  0
  185.4340  176.6630  136.6040 C   0  0  0  0  0  2  0  0  0  0  0  0
  182.8630  174.6350  136.8280 C   0  0  0  0  0  0  0  0  0  0  0  0
  184.3760  177.9900  140.5120 C   0  0  0  0  0  1  0  0  0  0  0  0
  182.0940  178.7640  138.3450 C   0  0  1  0  0  3  0  0  0  0  0  0
  184.3900  178.0540  138.9980 C   0  0  2  0  0  3  0  0  0  0  0  0
  180.7290  176.3960  138.1290 C   0  0  0  0  0  1  0  0  0  0  0  0
  185.7660  178.1740  138.5260 N   0  0  0  0  0  2  0  0  0  0  0  0
  183.0180  176.1190  137.0620 C   0  0  2  0  0  3  0  0  0  0  0  0
  185.8100  178.0670  137.0680 C   0  0  1  0  0  3  0  0  0  0  0  0
  181.0210  176.5340  135.6640 C   0  0  0  0  0  2  0  0  0  0  0  0
  181.8910  174.1430  136.0170 C   0  0  0  0  0  0  0  0  0  0  0  0
  182.5500  172.1430  134.9140 O   0  0  0  0  0  0  0  0  0  0  0  0
  181.7640  172.6900  135.7330 C   0  0  0  0  0  0  0  0  0  0  0  0
  180.7630  171.8390  136.3990 C   0  0  0  0  0  3  0  0  0  0  0  0
  180.4930  171.9150  137.6960 C   0  0  0  0  0  2  0  0  0  0  0  0
  184.7320  173.0770  137.8810 C   0  0  0  0  0  3  0  0  0  0  0  0
  183.8790  173.7820  137.4030 C   0  0  0  0  0  0  0  0  0  0  0  0
  181.1860  179.9550  138.6000 C   0  0  0  0  0  2  0  0  0  0  0  0
  181.9550  181.2540  138.4450 C   0  0  0  0  0  2  0  0  0  0  0  0
  179.8310  182.3230  138.4820 O   0  0  0  0  0  0  0  0  0  0  0  0
  181.0220  182.3540  138.0710 C   0  0  0  0  0  0  0  0  0  0  0  0
  182.4040  184.2360  137.6820 O   0  0  0  0  0  0  0  0  0  0  0  0
  180.9500  183.7110  136.0350 F   0  0  0  0  0  0  0  0  0  0  0  0
  181.4930  183.4790  137.2550 C   0  0  0  0  0  0  0  0  0  0  0  0
  187.2080  178.4220  136.5870 C   0  0  0  0  0  2  0  0  0  0  0  0
  189.1050  179.7220  137.5450 C   0  0  0  0  0  1  0  0  0  0  0  0
  188.1760  178.5380  137.7540 C   0  0  2  0  0  3  0  0  0  0  0  0
  188.9900  177.2630  137.8470 C   0  0  0  0  0  2  0  0  0  0  0  0
  188.7140  176.6000  139.0580 O   0  0  0  0  0  0  0  0  0  0  0  0
  189.3290  177.2860  140.1340 C   0  0  1  0  0  3  0  0  0  0  0  0
  189.1680  177.2570  142.4990 O   0  0  0  0  0  0  0  0  0  0  0  0
  188.4170  177.4920  141.3360 C   0  0  1  0  0  3  0  0  0  0  0  0
  190.5580  176.5990  140.6750 C   0  0  2  0  0  3  0  0  0  0  0  0
  187.8910  178.9120  141.3440 C   0  0  0  0  0  1  0  0  0  0  0  0
  190.1380  176.3170  142.1170 C   0  0  1  0  0  3  0  0  0  0  0  0
  191.2760  176.2680  143.1260 C   0  0  0  0  0  1  0  0  0  0  0  0
  191.7280  177.5700  140.5570 C   0  0  0  0  0  2  0  0  0  0  0  0
  192.6110  177.1340  139.5710 O   0  0  0  0  0  1  0  0  0  0  0  0
  1  9  1  0  0  0  0
  2 10  1  0  0  0  0
  3 15  1  0  0  0  0
  3 16  1  0  0  0  0
  4  1  1  0  0  0  0
  4 13  1  0  0  0  0
  4 11  1  1  0  0  0
  5  6  1  0  0  0  0
  6 14  1  0  0  0  0
  7 13  1  0  0  0  0
  7 22  1  0  0  0  0
  9  2  1  0  0  0  0
  9 23  1  6  0  0  0
 10  8  1  1  0  0  0
 12 10  1  0  0  0  0
 13  5  1  6  0  0  0
 14 30  1  1  0  0  0
 14 12  1  0  0  0  0
 15  4  1  0  0  0  0
 16  7  2  0  0  0  0
 17 18  2  0  0  0  0
 18 16  1  0  0  0  0
 18 19  1  0  0  0  0
 19 20  2  0  0  0  0
 22 21  3  0  0  0  0
 24 23  1  0  0  0  0
 26 24  1  0  0  0  0
 26 25  2  0  0  0  0
 28 29  1  0  0  0  0
 29 27  2  0  0  0  0
 29 26  1  0  0  0  0
 30 32  1  0  0  0  0
 32 31  1  6  0  0  0
 32 33  1  0  0  0  0
 33 34  1  0  0  0  0
 35 34  1  6  0  0  0
 35 38  1  0  0  0  0
 35 37  1  0  0  0  0
 37 39  1  1  0  0  0
 37 36  1  0  0  0  0
 38 42  1  1  0  0  0
 38 40  1  0  0  0  0
 40 36  1  0  0  0  0
 40 41  1  1  0  0  0
 43 42  1  0  0  0  0
M  END
>  <MODEL>
5

>  <REMARK>
 VINA RESULT:      -5.5      3.525      6.052
  Name = 
  13 active torsions:
  status: ('A' for Active; 'I' for Inactive)
    1  A    between atoms: C_2  and  C_23
    2  A    between atoms: C_2  and  O_28
    3  A    between atoms: C_3  and  C_42
    4  A    between atoms: C_5  and  O_28
    5  A    between atoms: C_6  and  C_18
    6  A    between atoms: C_13  and  C_21
    7  A    between atoms: C_19  and  C_34
    8  A    between atoms: C_23  and  C_32
    9  A    between atoms: C_25  and  C_26
   10  A    between atoms: C_25  and  C_33
   11  A    between atoms: C_32  and  C_39
   12  A    between atoms: C_33  and  C_34
   13  A    between atoms: C_41  and  C_42
                            x       y       z     vdW  Elec       q    Type
                         _______ _______ _______ _____ _____    ______ ____

>  <TORSDO>
F 13

$$$$
=
 OpenBabel11042412543D

 43 45  0  0  1  0  0  0  0  0999 V2000
  185.9280  174.8320  137.5810 O   0  0  0  0  0  0  0  0  0  0  0  0
  187.2650  176.8240  137.8250 C   0  0  0  0  0  2  0  0  0  0  0  0
  182.4870  173.6800  136.5840 C   0  0  0  0  0  2  0  0  0  0  0  0
  184.7140  174.8860  136.8350 C   0  0  2  0  0  0  0  0  0  0  0  0
  183.8160  176.4060  138.6660 C   0  0  0  0  0  2  0  0  0  0  0  0
  183.9060  177.8840  139.0070 C   0  0  0  0  0  2  0  0  0  0  0  0
  182.5450  176.1830  136.5520 C   0  0  0  0  0  0  0  0  0  0  0  0
  187.0600  178.7630  136.2800 C   0  0  0  0  0  1  0  0  0  0  0  0
  186.9520  175.6010  136.9790 C   0  0  1  0  0  3  0  0  0  0  0  0
  186.3860  177.9900  137.3960 C   0  0  2  0  0  3  0  0  0  0  0  0
  184.9450  174.7490  135.3170 C   0  0  0  0  0  1  0  0  0  0  0  0
  186.1070  178.8870  138.5140 N   0  0  0  0  0  2  0  0  0  0  0  0
  183.9300  176.1780  137.1550 C   0  0  2  0  0  3  0  0  0  0  0  0
  185.3070  178.1960  139.5260 C   0  0  1  0  0  3  0  0  0  0  0  0
  183.8470  173.7100  137.2900 C   0  0  0  0  0  2  0  0  0  0  0  0
  181.8390  175.0350  136.3900 C   0  0  0  0  0  0  0  0  0  0  0  0
  180.2680  175.0200  134.6050 O   0  0  0  0  0  0  0  0  0  0  0  0
  180.4530  175.0330  135.8510 C   0  0  0  0  0  0  0  0  0  0  0  0
  179.2660  175.0170  136.7240 C   0  0  0  0  0  3  0  0  0  0  0  0
  179.3090  175.3290  138.0130 C   0  0  0  0  0  2  0  0  0  0  0  0
  181.4860  178.5630  136.0570 C   0  0  0  0  0  3  0  0  0  0  0  0
  181.9640  177.4800  136.2840 C   0  0  0  0  0  0  0  0  0  0  0  0
  188.2130  174.7610  136.8710 C   0  0  0  0  0  2  0  0  0  0  0  0
  189.4110  175.5280  137.4030 C   0  0  0  0  0  2  0  0  0  0  0  0
  191.0030  173.7700  137.5820 O   0  0  0  0  0  0  0  0  0  0  0  0
  190.6710  174.8400  137.0040 C   0  0  0  0  0  0  0  0  0  0  0  0
  191.0910  176.3540  135.2330 O   0  0  0  0  0  0  0  0  0  0  0  0
  192.7260  174.8570  135.6730 F   0  0  0  0  0  0  0  0  0  0  0  0
  191.5040  175.3880  135.9270 C   0  0  0  0  0  0  0  0  0  0  0  0
  185.2240  179.0670  140.7700 C   0  0  0  0  0  2  0  0  0  0  0  0
  184.8210  178.8810  143.2210 C   0  0  0  0  0  1  0  0  0  0  0  0
  185.5190  178.2590  142.0240 C   0  0  2  0  0  3  0  0  0  0  0  0
  187.0170  178.2440  142.2580 C   0  0  0  0  0  2  0  0  0  0  0  0
  187.3470  177.2640  143.2140 O   0  0  0  0  0  0  0  0  0  0  0  0
  188.7540  177.1780  143.3510 C   0  0  1  0  0  3  0  0  0  0  0  0
  190.6350  178.2990  142.4410 O   0  0  0  0  0  0  0  0  0  0  0  0
  189.5200  177.5250  142.0800 C   0  0  1  0  0  3  0  0  0  0  0  0
  189.3210  178.0780  144.4200 C   0  0  2  0  0  3  0  0  0  0  0  0
  189.9770  176.2550  141.3940 C   0  0  0  0  0  1  0  0  0  0  0  0
  190.2380  178.9850  143.5990 C   0  0  1  0  0  3  0  0  0  0  0  0
  191.4440  179.5360  144.3460 C   0  0  0  0  0  1  0  0  0  0  0  0
  190.0650  177.2040  145.4230 C   0  0  0  0  0  2  0  0  0  0  0  0
  189.1850  176.7550  146.4070 O   0  0  0  0  0  1  0  0  0  0  0  0
  3 15  1  0  0  0  0
  4 11  1  6  0  0  0
  4 13  1  0  0  0  0
  4 15  1  0  0  0  0
  4  1  1  0  0  0  0
  5  6  1  0  0  0  0
  6 14  1  0  0  0  0
  7 13  1  0  0  0  0
  9 23  1  1  0  0  0
  9  1  1  0  0  0  0
  9  2  1  0  0  0  0
 10  8  1  6  0  0  0
 10  2  1  0  0  0  0
 10 12  1  0  0  0  0
 12 14  1  0  0  0  0
 13  5  1  1  0  0  0
 14 30  1  1  0  0  0
 16  7  2  0  0  0  0
 16  3  1  0  0  0  0
 17 18  2  0  0  0  0
 18 16  1  0  0  0  0
 18 19  1  0  0  0  0
 19 20  2  0  0  0  0
 21 22  3  0  0  0  0
 22  7  1  0  0  0  0
 23 24  1  0  0  0  0
 26 24  1  0  0  0  0
 26 25  2  0  0  0  0
 27 29  2  0  0  0  0
 28 29  1  0  0  0  0
 29 26  1  0  0  0  0
 30 32  1  0  0  0  0
 32 33  1  0  0  0  0
 32 31  1  1  0  0  0
 33 34  1  0  0  0  0
 35 34  1  6  0  0  0
 35 38  1  0  0  0  0
 36 40  1  0  0  0  0
 37 39  1  1  0  0  0
 37 36  1  0  0  0  0
 37 35  1  0  0  0  0
 38 42  1  1  0  0  0
 40 41  1  1  0  0  0
 40 38  1  0  0  0  0
 42 43  1  0  0  0  0
M  END
>  <MODEL>
6

>  <REMARK>
 VINA RESULT:      -5.3      1.889      2.782
  Name = 
  13 active torsions:
  status: ('A' for Active; 'I' for Inactive)
    1  A    between atoms: C_2  and  C_23
    2  A    between atoms: C_2  and  O_28
    3  A    between atoms: C_3  and  C_42
    4  A    between atoms: C_5  and  O_28
    5  A    between atoms: C_6  and  C_18
    6  A    between atoms: C_13  and  C_21
    7  A    between atoms: C_19  and  C_34
    8  A    between atoms: C_23  and  C_32
    9  A    between atoms: C_25  and  C_26
   10  A    between atoms: C_25  and  C_33
   11  A    between atoms: C_32  and  C_39
   12  A    between atoms: C_33  and  C_34
   13  A    between atoms: C_41  and  C_42
                            x       y       z     vdW  Elec       q    Type
                         _______ _______ _______ _____ _____    ______ ____

>  <TORSDO>
F 13

$$$$
=
 OpenBabel11042412543D

 43 45  0  0  1  0  0  0  0  0999 V2000
  186.3650  174.7490  137.4560 O   0  0  0  0  0  0  0  0  0  0  0  0
  187.5390  176.8500  137.5930 C   0  0  0  0  0  2  0  0  0  0  0  0
  183.0010  173.2870  136.6120 C   0  0  0  0  0  2  0  0  0  0  0  0
  185.1280  174.6780  136.7500 C   0  0  2  0  0  0  0  0  0  0  0  0
  184.1640  176.1820  138.5610 C   0  0  0  0  0  2  0  0  0  0  0  0
  184.1430  177.6730  138.8530 C   0  0  0  0  0  2  0  0  0  0  0  0
  182.8520  175.7840  136.4990 C   0  0  0  0  0  0  0  0  0  0  0  0
  187.1270  178.7130  135.9960 C   0  0  0  0  0  1  0  0  0  0  0  0
  187.3030  175.5780  136.7960 C   0  0  1  0  0  3  0  0  0  0  0  0
  186.5540  177.9250  137.1580 C   0  0  2  0  0  3  0  0  0  0  0  0
  185.3230  174.5090  135.2300 C   0  0  0  0  0  1  0  0  0  0  0  0
  186.2360  178.8340  138.2550 N   0  0  0  0  0  2  0  0  0  0  0  0
  184.2500  175.9130  137.0550 C   0  0  2  0  0  3  0  0  0  0  0  0
  185.5280  178.1150  139.3140 C   0  0  1  0  0  3  0  0  0  0  0  0
  184.3760  173.4520  137.2700 C   0  0  0  0  0  2  0  0  0  0  0  0
  182.2380  174.5770  136.3970 C   0  0  0  0  0  0  0  0  0  0  0  0
  180.6180  174.3900  134.6670 O   0  0  0  0  0  0  0  0  0  0  0  0
  180.8410  174.4440  135.9060 C   0  0  0  0  0  0  0  0  0  0  0  0
  179.6890  174.3430  136.8170 C   0  0  0  0  0  3  0  0  0  0  0  0
  179.5200  173.3350  137.6650 C   0  0  0  0  0  2  0  0  0  0  0  0
  181.5730  178.0450  135.9690 C   0  0  0  0  0  3  0  0  0  0  0  0
  182.1580  177.0190  136.2100 C   0  0  0  0  0  0  0  0  0  0  0  0
  188.6250  174.8410  136.6720 C   0  0  0  0  0  2  0  0  0  0  0  0
  189.6650  175.4520  137.5940 C   0  0  0  0  0  2  0  0  0  0  0  0
  190.7840  176.1930  135.6310 O   0  0  0  0  0  0  0  0  0  0  0  0
  190.8920  175.7900  136.8200 C   0  0  0  0  0  0  0  0  0  0  0  0
  192.8580  176.7190  137.7550 O   0  0  0  0  0  0  0  0  0  0  0  0
  192.7540  174.4630  137.6960 F   0  0  0  0  0  0  0  0  0  0  0  0
  192.2150  175.6820  137.4460 C   0  0  0  0  0  0  0  0  0  0  0  0
  185.4120  179.0180  140.5330 C   0  0  0  0  0  2  0  0  0  0  0  0
  187.7440  178.1560  140.7050 C   0  0  0  0  0  1  0  0  0  0  0  0
  186.6220  178.8690  141.4420 C   0  0  2  0  0  3  0  0  0  0  0  0
  186.2230  178.0620  142.6630 C   0  0  0  0  0  2  0  0  0  0  0  0
  187.2920  177.2420  143.0700 O   0  0  0  0  0  0  0  0  0  0  0  0
  187.9560  177.8270  144.1750 C   0  0  1  0  0  3  0  0  0  0  0  0
  188.4690  177.1880  146.4000 O   0  0  0  0  0  0  0  0  0  0  0  0
  187.3920  177.4080  145.5270 C   0  0  1  0  0  3  0  0  0  0  0  0
  189.4300  177.5140  144.2410 C   0  0  2  0  0  3  0  0  0  0  0  0
  186.5030  178.5050  146.0750 C   0  0  0  0  0  1  0  0  0  0  0  0
  189.5240  176.7700  145.5730 C   0  0  1  0  0  3  0  0  0  0  0  0
  190.8600  176.8920  146.2910 C   0  0  0  0  0  1  0  0  0  0  0  0
  190.1910  178.8350  144.2230 C   0  0  0  0  0  2  0  0  0  0  0  0
  191.3570  178.7020  143.4700 O   0  0  0  0  0  1  0  0  0  0  0  0
  3 15  1  0  0  0  0
  4 11  1  6  0  0  0
  4 13  1  0  0  0  0
  4 15  1  0  0  0  0
  4  1  1  0  0  0  0
  5  6  1  0  0  0  0
  6 14  1  0  0  0  0
  7 13  1  0  0  0  0
  9 23  1  1  0  0  0
  9  1  1  0  0  0  0
  9  2  1  0  0  0  0
 10  8  1  6  0  0  0
 10  2  1  0  0  0  0
 10 12  1  0  0  0  0
 12 14  1  0  0  0  0
 13  5  1  1  0  0  0
 14 30  1  1  0  0  0
 16  7  2  0  0  0  0
 16  3  1  0  0  0  0
 17 18  2  0  0  0  0
 18 16  1  0  0  0  0
 18 19  1  0  0  0  0
 19 20  2  0  0  0  0
 21 22  3  0  0  0  0
 22  7  1  0  0  0  0
 23 24  1  0  0  0  0
 25 26  2  0  0  0  0
 26 29  1  0  0  0  0
 26 24  1  0  0  0  0
 29 28  1  0  0  0  0
 29 27  2  0  0  0  0
 30 32  1  0  0  0  0
 32 31  1  6  0  0  0
 32 33  1  0  0  0  0
 33 34  1  0  0  0  0
 35 34  1  6  0  0  0
 35 38  1  0  0  0  0
 35 37  1  0  0  0  0
 37 39  1  1  0  0  0
 37 36  1  0  0  0  0
 38 42  1  1  0  0  0
 38 40  1  0  0  0  0
 40 41  1  1  0  0  0
 40 36  1  0  0  0  0
 43 42  1  0  0  0  0
M  END
>  <MODEL>
7

>  <REMARK>
 VINA RESULT:      -5.2      1.805      2.154
  Name = 
  13 active torsions:
  status: ('A' for Active; 'I' for Inactive)
    1  A    between atoms: C_2  and  C_23
    2  A    between atoms: C_2  and  O_28
    3  A    between atoms: C_3  and  C_42
    4  A    between atoms: C_5  and  O_28
    5  A    between atoms: C_6  and  C_18
    6  A    between atoms: C_13  and  C_21
    7  A    between atoms: C_19  and  C_34
    8  A    between atoms: C_23  and  C_32
    9  A    between atoms: C_25  and  C_26
   10  A    between atoms: C_25  and  C_33
   11  A    between atoms: C_32  and  C_39
   12  A    between atoms: C_33  and  C_34
   13  A    between atoms: C_41  and  C_42
                            x       y       z     vdW  Elec       q    Type
                         _______ _______ _______ _____ _____    ______ ____

>  <TORSDO>
F 13

$$$$
=
 OpenBabel11042412543D

 43 45  0  0  1  0  0  0  0  0999 V2000
  181.0840  179.7470  138.4680 O   0  0  0  0  0  0  0  0  0  0  0  0
  181.1570  180.3650  140.7980 C   0  0  0  0  0  2  0  0  0  0  0  0
  180.5330  176.7910  136.2060 C   0  0  0  0  0  2  0  0  0  0  0  0
  180.4980  178.5040  138.0880 C   0  0  2  0  0  0  0  0  0  0  0  0
  182.4280  177.3770  139.3030 C   0  0  0  0  0  2  0  0  0  0  0  0
  182.7550  177.0120  140.7410 C   0  0  0  0  0  2  0  0  0  0  0  0
  180.4930  176.0100  138.5840 C   0  0  0  0  0  0  0  0  0  0  0  0
  179.6500  179.3440  142.4940 C   0  0  0  0  0  1  0  0  0  0  0  0
  180.3580  180.3780  139.5060 C   0  0  1  0  0  3  0  0  0  0  0  0
  180.8430  179.1040  141.5900 C   0  0  2  0  0  3  0  0  0  0  0  0
  178.9640  178.5850  137.9700 C   0  0  0  0  0  1  0  0  0  0  0  0
  181.9870  178.6780  142.3910 N   0  0  0  0  0  2  0  0  0  0  0  0
  180.9150  177.3790  139.0620 C   0  0  2  0  0  3  0  0  0  0  0  0
  183.0920  178.2810  141.5190 C   0  0  1  0  0  3  0  0  0  0  0  0
  181.0600  178.1380  136.7130 C   0  0  0  0  0  2  0  0  0  0  0  0
  180.4210  175.7110  137.2620 C   0  0  0  0  0  0  0  0  0  0  0  0
  178.9310  174.1490  136.2680 O   0  0  0  0  0  0  0  0  0  0  0  0
  180.0630  174.3510  136.7810 C   0  0  0  0  0  0  0  0  0  0  0  0
  180.9990  173.2160  136.8520 C   0  0  0  0  0  3  0  0  0  0  0  0
  180.8390  172.0990  136.1530 C   0  0  0  0  0  2  0  0  0  0  0  0
  180.1320  174.1650  140.4540 C   0  0  0  0  0  3  0  0  0  0  0  0
  180.3000  175.0040  139.6050 C   0  0  0  0  0  0  0  0  0  0  0  0
  180.0900  181.8230  139.1250 C   0  0  0  0  0  2  0  0  0  0  0  0
  181.0780  182.2880  138.0690 C   0  0  0  0  0  2  0  0  0  0  0  0
  179.2220  183.2270  136.9170 O   0  0  0  0  0  0  0  0  0  0  0  0
  180.4450  183.3220  137.2040 C   0  0  0  0  0  0  0  0  0  0  0  0
  181.0010  184.9490  135.5760 O   0  0  0  0  0  0  0  0  0  0  0  0
  182.2180  184.9890  137.4790 F   0  0  0  0  0  0  0  0  0  0  0  0
  181.2330  184.4580  136.7120 C   0  0  0  0  0  0  0  0  0  0  0  0
  184.3360  178.0620  142.3650 C   0  0  0  0  0  2  0  0  0  0  0  0
  184.6820  180.1150  143.7350 C   0  0  0  0  0  1  0  0  0  0  0  0
  184.1760  178.6820  143.7450 C   0  0  2  0  0  3  0  0  0  0  0  0
  184.9730  177.8670  144.7450 C   0  0  0  0  0  2  0  0  0  0  0  0
  186.2860  177.6750  144.2740 O   0  0  0  0  0  0  0  0  0  0  0  0
  187.2160  178.1210  145.2440 C   0  0  1  0  0  3  0  0  0  0  0  0
  187.7920  177.5250  147.4660 O   0  0  0  0  0  0  0  0  0  0  0  0
  186.7240  177.9860  146.6800 C   0  0  1  0  0  3  0  0  0  0  0  0
  188.5390  177.3960  145.2040 C   0  0  2  0  0  3  0  0  0  0  0  0
  186.2550  179.3330  147.1890 C   0  0  0  0  0  1  0  0  0  0  0  0
  188.5780  176.7570  146.5930 C   0  0  1  0  0  3  0  0  0  0  0  0
  189.9700  176.5360  147.1650 C   0  0  0  0  0  1  0  0  0  0  0  0
  189.6350  178.4300  144.9750 C   0  0  0  0  0  2  0  0  0  0  0  0
  190.0210  178.4260  143.6350 O   0  0  0  0  0  1  0  0  0  0  0  0
  1  9  1  0  0  0  0
  2 10  1  0  0  0  0
  3 15  1  0  0  0  0
  3 16  1  0  0  0  0
  4 11  1  6  0  0  0
  4  1  1  0  0  0  0
  4 13  1  0  0  0  0
  5  6  1  0  0  0  0
  6 14  1  0  0  0  0
  7 13  1  0  0  0  0
  7 22  1  0  0  0  0
  9 23  1  6  0  0  0
  9  2  1  0  0  0  0
 10 12  1  0  0  0  0
 10  8  1  1  0  0  0
 13  5  1  6  0  0  0
 14 30  1  1  0  0  0
 14 12  1  0  0  0  0
 15  4  1  0  0  0  0
 16  7  2  0  0  0  0
 17 18  2  0  0  0  0
 18 19  1  0  0  0  0
 18 16  1  0  0  0  0
 20 19  2  0  0  0  0
 22 21  3  0  0  0  0
 24 23  1  0  0  0  0
 25 26  2  0  0  0  0
 26 24  1  0  0  0  0
 27 29  2  0  0  0  0
 29 26  1  0  0  0  0
 29 28  1  0  0  0  0
 30 32  1  0  0  0  0
 32 31  1  6  0  0  0
 32 33  1  0  0  0  0
 34 33  1  0  0  0  0
 35 34  1  6  0  0  0
 35 37  1  0  0  0  0
 37 39  1  1  0  0  0
 37 36  1  0  0  0  0
 38 42  1  1  0  0  0
 38 35  1  0  0  0  0
 38 40  1  0  0  0  0
 40 41  1  1  0  0  0
 40 36  1  0  0  0  0
 43 42  1  0  0  0  0
M  END
>  <MODEL>
8

>  <REMARK>
 VINA RESULT:      -5.1      4.498      6.935
  Name = 
  13 active torsions:
  status: ('A' for Active; 'I' for Inactive)
    1  A    between atoms: C_2  and  C_23
    2  A    between atoms: C_2  and  O_28
    3  A    between atoms: C_3  and  C_42
    4  A    between atoms: C_5  and  O_28
    5  A    between atoms: C_6  and  C_18
    6  A    between atoms: C_13  and  C_21
    7  A    between atoms: C_19  and  C_34
    8  A    between atoms: C_23  and  C_32
    9  A    between atoms: C_25  and  C_26
   10  A    between atoms: C_25  and  C_33
   11  A    between atoms: C_32  and  C_39
   12  A    between atoms: C_33  and  C_34
   13  A    between atoms: C_41  and  C_42
                            x       y       z     vdW  Elec       q    Type
                         _______ _______ _______ _____ _____    ______ ____

>  <TORSDO>
F 13

$$$$
=
 OpenBabel11042412543D

 43 45  0  0  1  0  0  0  0  0999 V2000
  182.0390  178.1470  136.5900 O   0  0  0  0  0  0  0  0  0  0  0  0
  183.3480  179.1950  138.3220 C   0  0  0  0  0  2  0  0  0  0  0  0
  181.4450  174.8220  134.9310 C   0  0  0  0  0  2  0  0  0  0  0  0
  181.9380  176.7250  136.5470 C   0  0  2  0  0  0  0  0  0  0  0  0
  184.4220  176.7000  135.9990 C   0  0  0  0  0  2  0  0  0  0  0  0
  185.7200  176.7850  136.7840 C   0  0  0  0  0  2  0  0  0  0  0  0
  183.2970  174.5770  136.5980 C   0  0  0  0  0  0  0  0  0  0  0  0
  183.9280  178.0310  140.4430 C   0  0  0  0  0  1  0  0  0  0  0  0
  181.9940  178.6400  137.9160 C   0  0  1  0  0  3  0  0  0  0  0  0
  184.1920  178.0960  138.9520 C   0  0  2  0  0  3  0  0  0  0  0  0
  180.8570  176.1800  137.5010 C   0  0  0  0  0  1  0  0  0  0  0  0
  185.6160  178.3150  138.7170 N   0  0  0  0  0  2  0  0  0  0  0  0
  183.3060  176.0680  136.8370 C   0  0  2  0  0  3  0  0  0  0  0  0
  185.9120  178.2120  137.2880 C   0  0  1  0  0  3  0  0  0  0  0  0
  181.5480  176.3400  135.1190 C   0  0  0  0  0  2  0  0  0  0  0  0
  182.5140  174.0170  135.6410 C   0  0  0  0  0  0  0  0  0  0  0  0
  183.4370  172.0830  134.6120 O   0  0  0  0  0  0  0  0  0  0  0  0
  182.5400  172.5580  135.3570 C   0  0  0  0  0  0  0  0  0  0  0  0
  181.5640  171.6220  135.9420 C   0  0  0  0  0  3  0  0  0  0  0  0
  181.1330  171.7100  137.1930 C   0  0  0  0  0  2  0  0  0  0  0  0
  185.0680  173.1510  137.9620 C   0  0  0  0  0  3  0  0  0  0  0  0
  184.2610  173.8000  137.3450 C   0  0  0  0  0  0  0  0  0  0  0  0
  180.9740  179.7620  138.0000 C   0  0  0  0  0  2  0  0  0  0  0  0
  181.6470  181.0660  138.3900 C   0  0  0  0  0  2  0  0  0  0  0  0
  179.6990  182.2730  139.0240 O   0  0  0  0  0  0  0  0  0  0  0  0
  180.6860  182.1950  138.2450 C   0  0  0  0  0  0  0  0  0  0  0  0
  180.8450  184.4450  137.5250 O   0  0  0  0  0  0  0  0  0  0  0  0
  181.1690  182.8670  135.9400 F   0  0  0  0  0  0  0  0  0  0  0  0
  180.9040  183.2240  137.2210 C   0  0  0  0  0  0  0  0  0  0  0  0
  187.3420  178.6660  137.0440 C   0  0  0  0  0  2  0  0  0  0  0  0
  189.0130  178.0160  138.7750 C   0  0  0  0  0  1  0  0  0  0  0  0
  188.3360  177.6010  137.4790 C   0  0  2  0  0  3  0  0  0  0  0  0
  189.3800  177.4300  136.3920 C   0  0  0  0  0  2  0  0  0  0  0  0
  189.1750  176.2150  135.7120 O   0  0  0  0  0  0  0  0  0  0  0  0
  189.8720  175.1710  136.3670 C   0  0  1  0  0  3  0  0  0  0  0  0
  190.6880  173.0240  135.7800 O   0  0  0  0  0  0  0  0  0  0  0  0
  189.5070  173.7780  135.8710 C   0  0  1  0  0  3  0  0  0  0  0  0
  191.3730  175.2630  136.2400 C   0  0  2  0  0  3  0  0  0  0  0  0
  188.5510  173.1210  136.8450 C   0  0  0  0  0  1  0  0  0  0  0  0
  191.6940  173.9620  135.5030 C   0  0  1  0  0  3  0  0  0  0  0  0
  193.0730  173.3820  135.7850 C   0  0  0  0  0  1  0  0  0  0  0  0
  191.9600  175.3310  137.6450 C   0  0  0  0  0  2  0  0  0  0  0  0
  190.9380  175.2680  138.5910 O   0  0  0  0  0  1  0  0  0  0  0  0
  1  9  1  0  0  0  0
  2 10  1  0  0  0  0
  3 15  1  0  0  0  0
  3 16  1  0  0  0  0
  4  1  1  0  0  0  0
  4 13  1  0  0  0  0
  4 11  1  1  0  0  0
  5  6  1  0  0  0  0
  6 14  1  0  0  0  0
  7 13  1  0  0  0  0
  7 22  1  0  0  0  0
  9 23  1  6  0  0  0
  9  2  1  0  0  0  0
 10  8  1  1  0  0  0
 12 10  1  0  0  0  0
 13  5  1  6  0  0  0
 14 30  1  1  0  0  0
 14 12  1  0  0  0  0
 15  4  1  0  0  0  0
 16  7  2  0  0  0  0
 17 18  2  0  0  0  0
 18 16  1  0  0  0  0
 18 19  1  0  0  0  0
 19 20  2  0  0  0  0
 22 21  3  0  0  0  0
 23 24  1  0  0  0  0
 26 24  1  0  0  0  0
 26 25  2  0  0  0  0
 28 29  1  0  0  0  0
 29 27  2  0  0  0  0
 29 26  1  0  0  0  0
 30 32  1  0  0  0  0
 32 31  1  1  0  0  0
 33 32  1  0  0  0  0
 34 33  1  0  0  0  0
 35 34  1  6  0  0  0
 36 37  1  0  0  0  0
 37 35  1  0  0  0  0
 37 39  1  1  0  0  0
 38 35  1  0  0  0  0
 38 42  1  1  0  0  0
 40 36  1  0  0  0  0
 40 41  1  1  0  0  0
 40 38  1  0  0  0  0
 42 43  1  0  0  0  0
M  END
>  <MODEL>
9

>  <REMARK>
 VINA RESULT:      -5.0      3.528      7.141
  Name = 
  13 active torsions:
  status: ('A' for Active; 'I' for Inactive)
    1  A    between atoms: C_2  and  C_23
    2  A    between atoms: C_2  and  O_28
    3  A    between atoms: C_3  and  C_42
    4  A    between atoms: C_5  and  O_28
    5  A    between atoms: C_6  and  C_18
    6  A    between atoms: C_13  and  C_21
    7  A    between atoms: C_19  and  C_34
    8  A    between atoms: C_23  and  C_32
    9  A    between atoms: C_25  and  C_26
   10  A    between atoms: C_25  and  C_33
   11  A    between atoms: C_32  and  C_39
   12  A    between atoms: C_33  and  C_34
   13  A    between atoms: C_41  and  C_42
                            x       y       z     vdW  Elec       q    Type
                         _______ _______ _______ _____ _____    ______ ____

>  <TORSDO>
F 13

$$$$
