=
 OpenBabel11042410373D

 44 47  0  0  1  0  0  0  0  0999 V2000
  182.8730  173.5410  136.1520 O   0  0  0  0  0  1  0  0  0  0  0  0
  183.7920  174.2230  136.8790 N   0  0  0  0  0  0  0  0  0  0  0  0
  182.2800  176.9550  137.0270 C   0  0  1  0  0  3  0  0  0  0  0  0
  185.4770  172.3760  136.5970 C   0  0  0  0  0  1  0  0  0  0  0  0
  188.7200  178.6110  137.9080 C   0  0  0  0  0  0  0  0  0  0  0  0
  181.5020  178.1050  137.6550 C   0  0  0  0  0  2  0  0  0  0  0  0
  186.1610  174.7360  136.7980 C   0  0  0  0  0  0  0  0  0  0  0  0
  185.8950  176.2150  136.8500 C   0  0  0  0  0  2  0  0  0  0  0  0
  185.1680  173.8310  136.7760 C   0  0  0  0  0  0  0  0  0  0  0  0
  185.3330  178.5570  139.2180 C   0  0  0  0  0  0  0  0  0  0  0  0
  187.2970  178.1630  137.7590 C   0  0  2  0  0  3  0  0  0  0  0  0
  186.6850  177.9310  139.1410 C   0  0  0  0  0  2  0  0  0  0  0  0
  182.8980  178.2510  139.7450 C   0  0  2  0  0  3  0  0  0  0  0  0
  185.1920  179.7730  138.9080 O   0  0  0  0  0  0  0  0  0  0  0  0
  182.0520  175.6840  137.8370 C   0  0  0  0  0  2  0  0  0  0  0  0
  188.9780  179.8040  137.9360 O   0  0  0  0  0  0  0  0  0  0  0  0
  188.2930  175.9340  137.1550 C   0  0  0  0  0  0  0  0  0  0  0  0
  183.3520  174.9340  138.0770 C   0  0  0  0  0  2  0  0  0  0  0  0
  187.2370  176.9410  136.8330 C   0  0  1  0  0  3  0  0  0  0  0  0
  187.8920  174.2510  136.7410 S   0  0  0  0  0  0  0  0  0  0  0  0
  189.8310  177.5930  138.0460 C   0  0  2  0  0  3  0  0  0  0  0  0
  184.2430  177.7740  139.6130 O   0  0  0  0  0  0  0  0  0  0  0  0
  182.4020  178.9900  138.5040 C   0  0  0  0  0  2  0  0  0  0  0  0
  189.4190  176.2390  137.7020 N   0  0  0  0  0  0  0  0  0  0  0  0
  181.8730  176.7760  135.5620 C   0  0  0  0  0  2  0  0  0  0  0  0
  180.4220  177.1770  135.3070 C   0  0  0  0  0  2  0  0  0  0  0  0
  179.6240  175.9960  134.8600 C   0  0  0  0  0  3  0  0  0  0  0  0
  179.6030  174.9670  135.5210 O   0  0  0  0  0  0  0  0  0  0  0  0
  190.3950  177.6020  139.4560 C   0  0  0  0  0  2  0  0  0  0  0  0
  189.6930  176.5690  140.3160 C   0  0  0  0  0  2  0  0  0  0  0  0
  188.5750  176.3510  142.9570 S   0  0  0  0  0  0  0  0  0  0  0  0
  189.7190  176.9890  141.7500 C   0  0  1  0  0  3  0  0  0  0  0  0
  189.6660  176.9770  144.2940 C   0  0  1  0  0  3  0  0  0  0  0  0
  191.8390  177.9890  144.2300 O   0  0  0  0  0  1  0  0  0  0  0  0
  190.5600  178.0650  143.6810 C   0  0  1  0  0  3  0  0  0  0  0  0
  190.6450  177.8060  142.2200 C   0  0  0  0  0  2  0  0  0  0  0  0
  188.8750  177.4200  145.4650 N   0  0  0  0  0  0  0  0  0  0  0  0
  187.4750  177.7640  145.2320 C   0  0  0  0  0  1  0  0  0  0  0  0
  189.2890  177.2410  146.8420 C   0  0  0  0  0  0  0  0  0  0  0  0
  190.4900  177.0090  147.1410 O   0  0  0  0  0  0  0  0  0  0  0  0
  188.3060  177.3520  147.9600 C   0  0  0  0  0  1  0  0  0  0  0  0
  182.6540  179.0090  141.0500 C   0  0  0  0  0  2  0  0  0  0  0  0
  184.4080  179.1780  142.7930 C   0  0  0  0  0  1  0  0  0  0  0  0
  183.2690  178.3260  142.2600 C   0  0  0  0  0  2  0  0  0  0  0  0
  1  2  1  0  0  0  0
  2 18  1  0  0  0  0
  3 25  1  6  0  0  0
  3  6  1  0  0  0  0
  3 15  1  0  0  0  0
  4  9  1  0  0  0  0
  5 16  2  0  0  0  0
  5 21  1  0  0  0  0
  6 23  1  0  0  0  0
  7  8  1  0  0  0  0
  9  7  2  0  0  0  0
  9  2  1  0  0  0  0
 10 22  1  0  0  0  0
 11  5  1  0  0  0  0
 11 12  1  1  0  0  0
 12 10  1  0  0  0  0
 13 42  1  1  0  0  0
 14 10  2  0  0  0  0
 15 18  1  0  0  0  0
 17 24  2  0  0  0  0
 19  8  1  1  0  0  0
 19 17  1  0  0  0  0
 19 11  1  0  0  0  0
 20  7  1  0  0  0  0
 20 17  1  0  0  0  0
 21 29  1  1  0  0  0
 22 13  1  0  0  0  0
 23 13  1  0  0  0  0
 24 21  1  0  0  0  0
 26 25  1  0  0  0  0
 27 26  1  0  0  0  0
 27 28  2  0  0  0  0
 29 30  1  0  0  0  0
 31 33  1  0  0  0  0
 32 30  1  1  0  0  0
 32 36  1  0  0  0  0
 32 31  1  0  0  0  0
 33 37  1  1  0  0  0
 35 34  1  1  0  0  0
 35 33  1  0  0  0  0
 36 35  1  0  0  0  0
 37 39  1  0  0  0  0
 38 37  1  0  0  0  0
 39 40  2  0  0  0  0
 39 41  1  0  0  0  0
 42 44  1  0  0  0  0
 44 43  1  0  0  0  0
M  END
>  <MODEL>
1

>  <REMARK>
 VINA RESULT:      -7.4      0.000      0.000
  Name = 
  9 active torsions:
  status: ('A' for Active; 'I' for Inactive)
    1  A    between atoms: N_2  and  C_27
    2  A    between atoms: C_5  and  C_11
    3  A    between atoms: C_10  and  C_17
    4  A    between atoms: C_10  and  C_24
    5  A    between atoms: C_11  and  C_13
    6  A    between atoms: C_13  and  C_14
    7  A    between atoms: C_23  and  C_38
    8  A    between atoms: C_24  and  C_39
    9  A    between atoms: C_34  and  C_38
                            x       y       z     vdW  Elec       q    Type
                         _______ _______ _______ _____ _____    ______ ____

>  <TORSDO>
F 9

$$$$
=
 OpenBabel11042410373D

 44 47  0  0  1  0  0  0  0  0999 V2000
  180.5350  174.2410  137.4290 O   0  0  0  0  0  1  0  0  0  0  0  0
  181.7300  174.7370  137.8330 N   0  0  0  0  0  0  0  0  0  0  0  0
  180.7910  177.6500  138.4690 C   0  0  1  0  0  3  0  0  0  0  0  0
  182.9300  172.6800  137.0230 C   0  0  0  0  0  1  0  0  0  0  0  0
  187.3640  178.2810  137.2830 C   0  0  0  0  0  0  0  0  0  0  0  0
  180.4400  178.8660  139.3170 C   0  0  0  0  0  2  0  0  0  0  0  0
  184.0070  174.8970  137.0130 C   0  0  0  0  0  0  0  0  0  0  0  0
  184.0080  176.3940  137.1560 C   0  0  0  0  0  2  0  0  0  0  0  0
  182.9260  174.1520  137.2990 C   0  0  0  0  0  0  0  0  0  0  0  0
  184.5880  178.6570  139.5950 C   0  0  0  0  0  0  0  0  0  0  0  0
  185.9120  178.0590  137.5880 C   0  0  2  0  0  3  0  0  0  0  0  0
  185.7320  177.8430  139.0910 C   0  0  0  0  0  2  0  0  0  0  0  0
  182.4200  178.6870  140.8610 C   0  0  2  0  0  3  0  0  0  0  0  0
  184.5520  179.8960  139.3530 O   0  0  0  0  0  0  0  0  0  0  0  0
  180.6280  176.3840  139.3010 C   0  0  0  0  0  2  0  0  0  0  0  0
  187.8030  179.4190  137.2360 O   0  0  0  0  0  0  0  0  0  0  0  0
  186.3050  175.7430  136.6860 C   0  0  0  0  0  0  0  0  0  0  0  0
  181.8020  175.4380  139.1130 C   0  0  0  0  0  2  0  0  0  0  0  0
  185.3750  176.9120  136.7210 C   0  0  1  0  0  3  0  0  0  0  0  0
  185.5350  174.1640  136.4090 S   0  0  0  0  0  0  0  0  0  0  0  0
  188.2870  177.1030  137.0570 C   0  0  2  0  0  3  0  0  0  0  0  0
  183.5640  178.0230  140.3080 O   0  0  0  0  0  0  0  0  0  0  0  0
  181.6870  179.5590  139.8450 C   0  0  0  0  0  2  0  0  0  0  0  0
  187.5780  175.8470  136.8520 N   0  0  0  0  0  0  0  0  0  0  0  0
  179.9270  177.6160  137.2050 C   0  0  0  0  0  2  0  0  0  0  0  0
  180.6290  178.2430  136.0020 C   0  0  0  0  0  2  0  0  0  0  0  0
  180.2040  179.6650  135.8320 C   0  0  0  0  0  3  0  0  0  0  0  0
  180.9340  180.5830  136.1790 O   0  0  0  0  0  0  0  0  0  0  0  0
  189.2540  176.9500  138.2180 C   0  0  0  0  0  2  0  0  0  0  0  0
  189.2340  178.1870  139.0950 C   0  0  0  0  0  2  0  0  0  0  0  0
  188.1180  178.2660  141.7440 S   0  0  0  0  0  0  0  0  0  0  0  0
  189.3390  177.8000  140.5340 C   0  0  1  0  0  3  0  0  0  0  0  0
  188.7970  177.0010  142.8890 C   0  0  1  0  0  3  0  0  0  0  0  0
  190.4840  175.3240  142.5850 O   0  0  0  0  0  1  0  0  0  0  0  0
  190.2260  176.6840  142.4220 C   0  0  1  0  0  3  0  0  0  0  0  0
  190.3120  177.0240  140.9770 C   0  0  0  0  0  2  0  0  0  0  0  0
  188.6960  177.4460  144.2970 N   0  0  0  0  0  0  0  0  0  0  0  0
  189.8410  178.1600  144.8550 C   0  0  0  0  0  1  0  0  0  0  0  0
  187.4560  177.5010  145.0470 C   0  0  0  0  0  0  0  0  0  0  0  0
  186.4370  176.8620  144.6770 O   0  0  0  0  0  0  0  0  0  0  0  0
  187.3540  178.3030  146.3020 C   0  0  0  0  0  1  0  0  0  0  0  0
  182.7170  179.3980  142.1810 C   0  0  0  0  0  2  0  0  0  0  0  0
  184.4040  179.5230  143.9930 C   0  0  0  0  0  1  0  0  0  0  0  0
  183.5980  178.5830  143.1130 C   0  0  0  0  0  2  0  0  0  0  0  0
  1  2  1  0  0  0  0
  2 18  1  0  0  0  0
  3 25  1  6  0  0  0
  3 15  1  0  0  0  0
  3  6  1  0  0  0  0
  4  9  1  0  0  0  0
  5 11  1  0  0  0  0
  6 23  1  0  0  0  0
  7  8  1  0  0  0  0
  7  9  2  0  0  0  0
  9  2  1  0  0  0  0
 10 22  1  0  0  0  0
 11 12  1  1  0  0  0
 12 10  1  0  0  0  0
 13 42  1  1  0  0  0
 14 10  2  0  0  0  0
 16  5  2  0  0  0  0
 17 19  1  0  0  0  0
 17 24  2  0  0  0  0
 18 15  1  0  0  0  0
 19  8  1  1  0  0  0
 19 11  1  0  0  0  0
 20 17  1  0  0  0  0
 20  7  1  0  0  0  0
 21  5  1  0  0  0  0
 21 29  1  1  0  0  0
 22 13  1  0  0  0  0
 23 13  1  0  0  0  0
 24 21  1  0  0  0  0
 26 25  1  0  0  0  0
 27 26  1  0  0  0  0
 27 28  2  0  0  0  0
 29 30  1  0  0  0  0
 31 33  1  0  0  0  0
 32 30  1  6  0  0  0
 32 36  1  0  0  0  0
 32 31  1  0  0  0  0
 33 37  1  1  0  0  0
 35 34  1  6  0  0  0
 35 33  1  0  0  0  0
 36 35  1  0  0  0  0
 37 38  1  0  0  0  0
 37 39  1  0  0  0  0
 39 41  1  0  0  0  0
 40 39  2  0  0  0  0
 42 44  1  0  0  0  0
 44 43  1  0  0  0  0
M  END
>  <MODEL>
2

>  <REMARK>
 VINA RESULT:      -7.2      1.855      2.256
  Name = 
  9 active torsions:
  status: ('A' for Active; 'I' for Inactive)
    1  A    between atoms: N_2  and  C_27
    2  A    between atoms: C_5  and  C_11
    3  A    between atoms: C_10  and  C_17
    4  A    between atoms: C_10  and  C_24
    5  A    between atoms: C_11  and  C_13
    6  A    between atoms: C_13  and  C_14
    7  A    between atoms: C_23  and  C_38
    8  A    between atoms: C_24  and  C_39
    9  A    between atoms: C_34  and  C_38
                            x       y       z     vdW  Elec       q    Type
                         _______ _______ _______ _____ _____    ______ ____

>  <TORSDO>
F 9

$$$$
=
 OpenBabel11042410373D

 44 47  0  0  1  0  0  0  0  0999 V2000
  190.0930  178.1360  138.8140 O   0  0  0  0  0  1  0  0  0  0  0  0
  188.7530  178.3280  138.7460 N   0  0  0  0  0  0  0  0  0  0  0  0
  188.0470  177.4650  141.6660 C   0  0  1  0  0  3  0  0  0  0  0  0
  188.8620  178.6500  136.2530 C   0  0  0  0  0  1  0  0  0  0  0  0
  182.3460  176.5050  138.2640 C   0  0  0  0  0  0  0  0  0  0  0  0
  187.6030  177.6210  143.1150 C   0  0  0  0  0  2  0  0  0  0  0  0
  186.8860  177.6610  137.3470 C   0  0  0  0  0  0  0  0  0  0  0  0
  186.1460  177.0850  138.5220 C   0  0  0  0  0  2  0  0  0  0  0  0
  188.1110  178.2010  137.4690 C   0  0  0  0  0  0  0  0  0  0  0  0
  184.0910  178.2040  140.9580 C   0  0  0  0  0  0  0  0  0  0  0  0
  183.6360  176.7940  138.9720 C   0  0  2  0  0  3  0  0  0  0  0  0
  183.5970  178.2090  139.5500 C   0  0  0  0  0  2  0  0  0  0  0  0
  185.6860  179.1800  142.6330 C   0  0  2  0  0  3  0  0  0  0  0  0
  183.5810  177.4070  141.7940 O   0  0  0  0  0  0  0  0  0  0  0  0
  188.6250  178.7840  141.1660 C   0  0  0  0  0  2  0  0  0  0  0  0
  181.4380  175.9540  138.8650 O   0  0  0  0  0  0  0  0  0  0  0  0
  184.5780  177.1100  136.6610 C   0  0  0  0  0  0  0  0  0  0  0  0
  188.1050  179.1310  139.7800 C   0  0  0  0  0  2  0  0  0  0  0  0
  184.8130  176.5370  138.0210 C   0  0  1  0  0  3  0  0  0  0  0  0
  186.0440  177.5630  135.7610 S   0  0  0  0  0  0  0  0  0  0  0  0
  182.1590  176.9120  136.8180 C   0  0  2  0  0  3  0  0  0  0  0  0
  185.1290  179.0710  141.3170 O   0  0  0  0  0  0  0  0  0  0  0  0
  186.1000  177.8320  143.2200 C   0  0  0  0  0  2  0  0  0  0  0  0
  183.4040  177.2810  136.1580 N   0  0  0  0  0  0  0  0  0  0  0  0
  189.0530  176.3180  141.5390 C   0  0  0  0  0  2  0  0  0  0  0  0
  189.6920  175.9530  142.8780 C   0  0  0  0  0  2  0  0  0  0  0  0
  190.9800  176.6870  143.0600 C   0  0  0  0  0  3  0  0  0  0  0  0
  191.2360  177.2520  144.1150 O   0  0  0  0  0  0  0  0  0  0  0  0
  181.1740  178.0630  136.7080 C   0  0  0  0  0  2  0  0  0  0  0  0
  181.8120  179.2450  136.0060 C   0  0  0  0  0  2  0  0  0  0  0  0
  181.2000  181.4510  137.7460 S   0  0  0  0  0  0  0  0  0  0  0  0
  181.0180  180.4850  136.2600 C   0  0  1  0  0  3  0  0  0  0  0  0
  180.3270  182.8420  136.9260 C   0  0  1  0  0  3  0  0  0  0  0  0
  179.5630  183.1310  134.6710 O   0  0  0  0  0  1  0  0  0  0  0  0
  179.5300  182.2520  135.7530 C   0  0  1  0  0  3  0  0  0  0  0  0
  180.1860  180.9770  135.3600 C   0  0  0  0  0  2  0  0  0  0  0  0
  179.5140  183.6090  137.8960 N   0  0  0  0  0  0  0  0  0  0  0  0
  179.0060  182.8860  139.0590 C   0  0  0  0  0  1  0  0  0  0  0  0
  179.4490  185.0560  137.9410 C   0  0  0  0  0  0  0  0  0  0  0  0
  179.8020  185.7590  136.9580 O   0  0  0  0  0  0  0  0  0  0  0  0
  178.9350  185.7640  139.1510 C   0  0  0  0  0  1  0  0  0  0  0  0
  184.8330  180.0270  143.5780 C   0  0  0  0  0  2  0  0  0  0  0  0
  182.9330  178.8840  144.6860 C   0  0  0  0  0  1  0  0  0  0  0  0
  184.3950  179.2730  144.8230 C   0  0  0  0  0  2  0  0  0  0  0  0
  2  1  1  0  0  0  0
  2 18  1  0  0  0  0
  3 25  1  1  0  0  0
  3  6  1  0  0  0  0
  4  9  1  0  0  0  0
  5 16  2  0  0  0  0
  5 11  1  0  0  0  0
  6 23  1  0  0  0  0
  7  9  2  0  0  0  0
  7  8  1  0  0  0  0
  9  2  1  0  0  0  0
 10 22  1  0  0  0  0
 10 14  2  0  0  0  0
 11 12  1  6  0  0  0
 12 10  1  0  0  0  0
 13 23  1  0  0  0  0
 13 42  1  1  0  0  0
 15  3  1  0  0  0  0
 17 19  1  0  0  0  0
 18 15  1  0  0  0  0
 19  8  1  1  0  0  0
 19 11  1  0  0  0  0
 20 17  1  0  0  0  0
 20  7  1  0  0  0  0
 21 29  1  1  0  0  0
 21  5  1  0  0  0  0
 22 13  1  0  0  0  0
 24 17  2  0  0  0  0
 24 21  1  0  0  0  0
 25 26  1  0  0  0  0
 26 27  1  0  0  0  0
 27 28  2  0  0  0  0
 30 29  1  0  0  0  0
 32 30  1  6  0  0  0
 32 31  1  0  0  0  0
 33 31  1  0  0  0  0
 33 37  1  1  0  0  0
 35 34  1  6  0  0  0
 35 33  1  0  0  0  0
 36 35  1  0  0  0  0
 36 32  1  0  0  0  0
 37 39  1  0  0  0  0
 37 38  1  0  0  0  0
 39 41  1  0  0  0  0
 40 39  2  0  0  0  0
 42 44  1  0  0  0  0
 43 44  1  0  0  0  0
M  END
>  <MODEL>
3

>  <REMARK>
 VINA RESULT:      -4.9      3.863      9.277
  Name = 
  9 active torsions:
  status: ('A' for Active; 'I' for Inactive)
    1  A    between atoms: N_2  and  C_27
    2  A    between atoms: C_5  and  C_11
    3  A    between atoms: C_10  and  C_17
    4  A    between atoms: C_10  and  C_24
    5  A    between atoms: C_11  and  C_13
    6  A    between atoms: C_13  and  C_14
    7  A    between atoms: C_23  and  C_38
    8  A    between atoms: C_24  and  C_39
    9  A    between atoms: C_34  and  C_38
                            x       y       z     vdW  Elec       q    Type
                         _______ _______ _______ _____ _____    ______ ____

>  <TORSDO>
F 9

$$$$
=
 OpenBabel11042410373D

 44 47  0  0  1  0  0  0  0  0999 V2000
  180.7140  175.8670  137.2410 O   0  0  0  0  0  1  0  0  0  0  0  0
  182.0230  176.0170  137.5640 N   0  0  0  0  0  0  0  0  0  0  0  0
  181.6980  178.3790  139.5850 C   0  0  1  0  0  3  0  0  0  0  0  0
  182.7220  174.4680  135.7090 C   0  0  0  0  0  1  0  0  0  0  0  0
  188.0380  178.9170  137.4600 C   0  0  0  0  0  0  0  0  0  0  0  0
  181.6860  179.0940  140.9310 C   0  0  0  0  0  2  0  0  0  0  0  0
  184.1490  176.3400  136.4440 C   0  0  0  0  0  0  0  0  0  0  0  0
  184.4270  177.5970  137.2210 C   0  0  0  0  0  2  0  0  0  0  0  0
  183.0100  175.6420  136.5940 C   0  0  0  0  0  0  0  0  0  0  0  0
  185.7330  178.4240  140.2240 C   0  0  0  0  0  0  0  0  0  0  0  0
  186.6300  178.7050  137.9310 C   0  0  2  0  0  3  0  0  0  0  0  0
  186.6350  177.8380  139.1910 C   0  0  0  0  0  2  0  0  0  0  0  0
  183.8100  178.0540  141.7940 C   0  0  2  0  0  3  0  0  0  0  0  0
  185.8740  179.6340  140.5590 O   0  0  0  0  0  0  0  0  0  0  0  0
  181.4440  176.8920  139.7960 C   0  0  0  0  0  2  0  0  0  0  0  0
  188.6530  179.9060  137.8240 O   0  0  0  0  0  0  0  0  0  0  0  0
  186.4860  177.0400  136.0500 C   0  0  0  0  0  0  0  0  0  0  0  0
  182.3990  176.0410  138.9760 C   0  0  0  0  0  2  0  0  0  0  0  0
  185.7840  178.1370  136.7830 C   0  0  1  0  0  3  0  0  0  0  0  0
  185.4250  175.8380  135.2790 S   0  0  0  0  0  0  0  0  0  0  0  0
  188.7030  177.9010  136.5570 C   0  0  2  0  0  3  0  0  0  0  0  0
  184.7320  177.6240  140.7840 O   0  0  0  0  0  0  0  0  0  0  0  0
  183.0970  179.3570  141.4360 C   0  0  0  0  0  2  0  0  0  0  0  0
  187.7690  176.9460  135.9770 N   0  0  0  0  0  0  0  0  0  0  0  0
  180.6650  179.0050  138.6420 C   0  0  0  0  0  2  0  0  0  0  0  0
  181.2460  180.1570  137.8260 C   0  0  0  0  0  2  0  0  0  0  0  0
  180.1910  181.1720  137.5290 C   0  0  0  0  0  3  0  0  0  0  0  0
  179.6270  181.1910  136.4440 O   0  0  0  0  0  0  0  0  0  0  0  0
  189.7890  177.1480  137.3070 C   0  0  0  0  0  2  0  0  0  0  0  0
  189.2400  176.5650  138.5950 C   0  0  0  0  0  2  0  0  0  0  0  0
  189.6730  176.6320  141.4370 S   0  0  0  0  0  0  0  0  0  0  0  0
  190.1320  176.9200  139.7410 C   0  0  1  0  0  3  0  0  0  0  0  0
  191.4260  176.8570  141.9300 C   0  0  1  0  0  3  0  0  0  0  0  0
  193.4180  177.1560  140.6290 O   0  0  0  0  0  1  0  0  0  0  0  0
  192.1210  177.6350  140.8020 C   0  0  1  0  0  3  0  0  0  0  0  0
  191.3480  177.4020  139.5540 C   0  0  0  0  0  2  0  0  0  0  0  0
  191.5280  177.4900  143.2650 N   0  0  0  0  0  0  0  0  0  0  0  0
  191.1350  178.8930  143.3700 C   0  0  0  0  0  1  0  0  0  0  0  0
  191.6860  176.7560  144.5050 C   0  0  0  0  0  0  0  0  0  0  0  0
  192.0860  175.5630  144.5140 O   0  0  0  0  0  0  0  0  0  0  0  0
  191.4010  177.4020  145.8210 C   0  0  0  0  0  1  0  0  0  0  0  0
  184.4130  178.0500  143.1990 C   0  0  0  0  0  2  0  0  0  0  0  0
  184.5490  180.3680  144.0660 C   0  0  0  0  0  1  0  0  0  0  0  0
  183.7700  179.0660  144.1280 C   0  0  0  0  0  2  0  0  0  0  0  0
  1  2  1  0  0  0  0
  2 18  1  0  0  0  0
  3 25  1  6  0  0  0
  3 15  1  0  0  0  0
  3  6  1  0  0  0  0
  4  9  1  0  0  0  0
  5 16  2  0  0  0  0
  5 11  1  0  0  0  0
  6 23  1  0  0  0  0
  7  9  2  0  0  0  0
  7  8  1  0  0  0  0
  9  2  1  0  0  0  0
 10 14  2  0  0  0  0
 10 22  1  0  0  0  0
 11 12  1  1  0  0  0
 12 10  1  0  0  0  0
 13 42  1  1  0  0  0
 17 19  1  0  0  0  0
 18 15  1  0  0  0  0
 19  8  1  1  0  0  0
 19 11  1  0  0  0  0
 20 17  1  0  0  0  0
 20  7  1  0  0  0  0
 21 29  1  1  0  0  0
 21  5  1  0  0  0  0
 22 13  1  0  0  0  0
 23 13  1  0  0  0  0
 24 17  2  0  0  0  0
 24 21  1  0  0  0  0
 26 25  1  0  0  0  0
 27 26  1  0  0  0  0
 28 27  2  0  0  0  0
 29 30  1  0  0  0  0
 31 33  1  0  0  0  0
 32 30  1  6  0  0  0
 32 31  1  0  0  0  0
 33 37  1  1  0  0  0
 35 34  1  6  0  0  0
 35 33  1  0  0  0  0
 36 32  1  0  0  0  0
 36 35  1  0  0  0  0
 37 38  1  0  0  0  0
 37 39  1  0  0  0  0
 39 40  2  0  0  0  0
 39 41  1  0  0  0  0
 42 44  1  0  0  0  0
 43 44  1  0  0  0  0
M  END
>  <MODEL>
4

>  <REMARK>
 VINA RESULT:      -4.5      2.135      2.936
  Name = 
  9 active torsions:
  status: ('A' for Active; 'I' for Inactive)
    1  A    between atoms: N_2  and  C_27
    2  A    between atoms: C_5  and  C_11
    3  A    between atoms: C_10  and  C_17
    4  A    between atoms: C_10  and  C_24
    5  A    between atoms: C_11  and  C_13
    6  A    between atoms: C_13  and  C_14
    7  A    between atoms: C_23  and  C_38
    8  A    between atoms: C_24  and  C_39
    9  A    between atoms: C_34  and  C_38
                            x       y       z     vdW  Elec       q    Type
                         _______ _______ _______ _____ _____    ______ ____

>  <TORSDO>
F 9

$$$$
=
 OpenBabel11042410373D

 44 47  0  0  1  0  0  0  0  0999 V2000
  188.9140  177.0520  145.5160 O   0  0  0  0  0  1  0  0  0  0  0  0
  188.1290  177.0480  144.4110 N   0  0  0  0  0  0  0  0  0  0  0  0
  190.2920  177.9540  142.3440 C   0  0  1  0  0  3  0  0  0  0  0  0
  186.0570  176.7540  145.8080 C   0  0  0  0  0  1  0  0  0  0  0  0
  184.4830  179.7480  139.5100 C   0  0  0  0  0  0  0  0  0  0  0  0
  191.2640  177.8380  141.1770 C   0  0  0  0  0  2  0  0  0  0  0  0
  186.0180  177.9890  143.6740 C   0  0  0  0  0  0  0  0  0  0  0  0
  186.6650  178.6440  142.4860 C   0  0  0  0  0  2  0  0  0  0  0  0
  186.7230  177.2830  144.5750 C   0  0  0  0  0  0  0  0  0  0  0  0
  187.5310  177.7810  139.3370 C   0  0  0  0  0  0  0  0  0  0  0  0
  185.7390  179.2720  140.1770 C   0  0  2  0  0  3  0  0  0  0  0  0
  186.0820  177.8670  139.6800 C   0  0  0  0  0  2  0  0  0  0  0  0
  189.7040  176.5680  139.6640 C   0  0  2  0  0  3  0  0  0  0  0  0
  188.0350  178.6280  138.5470 O   0  0  0  0  0  0  0  0  0  0  0  0
  190.0610  176.5760  142.9530 C   0  0  0  0  0  2  0  0  0  0  0  0
  184.5560  180.4090  138.4870 O   0  0  0  0  0  0  0  0  0  0  0  0
  184.2620  178.8660  142.1730 C   0  0  0  0  0  0  0  0  0  0  0  0
  188.5870  176.3270  143.2260 C   0  0  0  0  0  2  0  0  0  0  0  0
  185.5840  179.3790  141.7000 C   0  0  1  0  0  3  0  0  0  0  0  0
  184.2420  178.2280  143.8330 S   0  0  0  0  0  0  0  0  0  0  0  0
  183.1290  179.3940  140.0870 C   0  0  2  0  0  3  0  0  0  0  0  0
  188.3080  176.7730  139.9180 O   0  0  0  0  0  0  0  0  0  0  0  0
  190.5360  177.8360  139.8410 C   0  0  0  0  0  2  0  0  0  0  0  0
  183.2010  178.8660  141.4430 N   0  0  0  0  0  0  0  0  0  0  0  0
  190.8190  178.9530  143.3780 C   0  0  0  0  0  2  0  0  0  0  0  0
  192.0490  178.4300  144.1180 C   0  0  0  0  0  2  0  0  0  0  0  0
  191.6670  177.9080  145.4640 C   0  0  0  0  0  3  0  0  0  0  0  0
  192.0550  176.8110  145.8440 O   0  0  0  0  0  0  0  0  0  0  0  0
  182.4130  178.3920  139.1970 C   0  0  0  0  0  2  0  0  0  0  0  0
  182.5430  176.9910  139.7610 C   0  0  0  0  0  2  0  0  0  0  0  0
  181.6070  174.6710  138.3420 S   0  0  0  0  0  0  0  0  0  0  0  0
  182.7430  176.0070  138.6540 C   0  0  1  0  0  3  0  0  0  0  0  0
  182.3580  174.4460  136.6820 C   0  0  1  0  0  3  0  0  0  0  0  0
  184.0170  175.7150  135.5020 O   0  0  0  0  0  1  0  0  0  0  0  0
  183.7520  175.0910  136.7200 C   0  0  1  0  0  3  0  0  0  0  0  0
  183.7420  176.1170  137.7960 C   0  0  0  0  0  2  0  0  0  0  0  0
  182.3520  173.0210  136.2820 N   0  0  0  0  0  0  0  0  0  0  0  0
  181.4340  172.6310  135.2150 C   0  0  0  0  0  1  0  0  0  0  0  0
  183.3850  172.0700  136.6410 C   0  0  0  0  0  0  0  0  0  0  0  0
  184.1790  172.2920  137.5930 O   0  0  0  0  0  0  0  0  0  0  0  0
  183.5280  170.7770  135.9080 C   0  0  0  0  0  1  0  0  0  0  0  0
  189.9740  175.8330  138.3510 C   0  0  0  0  0  2  0  0  0  0  0  0
  189.8050  176.7950  136.0740 C   0  0  0  0  0  1  0  0  0  0  0  0
  190.6730  176.6980  137.3160 C   0  0  0  0  0  2  0  0  0  0  0  0
  2  9  1  0  0  0  0
  2  1  1  0  0  0  0
  3 15  1  0  0  0  0
  3 25  1  1  0  0  0
  5 21  1  0  0  0  0
  5 11  1  0  0  0  0
  6  3  1  0  0  0  0
  7 20  1  0  0  0  0
  7  9  2  0  0  0  0
  8  7  1  0  0  0  0
  9  4  1  0  0  0  0
 10 12  1  0  0  0  0
 10 22  1  0  0  0  0
 11 12  1  1  0  0  0
 11 19  1  0  0  0  0
 13 42  1  6  0  0  0
 13 23  1  0  0  0  0
 13 22  1  0  0  0  0
 14 10  2  0  0  0  0
 15 18  1  0  0  0  0
 16  5  2  0  0  0  0
 17 20  1  0  0  0  0
 18  2  1  0  0  0  0
 19 17  1  0  0  0  0
 19  8  1  1  0  0  0
 21 29  1  6  0  0  0
 21 24  1  0  0  0  0
 23  6  1  0  0  0  0
 24 17  2  0  0  0  0
 25 26  1  0  0  0  0
 26 27  1  0  0  0  0
 27 28  2  0  0  0  0
 29 30  1  0  0  0  0
 31 32  1  0  0  0  0
 32 30  1  6  0  0  0
 33 37  1  1  0  0  0
 33 35  1  0  0  0  0
 33 31  1  0  0  0  0
 35 34  1  6  0  0  0
 35 36  1  0  0  0  0
 36 32  1  0  0  0  0
 37 39  1  0  0  0  0
 38 37  1  0  0  0  0
 39 40  2  0  0  0  0
 41 39  1  0  0  0  0
 43 44  1  0  0  0  0
 44 42  1  0  0  0  0
M  END
>  <MODEL>
5

>  <REMARK>
 VINA RESULT:      -4.5      2.511      9.489
  Name = 
  9 active torsions:
  status: ('A' for Active; 'I' for Inactive)
    1  A    between atoms: N_2  and  C_27
    2  A    between atoms: C_5  and  C_11
    3  A    between atoms: C_10  and  C_17
    4  A    between atoms: C_10  and  C_24
    5  A    between atoms: C_11  and  C_13
    6  A    between atoms: C_13  and  C_14
    7  A    between atoms: C_23  and  C_38
    8  A    between atoms: C_24  and  C_39
    9  A    between atoms: C_34  and  C_38
                            x       y       z     vdW  Elec       q    Type
                         _______ _______ _______ _____ _____    ______ ____

>  <TORSDO>
F 9

$$$$
