=
 OpenBabel11042410483D

 31 34  0  0  1  0  0  0  0  0999 V2000
  188.7820  176.9600  141.2130 C   0  0  0  0  0  2  0  0  0  0  0  0
  188.4660  178.3210  141.2040 O   0  0  0  0  0  0  0  0  0  0  0  0
  187.9320  178.5590  139.9330 C   0  0  2  0  0  3  0  0  0  0  0  0
  185.7350  178.1170  138.8970 C   0  0  0  0  0  3  0  0  0  0  0  0
  186.4330  178.5000  139.9730 C   0  0  0  0  0  0  0  0  0  0  0  0
  184.2280  178.0280  138.8650 C   0  0  0  0  0  0  0  0  0  0  0  0
  182.2790  179.4910  138.2250 N   0  0  0  0  0  1  0  0  0  0  0  0
  183.5060  178.4910  140.1600 C   0  0  0  0  0  0  0  0  0  0  0  0
  185.7460  178.9300  141.1950 C   0  0  0  0  0  3  0  0  0  0  0  0
  183.5450  179.3870  138.9290 C   0  0  1  0  0  0  0  0  0  0  0  0
  184.3260  180.5460  138.9950 O   0  0  0  0  0  1  0  0  0  0  0  0
  184.4190  178.9410  141.2780 C   0  0  0  0  0  3  0  0  0  0  0  0
  188.4950  177.5490  138.9410 C   0  0  0  0  0  2  0  0  0  0  0  0
  188.9400  179.5980  137.5880 O   0  0  0  0  0  1  0  0  0  0  0  0
  189.1650  178.2430  137.8010 C   0  0  0  0  0  0  0  0  0  0  0  0
  189.9530  177.6090  137.0520 O   0  0  0  0  0  0  0  0  0  0  0  0
  188.6660  176.4050  142.6260 C   0  0  0  0  0  2  0  0  0  0  0  0
  187.2990  176.7070  143.2260 C   0  0  0  0  0  2  0  0  0  0  0  0
  187.4160  177.7300  144.2490 N   0  0  0  0  0  0  0  0  0  0  0  0
  187.9030  177.0550  145.4630 C   0  0  2  0  0  3  0  0  0  0  0  0
  186.4690  177.3690  145.3140 C   0  0  1  0  0  3  0  0  0  0  0  0
  189.8140  178.6250  145.6510 O   0  0  0  0  0  0  0  0  0  0  0  0
  192.2480  176.0830  146.2220 O   0  0  0  0  0  0  0  0  0  0  0  0
  191.8780  178.2990  144.4970 C   0  0  0  0  0  1  0  0  0  0  0  0
  191.1850  176.7510  146.3230 C   0  0  0  0  0  0  0  0  0  0  0  0
  190.7110  177.6290  145.1970 C   0  0  1  0  0  3  0  0  0  0  0  0
  189.1590  177.4090  147.6500 C   0  0  0  0  0  2  0  0  0  0  0  0
  188.7150  178.0370  146.3280 C   0  0  2  0  0  3  0  0  0  0  0  0
  190.3520  176.5860  147.4700 N   0  0  0  0  0  2  0  0  0  0  0  0
  184.6560  179.0660  145.4250 C   0  0  0  0  0  1  0  0  0  0  0  0
  185.9880  178.6390  146.0070 C   0  0  0  0  0  2  0  0  0  0  0  0
  1 17  1  0  0  0  0
  2  1  1  0  0  0  0
  3 13  1  6  0  0  0
  3  5  1  0  0  0  0
  3  2  1  0  0  0  0
  4  5  1  0  0  0  0
  5  9  2  0  0  0  0
  6  4  2  3  0  0  0
  6 10  1  0  0  0  0
  6  8  1  0  0  0  0
  8 12  2  3  0  0  0
  9 12  1  0  0  0  0
 10  7  1  6  0  0  0
 10 11  1  0  0  0  0
 10  8  1  0  0  0  0
 14 15  1  0  0  0  0
 15 13  1  0  0  0  0
 16 15  2  0  0  0  0
 17 18  1  0  0  0  0
 18 19  1  0  0  0  0
 19 21  1  0  0  0  0
 20 19  1  6  0  0  0
 20 28  1  0  0  0  0
 21 20  1  0  0  0  0
 21 31  1  1  0  0  0
 22 28  1  0  0  0  0
 23 25  2  0  0  0  0
 25 29  1  0  0  0  0
 26 24  1  1  0  0  0
 26 22  1  0  0  0  0
 26 25  1  0  0  0  0
 28 27  1  1  0  0  0
 29 27  1  0  0  0  0
 30 31  1  0  0  0  0
M  END
>  <MODEL>
1

>  <REMARK>
 VINA RESULT:      -7.1      0.000      0.000
  Name = 
  10 active torsions:
  status: ('A' for Active; 'I' for Inactive)
    1  A    between atoms: C_4  and  C_16
    2  A    between atoms: N_5  and  C_31
    3  A    between atoms: O_6  and  C_9
    4  A    between atoms: O_6  and  C_22
    5  A    between atoms: C_8  and  C_25
    6  A    between atoms: C_9  and  C_29
    7  A    between atoms: C_11  and  C_22
    8  A    between atoms: C_16  and  C_22
    9  A    between atoms: C_21  and  C_27
   10  A    between atoms: C_29  and  C_31
                            x       y       z     vdW  Elec       q    Type
                         _______ _______ _______ _____ _____    ______ ____

>  <TORSDO>
F 10

$$$$
=
 OpenBabel11042410483D

 31 34  0  0  1  0  0  0  0  0999 V2000
  186.4420  177.6600  144.1270 C   0  0  0  0  0  2  0  0  0  0  0  0
  186.0830  178.0180  142.8250 O   0  0  0  0  0  0  0  0  0  0  0  0
  184.7110  178.2840  142.8890 C   0  0  2  0  0  3  0  0  0  0  0  0
  182.8510  178.5700  141.2930 C   0  0  0  0  0  3  0  0  0  0  0  0
  184.1690  178.5800  141.5220 C   0  0  0  0  0  0  0  0  0  0  0  0
  182.2320  178.8630  139.9470 C   0  0  0  0  0  0  0  0  0  0  0  0
  181.4660  177.5800  137.9180 N   0  0  0  0  0  1  0  0  0  0  0  0
  183.2390  179.1110  138.7910 C   0  0  0  0  0  0  0  0  0  0  0  0
  185.1150  178.8220  140.4280 C   0  0  0  0  0  3  0  0  0  0  0  0
  182.5060  177.7820  138.9110 C   0  0  1  0  0  0  0  0  0  0  0  0
  183.2560  176.6580  139.2740 O   0  0  0  0  0  1  0  0  0  0  0  0
  184.6980  179.0480  139.1850 C   0  0  0  0  0  3  0  0  0  0  0  0
  184.4570  179.4440  143.8440 C   0  0  0  0  0  2  0  0  0  0  0  0
  182.1740  178.7160  144.5370 O   0  0  0  0  0  0  0  0  0  0  0  0
  183.4720  179.0560  144.8970 C   0  0  0  0  0  0  0  0  0  0  0  0
  183.8250  179.0110  146.1040 O   0  0  0  0  0  1  0  0  0  0  0  0
  187.8900  177.1910  144.1610 C   0  0  0  0  0  2  0  0  0  0  0  0
  188.3170  176.6250  142.8130 C   0  0  0  0  0  2  0  0  0  0  0  0
  189.3700  177.4420  142.2370 N   0  0  0  0  0  0  0  0  0  0  0  0
  190.1530  176.5570  141.3590 C   0  0  2  0  0  3  0  0  0  0  0  0
  190.6430  176.8820  142.7130 C   0  0  1  0  0  3  0  0  0  0  0  0
  189.8330  178.0460  139.4010 O   0  0  0  0  0  0  0  0  0  0  0  0
  189.0490  175.4080  137.1340 O   0  0  0  0  0  0  0  0  0  0  0  0
  187.9450  177.8870  137.9470 C   0  0  0  0  0  1  0  0  0  0  0  0
  189.6450  176.0650  138.0270 C   0  0  0  0  0  0  0  0  0  0  0  0
  188.9290  177.1260  138.8170 C   0  0  1  0  0  3  0  0  0  0  0  0
  191.7250  176.5220  139.3550 C   0  0  0  0  0  2  0  0  0  0  0  0
  190.7800  177.3690  140.2100 C   0  0  2  0  0  3  0  0  0  0  0  0
  190.9840  175.7240  138.3830 N   0  0  0  0  0  2  0  0  0  0  0  0
  191.2720  178.9930  143.8660 C   0  0  0  0  0  1  0  0  0  0  0  0
  191.6790  177.9970  142.7990 C   0  0  0  0  0  2  0  0  0  0  0  0
  1 17  1  0  0  0  0
  2  3  1  0  0  0  0
  2  1  1  0  0  0  0
  3 13  1  1  0  0  0
  4  5  1  0  0  0  0
  5  3  1  0  0  0  0
  6  4  2  3  0  0  0
  8 10  1  0  0  0  0
  8 12  2  3  0  0  0
  8  6  1  0  0  0  0
  9  5  2  0  0  0  0
 10  7  1  6  0  0  0
 10 11  1  0  0  0  0
 10  6  1  0  0  0  0
 12  9  1  0  0  0  0
 13 15  1  0  0  0  0
 14 15  2  0  0  0  0
 15 16  1  0  0  0  0
 18 17  1  0  0  0  0
 19 21  1  0  0  0  0
 19 18  1  0  0  0  0
 20 19  1  1  0  0  0
 20 21  1  0  0  0  0
 21 31  1  6  0  0  0
 22 28  1  0  0  0  0
 23 25  2  0  0  0  0
 25 29  1  0  0  0  0
 25 26  1  0  0  0  0
 26 24  1  6  0  0  0
 26 22  1  0  0  0  0
 28 27  1  6  0  0  0
 28 20  1  0  0  0  0
 29 27  1  0  0  0  0
 31 30  1  0  0  0  0
M  END
>  <MODEL>
2

>  <REMARK>
 VINA RESULT:      -7.0      2.709      5.966
  Name = 
  10 active torsions:
  status: ('A' for Active; 'I' for Inactive)
    1  A    between atoms: C_4  and  C_16
    2  A    between atoms: N_5  and  C_31
    3  A    between atoms: O_6  and  C_9
    4  A    between atoms: O_6  and  C_22
    5  A    between atoms: C_8  and  C_25
    6  A    between atoms: C_9  and  C_29
    7  A    between atoms: C_11  and  C_22
    8  A    between atoms: C_16  and  C_22
    9  A    between atoms: C_21  and  C_27
   10  A    between atoms: C_29  and  C_31
                            x       y       z     vdW  Elec       q    Type
                         _______ _______ _______ _____ _____    ______ ____

>  <TORSDO>
F 10

$$$$
=
 OpenBabel11042410483D

 31 34  0  0  1  0  0  0  0  0999 V2000
  186.9160  177.5110  143.1380 C   0  0  0  0  0  2  0  0  0  0  0  0
  187.3380  176.8170  144.2740 O   0  0  0  0  0  0  0  0  0  0  0  0
  187.3000  177.7590  145.3070 C   0  0  2  0  0  3  0  0  0  0  0  0
  189.7310  177.3840  145.5200 C   0  0  0  0  0  3  0  0  0  0  0  0
  188.5730  177.7210  146.1010 C   0  0  0  0  0  0  0  0  0  0  0  0
  191.0510  177.3290  146.2510 C   0  0  0  0  0  0  0  0  0  0  0  0
  192.4490  175.6210  147.4660 N   0  0  0  0  0  1  0  0  0  0  0  0
  190.9790  177.6200  147.7760 C   0  0  0  0  0  0  0  0  0  0  0  0
  188.5130  178.0000  147.5390 C   0  0  0  0  0  3  0  0  0  0  0  0
  191.1310  176.1950  147.2620 C   0  0  1  0  0  0  0  0  0  0  0  0
  190.0390  175.3310  147.4130 O   0  0  0  0  0  1  0  0  0  0  0  0
  189.5990  177.9410  148.3050 C   0  0  0  0  0  3  0  0  0  0  0  0
  186.0900  177.4990  146.1960 C   0  0  0  0  0  2  0  0  0  0  0  0
  184.1120  178.9120  145.6370 O   0  0  0  0  0  0  0  0  0  0  0  0
  185.2820  178.7420  146.3670 C   0  0  0  0  0  0  0  0  0  0  0  0
  185.6440  179.6220  147.1910 O   0  0  0  0  0  1  0  0  0  0  0  0
  188.1150  178.0940  142.4030 C   0  0  0  0  0  2  0  0  0  0  0  0
  187.7840  178.3700  140.9420 C   0  0  0  0  0  2  0  0  0  0  0  0
  188.9820  178.2660  140.1290 N   0  0  0  0  0  0  0  0  0  0  0  0
  188.9340  176.9440  139.4820 C   0  0  2  0  0  3  0  0  0  0  0  0
  189.7680  177.1530  140.6820 C   0  0  1  0  0  3  0  0  0  0  0  0
  189.0750  177.8260  137.1690 O   0  0  0  0  0  0  0  0  0  0  0  0
  186.7180  175.5200  135.8150 O   0  0  0  0  0  0  0  0  0  0  0  0
  187.1470  178.3190  135.8500 C   0  0  0  0  0  1  0  0  0  0  0  0
  187.7010  175.9670  136.4610 C   0  0  0  0  0  0  0  0  0  0  0  0
  187.7510  177.4050  136.9000 C   0  0  1  0  0  3  0  0  0  0  0  0
  189.9210  175.5830  137.5680 C   0  0  0  0  0  2  0  0  0  0  0  0
  189.6800  176.9830  138.1360 C   0  0  2  0  0  3  0  0  0  0  0  0
  188.7310  175.0770  136.8910 N   0  0  0  0  0  2  0  0  0  0  0  0
  191.9940  177.4590  141.7470 C   0  0  0  0  0  1  0  0  0  0  0  0
  191.2490  177.4140  140.4290 C   0  0  0  0  0  2  0  0  0  0  0  0
  1  2  1  0  0  0  0
  2  3  1  0  0  0  0
  3  5  1  0  0  0  0
  3 13  1  1  0  0  0
  4  5  2  0  0  0  0
  4  6  1  0  0  0  0
  5  9  1  0  0  0  0
  6 10  1  0  0  0  0
  6  8  2  0  0  0  0
  8 12  1  0  0  0  0
  9 12  2  0  0  0  0
 10 11  1  1  0  0  0
 10  7  1  0  0  0  0
 10  8  1  0  0  0  0
 13 15  1  0  0  0  0
 14 15  2  0  0  0  0
 15 16  1  0  0  0  0
 17  1  1  0  0  0  0
 18 17  1  0  0  0  0
 19 21  1  0  0  0  0
 19 18  1  0  0  0  0
 20 19  1  6  0  0  0
 20 21  1  0  0  0  0
 21 31  1  6  0  0  0
 22 28  1  0  0  0  0
 23 25  2  0  0  0  0
 25 29  1  0  0  0  0
 25 26  1  0  0  0  0
 26 24  1  6  0  0  0
 26 22  1  0  0  0  0
 28 27  1  6  0  0  0
 28 20  1  0  0  0  0
 29 27  1  0  0  0  0
 31 30  1  0  0  0  0
M  END
>  <MODEL>
3

>  <REMARK>
 VINA RESULT:      -7.0      2.839      8.702
  Name = 
  10 active torsions:
  status: ('A' for Active; 'I' for Inactive)
    1  A    between atoms: C_4  and  C_16
    2  A    between atoms: N_5  and  C_31
    3  A    between atoms: O_6  and  C_9
    4  A    between atoms: O_6  and  C_22
    5  A    between atoms: C_8  and  C_25
    6  A    between atoms: C_9  and  C_29
    7  A    between atoms: C_11  and  C_22
    8  A    between atoms: C_16  and  C_22
    9  A    between atoms: C_21  and  C_27
   10  A    between atoms: C_29  and  C_31
                            x       y       z     vdW  Elec       q    Type
                         _______ _______ _______ _____ _____    ______ ____

>  <TORSDO>
F 10

$$$$
=
 OpenBabel11042410483D

 31 34  0  0  1  0  0  0  0  0999 V2000
  188.1170  177.8570  139.1040 C   0  0  0  0  0  2  0  0  0  0  0  0
  188.6240  178.8610  139.9320 O   0  0  0  0  0  0  0  0  0  0  0  0
  187.7690  178.8830  141.0390 C   0  0  2  0  0  3  0  0  0  0  0  0
  189.7100  178.4130  142.4910 C   0  0  0  0  0  3  0  0  0  0  0  0
  188.4160  178.2120  142.2160 C   0  0  0  0  0  0  0  0  0  0  0  0
  190.4270  177.7780  143.6590 C   0  0  0  0  0  0  0  0  0  0  0  0
  191.7990  175.7160  144.1170 N   0  0  0  0  0  1  0  0  0  0  0  0
  189.5760  176.7910  144.5040 C   0  0  0  0  0  0  0  0  0  0  0  0
  187.6160  177.2840  143.0220 C   0  0  0  0  0  3  0  0  0  0  0  0
  190.6050  176.2740  143.5080 C   0  0  1  0  0  0  0  0  0  0  0  0
  190.1290  175.6380  142.3560 O   0  0  0  0  0  1  0  0  0  0  0  0
  188.1420  176.6270  144.0510 C   0  0  0  0  0  3  0  0  0  0  0  0
  186.4480  178.2130  140.6820 C   0  0  0  0  0  2  0  0  0  0  0  0
  184.7100  179.7820  139.8220 O   0  0  0  0  0  0  0  0  0  0  0  0
  185.3050  179.1460  140.9050 C   0  0  0  0  0  0  0  0  0  0  0  0
  184.8620  179.3360  142.0680 O   0  0  0  0  0  1  0  0  0  0  0  0
  188.2570  178.2620  137.6430 C   0  0  0  0  0  2  0  0  0  0  0  0
  187.8780  177.1150  136.7150 C   0  0  0  0  0  2  0  0  0  0  0  0
  188.2960  175.8480  137.2880 N   0  0  0  0  0  0  0  0  0  0  0  0
  189.5350  175.4640  136.5920 C   0  0  2  0  0  3  0  0  0  0  0  0
  188.2470  174.8610  136.2000 C   0  0  1  0  0  3  0  0  0  0  0  0
  190.8010  175.2620  138.7150 O   0  0  0  0  0  0  0  0  0  0  0  0
  193.6870  176.9800  137.5180 O   0  0  0  0  0  0  0  0  0  0  0  0
  191.9270  177.1050  139.7340 C   0  0  0  0  0  1  0  0  0  0  0  0
  192.7220  176.1720  137.5630 C   0  0  0  0  0  0  0  0  0  0  0  0
  191.5220  176.4460  138.4280 C   0  0  1  0  0  3  0  0  0  0  0  0
  191.6410  174.0440  136.7870 C   0  0  0  0  0  2  0  0  0  0  0  0
  190.4200  174.6070  137.5160 C   0  0  2  0  0  3  0  0  0  0  0  0
  192.7050  175.0390  136.6960 N   0  0  0  0  0  2  0  0  0  0  0  0
  186.4710  173.3780  137.1110 C   0  0  0  0  0  1  0  0  0  0  0  0
  187.9470  173.4860  136.7880 C   0  0  0  0  0  2  0  0  0  0  0  0
  1  2  1  0  0  0  0
  2  3  1  0  0  0  0
  3 13  1  6  0  0  0
  3  5  1  0  0  0  0
  4  6  1  0  0  0  0
  5  4  2  0  0  0  0
  5  9  1  0  0  0  0
  6  8  2  0  0  0  0
  9 12  2  0  0  0  0
 10 11  1  6  0  0  0
 10  6  1  0  0  0  0
 10  7  1  0  0  0  0
 10  8  1  0  0  0  0
 12  8  1  0  0  0  0
 13 15  1  0  0  0  0
 14 15  2  0  0  0  0
 15 16  1  0  0  0  0
 17  1  1  0  0  0  0
 18 19  1  0  0  0  0
 18 17  1  0  0  0  0
 20 19  1  1  0  0  0
 20 28  1  0  0  0  0
 21 20  1  0  0  0  0
 21 31  1  1  0  0  0
 21 19  1  0  0  0  0
 23 25  2  0  0  0  0
 25 26  1  0  0  0  0
 26 22  1  0  0  0  0
 26 24  1  1  0  0  0
 28 27  1  6  0  0  0
 28 22  1  0  0  0  0
 29 27  1  0  0  0  0
 29 25  1  0  0  0  0
 31 30  1  0  0  0  0
M  END
>  <MODEL>
4

>  <REMARK>
 VINA RESULT:      -7.0      3.502      7.546
  Name = 
  10 active torsions:
  status: ('A' for Active; 'I' for Inactive)
    1  A    between atoms: C_4  and  C_16
    2  A    between atoms: N_5  and  C_31
    3  A    between atoms: O_6  and  C_9
    4  A    between atoms: O_6  and  C_22
    5  A    between atoms: C_8  and  C_25
    6  A    between atoms: C_9  and  C_29
    7  A    between atoms: C_11  and  C_22
    8  A    between atoms: C_16  and  C_22
    9  A    between atoms: C_21  and  C_27
   10  A    between atoms: C_29  and  C_31
                            x       y       z     vdW  Elec       q    Type
                         _______ _______ _______ _____ _____    ______ ____

>  <TORSDO>
F 10

$$$$
=
 OpenBabel11042410483D

 31 34  0  0  1  0  0  0  0  0999 V2000
  185.0430  178.7460  142.5810 C   0  0  0  0  0  2  0  0  0  0  0  0
  185.5950  177.5900  143.1370 O   0  0  0  0  0  0  0  0  0  0  0  0
  186.2520  178.0240  144.2930 C   0  0  2  0  0  3  0  0  0  0  0  0
  188.5180  177.9190  145.2680 C   0  0  0  0  0  3  0  0  0  0  0  0
  187.6680  177.5270  144.3110 C   0  0  0  0  0  0  0  0  0  0  0  0
  189.9530  177.4580  145.3540 C   0  0  0  0  0  0  0  0  0  0  0  0
  192.2200  178.2360  144.5780 N   0  0  0  0  0  1  0  0  0  0  0  0
  190.4260  176.5370  144.1970 C   0  0  0  0  0  0  0  0  0  0  0  0
  188.1190  176.6520  143.2240 C   0  0  0  0  0  3  0  0  0  0  0  0
  190.8280  178.0040  144.2360 C   0  0  1  0  0  0  0  0  0  0  0  0
  190.2660  178.8570  143.2780 O   0  0  0  0  0  1  0  0  0  0  0  0
  189.3730  176.2130  143.1610 C   0  0  0  0  0  3  0  0  0  0  0  0
  185.4890  177.5540  145.5250 C   0  0  0  0  0  2  0  0  0  0  0  0
  185.5780  179.4040  147.1970 O   0  0  0  0  0  1  0  0  0  0  0  0
  184.8600  178.7090  146.2310 C   0  0  0  0  0  0  0  0  0  0  0  0
  183.6920  179.0700  145.9320 O   0  0  0  0  0  0  0  0  0  0  0  0
  183.8640  178.3870  141.6870 C   0  0  0  0  0  2  0  0  0  0  0  0
  184.0330  178.9690  140.2900 C   0  0  0  0  0  2  0  0  0  0  0  0
  182.9230  178.5720  139.4440 N   0  0  0  0  0  0  0  0  0  0  0  0
  182.0660  177.6970  140.2610 C   0  0  2  0  0  3  0  0  0  0  0  0
  183.0130  177.1130  139.2910 C   0  0  1  0  0  3  0  0  0  0  0  0
  180.0250  179.0760  139.9740 O   0  0  0  0  0  0  0  0  0  0  0  0
  178.9310  178.7110  143.3480 O   0  0  0  0  0  0  0  0  0  0  0  0
  179.4040  180.8050  141.5000 C   0  0  0  0  0  1  0  0  0  0  0  0
  179.3610  178.4130  142.2030 C   0  0  0  0  0  0  0  0  0  0  0  0
  180.0470  179.4390  141.3420 C   0  0  1  0  0  3  0  0  0  0  0  0
  179.7250  176.7030  140.4030 C   0  0  0  0  0  2  0  0  0  0  0  0
  180.6030  177.7950  139.7890 C   0  0  2  0  0  3  0  0  0  0  0  0
  179.3100  177.0590  141.7560 N   0  0  0  0  0  2  0  0  0  0  0  0
  183.1070  177.4960  136.8360 C   0  0  0  0  0  1  0  0  0  0  0  0
  182.4260  176.7140  137.9410 C   0  0  0  0  0  2  0  0  0  0  0  0
  1  2  1  0  0  0  0
  2  3  1  0  0  0  0
  3  5  1  0  0  0  0
  3 13  1  1  0  0  0
  4  6  1  0  0  0  0
  5  4  2  0  0  0  0
  8 10  1  0  0  0  0
  8  6  2  0  0  0  0
  9  5  1  0  0  0  0
 10 11  1  6  0  0  0
 10  7  1  0  0  0  0
 10  6  1  0  0  0  0
 12  9  2  0  0  0  0
 12  8  1  0  0  0  0
 13 15  1  0  0  0  0
 15 14  1  0  0  0  0
 16 15  2  0  0  0  0
 17  1  1  0  0  0  0
 18 17  1  0  0  0  0
 19 18  1  0  0  0  0
 20 19  1  6  0  0  0
 21 31  1  6  0  0  0
 21 19  1  0  0  0  0
 21 20  1  0  0  0  0
 22 26  1  0  0  0  0
 25 23  2  0  0  0  0
 26 24  1  6  0  0  0
 26 25  1  0  0  0  0
 27 29  1  0  0  0  0
 28 22  1  0  0  0  0
 28 20  1  0  0  0  0
 28 27  1  1  0  0  0
 29 25  1  0  0  0  0
 30 31  1  0  0  0  0
M  END
>  <MODEL>
5

>  <REMARK>
 VINA RESULT:      -6.9      3.176      9.013
  Name = 
  10 active torsions:
  status: ('A' for Active; 'I' for Inactive)
    1  A    between atoms: C_4  and  C_16
    2  A    between atoms: N_5  and  C_31
    3  A    between atoms: O_6  and  C_9
    4  A    between atoms: O_6  and  C_22
    5  A    between atoms: C_8  and  C_25
    6  A    between atoms: C_9  and  C_29
    7  A    between atoms: C_11  and  C_22
    8  A    between atoms: C_16  and  C_22
    9  A    between atoms: C_21  and  C_27
   10  A    between atoms: C_29  and  C_31
                            x       y       z     vdW  Elec       q    Type
                         _______ _______ _______ _____ _____    ______ ____

>  <TORSDO>
F 10

$$$$
=
 OpenBabel11042410483D

 31 34  0  0  1  0  0  0  0  0999 V2000
  190.7620  178.2910  143.1790 C   0  0  0  0  0  2  0  0  0  0  0  0
  189.9690  178.7370  144.2400 O   0  0  0  0  0  0  0  0  0  0  0  0
  189.8480  177.6330  145.0900 C   0  0  2  0  0  3  0  0  0  0  0  0
  187.4080  177.2610  145.1210 C   0  0  0  0  0  3  0  0  0  0  0  0
  188.5120  177.6410  145.7740 C   0  0  0  0  0  0  0  0  0  0  0  0
  186.0320  177.2370  145.7440 C   0  0  0  0  0  0  0  0  0  0  0  0
  184.0400  178.7660  145.9440 N   0  0  0  0  0  1  0  0  0  0  0  0
  185.9540  177.7640  147.2020 C   0  0  0  0  0  0  0  0  0  0  0  0
  188.4330  178.1320  147.1530 C   0  0  0  0  0  3  0  0  0  0  0  0
  185.4820  178.6240  146.0390 C   0  0  1  0  0  0  0  0  0  0  0  0
  186.2480  179.7500  145.7120 O   0  0  0  0  0  1  0  0  0  0  0  0
  187.2720  178.2040  147.7990 C   0  0  0  0  0  3  0  0  0  0  0  0
  190.9850  177.6370  146.1040 C   0  0  0  0  0  2  0  0  0  0  0  0
  191.8760  175.7010  147.4000 O   0  0  0  0  0  1  0  0  0  0  0  0
  191.6420  176.2990  146.1670 C   0  0  0  0  0  0  0  0  0  0  0  0
  191.9590  175.7010  145.1060 O   0  0  0  0  0  0  0  0  0  0  0  0
  190.1090  177.0900  142.5070 C   0  0  0  0  0  2  0  0  0  0  0  0
  190.1920  177.1970  140.9900 C   0  0  0  0  0  2  0  0  0  0  0  0
  188.8610  177.1790  140.4130 N   0  0  0  0  0  0  0  0  0  0  0  0
  188.9160  178.0210  139.2070 C   0  0  2  0  0  3  0  0  0  0  0  0
  188.3630  178.5610  140.4640 C   0  0  1  0  0  3  0  0  0  0  0  0
  188.0000  176.1680  137.8370 O   0  0  0  0  0  0  0  0  0  0  0  0
  190.4590  176.4360  135.2700 O   0  0  0  0  0  0  0  0  0  0  0  0
  189.3620  174.4250  136.9360 C   0  0  0  0  0  1  0  0  0  0  0  0
  189.5830  176.7680  136.1100 C   0  0  0  0  0  0  0  0  0  0  0  0
  189.2810  175.8970  137.3000 C   0  0  1  0  0  3  0  0  0  0  0  0
  187.8690  178.4130  136.9180 C   0  0  0  0  0  2  0  0  0  0  0  0
  187.8800  177.5400  138.1740 C   0  0  2  0  0  3  0  0  0  0  0  0
  188.9460  178.0410  136.0070 N   0  0  0  0  0  2  0  0  0  0  0  0
  186.4490  178.5460  142.0510 C   0  0  0  0  0  1  0  0  0  0  0  0
  186.8430  178.5410  140.5880 C   0  0  0  0  0  2  0  0  0  0  0  0
  1  2  1  0  0  0  0
  2  3  1  0  0  0  0
  3  5  1  0  0  0  0
  3 13  1  1  0  0  0
  4  6  2  3  0  0  0
  4  5  1  0  0  0  0
  5  9  2  0  0  0  0
  6 10  1  0  0  0  0
  6  8  1  0  0  0  0
  7 10  1  0  0  0  0
  8 12  2  3  0  0  0
  9 12  1  0  0  0  0
 10 11  1  6  0  0  0
 10  8  1  0  0  0  0
 13 15  1  0  0  0  0
 15 14  1  0  0  0  0
 16 15  2  0  0  0  0
 17  1  1  0  0  0  0
 18 17  1  0  0  0  0
 19 21  1  0  0  0  0
 19 18  1  0  0  0  0
 20 19  1  1  0  0  0
 20 21  1  0  0  0  0
 21 31  1  6  0  0  0
 22 28  1  0  0  0  0
 23 25  2  0  0  0  0
 25 26  1  0  0  0  0
 26 24  1  6  0  0  0
 26 22  1  0  0  0  0
 28 27  1  6  0  0  0
 28 20  1  0  0  0  0
 29 25  1  0  0  0  0
 29 27  1  0  0  0  0
 31 30  1  0  0  0  0
M  END
>  <MODEL>
6

>  <REMARK>
 VINA RESULT:      -6.9      2.823      7.509
  Name = 
  10 active torsions:
  status: ('A' for Active; 'I' for Inactive)
    1  A    between atoms: C_4  and  C_16
    2  A    between atoms: N_5  and  C_31
    3  A    between atoms: O_6  and  C_9
    4  A    between atoms: O_6  and  C_22
    5  A    between atoms: C_8  and  C_25
    6  A    between atoms: C_9  and  C_29
    7  A    between atoms: C_11  and  C_22
    8  A    between atoms: C_16  and  C_22
    9  A    between atoms: C_21  and  C_27
   10  A    between atoms: C_29  and  C_31
                            x       y       z     vdW  Elec       q    Type
                         _______ _______ _______ _____ _____    ______ ____

>  <TORSDO>
F 10

$$$$
=
 OpenBabel11042410483D

 31 34  0  0  1  0  0  0  0  0999 V2000
  189.4870  176.7370  141.8430 C   0  0  0  0  0  2  0  0  0  0  0  0
  188.7460  177.5550  140.9860 O   0  0  0  0  0  0  0  0  0  0  0  0
  189.5620  177.7330  139.8640 C   0  0  2  0  0  3  0  0  0  0  0  0
  187.3930  178.0400  138.7250 C   0  0  0  0  0  3  0  0  0  0  0  0
  188.7260  177.9600  138.6380 C   0  0  0  0  0  0  0  0  0  0  0  0
  186.4880  178.2720  137.5380 C   0  0  0  0  0  0  0  0  0  0  0  0
  185.1820  176.8950  135.8820 N   0  0  0  0  0  1  0  0  0  0  0  0
  187.2030  178.3400  136.1610 C   0  0  0  0  0  0  0  0  0  0  0  0
  189.3950  178.0320  137.3350 C   0  0  0  0  0  3  0  0  0  0  0  0
  186.4400  177.0910  136.5800 C   0  0  1  0  0  0  0  0  0  0  0  0
  187.1850  175.9420  136.8680 O   0  0  0  0  0  1  0  0  0  0  0  0
  188.7070  178.1890  136.2080 C   0  0  0  0  0  3  0  0  0  0  0  0
  190.4720  176.5240  139.6920 C   0  0  0  0  0  2  0  0  0  0  0  0
  192.5510  177.6680  140.4630 O   0  0  0  0  0  1  0  0  0  0  0  0
  191.8860  176.9520  139.4750 C   0  0  0  0  0  0  0  0  0  0  0  0
  192.4830  176.6420  138.4110 O   0  0  0  0  0  0  0  0  0  0  0  0
  188.5790  176.1340  142.9060 C   0  0  0  0  0  2  0  0  0  0  0  0
  187.2860  176.9290  143.0420 C   0  0  0  0  0  2  0  0  0  0  0  0
  187.3990  177.8870  144.1270 N   0  0  0  0  0  0  0  0  0  0  0  0
  187.8930  177.1400  145.2950 C   0  0  2  0  0  3  0  0  0  0  0  0
  186.4570  177.4530  145.1690 C   0  0  1  0  0  3  0  0  0  0  0  0
  189.8260  178.6650  145.5930 O   0  0  0  0  0  0  0  0  0  0  0  0
  192.1990  176.0570  146.1190 O   0  0  0  0  0  0  0  0  0  0  0  0
  191.9130  178.3470  144.4770 C   0  0  0  0  0  1  0  0  0  0  0  0
  191.1460  176.7400  146.2220 C   0  0  0  0  0  0  0  0  0  0  0  0
  190.7160  177.6710  145.1220 C   0  0  1  0  0  3  0  0  0  0  0  0
  189.1000  177.3820  147.5250 C   0  0  0  0  0  2  0  0  0  0  0  0
  188.7010  178.0710  146.2190 C   0  0  2  0  0  3  0  0  0  0  0  0
  190.2820  176.5450  147.3400 N   0  0  0  0  0  2  0  0  0  0  0  0
  184.4670  178.8070  145.7930 C   0  0  0  0  0  1  0  0  0  0  0  0
  185.9690  178.6740  145.9410 C   0  0  0  0  0  2  0  0  0  0  0  0
  1 17  1  0  0  0  0
  2  1  1  0  0  0  0
  3 13  1  6  0  0  0
  3  2  1  0  0  0  0
  5  4  1  0  0  0  0
  5  3  1  0  0  0  0
  6  4  2  3  0  0  0
  8 12  2  3  0  0  0
  8 10  1  0  0  0  0
  8  6  1  0  0  0  0
  9  5  2  0  0  0  0
 10  7  1  6  0  0  0
 10 11  1  0  0  0  0
 10  6  1  0  0  0  0
 12  9  1  0  0  0  0
 15 13  1  0  0  0  0
 15 14  1  0  0  0  0
 16 15  2  0  0  0  0
 17 18  1  0  0  0  0
 18 19  1  0  0  0  0
 19 21  1  0  0  0  0
 20 19  1  6  0  0  0
 20 28  1  0  0  0  0
 21 20  1  0  0  0  0
 21 31  1  1  0  0  0
 22 28  1  0  0  0  0
 23 25  2  0  0  0  0
 25 29  1  0  0  0  0
 26 24  1  1  0  0  0
 26 22  1  0  0  0  0
 26 25  1  0  0  0  0
 28 27  1  1  0  0  0
 29 27  1  0  0  0  0
 30 31  1  0  0  0  0
M  END
>  <MODEL>
7

>  <REMARK>
 VINA RESULT:      -6.9      2.183      2.848
  Name = 
  10 active torsions:
  status: ('A' for Active; 'I' for Inactive)
    1  A    between atoms: C_4  and  C_16
    2  A    between atoms: N_5  and  C_31
    3  A    between atoms: O_6  and  C_9
    4  A    between atoms: O_6  and  C_22
    5  A    between atoms: C_8  and  C_25
    6  A    between atoms: C_9  and  C_29
    7  A    between atoms: C_11  and  C_22
    8  A    between atoms: C_16  and  C_22
    9  A    between atoms: C_21  and  C_27
   10  A    between atoms: C_29  and  C_31
                            x       y       z     vdW  Elec       q    Type
                         _______ _______ _______ _____ _____    ______ ____

>  <TORSDO>
F 10

$$$$
=
 OpenBabel11042410483D

 31 34  0  0  1  0  0  0  0  0999 V2000
  185.3220  179.0090  142.3210 C   0  0  0  0  0  2  0  0  0  0  0  0
  185.6060  177.7710  142.9010 O   0  0  0  0  0  0  0  0  0  0  0  0
  186.2060  178.0750  144.1270 C   0  0  2  0  0  3  0  0  0  0  0  0
  188.3390  177.6430  145.2910 C   0  0  0  0  0  3  0  0  0  0  0  0
  187.5920  177.5030  144.1900 C   0  0  0  0  0  0  0  0  0  0  0  0
  189.7380  177.0900  145.4310 C   0  0  0  0  0  0  0  0  0  0  0  0
  192.1050  177.8740  145.0760 N   0  0  0  0  0  1  0  0  0  0  0  0
  190.3080  176.3960  144.1630 C   0  0  0  0  0  0  0  0  0  0  0  0
  188.1330  176.8410  142.9990 C   0  0  0  0  0  3  0  0  0  0  0  0
  190.7540  177.7990  144.5480 C   0  0  1  0  0  0  0  0  0  0  0  0
  190.3370  178.8590  143.7350 O   0  0  0  0  0  1  0  0  0  0  0  0
  189.3690  176.3510  142.9780 C   0  0  0  0  0  3  0  0  0  0  0  0
  185.3420  177.5510  145.2670 C   0  0  0  0  0  2  0  0  0  0  0  0
  185.4080  179.3750  146.9670 O   0  0  0  0  0  1  0  0  0  0  0  0
  184.6930  178.6770  146.0010 C   0  0  0  0  0  0  0  0  0  0  0  0
  183.5120  179.0120  145.7260 O   0  0  0  0  0  0  0  0  0  0  0  0
  183.9890  178.9510  141.5860 C   0  0  0  0  0  2  0  0  0  0  0  0
  184.1770  179.1520  140.0880 C   0  0  0  0  0  2  0  0  0  0  0  0
  184.5460  177.8980  139.4570 N   0  0  0  0  0  0  0  0  0  0  0  0
  184.8730  178.2150  138.0570 C   0  0  2  0  0  3  0  0  0  0  0  0
  183.5530  177.6520  138.4010 C   0  0  1  0  0  3  0  0  0  0  0  0
  187.0250  177.0200  138.3620 O   0  0  0  0  0  0  0  0  0  0  0  0
  189.0470  179.7330  137.2410 O   0  0  0  0  0  0  0  0  0  0  0  0
  188.9030  177.9920  139.4700 C   0  0  0  0  0  1  0  0  0  0  0  0
  188.1210  178.8810  137.2760 C   0  0  0  0  0  0  0  0  0  0  0  0
  187.7050  178.2430  138.5730 C   0  0  1  0  0  3  0  0  0  0  0  0
  186.3510  177.5560  136.0890 C   0  0  0  0  0  2  0  0  0  0  0  0
  185.9060  177.2110  137.5120 C   0  0  2  0  0  3  0  0  0  0  0  0
  187.3720  178.5990  136.0950 N   0  0  0  0  0  2  0  0  0  0  0  0
  182.2430  175.6390  139.0440 C   0  0  0  0  0  1  0  0  0  0  0  0
  183.3960  176.1480  138.2030 C   0  0  0  0  0  2  0  0  0  0  0  0
  1  2  1  0  0  0  0
  2  3  1  0  0  0  0
  3  5  1  0  0  0  0
  3 13  1  1  0  0  0
  4  6  1  0  0  0  0
  5  4  2  0  0  0  0
  8 10  1  0  0  0  0
  8  6  2  0  0  0  0
  9  5  1  0  0  0  0
 10 11  1  6  0  0  0
 10  7  1  0  0  0  0
 10  6  1  0  0  0  0
 12  9  2  0  0  0  0
 12  8  1  0  0  0  0
 13 15  1  0  0  0  0
 15 14  1  0  0  0  0
 16 15  2  0  0  0  0
 17  1  1  0  0  0  0
 18 17  1  0  0  0  0
 19 18  1  0  0  0  0
 20 21  1  0  0  0  0
 20 19  1  1  0  0  0
 21 31  1  6  0  0  0
 21 19  1  0  0  0  0
 22 26  1  0  0  0  0
 23 25  2  0  0  0  0
 25 26  1  0  0  0  0
 26 24  1  1  0  0  0
 27 29  1  0  0  0  0
 28 27  1  6  0  0  0
 28 20  1  0  0  0  0
 28 22  1  0  0  0  0
 29 25  1  0  0  0  0
 31 30  1  0  0  0  0
M  END
>  <MODEL>
8

>  <REMARK>
 VINA RESULT:      -6.9      2.438      8.067
  Name = 
  10 active torsions:
  status: ('A' for Active; 'I' for Inactive)
    1  A    between atoms: C_4  and  C_16
    2  A    between atoms: N_5  and  C_31
    3  A    between atoms: O_6  and  C_9
    4  A    between atoms: O_6  and  C_22
    5  A    between atoms: C_8  and  C_25
    6  A    between atoms: C_9  and  C_29
    7  A    between atoms: C_11  and  C_22
    8  A    between atoms: C_16  and  C_22
    9  A    between atoms: C_21  and  C_27
   10  A    between atoms: C_29  and  C_31
                            x       y       z     vdW  Elec       q    Type
                         _______ _______ _______ _____ _____    ______ ____

>  <TORSDO>
F 10

$$$$
=
 OpenBabel11042410483D

 31 34  0  0  1  0  0  0  0  0999 V2000
  191.3630  177.1870  141.8790 C   0  0  0  0  0  2  0  0  0  0  0  0
  191.3780  177.8110  140.6290 O   0  0  0  0  0  0  0  0  0  0  0  0
  190.2020  177.3880  140.0000 C   0  0  2  0  0  3  0  0  0  0  0  0
  189.5410  176.6680  137.7330 C   0  0  0  0  0  3  0  0  0  0  0  0
  190.5070  176.8140  138.6470 C   0  0  0  0  0  0  0  0  0  0  0  0
  189.7730  176.1050  136.3510 C   0  0  0  0  0  0  0  0  0  0  0  0
  189.6610  173.8680  135.1980 N   0  0  0  0  0  1  0  0  0  0  0  0
  191.2200  175.6200  136.0650 C   0  0  0  0  0  0  0  0  0  0  0  0
  191.8730  176.3600  138.3690 C   0  0  0  0  0  3  0  0  0  0  0  0
  190.1090  174.6210  136.3560 C   0  0  1  0  0  0  0  0  0  0  0  0
  190.1580  173.9320  137.5740 O   0  0  0  0  0  1  0  0  0  0  0  0
  192.1970  175.8040  137.2050 C   0  0  0  0  0  3  0  0  0  0  0  0
  189.2270  178.5530  139.8950 C   0  0  0  0  0  2  0  0  0  0  0  0
  188.0280  177.6030  141.8660 O   0  0  0  0  0  1  0  0  0  0  0  0
  187.9680  178.2590  140.6420 C   0  0  0  0  0  0  0  0  0  0  0  0
  186.8580  178.6280  140.1780 O   0  0  0  0  0  0  0  0  0  0  0  0
  191.8560  178.1490  142.9510 C   0  0  0  0  0  2  0  0  0  0  0  0
  190.7360  178.5210  143.9140 C   0  0  0  0  0  2  0  0  0  0  0  0
  190.3470  177.3650  144.7010 N   0  0  0  0  0  0  0  0  0  0  0  0
  189.7590  177.8860  145.9460 C   0  0  2  0  0  3  0  0  0  0  0  0
  191.1540  177.4030  145.9290 C   0  0  1  0  0  3  0  0  0  0  0  0
  187.5520  176.7830  145.6960 O   0  0  0  0  0  0  0  0  0  0  0  0
  185.6900  179.5120  147.0350 O   0  0  0  0  0  0  0  0  0  0  0  0
  185.6610  177.8720  144.7260 C   0  0  0  0  0  1  0  0  0  0  0  0
  186.5800  178.6300  146.9160 C   0  0  0  0  0  0  0  0  0  0  0  0
  186.9100  178.0380  145.5730 C   0  0  1  0  0  3  0  0  0  0  0  0
  188.3540  177.1890  147.9530 C   0  0  0  0  0  2  0  0  0  0  0  0
  188.7170  176.8950  146.4970 C   0  0  2  0  0  3  0  0  0  0  0  0
  187.3740  178.2670  148.0450 N   0  0  0  0  0  2  0  0  0  0  0  0
  192.2080  176.0010  147.6920 C   0  0  0  0  0  1  0  0  0  0  0  0
  191.3740  175.9790  146.4260 C   0  0  0  0  0  2  0  0  0  0  0  0
  1 17  1  0  0  0  0
  2  1  1  0  0  0  0
  3 13  1  6  0  0  0
  3  2  1  0  0  0  0
  4  5  1  0  0  0  0
  5  3  1  0  0  0  0
  6 10  1  0  0  0  0
  6  4  2  3  0  0  0
  8  6  1  0  0  0  0
  8 10  1  0  0  0  0
  8 12  2  3  0  0  0
  9  5  2  0  0  0  0
 10  7  1  6  0  0  0
 10 11  1  0  0  0  0
 12  9  1  0  0  0  0
 13 15  1  0  0  0  0
 15 14  1  0  0  0  0
 16 15  2  0  0  0  0
 17 18  1  0  0  0  0
 18 19  1  0  0  0  0
 19 21  1  0  0  0  0
 20 19  1  6  0  0  0
 20 28  1  0  0  0  0
 21 20  1  0  0  0  0
 21 31  1  1  0  0  0
 22 28  1  0  0  0  0
 25 23  2  0  0  0  0
 25 29  1  0  0  0  0
 26 24  1  6  0  0  0
 26 22  1  0  0  0  0
 26 25  1  0  0  0  0
 27 29  1  0  0  0  0
 28 27  1  1  0  0  0
 31 30  1  0  0  0  0
M  END
>  <MODEL>
9

>  <REMARK>
 VINA RESULT:      -6.8      3.150      5.560
  Name = 
  10 active torsions:
  status: ('A' for Active; 'I' for Inactive)
    1  A    between atoms: C_4  and  C_16
    2  A    between atoms: N_5  and  C_31
    3  A    between atoms: O_6  and  C_9
    4  A    between atoms: O_6  and  C_22
    5  A    between atoms: C_8  and  C_25
    6  A    between atoms: C_9  and  C_29
    7  A    between atoms: C_11  and  C_22
    8  A    between atoms: C_16  and  C_22
    9  A    between atoms: C_21  and  C_27
   10  A    between atoms: C_29  and  C_31
                            x       y       z     vdW  Elec       q    Type
                         _______ _______ _______ _____ _____    ______ ____

>  <TORSDO>
F 10

$$$$
