=
 OpenBabel11032420253D

 39 43  0  0  1  0  0  0  0  0999 V2000
  189.2220  177.6830  142.6710 C   0  0  0  0  0  0  0  0  0  0  0  0
  190.5340  177.9630  142.1700 N   0  0  0  0  0  0  0  0  0  0  0  0
  191.7140  177.6520  142.6140 C   0  0  0  0  0  3  0  0  0  0  0  0
  191.8290  176.1970  146.0980 C   0  0  2  0  0  3  0  0  0  0  0  0
  186.8240  178.2500  142.2410 C   0  0  0  0  0  0  0  0  0  0  0  0
  189.6780  177.5750  146.3410 C   0  0  2  0  0  3  0  0  0  0  0  0
  191.5310  174.7120  146.1880 C   0  0  0  0  0  1  0  0  0  0  0  0
  191.9960  176.9300  143.8160 N   0  0  0  0  0  0  0  0  0  0  0  0
  187.4850  177.0970  144.3010 C   0  0  0  0  0  2  0  0  0  0  0  0
  188.1090  177.7330  141.6540 C   0  0  0  0  0  2  0  0  0  0  0  0
  191.0020  177.0740  147.4600 S   0  0  0  0  0  0  0  0  0  0  0  0
  191.2440  176.7570  144.8540 C   0  0  0  0  0  0  0  0  0  0  0  0
  188.9210  177.4340  143.9650 C   0  0  1  0  0  3  0  0  0  0  0  0
  186.5100  177.9410  143.5190 C   0  0  0  0  0  0  0  0  0  0  0  0
  189.9340  177.3580  145.0450 C   0  0  0  0  0  0  0  0  0  0  0  0
  183.1060  178.6990  144.6180 C   0  0  0  0  0  3  0  0  0  0  0  0
  185.2940  178.3700  144.1630 N   0  0  0  0  0  0  0  0  0  0  0  0
  184.0380  178.3450  143.5530 N   0  0  0  0  0  0  0  0  0  0  0  0
  183.8450  179.0170  145.8420 N   0  0  0  0  0  0  0  0  0  0  0  0
  185.2390  178.7350  145.5540 C   0  0  0  0  0  3  0  0  0  0  0  0
  188.4000  178.1950  146.8400 C   0  0  0  0  0  2  0  0  0  0  0  0
  188.0040  177.7260  148.2300 C   0  0  0  0  0  1  0  0  0  0  0  0
  185.9540  179.0880  141.3580 C   0  0  0  0  0  2  0  0  0  0  0  0
  185.5030  178.3080  140.1330 C   0  0  0  0  0  2  0  0  0  0  0  0
  185.8810  178.9800  138.9680 O   0  0  0  0  0  0  0  0  0  0  0  0
  188.0220  178.1940  138.2770 C   0  0  0  0  0  2  0  0  0  0  0  0
  188.7190  177.0980  137.4760 C   0  0  0  0  0  2  0  0  0  0  0  0
  186.1140  178.1910  136.7290 C   0  0  0  0  0  2  0  0  0  0  0  0
  188.7370  176.0360  135.1650 N   0  0  0  0  0  2  0  0  0  0  0  0
  186.5160  178.0140  138.1870 C   0  0  2  0  0  3  0  0  0  0  0  0
  188.0830  176.8660  136.1240 C   0  0  0  0  0  0  0  0  0  0  0  0
  186.8890  177.3090  135.8530 N   0  0  0  0  0  0  0  0  0  0  0  0
  190.3480  175.3520  135.4190 S   0  0  0  0  0  0  0  0  0  0  0  0
  190.2790  173.6530  137.4480 O   0  0  0  0  0  0  0  0  0  0  0  0
  188.5310  173.3060  135.9340 N   0  0  0  0  0  2  0  0  0  0  0  0
  189.6990  173.9960  136.3820 C   0  0  0  0  0  0  0  0  0  0  0  0
  186.6540  172.6610  137.3410 C   0  0  0  0  0  1  0  0  0  0  0  0
  187.6240  171.0700  135.7200 C   0  0  0  0  0  1  0  0  0  0  0  0
  187.9370  172.2030  136.6740 C   0  0  0  0  0  3  0  0  0  0  0  0
  1 13  1  0  0  0  0
  2  3  1  0  0  0  0
  2  1  2  0  0  0  0
  3  8  2  0  0  0  0
  4  7  1  1  0  0  0
  4 11  1  0  0  0  0
  5 14  2  0  0  0  0
  6 21  1  6  0  0  0
  6 11  1  0  0  0  0
  8 12  1  0  0  0  0
 10  5  1  0  0  0  0
 10  1  1  0  0  0  0
 12 15  2  0  0  0  0
 12  4  1  0  0  0  0
 13  9  1  6  0  0  0
 13 15  1  0  0  0  0
 14 17  1  0  0  0  0
 14  9  1  0  0  0  0
 15  6  1  0  0  0  0
 16 19  1  0  0  0  0
 17 20  1  0  0  0  0
 18 17  1  0  0  0  0
 18 16  2  0  0  0  0
 20 19  2  0  0  0  0
 21 22  1  0  0  0  0
 23  5  1  0  0  0  0
 24 23  1  0  0  0  0
 25 24  1  0  0  0  0
 27 26  1  0  0  0  0
 28 30  1  0  0  0  0
 29 33  1  0  0  0  0
 29 31  1  0  0  0  0
 30 26  1  0  0  0  0
 30 25  1  1  0  0  0
 31 27  1  0  0  0  0
 32 31  2  0  0  0  0
 32 28  1  0  0  0  0
 33 36  1  0  0  0  0
 35 36  1  0  0  0  0
 35 39  1  0  0  0  0
 36 34  2  0  0  0  0
 38 39  1  0  0  0  0
 39 37  1  0  0  0  0
M  END
>  <MODEL>
1

>  <REMARK>
 VINA RESULT:      -8.0      0.000      0.000
  Name = 
  9 active torsions:
  status: ('A' for Active; 'I' for Inactive)
    1  A    between atoms: C_2  and  C_15
    2  A    between atoms: C_2  and  O_35
    3  A    between atoms: C_9  and  C_20
    4  A    between atoms: N_11  and  C_34
    5  A    between atoms: C_15  and  C_17
    6  A    between atoms: C_19  and  N_32
    7  A    between atoms: N_29  and  S_38
    8  A    between atoms: C_30  and  O_35
    9  A    between atoms: S_38  and  C_39
                            x       y       z     vdW  Elec       q    Type
                         _______ _______ _______ _____ _____    ______ ____

>  <TORSDO>
F 9

$$$$
=
 OpenBabel11032420253D

 39 43  0  0  1  0  0  0  0  0999 V2000
  185.6720  178.2820  138.5200 C   0  0  0  0  0  0  0  0  0  0  0  0
  186.9150  178.5090  139.1960 N   0  0  0  0  0  2  0  0  0  0  0  0
  188.1360  178.1880  138.8910 C   0  0  0  0  0  3  0  0  0  0  0  0
  188.5330  175.7940  135.9960 C   0  0  2  0  0  3  0  0  0  0  0  0
  183.2080  178.5470  138.8610 C   0  0  0  0  0  0  0  0  0  0  0  0
  186.1930  175.0700  136.7590 C   0  0  2  0  0  3  0  0  0  0  0  0
  188.4790  176.4310  134.6190 C   0  0  0  0  0  1  0  0  0  0  0  0
  188.5470  177.4500  137.7370 N   0  0  0  0  0  0  0  0  0  0  0  0
  184.0760  177.2310  136.9830 C   0  0  0  0  0  2  0  0  0  0  0  0
  184.5510  179.2260  138.8800 C   0  0  0  0  0  2  0  0  0  0  0  0
  187.5950  174.2360  135.9910 S   0  0  0  0  0  0  0  0  0  0  0  0
  187.8480  176.6650  136.9830 C   0  0  0  0  0  0  0  0  0  0  0  0
  185.4340  177.2780  137.6480 C   0  0  0  0  0  0  0  0  0  0  0  0
  182.9670  177.5860  137.9420 C   0  0  0  0  0  0  0  0  0  0  0  0
  186.4610  176.2980  137.2210 C   0  0  0  0  0  0  0  0  0  0  0  0
  180.0000  175.4660  138.2120 C   0  0  0  0  0  3  0  0  0  0  0  0
  181.7060  176.8950  137.8300 N   0  0  0  0  0  0  0  0  0  0  0  0
  181.4180  175.6900  138.4730 N   0  0  0  0  0  0  0  0  0  0  0  0
  179.4820  176.5150  137.3320 N   0  0  0  0  0  0  0  0  0  0  0  0
  180.5690  177.4600  137.1520 C   0  0  0  0  0  3  0  0  0  0  0  0
  184.8390  174.4210  136.8710 C   0  0  0  0  0  2  0  0  0  0  0  0
  184.8550  173.1210  137.6570 C   0  0  0  0  0  1  0  0  0  0  0  0
  182.2020  178.9870  139.8770 C   0  0  0  0  0  2  0  0  0  0  0  0
  182.3680  178.2200  141.1800 C   0  0  0  0  0  2  0  0  0  0  0  0
  182.5590  179.1090  142.2410 O   0  0  0  0  0  0  0  0  0  0  0  0
  183.8470  179.4070  144.2230 C   0  0  0  0  0  2  0  0  0  0  0  0
  184.8600  178.7200  145.1350 C   0  0  0  0  0  2  0  0  0  0  0  0
  184.8110  178.3230  142.2400 C   0  0  0  0  0  2  0  0  0  0  0  0
  187.1360  177.5870  145.0730 N   0  0  0  0  0  2  0  0  0  0  0  0
  183.5300  178.5060  143.0420 C   0  0  2  0  0  3  0  0  0  0  0  0
  185.9960  178.0790  144.3700 C   0  0  0  0  0  0  0  0  0  0  0  0
  185.9080  177.8540  143.0900 N   0  0  0  0  0  0  0  0  0  0  0  0
  187.3670  177.8060  146.8130 S   0  0  0  0  0  0  0  0  0  0  0  0
  189.8270  177.3820  147.6950 O   0  0  0  0  0  0  0  0  0  0  0  0
  189.7650  177.8180  145.3990 N   0  0  0  0  0  2  0  0  0  0  0  0
  189.1400  177.6440  146.6710 C   0  0  0  0  0  0  0  0  0  0  0  0
  191.5460  176.2480  144.8670 C   0  0  0  0  0  1  0  0  0  0  0  0
  191.6380  178.5810  144.0640 C   0  0  0  0  0  1  0  0  0  0  0  0
  191.2010  177.6860  145.2040 C   0  0  0  0  0  3  0  0  0  0  0  0
  1 10  1  0  0  0  0
  1  2  1  0  0  0  0
  3  2  1  0  0  0  0
  4  7  1  6  0  0  0
  4 12  1  0  0  0  0
  5 10  1  0  0  0  0
  5 23  1  0  0  0  0
  6 21  1  1  0  0  0
  6 15  1  0  0  0  0
  8  3  2  0  0  0  0
  9 13  1  0  0  0  0
  9 14  1  0  0  0  0
 11  4  1  0  0  0  0
 11  6  1  0  0  0  0
 12 15  2  0  0  0  0
 12  8  1  0  0  0  0
 13  1  2  0  0  0  0
 14  5  2  0  0  0  0
 15 13  1  0  0  0  0
 16 18  2  0  0  0  0
 17 14  1  0  0  0  0
 17 18  1  0  0  0  0
 19 16  1  0  0  0  0
 20 19  2  0  0  0  0
 20 17  1  0  0  0  0
 21 22  1  0  0  0  0
 23 24  1  0  0  0  0
 24 25  1  0  0  0  0
 26 27  1  0  0  0  0
 28 30  1  0  0  0  0
 28 32  1  0  0  0  0
 29 33  1  0  0  0  0
 30 25  1  6  0  0  0
 30 26  1  0  0  0  0
 31 29  1  0  0  0  0
 31 27  1  0  0  0  0
 32 31  2  0  0  0  0
 35 36  1  0  0  0  0
 36 33  1  0  0  0  0
 36 34  2  0  0  0  0
 37 39  1  0  0  0  0
 38 39  1  0  0  0  0
 39 35  1  0  0  0  0
M  END
>  <MODEL>
2

>  <REMARK>
 VINA RESULT:      -8.0      3.454      8.684
  Name = 
  9 active torsions:
  status: ('A' for Active; 'I' for Inactive)
    1  A    between atoms: C_2  and  C_15
    2  A    between atoms: C_2  and  O_35
    3  A    between atoms: C_9  and  C_20
    4  A    between atoms: N_11  and  C_34
    5  A    between atoms: C_15  and  C_17
    6  A    between atoms: C_19  and  N_32
    7  A    between atoms: N_29  and  S_38
    8  A    between atoms: C_30  and  O_35
    9  A    between atoms: S_38  and  C_39
                            x       y       z     vdW  Elec       q    Type
                         _______ _______ _______ _____ _____    ______ ____

>  <TORSDO>
F 9

$$$$
=
 OpenBabel11032420253D

 39 43  0  0  1  0  0  0  0  0999 V2000
  189.2070  177.7030  142.4910 C   0  0  0  0  0  0  0  0  0  0  0  0
  190.4760  177.9900  141.8920 N   0  0  0  0  0  0  0  0  0  0  0  0
  191.6810  177.6160  142.1990 C   0  0  0  0  0  3  0  0  0  0  0  0
  192.0680  175.8890  145.5360 C   0  0  2  0  0  3  0  0  0  0  0  0
  186.7990  178.3620  142.3320 C   0  0  0  0  0  0  0  0  0  0  0  0
  189.9940  177.2970  146.0830 C   0  0  2  0  0  3  0  0  0  0  0  0
  191.7330  174.4090  145.5400 C   0  0  0  0  0  1  0  0  0  0  0  0
  192.0490  176.7950  143.3100 N   0  0  0  0  0  0  0  0  0  0  0  0
  187.6090  177.0340  144.2280 C   0  0  0  0  0  2  0  0  0  0  0  0
  188.0080  177.8610  141.5890 C   0  0  0  0  0  2  0  0  0  0  0  0
  191.3980  176.6770  147.0320 S   0  0  0  0  0  0  0  0  0  0  0  0
  191.3900  176.5590  144.3990 C   0  0  0  0  0  0  0  0  0  0  0  0
  189.0180  177.3610  143.7850 C   0  0  1  0  0  3  0  0  0  0  0  0
  186.5940  177.9610  143.6070 C   0  0  0  0  0  0  0  0  0  0  0  0
  190.1230  177.1750  144.7560 C   0  0  0  0  0  0  0  0  0  0  0  0
  183.3310  178.7170  145.0730 C   0  0  0  0  0  3  0  0  0  0  0  0
  185.4560  178.3690  144.3920 N   0  0  0  0  0  0  0  0  0  0  0  0
  184.1500  178.4270  143.9010 N   0  0  0  0  0  0  0  0  0  0  0  0
  184.1870  178.9140  146.2450 N   0  0  0  0  0  0  0  0  0  0  0  0
  185.5390  178.6200  145.8070 C   0  0  0  0  0  3  0  0  0  0  0  0
  188.7870  177.9060  146.7460 C   0  0  0  0  0  2  0  0  0  0  0  0
  188.3110  177.1330  147.9630 C   0  0  0  0  0  1  0  0  0  0  0  0
  185.8790  179.2880  141.6010 C   0  0  0  0  0  2  0  0  0  0  0  0
  185.5150  178.7310  140.2330 C   0  0  0  0  0  2  0  0  0  0  0  0
  184.7580  179.6640  139.5200 O   0  0  0  0  0  0  0  0  0  0  0  0
  182.9460  178.1410  139.7950 C   0  0  0  0  0  2  0  0  0  0  0  0
  181.8820  177.3600  139.0290 C   0  0  0  0  0  2  0  0  0  0  0  0
  184.5460  177.8830  137.9470 C   0  0  0  0  0  2  0  0  0  0  0  0
  181.6290  175.6940  137.1230 N   0  0  0  0  0  2  0  0  0  0  0  0
  183.8230  178.9040  138.8170 C   0  0  2  0  0  3  0  0  0  0  0  0
  182.4380  176.6410  137.8210 C   0  0  0  0  0  0  0  0  0  0  0  0
  183.6020  176.9520  137.3250 N   0  0  0  0  0  0  0  0  0  0  0  0
  180.0240  175.2020  137.6780 S   0  0  0  0  0  0  0  0  0  0  0  0
  179.5620  172.6000  137.8290 O   0  0  0  0  0  0  0  0  0  0  0  0
  181.7220  173.0800  137.0740 N   0  0  0  0  0  2  0  0  0  0  0  0
  180.4250  173.4680  137.5280 C   0  0  0  0  0  0  0  0  0  0  0  0
  181.6660  171.1800  135.5560 C   0  0  0  0  0  1  0  0  0  0  0  0
  183.6210  171.5770  137.0120 C   0  0  0  0  0  1  0  0  0  0  0  0
  182.1140  171.6890  136.9130 C   0  0  0  0  0  3  0  0  0  0  0  0
  1 13  1  0  0  0  0
  2  3  1  0  0  0  0
  2  1  2  0  0  0  0
  3  8  2  0  0  0  0
  4  7  1  1  0  0  0
  4 11  1  0  0  0  0
  5 14  2  0  0  0  0
  6 21  1  6  0  0  0
  6 11  1  0  0  0  0
  8 12  1  0  0  0  0
 10  5  1  0  0  0  0
 10  1  1  0  0  0  0
 12 15  2  0  0  0  0
 12  4  1  0  0  0  0
 13  9  1  6  0  0  0
 13 15  1  0  0  0  0
 14  9  1  0  0  0  0
 14 17  1  0  0  0  0
 15  6  1  0  0  0  0
 16 19  1  0  0  0  0
 17 20  1  0  0  0  0
 18 17  1  0  0  0  0
 18 16  2  0  0  0  0
 20 19  2  0  0  0  0
 21 22  1  0  0  0  0
 23  5  1  0  0  0  0
 24 23  1  0  0  0  0
 25 24  1  0  0  0  0
 27 26  1  0  0  0  0
 28 30  1  0  0  0  0
 29 33  1  0  0  0  0
 29 31  1  0  0  0  0
 30 25  1  1  0  0  0
 30 26  1  0  0  0  0
 31 27  1  0  0  0  0
 32 31  2  0  0  0  0
 32 28  1  0  0  0  0
 35 36  1  0  0  0  0
 36 33  1  0  0  0  0
 36 34  2  0  0  0  0
 37 39  1  0  0  0  0
 39 38  1  0  0  0  0
 39 35  1  0  0  0  0
M  END
>  <MODEL>
3

>  <REMARK>
 VINA RESULT:      -7.8      3.365      4.065
  Name = 
  9 active torsions:
  status: ('A' for Active; 'I' for Inactive)
    1  A    between atoms: C_2  and  C_15
    2  A    between atoms: C_2  and  O_35
    3  A    between atoms: C_9  and  C_20
    4  A    between atoms: N_11  and  C_34
    5  A    between atoms: C_15  and  C_17
    6  A    between atoms: C_19  and  N_32
    7  A    between atoms: N_29  and  S_38
    8  A    between atoms: C_30  and  O_35
    9  A    between atoms: S_38  and  C_39
                            x       y       z     vdW  Elec       q    Type
                         _______ _______ _______ _____ _____    ______ ____

>  <TORSDO>
F 9

$$$$
=
 OpenBabel11032420253D

 39 43  0  0  1  0  0  0  0  0999 V2000
  186.7630  178.2700  142.4670 C   0  0  0  0  0  0  0  0  0  0  0  0
  186.3980  177.8790  143.7960 N   0  0  0  0  0  2  0  0  0  0  0  0
  187.1040  177.7150  144.8740 C   0  0  0  0  0  3  0  0  0  0  0  0
  190.8520  177.7560  144.4060 C   0  0  2  0  0  3  0  0  0  0  0  0
  185.7810  178.4910  140.1780 C   0  0  0  0  0  0  0  0  0  0  0  0
  190.1940  176.9450  142.0630 C   0  0  2  0  0  3  0  0  0  0  0  0
  191.4810  179.1360  144.3440 C   0  0  0  0  0  1  0  0  0  0  0  0
  188.5220  177.8700  144.9810 N   0  0  0  0  0  0  0  0  0  0  0  0
  188.2050  178.6360  140.5180 C   0  0  0  0  0  2  0  0  0  0  0  0
  185.6530  178.8570  141.6310 C   0  0  0  0  0  2  0  0  0  0  0  0
  191.6070  176.6770  143.1520 S   0  0  0  0  0  0  0  0  0  0  0  0
  189.4150  177.8370  144.0460 C   0  0  0  0  0  0  0  0  0  0  0  0
  187.9860  178.1050  141.9170 C   0  0  0  0  0  0  0  0  0  0  0  0
  187.0120  178.3890  139.6280 C   0  0  0  0  0  0  0  0  0  0  0  0
  189.1480  177.5430  142.6470 C   0  0  0  0  0  0  0  0  0  0  0  0
  187.6130  178.2660  136.0240 C   0  0  0  0  0  3  0  0  0  0  0  0
  187.2370  178.0650  138.2410 N   0  0  0  0  0  0  0  0  0  0  0  0
  187.1440  178.9910  137.2000 N   0  0  0  0  0  0  0  0  0  0  0  0
  187.9000  176.8740  136.3760 N   0  0  0  0  0  0  0  0  0  0  0  0
  187.7210  176.7790  137.8130 C   0  0  0  0  0  3  0  0  0  0  0  0
  190.2030  176.5160  140.6200 C   0  0  0  0  0  2  0  0  0  0  0  0
  191.3360  177.1280  139.8150 C   0  0  0  0  0  1  0  0  0  0  0  0
  184.5160  178.2610  139.4130 C   0  0  0  0  0  2  0  0  0  0  0  0
  183.8230  179.5760  139.0920 C   0  0  0  0  0  2  0  0  0  0  0  0
  182.4650  179.4940  139.4080 O   0  0  0  0  0  0  0  0  0  0  0  0
  181.4980  178.0610  137.7680 C   0  0  0  0  0  2  0  0  0  0  0  0
  181.1770  176.6010  137.4600 C   0  0  0  0  0  2  0  0  0  0  0  0
  181.0750  177.7080  140.1630 C   0  0  0  0  0  2  0  0  0  0  0  0
  179.9580  174.5900  138.4290 N   0  0  0  0  0  2  0  0  0  0  0  0
  182.1170  178.1670  139.1510 C   0  0  2  0  0  3  0  0  0  0  0  0
  180.5190  175.8890  138.6190 C   0  0  0  0  0  0  0  0  0  0  0  0
  180.5560  176.3800  139.8250 N   0  0  0  0  0  0  0  0  0  0  0  0
  179.8670  173.8010  136.8490 S   0  0  0  0  0  0  0  0  0  0  0  0
  180.8140  171.5910  137.9580 O   0  0  0  0  0  0  0  0  0  0  0  0
  182.4780  172.8360  136.8870 N   0  0  0  0  0  2  0  0  0  0  0  0
  181.1260  172.6140  137.2900 C   0  0  0  0  0  0  0  0  0  0  0  0
  183.8290  171.0190  135.9970 C   0  0  0  0  0  1  0  0  0  0  0  0
  184.8070  172.6840  137.5380 C   0  0  0  0  0  1  0  0  0  0  0  0
  183.5530  171.9060  137.1960 C   0  0  0  0  0  3  0  0  0  0  0  0
  1  2  1  0  0  0  0
  2  3  1  0  0  0  0
  3  8  2  0  0  0  0
  4  7  1  6  0  0  0
  5 10  1  0  0  0  0
  6 21  1  1  0  0  0
  6 15  1  0  0  0  0
  6 11  1  0  0  0  0
  9 13  1  0  0  0  0
 10  1  1  0  0  0  0
 11  4  1  0  0  0  0
 12  4  1  0  0  0  0
 12  8  1  0  0  0  0
 13  1  2  0  0  0  0
 13 15  1  0  0  0  0
 14  5  2  0  0  0  0
 14  9  1  0  0  0  0
 15 12  2  0  0  0  0
 16 19  1  0  0  0  0
 16 18  2  0  0  0  0
 17 14  1  0  0  0  0
 18 17  1  0  0  0  0
 19 20  2  0  0  0  0
 20 17  1  0  0  0  0
 22 21  1  0  0  0  0
 23  5  1  0  0  0  0
 24 25  1  0  0  0  0
 24 23  1  0  0  0  0
 26 30  1  0  0  0  0
 27 26  1  0  0  0  0
 27 31  1  0  0  0  0
 29 31  1  0  0  0  0
 30 25  1  1  0  0  0
 30 28  1  0  0  0  0
 31 32  2  0  0  0  0
 32 28  1  0  0  0  0
 33 36  1  0  0  0  0
 33 29  1  0  0  0  0
 35 39  1  0  0  0  0
 35 36  1  0  0  0  0
 36 34  2  0  0  0  0
 37 39  1  0  0  0  0
 39 38  1  0  0  0  0
M  END
>  <MODEL>
4

>  <REMARK>
 VINA RESULT:      -7.5      3.884      6.096
  Name = 
  9 active torsions:
  status: ('A' for Active; 'I' for Inactive)
    1  A    between atoms: C_2  and  C_15
    2  A    between atoms: C_2  and  O_35
    3  A    between atoms: C_9  and  C_20
    4  A    between atoms: N_11  and  C_34
    5  A    between atoms: C_15  and  C_17
    6  A    between atoms: C_19  and  N_32
    7  A    between atoms: N_29  and  S_38
    8  A    between atoms: C_30  and  O_35
    9  A    between atoms: S_38  and  C_39
                            x       y       z     vdW  Elec       q    Type
                         _______ _______ _______ _____ _____    ______ ____

>  <TORSDO>
F 9

$$$$
=
 OpenBabel11032420253D

 39 43  0  0  1  0  0  0  0  0999 V2000
  194.1100  175.7620  138.7890 C   0  0  0  0  0  0  0  0  0  0  0  0
  195.0820  175.5340  139.8170 N   0  0  0  0  0  2  0  0  0  0  0  0
  196.2230  174.9140  139.8060 C   0  0  0  0  0  3  0  0  0  0  0  0
  196.9610  172.8840  136.7060 C   0  0  2  0  0  3  0  0  0  0  0  0
  191.8070  176.6860  138.4750 C   0  0  0  0  0  0  0  0  0  0  0  0
  194.3990  172.7810  136.6180 C   0  0  2  0  0  3  0  0  0  0  0  0
  197.5110  173.6740  135.5330 C   0  0  0  0  0  1  0  0  0  0  0  0
  196.8010  174.2370  138.6860 N   0  0  0  0  0  0  0  0  0  0  0  0
  192.9010  175.4170  136.6840 C   0  0  0  0  0  2  0  0  0  0  0  0
  193.1910  176.9380  139.0090 C   0  0  0  0  0  2  0  0  0  0  0  0
  195.7350  171.6770  136.1170 S   0  0  0  0  0  0  0  0  0  0  0  0
  196.2190  173.7870  137.6210 C   0  0  0  0  0  0  0  0  0  0  0  0
  193.9390  174.9860  137.6960 C   0  0  0  0  0  0  0  0  0  0  0  0
  191.6580  175.9570  137.3460 C   0  0  0  0  0  0  0  0  0  0  0  0
  194.7860  173.8110  137.3800 C   0  0  0  0  0  0  0  0  0  0  0  0
  188.3390  174.7910  136.3490 C   0  0  0  0  0  3  0  0  0  0  0  0
  190.3760  175.6800  136.7460 N   0  0  0  0  0  0  0  0  0  0  0  0
  189.5950  174.5650  137.0550 N   0  0  0  0  0  0  0  0  0  0  0  0
  188.4280  176.0150  135.5500 N   0  0  0  0  0  0  0  0  0  0  0  0
  189.7130  176.6090  135.8680 C   0  0  0  0  0  3  0  0  0  0  0  0
  192.9690  172.5430  136.2100 C   0  0  0  0  0  2  0  0  0  0  0  0
  192.8100  171.4360  135.1820 C   0  0  0  0  0  1  0  0  0  0  0  0
  190.6600  177.2690  139.2370 C   0  0  0  0  0  2  0  0  0  0  0  0
  190.9320  177.2540  140.7340 C   0  0  0  0  0  2  0  0  0  0  0  0
  190.4770  176.0580  141.2940 O   0  0  0  0  0  0  0  0  0  0  0  0
  188.6860  176.1710  142.8620 C   0  0  0  0  0  2  0  0  0  0  0  0
  188.3620  176.4570  144.3260 C   0  0  0  0  0  2  0  0  0  0  0  0
  190.4850  177.8450  142.8750 C   0  0  0  0  0  2  0  0  0  0  0  0
  188.6580  178.2430  146.1120 N   0  0  0  0  0  2  0  0  0  0  0  0
  190.1710  176.3770  142.6180 C   0  0  2  0  0  3  0  0  0  0  0  0
  189.0270  177.7140  144.8390 C   0  0  0  0  0  0  0  0  0  0  0  0
  190.0180  178.2650  144.1980 N   0  0  0  0  0  0  0  0  0  0  0  0
  187.3460  177.5750  147.0910 S   0  0  0  0  0  0  0  0  0  0  0  0
  185.8110  179.7310  147.0080 O   0  0  0  0  0  0  0  0  0  0  0  0
  185.5800  178.3960  145.1020 N   0  0  0  0  0  2  0  0  0  0  0  0
  186.1490  178.6920  146.3780 C   0  0  0  0  0  0  0  0  0  0  0  0
  184.9690  179.4330  142.9870 C   0  0  0  0  0  1  0  0  0  0  0  0
  183.2320  178.6530  144.5610 C   0  0  0  0  0  1  0  0  0  0  0  0
  184.6120  179.2670  144.4520 C   0  0  0  0  0  3  0  0  0  0  0  0
  1 10  1  0  0  0  0
  1  2  1  0  0  0  0
  3  2  1  0  0  0  0
  4  7  1  6  0  0  0
  4 12  1  0  0  0  0
  5 10  1  0  0  0  0
  5 23  1  0  0  0  0
  6 21  1  1  0  0  0
  6 15  1  0  0  0  0
  8  3  2  0  0  0  0
  9 14  1  0  0  0  0
  9 13  1  0  0  0  0
 11  6  1  0  0  0  0
 11  4  1  0  0  0  0
 12  8  1  0  0  0  0
 13  1  2  0  0  0  0
 14  5  2  0  0  0  0
 15 12  2  0  0  0  0
 15 13  1  0  0  0  0
 16 18  2  0  0  0  0
 17 18  1  0  0  0  0
 17 14  1  0  0  0  0
 19 20  2  0  0  0  0
 19 16  1  0  0  0  0
 20 17  1  0  0  0  0
 22 21  1  0  0  0  0
 23 24  1  0  0  0  0
 24 25  1  0  0  0  0
 26 27  1  0  0  0  0
 27 31  1  0  0  0  0
 28 32  1  0  0  0  0
 29 33  1  0  0  0  0
 30 25  1  6  0  0  0
 30 26  1  0  0  0  0
 30 28  1  0  0  0  0
 31 29  1  0  0  0  0
 32 31  2  0  0  0  0
 35 36  1  0  0  0  0
 36 34  2  0  0  0  0
 36 33  1  0  0  0  0
 37 39  1  0  0  0  0
 39 38  1  0  0  0  0
 39 35  1  0  0  0  0
M  END
>  <MODEL>
5

>  <REMARK>
 VINA RESULT:      -7.4      4.108      9.661
  Name = 
  9 active torsions:
  status: ('A' for Active; 'I' for Inactive)
    1  A    between atoms: C_2  and  C_15
    2  A    between atoms: C_2  and  O_35
    3  A    between atoms: C_9  and  C_20
    4  A    between atoms: N_11  and  C_34
    5  A    between atoms: C_15  and  C_17
    6  A    between atoms: C_19  and  N_32
    7  A    between atoms: N_29  and  S_38
    8  A    between atoms: C_30  and  O_35
    9  A    between atoms: S_38  and  C_39
                            x       y       z     vdW  Elec       q    Type
                         _______ _______ _______ _____ _____    ______ ____

>  <TORSDO>
F 9

$$$$
=
 OpenBabel11032420253D

 39 43  0  0  1  0  0  0  0  0999 V2000
  189.4560  177.7820  143.0240 C   0  0  0  0  0  0  0  0  0  0  0  0
  190.8380  178.1370  143.1530 N   0  0  0  0  0  0  0  0  0  0  0  0
  191.6710  178.0220  144.1430 C   0  0  0  0  0  3  0  0  0  0  0  0
  190.1530  177.0720  147.4690 C   0  0  2  0  0  3  0  0  0  0  0  0
  187.5400  178.0160  141.4340 C   0  0  0  0  0  0  0  0  0  0  0  0
  188.1040  178.2220  146.4390 C   0  0  2  0  0  3  0  0  0  0  0  0
  189.8990  175.5880  147.6620 C   0  0  0  0  0  1  0  0  0  0  0  0
  191.3680  177.5040  145.4410 N   0  0  0  0  0  0  0  0  0  0  0  0
  187.1720  177.2320  143.7280 C   0  0  0  0  0  2  0  0  0  0  0  0
  188.9660  177.5700  141.6130 C   0  0  0  0  0  2  0  0  0  0  0  0
  188.7460  178.0270  148.1140 S   0  0  0  0  0  0  0  0  0  0  0  0
  190.2170  177.3900  146.0210 C   0  0  0  0  0  0  0  0  0  0  0  0
  188.5820  177.6780  144.0490 C   0  0  1  0  0  3  0  0  0  0  0  0
  186.6630  177.8490  142.4500 C   0  0  0  0  0  0  0  0  0  0  0  0
  188.9560  177.8610  145.4720 C   0  0  0  0  0  0  0  0  0  0  0  0
  183.1090  178.3140  141.7280 C   0  0  0  0  0  3  0  0  0  0  0  0
  185.2730  178.2230  142.3660 N   0  0  0  0  0  0  0  0  0  0  0  0
  184.4350  177.8780  141.3050 N   0  0  0  0  0  0  0  0  0  0  0  0
  183.1970  179.0000  143.0200 N   0  0  0  0  0  0  0  0  0  0  0  0
  184.5780  178.8720  143.4470 C   0  0  0  0  0  3  0  0  0  0  0  0
  186.7230  178.7570  146.1700 C   0  0  0  0  0  2  0  0  0  0  0  0
  185.7790  178.6170  147.3520 C   0  0  0  0  0  1  0  0  0  0  0  0
  187.1700  178.6250  140.1180 C   0  0  0  0  0  2  0  0  0  0  0  0
  188.2100  178.3060  139.0560 C   0  0  0  0  0  2  0  0  0  0  0  0
  187.7310  177.3170  138.1940 O   0  0  0  0  0  0  0  0  0  0  0  0
  190.1000  177.0940  138.3130 C   0  0  0  0  0  2  0  0  0  0  0  0
  191.2330  176.0720  138.2720 C   0  0  0  0  0  2  0  0  0  0  0  0
  188.7870  175.7870  136.6990 C   0  0  0  0  0  2  0  0  0  0  0  0
  192.1740  174.2100  136.8170 N   0  0  0  0  0  2  0  0  0  0  0  0
  188.7710  176.3920  138.0970 C   0  0  2  0  0  3  0  0  0  0  0  0
  191.0950  175.0890  137.1310 C   0  0  0  0  0  0  0  0  0  0  0  0
  189.9660  174.9410  136.5000 N   0  0  0  0  0  0  0  0  0  0  0  0
  193.7500  174.2920  137.6160 S   0  0  0  0  0  0  0  0  0  0  0  0
  193.8900  174.9800  135.0630 O   0  0  0  0  0  0  0  0  0  0  0  0
  195.9340  175.2360  136.1690 N   0  0  0  0  0  2  0  0  0  0  0  0
  194.5500  174.8840  136.1320 C   0  0  0  0  0  0  0  0  0  0  0  0
  196.5530  177.2530  134.9570 C   0  0  0  0  0  1  0  0  0  0  0  0
  198.1040  175.3360  135.0970 C   0  0  0  0  0  1  0  0  0  0  0  0
  196.6470  175.7400  135.0060 C   0  0  0  0  0  3  0  0  0  0  0  0
  1  2  2  0  0  0  0
  1 13  1  0  0  0  0
  2  3  1  0  0  0  0
  3  8  2  0  0  0  0
  4  7  1  6  0  0  0
  4 11  1  0  0  0  0
  5 10  1  0  0  0  0
  5 14  2  0  0  0  0
  6 21  1  6  0  0  0
  6 11  1  0  0  0  0
  8 12  1  0  0  0  0
 10  1  1  0  0  0  0
 12  4  1  0  0  0  0
 13  9  1  1  0  0  0
 13 15  1  0  0  0  0
 14  9  1  0  0  0  0
 15 12  2  0  0  0  0
 15  6  1  0  0  0  0
 16 19  1  0  0  0  0
 17 14  1  0  0  0  0
 17 20  1  0  0  0  0
 18 16  2  0  0  0  0
 18 17  1  0  0  0  0
 19 20  2  0  0  0  0
 21 22  1  0  0  0  0
 23  5  1  0  0  0  0
 24 23  1  0  0  0  0
 25 24  1  0  0  0  0
 27 26  1  0  0  0  0
 28 30  1  0  0  0  0
 29 31  1  0  0  0  0
 29 33  1  0  0  0  0
 30 25  1  6  0  0  0
 30 26  1  0  0  0  0
 31 27  1  0  0  0  0
 32 28  1  0  0  0  0
 32 31  2  0  0  0  0
 34 36  2  0  0  0  0
 36 35  1  0  0  0  0
 36 33  1  0  0  0  0
 37 39  1  0  0  0  0
 39 38  1  0  0  0  0
 39 35  1  0  0  0  0
M  END
>  <MODEL>
6

>  <REMARK>
 VINA RESULT:      -7.3      3.212      4.053
  Name = 
  9 active torsions:
  status: ('A' for Active; 'I' for Inactive)
    1  A    between atoms: C_2  and  C_15
    2  A    between atoms: C_2  and  O_35
    3  A    between atoms: C_9  and  C_20
    4  A    between atoms: N_11  and  C_34
    5  A    between atoms: C_15  and  C_17
    6  A    between atoms: C_19  and  N_32
    7  A    between atoms: N_29  and  S_38
    8  A    between atoms: C_30  and  O_35
    9  A    between atoms: S_38  and  C_39
                            x       y       z     vdW  Elec       q    Type
                         _______ _______ _______ _____ _____    ______ ____

>  <TORSDO>
F 9

$$$$
=
 OpenBabel11032420253D

 39 43  0  0  1  0  0  0  0  0999 V2000
  183.0470  177.7190  140.1850 C   0  0  0  0  0  0  0  0  0  0  0  0
  184.0520  178.1260  141.1210 N   0  0  0  0  0  2  0  0  0  0  0  0
  183.9710  178.5530  142.3460 C   0  0  0  0  0  3  0  0  0  0  0  0
  180.4970  179.3890  143.5690 C   0  0  2  0  0  3  0  0  0  0  0  0
  182.7920  177.0620  137.7850 C   0  0  0  0  0  0  0  0  0  0  0  0
  180.1190  179.8020  141.0650 C   0  0  2  0  0  3  0  0  0  0  0  0
  179.6790  178.2050  144.0510 C   0  0  0  0  0  1  0  0  0  0  0  0
  182.7650  178.7600  143.0850 N   0  0  0  0  0  0  0  0  0  0  0  0
  180.8230  177.5460  139.1650 C   0  0  0  0  0  2  0  0  0  0  0  0
  183.5160  176.8060  139.0790 C   0  0  0  0  0  2  0  0  0  0  0  0
  179.4480  180.5030  142.5860 S   0  0  0  0  0  0  0  0  0  0  0  0
  181.5600  178.9270  142.6430 C   0  0  0  0  0  0  0  0  0  0  0  0
  181.7590  178.1290  140.2000 C   0  0  0  0  0  0  0  0  0  0  0  0
  181.4870  177.4130  137.8170 C   0  0  0  0  0  0  0  0  0  0  0  0
  181.1920  179.0210  141.2400 C   0  0  0  0  0  0  0  0  0  0  0  0
  179.9150  178.5940  134.7330 C   0  0  0  0  0  3  0  0  0  0  0  0
  180.7030  177.6570  136.6310 N   0  0  0  0  0  0  0  0  0  0  0  0
  180.7050  178.8640  135.9300 N   0  0  0  0  0  0  0  0  0  0  0  0
  179.3770  177.2330  134.7870 N   0  0  0  0  0  0  0  0  0  0  0  0
  179.9460  176.6230  135.9740 C   0  0  0  0  0  3  0  0  0  0  0  0
  179.5140  180.0900  139.7170 C   0  0  0  0  0  2  0  0  0  0  0  0
  180.0740  181.3390  139.0580 C   0  0  0  0  0  1  0  0  0  0  0  0
  183.5730  176.9070  136.5180 C   0  0  0  0  0  2  0  0  0  0  0  0
  185.0270  176.5680  136.8090 C   0  0  0  0  0  2  0  0  0  0  0  0
  185.8720  177.4560  136.1380 O   0  0  0  0  0  0  0  0  0  0  0  0
  187.5140  176.4490  137.5400 C   0  0  0  0  0  2  0  0  0  0  0  0
  188.6680  176.7630  138.4890 C   0  0  0  0  0  2  0  0  0  0  0  0
  186.3000  178.4600  138.2600 C   0  0  0  0  0  2  0  0  0  0  0  0
  189.2060  178.1030  140.5830 N   0  0  0  0  0  2  0  0  0  0  0  0
  186.8870  177.7430  137.0510 C   0  0  2  0  0  3  0  0  0  0  0  0
  188.3250  177.8420  139.4910 C   0  0  0  0  0  0  0  0  0  0  0  0
  187.2990  178.6260  139.3170 N   0  0  0  0  0  0  0  0  0  0  0  0
  190.6440  177.1280  140.9160 S   0  0  0  0  0  0  0  0  0  0  0  0
  190.1790  175.3760  142.8450 O   0  0  0  0  0  0  0  0  0  0  0  0
  189.2480  177.4710  143.3010 N   0  0  0  0  0  2  0  0  0  0  0  0
  189.9890  176.5670  142.4800 C   0  0  0  0  0  0  0  0  0  0  0  0
  189.4600  177.7860  145.7040 C   0  0  0  0  0  1  0  0  0  0  0  0
  187.2410  177.4970  144.6580 C   0  0  0  0  0  1  0  0  0  0  0  0
  188.6980  177.0900  144.5920 C   0  0  0  0  0  3  0  0  0  0  0  0
  1 13  2  0  0  0  0
  1  2  1  0  0  0  0
  2  3  1  0  0  0  0
  3  8  2  0  0  0  0
  4  7  1  6  0  0  0
  5 14  2  0  0  0  0
  5 10  1  0  0  0  0
  6 21  1  6  0  0  0
  6 15  1  0  0  0  0
  6 11  1  0  0  0  0
  9 13  1  0  0  0  0
 10  1  1  0  0  0  0
 11  4  1  0  0  0  0
 12  8  1  0  0  0  0
 12  4  1  0  0  0  0
 13 15  1  0  0  0  0
 14  9  1  0  0  0  0
 15 12  2  0  0  0  0
 16 19  1  0  0  0  0
 16 18  2  0  0  0  0
 17 14  1  0  0  0  0
 18 17  1  0  0  0  0
 19 20  2  0  0  0  0
 20 17  1  0  0  0  0
 22 21  1  0  0  0  0
 23 24  1  0  0  0  0
 23  5  1  0  0  0  0
 25 24  1  0  0  0  0
 26 27  1  0  0  0  0
 27 31  1  0  0  0  0
 28 32  1  0  0  0  0
 29 33  1  0  0  0  0
 30 25  1  6  0  0  0
 30 26  1  0  0  0  0
 30 28  1  0  0  0  0
 31 29  1  0  0  0  0
 32 31  2  0  0  0  0
 33 36  1  0  0  0  0
 35 39  1  0  0  0  0
 36 34  2  0  0  0  0
 36 35  1  0  0  0  0
 39 38  1  0  0  0  0
 39 37  1  0  0  0  0
M  END
>  <MODEL>
7

>  <REMARK>
 VINA RESULT:      -7.2      4.391      8.369
  Name = 
  9 active torsions:
  status: ('A' for Active; 'I' for Inactive)
    1  A    between atoms: C_2  and  C_15
    2  A    between atoms: C_2  and  O_35
    3  A    between atoms: C_9  and  C_20
    4  A    between atoms: N_11  and  C_34
    5  A    between atoms: C_15  and  C_17
    6  A    between atoms: C_19  and  N_32
    7  A    between atoms: N_29  and  S_38
    8  A    between atoms: C_30  and  O_35
    9  A    between atoms: S_38  and  C_39
                            x       y       z     vdW  Elec       q    Type
                         _______ _______ _______ _____ _____    ______ ____

>  <TORSDO>
F 9

$$$$
=
 OpenBabel11032420253D

 39 43  0  0  1  0  0  0  0  0999 V2000
  189.6220  177.5070  143.4670 C   0  0  0  0  0  0  0  0  0  0  0  0
  190.9480  177.6980  143.9770 N   0  0  0  0  0  0  0  0  0  0  0  0
  191.4470  177.5460  145.1660 C   0  0  0  0  0  3  0  0  0  0  0  0
  188.9460  176.9980  147.9420 C   0  0  2  0  0  3  0  0  0  0  0  0
  188.2770  177.8710  141.3900 C   0  0  0  0  0  0  0  0  0  0  0  0
  187.4410  178.3220  146.3410 C   0  0  2  0  0  3  0  0  0  0  0  0
  188.4500  175.5720  148.0940 C   0  0  0  0  0  1  0  0  0  0  0  0
  190.7260  177.1510  146.3360 N   0  0  0  0  0  0  0  0  0  0  0  0
  187.1810  177.2840  143.5030 C   0  0  0  0  0  2  0  0  0  0  0  0
  189.5230  177.2680  141.9810 C   0  0  0  0  0  2  0  0  0  0  0  0
  187.5560  178.1560  148.1340 S   0  0  0  0  0  0  0  0  0  0  0  0
  189.4540  177.2140  146.5650 C   0  0  0  0  0  0  0  0  0  0  0  0
  188.4910  177.5750  144.2020 C   0  0  1  0  0  3  0  0  0  0  0  0
  187.1370  177.8770  142.1170 C   0  0  0  0  0  0  0  0  0  0  0  0
  188.4730  177.8000  145.6670 C   0  0  0  0  0  0  0  0  0  0  0  0
  184.2960  179.2340  140.2580 C   0  0  0  0  0  3  0  0  0  0  0  0
  185.8900  178.4110  141.6300 N   0  0  0  0  0  0  0  0  0  0  0  0
  185.7330  179.0080  140.3780 N   0  0  0  0  0  0  0  0  0  0  0  0
  183.6230  178.8400  141.4970 N   0  0  0  0  0  0  0  0  0  0  0  0
  184.6470  178.2510  142.3400 C   0  0  0  0  0  3  0  0  0  0  0  0
  186.2750  179.0030  145.6740 C   0  0  0  0  0  2  0  0  0  0  0  0
  184.9290  178.6030  146.2530 C   0  0  0  0  0  1  0  0  0  0  0  0
  188.3760  178.4370  140.0090 C   0  0  0  0  0  2  0  0  0  0  0  0
  189.6220  177.9310  139.2970 C   0  0  0  0  0  2  0  0  0  0  0  0
  189.4830  178.0830  137.9160 O   0  0  0  0  0  0  0  0  0  0  0  0
  188.4450  176.0530  137.2230 C   0  0  0  0  0  2  0  0  0  0  0  0
  187.0900  175.4040  136.9570 C   0  0  0  0  0  2  0  0  0  0  0  0
  187.6240  178.2280  136.4270 C   0  0  0  0  0  2  0  0  0  0  0  0
  184.9620  175.7360  135.6030 N   0  0  0  0  0  2  0  0  0  0  0  0
  188.2480  177.5070  137.6150 C   0  0  2  0  0  3  0  0  0  0  0  0
  186.1760  176.2750  136.1250 C   0  0  0  0  0  0  0  0  0  0  0  0
  186.4100  177.5470  135.9700 N   0  0  0  0  0  0  0  0  0  0  0  0
  184.5150  174.0320  135.7630 S   0  0  0  0  0  0  0  0  0  0  0  0
  182.3620  173.5040  137.2100 O   0  0  0  0  0  0  0  0  0  0  0  0
  182.9500  175.7660  137.2790 N   0  0  0  0  0  2  0  0  0  0  0  0
  183.1470  174.4200  136.8440 C   0  0  0  0  0  0  0  0  0  0  0  0
  182.3100  176.0040  139.6140 C   0  0  0  0  0  1  0  0  0  0  0  0
  181.4950  177.5970  137.9110 C   0  0  0  0  0  1  0  0  0  0  0  0
  181.8670  176.1520  138.1710 C   0  0  0  0  0  3  0  0  0  0  0  0
  1  2  2  0  0  0  0
  1 13  1  0  0  0  0
  2  3  1  0  0  0  0
  3  8  2  0  0  0  0
  4  7  1  6  0  0  0
  4 11  1  0  0  0  0
  5 10  1  0  0  0  0
  5 14  2  0  0  0  0
  6 21  1  1  0  0  0
  6 11  1  0  0  0  0
  8 12  1  0  0  0  0
 10  1  1  0  0  0  0
 12  4  1  0  0  0  0
 13  9  1  1  0  0  0
 13 15  1  0  0  0  0
 14  9  1  0  0  0  0
 15  6  1  0  0  0  0
 15 12  2  0  0  0  0
 16 18  2  0  0  0  0
 16 19  1  0  0  0  0
 17 14  1  0  0  0  0
 17 20  1  0  0  0  0
 18 17  1  0  0  0  0
 19 20  2  0  0  0  0
 21 22  1  0  0  0  0
 23  5  1  0  0  0  0
 24 23  1  0  0  0  0
 25 24  1  0  0  0  0
 26 30  1  0  0  0  0
 27 26  1  0  0  0  0
 28 30  1  0  0  0  0
 29 33  1  0  0  0  0
 29 31  1  0  0  0  0
 30 25  1  6  0  0  0
 31 27  1  0  0  0  0
 32 31  2  0  0  0  0
 32 28  1  0  0  0  0
 33 36  1  0  0  0  0
 35 39  1  0  0  0  0
 36 34  2  0  0  0  0
 36 35  1  0  0  0  0
 38 39  1  0  0  0  0
 39 37  1  0  0  0  0
M  END
>  <MODEL>
8

>  <REMARK>
 VINA RESULT:      -7.2      2.700      3.943
  Name = 
  9 active torsions:
  status: ('A' for Active; 'I' for Inactive)
    1  A    between atoms: C_2  and  C_15
    2  A    between atoms: C_2  and  O_35
    3  A    between atoms: C_9  and  C_20
    4  A    between atoms: N_11  and  C_34
    5  A    between atoms: C_15  and  C_17
    6  A    between atoms: C_19  and  N_32
    7  A    between atoms: N_29  and  S_38
    8  A    between atoms: C_30  and  O_35
    9  A    between atoms: S_38  and  C_39
                            x       y       z     vdW  Elec       q    Type
                         _______ _______ _______ _____ _____    ______ ____

>  <TORSDO>
F 9

$$$$
=
 OpenBabel11032420253D

 39 43  0  0  1  0  0  0  0  0999 V2000
  188.9290  177.5710  137.6600 C   0  0  0  0  0  0  0  0  0  0  0  0
  188.6000  178.2190  136.4250 N   0  0  0  0  0  0  0  0  0  0  0  0
  188.8950  177.9320  135.1920 C   0  0  0  0  0  3  0  0  0  0  0  0
  191.4880  175.2290  134.7080 C   0  0  2  0  0  3  0  0  0  0  0  0
  188.7360  177.9050  140.1310 C   0  0  0  0  0  0  0  0  0  0  0  0
  192.2440  176.0600  137.0140 C   0  0  2  0  0  3  0  0  0  0  0  0
  190.9630  173.8080  134.7910 C   0  0  0  0  0  1  0  0  0  0  0  0
  189.7020  176.8360  134.7550 N   0  0  0  0  0  0  0  0  0  0  0  0
  190.1580  176.1290  139.2160 C   0  0  0  0  0  2  0  0  0  0  0  0
  188.0060  177.8630  138.8160 C   0  0  0  0  0  2  0  0  0  0  0  0
  193.0790  175.3500  135.5810 S   0  0  0  0  0  0  0  0  0  0  0  0
  190.5720  176.1500  135.4240 C   0  0  0  0  0  0  0  0  0  0  0  0
  190.0060  176.7800  137.8590 C   0  0  1  0  0  3  0  0  0  0  0  0
  189.7750  177.0640  140.3360 C   0  0  0  0  0  0  0  0  0  0  0  0
  190.9740  176.4240  136.7940 C   0  0  0  0  0  0  0  0  0  0  0  0
  191.7970  177.6170  143.3310 C   0  0  0  0  0  3  0  0  0  0  0  0
  190.5230  177.0140  141.5680 N   0  0  0  0  0  0  0  0  0  0  0  0
  191.4200  178.0020  141.9760 N   0  0  0  0  0  0  0  0  0  0  0  0
  191.1730  176.3380  143.6790 N   0  0  0  0  0  0  0  0  0  0  0  0
  190.3060  176.0000  142.5670 C   0  0  0  0  0  3  0  0  0  0  0  0
  192.9360  176.2310  138.3400 C   0  0  0  0  0  2  0  0  0  0  0  0
  194.1390  175.3200  138.5160 C   0  0  0  0  0  1  0  0  0  0  0  0
  188.2600  178.8900  141.1510 C   0  0  0  0  0  2  0  0  0  0  0  0
  186.8050  178.6410  141.5150 C   0  0  0  0  0  2  0  0  0  0  0  0
  186.6840  178.4100  142.8880 O   0  0  0  0  0  0  0  0  0  0  0  0
  184.5610  178.4910  141.8090 C   0  0  0  0  0  2  0  0  0  0  0  0
  183.0700  178.2530  142.0310 C   0  0  0  0  0  2  0  0  0  0  0  0
  184.8360  179.2800  144.1200 C   0  0  0  0  0  2  0  0  0  0  0  0
  181.1560  178.9400  143.5580 N   0  0  0  0  0  2  0  0  0  0  0  0
  185.3150  178.2500  143.1050 C   0  0  2  0  0  3  0  0  0  0  0  0
  182.5600  178.8800  143.3080 C   0  0  0  0  0  0  0  0  0  0  0  0
  183.3770  179.2610  144.2480 N   0  0  0  0  0  0  0  0  0  0  0  0
  179.9430  178.4330  142.3760 S   0  0  0  0  0  0  0  0  0  0  0  0
  179.6610  181.0480  142.0730 O   0  0  0  0  0  0  0  0  0  0  0  0
  180.5370  180.0180  140.1660 N   0  0  0  0  0  2  0  0  0  0  0  0
  180.0390  179.9890  141.5040 C   0  0  0  0  0  0  0  0  0  0  0  0
  181.7410  181.0960  138.3470 C   0  0  0  0  0  1  0  0  0  0  0  0
  179.3410  181.5480  138.7170 C   0  0  0  0  0  1  0  0  0  0  0  0
  180.6590  181.2490  139.3990 C   0  0  0  0  0  3  0  0  0  0  0  0
  1 13  1  0  0  0  0
  1 10  1  0  0  0  0
  2  1  2  0  0  0  0
  3  2  1  0  0  0  0
  4  7  1  1  0  0  0
  4 12  1  0  0  0  0
  4 11  1  0  0  0  0
  5 14  2  0  0  0  0
  5 23  1  0  0  0  0
  6 21  1  6  0  0  0
  8  3  2  0  0  0  0
  8 12  1  0  0  0  0
  9 14  1  0  0  0  0
 10  5  1  0  0  0  0
 11  6  1  0  0  0  0
 12 15  2  0  0  0  0
 13  9  1  6  0  0  0
 14 17  1  0  0  0  0
 15  6  1  0  0  0  0
 15 13  1  0  0  0  0
 16 19  1  0  0  0  0
 17 18  1  0  0  0  0
 17 20  1  0  0  0  0
 18 16  2  0  0  0  0
 20 19  2  0  0  0  0
 21 22  1  0  0  0  0
 23 24  1  0  0  0  0
 24 25  1  0  0  0  0
 26 27  1  0  0  0  0
 26 30  1  0  0  0  0
 27 31  1  0  0  0  0
 28 32  1  0  0  0  0
 30 25  1  6  0  0  0
 30 28  1  0  0  0  0
 31 29  1  0  0  0  0
 31 32  2  0  0  0  0
 33 29  1  0  0  0  0
 35 36  1  0  0  0  0
 36 34  2  0  0  0  0
 36 33  1  0  0  0  0
 37 39  1  0  0  0  0
 38 39  1  0  0  0  0
 39 35  1  0  0  0  0
M  END
>  <MODEL>
9

>  <REMARK>
 VINA RESULT:      -7.2      3.663      8.861
  Name = 
  9 active torsions:
  status: ('A' for Active; 'I' for Inactive)
    1  A    between atoms: C_2  and  C_15
    2  A    between atoms: C_2  and  O_35
    3  A    between atoms: C_9  and  C_20
    4  A    between atoms: N_11  and  C_34
    5  A    between atoms: C_15  and  C_17
    6  A    between atoms: C_19  and  N_32
    7  A    between atoms: N_29  and  S_38
    8  A    between atoms: C_30  and  O_35
    9  A    between atoms: S_38  and  C_39
                            x       y       z     vdW  Elec       q    Type
                         _______ _______ _______ _____ _____    ______ ____

>  <TORSDO>
F 9

$$$$
