=
 OpenBabel11032421293D

 26 27  0  0  1  0  0  0  0  0999 V2000
  186.9770  178.5580  139.3850 N   0  0  0  0  0  2  0  0  0  0  0  0
  186.6060  178.5110  140.7670 C   0  0  0  0  0  0  0  0  0  0  0  0
  188.1700  177.9900  138.8260 C   0  0  0  0  0  0  0  0  0  0  0  0
  185.3310  179.1310  141.2830 C   0  0  0  0  0  2  0  0  0  0  0  0
  184.6050  179.0360  143.7810 C   0  0  0  0  0  3  0  0  0  0  0  0
  186.6320  178.0950  142.8930 C   0  0  0  0  0  0  0  0  0  0  0  0
  187.5100  178.7720  136.5260 C   0  0  0  0  0  1  0  0  0  0  0  0
  188.4280  178.0980  137.4270 N   0  0  0  0  0  2  0  0  0  0  0  0
  187.3320  177.9320  141.6740 N   0  0  0  0  0  0  0  0  0  0  0  0
  184.9870  178.5580  145.0470 C   0  0  0  0  0  3  0  0  0  0  0  0
  185.4650  178.7800  142.7180 C   0  0  0  0  0  0  0  0  0  0  0  0
  187.0030  177.6320  144.1540 C   0  0  0  0  0  0  0  0  0  0  0  0
  186.1610  177.8700  145.2040 N   0  0  0  0  0  0  0  0  0  0  0  0
  189.0030  177.3930  139.5590 O   0  0  0  0  0  0  0  0  0  0  0  0
  188.2600  176.8410  144.3360 C   0  0  1  0  0  3  0  0  0  0  0  0
  188.3800  175.8510  143.3560 O   0  0  0  0  0  1  0  0  0  0  0  0
  189.4930  177.7510  144.3860 C   0  0  2  0  0  3  0  0  0  0  0  0
  190.6830  177.2260  143.5810 C   0  0  0  0  0  2  0  0  0  0  0  0
  191.8080  178.0340  143.7560 O   0  0  0  0  0  1  0  0  0  0  0  0
  189.8900  178.0850  145.8200 C   0  0  0  0  0  2  0  0  0  0  0  0
  189.9390  176.8260  146.6840 C   0  0  1  0  0  3  0  0  0  0  0  0
  192.1450  175.4900  146.5700 C   0  0  0  0  0  1  0  0  0  0  0  0
  191.7910  177.2290  148.1080 O   0  0  0  0  0  0  0  0  0  0  0  0
  191.3250  176.5640  147.1960 C   0  0  0  0  0  0  0  0  0  0  0  0
  188.3490  178.2190  148.0990 C   0  0  0  0  0  1  0  0  0  0  0  0
  188.8920  176.8290  147.8040 C   0  0  0  0  0  2  0  0  0  0  0  0
  1  2  1  0  0  0  0
  2  4  1  0  0  0  0
  2  9  2  0  0  0  0
  3  1  1  0  0  0  0
  3 14  2  0  0  0  0
  4 11  1  0  0  0  0
  5 10  1  0  0  0  0
  6 12  2  0  0  0  0
  7  8  1  0  0  0  0
  8  3  1  0  0  0  0
  9  6  1  0  0  0  0
 10 13  2  0  0  0  0
 11  6  1  0  0  0  0
 11  5  2  0  0  0  0
 12 15  1  0  0  0  0
 12 13  1  0  0  0  0
 15 16  1  6  0  0  0
 15 17  1  0  0  0  0
 17 18  1  1  0  0  0
 17 20  1  0  0  0  0
 18 19  1  0  0  0  0
 21 20  1  1  0  0  0
 21 24  1  0  0  0  0
 21 26  1  0  0  0  0
 22 24  1  0  0  0  0
 24 23  2  0  0  0  0
 26 25  1  0  0  0  0
M  END
>  <MODEL>
1

>  <REMARK>
 VINA RESULT:      -8.2      0.000      0.000
  Name = 
  7 active torsions:
  status: ('A' for Active; 'I' for Inactive)
    1  A    between atoms: C_10  and  C_16
    2  A    between atoms: C_10  and  C_18
    3  A    between atoms: C_11  and  C_16
    4  A    between atoms: C_13  and  C_16
    5  A    between atoms: C_13  and  C_23
    6  A    between atoms: C_17  and  C_18
    7  A    between atoms: C_18  and  C_26
                            x       y       z     vdW  Elec       q    Type
                         _______ _______ _______ _____ _____    ______ ____

>  <TORSDO>
F 7

$$$$
=
 OpenBabel11032421293D

 26 27  0  0  1  0  0  0  0  0999 V2000
  184.2390  178.5850  144.4620 N   0  0  0  0  0  2  0  0  0  0  0  0
  185.4350  178.3990  145.2260 C   0  0  0  0  0  0  0  0  0  0  0  0
  184.1750  178.6900  143.0330 C   0  0  0  0  0  0  0  0  0  0  0  0
  185.4250  178.2950  146.7310 C   0  0  0  0  0  2  0  0  0  0  0  0
  187.5750  177.9240  148.1520 C   0  0  0  0  0  3  0  0  0  0  0  0
  187.5180  178.1250  145.7570 C   0  0  0  0  0  0  0  0  0  0  0  0
  181.6720  178.9480  143.1260 C   0  0  0  0  0  1  0  0  0  0  0  0
  182.9180  178.8680  142.3830 N   0  0  0  0  0  2  0  0  0  0  0  0
  186.6120  178.3040  144.6850 N   0  0  0  0  0  0  0  0  0  0  0  0
  188.9670  177.7510  148.0630 C   0  0  0  0  0  3  0  0  0  0  0  0
  186.8780  178.1100  146.9620 C   0  0  0  0  0  0  0  0  0  0  0  0
  188.9000  177.9600  145.6820 C   0  0  0  0  0  0  0  0  0  0  0  0
  189.5920  177.7670  146.8450 N   0  0  0  0  0  0  0  0  0  0  0  0
  185.2230  178.6290  142.3360 O   0  0  0  0  0  0  0  0  0  0  0  0
  189.5930  177.9310  144.3570 C   0  0  1  0  0  3  0  0  0  0  0  0
  190.6420  178.8540  144.3150 O   0  0  0  0  0  1  0  0  0  0  0  0
  190.0600  176.5150  143.9980 C   0  0  2  0  0  3  0  0  0  0  0  0
  191.5730  176.3160  144.1070 C   0  0  0  0  0  2  0  0  0  0  0  0
  191.9320  175.8520  145.3740 O   0  0  0  0  0  1  0  0  0  0  0  0
  189.5340  176.0750  142.6370 C   0  0  0  0  0  2  0  0  0  0  0  0
  189.6850  177.1880  141.6030 C   0  0  1  0  0  3  0  0  0  0  0  0
  192.0400  177.5450  140.6080 C   0  0  0  0  0  1  0  0  0  0  0  0
  190.5100  175.9970  139.7260 O   0  0  0  0  0  0  0  0  0  0  0  0
  190.7250  176.8470  140.5760 C   0  0  0  0  0  0  0  0  0  0  0  0
  188.5280  178.5360  139.7820 C   0  0  0  0  0  1  0  0  0  0  0  0
  188.3510  177.6010  140.9700 C   0  0  0  0  0  2  0  0  0  0  0  0
  1  2  1  0  0  0  0
  2  4  1  0  0  0  0
  3  1  1  0  0  0  0
  4 11  1  0  0  0  0
  6 11  1  0  0  0  0
  8  3  1  0  0  0  0
  8  7  1  0  0  0  0
  9  2  2  0  0  0  0
  9  6  1  0  0  0  0
 10  5  1  0  0  0  0
 11  5  2  0  0  0  0
 12  6  2  0  0  0  0
 12 13  1  0  0  0  0
 13 10  2  0  0  0  0
 14  3  2  0  0  0  0
 15 16  1  1  0  0  0
 15 12  1  0  0  0  0
 17 20  1  6  0  0  0
 17 18  1  0  0  0  0
 17 15  1  0  0  0  0
 18 19  1  0  0  0  0
 21 26  1  6  0  0  0
 21 20  1  0  0  0  0
 23 24  2  0  0  0  0
 24 22  1  0  0  0  0
 24 21  1  0  0  0  0
 25 26  1  0  0  0  0
M  END
>  <MODEL>
2

>  <REMARK>
 VINA RESULT:      -7.9      2.640      5.314
  Name = 
  7 active torsions:
  status: ('A' for Active; 'I' for Inactive)
    1  A    between atoms: C_10  and  C_16
    2  A    between atoms: C_10  and  C_18
    3  A    between atoms: C_11  and  C_16
    4  A    between atoms: C_13  and  C_16
    5  A    between atoms: C_13  and  C_23
    6  A    between atoms: C_17  and  C_18
    7  A    between atoms: C_18  and  C_26
                            x       y       z     vdW  Elec       q    Type
                         _______ _______ _______ _____ _____    ______ ____

>  <TORSDO>
F 7

$$$$
=
 OpenBabel11032421293D

 26 27  0  0  1  0  0  0  0  0999 V2000
  184.3280  179.3530  141.2840 N   0  0  0  0  0  2  0  0  0  0  0  0
  184.7030  179.0010  142.6200 C   0  0  0  0  0  0  0  0  0  0  0  0
  185.1130  179.1060  140.1080 C   0  0  0  0  0  0  0  0  0  0  0  0
  183.8240  179.2920  143.8100 C   0  0  0  0  0  2  0  0  0  0  0  0
  184.4560  178.6360  146.2490 C   0  0  0  0  0  3  0  0  0  0  0  0
  185.8180  178.2270  144.3090 C   0  0  0  0  0  0  0  0  0  0  0  0
  183.3410  180.1560  138.6590 C   0  0  0  0  0  1  0  0  0  0  0  0
  184.6260  179.5000  138.8270 N   0  0  0  0  0  2  0  0  0  0  0  0
  185.8210  178.4050  142.9050 N   0  0  0  0  0  0  0  0  0  0  0  0
  185.4500  178.0150  147.0250 C   0  0  0  0  0  3  0  0  0  0  0  0
  184.6810  178.7230  144.8780 C   0  0  0  0  0  0  0  0  0  0  0  0
  186.7990  177.6210  145.0900 C   0  0  0  0  0  0  0  0  0  0  0  0
  186.5840  177.5220  146.4370 N   0  0  0  0  0  0  0  0  0  0  0  0
  186.2360  178.5410  140.1910 O   0  0  0  0  0  0  0  0  0  0  0  0
  188.0240  177.0380  144.4590 C   0  0  1  0  0  3  0  0  0  0  0  0
  187.7150  176.3990  143.2550 O   0  0  0  0  0  1  0  0  0  0  0  0
  189.1220  178.0940  144.2840 C   0  0  2  0  0  3  0  0  0  0  0  0
  189.9200  177.9480  142.9870 C   0  0  0  0  0  2  0  0  0  0  0  0
  191.1480  178.6060  143.0710 O   0  0  0  0  0  1  0  0  0  0  0  0
  190.0380  178.1630  145.5010 C   0  0  0  0  0  2  0  0  0  0  0  0
  190.1340  176.8050  146.1940 C   0  0  1  0  0  3  0  0  0  0  0  0
  192.2820  175.8010  147.2140 C   0  0  0  0  0  1  0  0  0  0  0  0
  191.9480  175.9970  144.8990 O   0  0  0  0  0  0  0  0  0  0  0  0
  191.4910  176.1920  146.0150 C   0  0  0  0  0  0  0  0  0  0  0  0
  189.3290  178.2550  148.1230 C   0  0  0  0  0  1  0  0  0  0  0  0
  189.7030  176.8530  147.6650 C   0  0  0  0  0  2  0  0  0  0  0  0
  1  2  1  0  0  0  0
  2  9  2  0  0  0  0
  2  4  1  0  0  0  0
  3 14  2  0  0  0  0
  3  1  1  0  0  0  0
  4 11  1  0  0  0  0
  5 10  1  0  0  0  0
  6 11  1  0  0  0  0
  6 12  2  0  0  0  0
  7  8  1  0  0  0  0
  8  3  1  0  0  0  0
  9  6  1  0  0  0  0
 11  5  2  0  0  0  0
 12 13  1  0  0  0  0
 13 10  2  0  0  0  0
 15 16  1  6  0  0  0
 15 12  1  0  0  0  0
 17 18  1  6  0  0  0
 17 15  1  0  0  0  0
 17 20  1  0  0  0  0
 18 19  1  0  0  0  0
 21 20  1  1  0  0  0
 21 26  1  0  0  0  0
 23 24  2  0  0  0  0
 24 21  1  0  0  0  0
 24 22  1  0  0  0  0
 26 25  1  0  0  0  0
M  END
>  <MODEL>
3

>  <REMARK>
 VINA RESULT:      -7.8      1.966      2.289
  Name = 
  7 active torsions:
  status: ('A' for Active; 'I' for Inactive)
    1  A    between atoms: C_10  and  C_16
    2  A    between atoms: C_10  and  C_18
    3  A    between atoms: C_11  and  C_16
    4  A    between atoms: C_13  and  C_16
    5  A    between atoms: C_13  and  C_23
    6  A    between atoms: C_17  and  C_18
    7  A    between atoms: C_18  and  C_26
                            x       y       z     vdW  Elec       q    Type
                         _______ _______ _______ _____ _____    ______ ____

>  <TORSDO>
F 7

$$$$
=
 OpenBabel11032421293D

 26 27  0  0  1  0  0  0  0  0999 V2000
  185.1240  178.6250  142.6000 N   0  0  0  0  0  2  0  0  0  0  0  0
  186.3810  178.3320  141.9810 C   0  0  0  0  0  0  0  0  0  0  0  0
  184.7880  178.3500  143.9680 C   0  0  0  0  0  0  0  0  0  0  0  0
  186.6640  178.6520  140.5350 C   0  0  0  0  0  2  0  0  0  0  0  0
  188.9490  178.1670  139.3840 C   0  0  0  0  0  3  0  0  0  0  0  0
  188.4190  177.6610  141.6740 C   0  0  0  0  0  0  0  0  0  0  0  0
  182.4910  179.3270  143.6390 C   0  0  0  0  0  1  0  0  0  0  0  0
  183.4990  178.6950  144.4720 N   0  0  0  0  0  2  0  0  0  0  0  0
  187.3680  177.7760  142.6160 N   0  0  0  0  0  0  0  0  0  0  0  0
  190.2340  177.6430  139.6090 C   0  0  0  0  0  3  0  0  0  0  0  0
  188.0600  178.1580  140.4550 C   0  0  0  0  0  0  0  0  0  0  0  0
  189.6930  177.1380  141.8840 C   0  0  0  0  0  0  0  0  0  0  0  0
  190.5770  177.1510  140.8400 N   0  0  0  0  0  0  0  0  0  0  0  0
  185.6220  177.8030  144.7380 O   0  0  0  0  0  0  0  0  0  0  0  0
  190.0990  176.6370  143.2330 C   0  0  1  0  0  3  0  0  0  0  0  0
  191.4410  176.2440  143.2430 O   0  0  0  0  0  1  0  0  0  0  0  0
  189.7930  177.6650  144.3290 C   0  0  2  0  0  3  0  0  0  0  0  0
  190.9960  178.5230  144.7260 C   0  0  0  0  0  2  0  0  0  0  0  0
  191.0470  179.7000  143.9780 O   0  0  0  0  0  1  0  0  0  0  0  0
  189.1420  177.0160  145.5460 C   0  0  0  0  0  2  0  0  0  0  0  0
  189.9260  177.3240  146.8190 C   0  0  1  0  0  3  0  0  0  0  0  0
  187.5810  177.9790  147.6790 C   0  0  0  0  0  1  0  0  0  0  0  0
  189.5530  178.5140  148.8360 O   0  0  0  0  0  0  0  0  0  0  0  0
  189.0610  177.9850  147.8520 C   0  0  0  0  0  0  0  0  0  0  0  0
  192.0730  175.9600  146.8010 C   0  0  0  0  0  1  0  0  0  0  0  0
  190.6710  176.1040  147.3730 C   0  0  0  0  0  2  0  0  0  0  0  0
  1  3  1  0  0  0  0
  2  1  1  0  0  0  0
  2  9  2  0  0  0  0
  3  8  1  0  0  0  0
  3 14  2  0  0  0  0
  4  2  1  0  0  0  0
  5 10  2  0  0  0  0
  5 11  1  0  0  0  0
  6 12  1  0  0  0  0
  6  9  1  0  0  0  0
  7  8  1  0  0  0  0
 10 13  1  0  0  0  0
 11  4  1  0  0  0  0
 11  6  2  0  0  0  0
 12 15  1  0  0  0  0
 13 12  2  0  0  0  0
 15 16  1  6  0  0  0
 15 17  1  0  0  0  0
 17 18  1  1  0  0  0
 17 20  1  0  0  0  0
 19 18  1  0  0  0  0
 21 20  1  6  0  0  0
 21 26  1  0  0  0  0
 21 24  1  0  0  0  0
 22 24  1  0  0  0  0
 24 23  2  0  0  0  0
 25 26  1  0  0  0  0
M  END
>  <MODEL>
4

>  <REMARK>
 VINA RESULT:      -7.6      2.057      4.393
  Name = 
  7 active torsions:
  status: ('A' for Active; 'I' for Inactive)
    1  A    between atoms: C_10  and  C_16
    2  A    between atoms: C_10  and  C_18
    3  A    between atoms: C_11  and  C_16
    4  A    between atoms: C_13  and  C_16
    5  A    between atoms: C_13  and  C_23
    6  A    between atoms: C_17  and  C_18
    7  A    between atoms: C_18  and  C_26
                            x       y       z     vdW  Elec       q    Type
                         _______ _______ _______ _____ _____    ______ ____

>  <TORSDO>
F 7

$$$$
=
 OpenBabel11032421293D

 26 27  0  0  1  0  0  0  0  0999 V2000
  186.7280  178.5410  140.2890 N   0  0  0  0  0  2  0  0  0  0  0  0
  185.7750  178.6440  141.3520 C   0  0  0  0  0  0  0  0  0  0  0  0
  188.1510  178.6410  140.4370 C   0  0  0  0  0  0  0  0  0  0  0  0
  184.2890  178.5260  141.1210 C   0  0  0  0  0  2  0  0  0  0  0  0
  182.5280  178.6740  143.0330 C   0  0  0  0  0  3  0  0  0  0  0  0
  184.9060  178.8790  143.3240 C   0  0  0  0  0  0  0  0  0  0  0  0
  188.4710  178.2820  137.9660 C   0  0  0  0  0  1  0  0  0  0  0  0
  189.0000  178.5150  139.2980 N   0  0  0  0  0  2  0  0  0  0  0  0
  186.1160  178.8430  142.5890 N   0  0  0  0  0  0  0  0  0  0  0  0
  182.3860  178.8460  144.4210 C   0  0  0  0  0  3  0  0  0  0  0  0
  183.8210  178.6970  142.5180 C   0  0  0  0  0  0  0  0  0  0  0  0
  184.7520  179.0550  144.6980 C   0  0  0  0  0  0  0  0  0  0  0  0
  183.4870  179.0250  145.2150 N   0  0  0  0  0  0  0  0  0  0  0  0
  188.6680  178.8430  141.5680 O   0  0  0  0  0  0  0  0  0  0  0  0
  185.9470  179.2080  145.5850 C   0  0  1  0  0  3  0  0  0  0  0  0
  185.5690  179.5720  146.8810 O   0  0  0  0  0  1  0  0  0  0  0  0
  186.8200  177.9480  145.5740 C   0  0  2  0  0  3  0  0  0  0  0  0
  186.9760  177.2910  146.9470 C   0  0  0  0  0  2  0  0  0  0  0  0
  187.8040  178.0480  147.7780 O   0  0  0  0  0  1  0  0  0  0  0  0
  188.1720  178.2040  144.9170 C   0  0  0  0  0  2  0  0  0  0  0  0
  189.0380  176.9460  144.9360 C   0  0  1  0  0  3  0  0  0  0  0  0
  190.2750  175.8780  142.9370 C   0  0  0  0  0  1  0  0  0  0  0  0
  187.9340  175.9260  143.1030 O   0  0  0  0  0  0  0  0  0  0  0  0
  188.9980  176.2320  143.6170 C   0  0  0  0  0  0  0  0  0  0  0  0
  190.7620  176.5970  146.7740 C   0  0  0  0  0  1  0  0  0  0  0  0
  190.4700  177.2140  145.4140 C   0  0  0  0  0  2  0  0  0  0  0  0
  1  3  1  0  0  0  0
  1  2  1  0  0  0  0
  2  9  2  0  0  0  0
  3 14  2  0  0  0  0
  4  2  1  0  0  0  0
  4 11  1  0  0  0  0
  5 10  1  0  0  0  0
  6 12  2  0  0  0  0
  7  8  1  0  0  0  0
  8  3  1  0  0  0  0
  9  6  1  0  0  0  0
 10 13  2  0  0  0  0
 11  5  2  0  0  0  0
 11  6  1  0  0  0  0
 12 13  1  0  0  0  0
 12 15  1  0  0  0  0
 15 16  1  1  0  0  0
 17 20  1  1  0  0  0
 17 15  1  0  0  0  0
 17 18  1  0  0  0  0
 18 19  1  0  0  0  0
 21 20  1  6  0  0  0
 21 26  1  0  0  0  0
 22 24  1  0  0  0  0
 23 24  2  0  0  0  0
 24 21  1  0  0  0  0
 26 25  1  0  0  0  0
M  END
>  <MODEL>
5

>  <REMARK>
 VINA RESULT:      -7.5      2.050      3.242
  Name = 
  7 active torsions:
  status: ('A' for Active; 'I' for Inactive)
    1  A    between atoms: C_10  and  C_16
    2  A    between atoms: C_10  and  C_18
    3  A    between atoms: C_11  and  C_16
    4  A    between atoms: C_13  and  C_16
    5  A    between atoms: C_13  and  C_23
    6  A    between atoms: C_17  and  C_18
    7  A    between atoms: C_18  and  C_26
                            x       y       z     vdW  Elec       q    Type
                         _______ _______ _______ _____ _____    ______ ____

>  <TORSDO>
F 7

$$$$
=
 OpenBabel11032421293D

 26 27  0  0  1  0  0  0  0  0999 V2000
  190.7520  176.7730  147.7650 N   0  0  0  0  0  2  0  0  0  0  0  0
  189.5130  177.1970  147.1870 C   0  0  0  0  0  0  0  0  0  0  0  0
  191.8740  176.2540  147.0360 C   0  0  0  0  0  0  0  0  0  0  0  0
  188.3750  177.7350  148.0180 C   0  0  0  0  0  2  0  0  0  0  0  0
  186.1210  178.5480  147.0000 C   0  0  0  0  0  3  0  0  0  0  0  0
  187.9650  177.6550  145.7410 C   0  0  0  0  0  0  0  0  0  0  0  0
  193.1830  175.9850  149.1700 C   0  0  0  0  0  1  0  0  0  0  0  0
  193.0610  175.8690  147.7270 N   0  0  0  0  0  2  0  0  0  0  0  0
  189.2770  177.1530  145.9100 N   0  0  0  0  0  0  0  0  0  0  0  0
  185.4290  178.7150  145.7880 C   0  0  0  0  0  3  0  0  0  0  0  0
  187.4020  178.0080  146.9330 C   0  0  0  0  0  0  0  0  0  0  0  0
  187.2660  177.8190  144.5470 C   0  0  0  0  0  0  0  0  0  0  0  0
  186.0100  178.3560  144.6010 N   0  0  0  0  0  0  0  0  0  0  0  0
  191.8250  176.1300  145.7840 O   0  0  0  0  0  0  0  0  0  0  0  0
  187.9030  177.4730  143.2370 C   0  0  1  0  0  3  0  0  0  0  0  0
  187.5640  176.1770  142.8380 O   0  0  0  0  0  1  0  0  0  0  0  0
  187.5700  178.5120  142.1600 C   0  0  2  0  0  3  0  0  0  0  0  0
  186.2910  178.2050  141.3790 C   0  0  0  0  0  2  0  0  0  0  0  0
  185.6590  179.3780  140.9610 O   0  0  0  0  0  1  0  0  0  0  0  0
  188.7510  178.7570  141.2280 C   0  0  0  0  0  2  0  0  0  0  0  0
  188.8230  177.6890  140.1390 C   0  0  1  0  0  3  0  0  0  0  0  0
  187.5560  177.5680  137.8920 C   0  0  0  0  0  1  0  0  0  0  0  0
  189.0550  179.2980  138.4140 O   0  0  0  0  0  0  0  0  0  0  0  0
  188.5240  178.2630  138.7850 C   0  0  0  0  0  0  0  0  0  0  0  0
  191.0240  177.2680  141.3410 C   0  0  0  0  0  1  0  0  0  0  0  0
  190.1350  176.8980  140.1630 C   0  0  0  0  0  2  0  0  0  0  0  0
  2  1  1  0  0  0  0
  2  4  1  0  0  0  0
  3  8  1  0  0  0  0
  3  1  1  0  0  0  0
  6  9  1  0  0  0  0
  6 11  2  0  0  0  0
  8  7  1  0  0  0  0
  9  2  2  0  0  0  0
 10  5  2  0  0  0  0
 11  5  1  0  0  0  0
 11  4  1  0  0  0  0
 12 13  2  0  0  0  0
 12  6  1  0  0  0  0
 13 10  1  0  0  0  0
 14  3  2  0  0  0  0
 15 16  1  6  0  0  0
 15 12  1  0  0  0  0
 17 20  1  6  0  0  0
 17 15  1  0  0  0  0
 18 17  1  0  0  0  0
 19 18  1  0  0  0  0
 21 26  1  6  0  0  0
 21 20  1  0  0  0  0
 22 24  1  0  0  0  0
 23 24  2  0  0  0  0
 24 21  1  0  0  0  0
 26 25  1  0  0  0  0
M  END
>  <MODEL>
6

>  <REMARK>
 VINA RESULT:      -7.3      2.576      7.025
  Name = 
  7 active torsions:
  status: ('A' for Active; 'I' for Inactive)
    1  A    between atoms: C_10  and  C_16
    2  A    between atoms: C_10  and  C_18
    3  A    between atoms: C_11  and  C_16
    4  A    between atoms: C_13  and  C_16
    5  A    between atoms: C_13  and  C_23
    6  A    between atoms: C_17  and  C_18
    7  A    between atoms: C_18  and  C_26
                            x       y       z     vdW  Elec       q    Type
                         _______ _______ _______ _____ _____    ______ ____

>  <TORSDO>
F 7

$$$$
=
 OpenBabel11032421293D

 26 27  0  0  1  0  0  0  0  0999 V2000
  184.8370  178.3530  144.4750 N   0  0  0  0  0  2  0  0  0  0  0  0
  186.1330  178.1000  145.0270 C   0  0  0  0  0  0  0  0  0  0  0  0
  184.5770  178.7920  143.1340 C   0  0  0  0  0  0  0  0  0  0  0  0
  186.3300  177.6370  146.4490 C   0  0  0  0  0  2  0  0  0  0  0  0
  188.6680  177.1330  147.4780 C   0  0  0  0  0  3  0  0  0  0  0  0
  188.2810  177.8980  145.2310 C   0  0  0  0  0  0  0  0  0  0  0  0
  182.0980  178.7910  143.5740 C   0  0  0  0  0  1  0  0  0  0  0  0
  183.2360  179.0060  142.6980 N   0  0  0  0  0  2  0  0  0  0  0  0
  187.2310  178.2450  144.3490 N   0  0  0  0  0  0  0  0  0  0  0  0
  190.0440  177.1140  147.1900 C   0  0  0  0  0  3  0  0  0  0  0  0
  187.8100  177.5350  146.4590 C   0  0  0  0  0  0  0  0  0  0  0  0
  189.6480  177.8820  144.9600 C   0  0  0  0  0  0  0  0  0  0  0  0
  190.4990  177.4790  145.9510 N   0  0  0  0  0  0  0  0  0  0  0  0
  185.5250  178.9960  142.3290 O   0  0  0  0  0  0  0  0  0  0  0  0
  190.1590  178.2350  143.5990 C   0  0  1  0  0  3  0  0  0  0  0  0
  191.4740  178.7050  143.6610 O   0  0  0  0  0  1  0  0  0  0  0  0
  190.0140  177.0620  142.6230 C   0  0  2  0  0  3  0  0  0  0  0  0
  190.4170  175.7110  143.2140 C   0  0  0  0  0  2  0  0  0  0  0  0
  191.7990  175.6310  143.3990 O   0  0  0  0  0  1  0  0  0  0  0  0
  190.7290  177.3330  141.3040 C   0  0  0  0  0  2  0  0  0  0  0  0
  189.8510  176.9540  140.1140 C   0  0  1  0  0  3  0  0  0  0  0  0
  189.0550  178.6490  138.3370 C   0  0  0  0  0  1  0  0  0  0  0  0
  188.1290  178.5390  140.4910 O   0  0  0  0  0  0  0  0  0  0  0  0
  188.9520  178.0850  139.7110 C   0  0  0  0  0  0  0  0  0  0  0  0
  192.1320  176.7440  139.0080 C   0  0  0  0  0  1  0  0  0  0  0  0
  190.6520  176.3940  138.9330 C   0  0  0  0  0  2  0  0  0  0  0  0
  1  2  1  0  0  0  0
  2  4  1  0  0  0  0
  3  1  1  0  0  0  0
  4 11  1  0  0  0  0
  6 11  1  0  0  0  0
  8  3  1  0  0  0  0
  8  7  1  0  0  0  0
  9  2  2  0  0  0  0
  9  6  1  0  0  0  0
 10  5  1  0  0  0  0
 11  5  2  0  0  0  0
 12  6  2  0  0  0  0
 12 13  1  0  0  0  0
 13 10  2  0  0  0  0
 14  3  2  0  0  0  0
 15 16  1  1  0  0  0
 15 12  1  0  0  0  0
 17 20  1  6  0  0  0
 17 18  1  0  0  0  0
 17 15  1  0  0  0  0
 18 19  1  0  0  0  0
 21 26  1  6  0  0  0
 21 20  1  0  0  0  0
 22 24  1  0  0  0  0
 24 21  1  0  0  0  0
 24 23  2  0  0  0  0
 26 25  1  0  0  0  0
M  END
>  <MODEL>
7

>  <REMARK>
 VINA RESULT:      -7.3      2.514      5.898
  Name = 
  7 active torsions:
  status: ('A' for Active; 'I' for Inactive)
    1  A    between atoms: C_10  and  C_16
    2  A    between atoms: C_10  and  C_18
    3  A    between atoms: C_11  and  C_16
    4  A    between atoms: C_13  and  C_16
    5  A    between atoms: C_13  and  C_23
    6  A    between atoms: C_17  and  C_18
    7  A    between atoms: C_18  and  C_26
                            x       y       z     vdW  Elec       q    Type
                         _______ _______ _______ _____ _____    ______ ____

>  <TORSDO>
F 7

$$$$
=
 OpenBabel11032421293D

 26 27  0  0  1  0  0  0  0  0999 V2000
  185.8770  178.7750  139.5470 N   0  0  0  0  0  2  0  0  0  0  0  0
  187.2290  178.3660  139.7790 C   0  0  0  0  0  0  0  0  0  0  0  0
  184.8280  178.7700  140.5250 C   0  0  0  0  0  0  0  0  0  0  0  0
  188.2810  178.4000  138.6980 C   0  0  0  0  0  2  0  0  0  0  0  0
  190.7570  177.6970  139.0920 C   0  0  0  0  0  3  0  0  0  0  0  0
  189.0230  177.6440  140.7570 C   0  0  0  0  0  0  0  0  0  0  0  0
  183.1940  179.6700  138.8340 C   0  0  0  0  0  1  0  0  0  0  0  0
  183.5170  179.2080  140.1730 N   0  0  0  0  0  2  0  0  0  0  0  0
  187.6500  177.9400  140.9310 N   0  0  0  0  0  0  0  0  0  0  0  0
  191.6500  177.2240  140.0680 C   0  0  0  0  0  3  0  0  0  0  0  0
  189.4360  177.8960  139.4810 C   0  0  0  0  0  0  0  0  0  0  0  0
  189.9170  177.1680  141.7140 C   0  0  0  0  0  0  0  0  0  0  0  0
  191.2190  176.9780  141.3440 N   0  0  0  0  0  0  0  0  0  0  0  0
  185.0480  178.3790  141.7030 O   0  0  0  0  0  0  0  0  0  0  0  0
  189.4720  176.9360  143.1240 C   0  0  1  0  0  3  0  0  0  0  0  0
  189.2010  175.5830  143.3510 O   0  0  0  0  0  1  0  0  0  0  0  0
  190.4830  177.4960  144.1310 C   0  0  2  0  0  3  0  0  0  0  0  0
  191.4130  176.4380  144.7280 C   0  0  0  0  0  2  0  0  0  0  0  0
  192.0130  176.8970  145.9020 O   0  0  0  0  0  1  0  0  0  0  0  0
  189.8010  178.3200  145.2170 C   0  0  0  0  0  2  0  0  0  0  0  0
  188.5830  177.5900  145.7770 C   0  0  1  0  0  3  0  0  0  0  0  0
  188.1150  178.1600  148.2510 C   0  0  0  0  0  1  0  0  0  0  0  0
  189.3940  176.3030  147.5970 O   0  0  0  0  0  0  0  0  0  0  0  0
  188.7520  177.2780  147.2350 C   0  0  0  0  0  0  0  0  0  0  0  0
  186.2250  177.4040  144.8410 C   0  0  0  0  0  1  0  0  0  0  0  0
  187.2630  178.3130  145.4830 C   0  0  0  0  0  2  0  0  0  0  0  0
  1  2  1  0  0  0  0
  1  3  1  0  0  0  0
  2  9  2  0  0  0  0
  3 14  2  0  0  0  0
  4 11  1  0  0  0  0
  4  2  1  0  0  0  0
  5 11  2  0  0  0  0
  5 10  1  0  0  0  0
  6  9  1  0  0  0  0
  6 12  2  0  0  0  0
  7  8  1  0  0  0  0
  8  3  1  0  0  0  0
 10 13  2  0  0  0  0
 11  6  1  0  0  0  0
 12 15  1  0  0  0  0
 13 12  1  0  0  0  0
 15 16  1  1  0  0  0
 15 17  1  0  0  0  0
 17 18  1  1  0  0  0
 17 20  1  0  0  0  0
 18 19  1  0  0  0  0
 21 20  1  1  0  0  0
 21 24  1  0  0  0  0
 24 23  2  0  0  0  0
 24 22  1  0  0  0  0
 25 26  1  0  0  0  0
 26 21  1  0  0  0  0
M  END
>  <MODEL>
8

>  <REMARK>
 VINA RESULT:      -7.1      2.141      4.028
  Name = 
  7 active torsions:
  status: ('A' for Active; 'I' for Inactive)
    1  A    between atoms: C_10  and  C_16
    2  A    between atoms: C_10  and  C_18
    3  A    between atoms: C_11  and  C_16
    4  A    between atoms: C_13  and  C_16
    5  A    between atoms: C_13  and  C_23
    6  A    between atoms: C_17  and  C_18
    7  A    between atoms: C_18  and  C_26
                            x       y       z     vdW  Elec       q    Type
                         _______ _______ _______ _____ _____    ______ ____

>  <TORSDO>
F 7

$$$$
=
 OpenBabel11032421293D

 26 27  0  0  1  0  0  0  0  0999 V2000
  192.3290  176.2770  136.9530 N   0  0  0  0  0  2  0  0  0  0  0  0
  191.2950  176.7420  137.8270 C   0  0  0  0  0  0  0  0  0  0  0  0
  193.6170  175.8020  137.3690 C   0  0  0  0  0  0  0  0  0  0  0  0
  189.9620  177.2260  137.3160 C   0  0  0  0  0  2  0  0  0  0  0  0
  188.0450  178.0460  138.8770 C   0  0  0  0  0  3  0  0  0  0  0  0
  190.2030  177.2860  139.6180 C   0  0  0  0  0  0  0  0  0  0  0  0
  194.2720  175.3670  134.9770 C   0  0  0  0  0  1  0  0  0  0  0  0
  194.5650  175.3580  136.4000 N   0  0  0  0  0  2  0  0  0  0  0  0
  191.4260  176.7780  139.1190 N   0  0  0  0  0  0  0  0  0  0  0  0
  187.7000  178.2480  140.2240 C   0  0  0  0  0  3  0  0  0  0  0  0
  189.3210  177.5580  138.6120 C   0  0  0  0  0  0  0  0  0  0  0  0
  189.8510  177.4970  140.9500 C   0  0  0  0  0  0  0  0  0  0  0  0
  188.5970  177.9680  141.2200 N   0  0  0  0  0  0  0  0  0  0  0  0
  193.9280  175.7720  138.5900 O   0  0  0  0  0  0  0  0  0  0  0  0
  190.8030  177.1550  142.0520 C   0  0  1  0  0  3  0  0  0  0  0  0
  192.1260  177.3880  141.6680 O   0  0  0  0  0  1  0  0  0  0  0  0
  190.4440  177.8880  143.3500 C   0  0  2  0  0  3  0  0  0  0  0  0
  191.5850  178.7340  143.9190 C   0  0  0  0  0  2  0  0  0  0  0  0
  191.1700  180.0440  144.1640 O   0  0  0  0  0  1  0  0  0  0  0  0
  189.8760  176.9360  144.3980 C   0  0  0  0  0  2  0  0  0  0  0  0
  188.8810  177.6520  145.3080 C   0  0  1  0  0  3  0  0  0  0  0  0
  186.3550  177.7800  145.8310 C   0  0  0  0  0  1  0  0  0  0  0  0
  187.2120  176.6100  143.9840 O   0  0  0  0  0  0  0  0  0  0  0  0
  187.4650  177.2900  144.9670 C   0  0  0  0  0  0  0  0  0  0  0  0
  190.5280  176.7810  147.0390 C   0  0  0  0  0  1  0  0  0  0  0  0
  189.1900  177.4640  146.7980 C   0  0  0  0  0  2  0  0  0  0  0  0
  1  3  1  0  0  0  0
  1  2  1  0  0  0  0
  2  9  2  0  0  0  0
  3 14  2  0  0  0  0
  4  2  1  0  0  0  0
  4 11  1  0  0  0  0
  5 10  1  0  0  0  0
  6 12  2  0  0  0  0
  7  8  1  0  0  0  0
  8  3  1  0  0  0  0
  9  6  1  0  0  0  0
 10 13  2  0  0  0  0
 11  5  2  0  0  0  0
 11  6  1  0  0  0  0
 12 13  1  0  0  0  0
 12 15  1  0  0  0  0
 15 16  1  6  0  0  0
 15 17  1  0  0  0  0
 17 18  1  1  0  0  0
 17 20  1  0  0  0  0
 18 19  1  0  0  0  0
 21 20  1  6  0  0  0
 21 26  1  0  0  0  0
 23 24  2  0  0  0  0
 24 21  1  0  0  0  0
 24 22  1  0  0  0  0
 26 25  1  0  0  0  0
M  END
>  <MODEL>
9

>  <REMARK>
 VINA RESULT:      -7.0      3.184      4.922
  Name = 
  7 active torsions:
  status: ('A' for Active; 'I' for Inactive)
    1  A    between atoms: C_10  and  C_16
    2  A    between atoms: C_10  and  C_18
    3  A    between atoms: C_11  and  C_16
    4  A    between atoms: C_13  and  C_16
    5  A    between atoms: C_13  and  C_23
    6  A    between atoms: C_17  and  C_18
    7  A    between atoms: C_18  and  C_26
                            x       y       z     vdW  Elec       q    Type
                         _______ _______ _______ _____ _____    ______ ____

>  <TORSDO>
F 7

$$$$
