=
 OpenBabel11042413203D

 40 42  0  0  1  0  0  0  0  0999 V2000
  182.3640  178.9960  140.5640 C   0  0  0  0  0  2  0  0  0  0  0  0
  182.1960  176.4420  139.4270 N   0  0  0  0  0  2  0  0  0  0  0  0
  184.1560  177.9650  139.1200 N   0  0  0  0  0  0  0  0  0  0  0  0
  183.6050  174.8600  137.1660 C   0  0  0  0  0  3  0  0  0  0  0  0
  181.2980  174.5430  138.0120 C   0  0  2  0  0  3  0  0  0  0  0  0
  179.7970  176.2420  139.1960 C   0  0  0  0  0  0  0  0  0  0  0  0
  180.1020  173.6310  137.9810 C   0  0  0  0  0  2  0  0  0  0  0  0
  178.9310  175.1250  139.5930 C   0  0  0  0  0  3  0  0  0  0  0  0
  181.6090  179.5360  139.3580 C   0  0  0  0  0  2  0  0  0  0  0  0
  180.2110  179.7710  139.7140 N   0  0  0  0  0  0  0  0  0  0  0  0
  181.1160  175.9810  138.5390 C   0  0  1  0  0  3  0  0  0  0  0  0
  183.8050  175.8680  137.9480 C   0  0  0  0  0  3  0  0  0  0  0  0
  182.3590  174.1510  137.3340 N   0  0  0  0  0  0  0  0  0  0  0  0
  183.4900  176.6960  138.8890 C   0  0  0  0  0  0  0  0  0  0  0  0
  179.5100  177.4670  139.5570 C   0  0  0  0  0  0  0  0  0  0  0  0
  179.1060  173.9090  139.0750 C   0  0  0  0  0  3  0  0  0  0  0  0
  185.2160  178.4640  138.2930 C   0  0  0  0  0  3  0  0  0  0  0  0
  183.8630  178.7730  140.3110 C   0  0  2  0  0  3  0  0  0  0  0  0
  179.2590  178.7060  139.8970 C   0  0  0  0  0  3  0  0  0  0  0  0
  185.5940  177.8660  137.2490 O   0  0  0  0  0  0  0  0  0  0  0  0
  179.7740  181.1560  139.8700 C   0  0  2  0  0  3  0  0  0  0  0  0
  179.7140  181.0210  142.2520 O   0  0  0  0  0  1  0  0  0  0  0  0
  178.9320  181.3040  141.1280 C   0  0  0  0  0  2  0  0  0  0  0  0
  179.0370  181.5590  138.7540 O   0  0  0  0  0  0  0  0  0  0  0  0
  180.6880  182.4790  137.2990 C   0  0  0  0  0  1  0  0  0  0  0  0
  179.6250  182.7610  138.3500 C   0  0  0  0  0  2  0  0  0  0  0  0
  184.5100  178.1400  141.5340 C   0  0  0  0  0  2  0  0  0  0  0  0
  183.9590  178.7310  142.8210 C   0  0  0  0  0  2  0  0  0  0  0  0
  185.1000  179.1660  143.7140 C   0  0  0  0  0  2  0  0  0  0  0  0
  185.1030  178.3390  144.9840 C   0  0  0  0  0  2  0  0  0  0  0  0
  186.4120  177.6300  145.1220 C   0  0  0  0  0  0  0  0  0  0  0  0
  187.0620  177.3200  144.0480 N   0  0  0  0  0  0  0  0  0  0  0  0
  186.9600  177.3240  146.4090 N   0  0  0  0  0  0  0  0  0  0  0  0
  187.3680  178.2420  147.2210 C   0  0  0  0  0  3  0  0  0  0  0  0
  187.9260  177.8650  148.5430 C   0  0  0  0  0  1  0  0  0  0  0  0
  188.3150  176.6910  144.0970 N   0  0  0  0  0  2  0  0  0  0  0  0
  190.6030  177.7170  144.1270 C   0  0  0  0  0  0  0  0  0  0  0  0
  191.5430  178.2070  143.4520 O   0  0  0  0  0  0  0  0  0  0  0  0
  189.4450  177.2170  143.4490 N   0  0  0  0  0  2  0  0  0  0  0  0
  190.6970  177.6970  145.5150 O   0  0  0  0  0  1  0  0  0  0  0  0
  3 18  1  0  0  0  0
  4 13  2  0  0  0  0
  4 12  1  0  0  0  0
  5  7  1  6  0  0  0
  5 11  1  0  0  0  0
  6 15  2  0  0  0  0
  6  8  1  0  0  0  0
  7 16  1  0  0  0  0
  9 10  1  0  0  0  0
  9  1  1  0  0  0  0
 10 21  1  0  0  0  0
 10 19  1  0  0  0  0
 11  6  1  1  0  0  0
 11  2  1  0  0  0  0
 12 14  2  0  0  0  0
 13  5  1  0  0  0  0
 14  3  1  0  0  0  0
 14  2  1  0  0  0  0
 15 19  2  0  0  0  0
 16  8  2  0  0  0  0
 17  3  1  0  0  0  0
 18  1  1  0  0  0  0
 18 27  1  1  0  0  0
 20 17  2  0  0  0  0
 21 23  1  1  0  0  0
 23 22  1  0  0  0  0
 24 21  1  0  0  0  0
 25 26  1  0  0  0  0
 26 24  1  0  0  0  0
 27 28  1  0  0  0  0
 28 29  1  0  0  0  0
 29 30  1  0  0  0  0
 30 31  1  0  0  0  0
 31 33  1  0  0  0  0
 32 36  1  0  0  0  0
 32 31  2  0  0  0  0
 33 34  2  0  0  0  0
 34 35  1  0  0  0  0
 37 40  1  0  0  0  0
 38 37  2  0  0  0  0
 39 36  1  0  0  0  0
 39 37  1  0  0  0  0
M  END
>  <MODEL>
1

>  <REMARK>
 VINA RESULT:      -6.7      0.000      0.000
  Name = 
  12 active torsions:
  status: ('A' for Active; 'I' for Inactive)
    1  A    between atoms: C_4  and  N_20
    2  A    between atoms: C_4  and  C_36
    3  A    between atoms: C_4  and  O_37
    4  A    between atoms: C_6  and  N_11
    5  A    between atoms: C_6  and  C_26
    6  A    between atoms: N_8  and  N_18
    7  A    between atoms: N_8  and  N_22
    8  A    between atoms: C_13  and  C_25
    9  A    between atoms: C_13  and  C_33
   10  A    between atoms: C_25  and  C_26
   11  A    between atoms: C_33  and  C_34
   12  A    between atoms: O_37  and  C_40
                            x       y       z     vdW  Elec       q    Type
                         _______ _______ _______ _____ _____    ______ ____

>  <TORSDO>
F 12

$$$$
=
 OpenBabel11042413203D

 40 42  0  0  1  0  0  0  0  0999 V2000
  181.9540  178.5320  140.9720 C   0  0  0  0  0  2  0  0  0  0  0  0
  182.2590  176.2140  139.4300 N   0  0  0  0  0  2  0  0  0  0  0  0
  183.9270  178.0770  139.4690 N   0  0  0  0  0  0  0  0  0  0  0  0
  183.9700  175.2970  137.0140 C   0  0  0  0  0  3  0  0  0  0  0  0
  181.7380  174.4540  137.6840 C   0  0  2  0  0  3  0  0  0  0  0  0
  179.9390  175.6510  139.0530 C   0  0  0  0  0  0  0  0  0  0  0  0
  180.7220  173.3710  137.4480 C   0  0  0  0  0  2  0  0  0  0  0  0
  179.2750  174.3520  139.2210 C   0  0  0  0  0  3  0  0  0  0  0  0
  181.1400  179.1300  139.8340 C   0  0  0  0  0  2  0  0  0  0  0  0
  179.7150  179.0610  140.1550 N   0  0  0  0  0  0  0  0  0  0  0  0
  181.2960  175.7320  138.4270 C   0  0  1  0  0  3  0  0  0  0  0  0
  183.9740  176.1780  137.9580 C   0  0  0  0  0  3  0  0  0  0  0  0
  182.8640  174.3680  137.0040 N   0  0  0  0  0  0  0  0  0  0  0  0
  183.4990  176.7710  139.0040 C   0  0  0  0  0  0  0  0  0  0  0  0
  179.4330  176.7300  139.5920 C   0  0  0  0  0  0  0  0  0  0  0  0
  179.6700  173.2880  138.5220 C   0  0  0  0  0  3  0  0  0  0  0  0
  184.9000  178.8810  138.7870 C   0  0  0  0  0  3  0  0  0  0  0  0
  183.4730  178.6120  140.7600 C   0  0  2  0  0  3  0  0  0  0  0  0
  178.9620  177.8340  140.1160 C   0  0  0  0  0  3  0  0  0  0  0  0
  185.3970  178.5400  137.6800 O   0  0  0  0  0  0  0  0  0  0  0  0
  179.0390  180.3050  140.5120 C   0  0  2  0  0  3  0  0  0  0  0  0
  179.0050  182.5880  139.8190 O   0  0  0  0  0  1  0  0  0  0  0  0
  179.0700  181.2750  139.3410 C   0  0  0  0  0  2  0  0  0  0  0  0
  179.6490  180.8840  141.6260 O   0  0  0  0  0  0  0  0  0  0  0  0
  179.8610  179.5930  143.6210 C   0  0  0  0  0  1  0  0  0  0  0  0
  178.9320  180.3980  142.7230 C   0  0  0  0  0  2  0  0  0  0  0  0
  184.1970  177.9020  141.8950 C   0  0  0  0  0  2  0  0  0  0  0  0
  183.9420  178.5850  143.2280 C   0  0  0  0  0  2  0  0  0  0  0  0
  185.2490  179.0760  143.8100 C   0  0  0  0  0  2  0  0  0  0  0  0
  185.5560  178.3260  145.0900 C   0  0  0  0  0  2  0  0  0  0  0  0
  186.8870  177.6550  144.9750 C   0  0  0  0  0  0  0  0  0  0  0  0
  187.0940  176.8590  143.9760 N   0  0  0  0  0  0  0  0  0  0  0  0
  187.9310  177.9050  145.9240 N   0  0  0  0  0  0  0  0  0  0  0  0
  187.7580  177.7550  147.1950 C   0  0  0  0  0  3  0  0  0  0  0  0
  188.8760  178.0270  148.1310 C   0  0  0  0  0  1  0  0  0  0  0  0
  188.3300  176.2260  143.7790 N   0  0  0  0  0  2  0  0  0  0  0  0
  189.2960  177.4350  141.8050 C   0  0  0  0  0  0  0  0  0  0  0  0
  189.8550  177.3360  140.6840 O   0  0  0  0  0  0  0  0  0  0  0  0
  188.9920  176.2430  142.5400 N   0  0  0  0  0  2  0  0  0  0  0  0
  188.9630  178.6940  142.2940 O   0  0  0  0  0  1  0  0  0  0  0  0
  3 18  1  0  0  0  0
  4 12  1  0  0  0  0
  5  7  1  6  0  0  0
  5 11  1  0  0  0  0
  6  8  1  0  0  0  0
  6 15  2  0  0  0  0
  7 16  1  0  0  0  0
  9 10  1  0  0  0  0
  9  1  1  0  0  0  0
 10 21  1  0  0  0  0
 11  6  1  1  0  0  0
 11  2  1  0  0  0  0
 12 14  2  0  0  0  0
 13  4  2  0  0  0  0
 13  5  1  0  0  0  0
 14  2  1  0  0  0  0
 14  3  1  0  0  0  0
 15 19  2  0  0  0  0
 16  8  2  0  0  0  0
 17  3  1  0  0  0  0
 18  1  1  0  0  0  0
 18 27  1  1  0  0  0
 19 10  1  0  0  0  0
 20 17  2  0  0  0  0
 21 23  1  6  0  0  0
 21 24  1  0  0  0  0
 23 22  1  0  0  0  0
 24 26  1  0  0  0  0
 26 25  1  0  0  0  0
 27 28  1  0  0  0  0
 28 29  1  0  0  0  0
 29 30  1  0  0  0  0
 31 30  1  0  0  0  0
 31 33  1  0  0  0  0
 32 31  2  0  0  0  0
 33 34  2  0  0  0  0
 34 35  1  0  0  0  0
 36 32  1  0  0  0  0
 37 40  1  0  0  0  0
 37 39  1  0  0  0  0
 38 37  2  0  0  0  0
 39 36  1  0  0  0  0
M  END
>  <MODEL>
2

>  <REMARK>
 VINA RESULT:      -6.5      1.241      1.911
  Name = 
  12 active torsions:
  status: ('A' for Active; 'I' for Inactive)
    1  A    between atoms: C_4  and  N_20
    2  A    between atoms: C_4  and  C_36
    3  A    between atoms: C_4  and  O_37
    4  A    between atoms: C_6  and  N_11
    5  A    between atoms: C_6  and  C_26
    6  A    between atoms: N_8  and  N_18
    7  A    between atoms: N_8  and  N_22
    8  A    between atoms: C_13  and  C_25
    9  A    between atoms: C_13  and  C_33
   10  A    between atoms: C_25  and  C_26
   11  A    between atoms: C_33  and  C_34
   12  A    between atoms: O_37  and  C_40
                            x       y       z     vdW  Elec       q    Type
                         _______ _______ _______ _____ _____    ______ ____

>  <TORSDO>
F 12

$$$$
=
 OpenBabel11042413203D

 40 42  0  0  1  0  0  0  0  0999 V2000
  186.2060  177.5080  138.3060 C   0  0  0  0  0  2  0  0  0  0  0  0
  186.7870  175.0800  137.0360 N   0  0  0  0  0  2  0  0  0  0  0  0
  188.1150  177.1710  136.6920 N   0  0  0  0  0  0  0  0  0  0  0  0
  188.4500  174.1250  134.6020 C   0  0  0  0  0  3  0  0  0  0  0  0
  186.4470  173.0390  135.5750 C   0  0  2  0  0  3  0  0  0  0  0  0
  184.5740  174.1110  136.9490 C   0  0  0  0  0  0  0  0  0  0  0  0
  185.6140  171.7860  135.5680 C   0  0  0  0  0  2  0  0  0  0  0  0
  184.1530  172.7580  137.3360 C   0  0  0  0  0  3  0  0  0  0  0  0
  185.2230  177.8100  137.1830 C   0  0  0  0  0  2  0  0  0  0  0  0
  183.8580  177.5600  137.6420 N   0  0  0  0  0  0  0  0  0  0  0  0
  185.8490  174.3200  136.1940 C   0  0  1  0  0  3  0  0  0  0  0  0
  188.3730  175.1160  135.4270 C   0  0  0  0  0  3  0  0  0  0  0  0
  187.5200  173.0410  134.8090 N   0  0  0  0  0  0  0  0  0  0  0  0
  187.8820  175.7630  136.4320 C   0  0  0  0  0  0  0  0  0  0  0  0
  183.9340  175.1600  137.3970 C   0  0  0  0  0  0  0  0  0  0  0  0
  184.6710  171.6850  136.7390 C   0  0  0  0  0  3  0  0  0  0  0  0
  188.8860  178.0190  135.8290 C   0  0  0  0  0  3  0  0  0  0  0  0
  187.6710  177.7980  137.9450 C   0  0  2  0  0  3  0  0  0  0  0  0
  183.3210  176.2360  137.8240 C   0  0  0  0  0  3  0  0  0  0  0  0
  189.3530  177.6120  134.7300 O   0  0  0  0  0  0  0  0  0  0  0  0
  183.0090  178.7180  137.9050 C   0  0  2  0  0  3  0  0  0  0  0  0
  184.2050  180.3960  139.1090 O   0  0  0  0  0  1  0  0  0  0  0  0
  183.3350  179.3130  139.2670 C   0  0  0  0  0  2  0  0  0  0  0  0
  181.6620  178.3510  137.8570 O   0  0  0  0  0  0  0  0  0  0  0  0
  180.5560  177.9730  135.7770 C   0  0  0  0  0  1  0  0  0  0  0  0
  181.1520  179.0000  136.7290 C   0  0  0  0  0  2  0  0  0  0  0  0
  188.5840  177.3720  139.0850 C   0  0  0  0  0  2  0  0  0  0  0  0
  188.3890  178.2520  140.3090 C   0  0  0  0  0  2  0  0  0  0  0  0
  189.2900  177.7780  141.4280 C   0  0  0  0  0  2  0  0  0  0  0  0
  188.4870  176.9680  142.4260 C   0  0  0  0  0  2  0  0  0  0  0  0
  189.1090  177.0760  143.7810 C   0  0  0  0  0  0  0  0  0  0  0  0
  190.4000  177.1080  143.8680 N   0  0  0  0  0  0  0  0  0  0  0  0
  188.3060  177.1760  144.9630 N   0  0  0  0  0  0  0  0  0  0  0  0
  187.1010  177.6390  144.9410 C   0  0  0  0  0  3  0  0  0  0  0  0
  186.3160  177.7180  146.1970 C   0  0  0  0  0  1  0  0  0  0  0  0
  191.0550  177.2490  145.1000 N   0  0  0  0  0  2  0  0  0  0  0  0
  192.1250  176.1220  147.0680 C   0  0  0  0  0  0  0  0  0  0  0  0
  192.8370  175.1690  147.4740 O   0  0  0  0  0  0  0  0  0  0  0  0
  191.8020  176.2080  145.6750 N   0  0  0  0  0  2  0  0  0  0  0  0
  191.6910  177.0840  147.9750 O   0  0  0  0  0  1  0  0  0  0  0  0
  3 18  1  0  0  0  0
  4 13  2  0  0  0  0
  4 12  1  0  0  0  0
  5  7  1  6  0  0  0
  5 11  1  0  0  0  0
  6  8  1  0  0  0  0
  6 15  2  0  0  0  0
  7 16  1  0  0  0  0
  9 10  1  0  0  0  0
  9  1  1  0  0  0  0
 10 19  1  0  0  0  0
 10 21  1  0  0  0  0
 11  6  1  1  0  0  0
 11  2  1  0  0  0  0
 12 14  2  0  0  0  0
 13  5  1  0  0  0  0
 14  3  1  0  0  0  0
 14  2  1  0  0  0  0
 15 19  2  0  0  0  0
 16  8  2  0  0  0  0
 17  3  1  0  0  0  0
 18  1  1  0  0  0  0
 18 27  1  1  0  0  0
 20 17  2  0  0  0  0
 21 23  1  1  0  0  0
 22 23  1  0  0  0  0
 24 21  1  0  0  0  0
 25 26  1  0  0  0  0
 26 24  1  0  0  0  0
 27 28  1  0  0  0  0
 28 29  1  0  0  0  0
 29 30  1  0  0  0  0
 30 31  1  0  0  0  0
 31 32  2  0  0  0  0
 31 33  1  0  0  0  0
 32 36  1  0  0  0  0
 34 33  2  0  0  0  0
 34 35  1  0  0  0  0
 36 39  1  0  0  0  0
 37 38  2  0  0  0  0
 37 40  1  0  0  0  0
 39 37  1  0  0  0  0
M  END
>  <MODEL>
3

>  <REMARK>
 VINA RESULT:      -6.5      3.220      4.763
  Name = 
  12 active torsions:
  status: ('A' for Active; 'I' for Inactive)
    1  A    between atoms: C_4  and  N_20
    2  A    between atoms: C_4  and  C_36
    3  A    between atoms: C_4  and  O_37
    4  A    between atoms: C_6  and  N_11
    5  A    between atoms: C_6  and  C_26
    6  A    between atoms: N_8  and  N_18
    7  A    between atoms: N_8  and  N_22
    8  A    between atoms: C_13  and  C_25
    9  A    between atoms: C_13  and  C_33
   10  A    between atoms: C_25  and  C_26
   11  A    between atoms: C_33  and  C_34
   12  A    between atoms: O_37  and  C_40
                            x       y       z     vdW  Elec       q    Type
                         _______ _______ _______ _____ _____    ______ ____

>  <TORSDO>
F 12

$$$$
=
 OpenBabel11042413203D

 40 42  0  0  1  0  0  0  0  0999 V2000
  189.0240  177.4830  138.6200 C   0  0  0  0  0  2  0  0  0  0  0  0
  190.3610  176.0790  136.5990 N   0  0  0  0  0  2  0  0  0  0  0  0
  187.9510  175.7250  137.1650 N   0  0  0  0  0  0  0  0  0  0  0  0
  189.9180  173.4960  134.9470 C   0  0  0  0  0  3  0  0  0  0  0  0
  192.0790  174.5660  135.5170 C   0  0  2  0  0  3  0  0  0  0  0  0
  192.6110  176.1120  137.4830 C   0  0  0  0  0  0  0  0  0  0  0  0
  193.5540  174.5680  135.2210 C   0  0  0  0  0  2  0  0  0  0  0  0
  193.8580  176.4730  136.7960 C   0  0  0  0  0  3  0  0  0  0  0  0
  189.5280  176.4480  139.6150 C   0  0  0  0  0  2  0  0  0  0  0  0
  190.6590  176.9930  140.3650 N   0  0  0  0  0  0  0  0  0  0  0  0
  191.5800  175.2770  136.7910 C   0  0  1  0  0  3  0  0  0  0  0  0
  189.2530  174.3630  135.6340 C   0  0  0  0  0  3  0  0  0  0  0  0
  191.3380  173.7250  134.8220 N   0  0  0  0  0  0  0  0  0  0  0  0
  189.1190  175.4260  136.3570 C   0  0  0  0  0  0  0  0  0  0  0  0
  192.3100  176.6470  138.6390 C   0  0  0  0  0  0  0  0  0  0  0  0
  194.2650  175.7980  135.7220 C   0  0  0  0  0  3  0  0  0  0  0  0
  186.8260  174.8440  137.2870 C   0  0  0  0  0  3  0  0  0  0  0  0
  187.7930  177.0310  137.8200 C   0  0  2  0  0  3  0  0  0  0  0  0
  191.9710  177.1590  139.7950 C   0  0  0  0  0  3  0  0  0  0  0  0
  186.8080  173.6990  136.7580 O   0  0  0  0  0  0  0  0  0  0  0  0
  190.4320  177.3620  141.7590 C   0  0  2  0  0  3  0  0  0  0  0  0
  191.6510  176.1020  143.3780 O   0  0  0  0  0  1  0  0  0  0  0  0
  191.7210  177.2310  142.5550 C   0  0  0  0  0  2  0  0  0  0  0  0
  189.4420  176.5520  142.3190 O   0  0  0  0  0  0  0  0  0  0  0  0
  188.5080  177.3520  144.3640 C   0  0  0  0  0  1  0  0  0  0  0  0
  188.5020  177.4430  142.8440 C   0  0  0  0  0  2  0  0  0  0  0  0
  187.4250  178.0840  136.7870 C   0  0  0  0  0  2  0  0  0  0  0  0
  185.9830  178.5380  136.9450 C   0  0  0  0  0  2  0  0  0  0  0  0
  185.4370  178.0550  138.2700 C   0  0  0  0  0  2  0  0  0  0  0  0
  184.8110  179.2130  139.0210 C   0  0  0  0  0  2  0  0  0  0  0  0
  184.3380  178.7500  140.3610 C   0  0  0  0  0  0  0  0  0  0  0  0
  184.8890  179.2520  141.4190 N   0  0  0  0  0  0  0  0  0  0  0  0
  183.2770  177.7960  140.4870 N   0  0  0  0  0  0  0  0  0  0  0  0
  182.0840  178.0290  140.0530 C   0  0  0  0  0  3  0  0  0  0  0  0
  181.0250  177.0020  140.2090 C   0  0  0  0  0  1  0  0  0  0  0  0
  184.4710  178.8980  142.7100 N   0  0  0  0  0  2  0  0  0  0  0  0
  184.9040  179.0800  145.1730 C   0  0  0  0  0  0  0  0  0  0  0  0
  185.7650  179.1470  146.0860 O   0  0  0  0  0  1  0  0  0  0  0  0
  185.3370  178.9370  143.8150 N   0  0  0  0  0  2  0  0  0  0  0  0
  183.5550  179.1730  145.4990 O   0  0  0  0  0  0  0  0  0  0  0  0
  1  9  1  0  0  0  0
  3 17  1  0  0  0  0
  3 18  1  0  0  0  0
  4 12  1  0  0  0  0
  5  7  1  1  0  0  0
  5 11  1  0  0  0  0
  6 15  2  0  0  0  0
  7 16  1  0  0  0  0
  8  6  1  0  0  0  0
  9 10  1  0  0  0  0
 10 21  1  0  0  0  0
 11  2  1  6  0  0  0
 11  6  1  0  0  0  0
 12 14  2  0  0  0  0
 13  4  2  0  0  0  0
 13  5  1  0  0  0  0
 14  2  1  0  0  0  0
 14  3  1  0  0  0  0
 15 19  2  0  0  0  0
 16  8  2  0  0  0  0
 18 27  1  6  0  0  0
 18  1  1  0  0  0  0
 19 10  1  0  0  0  0
 20 17  2  0  0  0  0
 21 24  1  0  0  0  0
 21 23  1  1  0  0  0
 23 22  1  0  0  0  0
 24 26  1  0  0  0  0
 26 25  1  0  0  0  0
 27 28  1  0  0  0  0
 28 29  1  0  0  0  0
 29 30  1  0  0  0  0
 30 31  1  0  0  0  0
 31 33  1  0  0  0  0
 31 32  2  0  0  0  0
 32 36  1  0  0  0  0
 34 35  1  0  0  0  0
 34 33  2  0  0  0  0
 36 39  1  0  0  0  0
 37 40  2  0  0  0  0
 37 38  1  0  0  0  0
 39 37  1  0  0  0  0
M  END
>  <MODEL>
4

>  <REMARK>
 VINA RESULT:      -6.4      4.911      9.352
  Name = 
  12 active torsions:
  status: ('A' for Active; 'I' for Inactive)
    1  A    between atoms: C_4  and  N_20
    2  A    between atoms: C_4  and  C_36
    3  A    between atoms: C_4  and  O_37
    4  A    between atoms: C_6  and  N_11
    5  A    between atoms: C_6  and  C_26
    6  A    between atoms: N_8  and  N_18
    7  A    between atoms: N_8  and  N_22
    8  A    between atoms: C_13  and  C_25
    9  A    between atoms: C_13  and  C_33
   10  A    between atoms: C_25  and  C_26
   11  A    between atoms: C_33  and  C_34
   12  A    between atoms: O_37  and  C_40
                            x       y       z     vdW  Elec       q    Type
                         _______ _______ _______ _____ _____    ______ ____

>  <TORSDO>
F 12

$$$$
=
 OpenBabel11042413203D

 40 42  0  0  1  0  0  0  0  0999 V2000
  182.2720  179.2120  139.7470 C   0  0  0  0  0  2  0  0  0  0  0  0
  182.2920  176.9020  138.1640 N   0  0  0  0  0  2  0  0  0  0  0  0
  184.3660  178.0750  138.9240 N   0  0  0  0  0  0  0  0  0  0  0  0
  184.3090  175.4040  136.3500 C   0  0  0  0  0  3  0  0  0  0  0  0
  181.8370  175.3980  136.1780 C   0  0  2  0  0  3  0  0  0  0  0  0
  180.1880  177.1690  137.0040 C   0  0  0  0  0  0  0  0  0  0  0  0
  180.6620  174.7280  135.5190 C   0  0  0  0  0  2  0  0  0  0  0  0
  179.1150  176.1830  136.8190 C   0  0  0  0  0  3  0  0  0  0  0  0
  182.1370  180.0330  138.4730 C   0  0  0  0  0  2  0  0  0  0  0  0
  180.7500  180.4670  138.3090 N   0  0  0  0  0  0  0  0  0  0  0  0
  181.6210  176.7640  136.8610 C   0  0  1  0  0  3  0  0  0  0  0  0
  184.2870  176.2470  137.3280 C   0  0  0  0  0  3  0  0  0  0  0  0
  183.0300  174.9150  135.8920 N   0  0  0  0  0  0  0  0  0  0  0  0
  183.7130  176.9880  138.2180 C   0  0  0  0  0  0  0  0  0  0  0  0
  179.9180  178.3670  137.4560 C   0  0  0  0  0  0  0  0  0  0  0  0
  179.3460  175.0350  136.1830 C   0  0  0  0  0  3  0  0  0  0  0  0
  185.7200  178.4790  138.6750 C   0  0  0  0  0  3  0  0  0  0  0  0
  183.7090  178.7580  140.0460 C   0  0  2  0  0  3  0  0  0  0  0  0
  179.6920  179.5750  137.9070 C   0  0  0  0  0  3  0  0  0  0  0  0
  186.4180  177.9650  137.7600 O   0  0  0  0  0  0  0  0  0  0  0  0
  180.4470  181.8740  138.5500 C   0  0  2  0  0  3  0  0  0  0  0  0
  179.7080  181.5260  140.7920 O   0  0  0  0  0  1  0  0  0  0  0  0
  179.3020  182.0040  139.5420 C   0  0  0  0  0  2  0  0  0  0  0  0
  180.1120  182.5090  137.3510 O   0  0  0  0  0  0  0  0  0  0  0  0
  181.0010  184.2050  135.9280 C   0  0  0  0  0  1  0  0  0  0  0  0
  180.8470  183.6970  137.3550 C   0  0  0  0  0  2  0  0  0  0  0  0
  183.7280  177.8640  141.2760 C   0  0  0  0  0  2  0  0  0  0  0  0
  184.3310  178.5810  142.4730 C   0  0  0  0  0  2  0  0  0  0  0  0
  185.8370  178.4430  142.4480 C   0  0  0  0  0  2  0  0  0  0  0  0
  186.3130  177.7630  143.7170 C   0  0  0  0  0  2  0  0  0  0  0  0
  187.7730  177.4620  143.6110 C   0  0  0  0  0  0  0  0  0  0  0  0
  188.3760  177.7110  142.4930 N   0  0  0  0  0  0  0  0  0  0  0  0
  188.5080  176.9410  144.7240 N   0  0  0  0  0  0  0  0  0  0  0  0
  188.6190  177.5830  145.8390 C   0  0  0  0  0  3  0  0  0  0  0  0
  189.3920  176.9930  146.9590 C   0  0  0  0  0  1  0  0  0  0  0  0
  189.7530  177.4930  142.3310 N   0  0  0  0  0  2  0  0  0  0  0  0
  190.2470  176.8250  139.9650 C   0  0  0  0  0  0  0  0  0  0  0  0
  190.6920  175.9370  139.1960 O   0  0  0  0  0  0  0  0  0  0  0  0
  190.2630  176.5960  141.3790 N   0  0  0  0  0  2  0  0  0  0  0  0
  189.7280  177.9980  139.4260 O   0  0  0  0  0  1  0  0  0  0  0  0
  1 18  1  0  0  0  0
  2 14  1  0  0  0  0
  3 18  1  0  0  0  0
  4 12  1  0  0  0  0
  5  7  1  6  0  0  0
  5 11  1  0  0  0  0
  6 15  2  0  0  0  0
  7 16  1  0  0  0  0
  8  6  1  0  0  0  0
  9  1  1  0  0  0  0
 10  9  1  0  0  0  0
 10 21  1  0  0  0  0
 11  6  1  1  0  0  0
 11  2  1  0  0  0  0
 12 14  2  0  0  0  0
 13  5  1  0  0  0  0
 13  4  2  0  0  0  0
 14  3  1  0  0  0  0
 15 19  2  0  0  0  0
 16  8  2  0  0  0  0
 17  3  1  0  0  0  0
 18 27  1  1  0  0  0
 19 10  1  0  0  0  0
 20 17  2  0  0  0  0
 21 23  1  1  0  0  0
 23 22  1  0  0  0  0
 24 26  1  0  0  0  0
 24 21  1  0  0  0  0
 25 26  1  0  0  0  0
 27 28  1  0  0  0  0
 29 28  1  0  0  0  0
 29 30  1  0  0  0  0
 31 30  1  0  0  0  0
 31 33  1  0  0  0  0
 32 31  2  0  0  0  0
 33 34  2  0  0  0  0
 34 35  1  0  0  0  0
 36 32  1  0  0  0  0
 37 39  1  0  0  0  0
 38 37  2  0  0  0  0
 39 36  1  0  0  0  0
 40 37  1  0  0  0  0
M  END
>  <MODEL>
5

>  <REMARK>
 VINA RESULT:      -6.4      2.051      2.273
  Name = 
  12 active torsions:
  status: ('A' for Active; 'I' for Inactive)
    1  A    between atoms: C_4  and  N_20
    2  A    between atoms: C_4  and  C_36
    3  A    between atoms: C_4  and  O_37
    4  A    between atoms: C_6  and  N_11
    5  A    between atoms: C_6  and  C_26
    6  A    between atoms: N_8  and  N_18
    7  A    between atoms: N_8  and  N_22
    8  A    between atoms: C_13  and  C_25
    9  A    between atoms: C_13  and  C_33
   10  A    between atoms: C_25  and  C_26
   11  A    between atoms: C_33  and  C_34
   12  A    between atoms: O_37  and  C_40
                            x       y       z     vdW  Elec       q    Type
                         _______ _______ _______ _____ _____    ______ ____

>  <TORSDO>
F 12

$$$$
=
 OpenBabel11042413203D

 40 42  0  0  1  0  0  0  0  0999 V2000
  182.1660  178.7130  140.6910 C   0  0  0  0  0  2  0  0  0  0  0  0
  182.2910  176.2600  139.3460 N   0  0  0  0  0  2  0  0  0  0  0  0
  184.1350  177.9490  139.3140 N   0  0  0  0  0  0  0  0  0  0  0  0
  183.9850  174.9900  137.0830 C   0  0  0  0  0  3  0  0  0  0  0  0
  181.6580  174.4250  137.7190 C   0  0  2  0  0  3  0  0  0  0  0  0
  179.9410  175.8970  138.9130 C   0  0  0  0  0  0  0  0  0  0  0  0
  180.5470  173.4290  137.5230 C   0  0  0  0  0  2  0  0  0  0  0  0
  179.1440  174.6860  139.1520 C   0  0  0  0  0  3  0  0  0  0  0  0
  181.4570  179.2940  139.4770 C   0  0  0  0  0  2  0  0  0  0  0  0
  180.0220  179.3900  139.7410 N   0  0  0  0  0  0  0  0  0  0  0  0
  181.3200  175.7950  138.3420 C   0  0  1  0  0  3  0  0  0  0  0  0
  184.0440  175.9390  137.9560 C   0  0  0  0  0  3  0  0  0  0  0  0
  182.7930  174.1750  137.0960 N   0  0  0  0  0  0  0  0  0  0  0  0
  183.5950  176.6570  138.9320 C   0  0  0  0  0  0  0  0  0  0  0  0
  179.5270  177.0600  139.3460 C   0  0  0  0  0  0  0  0  0  0  0  0
  179.4550  173.5360  138.5540 C   0  0  0  0  0  3  0  0  0  0  0  0
  185.2070  178.5970  138.6140 C   0  0  0  0  0  3  0  0  0  0  0  0
  183.6920  178.6280  140.5400 C   0  0  2  0  0  3  0  0  0  0  0  0
  179.1510  178.2430  139.7630 C   0  0  0  0  0  3  0  0  0  0  0  0
  185.7060  178.1210  137.5590 O   0  0  0  0  0  0  0  0  0  0  0  0
  179.4620  180.7180  139.9720 C   0  0  2  0  0  3  0  0  0  0  0  0
  179.1860  182.8800  138.9990 O   0  0  0  0  0  1  0  0  0  0  0  0
  179.8400  181.6540  138.8340 C   0  0  0  0  0  2  0  0  0  0  0  0
  179.9240  181.2330  141.1850 O   0  0  0  0  0  0  0  0  0  0  0  0
  179.6600  180.0480  143.2390 C   0  0  0  0  0  1  0  0  0  0  0  0
  178.9750  180.8350  142.1300 C   0  0  0  0  0  2  0  0  0  0  0  0
  184.3000  177.9440  141.7550 C   0  0  0  0  0  2  0  0  0  0  0  0
  184.8070  178.9590  142.7660 C   0  0  0  0  0  2  0  0  0  0  0  0
  185.4180  178.2420  143.9500 C   0  0  0  0  0  2  0  0  0  0  0  0
  186.4160  177.2100  143.4660 C   0  0  0  0  0  2  0  0  0  0  0  0
  187.7590  177.4890  144.0620 C   0  0  0  0  0  0  0  0  0  0  0  0
  187.8370  177.7010  145.3360 N   0  0  0  0  0  0  0  0  0  0  0  0
  188.9440  177.4910  143.2580 N   0  0  0  0  0  0  0  0  0  0  0  0
  188.9540  177.0550  142.0430 C   0  0  0  0  0  3  0  0  0  0  0  0
  190.2120  177.0840  141.2570 C   0  0  0  0  0  1  0  0  0  0  0  0
  189.0660  177.9280  145.9740 N   0  0  0  0  0  2  0  0  0  0  0  0
  191.0430  176.6010  146.7600 C   0  0  0  0  0  0  0  0  0  0  0  0
  191.4660  175.7050  147.5330 O   0  0  0  0  0  1  0  0  0  0  0  0
  189.6620  176.9760  146.8170 N   0  0  0  0  0  2  0  0  0  0  0  0
  191.9170  177.1880  145.8510 O   0  0  0  0  0  0  0  0  0  0  0  0
  3 18  1  0  0  0  0
  4 13  2  0  0  0  0
  4 12  1  0  0  0  0
  5  7  1  6  0  0  0
  5 11  1  0  0  0  0
  6  8  1  0  0  0  0
  6 15  2  0  0  0  0
  7 16  1  0  0  0  0
  9 10  1  0  0  0  0
  9  1  1  0  0  0  0
 10 19  1  0  0  0  0
 10 21  1  0  0  0  0
 11  6  1  1  0  0  0
 11  2  1  0  0  0  0
 12 14  2  0  0  0  0
 13  5  1  0  0  0  0
 14  3  1  0  0  0  0
 14  2  1  0  0  0  0
 15 19  2  0  0  0  0
 16  8  2  0  0  0  0
 17  3  1  0  0  0  0
 18  1  1  0  0  0  0
 18 27  1  1  0  0  0
 20 17  2  0  0  0  0
 21 23  1  6  0  0  0
 21 24  1  0  0  0  0
 23 22  1  0  0  0  0
 24 26  1  0  0  0  0
 26 25  1  0  0  0  0
 27 28  1  0  0  0  0
 28 29  1  0  0  0  0
 30 29  1  0  0  0  0
 30 31  1  0  0  0  0
 31 32  2  0  0  0  0
 32 36  1  0  0  0  0
 33 31  1  0  0  0  0
 34 33  2  0  0  0  0
 35 34  1  0  0  0  0
 36 39  1  0  0  0  0
 37 39  1  0  0  0  0
 37 38  1  0  0  0  0
 40 37  2  0  0  0  0
M  END
>  <MODEL>
6

>  <REMARK>
 VINA RESULT:      -6.4      1.362      2.542
  Name = 
  12 active torsions:
  status: ('A' for Active; 'I' for Inactive)
    1  A    between atoms: C_4  and  N_20
    2  A    between atoms: C_4  and  C_36
    3  A    between atoms: C_4  and  O_37
    4  A    between atoms: C_6  and  N_11
    5  A    between atoms: C_6  and  C_26
    6  A    between atoms: N_8  and  N_18
    7  A    between atoms: N_8  and  N_22
    8  A    between atoms: C_13  and  C_25
    9  A    between atoms: C_13  and  C_33
   10  A    between atoms: C_25  and  C_26
   11  A    between atoms: C_33  and  C_34
   12  A    between atoms: O_37  and  C_40
                            x       y       z     vdW  Elec       q    Type
                         _______ _______ _______ _____ _____    ______ ____

>  <TORSDO>
F 12

$$$$
=
 OpenBabel11042413203D

 40 42  0  0  1  0  0  0  0  0999 V2000
  182.3810  177.4200  139.5590 C   0  0  0  0  0  2  0  0  0  0  0  0
  181.1050  179.8740  139.1200 N   0  0  0  0  0  2  0  0  0  0  0  0
  181.1150  178.6970  141.3260 N   0  0  0  0  0  0  0  0  0  0  0  0
  178.9540  181.6040  140.5270 C   0  0  0  0  0  3  0  0  0  0  0  0
  179.4970  181.5510  138.1100 C   0  0  2  0  0  3  0  0  0  0  0  0
  180.5740  179.6570  136.7710 C   0  0  0  0  0  0  0  0  0  0  0  0
  179.2750  182.2460  136.7950 C   0  0  0  0  0  2  0  0  0  0  0  0
  180.8070  180.6220  135.6890 C   0  0  0  0  0  3  0  0  0  0  0  0
  181.1210  176.7240  139.0640 C   0  0  0  0  0  2  0  0  0  0  0  0
  181.3170  176.2660  137.6900 N   0  0  0  0  0  0  0  0  0  0  0  0
  180.0700  180.1180  138.1020 C   0  0  1  0  0  3  0  0  0  0  0  0
  179.8050  180.6690  140.7880 C   0  0  0  0  0  3  0  0  0  0  0  0
  178.9340  182.0960  139.1700 N   0  0  0  0  0  0  0  0  0  0  0  0
  180.7410  179.8270  140.4960 C   0  0  0  0  0  0  0  0  0  0  0  0
  180.9590  178.4130  136.6450 C   0  0  0  0  0  0  0  0  0  0  0  0
  180.2530  181.8340  135.7260 C   0  0  0  0  0  3  0  0  0  0  0  0
  180.4490  178.3610  142.5520 C   0  0  0  0  0  3  0  0  0  0  0  0
  182.3020  177.8870  141.0200 C   0  0  2  0  0  3  0  0  0  0  0  0
  181.3290  177.1600  136.5600 C   0  0  0  0  0  3  0  0  0  0  0  0
  179.4300  178.9840  142.9560 O   0  0  0  0  0  0  0  0  0  0  0  0
  181.4890  174.8330  137.4710 C   0  0  2  0  0  3  0  0  0  0  0  0
  183.8100  174.5290  137.9350 O   0  0  0  0  0  1  0  0  0  0  0  0
  182.8700  174.5490  136.9000 C   0  0  0  0  0  2  0  0  0  0  0  0
  180.5070  174.3560  136.5990 O   0  0  0  0  0  0  0  0  0  0  0  0
  179.3310  173.3650  138.4230 C   0  0  0  0  0  1  0  0  0  0  0  0
  180.1120  173.1290  137.1380 C   0  0  0  0  0  2  0  0  0  0  0  0
  183.5600  178.6560  141.3920 C   0  0  0  0  0  2  0  0  0  0  0  0
  184.0550  178.2750  142.7780 C   0  0  0  0  0  2  0  0  0  0  0  0
  185.5550  178.4570  142.8550 C   0  0  0  0  0  2  0  0  0  0  0  0
  186.0110  178.3560  144.2960 C   0  0  0  0  0  2  0  0  0  0  0  0
  187.2930  177.5900  144.3680 C   0  0  0  0  0  0  0  0  0  0  0  0
  187.6090  176.8210  143.3770 N   0  0  0  0  0  0  0  0  0  0  0  0
  188.1760  177.7210  145.4870 N   0  0  0  0  0  0  0  0  0  0  0  0
  187.8050  177.4530  146.6950 C   0  0  0  0  0  3  0  0  0  0  0  0
  188.7650  177.6060  147.8150 C   0  0  0  0  0  1  0  0  0  0  0  0
  188.8130  176.1020  143.3530 N   0  0  0  0  0  2  0  0  0  0  0  0
  190.8550  177.3050  142.5330 C   0  0  0  0  0  0  0  0  0  0  0  0
  191.6710  177.4670  141.5910 O   0  0  0  0  0  0  0  0  0  0  0  0
  189.8080  176.3380  142.3900 N   0  0  0  0  0  2  0  0  0  0  0  0
  190.9710  178.0850  143.6790 O   0  0  0  0  0  1  0  0  0  0  0  0
  1 18  1  0  0  0  0
  2 14  1  0  0  0  0
  3 17  1  0  0  0  0
  4 12  1  0  0  0  0
  5  7  1  6  0  0  0
  5 13  1  0  0  0  0
  8 16  2  0  0  0  0
  8  6  1  0  0  0  0
  9  1  1  0  0  0  0
 10  9  1  0  0  0  0
 11  6  1  6  0  0  0
 11  5  1  0  0  0  0
 11  2  1  0  0  0  0
 13  4  2  0  0  0  0
 14 12  2  0  0  0  0
 14  3  1  0  0  0  0
 15  6  2  0  0  0  0
 16  7  1  0  0  0  0
 17 20  2  0  0  0  0
 18  3  1  0  0  0  0
 18 27  1  6  0  0  0
 19 15  2  0  0  0  0
 19 10  1  0  0  0  0
 21 23  1  6  0  0  0
 21 10  1  0  0  0  0
 23 22  1  0  0  0  0
 24 26  1  0  0  0  0
 24 21  1  0  0  0  0
 26 25  1  0  0  0  0
 27 28  1  0  0  0  0
 28 29  1  0  0  0  0
 29 30  1  0  0  0  0
 30 31  1  0  0  0  0
 31 33  1  0  0  0  0
 32 31  2  0  0  0  0
 33 34  2  0  0  0  0
 34 35  1  0  0  0  0
 36 32  1  0  0  0  0
 37 40  1  0  0  0  0
 38 37  2  0  0  0  0
 39 37  1  0  0  0  0
 39 36  1  0  0  0  0
M  END
>  <MODEL>
7

>  <REMARK>
 VINA RESULT:      -6.3      1.970      5.444
  Name = 
  12 active torsions:
  status: ('A' for Active; 'I' for Inactive)
    1  A    between atoms: C_4  and  N_20
    2  A    between atoms: C_4  and  C_36
    3  A    between atoms: C_4  and  O_37
    4  A    between atoms: C_6  and  N_11
    5  A    between atoms: C_6  and  C_26
    6  A    between atoms: N_8  and  N_18
    7  A    between atoms: N_8  and  N_22
    8  A    between atoms: C_13  and  C_25
    9  A    between atoms: C_13  and  C_33
   10  A    between atoms: C_25  and  C_26
   11  A    between atoms: C_33  and  C_34
   12  A    between atoms: O_37  and  C_40
                            x       y       z     vdW  Elec       q    Type
                         _______ _______ _______ _____ _____    ______ ____

>  <TORSDO>
F 12

$$$$
=
 OpenBabel11042413203D

 40 42  0  0  1  0  0  0  0  0999 V2000
  186.2310  177.7850  139.2230 C   0  0  0  0  0  2  0  0  0  0  0  0
  186.7180  175.5960  137.5450 N   0  0  0  0  0  2  0  0  0  0  0  0
  188.1100  177.6740  137.5440 N   0  0  0  0  0  0  0  0  0  0  0  0
  188.3220  175.0260  134.9550 C   0  0  0  0  0  3  0  0  0  0  0  0
  186.2950  173.8490  135.7600 C   0  0  2  0  0  3  0  0  0  0  0  0
  184.4740  174.7240  137.3280 C   0  0  0  0  0  0  0  0  0  0  0  0
  185.4210  172.6430  135.5510 C   0  0  0  0  0  2  0  0  0  0  0  0
  184.0120  173.3390  137.4830 C   0  0  0  0  0  3  0  0  0  0  0  0
  185.2460  178.3060  138.1860 C   0  0  0  0  0  2  0  0  0  0  0  0
  183.8790  178.0220  138.6170 N   0  0  0  0  0  0  0  0  0  0  0  0
  185.7470  175.0210  136.6000 C   0  0  1  0  0  3  0  0  0  0  0  0
  188.2860  175.8610  135.9400 C   0  0  0  0  0  3  0  0  0  0  0  0
  187.3590  173.9510  134.9870 N   0  0  0  0  0  0  0  0  0  0  0  0
  187.8280  176.3390  137.0490 C   0  0  0  0  0  0  0  0  0  0  0  0
  183.8730  175.6990  137.9610 C   0  0  0  0  0  0  0  0  0  0  0  0
  184.4890  172.3700  136.7010 C   0  0  0  0  0  3  0  0  0  0  0  0
  188.8990  178.6340  136.8270 C   0  0  0  0  0  3  0  0  0  0  0  0
  187.7010  178.0880  138.8930 C   0  0  2  0  0  3  0  0  0  0  0  0
  183.3010  176.7030  138.5760 C   0  0  0  0  0  3  0  0  0  0  0  0
  189.3400  178.4090  135.6680 O   0  0  0  0  0  0  0  0  0  0  0  0
  183.0710  179.1430  139.0900 C   0  0  2  0  0  3  0  0  0  0  0  0
  183.2170  178.8310  141.4510 O   0  0  0  0  0  1  0  0  0  0  0  0
  182.3370  178.7620  140.3660 C   0  0  0  0  0  2  0  0  0  0  0  0
  182.1520  179.5240  138.1090 O   0  0  0  0  0  0  0  0  0  0  0  0
  181.1920  181.7010  137.9290 C   0  0  0  0  0  1  0  0  0  0  0  0
  181.2940  180.4230  138.7490 C   0  0  0  0  0  2  0  0  0  0  0  0
  188.6110  177.4440  139.9280 C   0  0  0  0  0  2  0  0  0  0  0  0
  188.5750  178.1990  141.2460 C   0  0  0  0  0  2  0  0  0  0  0  0
  189.5640  177.5890  142.2140 C   0  0  0  0  0  2  0  0  0  0  0  0
  188.8760  176.5300  143.0520 C   0  0  0  0  0  2  0  0  0  0  0  0
  188.5280  177.0950  144.3920 C   0  0  0  0  0  0  0  0  0  0  0  0
  187.3180  177.5060  144.5940 N   0  0  0  0  0  0  0  0  0  0  0  0
  189.4940  177.1540  145.4480 N   0  0  0  0  0  0  0  0  0  0  0  0
  190.6670  176.6250  145.3410 C   0  0  0  0  0  3  0  0  0  0  0  0
  191.6270  176.7200  146.4680 C   0  0  0  0  0  1  0  0  0  0  0  0
  186.9060  178.0100  145.8370 N   0  0  0  0  0  2  0  0  0  0  0  0
  184.6030  178.9100  145.4190 C   0  0  0  0  0  0  0  0  0  0  0  0
  183.4200  179.0040  145.8360 O   0  0  0  0  0  1  0  0  0  0  0  0
  185.5500  178.1480  146.1770 N   0  0  0  0  0  2  0  0  0  0  0  0
  184.9690  179.5660  144.2490 O   0  0  0  0  0  0  0  0  0  0  0  0
  3 18  1  0  0  0  0
  4 13  2  0  0  0  0
  4 12  1  0  0  0  0
  5  7  1  6  0  0  0
  5 11  1  0  0  0  0
  6  8  1  0  0  0  0
  6 15  2  0  0  0  0
  7 16  1  0  0  0  0
  9 10  1  0  0  0  0
  9  1  1  0  0  0  0
 10 21  1  0  0  0  0
 11  6  1  1  0  0  0
 11  2  1  0  0  0  0
 12 14  2  0  0  0  0
 13  5  1  0  0  0  0
 14  3  1  0  0  0  0
 14  2  1  0  0  0  0
 15 19  2  0  0  0  0
 16  8  2  0  0  0  0
 17  3  1  0  0  0  0
 18  1  1  0  0  0  0
 18 27  1  1  0  0  0
 19 10  1  0  0  0  0
 20 17  2  0  0  0  0
 21 23  1  1  0  0  0
 23 22  1  0  0  0  0
 24 26  1  0  0  0  0
 24 21  1  0  0  0  0
 25 26  1  0  0  0  0
 27 28  1  0  0  0  0
 28 29  1  0  0  0  0
 29 30  1  0  0  0  0
 30 31  1  0  0  0  0
 31 32  2  0  0  0  0
 31 33  1  0  0  0  0
 32 36  1  0  0  0  0
 34 33  2  0  0  0  0
 34 35  1  0  0  0  0
 36 39  1  0  0  0  0
 37 38  1  0  0  0  0
 37 39  1  0  0  0  0
 40 37  2  0  0  0  0
M  END
>  <MODEL>
8

>  <REMARK>
 VINA RESULT:      -6.2      3.040      4.691
  Name = 
  12 active torsions:
  status: ('A' for Active; 'I' for Inactive)
    1  A    between atoms: C_4  and  N_20
    2  A    between atoms: C_4  and  C_36
    3  A    between atoms: C_4  and  O_37
    4  A    between atoms: C_6  and  N_11
    5  A    between atoms: C_6  and  C_26
    6  A    between atoms: N_8  and  N_18
    7  A    between atoms: N_8  and  N_22
    8  A    between atoms: C_13  and  C_25
    9  A    between atoms: C_13  and  C_33
   10  A    between atoms: C_25  and  C_26
   11  A    between atoms: C_33  and  C_34
   12  A    between atoms: O_37  and  C_40
                            x       y       z     vdW  Elec       q    Type
                         _______ _______ _______ _____ _____    ______ ____

>  <TORSDO>
F 12

$$$$
=
 OpenBabel11042413203D

 40 42  0  0  1  0  0  0  0  0999 V2000
  181.8490  179.1690  137.4930 C   0  0  0  0  0  2  0  0  0  0  0  0
  180.9960  177.8670  139.8210 N   0  0  0  0  0  2  0  0  0  0  0  0
  181.0920  176.7650  137.5780 N   0  0  0  0  0  0  0  0  0  0  0  0
  179.4130  175.3040  140.5450 C   0  0  0  0  0  3  0  0  0  0  0  0
  179.6010  177.3840  141.8790 C   0  0  0  0  0  0  0  0  0  0  0  0
  180.1180  179.7500  141.0580 C   0  0  0  0  0  0  0  0  0  0  0  0
  179.3320  177.9970  143.2260 C   0  0  0  0  0  2  0  0  0  0  0  0
  180.3730  180.1240  142.4550 C   0  0  0  0  0  3  0  0  0  0  0  0
  180.4270  179.6800  137.3080 C   0  0  0  0  0  2  0  0  0  0  0  0
  180.3450  181.0770  137.7300 N   0  0  0  0  0  0  0  0  0  0  0  0
  179.8940  178.3180  140.6870 C   0  0  1  0  0  3  0  0  0  0  0  0
  180.1050  175.8050  139.5770 C   0  0  0  0  0  3  0  0  0  0  0  0
  179.2970  176.1080  141.7390 N   0  0  0  0  0  0  0  0  0  0  0  0
  180.8220  176.7140  139.0030 C   0  0  2  0  0  3  0  0  0  0  0  0
  180.2470  180.6320  140.1000 C   0  0  0  0  0  0  0  0  0  0  0  0
  180.0620  179.2950  143.4510 C   0  0  0  0  0  3  0  0  0  0  0  0
  180.5500  175.8290  136.6360 C   0  0  0  0  0  3  0  0  0  0  0  0
  182.0570  177.7220  137.0200 C   0  0  2  0  0  3  0  0  0  0  0  0
  180.3650  181.4820  139.1120 C   0  0  0  0  0  3  0  0  0  0  0  0
  179.7280  174.9350  136.9740 O   0  0  0  0  0  0  0  0  0  0  0  0
  180.2190  182.0930  136.6880 C   0  0  2  0  0  3  0  0  0  0  0  0
  179.0630  181.4790  134.6930 O   0  0  0  0  0  1  0  0  0  0  0  0
  180.3170  181.4520  135.3120 C   0  0  0  0  0  2  0  0  0  0  0  0
  181.2160  183.0600  136.8340 O   0  0  0  0  0  0  0  0  0  0  0  0
  180.7760  184.9410  135.4330 C   0  0  0  0  0  1  0  0  0  0  0  0
  180.5410  184.2830  136.7850 C   0  0  0  0  0  2  0  0  0  0  0  0
  183.4740  177.2680  137.3360 C   0  0  0  0  0  2  0  0  0  0  0  0
  184.2480  178.3440  138.0810 C   0  0  0  0  0  2  0  0  0  0  0  0
  184.4000  177.9520  139.5340 C   0  0  0  0  0  2  0  0  0  0  0  0
  184.4460  179.1950  140.4000 C   0  0  0  0  0  2  0  0  0  0  0  0
  185.4030  178.9880  141.5300 C   0  0  0  0  0  0  0  0  0  0  0  0
  186.5920  178.5540  141.2610 N   0  0  0  0  0  0  0  0  0  0  0  0
  185.0360  179.2910  142.8800 N   0  0  0  0  0  0  0  0  0  0  0  0
  184.1140  178.6400  143.5080 C   0  0  0  0  0  3  0  0  0  0  0  0
  183.7770  178.9980  144.9070 C   0  0  0  0  0  1  0  0  0  0  0  0
  187.5580  178.3740  142.2630 N   0  0  0  0  0  2  0  0  0  0  0  0
  189.1750  176.4690  142.4730 C   0  0  0  0  0  0  0  0  0  0  0  0
  190.3290  176.0390  142.2240 O   0  0  0  0  0  0  0  0  0  0  0  0
  188.8000  177.7700  142.0070 N   0  0  0  0  0  2  0  0  0  0  0  0
  188.3000  175.6840  143.2170 O   0  0  0  0  0  1  0  0  0  0  0  0
  3 14  1  0  0  0  0
  4 13  1  0  0  0  0
  5  7  1  0  0  0  0
  6  8  1  0  0  0  0
  7 16  1  0  0  0  0
  8 16  2  0  0  0  0
  9  1  1  0  0  0  0
  9 10  1  0  0  0  0
 10 19  1  0  0  0  0
 11  2  1  1  0  0  0
 11  6  1  0  0  0  0
 11  5  1  0  0  0  0
 12  4  2  0  0  0  0
 13  5  2  0  0  0  0
 14 12  1  6  0  0  0
 14  2  1  0  0  0  0
 15  6  2  0  0  0  0
 17 20  2  0  0  0  0
 17  3  1  0  0  0  0
 18 27  1  1  0  0  0
 18  1  1  0  0  0  0
 18  3  1  0  0  0  0
 19 15  2  0  0  0  0
 21 23  1  6  0  0  0
 21 24  1  0  0  0  0
 21 10  1  0  0  0  0
 22 23  1  0  0  0  0
 25 26  1  0  0  0  0
 26 24  1  0  0  0  0
 27 28  1  0  0  0  0
 28 29  1  0  0  0  0
 29 30  1  0  0  0  0
 30 31  1  0  0  0  0
 31 33  1  0  0  0  0
 32 31  2  0  0  0  0
 32 36  1  0  0  0  0
 33 34  2  0  0  0  0
 34 35  1  0  0  0  0
 37 40  1  0  0  0  0
 38 37  2  0  0  0  0
 39 36  1  0  0  0  0
 39 37  1  0  0  0  0
M  END
>  <MODEL>
9

>  <REMARK>
 VINA RESULT:      -6.0      2.691      4.395
  Name = 
  12 active torsions:
  status: ('A' for Active; 'I' for Inactive)
    1  A    between atoms: C_4  and  N_20
    2  A    between atoms: C_4  and  C_36
    3  A    between atoms: C_4  and  O_37
    4  A    between atoms: C_6  and  N_11
    5  A    between atoms: C_6  and  C_26
    6  A    between atoms: N_8  and  N_18
    7  A    between atoms: N_8  and  N_22
    8  A    between atoms: C_13  and  C_25
    9  A    between atoms: C_13  and  C_33
   10  A    between atoms: C_25  and  C_26
   11  A    between atoms: C_33  and  C_34
   12  A    between atoms: O_37  and  C_40
                            x       y       z     vdW  Elec       q    Type
                         _______ _______ _______ _____ _____    ______ ____

>  <TORSDO>
F 12

$$$$
