=
 OpenBabel11042412413D

 43 46  0  0  1  0  0  0  0  0999 V2000
  189.7580  177.4730  141.6600 O   0  0  0  0  0  0  0  0  0  0  0  0
  186.4910  177.4640  138.3510 O   0  0  0  0  0  0  0  0  0  0  0  0
  185.7760  178.6590  138.5120 C   0  0  2  0  0  3  0  0  0  0  0  0
  184.2650  179.4220  140.3410 O   0  0  0  0  0  1  0  0  0  0  0  0
  187.5980  177.7530  137.6780 O   0  0  0  0  0  0  0  0  0  0  0  0
  187.7660  178.1330  140.9270 C   0  0  0  0  0  0  0  0  0  0  0  0
  188.5260  177.7470  142.0390 C   0  0  0  0  0  0  0  0  0  0  0  0
  188.6470  178.0530  139.8600 C   0  0  0  0  0  0  0  0  0  0  0  0
  185.4950  178.8880  139.9760 C   0  0  0  0  0  0  0  0  0  0  0  0
  188.4000  178.4680  138.5190 N   0  0  0  0  0  2  0  0  0  0  0  0
  189.8580  177.6640  140.3680 C   0  0  0  0  0  0  0  0  0  0  0  0
  186.3670  178.6370  140.9660 C   0  0  0  0  0  3  0  0  0  0  0  0
  186.7200  177.5260  143.7660 C   0  0  0  0  0  3  0  0  0  0  0  0
  188.0820  177.6570  143.4540 C   0  0  0  0  0  0  0  0  0  0  0  0
  186.2920  177.4580  145.0920 C   0  0  0  0  0  3  0  0  0  0  0  0
  187.2220  177.5210  146.1280 C   0  0  0  0  0  3  0  0  0  0  0  0
  189.0190  177.7180  144.5090 C   0  0  0  0  0  0  0  0  0  0  0  0
  188.5880  177.6490  145.8440 C   0  0  0  0  0  0  0  0  0  0  0  0
  190.3500  177.8290  144.2450 F   0  0  0  0  0  0  0  0  0  0  0  0
  189.5900  177.7230  146.9590 C   0  0  2  0  0  3  0  0  0  0  0  0
  191.3450  176.4120  147.3090 C   0  0  0  0  0  1  0  0  0  0  0  0
  189.9510  176.4380  147.3780 O   0  0  0  0  0  0  0  0  0  0  0  0
  189.0320  178.5080  148.1060 C   0  0  0  0  0  3  0  0  0  0  0  0
  188.3090  177.9110  149.0490 C   0  0  0  0  0  2  0  0  0  0  0  0
  191.0570  177.4980  139.6060 N   0  0  0  0  0  2  0  0  0  0  0  0
  191.3250  176.3710  138.7680 C   0  0  0  0  0  0  0  0  0  0  0  0
  192.6080  176.3050  138.0200 C   0  0  0  0  0  1  0  0  0  0  0  0
  190.4910  175.4340  138.6540 O   0  0  0  0  0  0  0  0  0  0  0  0
  184.4890  178.5940  137.6950 C   0  0  0  0  0  2  0  0  0  0  0  0
  183.8440  177.2180  137.7950 C   0  0  0  0  0  2  0  0  0  0  0  0
  182.4840  177.3060  138.4030 C   0  0  0  0  0  3  0  0  0  0  0  0
  181.8080  178.4450  138.3800 C   0  0  0  0  0  3  0  0  0  0  0  0
  180.5330  178.5140  138.9400 O   0  0  0  0  0  0  0  0  0  0  0  0
  179.9810  179.7410  139.4160 C   0  0  1  0  0  3  0  0  0  0  0  0
  180.9540  179.3690  142.7980 C   0  0  0  0  0  2  0  0  0  0  0  0
  180.5240  178.6220  141.5770 C   0  0  0  0  0  2  0  0  0  0  0  0
  179.6710  179.6530  140.9100 C   0  0  1  0  0  3  0  0  0  0  0  0
  179.9900  180.8610  141.5410 O   0  0  0  0  0  0  0  0  0  0  0  0
  180.1980  180.5490  142.8160 O   0  0  0  0  0  0  0  0  0  0  0  0
  180.9160  180.9110  139.1160 C   0  0  0  0  0  2  0  0  0  0  0  0
  181.0080  182.3960  137.2530 O   0  0  0  0  0  0  0  0  0  0  0  0
  178.9310  182.0840  138.1690 O   0  0  0  0  0  1  0  0  0  0  0  0
  180.2970  181.8440  138.1330 C   0  0  0  0  0  0  0  0  0  0  0  0
  1  7  1  0  0  0  0
  2  3  1  0  0  0  0
  3 29  1  6  0  0  0
  3  9  1  0  0  0  0
  5  2  1  0  0  0  0
  5 10  1  0  0  0  0
  6 12  1  0  0  0  0
  6  7  2  0  0  0  0
  7 14  1  0  0  0  0
  8 11  2  0  0  0  0
  8  6  1  0  0  0  0
  9  4  1  0  0  0  0
  9 12  2  0  0  0  0
 10  8  1  0  0  0  0
 11  1  1  0  0  0  0
 13 15  1  0  0  0  0
 14 13  2  0  0  0  0
 14 17  1  0  0  0  0
 15 16  2  0  0  0  0
 17 18  2  0  0  0  0
 18 16  1  0  0  0  0
 18 20  1  0  0  0  0
 19 17  1  0  0  0  0
 20 22  1  0  0  0  0
 20 23  1  1  0  0  0
 21 22  1  0  0  0  0
 23 24  2  0  0  0  0
 25 11  1  0  0  0  0
 26 25  1  0  0  0  0
 27 26  1  0  0  0  0
 28 26  2  0  0  0  0
 29 30  1  0  0  0  0
 30 31  1  0  0  0  0
 32 31  2  0  0  0  0
 32 33  1  0  0  0  0
 33 34  1  0  0  0  0
 34 40  1  1  0  0  0
 35 39  1  0  0  0  0
 36 35  1  0  0  0  0
 37 34  1  6  0  0  0
 37 38  1  0  0  0  0
 37 36  1  0  0  0  0
 38 39  1  0  0  0  0
 41 43  2  0  0  0  0
 43 42  1  0  0  0  0
 43 40  1  0  0  0  0
M  END
>  <MODEL>
1

>  <REMARK>
 VINA RESULT:      -8.4      0.000      0.000
  Name = 
  13 active torsions:
  status: ('A' for Active; 'I' for Inactive)
    1  A    between atoms: O_1  and  C_5
    2  A    between atoms: O_1  and  C_42
    3  A    between atoms: N_2  and  C_40
    4  A    between atoms: C_5  and  C_22
    5  A    between atoms: C_5  and  C_24
    6  A    between atoms: C_10  and  C_27
    7  A    between atoms: C_11  and  C_41
    8  A    between atoms: C_12  and  O_30
    9  A    between atoms: C_12  and  C_32
   10  A    between atoms: C_12  and  C_33
   11  A    between atoms: C_20  and  C_21
   12  A    between atoms: C_21  and  C_41
   13  A    between atoms: C_22  and  C_38
                            x       y       z     vdW  Elec       q    Type
                         _______ _______ _______ _____ _____    ______ ____

>  <TORSDO>
F 13

$$$$
=
 OpenBabel11042412413D

 43 46  0  0  1  0  0  0  0  0999 V2000
  184.9120  178.9440  138.4900 O   0  0  0  0  0  0  0  0  0  0  0  0
  185.0040  179.7610  143.0660 O   0  0  0  0  0  0  0  0  0  0  0  0
  184.1140  178.8420  143.6400 C   0  0  2  0  0  3  0  0  0  0  0  0
  181.6340  178.6540  143.4790 O   0  0  0  0  0  1  0  0  0  0  0  0
  186.1490  179.1230  142.8530 O   0  0  0  0  0  0  0  0  0  0  0  0
  183.9110  178.8710  140.4740 C   0  0  0  0  0  0  0  0  0  0  0  0
  183.7480  179.0680  139.0970 C   0  0  0  0  0  0  0  0  0  0  0  0
  185.2680  178.6320  140.6320 C   0  0  0  0  0  0  0  0  0  0  0  0
  182.8510  178.7790  142.8190 C   0  0  0  0  0  0  0  0  0  0  0  0
  185.9300  178.2440  141.8330 N   0  0  0  0  0  2  0  0  0  0  0  0
  185.8300  178.6680  139.3830 C   0  0  0  0  0  0  0  0  0  0  0  0
  182.8150  178.8080  141.4760 C   0  0  0  0  0  3  0  0  0  0  0  0
  181.7680  178.3180  137.7520 C   0  0  0  0  0  3  0  0  0  0  0  0
  182.4880  179.3550  138.3650 C   0  0  0  0  0  0  0  0  0  0  0  0
  180.5930  178.5800  137.0480 C   0  0  0  0  0  3  0  0  0  0  0  0
  180.1200  179.8860  136.9440 C   0  0  0  0  0  3  0  0  0  0  0  0
  182.0010  180.6770  138.2570 C   0  0  0  0  0  0  0  0  0  0  0  0
  180.8180  180.9400  137.5480 C   0  0  0  0  0  0  0  0  0  0  0  0
  182.6640  181.7070  138.8510 F   0  0  0  0  0  0  0  0  0  0  0  0
  180.3120  182.3490  137.4330 C   0  0  2  0  0  3  0  0  0  0  0  0
  180.8040  184.5080  137.3140 C   0  0  0  0  0  1  0  0  0  0  0  0
  181.3600  183.2600  137.6030 O   0  0  0  0  0  0  0  0  0  0  0  0
  179.2350  182.5970  138.4450 C   0  0  0  0  0  3  0  0  0  0  0  0
  179.2820  182.0180  139.6410 C   0  0  0  0  0  2  0  0  0  0  0  0
  187.2100  178.4320  139.0930 N   0  0  0  0  0  2  0  0  0  0  0  0
  187.6760  177.4700  138.1420 C   0  0  0  0  0  0  0  0  0  0  0  0
  189.1370  177.3100  137.9210 C   0  0  0  0  0  1  0  0  0  0  0  0
  186.8670  176.7580  137.4910 O   0  0  0  0  0  0  0  0  0  0  0  0
  183.8280  179.2460  145.0830 C   0  0  0  0  0  2  0  0  0  0  0  0
  184.4270  178.2470  146.0630 C   0  0  0  0  0  2  0  0  0  0  0  0
  185.8630  178.5530  146.3320 C   0  0  0  0  0  3  0  0  0  0  0  0
  186.8070  177.6740  146.0300 C   0  0  0  0  0  3  0  0  0  0  0  0
  188.1470  177.9740  146.2740 O   0  0  0  0  0  0  0  0  0  0  0  0
  189.1430  177.8670  145.2580 C   0  0  1  0  0  3  0  0  0  0  0  0
  191.3620  175.9900  147.2770 C   0  0  0  0  0  2  0  0  0  0  0  0
  190.3950  177.1300  147.2840 C   0  0  0  0  0  2  0  0  0  0  0  0
  190.5180  177.6040  145.8710 C   0  0  1  0  0  3  0  0  0  0  0  0
  191.1610  176.5650  145.1880 O   0  0  0  0  0  0  0  0  0  0  0  0
  192.0380  176.0640  146.0510 O   0  0  0  0  0  0  0  0  0  0  0  0
  188.7740  176.7820  144.2470 C   0  0  0  0  0  2  0  0  0  0  0  0
  188.8970  176.4460  141.8900 O   0  0  0  0  0  0  0  0  0  0  0  0
  189.5030  178.5310  142.6260 O   0  0  0  0  0  1  0  0  0  0  0  0
  189.0670  177.2330  142.8570 C   0  0  0  0  0  0  0  0  0  0  0  0
  1  7  1  0  0  0  0
  1 11  1  0  0  0  0
  2  3  1  0  0  0  0
  3 29  1  1  0  0  0
  5  2  1  0  0  0  0
  6  8  1  0  0  0  0
  6 12  1  0  0  0  0
  7  6  2  0  0  0  0
  8 10  1  0  0  0  0
  9  4  1  0  0  0  0
  9  3  1  0  0  0  0
 10  5  1  0  0  0  0
 11  8  2  0  0  0  0
 12  9  2  0  0  0  0
 13 14  1  0  0  0  0
 14  7  1  0  0  0  0
 15 13  2  0  0  0  0
 16 15  1  0  0  0  0
 16 18  2  0  0  0  0
 17 14  2  0  0  0  0
 17 19  1  0  0  0  0
 18 17  1  0  0  0  0
 20 18  1  0  0  0  0
 20 22  1  0  0  0  0
 20 23  1  1  0  0  0
 21 22  1  0  0  0  0
 23 24  2  0  0  0  0
 25 11  1  0  0  0  0
 26 25  1  0  0  0  0
 27 26  1  0  0  0  0
 28 26  2  0  0  0  0
 29 30  1  0  0  0  0
 30 31  1  0  0  0  0
 32 33  1  0  0  0  0
 32 31  2  0  0  0  0
 34 40  1  6  0  0  0
 34 33  1  0  0  0  0
 35 36  1  0  0  0  0
 37 34  1  6  0  0  0
 37 36  1  0  0  0  0
 38 37  1  0  0  0  0
 38 39  1  0  0  0  0
 39 35  1  0  0  0  0
 41 43  2  0  0  0  0
 42 43  1  0  0  0  0
 43 40  1  0  0  0  0
M  END
>  <MODEL>
2

>  <REMARK>
 VINA RESULT:      -8.3      2.616      9.481
  Name = 
  13 active torsions:
  status: ('A' for Active; 'I' for Inactive)
    1  A    between atoms: O_1  and  C_5
    2  A    between atoms: O_1  and  C_42
    3  A    between atoms: N_2  and  C_40
    4  A    between atoms: C_5  and  C_22
    5  A    between atoms: C_5  and  C_24
    6  A    between atoms: C_10  and  C_27
    7  A    between atoms: C_11  and  C_41
    8  A    between atoms: C_12  and  O_30
    9  A    between atoms: C_12  and  C_32
   10  A    between atoms: C_12  and  C_33
   11  A    between atoms: C_20  and  C_21
   12  A    between atoms: C_21  and  C_41
   13  A    between atoms: C_22  and  C_38
                            x       y       z     vdW  Elec       q    Type
                         _______ _______ _______ _____ _____    ______ ____

>  <TORSDO>
F 13

$$$$
=
 OpenBabel11042412413D

 43 46  0  0  1  0  0  0  0  0999 V2000
  185.6650  178.9600  139.5600 O   0  0  0  0  0  0  0  0  0  0  0  0
  189.9950  178.0290  140.9770 O   0  0  0  0  0  0  0  0  0  0  0  0
  189.9320  176.7820  141.6160 C   0  0  2  0  0  3  0  0  0  0  0  0
  188.8290  176.0940  143.7420 O   0  0  0  0  0  1  0  0  0  0  0  0
  190.0520  177.8000  139.6700 O   0  0  0  0  0  0  0  0  0  0  0  0
  187.0460  177.9290  140.9650 C   0  0  0  0  0  0  0  0  0  0  0  0
  185.8130  178.5760  140.8120 C   0  0  0  0  0  0  0  0  0  0  0  0
  187.6190  177.9720  139.7030 C   0  0  0  0  0  0  0  0  0  0  0  0
  188.7210  176.7340  142.5140 C   0  0  0  0  0  0  0  0  0  0  0  0
  188.8250  177.3350  139.2940 N   0  0  0  0  0  2  0  0  0  0  0  0
  186.7220  178.5970  138.8770 C   0  0  0  0  0  0  0  0  0  0  0  0
  187.5200  177.2470  142.1980 C   0  0  0  0  0  3  0  0  0  0  0  0
  185.1460  179.1810  143.1530 C   0  0  0  0  0  3  0  0  0  0  0  0
  184.7770  178.8100  141.8510 C   0  0  0  0  0  0  0  0  0  0  0  0
  184.1820  179.3870  144.1400 C   0  0  0  0  0  3  0  0  0  0  0  0
  182.8310  179.2240  143.8390 C   0  0  0  0  0  3  0  0  0  0  0  0
  183.4060  178.6490  141.5520 C   0  0  0  0  0  0  0  0  0  0  0  0
  182.4350  178.8560  142.5460 C   0  0  0  0  0  0  0  0  0  0  0  0
  183.0080  178.3050  140.2970 F   0  0  0  0  0  0  0  0  0  0  0  0
  180.9810  178.6750  142.2210 C   0  0  2  0  0  3  0  0  0  0  0  0
  179.9350  179.5790  140.4870 C   0  0  0  0  0  1  0  0  0  0  0  0
  180.4300  179.8750  141.7590 O   0  0  0  0  0  0  0  0  0  0  0  0
  180.2370  178.1910  143.4290 C   0  0  0  0  0  3  0  0  0  0  0  0
  179.3550  178.9750  144.0410 C   0  0  0  0  0  2  0  0  0  0  0  0
  186.9050  178.8130  137.4750 N   0  0  0  0  0  2  0  0  0  0  0  0
  186.5790  177.8530  136.4660 C   0  0  0  0  0  0  0  0  0  0  0  0
  186.8120  178.1880  135.0370 C   0  0  0  0  0  1  0  0  0  0  0  0
  186.0990  176.7300  136.7710 O   0  0  0  0  0  0  0  0  0  0  0  0
  191.2210  176.5470  142.3970 C   0  0  0  0  0  2  0  0  0  0  0  0
  191.7650  177.8510  142.9650 C   0  0  0  0  0  2  0  0  0  0  0  0
  191.4550  177.9730  144.4200 C   0  0  0  0  0  3  0  0  0  0  0  0
  190.2850  178.4500  144.8220 C   0  0  0  0  0  3  0  0  0  0  0  0
  190.0010  178.5490  146.1840 O   0  0  0  0  0  0  0  0  0  0  0  0
  189.3660  177.4920  146.9020 C   0  0  1  0  0  3  0  0  0  0  0  0
  192.3890  175.7160  147.3760 C   0  0  0  0  0  2  0  0  0  0  0  0
  190.9360  175.5620  147.0640 C   0  0  0  0  0  2  0  0  0  0  0  0
  190.3740  176.7490  147.7780 C   0  0  1  0  0  3  0  0  0  0  0  0
  191.4740  177.5710  148.0510 O   0  0  0  0  0  0  0  0  0  0  0  0
  192.4740  176.7410  148.3270 O   0  0  0  0  0  0  0  0  0  0  0  0
  188.2000  178.0230  147.7330 C   0  0  0  0  0  2  0  0  0  0  0  0
  186.8110  177.4190  145.8910 O   0  0  0  0  0  0  0  0  0  0  0  0
  185.9950  179.0790  147.2450 O   0  0  0  0  0  1  0  0  0  0  0  0
  186.9730  178.1570  146.8980 C   0  0  0  0  0  0  0  0  0  0  0  0
  1  7  1  0  0  0  0
  2  3  1  0  0  0  0
  3 29  1  1  0  0  0
  3  9  1  0  0  0  0
  5  2  1  0  0  0  0
  6 12  1  0  0  0  0
  7  6  2  0  0  0  0
  7 14  1  0  0  0  0
  8  6  1  0  0  0  0
  9  4  1  0  0  0  0
 10  5  1  0  0  0  0
 10  8  1  0  0  0  0
 11  1  1  0  0  0  0
 11  8  2  0  0  0  0
 12  9  2  0  0  0  0
 13 15  1  0  0  0  0
 14 13  2  0  0  0  0
 16 15  2  0  0  0  0
 17 14  1  0  0  0  0
 17 18  2  0  0  0  0
 18 16  1  0  0  0  0
 19 17  1  0  0  0  0
 20 18  1  0  0  0  0
 20 23  1  1  0  0  0
 21 22  1  0  0  0  0
 22 20  1  0  0  0  0
 23 24  2  0  0  0  0
 25 11  1  0  0  0  0
 26 28  2  0  0  0  0
 26 25  1  0  0  0  0
 27 26  1  0  0  0  0
 29 30  1  0  0  0  0
 30 31  1  0  0  0  0
 31 32  2  0  0  0  0
 32 33  1  0  0  0  0
 33 34  1  0  0  0  0
 34 40  1  1  0  0  0
 35 39  1  0  0  0  0
 36 35  1  0  0  0  0
 36 37  1  0  0  0  0
 37 34  1  6  0  0  0
 37 38  1  0  0  0  0
 38 39  1  0  0  0  0
 41 43  2  0  0  0  0
 43 42  1  0  0  0  0
 43 40  1  0  0  0  0
M  END
>  <MODEL>
3

>  <REMARK>
 VINA RESULT:      -8.2      2.510      8.677
  Name = 
  13 active torsions:
  status: ('A' for Active; 'I' for Inactive)
    1  A    between atoms: O_1  and  C_5
    2  A    between atoms: O_1  and  C_42
    3  A    between atoms: N_2  and  C_40
    4  A    between atoms: C_5  and  C_22
    5  A    between atoms: C_5  and  C_24
    6  A    between atoms: C_10  and  C_27
    7  A    between atoms: C_11  and  C_41
    8  A    between atoms: C_12  and  O_30
    9  A    between atoms: C_12  and  C_32
   10  A    between atoms: C_12  and  C_33
   11  A    between atoms: C_20  and  C_21
   12  A    between atoms: C_21  and  C_41
   13  A    between atoms: C_22  and  C_38
                            x       y       z     vdW  Elec       q    Type
                         _______ _______ _______ _____ _____    ______ ____

>  <TORSDO>
F 13

$$$$
=
 OpenBabel11042412413D

 43 46  0  0  1  0  0  0  0  0999 V2000
  187.0650  178.6350  142.4680 O   0  0  0  0  0  0  0  0  0  0  0  0
  188.1140  178.9810  137.9510 O   0  0  0  0  0  0  0  0  0  0  0  0
  188.6790  177.7490  137.5910 C   0  0  2  0  0  3  0  0  0  0  0  0
  190.8310  176.6850  138.2570 O   0  0  0  0  0  1  0  0  0  0  0  0
  186.7950  178.8290  137.9420 O   0  0  0  0  0  0  0  0  0  0  0  0
  188.3040  178.0090  140.7310 C   0  0  0  0  0  0  0  0  0  0  0  0
  188.2780  178.2650  142.1080 C   0  0  0  0  0  0  0  0  0  0  0  0
  187.0100  178.2690  140.3050 C   0  0  0  0  0  0  0  0  0  0  0  0
  189.6550  177.3090  138.6530 C   0  0  0  0  0  0  0  0  0  0  0  0
  186.4780  178.0350  139.0050 N   0  0  0  0  0  2  0  0  0  0  0  0
  186.2880  178.6280  141.4130 C   0  0  0  0  0  0  0  0  0  0  0  0
  189.4570  177.4530  139.9740 C   0  0  0  0  0  3  0  0  0  0  0  0
  190.7050  178.4910  142.6980 C   0  0  0  0  0  3  0  0  0  0  0  0
  189.3990  178.1420  143.0740 C   0  0  0  0  0  0  0  0  0  0  0  0
  191.7680  178.3630  143.5920 C   0  0  0  0  0  3  0  0  0  0  0  0
  191.5400  177.8810  144.8800 C   0  0  0  0  0  3  0  0  0  0  0  0
  189.1750  177.6560  144.3810 C   0  0  0  0  0  0  0  0  0  0  0  0
  190.2450  177.5270  145.2820 C   0  0  0  0  0  0  0  0  0  0  0  0
  187.9200  177.3210  144.7880 F   0  0  0  0  0  0  0  0  0  0  0  0
  189.9990  177.0020  146.6670 C   0  0  2  0  0  3  0  0  0  0  0  0
  188.3040  177.1240  148.0930 C   0  0  0  0  0  1  0  0  0  0  0  0
  189.2310  177.9100  147.4050 O   0  0  0  0  0  0  0  0  0  0  0  0
  191.3010  176.7360  147.3590 C   0  0  0  0  0  3  0  0  0  0  0  0
  191.8400  175.5210  147.3460 C   0  0  0  0  0  2  0  0  0  0  0  0
  184.8930  178.9420  141.4220 N   0  0  0  0  0  2  0  0  0  0  0  0
  184.0080  178.6280  142.5000 C   0  0  0  0  0  0  0  0  0  0  0  0
  182.5730  179.0040  142.4010 C   0  0  0  0  0  1  0  0  0  0  0  0
  184.4250  178.0380  143.5320 O   0  0  0  0  0  0  0  0  0  0  0  0
  189.3510  177.8790  136.2280 C   0  0  0  0  0  2  0  0  0  0  0  0
  188.7990  176.8580  135.2430 C   0  0  0  0  0  2  0  0  0  0  0  0
  187.3060  176.8510  135.2580 C   0  0  0  0  0  3  0  0  0  0  0  0
  186.6400  175.7260  135.4750 C   0  0  0  0  0  3  0  0  0  0  0  0
  185.2460  175.7320  135.4980 O   0  0  0  0  0  0  0  0  0  0  0  0
  184.5050  175.1670  136.5800 C   0  0  1  0  0  3  0  0  0  0  0  0
  182.9870  177.3280  138.9350 C   0  0  0  0  0  2  0  0  0  0  0  0
  183.0570  175.9100  138.4680 C   0  0  0  0  0  2  0  0  0  0  0  0
  183.3890  176.1110  137.0250 C   0  0  1  0  0  3  0  0  0  0  0  0
  183.8140  177.4410  136.9260 O   0  0  0  0  0  0  0  0  0  0  0  0
  183.0550  178.1190  137.7800 O   0  0  0  0  0  0  0  0  0  0  0  0
  183.9490  173.7960  136.2010 C   0  0  0  0  0  2  0  0  0  0  0  0
  183.8240  171.6430  137.2190 O   0  0  0  0  0  0  0  0  0  0  0  0
  185.5140  172.9970  137.9700 O   0  0  0  0  0  1  0  0  0  0  0  0
  184.4140  172.7540  137.1600 C   0  0  0  0  0  0  0  0  0  0  0  0
  3 29  1  6  0  0  0
  3  2  1  0  0  0  0
  3  9  1  0  0  0  0
  4  9  1  0  0  0  0
  5  2  1  0  0  0  0
  5 10  1  0  0  0  0
  6  7  2  0  0  0  0
  7  1  1  0  0  0  0
  7 14  1  0  0  0  0
  8  6  1  0  0  0  0
  8 11  2  0  0  0  0
  9 12  2  0  0  0  0
 10  8  1  0  0  0  0
 11 25  1  0  0  0  0
 11  1  1  0  0  0  0
 12  6  1  0  0  0  0
 13 14  2  0  0  0  0
 13 15  1  0  0  0  0
 14 17  1  0  0  0  0
 15 16  2  0  0  0  0
 16 18  1  0  0  0  0
 17 19  1  0  0  0  0
 17 18  2  0  0  0  0
 18 20  1  0  0  0  0
 20 23  1  1  0  0  0
 20 22  1  0  0  0  0
 22 21  1  0  0  0  0
 24 23  2  0  0  0  0
 25 26  1  0  0  0  0
 26 28  2  0  0  0  0
 27 26  1  0  0  0  0
 30 31  1  0  0  0  0
 30 29  1  0  0  0  0
 31 32  2  0  0  0  0
 32 33  1  0  0  0  0
 33 34  1  0  0  0  0
 34 40  1  6  0  0  0
 36 35  1  0  0  0  0
 37 34  1  1  0  0  0
 37 36  1  0  0  0  0
 38 37  1  0  0  0  0
 38 39  1  0  0  0  0
 39 35  1  0  0  0  0
 40 43  1  0  0  0  0
 43 41  2  0  0  0  0
 43 42  1  0  0  0  0
M  END
>  <MODEL>
4

>  <REMARK>
 VINA RESULT:      -8.2      2.737      5.684
  Name = 
  13 active torsions:
  status: ('A' for Active; 'I' for Inactive)
    1  A    between atoms: O_1  and  C_5
    2  A    between atoms: O_1  and  C_42
    3  A    between atoms: N_2  and  C_40
    4  A    between atoms: C_5  and  C_22
    5  A    between atoms: C_5  and  C_24
    6  A    between atoms: C_10  and  C_27
    7  A    between atoms: C_11  and  C_41
    8  A    between atoms: C_12  and  O_30
    9  A    between atoms: C_12  and  C_32
   10  A    between atoms: C_12  and  C_33
   11  A    between atoms: C_20  and  C_21
   12  A    between atoms: C_21  and  C_41
   13  A    between atoms: C_22  and  C_38
                            x       y       z     vdW  Elec       q    Type
                         _______ _______ _______ _____ _____    ______ ____

>  <TORSDO>
F 13

$$$$
=
 OpenBabel11042412413D

 43 46  0  0  1  0  0  0  0  0999 V2000
  189.9480  177.4140  141.6960 O   0  0  0  0  0  0  0  0  0  0  0  0
  186.5710  177.4850  138.4990 O   0  0  0  0  0  0  0  0  0  0  0  0
  185.8590  178.6730  138.7170 C   0  0  2  0  0  3  0  0  0  0  0  0
  184.4080  179.3800  140.6160 O   0  0  0  0  0  1  0  0  0  0  0  0
  187.6540  177.7960  137.7980 O   0  0  0  0  0  0  0  0  0  0  0  0
  187.9300  178.0870  141.0490 C   0  0  0  0  0  0  0  0  0  0  0  0
  188.7280  177.6740  142.1230 C   0  0  0  0  0  0  0  0  0  0  0  0
  188.7750  178.0400  139.9500 C   0  0  0  0  0  0  0  0  0  0  0  0
  185.6260  178.8610  140.1950 C   0  0  0  0  0  0  0  0  0  0  0  0
  188.4820  178.4900  138.6310 N   0  0  0  0  0  2  0  0  0  0  0  0
  190.0030  177.6410  140.4070 C   0  0  0  0  0  0  0  0  0  0  0  0
  186.5320  178.5850  141.1480 C   0  0  0  0  0  3  0  0  0  0  0  0
  186.9820  177.3980  143.9030 C   0  0  0  0  0  3  0  0  0  0  0  0
  188.3320  177.5440  143.5490 C   0  0  0  0  0  0  0  0  0  0  0  0
  186.5990  177.2920  145.2400 C   0  0  0  0  0  3  0  0  0  0  0  0
  187.5620  177.3310  146.2460 C   0  0  0  0  0  3  0  0  0  0  0  0
  189.3040  177.5800  144.5730 C   0  0  0  0  0  0  0  0  0  0  0  0
  188.9180  177.4730  145.9200 C   0  0  0  0  0  0  0  0  0  0  0  0
  190.6240  177.7040  144.2690 F   0  0  0  0  0  0  0  0  0  0  0  0
  189.9570  177.5200  147.0020 C   0  0  2  0  0  3  0  0  0  0  0  0
  191.6620  176.1020  146.9870 C   0  0  0  0  0  1  0  0  0  0  0  0
  190.3280  176.2260  147.3810 O   0  0  0  0  0  0  0  0  0  0  0  0
  189.4380  178.2810  148.1850 C   0  0  0  0  0  3  0  0  0  0  0  0
  188.3570  177.8650  148.8370 C   0  0  0  0  0  2  0  0  0  0  0  0
  191.1770  177.5000  139.6010 N   0  0  0  0  0  2  0  0  0  0  0  0
  191.4040  176.4140  138.6990 C   0  0  0  0  0  0  0  0  0  0  0  0
  192.6630  176.3720  137.9090 C   0  0  0  0  0  1  0  0  0  0  0  0
  190.5540  175.4950  138.5630 O   0  0  0  0  0  0  0  0  0  0  0  0
  184.5460  178.6260  137.9420 C   0  0  0  0  0  2  0  0  0  0  0  0
  183.9550  177.2230  137.9470 C   0  0  0  0  0  2  0  0  0  0  0  0
  182.6340  177.1990  138.6430 C   0  0  0  0  0  3  0  0  0  0  0  0
  181.8230  178.2450  138.5850 C   0  0  0  0  0  3  0  0  0  0  0  0
  180.5860  178.2080  139.2290 O   0  0  0  0  0  0  0  0  0  0  0  0
  180.4210  177.6120  140.5150 C   0  0  1  0  0  3  0  0  0  0  0  0
  180.6230  178.6280  143.8980 C   0  0  0  0  0  2  0  0  0  0  0  0
  179.6800  178.1940  142.8230 C   0  0  0  0  0  2  0  0  0  0  0  0
  180.4050  178.6780  141.6090 C   0  0  1  0  0  3  0  0  0  0  0  0
  181.7100  178.9470  142.0410 O   0  0  0  0  0  0  0  0  0  0  0  0
  181.5820  179.4340  143.2700 O   0  0  0  0  0  0  0  0  0  0  0  0
  179.1570  176.7570  140.5600 C   0  0  0  0  0  2  0  0  0  0  0  0
  179.2800  175.1140  138.8370 O   0  0  0  0  0  0  0  0  0  0  0  0
  179.8770  174.3990  140.9310 O   0  0  0  0  0  1  0  0  0  0  0  0
  179.4300  175.3810  140.0570 C   0  0  0  0  0  0  0  0  0  0  0  0
  1  7  1  0  0  0  0
  2  3  1  0  0  0  0
  3 29  1  6  0  0  0
  3  9  1  0  0  0  0
  5  2  1  0  0  0  0
  5 10  1  0  0  0  0
  6 12  1  0  0  0  0
  6  7  2  0  0  0  0
  7 14  1  0  0  0  0
  8 11  2  0  0  0  0
  8  6  1  0  0  0  0
  9  4  1  0  0  0  0
  9 12  2  0  0  0  0
 10  8  1  0  0  0  0
 11  1  1  0  0  0  0
 13 15  1  0  0  0  0
 14 13  2  0  0  0  0
 14 17  1  0  0  0  0
 15 16  2  0  0  0  0
 17 18  2  0  0  0  0
 18 16  1  0  0  0  0
 18 20  1  0  0  0  0
 19 17  1  0  0  0  0
 20 22  1  0  0  0  0
 20 23  1  1  0  0  0
 21 22  1  0  0  0  0
 23 24  2  0  0  0  0
 25 11  1  0  0  0  0
 26 25  1  0  0  0  0
 27 26  1  0  0  0  0
 28 26  2  0  0  0  0
 29 30  1  0  0  0  0
 30 31  1  0  0  0  0
 32 31  2  0  0  0  0
 32 33  1  0  0  0  0
 33 34  1  0  0  0  0
 34 40  1  6  0  0  0
 36 35  1  0  0  0  0
 37 34  1  6  0  0  0
 37 38  1  0  0  0  0
 37 36  1  0  0  0  0
 38 39  1  0  0  0  0
 39 35  1  0  0  0  0
 41 43  2  0  0  0  0
 43 40  1  0  0  0  0
 43 42  1  0  0  0  0
M  END
>  <MODEL>
5

>  <REMARK>
 VINA RESULT:      -8.1      1.423      2.262
  Name = 
  13 active torsions:
  status: ('A' for Active; 'I' for Inactive)
    1  A    between atoms: O_1  and  C_5
    2  A    between atoms: O_1  and  C_42
    3  A    between atoms: N_2  and  C_40
    4  A    between atoms: C_5  and  C_22
    5  A    between atoms: C_5  and  C_24
    6  A    between atoms: C_10  and  C_27
    7  A    between atoms: C_11  and  C_41
    8  A    between atoms: C_12  and  O_30
    9  A    between atoms: C_12  and  C_32
   10  A    between atoms: C_12  and  C_33
   11  A    between atoms: C_20  and  C_21
   12  A    between atoms: C_21  and  C_41
   13  A    between atoms: C_22  and  C_38
                            x       y       z     vdW  Elec       q    Type
                         _______ _______ _______ _____ _____    ______ ____

>  <TORSDO>
F 13

$$$$
=
 OpenBabel11042412413D

 43 46  0  0  1  0  0  0  0  0999 V2000
  186.3640  178.9620  141.7040 O   0  0  0  0  0  0  0  0  0  0  0  0
  188.8640  178.6420  137.7970 O   0  0  0  0  0  0  0  0  0  0  0  0
  189.2450  177.2970  137.6910 C   0  0  2  0  0  3  0  0  0  0  0  0
  190.7950  175.9270  139.0820 O   0  0  0  0  0  1  0  0  0  0  0  0
  187.6180  178.7360  137.3480 O   0  0  0  0  0  0  0  0  0  0  0  0
  187.9390  177.9430  140.5100 C   0  0  0  0  0  0  0  0  0  0  0  0
  187.5230  178.3390  141.7880 C   0  0  0  0  0  0  0  0  0  0  0  0
  186.9360  178.3920  139.6640 C   0  0  0  0  0  0  0  0  0  0  0  0
  189.7110  176.7950  139.0350 C   0  0  0  0  0  0  0  0  0  0  0  0
  186.8170  178.1280  138.2690 N   0  0  0  0  0  2  0  0  0  0  0  0
  185.9870  178.9900  140.4500 C   0  0  0  0  0  0  0  0  0  0  0  0
  189.1310  177.1080  140.2060 C   0  0  0  0  0  3  0  0  0  0  0  0
  189.6220  178.0510  143.1310 C   0  0  0  0  0  3  0  0  0  0  0  0
  188.2200  178.1110  143.0790 C   0  0  0  0  0  0  0  0  0  0  0  0
  190.2850  177.8190  144.3360 C   0  0  0  0  0  3  0  0  0  0  0  0
  189.5560  177.6430  145.5100 C   0  0  0  0  0  3  0  0  0  0  0  0
  187.4870  177.9340  144.2730 C   0  0  0  0  0  0  0  0  0  0  0  0
  188.1550  177.7010  145.4870 C   0  0  0  0  0  0  0  0  0  0  0  0
  186.1280  178.0010  144.2660 F   0  0  0  0  0  0  0  0  0  0  0  0
  187.3680  177.5070  146.7500 C   0  0  2  0  0  3  0  0  0  0  0  0
  185.3050  178.2460  147.0970 C   0  0  0  0  0  1  0  0  0  0  0  0
  186.6380  178.6610  147.0540 O   0  0  0  0  0  0  0  0  0  0  0  0
  188.2840  177.1550  147.8820 C   0  0  0  0  0  3  0  0  0  0  0  0
  188.5400  178.0360  148.8450 C   0  0  0  0  0  2  0  0  0  0  0  0
  184.7610  179.5560  139.9770 N   0  0  0  0  0  2  0  0  0  0  0  0
  183.5290  178.8360  139.8850 C   0  0  0  0  0  0  0  0  0  0  0  0
  182.3150  179.5270  139.3780 C   0  0  0  0  0  1  0  0  0  0  0  0
  183.4580  177.6260  140.2260 O   0  0  0  0  0  0  0  0  0  0  0  0
  190.3330  177.1590  136.6320 C   0  0  0  0  0  2  0  0  0  0  0  0
  189.9080  176.1990  135.5290 C   0  0  0  0  0  2  0  0  0  0  0  0
  188.6320  175.5080  135.8810 C   0  0  0  0  0  3  0  0  0  0  0  0
  187.6500  175.4160  134.9960 C   0  0  0  0  0  3  0  0  0  0  0  0
  186.4670  174.7580  135.3300 O   0  0  0  0  0  0  0  0  0  0  0  0
  186.0110  174.6620  136.6790 C   0  0  1  0  0  3  0  0  0  0  0  0
  182.6470  175.6540  136.2110 C   0  0  0  0  0  2  0  0  0  0  0  0
  184.0340  175.8010  135.6740 C   0  0  0  0  0  2  0  0  0  0  0  0
  184.8340  175.6060  136.9220 C   0  0  1  0  0  3  0  0  0  0  0  0
  183.9460  175.0420  137.8450 O   0  0  0  0  0  0  0  0  0  0  0  0
  182.7730  175.6200  137.6060 O   0  0  0  0  0  0  0  0  0  0  0  0
  185.6430  173.2210  137.0270 C   0  0  0  0  0  2  0  0  0  0  0  0
  186.5250  171.4990  135.6340 O   0  0  0  0  0  0  0  0  0  0  0  0
  187.9450  172.2910  137.2490 O   0  0  0  0  0  1  0  0  0  0  0  0
  186.7180  172.2830  136.5990 C   0  0  0  0  0  0  0  0  0  0  0  0
  1  7  1  0  0  0  0
  3 29  1  6  0  0  0
  3  2  1  0  0  0  0
  3  9  1  0  0  0  0
  5  2  1  0  0  0  0
  5 10  1  0  0  0  0
  6  7  2  0  0  0  0
  7 14  1  0  0  0  0
  8 11  2  0  0  0  0
  8  6  1  0  0  0  0
  9  4  1  0  0  0  0
  9 12  2  0  0  0  0
 10  8  1  0  0  0  0
 11  1  1  0  0  0  0
 12  6  1  0  0  0  0
 13 15  1  0  0  0  0
 14 13  2  0  0  0  0
 14 17  1  0  0  0  0
 15 16  2  0  0  0  0
 17 18  2  0  0  0  0
 18 16  1  0  0  0  0
 18 20  1  0  0  0  0
 19 17  1  0  0  0  0
 20 22  1  0  0  0  0
 20 23  1  1  0  0  0
 22 21  1  0  0  0  0
 23 24  2  0  0  0  0
 25 11  1  0  0  0  0
 26 25  1  0  0  0  0
 26 28  2  0  0  0  0
 27 26  1  0  0  0  0
 30 31  1  0  0  0  0
 30 29  1  0  0  0  0
 32 33  1  0  0  0  0
 32 31  2  0  0  0  0
 33 34  1  0  0  0  0
 34 40  1  6  0  0  0
 35 39  1  0  0  0  0
 36 35  1  0  0  0  0
 36 37  1  0  0  0  0
 37 34  1  6  0  0  0
 37 38  1  0  0  0  0
 39 38  1  0  0  0  0
 41 43  2  0  0  0  0
 43 40  1  0  0  0  0
 43 42  1  0  0  0  0
M  END
>  <MODEL>
6

>  <REMARK>
 VINA RESULT:      -8.1      2.842      6.314
  Name = 
  13 active torsions:
  status: ('A' for Active; 'I' for Inactive)
    1  A    between atoms: O_1  and  C_5
    2  A    between atoms: O_1  and  C_42
    3  A    between atoms: N_2  and  C_40
    4  A    between atoms: C_5  and  C_22
    5  A    between atoms: C_5  and  C_24
    6  A    between atoms: C_10  and  C_27
    7  A    between atoms: C_11  and  C_41
    8  A    between atoms: C_12  and  O_30
    9  A    between atoms: C_12  and  C_32
   10  A    between atoms: C_12  and  C_33
   11  A    between atoms: C_20  and  C_21
   12  A    between atoms: C_21  and  C_41
   13  A    between atoms: C_22  and  C_38
                            x       y       z     vdW  Elec       q    Type
                         _______ _______ _______ _____ _____    ______ ____

>  <TORSDO>
F 13

$$$$
=
 OpenBabel11042412413D

 43 46  0  0  1  0  0  0  0  0999 V2000
  190.9320  176.5800  140.3560 O   0  0  0  0  0  0  0  0  0  0  0  0
  186.9250  176.4340  138.0010 O   0  0  0  0  0  0  0  0  0  0  0  0
  186.4720  177.7590  137.9280 C   0  0  2  0  0  3  0  0  0  0  0  0
  185.6520  179.3030  139.7040 O   0  0  0  0  0  1  0  0  0  0  0  0
  187.8370  176.2750  137.0500 O   0  0  0  0  0  0  0  0  0  0  0  0
  188.9400  177.4560  139.8990 C   0  0  0  0  0  0  0  0  0  0  0  0
  189.9060  177.2180  140.8850 C   0  0  0  0  0  0  0  0  0  0  0  0
  189.4740  176.8980  138.7470 C   0  0  0  0  0  0  0  0  0  0  0  0
  186.6390  178.4270  139.2700 C   0  0  0  0  0  0  0  0  0  0  0  0
  188.9370  176.9860  137.4310 N   0  0  0  0  0  2  0  0  0  0  0  0
  190.7030  176.3930  139.0800 C   0  0  0  0  0  0  0  0  0  0  0  0
  187.6990  178.2560  140.0770 C   0  0  0  0  0  3  0  0  0  0  0  0
  190.8670  178.4110  142.8700 C   0  0  0  0  0  3  0  0  0  0  0  0
  189.8570  177.6100  142.3170 C   0  0  0  0  0  0  0  0  0  0  0  0
  190.8390  178.7700  144.2180 C   0  0  0  0  0  3  0  0  0  0  0  0
  189.7980  178.3320  145.0340 C   0  0  0  0  0  3  0  0  0  0  0  0
  188.8030  177.1720  143.1490 C   0  0  0  0  0  0  0  0  0  0  0  0
  188.7750  177.5340  144.5060 C   0  0  0  0  0  0  0  0  0  0  0  0
  187.7970  176.4060  142.6450 F   0  0  0  0  0  0  0  0  0  0  0  0
  187.6550  177.0570  145.3850 C   0  0  2  0  0  3  0  0  0  0  0  0
  186.0050  178.4820  145.7910 C   0  0  0  0  0  1  0  0  0  0  0  0
  186.4240  177.4990  144.8920 O   0  0  0  0  0  0  0  0  0  0  0  0
  187.8590  177.5380  146.7890 C   0  0  0  0  0  3  0  0  0  0  0  0
  188.4340  176.7560  147.6970 C   0  0  0  0  0  2  0  0  0  0  0  0
  191.6090  175.7640  138.1700 N   0  0  0  0  0  2  0  0  0  0  0  0
  192.9750  176.1540  138.0000 C   0  0  0  0  0  0  0  0  0  0  0  0
  193.8270  175.4250  137.0230 C   0  0  0  0  0  1  0  0  0  0  0  0
  193.4660  177.1040  138.6640 O   0  0  0  0  0  0  0  0  0  0  0  0
  185.0170  177.7730  137.4700 C   0  0  0  0  0  2  0  0  0  0  0  0
  184.3210  176.4630  137.8100 C   0  0  0  0  0  2  0  0  0  0  0  0
  183.0950  176.7030  138.6280 C   0  0  0  0  0  3  0  0  0  0  0  0
  182.5210  177.8980  138.6470 C   0  0  0  0  0  3  0  0  0  0  0  0
  181.3700  178.1090  139.4030 O   0  0  0  0  0  0  0  0  0  0  0  0
  180.6490  179.3400  139.3560 C   0  0  1  0  0  3  0  0  0  0  0  0
  180.4260  179.3550  142.8870 C   0  0  0  0  0  2  0  0  0  0  0  0
  180.2110  178.5170  141.6690 C   0  0  0  0  0  2  0  0  0  0  0  0
  179.8900  179.5740  140.6620 C   0  0  1  0  0  3  0  0  0  0  0  0
  180.2970  180.7790  141.2470 O   0  0  0  0  0  0  0  0  0  0  0  0
  180.0230  180.6520  142.5410 O   0  0  0  0  0  0  0  0  0  0  0  0
  181.5850  180.5060  139.0460 C   0  0  0  0  0  2  0  0  0  0  0  0
  180.6210  180.6230  136.8690 O   0  0  0  0  0  0  0  0  0  0  0  0
  181.2250  182.6310  137.7930 O   0  0  0  0  0  1  0  0  0  0  0  0
  181.1240  181.2480  137.8380 C   0  0  0  0  0  0  0  0  0  0  0  0
  1  7  1  0  0  0  0
  3 29  1  1  0  0  0
  3  2  1  0  0  0  0
  3  9  1  0  0  0  0
  5 10  1  0  0  0  0
  5  2  1  0  0  0  0
  6 12  1  0  0  0  0
  6  7  2  0  0  0  0
  7 14  1  0  0  0  0
  8 11  2  0  0  0  0
  8  6  1  0  0  0  0
  9  4  1  0  0  0  0
  9 12  2  0  0  0  0
 10  8  1  0  0  0  0
 11  1  1  0  0  0  0
 13 15  1  0  0  0  0
 14 13  2  0  0  0  0
 14 17  1  0  0  0  0
 15 16  2  0  0  0  0
 17 18  2  0  0  0  0
 18 16  1  0  0  0  0
 18 20  1  0  0  0  0
 19 17  1  0  0  0  0
 20 23  1  1  0  0  0
 22 20  1  0  0  0  0
 22 21  1  0  0  0  0
 23 24  2  0  0  0  0
 25 11  1  0  0  0  0
 26 25  1  0  0  0  0
 26 28  2  0  0  0  0
 27 26  1  0  0  0  0
 29 30  1  0  0  0  0
 30 31  1  0  0  0  0
 31 32  2  0  0  0  0
 32 33  1  0  0  0  0
 34 40  1  1  0  0  0
 34 33  1  0  0  0  0
 36 35  1  0  0  0  0
 37 34  1  6  0  0  0
 37 38  1  0  0  0  0
 37 36  1  0  0  0  0
 38 39  1  0  0  0  0
 39 35  1  0  0  0  0
 41 43  2  0  0  0  0
 42 43  1  0  0  0  0
 43 40  1  0  0  0  0
M  END
>  <MODEL>
7

>  <REMARK>
 VINA RESULT:      -8.0      1.570      2.227
  Name = 
  13 active torsions:
  status: ('A' for Active; 'I' for Inactive)
    1  A    between atoms: O_1  and  C_5
    2  A    between atoms: O_1  and  C_42
    3  A    between atoms: N_2  and  C_40
    4  A    between atoms: C_5  and  C_22
    5  A    between atoms: C_5  and  C_24
    6  A    between atoms: C_10  and  C_27
    7  A    between atoms: C_11  and  C_41
    8  A    between atoms: C_12  and  O_30
    9  A    between atoms: C_12  and  C_32
   10  A    between atoms: C_12  and  C_33
   11  A    between atoms: C_20  and  C_21
   12  A    between atoms: C_21  and  C_41
   13  A    between atoms: C_22  and  C_38
                            x       y       z     vdW  Elec       q    Type
                         _______ _______ _______ _____ _____    ______ ____

>  <TORSDO>
F 13

$$$$
=
 OpenBabel11042412413D

 43 46  0  0  1  0  0  0  0  0999 V2000
  187.0430  178.6140  142.4110 O   0  0  0  0  0  0  0  0  0  0  0  0
  188.1600  179.0040  137.9140 O   0  0  0  0  0  0  0  0  0  0  0  0
  188.7580  177.7870  137.5580 C   0  0  2  0  0  3  0  0  0  0  0  0
  190.9210  176.7660  138.2570 O   0  0  0  0  0  1  0  0  0  0  0  0
  186.8450  178.8230  137.8810 O   0  0  0  0  0  0  0  0  0  0  0  0
  188.3240  178.0240  140.6920 C   0  0  0  0  0  0  0  0  0  0  0  0
  188.2690  178.2730  142.0700 C   0  0  0  0  0  0  0  0  0  0  0  0
  187.0320  178.2570  140.2460 C   0  0  0  0  0  0  0  0  0  0  0  0
  189.7250  177.3630  138.6350 C   0  0  0  0  0  0  0  0  0  0  0  0
  186.5280  178.0180  138.9350 N   0  0  0  0  0  2  0  0  0  0  0  0
  186.2840  178.5960  141.3430 C   0  0  0  0  0  0  0  0  0  0  0  0
  189.5020  177.4970  139.9530 C   0  0  0  0  0  3  0  0  0  0  0  0
  190.6810  178.5490  142.7020 C   0  0  0  0  0  3  0  0  0  0  0  0
  189.3770  178.1700  143.0550 C   0  0  0  0  0  0  0  0  0  0  0  0
  191.7300  178.4400  143.6140 C   0  0  0  0  0  3  0  0  0  0  0  0
  191.4910  177.9470  144.8950 C   0  0  0  0  0  3  0  0  0  0  0  0
  189.1410  177.6730  144.3560 C   0  0  0  0  0  0  0  0  0  0  0  0
  190.1980  177.5630  145.2740 C   0  0  0  0  0  0  0  0  0  0  0  0
  187.8870  177.3090  144.7400 F   0  0  0  0  0  0  0  0  0  0  0  0
  189.9400  177.0270  146.6530 C   0  0  2  0  0  3  0  0  0  0  0  0
  188.2540  177.1370  148.0900 C   0  0  0  0  0  1  0  0  0  0  0  0
  189.1670  177.9300  147.3920 O   0  0  0  0  0  0  0  0  0  0  0  0
  191.2360  176.7530  147.3530 C   0  0  0  0  0  3  0  0  0  0  0  0
  191.7040  175.5130  147.4510 C   0  0  0  0  0  2  0  0  0  0  0  0
  184.8820  178.8790  141.3290 N   0  0  0  0  0  2  0  0  0  0  0  0
  184.0130  178.6730  142.4450 C   0  0  0  0  0  0  0  0  0  0  0  0
  182.5690  179.0050  142.3180 C   0  0  0  0  0  1  0  0  0  0  0  0
  184.4500  178.2160  143.5340 O   0  0  0  0  0  0  0  0  0  0  0  0
  189.4510  177.9370  136.2080 C   0  0  0  0  0  2  0  0  0  0  0  0
  188.4690  177.7360  135.0610 C   0  0  0  0  0  2  0  0  0  0  0  0
  187.5570  176.5860  135.3310 C   0  0  0  0  0  3  0  0  0  0  0  0
  186.2950  176.6170  134.9250 C   0  0  0  0  0  3  0  0  0  0  0  0
  185.4540  175.5330  135.1720 O   0  0  0  0  0  0  0  0  0  0  0  0
  184.2950  175.6470  135.9960 C   0  0  1  0  0  3  0  0  0  0  0  0
  184.3930  172.3890  137.3720 C   0  0  0  0  0  2  0  0  0  0  0  0
  183.4790  173.5000  136.9660 C   0  0  0  0  0  2  0  0  0  0  0  0
  184.3710  174.6810  137.1770 C   0  0  1  0  0  3  0  0  0  0  0  0
  185.6630  174.1530  137.2860 O   0  0  0  0  0  0  0  0  0  0  0  0
  185.5210  173.0020  137.9330 O   0  0  0  0  0  0  0  0  0  0  0  0
  184.1060  177.0860  136.4730 C   0  0  0  0  0  2  0  0  0  0  0  0
  182.0530  177.2980  135.2800 O   0  0  0  0  0  0  0  0  0  0  0  0
  182.0330  178.0860  137.4320 O   0  0  0  0  0  1  0  0  0  0  0  0
  182.6800  177.5000  136.3520 C   0  0  0  0  0  0  0  0  0  0  0  0
  3 29  1  6  0  0  0
  3  2  1  0  0  0  0
  3  9  1  0  0  0  0
  4  9  1  0  0  0  0
  5  2  1  0  0  0  0
  5 10  1  0  0  0  0
  6  7  2  0  0  0  0
  7  1  1  0  0  0  0
  7 14  1  0  0  0  0
  8  6  1  0  0  0  0
  8 11  2  0  0  0  0
  9 12  2  0  0  0  0
 10  8  1  0  0  0  0
 11  1  1  0  0  0  0
 12  6  1  0  0  0  0
 13 14  2  0  0  0  0
 13 15  1  0  0  0  0
 14 17  1  0  0  0  0
 15 16  2  0  0  0  0
 16 18  1  0  0  0  0
 17 19  1  0  0  0  0
 17 18  2  0  0  0  0
 18 20  1  0  0  0  0
 20 23  1  1  0  0  0
 20 22  1  0  0  0  0
 22 21  1  0  0  0  0
 23 24  2  0  0  0  0
 25 11  1  0  0  0  0
 25 26  1  0  0  0  0
 26 28  2  0  0  0  0
 27 26  1  0  0  0  0
 30 31  1  0  0  0  0
 30 29  1  0  0  0  0
 32 33  1  0  0  0  0
 32 31  2  0  0  0  0
 33 34  1  0  0  0  0
 34 40  1  1  0  0  0
 35 39  1  0  0  0  0
 36 37  1  0  0  0  0
 36 35  1  0  0  0  0
 37 34  1  6  0  0  0
 37 38  1  0  0  0  0
 38 39  1  0  0  0  0
 41 43  2  0  0  0  0
 43 40  1  0  0  0  0
 43 42  1  0  0  0  0
M  END
>  <MODEL>
8

>  <REMARK>
 VINA RESULT:      -8.0      2.689      5.547
  Name = 
  13 active torsions:
  status: ('A' for Active; 'I' for Inactive)
    1  A    between atoms: O_1  and  C_5
    2  A    between atoms: O_1  and  C_42
    3  A    between atoms: N_2  and  C_40
    4  A    between atoms: C_5  and  C_22
    5  A    between atoms: C_5  and  C_24
    6  A    between atoms: C_10  and  C_27
    7  A    between atoms: C_11  and  C_41
    8  A    between atoms: C_12  and  O_30
    9  A    between atoms: C_12  and  C_32
   10  A    between atoms: C_12  and  C_33
   11  A    between atoms: C_20  and  C_21
   12  A    between atoms: C_21  and  C_41
   13  A    between atoms: C_22  and  C_38
                            x       y       z     vdW  Elec       q    Type
                         _______ _______ _______ _____ _____    ______ ____

>  <TORSDO>
F 13

$$$$
=
 OpenBabel11042412413D

 43 46  0  0  1  0  0  0  0  0999 V2000
  187.0960  178.2250  141.4970 O   0  0  0  0  0  0  0  0  0  0  0  0
  182.5100  177.8980  140.8060 O   0  0  0  0  0  0  0  0  0  0  0  0
  181.9320  178.9360  141.5510 C   0  0  2  0  0  3  0  0  0  0  0  0
  181.7810  179.2870  144.0130 O   0  0  0  0  0  1  0  0  0  0  0  0
  182.9470  178.4240  139.6680 O   0  0  0  0  0  0  0  0  0  0  0  0
  185.0180  178.5830  142.2010 C   0  0  0  0  0  0  0  0  0  0  0  0
  186.3290  178.2530  142.5680 C   0  0  0  0  0  0  0  0  0  0  0  0
  185.0720  178.7370  140.8240 C   0  0  0  0  0  0  0  0  0  0  0  0
  182.5780  179.0030  142.9120 C   0  0  0  0  0  0  0  0  0  0  0  0
  184.0240  179.2010  139.9770 N   0  0  0  0  0  2  0  0  0  0  0  0
  186.3720  178.5260  140.4470 C   0  0  0  0  0  0  0  0  0  0  0  0
  183.8920  178.8330  143.1390 C   0  0  0  0  0  3  0  0  0  0  0  0
  186.0000  178.0810  145.0490 C   0  0  0  0  0  3  0  0  0  0  0  0
  186.8470  177.9820  143.9340 C   0  0  0  0  0  0  0  0  0  0  0  0
  186.4820  177.8460  146.3370 C   0  0  0  0  0  3  0  0  0  0  0  0
  187.8190  177.5080  146.5300 C   0  0  0  0  0  3  0  0  0  0  0  0
  188.2010  177.6370  144.1360 C   0  0  0  0  0  0  0  0  0  0  0  0
  188.6850  177.3990  145.4330 C   0  0  0  0  0  0  0  0  0  0  0  0
  189.0490  177.5160  143.0780 F   0  0  0  0  0  0  0  0  0  0  0  0
  190.1290  177.0400  145.6400 C   0  0  2  0  0  3  0  0  0  0  0  0
  191.6420  176.1120  146.9690 C   0  0  0  0  0  1  0  0  0  0  0  0
  190.3470  176.6340  146.9600 O   0  0  0  0  0  0  0  0  0  0  0  0
  191.0060  178.2070  145.3000 C   0  0  0  0  0  3  0  0  0  0  0  0
  191.6810  178.2370  144.1550 C   0  0  0  0  0  2  0  0  0  0  0  0
  186.8710  178.6280  139.1110 N   0  0  0  0  0  2  0  0  0  0  0  0
  188.0950  178.0380  138.6650 C   0  0  0  0  0  0  0  0  0  0  0  0
  188.5150  178.2090  137.2490 C   0  0  0  0  0  1  0  0  0  0  0  0
  188.8220  177.3780  139.4530 O   0  0  0  0  0  0  0  0  0  0  0  0
  180.4270  178.7100  141.6530 C   0  0  0  0  0  2  0  0  0  0  0  0
  179.6850  180.0270  141.8330 C   0  0  0  0  0  2  0  0  0  0  0  0
  179.2200  180.5650  140.5200 C   0  0  0  0  0  3  0  0  0  0  0  0
  179.9660  181.4260  139.8430 C   0  0  0  0  0  3  0  0  0  0  0  0
  179.5280  181.9140  138.6120 O   0  0  0  0  0  0  0  0  0  0  0  0
  180.1860  181.5800  137.3900 C   0  0  1  0  0  3  0  0  0  0  0  0
  180.5860  185.0840  137.1060 C   0  0  0  0  0  2  0  0  0  0  0  0
  179.7960  183.9160  136.6100 C   0  0  0  0  0  2  0  0  0  0  0  0
  180.8060  182.8230  136.7510 C   0  0  1  0  0  3  0  0  0  0  0  0
  181.8040  183.3450  137.5820 O   0  0  0  0  0  0  0  0  0  0  0  0
  181.9030  184.6280  137.2500 O   0  0  0  0  0  0  0  0  0  0  0  0
  181.2360  180.4940  137.6150 C   0  0  0  0  0  2  0  0  0  0  0  0
  179.6670  178.7640  137.1350 O   0  0  0  0  0  1  0  0  0  0  0  0
  181.7180  178.5470  136.1350 O   0  0  0  0  0  0  0  0  0  0  0  0
  180.8270  179.2200  136.9600 C   0  0  0  0  0  0  0  0  0  0  0  0
  1  7  1  0  0  0  0
  2  3  1  0  0  0  0
  3 29  1  1  0  0  0
  3  9  1  0  0  0  0
  5 10  1  0  0  0  0
  5  2  1  0  0  0  0
  6  7  2  0  0  0  0
  6 12  1  0  0  0  0
  7 14  1  0  0  0  0
  8  6  1  0  0  0  0
  9 12  2  0  0  0  0
  9  4  1  0  0  0  0
 10  8  1  0  0  0  0
 11  8  2  0  0  0  0
 11  1  1  0  0  0  0
 13 15  1  0  0  0  0
 14 17  1  0  0  0  0
 14 13  2  0  0  0  0
 15 16  2  0  0  0  0
 17 18  2  0  0  0  0
 18 20  1  0  0  0  0
 18 16  1  0  0  0  0
 19 17  1  0  0  0  0
 20 23  1  1  0  0  0
 20 22  1  0  0  0  0
 22 21  1  0  0  0  0
 24 23  2  0  0  0  0
 25 11  1  0  0  0  0
 26 25  1  0  0  0  0
 26 28  2  0  0  0  0
 27 26  1  0  0  0  0
 29 30  1  0  0  0  0
 31 30  1  0  0  0  0
 32 31  2  0  0  0  0
 33 32  1  0  0  0  0
 34 40  1  1  0  0  0
 34 33  1  0  0  0  0
 35 39  1  0  0  0  0
 36 37  1  0  0  0  0
 36 35  1  0  0  0  0
 37 34  1  1  0  0  0
 37 38  1  0  0  0  0
 39 38  1  0  0  0  0
 42 43  2  0  0  0  0
 43 41  1  0  0  0  0
 43 40  1  0  0  0  0
M  END
>  <MODEL>
9

>  <REMARK>
 VINA RESULT:      -8.0      2.097      4.092
  Name = 
  13 active torsions:
  status: ('A' for Active; 'I' for Inactive)
    1  A    between atoms: O_1  and  C_5
    2  A    between atoms: O_1  and  C_42
    3  A    between atoms: N_2  and  C_40
    4  A    between atoms: C_5  and  C_22
    5  A    between atoms: C_5  and  C_24
    6  A    between atoms: C_10  and  C_27
    7  A    between atoms: C_11  and  C_41
    8  A    between atoms: C_12  and  O_30
    9  A    between atoms: C_12  and  C_32
   10  A    between atoms: C_12  and  C_33
   11  A    between atoms: C_20  and  C_21
   12  A    between atoms: C_21  and  C_41
   13  A    between atoms: C_22  and  C_38
                            x       y       z     vdW  Elec       q    Type
                         _______ _______ _______ _____ _____    ______ ____

>  <TORSDO>
F 13

$$$$
