=
 OpenBabel11042409493D

 33 37  0  0  1  0  0  0  0  0999 V2000
  186.8350  177.6590  143.0310 C   0  0  0  0  0  2  0  0  0  0  0  0
  189.2660  177.1250  142.9230 C   0  0  2  0  0  0  0  0  0  0  0  0
  189.4180  178.0870  141.7420 C   0  0  2  0  0  3  0  0  0  0  0  0
  186.9570  178.2490  141.6920 N   0  0  2  0  0  0  0  0  0  0  0  0
  190.2220  177.4160  144.0810 C   0  0  2  0  0  3  0  0  0  0  0  0
  190.4330  176.1940  143.1840 C   0  0  0  0  0  2  0  0  0  0  0  0
  187.8750  176.5550  143.2110 C   0  0  0  0  0  2  0  0  0  0  0  0
  188.2040  179.0190  141.6840 C   0  0  0  0  0  2  0  0  0  0  0  0
  183.8860  178.3890  142.8180 C   0  0  2  0  0  3  0  0  0  0  0  0
  184.7080  178.3390  139.2320 C   0  0  0  0  0  0  0  0  0  0  0  0
  184.7710  178.4840  140.6230 C   0  0  0  0  0  0  0  0  0  0  0  0
  185.0600  179.3730  142.7880 C   0  0  0  0  0  2  0  0  0  0  0  0
  185.8190  179.1540  141.4580 C   0  0  1  0  0  3  0  0  0  0  0  0
  182.6420  177.1710  139.5200 N   0  0  0  0  0  0  0  0  0  0  0  0
  183.7390  178.0260  141.3950 C   0  0  0  0  0  0  0  0  0  0  0  0
  182.6470  179.1050  143.3210 C   0  0  0  0  0  1  0  0  0  0  0  0
  183.6140  177.6530  138.6920 C   0  0  0  0  0  3  0  0  0  0  0  0
  182.6920  177.3620  140.8420 N   0  0  0  0  0  0  0  0  0  0  0  0
  185.7220  178.9360  138.3190 C   0  0  0  0  0  1  0  0  0  0  0  0
  188.5120  177.3170  139.4070 C   0  0  0  0  0  2  0  0  0  0  0  0
  190.8820  177.0020  140.1180 C   0  0  0  0  0  3  0  0  0  0  0  0
  190.2370  176.6760  137.7230 C   0  0  1  0  0  3  0  0  0  0  0  0
  190.4910  175.8970  136.5960 O   0  0  0  0  0  1  0  0  0  0  0  0
  188.8260  176.4030  138.2250 C   0  0  0  0  0  2  0  0  0  0  0  0
  189.6320  177.3840  140.4280 C   0  0  0  0  0  0  0  0  0  0  0  0
  191.2260  176.3140  138.8240 C   0  0  0  0  0  2  0  0  0  0  0  0
  189.7320  177.0470  145.4970 C   0  0  2  0  0  3  0  0  0  0  0  0
  188.6360  177.8040  145.9310 O   0  0  0  0  0  1  0  0  0  0  0  0
  190.8740  177.1320  146.4980 C   0  0  0  0  0  2  0  0  0  0  0  0
  191.7690  175.9100  146.3840 C   0  0  0  0  0  2  0  0  0  0  0  0
  192.4960  175.6700  147.6940 C   0  0  0  0  0  2  0  0  0  0  0  0
  192.4720  176.8740  148.5070 N   0  0  0  0  0  2  0  0  0  0  0  0
  193.4570  176.6900  149.5560 C   0  0  0  0  0  1  0  0  0  0  0  0
  1  7  1  0  0  0  0
  2  6  1  6  0  0  0
  2  7  1  0  0  0  0
  2  5  1  0  0  0  0
  3 25  1  6  0  0  0
  3  2  1  0  0  0  0
  4  8  1  1  0  0  0
  4  1  1  0  0  0  0
  5 27  1  1  0  0  0
  6  5  1  0  0  0  0
  8  3  1  0  0  0  0
  9 16  1  6  0  0  0
 10 11  1  0  0  0  0
 11 15  2  0  0  0  0
 11 13  1  0  0  0  0
 12  9  1  0  0  0  0
 13  4  1  0  0  0  0
 13 12  1  1  0  0  0
 14 18  2  0  0  0  0
 15  9  1  0  0  0  0
 17 10  2  0  0  0  0
 17 14  1  0  0  0  0
 18 15  1  0  0  0  0
 19 10  1  0  0  0  0
 20 25  1  0  0  0  0
 21 25  2  0  0  0  0
 22 23  1  6  0  0  0
 22 24  1  0  0  0  0
 22 26  1  0  0  0  0
 24 20  1  0  0  0  0
 26 21  1  0  0  0  0
 27 28  1  1  0  0  0
 27 29  1  0  0  0  0
 30 29  1  0  0  0  0
 30 31  1  0  0  0  0
 31 32  1  0  0  0  0
 32 33  1  0  0  0  0
M  END
>  <MODEL>
1

>  <REMARK>
 VINA RESULT:      -7.7      0.000      0.000
  Name = 
  7 active torsions:
  status: ('A' for Active; 'I' for Inactive)
    1  A    between atoms: N_2  and  C_9
    2  A    between atoms: C_4  and  C_24
    3  A    between atoms: C_4  and  C_29
    4  A    between atoms: C_9  and  C_23
    5  A    between atoms: C_12  and  N_20
    6  A    between atoms: C_18  and  C_26
    7  A    between atoms: C_23  and  C_29
                            x       y       z     vdW  Elec       q    Type
                         _______ _______ _______ _____ _____    ______ ____

>  <TORSDO>
F 7

$$$$
=
 OpenBabel11042409493D

 33 37  0  0  1  0  0  0  0  0999 V2000
  187.8170  178.1270  142.4910 C   0  0  0  0  0  2  0  0  0  0  0  0
  190.0150  177.2160  141.7550 C   0  0  2  0  0  0  0  0  0  0  0  0
  189.8410  176.0370  142.7160 C   0  0  2  0  0  3  0  0  0  0  0  0
  187.8810  177.2160  143.6400 N   0  0  2  0  0  0  0  0  0  0  0  0
  190.2880  176.7970  140.3090 C   0  0  2  0  0  3  0  0  0  0  0  0
  191.4000  177.4040  141.1680 C   0  0  0  0  0  2  0  0  0  0  0  0
  189.2280  178.4980  142.0390 C   0  0  0  0  0  2  0  0  0  0  0  0
  188.3700  175.9310  143.1310 C   0  0  0  0  0  2  0  0  0  0  0  0
  185.1700  179.0530  143.6580 C   0  0  2  0  0  3  0  0  0  0  0  0
  186.7010  177.7030  146.7200 C   0  0  0  0  0  0  0  0  0  0  0  0
  186.3250  177.9210  145.3890 C   0  0  0  0  0  0  0  0  0  0  0  0
  185.4920  177.6260  143.2030 C   0  0  0  0  0  2  0  0  0  0  0  0
  186.5270  177.0410  144.1930 C   0  0  1  0  0  3  0  0  0  0  0  0
  185.7420  179.8260  147.2610 N   0  0  0  0  0  0  0  0  0  0  0  0
  185.6190  179.0470  145.0640 C   0  0  0  0  0  0  0  0  0  0  0  0
  183.6730  179.2790  143.5730 C   0  0  0  0  0  1  0  0  0  0  0  0
  186.4020  178.6990  147.6580 C   0  0  0  0  0  3  0  0  0  0  0  0
  185.3460  179.9950  145.9960 N   0  0  0  0  0  0  0  0  0  0  0  0
  187.3450  176.4390  147.1720 C   0  0  0  0  0  1  0  0  0  0  0  0
  190.5410  177.1960  144.9590 C   0  0  0  0  0  2  0  0  0  0  0  0
  191.5900  175.0890  144.1290 C   0  0  0  0  0  3  0  0  0  0  0  0
  191.9840  175.8450  146.4820 C   0  0  1  0  0  3  0  0  0  0  0  0
  192.9480  175.9070  147.4860 O   0  0  0  0  0  1  0  0  0  0  0  0
  191.6590  177.2510  145.9980 C   0  0  0  0  0  2  0  0  0  0  0  0
  190.7450  176.1120  143.9170 C   0  0  0  0  0  0  0  0  0  0  0  0
  192.5250  175.0380  145.3080 C   0  0  0  0  0  2  0  0  0  0  0  0
  189.7920  177.7510  139.2030 C   0  0  2  0  0  3  0  0  0  0  0  0
  188.3990  177.8930  139.1610 O   0  0  0  0  0  1  0  0  0  0  0  0
  190.3300  177.3240  137.8460 C   0  0  0  0  0  2  0  0  0  0  0  0
  189.7680  175.9690  137.4570 C   0  0  0  0  0  2  0  0  0  0  0  0
  190.8480  175.1200  136.8110 C   0  0  0  0  0  2  0  0  0  0  0  0
  191.5610  174.3630  137.8260 N   0  0  0  0  0  2  0  0  0  0  0  0
  192.9730  174.4580  137.5020 C   0  0  0  0  0  1  0  0  0  0  0  0
  2  6  1  1  0  0  0
  2  7  1  0  0  0  0
  2  3  1  0  0  0  0
  3  8  1  0  0  0  0
  3 25  1  1  0  0  0
  4  1  1  6  0  0  0
  4 13  1  0  0  0  0
  5 27  1  6  0  0  0
  5  6  1  0  0  0  0
  5  2  1  0  0  0  0
  7  1  1  0  0  0  0
  8  4  1  0  0  0  0
  9 16  1  1  0  0  0
  9 15  1  0  0  0  0
 10 19  1  0  0  0  0
 10 17  1  0  0  0  0
 11 10  2  0  0  0  0
 12  9  1  0  0  0  0
 13 12  1  6  0  0  0
 13 11  1  0  0  0  0
 14 17  2  0  0  0  0
 15 11  1  0  0  0  0
 15 18  2  0  0  0  0
 18 14  1  0  0  0  0
 20 24  1  0  0  0  0
 21 26  1  0  0  0  0
 22 23  1  1  0  0  0
 24 22  1  0  0  0  0
 25 21  2  0  0  0  0
 25 20  1  0  0  0  0
 26 22  1  0  0  0  0
 27 28  1  6  0  0  0
 29 27  1  0  0  0  0
 30 29  1  0  0  0  0
 31 30  1  0  0  0  0
 31 32  1  0  0  0  0
 33 32  1  0  0  0  0
M  END
>  <MODEL>
2

>  <REMARK>
 VINA RESULT:      -7.4      2.927      6.741
  Name = 
  7 active torsions:
  status: ('A' for Active; 'I' for Inactive)
    1  A    between atoms: N_2  and  C_9
    2  A    between atoms: C_4  and  C_24
    3  A    between atoms: C_4  and  C_29
    4  A    between atoms: C_9  and  C_23
    5  A    between atoms: C_12  and  N_20
    6  A    between atoms: C_18  and  C_26
    7  A    between atoms: C_23  and  C_29
                            x       y       z     vdW  Elec       q    Type
                         _______ _______ _______ _____ _____    ______ ____

>  <TORSDO>
F 7

$$$$
=
 OpenBabel11042409493D

 33 37  0  0  1  0  0  0  0  0999 V2000
  187.0850  177.8370  142.5790 C   0  0  0  0  0  2  0  0  0  0  0  0
  189.4510  177.2320  142.0900 C   0  0  2  0  0  0  0  0  0  0  0  0
  189.3660  177.9970  140.7660 C   0  0  2  0  0  3  0  0  0  0  0  0
  186.9410  178.2120  141.1670 N   0  0  2  0  0  0  0  0  0  0  0  0
  190.6120  177.6720  142.9820 C   0  0  2  0  0  3  0  0  0  0  0  0
  190.6510  176.3220  142.2620 C   0  0  0  0  0  2  0  0  0  0  0  0
  188.1450  176.7480  142.7250 C   0  0  0  0  0  2  0  0  0  0  0  0
  188.1590  178.9400  140.7990 C   0  0  0  0  0  2  0  0  0  0  0  0
  183.9650  178.3110  142.5290 C   0  0  2  0  0  3  0  0  0  0  0  0
  184.5070  178.2570  138.8890 C   0  0  0  0  0  0  0  0  0  0  0  0
  184.6750  178.4090  140.2700 C   0  0  0  0  0  0  0  0  0  0  0  0
  185.1190  179.3130  142.4030 C   0  0  0  0  0  2  0  0  0  0  0  0
  185.7750  179.0990  141.0190 C   0  0  1  0  0  3  0  0  0  0  0  0
  182.4870  177.0600  139.3420 N   0  0  0  0  0  0  0  0  0  0  0  0
  183.7130  177.9400  141.1220 C   0  0  0  0  0  0  0  0  0  0  0  0
  182.7580  179.0120  143.1240 C   0  0  0  0  0  1  0  0  0  0  0  0
  183.3840  177.5520  138.4390 C   0  0  0  0  0  3  0  0  0  0  0  0
  182.6370  177.2580  140.6550 N   0  0  0  0  0  0  0  0  0  0  0  0
  185.4380  178.8640  137.8980 C   0  0  0  0  0  1  0  0  0  0  0  0
  188.1090  177.0930  138.6530 C   0  0  0  0  0  2  0  0  0  0  0  0
  190.4560  176.4590  139.2160 C   0  0  0  0  0  3  0  0  0  0  0  0
  189.5210  175.9320  136.9550 C   0  0  1  0  0  3  0  0  0  0  0  0
  189.5260  174.9740  135.9430 O   0  0  0  0  0  1  0  0  0  0  0  0
  188.1440  175.9850  137.6010 C   0  0  0  0  0  2  0  0  0  0  0  0
  189.3240  177.0960  139.5610 C   0  0  0  0  0  0  0  0  0  0  0  0
  190.5450  175.5520  138.0180 C   0  0  0  0  0  2  0  0  0  0  0  0
  190.4090  177.5380  144.5060 C   0  0  2  0  0  3  0  0  0  0  0  0
  189.6970  178.6000  145.0770 O   0  0  0  0  0  1  0  0  0  0  0  0
  191.7430  177.3440  145.2090 C   0  0  0  0  0  2  0  0  0  0  0  0
  191.6220  176.2830  146.2880 C   0  0  0  0  0  2  0  0  0  0  0  0
  191.0280  176.8840  147.5490 C   0  0  0  0  0  2  0  0  0  0  0  0
  189.6150  176.5570  147.6390 N   0  0  0  0  0  2  0  0  0  0  0  0
  188.9600  177.7000  148.2480 C   0  0  0  0  0  1  0  0  0  0  0  0
  1  7  1  0  0  0  0
  2  6  1  6  0  0  0
  2  7  1  0  0  0  0
  2  5  1  0  0  0  0
  3 25  1  6  0  0  0
  3  8  1  0  0  0  0
  3  2  1  0  0  0  0
  4  8  1  1  0  0  0
  4  1  1  0  0  0  0
  5 27  1  1  0  0  0
  6  5  1  0  0  0  0
  9 16  1  6  0  0  0
 10 11  1  0  0  0  0
 11 13  1  0  0  0  0
 11 15  2  0  0  0  0
 12  9  1  0  0  0  0
 13  4  1  0  0  0  0
 13 12  1  1  0  0  0
 14 18  2  0  0  0  0
 15  9  1  0  0  0  0
 17 10  2  0  0  0  0
 17 14  1  0  0  0  0
 18 15  1  0  0  0  0
 19 10  1  0  0  0  0
 20 25  1  0  0  0  0
 21 25  2  0  0  0  0
 22 23  1  6  0  0  0
 22 24  1  0  0  0  0
 22 26  1  0  0  0  0
 24 20  1  0  0  0  0
 26 21  1  0  0  0  0
 27 28  1  1  0  0  0
 27 29  1  0  0  0  0
 29 30  1  0  0  0  0
 30 31  1  0  0  0  0
 31 32  1  0  0  0  0
 32 33  1  0  0  0  0
M  END
>  <MODEL>
3

>  <REMARK>
 VINA RESULT:      -7.3      1.122      1.339
  Name = 
  7 active torsions:
  status: ('A' for Active; 'I' for Inactive)
    1  A    between atoms: N_2  and  C_9
    2  A    between atoms: C_4  and  C_24
    3  A    between atoms: C_4  and  C_29
    4  A    between atoms: C_9  and  C_23
    5  A    between atoms: C_12  and  N_20
    6  A    between atoms: C_18  and  C_26
    7  A    between atoms: C_23  and  C_29
                            x       y       z     vdW  Elec       q    Type
                         _______ _______ _______ _____ _____    ______ ____

>  <TORSDO>
F 7

$$$$
=
 OpenBabel11042409493D

 33 37  0  0  1  0  0  0  0  0999 V2000
  190.2900  176.9960  140.7100 C   0  0  0  0  0  2  0  0  0  0  0  0
  190.2770  176.4730  138.2750 C   0  0  2  0  0  0  0  0  0  0  0  0
  189.2220  177.5610  138.0530 C   0  0  2  0  0  3  0  0  0  0  0  0
  189.0360  177.7330  140.5070 N   0  0  2  0  0  0  0  0  0  0  0  0
  191.5170  176.6290  137.3940 C   0  0  2  0  0  3  0  0  0  0  0  0
  190.5040  175.5160  137.1220 C   0  0  0  0  0  2  0  0  0  0  0  0
  190.4110  175.8760  139.6780 C   0  0  0  0  0  2  0  0  0  0  0  0
  189.1930  178.4960  139.2650 C   0  0  0  0  0  2  0  0  0  0  0  0
  189.5910  177.5630  143.7290 C   0  0  2  0  0  3  0  0  0  0  0  0
  186.3130  178.4320  142.2990 C   0  0  0  0  0  0  0  0  0  0  0  0
  187.6840  178.2180  142.4840 C   0  0  0  0  0  0  0  0  0  0  0  0
  190.0180  178.5300  142.6190 C   0  0  0  0  0  2  0  0  0  0  0  0
  188.8340  178.6610  141.6320 C   0  0  1  0  0  3  0  0  0  0  0  0
  185.9250  177.2160  144.3220 N   0  0  0  0  0  0  0  0  0  0  0  0
  188.1190  177.5730  143.6100 C   0  0  0  0  0  0  0  0  0  0  0  0
  190.0250  178.1210  145.0720 C   0  0  0  0  0  1  0  0  0  0  0  0
  185.4320  177.8980  143.2470 C   0  0  0  0  0  3  0  0  0  0  0  0
  187.2390  177.0650  144.5100 N   0  0  0  0  0  0  0  0  0  0  0  0
  185.7750  179.2460  141.1750 C   0  0  0  0  0  1  0  0  0  0  0  0
  186.6500  177.9320  137.7250 C   0  0  0  0  0  2  0  0  0  0  0  0
  187.7710  175.7390  137.3250 C   0  0  0  0  0  3  0  0  0  0  0  0
  185.4270  176.1130  136.5320 C   0  0  1  0  0  3  0  0  0  0  0  0
  184.1920  175.4890  136.3720 O   0  0  0  0  0  1  0  0  0  0  0  0
  185.3220  177.1860  137.6060 C   0  0  0  0  0  2  0  0  0  0  0  0
  187.8550  177.0100  137.7530 C   0  0  0  0  0  0  0  0  0  0  0  0
  186.4630  175.0840  136.9690 C   0  0  0  0  0  2  0  0  0  0  0  0
  192.8500  176.1050  137.9700 C   0  0  2  0  0  3  0  0  0  0  0  0
  193.5330  177.0420  138.7560 O   0  0  0  0  0  1  0  0  0  0  0  0
  193.7450  175.5810  136.8580 C   0  0  0  0  0  2  0  0  0  0  0  0
  194.0150  174.0990  137.0510 C   0  0  0  0  0  2  0  0  0  0  0  0
  195.4440  173.8830  137.5140 C   0  0  0  0  0  2  0  0  0  0  0  0
  195.4650  173.5400  138.9260 N   0  0  0  0  0  2  0  0  0  0  0  0
  196.1710  174.6090  139.6060 C   0  0  0  0  0  1  0  0  0  0  0  0
  2  6  1  6  0  0  0
  2  7  1  0  0  0  0
  3 25  1  1  0  0  0
  3  2  1  0  0  0  0
  3  8  1  0  0  0  0
  4  8  1  6  0  0  0
  4  1  1  0  0  0  0
  4 13  1  0  0  0  0
  5 27  1  1  0  0  0
  5  2  1  0  0  0  0
  6  5  1  0  0  0  0
  7  1  1  0  0  0  0
  9 16  1  1  0  0  0
 10 11  2  0  0  0  0
 10 17  1  0  0  0  0
 11 15  1  0  0  0  0
 12  9  1  0  0  0  0
 13 11  1  0  0  0  0
 13 12  1  1  0  0  0
 14 18  1  0  0  0  0
 15  9  1  0  0  0  0
 15 18  2  0  0  0  0
 17 14  2  0  0  0  0
 19 10  1  0  0  0  0
 20 25  1  0  0  0  0
 21 25  2  0  0  0  0
 22 23  1  1  0  0  0
 22 26  1  0  0  0  0
 22 24  1  0  0  0  0
 24 20  1  0  0  0  0
 26 21  1  0  0  0  0
 27 28  1  6  0  0  0
 29 30  1  0  0  0  0
 29 27  1  0  0  0  0
 30 31  1  0  0  0  0
 31 32  1  0  0  0  0
 32 33  1  0  0  0  0
M  END
>  <MODEL>
4

>  <REMARK>
 VINA RESULT:      -6.8      3.083      6.203
  Name = 
  7 active torsions:
  status: ('A' for Active; 'I' for Inactive)
    1  A    between atoms: N_2  and  C_9
    2  A    between atoms: C_4  and  C_24
    3  A    between atoms: C_4  and  C_29
    4  A    between atoms: C_9  and  C_23
    5  A    between atoms: C_12  and  N_20
    6  A    between atoms: C_18  and  C_26
    7  A    between atoms: C_23  and  C_29
                            x       y       z     vdW  Elec       q    Type
                         _______ _______ _______ _____ _____    ______ ____

>  <TORSDO>
F 7

$$$$
=
 OpenBabel11042409493D

 33 37  0  0  1  0  0  0  0  0999 V2000
  184.2350  177.3150  138.0250 C   0  0  0  0  0  2  0  0  0  0  0  0
  183.3110  178.3790  140.0780 C   0  0  2  0  0  0  0  0  0  0  0  0
  184.5880  179.2130  140.2130 C   0  0  2  0  0  3  0  0  0  0  0  0
  185.5530  177.8340  138.4100 N   0  0  2  0  0  0  0  0  0  0  0  0
  182.0290  179.2130  140.0650 C   0  0  2  0  0  3  0  0  0  0  0  0
  182.3910  178.3610  141.2830 C   0  0  0  0  0  2  0  0  0  0  0  0
  183.3820  177.0810  139.2700 C   0  0  0  0  0  2  0  0  0  0  0  0
  185.3440  179.2060  138.8810 C   0  0  0  0  0  2  0  0  0  0  0  0
  186.4200  175.5930  136.1860 C   0  0  2  0  0  3  0  0  0  0  0  0
  188.8630  177.5300  138.1420 C   0  0  0  0  0  0  0  0  0  0  0  0
  187.6980  177.0970  137.4980 C   0  0  0  0  0  0  0  0  0  0  0  0
  185.7940  176.9900  136.1100 C   0  0  0  0  0  2  0  0  0  0  0  0
  186.4310  177.8490  137.2280 C   0  0  1  0  0  3  0  0  0  0  0  0
  189.7910  175.3580  137.7650 N   0  0  0  0  0  0  0  0  0  0  0  0
  187.6540  175.8400  136.9590 C   0  0  0  0  0  0  0  0  0  0  0  0
  186.7510  175.1170  134.7840 C   0  0  0  0  0  1  0  0  0  0  0  0
  189.9160  176.6170  138.2770 C   0  0  0  0  0  3  0  0  0  0  0  0
  188.6910  174.9770  137.1090 N   0  0  0  0  0  0  0  0  0  0  0  0
  189.0360  178.9270  138.6270 C   0  0  0  0  0  1  0  0  0  0  0  0
  184.8570  178.2540  142.6360 C   0  0  0  0  0  2  0  0  0  0  0  0
  186.7890  178.6540  141.1080 C   0  0  0  0  0  3  0  0  0  0  0  0
  187.0960  177.3030  143.1920 C   0  0  1  0  0  3  0  0  0  0  0  0
  187.9930  177.0360  144.2240 O   0  0  0  0  0  1  0  0  0  0  0  0
  185.8820  178.0340  143.7470 C   0  0  0  0  0  2  0  0  0  0  0  0
  185.4710  178.7670  141.3470 C   0  0  0  0  0  0  0  0  0  0  0  0
  187.7690  178.1930  142.1530 C   0  0  0  0  0  2  0  0  0  0  0  0
  180.8380  178.6450  139.2650 C   0  0  2  0  0  3  0  0  0  0  0  0
  180.8800  178.9470  137.8980 O   0  0  0  0  0  1  0  0  0  0  0  0
  179.5190  179.0950  139.8750 C   0  0  0  0  0  2  0  0  0  0  0  0
  179.6700  180.4670  140.5060 C   0  0  0  0  0  2  0  0  0  0  0  0
  178.9790  180.5010  141.8570 C   0  0  0  0  0  2  0  0  0  0  0  0
  179.9660  180.5030  142.9230 N   0  0  0  0  0  2  0  0  0  0  0  0
  179.7020  179.3330  143.7400 C   0  0  0  0  0  1  0  0  0  0  0  0
  1  7  1  0  0  0  0
  2  7  1  6  0  0  0
  2  3  1  0  0  0  0
  2  6  1  0  0  0  0
  3 25  1  1  0  0  0
  4  1  1  6  0  0  0
  4  8  1  0  0  0  0
  5 27  1  6  0  0  0
  5  2  1  0  0  0  0
  5  6  1  0  0  0  0
  8  3  1  0  0  0  0
  9 16  1  6  0  0  0
  9 15  1  0  0  0  0
 10 17  1  0  0  0  0
 10 19  1  0  0  0  0
 11 10  2  0  0  0  0
 12  9  1  0  0  0  0
 13 12  1  6  0  0  0
 13 11  1  0  0  0  0
 13  4  1  0  0  0  0
 14 17  2  0  0  0  0
 15 18  2  0  0  0  0
 15 11  1  0  0  0  0
 18 14  1  0  0  0  0
 20 24  1  0  0  0  0
 21 25  2  0  0  0  0
 21 26  1  0  0  0  0
 22 24  1  0  0  0  0
 22 23  1  1  0  0  0
 25 20  1  0  0  0  0
 26 22  1  0  0  0  0
 27 28  1  6  0  0  0
 27 29  1  0  0  0  0
 29 30  1  0  0  0  0
 30 31  1  0  0  0  0
 31 32  1  0  0  0  0
 32 33  1  0  0  0  0
M  END
>  <MODEL>
5

>  <REMARK>
 VINA RESULT:      -6.6      3.879      8.425
  Name = 
  7 active torsions:
  status: ('A' for Active; 'I' for Inactive)
    1  A    between atoms: N_2  and  C_9
    2  A    between atoms: C_4  and  C_24
    3  A    between atoms: C_4  and  C_29
    4  A    between atoms: C_9  and  C_23
    5  A    between atoms: C_12  and  N_20
    6  A    between atoms: C_18  and  C_26
    7  A    between atoms: C_23  and  C_29
                            x       y       z     vdW  Elec       q    Type
                         _______ _______ _______ _____ _____    ______ ____

>  <TORSDO>
F 7

$$$$
=
 OpenBabel11042409493D

 33 37  0  0  1  0  0  0  0  0999 V2000
  187.5440  178.1980  142.2390 C   0  0  0  0  0  2  0  0  0  0  0  0
  189.7440  177.3090  141.4820 C   0  0  2  0  0  0  0  0  0  0  0  0
  189.6240  176.1680  142.4960 C   0  0  2  0  0  3  0  0  0  0  0  0
  187.6610  177.3380  143.4230 N   0  0  2  0  0  0  0  0  0  0  0  0
  189.9890  176.8350  140.0480 C   0  0  2  0  0  3  0  0  0  0  0  0
  191.1070  177.5030  140.8500 C   0  0  0  0  0  2  0  0  0  0  0  0
  188.9330  178.5820  141.7330 C   0  0  0  0  0  2  0  0  0  0  0  0
  188.1690  176.0450  142.9560 C   0  0  0  0  0  2  0  0  0  0  0  0
  184.9870  179.2150  143.6500 C   0  0  2  0  0  3  0  0  0  0  0  0
  186.6130  177.6750  146.5710 C   0  0  0  0  0  0  0  0  0  0  0  0
  186.1890  177.9710  145.2700 C   0  0  0  0  0  0  0  0  0  0  0  0
  185.2650  177.8090  143.1060 C   0  0  0  0  0  2  0  0  0  0  0  0
  186.3270  177.1550  144.0210 C   0  0  1  0  0  3  0  0  0  0  0  0
  185.7150  179.7800  147.2640 N   0  0  0  0  0  0  0  0  0  0  0  0
  185.4910  179.1250  145.0340 C   0  0  0  0  0  0  0  0  0  0  0  0
  183.4920  179.4690  143.6370 C   0  0  0  0  0  1  0  0  0  0  0  0
  186.3690  178.6230  147.5720 C   0  0  0  0  0  3  0  0  0  0  0  0
  185.2720  180.0250  146.0270 N   0  0  0  0  0  0  0  0  0  0  0  0
  187.2510  176.3780  146.9280 C   0  0  0  0  0  1  0  0  0  0  0  0
  190.4230  177.5000  144.6060 C   0  0  0  0  0  2  0  0  0  0  0  0
  191.3650  175.2810  143.9600 C   0  0  0  0  0  3  0  0  0  0  0  0
  191.8430  176.2360  146.2230 C   0  0  1  0  0  3  0  0  0  0  0  0
  192.8310  176.3500  147.1980 O   0  0  0  0  0  1  0  0  0  0  0  0
  191.5660  177.6040  145.6140 C   0  0  0  0  0  2  0  0  0  0  0  0
  190.5580  176.3150  143.6670 C   0  0  0  0  0  0  0  0  0  0  0  0
  192.3230  175.2990  145.1210 C   0  0  0  0  0  2  0  0  0  0  0  0
  189.4400  177.7290  138.9170 C   0  0  2  0  0  3  0  0  0  0  0  0
  189.1490  179.0380  139.3210 O   0  0  0  0  0  1  0  0  0  0  0  0
  188.2260  177.0840  138.2650 C   0  0  0  0  0  2  0  0  0  0  0  0
  187.2190  178.1450  137.8580 C   0  0  0  0  0  2  0  0  0  0  0  0
  185.9370  177.9820  138.6530 C   0  0  0  0  0  2  0  0  0  0  0  0
  185.1820  179.2230  138.6430 N   0  0  0  0  0  2  0  0  0  0  0  0
  184.4040  179.2500  139.8680 C   0  0  0  0  0  1  0  0  0  0  0  0
  2  6  1  1  0  0  0
  2  7  1  0  0  0  0
  2  3  1  0  0  0  0
  3  8  1  0  0  0  0
  3 25  1  1  0  0  0
  4  1  1  6  0  0  0
  4 13  1  0  0  0  0
  5 27  1  6  0  0  0
  5  6  1  0  0  0  0
  5  2  1  0  0  0  0
  7  1  1  0  0  0  0
  8  4  1  0  0  0  0
  9 16  1  1  0  0  0
  9 15  1  0  0  0  0
 10 19  1  0  0  0  0
 10 17  1  0  0  0  0
 11 10  2  0  0  0  0
 12  9  1  0  0  0  0
 13 12  1  6  0  0  0
 13 11  1  0  0  0  0
 14 17  2  0  0  0  0
 15 11  1  0  0  0  0
 15 18  2  0  0  0  0
 18 14  1  0  0  0  0
 20 24  1  0  0  0  0
 21 26  1  0  0  0  0
 22 23  1  1  0  0  0
 24 22  1  0  0  0  0
 25 21  2  0  0  0  0
 25 20  1  0  0  0  0
 26 22  1  0  0  0  0
 27 28  1  1  0  0  0
 29 27  1  0  0  0  0
 30 29  1  0  0  0  0
 30 31  1  0  0  0  0
 32 31  1  0  0  0  0
 32 33  1  0  0  0  0
M  END
>  <MODEL>
6

>  <REMARK>
 VINA RESULT:      -6.5      2.401      6.850
  Name = 
  7 active torsions:
  status: ('A' for Active; 'I' for Inactive)
    1  A    between atoms: N_2  and  C_9
    2  A    between atoms: C_4  and  C_24
    3  A    between atoms: C_4  and  C_29
    4  A    between atoms: C_9  and  C_23
    5  A    between atoms: C_12  and  N_20
    6  A    between atoms: C_18  and  C_26
    7  A    between atoms: C_23  and  C_29
                            x       y       z     vdW  Elec       q    Type
                         _______ _______ _______ _____ _____    ______ ____

>  <TORSDO>
F 7

$$$$
=
 OpenBabel11042409493D

 33 37  0  0  1  0  0  0  0  0999 V2000
  187.7720  177.4710  141.3640 C   0  0  0  0  0  2  0  0  0  0  0  0
  187.7170  177.6030  143.8500 C   0  0  2  0  0  0  0  0  0  0  0  0
  189.0950  178.2680  143.8390 C   0  0  2  0  0  3  0  0  0  0  0  0
  189.2120  177.7450  141.4310 N   0  0  2  0  0  0  0  0  0  0  0  0
  186.6540  178.4000  144.6070 C   0  0  2  0  0  3  0  0  0  0  0  0
  187.2230  177.1070  145.1950 C   0  0  0  0  0  2  0  0  0  0  0  0
  187.3140  176.7610  142.6370 C   0  0  0  0  0  2  0  0  0  0  0  0
  189.3930  178.7990  142.4340 C   0  0  0  0  0  2  0  0  0  0  0  0
  188.3080  177.1630  138.3390 C   0  0  2  0  0  3  0  0  0  0  0  0
  191.7710  176.7810  139.5230 C   0  0  0  0  0  0  0  0  0  0  0  0
  190.4290  177.1590  139.3940 C   0  0  0  0  0  0  0  0  0  0  0  0
  188.4520  178.4280  139.1920 C   0  0  0  0  0  2  0  0  0  0  0  0
  189.6730  178.2300  140.1200 C   0  0  1  0  0  3  0  0  0  0  0  0
  191.3910  175.1240  137.8420 N   0  0  0  0  0  0  0  0  0  0  0  0
  189.6460  176.5500  138.4520 C   0  0  0  0  0  0  0  0  0  0  0  0
  188.0170  177.5580  136.9030 C   0  0  0  0  0  1  0  0  0  0  0  0
  192.2360  175.7290  138.7260 C   0  0  0  0  0  3  0  0  0  0  0  0
  190.1260  175.5300  137.6950 N   0  0  0  0  0  0  0  0  0  0  0  0
  192.7180  177.4930  140.4250 C   0  0  0  0  0  1  0  0  0  0  0  0
  190.5350  177.3080  145.8050 C   0  0  0  0  0  2  0  0  0  0  0  0
  190.7150  176.4830  143.4570 C   0  0  0  0  0  3  0  0  0  0  0  0
  191.7680  175.1930  145.3250 C   0  0  1  0  0  3  0  0  0  0  0  0
  192.8820  174.4250  145.6600 O   0  0  0  0  0  1  0  0  0  0  0  0
  191.7970  176.5000  146.1030 C   0  0  0  0  0  2  0  0  0  0  0  0
  190.1950  177.3650  144.3280 C   0  0  0  0  0  0  0  0  0  0  0  0
  191.8010  175.5110  143.8350 C   0  0  0  0  0  2  0  0  0  0  0  0
  185.1960  178.2530  144.1220 C   0  0  2  0  0  3  0  0  0  0  0  0
  184.9710  178.7760  142.8430 O   0  0  0  0  0  1  0  0  0  0  0  0
  184.2320  178.8590  145.1300 C   0  0  0  0  0  2  0  0  0  0  0  0
  183.1180  179.6020  144.4140 C   0  0  0  0  0  2  0  0  0  0  0  0
  181.9210  178.6880  144.2180 C   0  0  0  0  0  2  0  0  0  0  0  0
  181.0350  179.2380  143.2070 N   0  0  0  0  0  2  0  0  0  0  0  0
  181.5790  178.8500  141.9190 C   0  0  0  0  0  1  0  0  0  0  0  0
  1  7  1  0  0  0  0
  2  7  1  6  0  0  0
  2  5  1  0  0  0  0
  2  6  1  0  0  0  0
  3  2  1  0  0  0  0
  3 25  1  6  0  0  0
  4  1  1  6  0  0  0
  4  8  1  0  0  0  0
  5 27  1  6  0  0  0
  5  6  1  0  0  0  0
  8  3  1  0  0  0  0
  9 16  1  6  0  0  0
  9 15  1  0  0  0  0
  9 12  1  0  0  0  0
 10 19  1  0  0  0  0
 11 10  1  0  0  0  0
 11 13  1  0  0  0  0
 13 12  1  6  0  0  0
 13  4  1  0  0  0  0
 14 17  1  0  0  0  0
 15 11  2  0  0  0  0
 17 10  2  0  0  0  0
 18 14  2  0  0  0  0
 18 15  1  0  0  0  0
 20 24  1  0  0  0  0
 21 26  1  0  0  0  0
 21 25  2  0  0  0  0
 22 23  1  1  0  0  0
 22 24  1  0  0  0  0
 25 20  1  0  0  0  0
 26 22  1  0  0  0  0
 27 28  1  6  0  0  0
 27 29  1  0  0  0  0
 30 29  1  0  0  0  0
 31 30  1  0  0  0  0
 32 31  1  0  0  0  0
 33 32  1  0  0  0  0
M  END
>  <MODEL>
7

>  <REMARK>
 VINA RESULT:      -6.5      3.031      7.042
  Name = 
  7 active torsions:
  status: ('A' for Active; 'I' for Inactive)
    1  A    between atoms: N_2  and  C_9
    2  A    between atoms: C_4  and  C_24
    3  A    between atoms: C_4  and  C_29
    4  A    between atoms: C_9  and  C_23
    5  A    between atoms: C_12  and  N_20
    6  A    between atoms: C_18  and  C_26
    7  A    between atoms: C_23  and  C_29
                            x       y       z     vdW  Elec       q    Type
                         _______ _______ _______ _____ _____    ______ ____

>  <TORSDO>
F 7

$$$$
=
 OpenBabel11042409493D

 33 37  0  0  1  0  0  0  0  0999 V2000
  187.6580  178.0460  141.1170 C   0  0  0  0  0  2  0  0  0  0  0  0
  190.0460  177.3410  141.1780 C   0  0  2  0  0  0  0  0  0  0  0  0
  190.1880  177.7160  139.7010 C   0  0  2  0  0  3  0  0  0  0  0  0
  187.7410  178.0220  139.6520 N   0  0  2  0  0  0  0  0  0  0  0  0
  191.0780  178.0120  142.0860 C   0  0  2  0  0  3  0  0  0  0  0  0
  191.1720  176.5180  141.7720 C   0  0  0  0  0  2  0  0  0  0  0  0
  188.6440  177.0420  141.7130 C   0  0  0  0  0  2  0  0  0  0  0  0
  189.0270  178.6280  139.2920 C   0  0  0  0  0  2  0  0  0  0  0  0
  184.4780  177.9260  139.9090 C   0  0  2  0  0  3  0  0  0  0  0  0
  186.2390  177.9050  136.6770 C   0  0  0  0  0  0  0  0  0  0  0  0
  185.9130  178.0690  138.0290 C   0  0  0  0  0  0  0  0  0  0  0  0
  185.5410  179.0010  140.1630 C   0  0  0  0  0  2  0  0  0  0  0  0
  186.6440  178.8300  139.0930 C   0  0  1  0  0  3  0  0  0  0  0  0
  184.2640  176.5780  136.4390 N   0  0  0  0  0  0  0  0  0  0  0  0
  184.7480  177.5380  138.5110 C   0  0  0  0  0  0  0  0  0  0  0  0
  183.1000  178.5460  140.0390 C   0  0  0  0  0  1  0  0  0  0  0  0
  185.3840  177.1270  135.8870 C   0  0  0  0  0  3  0  0  0  0  0  0
  183.9410  176.7860  137.7190 N   0  0  0  0  0  0  0  0  0  0  0  0
  187.4140  178.5720  136.0510 C   0  0  0  0  0  1  0  0  0  0  0  0
  189.0670  176.0150  138.0540 C   0  0  0  0  0  2  0  0  0  0  0  0
  191.5200  176.0540  138.5090 C   0  0  0  0  0  3  0  0  0  0  0  0
  190.6220  174.7300  136.5850 C   0  0  1  0  0  3  0  0  0  0  0  0
  190.7930  173.5460  135.8710 O   0  0  0  0  0  1  0  0  0  0  0  0
  189.3000  174.6860  137.3390 C   0  0  0  0  0  2  0  0  0  0  0  0
  190.2930  176.5210  138.7920 C   0  0  0  0  0  0  0  0  0  0  0  0
  191.7540  174.8820  137.5940 C   0  0  0  0  0  2  0  0  0  0  0  0
  190.6450  178.2970  143.5400 C   0  0  2  0  0  3  0  0  0  0  0  0
  190.9290  179.6000  143.9690 O   0  0  0  0  0  1  0  0  0  0  0  0
  191.2500  177.2750  144.4890 C   0  0  0  0  0  2  0  0  0  0  0  0
  190.4030  177.1520  145.7430 C   0  0  0  0  0  2  0  0  0  0  0  0
  188.9290  177.1610  145.3820 C   0  0  0  0  0  2  0  0  0  0  0  0
  188.1320  177.5020  146.5480 N   0  0  0  0  0  2  0  0  0  0  0  0
  189.0570  177.6610  147.6540 C   0  0  0  0  0  1  0  0  0  0  0  0
  1  7  1  0  0  0  0
  2  7  1  1  0  0  0
  2  6  1  0  0  0  0
  2  5  1  0  0  0  0
  3 25  1  6  0  0  0
  3  2  1  0  0  0  0
  4  8  1  1  0  0  0
  4  1  1  0  0  0  0
  5 27  1  1  0  0  0
  6  5  1  0  0  0  0
  8  3  1  0  0  0  0
  9 16  1  6  0  0  0
  9 12  1  0  0  0  0
 10 11  1  0  0  0  0
 11 15  2  0  0  0  0
 11 13  1  0  0  0  0
 13  4  1  0  0  0  0
 13 12  1  1  0  0  0
 14 18  2  0  0  0  0
 15  9  1  0  0  0  0
 17 14  1  0  0  0  0
 17 10  2  0  0  0  0
 18 15  1  0  0  0  0
 19 10  1  0  0  0  0
 20 25  1  0  0  0  0
 21 25  2  0  0  0  0
 22 23  1  1  0  0  0
 22 24  1  0  0  0  0
 22 26  1  0  0  0  0
 24 20  1  0  0  0  0
 26 21  1  0  0  0  0
 27 28  1  1  0  0  0
 27 29  1  0  0  0  0
 29 30  1  0  0  0  0
 31 30  1  0  0  0  0
 31 32  1  0  0  0  0
 32 33  1  0  0  0  0
M  END
>  <MODEL>
8

>  <REMARK>
 VINA RESULT:      -6.2      2.197      2.830
  Name = 
  7 active torsions:
  status: ('A' for Active; 'I' for Inactive)
    1  A    between atoms: N_2  and  C_9
    2  A    between atoms: C_4  and  C_24
    3  A    between atoms: C_4  and  C_29
    4  A    between atoms: C_9  and  C_23
    5  A    between atoms: C_12  and  N_20
    6  A    between atoms: C_18  and  C_26
    7  A    between atoms: C_23  and  C_29
                            x       y       z     vdW  Elec       q    Type
                         _______ _______ _______ _____ _____    ______ ____

>  <TORSDO>
F 7

$$$$
=
 OpenBabel11042409493D

 33 37  0  0  1  0  0  0  0  0999 V2000
  181.5480  177.9900  140.4760 C   0  0  0  0  0  2  0  0  0  0  0  0
  183.9560  178.4230  140.9410 C   0  0  2  0  0  0  0  0  0  0  0  0
  184.0770  179.1520  139.6010 C   0  0  2  0  0  3  0  0  0  0  0  0
  181.8070  178.3440  139.0750 N   0  0  2  0  0  0  0  0  0  0  0  0
  184.4250  179.2510  142.1380 C   0  0  2  0  0  3  0  0  0  0  0  0
  185.2580  178.0710  141.6330 C   0  0  0  0  0  2  0  0  0  0  0  0
  182.8130  177.4190  141.1130 C   0  0  0  0  0  2  0  0  0  0  0  0
  182.6800  179.5210  139.0930 C   0  0  0  0  0  2  0  0  0  0  0  0
  180.9540  179.1080  136.0070 C   0  0  2  0  0  3  0  0  0  0  0  0
  180.1490  181.2320  138.9030 C   0  0  0  0  0  0  0  0  0  0  0  0
  180.4860  180.1470  138.0850 C   0  0  0  0  0  0  0  0  0  0  0  0
  180.4950  178.0460  137.0130 C   0  0  0  0  0  2  0  0  0  0  0  0
  180.5330  178.6880  138.4200 C   0  0  1  0  0  3  0  0  0  0  0  0
  180.5360  182.6690  137.0310 N   0  0  0  0  0  0  0  0  0  0  0  0
  180.7690  180.3620  136.7630 C   0  0  0  0  0  0  0  0  0  0  0  0
  180.0450  179.0730  134.7930 C   0  0  0  0  0  1  0  0  0  0  0  0
  180.1940  182.5140  138.3430 C   0  0  0  0  0  3  0  0  0  0  0  0
  180.8060  181.6190  136.2510 N   0  0  0  0  0  0  0  0  0  0  0  0
  179.6940  181.0610  140.3100 C   0  0  0  0  0  1  0  0  0  0  0  0
  184.1130  177.5030  137.5660 C   0  0  0  0  0  2  0  0  0  0  0  0
  186.1610  178.6280  138.4430 C   0  0  0  0  0  3  0  0  0  0  0  0
  186.2190  177.4640  136.2280 C   0  0  1  0  0  3  0  0  0  0  0  0
  187.0250  176.6860  135.3990 O   0  0  0  0  0  1  0  0  0  0  0  0
  185.0460  176.6320  136.7260 C   0  0  0  0  0  2  0  0  0  0  0  0
  184.8470  178.3730  138.5690 C   0  0  0  0  0  0  0  0  0  0  0  0
  187.0310  177.9320  137.4300 C   0  0  0  0  0  2  0  0  0  0  0  0
  183.7380  178.9700  143.4910 C   0  0  2  0  0  3  0  0  0  0  0  0
  182.4100  179.4100  143.5530 O   0  0  0  0  0  1  0  0  0  0  0  0
  184.5520  179.5520  144.6370 C   0  0  0  0  0  2  0  0  0  0  0  0
  184.5090  178.6270  145.8390 C   0  0  0  0  0  2  0  0  0  0  0  0
  185.9180  178.3150  146.3100 C   0  0  0  0  0  2  0  0  0  0  0  0
  186.6940  177.7470  145.2210 N   0  0  0  0  0  2  0  0  0  0  0  0
  188.0410  177.5520  145.7250 C   0  0  0  0  0  1  0  0  0  0  0  0
  1  7  1  0  0  0  0
  2  7  1  1  0  0  0
  2  6  1  0  0  0  0
  2  5  1  0  0  0  0
  3 25  1  6  0  0  0
  3  2  1  0  0  0  0
  4  8  1  1  0  0  0
  4  1  1  0  0  0  0
  5 27  1  1  0  0  0
  6  5  1  0  0  0  0
  8  3  1  0  0  0  0
  9 16  1  6  0  0  0
  9 15  1  0  0  0  0
  9 12  1  0  0  0  0
 10 19  1  0  0  0  0
 11 13  1  0  0  0  0
 11 10  2  0  0  0  0
 13 12  1  6  0  0  0
 13  4  1  0  0  0  0
 14 17  2  0  0  0  0
 15 11  1  0  0  0  0
 17 10  1  0  0  0  0
 18 15  2  0  0  0  0
 18 14  1  0  0  0  0
 20 25  1  0  0  0  0
 21 25  2  0  0  0  0
 22 23  1  6  0  0  0
 22 24  1  0  0  0  0
 22 26  1  0  0  0  0
 24 20  1  0  0  0  0
 26 21  1  0  0  0  0
 27 28  1  6  0  0  0
 27 29  1  0  0  0  0
 29 30  1  0  0  0  0
 30 31  1  0  0  0  0
 32 33  1  0  0  0  0
 32 31  1  0  0  0  0
M  END
>  <MODEL>
9

>  <REMARK>
 VINA RESULT:      -6.1      3.491      6.165
  Name = 
  7 active torsions:
  status: ('A' for Active; 'I' for Inactive)
    1  A    between atoms: N_2  and  C_9
    2  A    between atoms: C_4  and  C_24
    3  A    between atoms: C_4  and  C_29
    4  A    between atoms: C_9  and  C_23
    5  A    between atoms: C_12  and  N_20
    6  A    between atoms: C_18  and  C_26
    7  A    between atoms: C_23  and  C_29
                            x       y       z     vdW  Elec       q    Type
                         _______ _______ _______ _____ _____    ______ ____

>  <TORSDO>
F 7

$$$$
