=
 OpenBabel11042411313D

 55 64  0  0  1  0  0  0  0  0999 V2000
  188.8350  178.3240  141.1070 C   0  0  0  0  0  2  0  0  0  0  0  0
  187.4660  178.3760  140.5830 N   0  0  0  0  0  0  0  0  0  0  0  0
  184.9430  178.6850  143.3610 C   0  0  0  0  0  0  0  0  0  0  0  0
  187.1450  179.0950  136.9070 C   0  0  2  0  0  3  0  0  0  0  0  0
  183.9300  178.7070  141.0840 C   0  0  0  0  0  0  0  0  0  0  0  0
  185.2350  178.5470  140.5900 C   0  0  0  0  0  0  0  0  0  0  0  0
  182.1240  178.7080  143.1620 Cl  0  0  0  0  0  0  0  0  0  0  0  0
  186.2180  178.6040  142.7720 C   0  0  0  0  0  3  0  0  0  0  0  0
  188.5900  178.7480  137.2690 C   0  0  1  0  0  3  0  0  0  0  0  0
  187.6100  179.2360  138.3740 C   0  0  2  0  0  3  0  0  0  0  0  0
  185.6860  178.3440  139.2970 O   0  0  0  0  0  0  0  0  0  0  0  0
  183.7760  178.7180  142.5080 C   0  0  0  0  0  0  0  0  0  0  0  0
  186.2780  177.8930  136.5440 C   0  0  0  0  0  1  0  0  0  0  0  0
  189.1030  177.3500  137.5510 C   0  0  1  0  0  3  0  0  0  0  0  0
  190.7360  176.3380  139.0650 C   0  0  0  0  0  2  0  0  0  0  0  0
  187.0690  178.1690  139.2340 N   0  0  2  0  0  0  0  0  0  0  0  0
  189.3640  176.9260  141.1880 C   0  0  2  0  0  3  0  0  0  0  0  0
  190.3440  177.3170  138.0530 C   0  0  0  0  0  2  0  0  0  0  0  0
  186.3160  178.5370  141.3920 C   0  0  0  0  0  0  0  0  0  0  0  0
  190.0900  176.5190  140.1850 C   0  0  0  0  0  2  0  0  0  0  0  0
  182.6390  174.9400  136.9260 C   0  0  0  0  0  3  0  0  0  0  0  0
  183.2470  176.2430  136.9800 N   0  0  0  0  0  0  0  0  0  0  0  0
  183.0460  177.0480  137.9840 C   0  0  0  0  0  0  0  0  0  0  0  0
  181.7310  177.7030  140.0670 C   0  0  0  0  0  2  0  0  0  0  0  0
  181.1440  175.6260  138.7590 C   0  0  0  0  0  2  0  0  0  0  0  0
  182.7100  178.8860  140.1810 C   0  0  2  0  0  3  0  0  0  0  0  0
  182.2670  176.5700  139.1880 C   0  0  1  0  0  3  0  0  0  0  0  0
  183.1040  179.3910  138.7830 C   0  0  1  0  0  3  0  0  0  0  0  0
  181.6770  174.5990  137.7970 C   0  0  0  0  0  0  0  0  0  0  0  0
  183.5940  178.3350  137.9550 O   0  0  0  0  0  0  0  0  0  0  0  0
  181.1650  179.6410  137.0160 C   0  0  0  0  0  0  0  0  0  0  0  0
  180.7530  179.7750  134.9350 C   0  0  0  0  0  3  0  0  0  0  0  0
  179.8760  180.6030  135.5500 N   0  0  0  0  0  0  0  0  0  0  0  0
  181.6030  179.1990  135.8210 N   0  0  0  0  0  0  0  0  0  0  0  0
  180.2570  181.6030  137.8570 C   0  0  0  0  0  3  0  0  0  0  0  0
  180.1420  180.5010  136.8590 C   0  0  0  0  0  0  0  0  0  0  0  0
  181.4310  181.1930  138.6380 N   0  0  0  0  0  0  0  0  0  0  0  0
  181.9540  180.1120  138.1350 C   0  0  1  0  0  3  0  0  0  0  0  0
  178.9650  181.5320  134.9030 C   0  0  0  0  0  2  0  0  0  0  0  0
  179.1000  183.9110  135.3470 N   0  0  0  0  0  1  0  0  0  0  0  0
  179.6930  182.8250  134.5950 C   0  0  0  0  0  2  0  0  0  0  0  0
  180.6350  172.1740  137.7440 C   0  0  0  0  0  3  0  0  0  0  0  0
  181.1160  173.2790  137.7620 C   0  0  0  0  0  0  0  0  0  0  0  0
  184.9860  178.7240  144.8810 C   0  0  0  0  0  3  0  0  0  0  0  0
  185.7170  177.5650  145.5340 C   0  0  0  0  0  2  0  0  0  0  0  0
  186.3810  178.9300  145.4360 C   0  0  0  0  0  2  0  0  0  0  0  0
  188.2200  176.1270  137.6260 C   0  0  0  0  0  2  0  0  0  0  0  0
  188.5800  175.1370  136.5260 C   0  0  0  0  0  1  0  0  0  0  0  0
  189.0070  176.0300  142.3420 C   0  0  0  0  0  2  0  0  0  0  0  0
  190.3560  177.6300  145.5860 C   0  0  0  0  0  2  0  0  0  0  0  0
  189.9070  176.2170  143.5700 C   0  0  0  0  0  3  0  0  0  0  0  0
  189.2870  177.1490  144.6130 C   0  0  0  0  0  2  0  0  0  0  0  0
  191.4280  178.4640  144.8720 C   0  0  0  0  0  2  0  0  0  0  0  0
  191.3510  176.5750  143.1790 C   0  0  0  0  0  2  0  0  0  0  0  0
  191.6550  178.0520  143.4110 C   0  0  0  0  0  2  0  0  0  0  0  0
  1 17  1  0  0  0  0
  2  1  1  0  0  0  0
  2 19  1  0  0  0  0
  3 44  1  0  0  0  0
  4 13  1  1  0  0  0
  4  9  1  0  0  0  0
  4 10  1  0  0  0  0
  5 12  1  0  0  0  0
  6  5  2  0  0  0  0
  6 19  1  0  0  0  0
  8  3  1  0  0  0  0
  9 14  1  0  0  0  0
  9 10  1  0  0  0  0
 10 16  1  0  0  0  0
 11  6  1  0  0  0  0
 12  7  1  0  0  0  0
 12  3  2  0  0  0  0
 14 47  1  0  0  0  0
 14 18  1  0  0  0  0
 15 20  1  0  0  0  0
 16 11  1  0  0  0  0
 16  2  1  0  0  0  0
 17 49  1  0  0  0  0
 18 15  1  0  0  0  0
 19  8  2  0  0  0  0
 20 17  1  0  0  0  0
 21 22  1  0  0  0  0
 21 29  2  0  0  0  0
 22 23  2  0  0  0  0
 23 27  1  0  0  0  0
 24 26  1  0  0  0  0
 25 27  1  0  0  0  0
 26  5  1  0  0  0  0
 27 24  1  0  0  0  0
 28 26  1  0  0  0  0
 29 25  1  0  0  0  0
 30 23  1  0  0  0  0
 30 28  1  0  0  0  0
 31 38  1  0  0  0  0
 32 33  1  0  0  0  0
 32 34  2  0  0  0  0
 33 36  1  0  0  0  0
 34 31  1  0  0  0  0
 35 37  2  0  0  0  0
 36 31  2  0  0  0  0
 36 35  1  0  0  0  0
 38 37  1  0  0  0  0
 38 28  1  0  0  0  0
 39 33  1  0  0  0  0
 41 39  1  0  0  0  0
 41 40  1  0  0  0  0
 42 43  3  0  0  0  0
 43 29  1  0  0  0  0
 44 46  1  0  0  0  0
 44 45  1  0  0  0  0
 46 45  1  0  0  0  0
 48 47  1  0  0  0  0
 49 51  1  0  0  0  0
 51 52  1  0  0  0  0
 52 50  1  0  0  0  0
 53 50  1  0  0  0  0
 54 55  1  0  0  0  0
 54 51  1  0  0  0  0
 55 53  1  0  0  0  0
M  END
>  <MODEL>
1

>  <REMARK>
 VINA RESULT:      -8.4      0.000      0.000
  Name = 
  9 active torsions:
  status: ('A' for Active; 'I' for Inactive)
    1  A    between atoms: C_4  and  C_8
    2  A    between atoms: C_11  and  C_51
    3  A    between atoms: N_13  and  C_36
    4  A    between atoms: C_14  and  C_28
    5  A    between atoms: C_15  and  C_45
    6  A    between atoms: C_33  and  C_36
    7  A    between atoms: C_39  and  C_46
    8  A    between atoms: C_41  and  C_54
    9  A    between atoms: C_49  and  C_51
                            x       y       z     vdW  Elec       q    Type
                         _______ _______ _______ _____ _____    ______ ____

>  <TORSDO>
F 9

$$$$
=
 OpenBabel11042411313D

 55 64  0  0  1  0  0  0  0  0999 V2000
  188.9610  178.6660  140.4740 C   0  0  0  0  0  2  0  0  0  0  0  0
  187.6580  178.3710  139.8710 N   0  0  0  0  0  0  0  0  0  0  0  0
  184.8500  178.9880  142.3010 C   0  0  0  0  0  0  0  0  0  0  0  0
  187.6180  178.0660  136.1250 C   0  0  2  0  0  3  0  0  0  0  0  0
  184.0770  178.2710  140.0430 C   0  0  0  0  0  0  0  0  0  0  0  0
  185.4340  178.1920  139.6930 C   0  0  0  0  0  0  0  0  0  0  0  0
  182.0860  178.5270  141.9280 Cl  0  0  0  0  0  0  0  0  0  0  0  0
  186.1770  178.9560  141.8370 C   0  0  0  0  0  3  0  0  0  0  0  0
  189.0510  178.0500  136.6560 C   0  0  1  0  0  3  0  0  0  0  0  0
  187.9100  178.6480  137.5260 C   0  0  2  0  0  3  0  0  0  0  0  0
  186.0370  177.7370  138.5320 O   0  0  0  0  0  0  0  0  0  0  0  0
  183.7800  178.6220  141.4000 C   0  0  0  0  0  0  0  0  0  0  0  0
  186.9580  176.6940  136.0440 C   0  0  0  0  0  1  0  0  0  0  0  0
  189.7130  176.8660  137.3340 C   0  0  1  0  0  3  0  0  0  0  0  0
  191.3040  176.5400  139.1620 C   0  0  0  0  0  2  0  0  0  0  0  0
  187.4290  177.7660  138.6050 N   0  0  2  0  0  0  0  0  0  0  0  0
  189.6600  177.4330  140.9600 C   0  0  2  0  0  3  0  0  0  0  0  0
  190.8910  177.1540  137.9030 C   0  0  0  0  0  2  0  0  0  0  0  0
  186.4210  178.5540  140.5340 C   0  0  0  0  0  0  0  0  0  0  0  0
  190.5300  176.8990  140.1500 C   0  0  0  0  0  2  0  0  0  0  0  0
  179.8620  182.1060  139.2210 C   0  0  0  0  0  3  0  0  0  0  0  0
  179.9970  180.8640  139.9360 N   0  0  0  0  0  0  0  0  0  0  0  0
  180.9150  179.9940  139.6240 C   0  0  0  0  0  0  0  0  0  0  0  0
  182.6700  179.1140  137.9980 C   0  0  0  0  0  2  0  0  0  0  0  0
  181.3350  181.1910  137.4720 C   0  0  0  0  0  2  0  0  0  0  0  0
  182.9410  178.0240  139.0500 C   0  0  2  0  0  3  0  0  0  0  0  0
  181.9520  180.3360  138.5780 C   0  0  1  0  0  3  0  0  0  0  0  0
  181.6360  177.6300  139.7610 C   0  0  1  0  0  3  0  0  0  0  0  0
  180.5320  182.3110  138.0770 C   0  0  0  0  0  0  0  0  0  0  0  0
  180.9570  178.7680  140.2950 O   0  0  0  0  0  0  0  0  0  0  0  0
  180.8800  175.4320  138.5200 C   0  0  0  0  0  0  0  0  0  0  0  0
  181.4910  173.9700  137.1040 C   0  0  0  0  0  3  0  0  0  0  0  0
  180.1680  174.1670  136.8990 N   0  0  0  0  0  0  0  0  0  0  0  0
  181.9740  174.7820  138.0770 N   0  0  0  0  0  0  0  0  0  0  0  0
  178.9300  176.2790  137.5910 C   0  0  0  0  0  3  0  0  0  0  0  0
  179.7970  175.0830  137.8030 C   0  0  0  0  0  0  0  0  0  0  0  0
  179.6380  177.3140  138.3560 N   0  0  0  0  0  0  0  0  0  0  0  0
  180.7480  176.8380  138.8410 C   0  0  1  0  0  3  0  0  0  0  0  0
  179.3720  173.6260  135.8100 C   0  0  0  0  0  2  0  0  0  0  0  0
  178.9340  171.4930  136.8740 N   0  0  0  0  0  1  0  0  0  0  0  0
  179.5660  172.1250  135.7360 C   0  0  0  0  0  2  0  0  0  0  0  0
  180.3210  184.6330  136.8380 C   0  0  0  0  0  3  0  0  0  0  0  0
  180.4260  183.5720  137.4020 C   0  0  0  0  0  0  0  0  0  0  0  0
  184.7330  179.4210  143.7550 C   0  0  0  0  0  3  0  0  0  0  0  0
  183.8120  178.5690  144.6090 C   0  0  0  0  0  2  0  0  0  0  0  0
  185.3210  178.4190  144.7280 C   0  0  0  0  0  2  0  0  0  0  0  0
  188.9960  175.5820  137.6780 C   0  0  0  0  0  2  0  0  0  0  0  0
  189.5880  174.4130  136.9030 C   0  0  0  0  0  1  0  0  0  0  0  0
  189.3090  176.8190  142.2870 C   0  0  0  0  0  2  0  0  0  0  0  0
  191.3680  176.9560  145.5490 C   0  0  0  0  0  2  0  0  0  0  0  0
  190.0590  177.4390  143.4720 C   0  0  0  0  0  3  0  0  0  0  0  0
  190.9810  176.4380  144.1710 C   0  0  0  0  0  2  0  0  0  0  0  0
  190.1410  177.0930  146.4610 C   0  0  0  0  0  2  0  0  0  0  0  0
  189.1150  178.1990  144.4190 C   0  0  0  0  0  2  0  0  0  0  0  0
  188.8470  177.4180  145.7030 C   0  0  0  0  0  2  0  0  0  0  0  0
  1 17  1  0  0  0  0
  2  1  1  0  0  0  0
  2 19  1  0  0  0  0
  3 44  1  0  0  0  0
  4 13  1  1  0  0  0
  4  9  1  0  0  0  0
  4 10  1  0  0  0  0
  5 12  1  0  0  0  0
  6  5  2  0  0  0  0
  6 19  1  0  0  0  0
  8  3  1  0  0  0  0
  9 14  1  0  0  0  0
  9 10  1  0  0  0  0
 10 16  1  0  0  0  0
 11 16  1  0  0  0  0
 11  6  1  0  0  0  0
 12  7  1  0  0  0  0
 12  3  2  0  0  0  0
 14 47  1  0  0  0  0
 14 18  1  0  0  0  0
 15 20  1  0  0  0  0
 16  2  1  0  0  0  0
 17 49  1  0  0  0  0
 18 15  1  0  0  0  0
 19  8  2  0  0  0  0
 20 17  1  0  0  0  0
 21 22  1  0  0  0  0
 23 22  2  0  0  0  0
 23 30  1  0  0  0  0
 24 27  1  0  0  0  0
 24 26  1  0  0  0  0
 25 29  1  0  0  0  0
 25 27  1  0  0  0  0
 26 28  1  0  0  0  0
 26  5  1  0  0  0  0
 27 23  1  0  0  0  0
 28 30  1  0  0  0  0
 29 21  2  0  0  0  0
 31 38  1  0  0  0  0
 32 34  2  0  0  0  0
 33 32  1  0  0  0  0
 33 36  1  0  0  0  0
 34 31  1  0  0  0  0
 35 36  1  0  0  0  0
 35 37  2  0  0  0  0
 36 31  2  0  0  0  0
 37 38  1  0  0  0  0
 38 28  1  0  0  0  0
 39 33  1  0  0  0  0
 41 39  1  0  0  0  0
 41 40  1  0  0  0  0
 42 43  3  0  0  0  0
 43 29  1  0  0  0  0
 44 45  1  0  0  0  0
 44 46  1  0  0  0  0
 45 46  1  0  0  0  0
 48 47  1  0  0  0  0
 49 51  1  0  0  0  0
 50 53  1  0  0  0  0
 51 52  1  0  0  0  0
 51 54  1  0  0  0  0
 52 50  1  0  0  0  0
 54 55  1  0  0  0  0
 55 53  1  0  0  0  0
M  END
>  <MODEL>
2

>  <REMARK>
 VINA RESULT:      -7.7      1.753      4.556
  Name = 
  9 active torsions:
  status: ('A' for Active; 'I' for Inactive)
    1  A    between atoms: C_4  and  C_8
    2  A    between atoms: C_11  and  C_51
    3  A    between atoms: N_13  and  C_36
    4  A    between atoms: C_14  and  C_28
    5  A    between atoms: C_15  and  C_45
    6  A    between atoms: C_33  and  C_36
    7  A    between atoms: C_39  and  C_46
    8  A    between atoms: C_41  and  C_54
    9  A    between atoms: C_49  and  C_51
                            x       y       z     vdW  Elec       q    Type
                         _______ _______ _______ _____ _____    ______ ____

>  <TORSDO>
F 9

$$$$
