=
 OpenBabel11032420013D

 46 49  0  0  1  0  0  0  0  0999 V2000
  189.1190  178.3380  139.2750 C   0  0  0  0  0  2  0  0  0  0  0  0
  187.8610  176.4710  137.3380 N   0  0  0  0  0  0  0  0  0  0  0  0
  186.7060  178.2380  138.6030 C   0  0  0  0  0  2  0  0  0  0  0  0
  187.2270  177.7880  137.2360 C   0  0  0  0  0  2  0  0  0  0  0  0
  187.7120  177.9680  139.7210 C   0  0  2  0  0  3  0  0  0  0  0  0
  189.2580  176.3560  137.7010 C   0  0  0  0  0  0  0  0  0  0  0  0
  189.8370  177.1980  138.6040 C   0  0  0  0  0  0  0  0  0  0  0  0
  191.2280  177.0940  138.8910 N   0  0  0  0  0  1  0  0  0  0  0  0
  191.1920  174.1960  135.6500 C   0  0  0  0  0  3  0  0  0  0  0  0
  190.3840  174.1140  137.6400 N   0  0  0  0  0  0  0  0  0  0  0  0
  191.0990  173.4370  136.7580 N   0  0  0  0  0  0  0  0  0  0  0  0
  190.5420  175.3680  135.8020 N   0  0  0  0  0  2  0  0  0  0  0  0
  190.0550  175.2790  137.0550 C   0  0  0  0  0  0  0  0  0  0  0  0
  187.1000  175.2490  137.0440 C   0  0  0  0  0  2  0  0  0  0  0  0
  186.2080  175.3660  135.8170 C   0  0  0  0  0  2  0  0  0  0  0  0
  184.4160  175.0390  137.4270 C   0  0  0  0  0  3  0  0  0  0  0  0
  184.7960  175.5020  136.2470 C   0  0  0  0  0  3  0  0  0  0  0  0
  182.5420  176.3520  138.0950 N   0  0  0  0  0  0  0  0  0  0  0  0
  183.0260  175.1780  137.8470 C   0  0  0  0  0  3  0  0  0  0  0  0
  181.1550  176.5000  138.5100 C   0  0  1  0  0  3  0  0  0  0  0  0
  180.3150  174.8900  138.4850 S   0  0  0  0  0  1  0  0  0  0  0  0
  181.1010  177.0410  139.8590 N   0  0  0  0  0  2  0  0  0  0  0  0
  180.6350  180.0110  141.9040 N   0  0  0  0  0  0  0  0  0  0  0  0
  179.9470  179.7130  140.6420 C   0  0  0  0  0  2  0  0  0  0  0  0
  182.4860  178.5010  141.2570 C   0  0  0  0  0  2  0  0  0  0  0  0
  179.5700  180.2090  142.8780 C   0  0  0  0  0  1  0  0  0  0  0  0
  181.4230  178.8310  142.3140 C   0  0  1  0  0  3  0  0  0  0  0  0
  180.9570  179.4780  139.5250 C   0  0  0  0  0  2  0  0  0  0  0  0
  182.1530  179.0930  143.6270 C   0  0  0  0  0  1  0  0  0  0  0  0
  181.8590  178.2880  139.8780 C   0  0  2  0  0  3  0  0  0  0  0  0
  187.3420  178.7730  140.9540 C   0  0  0  0  0  2  0  0  0  0  0  0
  185.5810  178.0960  143.1190 O   0  0  0  0  0  0  0  0  0  0  0  0
  187.7150  178.0490  142.1620 N   0  0  0  0  0  2  0  0  0  0  0  0
  186.7790  177.7100  143.1860 C   0  0  0  0  0  0  0  0  0  0  0  0
  187.2230  176.8800  144.3340 C   0  0  0  0  0  2  0  0  0  0  0  0
  187.0960  177.6400  145.5650 N   0  0  0  0  0  2  0  0  0  0  0  0
  188.4460  177.8320  146.0780 C   0  0  1  0  0  3  0  0  0  0  0  0
  189.1190  178.2530  148.4330 C   0  0  0  0  0  2  0  0  0  0  0  0
  187.6370  177.9530  148.4170 C   0  0  0  0  0  2  0  0  0  0  0  0
  188.5630  177.2230  147.4660 C   0  0  0  0  0  3  0  0  0  0  0  0
  189.4380  177.1790  145.1360 C   0  0  0  0  0  2  0  0  0  0  0  0
  190.4450  178.1450  144.7590 N   0  0  0  0  0  2  0  0  0  0  0  0
  191.2770  177.5250  143.7410 C   0  0  0  0  0  2  0  0  0  0  0  0
  191.9380  175.1490  143.9320 C   0  0  0  0  0  1  0  0  0  0  0  0
  190.8320  176.0950  143.5140 C   0  0  2  0  0  3  0  0  0  0  0  0
  190.5450  175.9000  142.1640 O   0  0  0  0  0  1  0  0  0  0  0  0
  1  5  1  0  0  0  0
  2  6  1  0  0  0  0
  3  5  1  0  0  0  0
  4  2  1  0  0  0  0
  4  3  1  0  0  0  0
  5 31  1  1  0  0  0
  6  7  2  0  0  0  0
  7  8  1  0  0  0  0
  7  1  1  0  0  0  0
  9 12  1  0  0  0  0
  9 11  2  0  0  0  0
 11 10  1  0  0  0  0
 12 13  1  0  0  0  0
 13 10  2  0  0  0  0
 13  6  1  0  0  0  0
 14  2  1  0  0  0  0
 15 17  1  0  0  0  0
 15 14  1  0  0  0  0
 16 19  1  0  0  0  0
 17 16  2  0  0  0  0
 18 20  1  0  0  0  0
 19 18  2  0  0  0  0
 20 21  1  1  0  0  0
 20 22  1  0  0  0  0
 23 27  1  0  0  0  0
 23 26  1  0  0  0  0
 24 23  1  0  0  0  0
 25 27  1  0  0  0  0
 27 29  1  1  0  0  0
 28 30  1  0  0  0  0
 28 24  1  0  0  0  0
 30 22  1  1  0  0  0
 30 25  1  0  0  0  0
 31 33  1  0  0  0  0
 32 34  2  0  0  0  0
 33 34  1  0  0  0  0
 34 35  1  0  0  0  0
 35 36  1  0  0  0  0
 36 37  1  0  0  0  0
 37 41  1  6  0  0  0
 37 40  1  0  0  0  0
 39 38  1  0  0  0  0
 40 39  1  0  0  0  0
 40 38  1  0  0  0  0
 42 41  1  0  0  0  0
 43 42  1  0  0  0  0
 45 43  1  0  0  0  0
 45 44  1  6  0  0  0
 46 45  1  0  0  0  0
M  END
>  <MODEL>
1

>  <REMARK>
 VINA RESULT:      -6.9      0.000      0.000
  Name = 
  18 active torsions:
  status: ('A' for Active; 'I' for Inactive)
    1  A    between atoms: N_3  and  C_20
    2  A    between atoms: N_5  and  C_21
    3  A    between atoms: N_5  and  C_25
    4  A    between atoms: C_6  and  C_21
    5  A    between atoms: C_7  and  C_41
    6  A    between atoms: N_10  and  C_23
    7  A    between atoms: N_10  and  C_37
    8  A    between atoms: N_12  and  C_17
    9  A    between atoms: C_15  and  C_27
   10  A    between atoms: C_15  and  N_33
   11  A    between atoms: C_17  and  C_18
   12  A    between atoms: C_18  and  C_22
   13  A    between atoms: C_20  and  N_24
   14  A    between atoms: C_23  and  C_36
   15  A    between atoms: N_24  and  C_44
   16  A    between atoms: C_25  and  C_37
   17  A    between atoms: C_30  and  C_37
   18  A    between atoms: C_38  and  C_40
                            x       y       z     vdW  Elec       q    Type
                         _______ _______ _______ _____ _____    ______ ____

>  <TORSDO>
F 18

$$$$
=
 OpenBabel11032420013D

 46 49  0  0  1  0  0  0  0  0999 V2000
  184.6570  179.4310  144.9640 C   0  0  0  0  0  2  0  0  0  0  0  0
  186.8500  177.7130  143.9350 N   0  0  0  0  0  0  0  0  0  0  0  0
  184.8620  178.4310  142.6750 C   0  0  0  0  0  2  0  0  0  0  0  0
  186.3720  178.5950  142.8670 C   0  0  0  0  0  2  0  0  0  0  0  0
  184.1130  178.3810  144.0060 C   0  0  2  0  0  3  0  0  0  0  0  0
  186.8150  178.1490  145.3160 C   0  0  0  0  0  0  0  0  0  0  0  0
  185.8010  178.9210  145.8000 C   0  0  0  0  0  0  0  0  0  0  0  0
  185.8300  179.3810  147.1470 N   0  0  0  0  0  1  0  0  0  0  0  0
  189.8260  177.5740  147.1080 C   0  0  0  0  0  3  0  0  0  0  0  0
  187.8210  176.8050  147.1810 N   0  0  0  0  0  0  0  0  0  0  0  0
  189.0120  176.7150  147.7480 N   0  0  0  0  0  0  0  0  0  0  0  0
  189.1750  178.2280  146.1250 N   0  0  0  0  0  2  0  0  0  0  0  0
  187.9290  177.7230  146.2050 C   0  0  0  0  0  0  0  0  0  0  0  0
  187.4020  176.3880  143.6220 C   0  0  0  0  0  2  0  0  0  0  0  0
  188.9140  176.3820  143.4480 C   0  0  0  0  0  2  0  0  0  0  0  0
  190.4100  177.1040  141.6730 C   0  0  0  0  0  3  0  0  0  0  0  0
  189.2450  176.5790  142.0170 C   0  0  0  0  0  3  0  0  0  0  0  0
  190.6360  176.2970  139.4410 N   0  0  0  0  0  0  0  0  0  0  0  0
  190.7310  177.2920  140.2620 C   0  0  0  0  0  3  0  0  0  0  0  0
  190.9500  176.4770  138.0310 C   0  0  1  0  0  3  0  0  0  0  0  0
  192.5960  175.8020  137.6620 S   0  0  0  0  0  1  0  0  0  0  0  0
  189.9620  175.7890  137.2160 N   0  0  0  0  0  2  0  0  0  0  0  0
  186.5710  176.2720  135.9970 N   0  0  0  0  0  0  0  0  0  0  0  0
  187.5420  175.2940  135.4900 C   0  0  0  0  0  2  0  0  0  0  0  0
  188.4220  177.6630  136.8710 C   0  0  0  0  0  2  0  0  0  0  0  0
  185.4110  175.4850  136.3910 C   0  0  0  0  0  1  0  0  0  0  0  0
  187.1230  176.9180  137.2050 C   0  0  1  0  0  3  0  0  0  0  0  0
  188.8200  175.9920  135.0420 C   0  0  0  0  0  2  0  0  0  0  0  0
  186.1440  177.9410  137.7710 C   0  0  0  0  0  1  0  0  0  0  0  0
  189.4530  176.7330  136.2270 C   0  0  2  0  0  3  0  0  0  0  0  0
  182.6320  178.6230  143.7740 C   0  0  0  0  0  2  0  0  0  0  0  0
  180.1450  178.3570  142.3650 O   0  0  0  0  0  0  0  0  0  0  0  0
  182.3940  179.0020  142.3880 N   0  0  0  0  0  2  0  0  0  0  0  0
  181.1180  178.8780  141.7570 C   0  0  0  0  0  0  0  0  0  0  0  0
  180.9370  179.3850  140.3720 C   0  0  0  0  0  2  0  0  0  0  0  0
  182.0130  178.8950  139.5290 N   0  0  0  0  0  2  0  0  0  0  0  0
  181.7030  179.3200  138.1700 C   0  0  1  0  0  3  0  0  0  0  0  0
  182.3590  177.8090  136.3100 C   0  0  0  0  0  2  0  0  0  0  0  0
  182.2540  176.9800  137.5700 C   0  0  0  0  0  2  0  0  0  0  0  0
  181.2850  178.1200  137.3360 C   0  0  0  0  0  3  0  0  0  0  0  0
  180.5880  180.3450  138.2070 C   0  0  0  0  0  2  0  0  0  0  0  0
  180.8800  181.4030  137.2660 N   0  0  0  0  0  2  0  0  0  0  0  0
  181.3390  182.5490  138.0330 C   0  0  0  0  0  2  0  0  0  0  0  0
  180.9110  183.4860  135.7840 C   0  0  0  0  0  1  0  0  0  0  0  0
  181.1010  183.8230  137.2470 C   0  0  2  0  0  3  0  0  0  0  0  0
  182.1970  184.6720  137.3860 O   0  0  0  0  0  1  0  0  0  0  0  0
  1  7  1  0  0  0  0
  2  6  1  0  0  0  0
  3  4  1  0  0  0  0
  3  5  1  0  0  0  0
  4  2  1  0  0  0  0
  5 31  1  6  0  0  0
  5  1  1  0  0  0  0
  6  7  2  0  0  0  0
  6 13  1  0  0  0  0
  7  8  1  0  0  0  0
  9 11  2  0  0  0  0
 10 11  1  0  0  0  0
 12 13  1  0  0  0  0
 12  9  1  0  0  0  0
 13 10  2  0  0  0  0
 14  2  1  0  0  0  0
 15 14  1  0  0  0  0
 16 17  2  0  0  0  0
 17 15  1  0  0  0  0
 18 19  2  0  0  0  0
 19 16  1  0  0  0  0
 20 21  1  1  0  0  0
 20 18  1  0  0  0  0
 22 20  1  0  0  0  0
 23 26  1  0  0  0  0
 23 27  1  0  0  0  0
 24 23  1  0  0  0  0
 25 27  1  0  0  0  0
 27 29  1  6  0  0  0
 28 24  1  0  0  0  0
 28 30  1  0  0  0  0
 30 25  1  0  0  0  0
 30 22  1  1  0  0  0
 33 31  1  0  0  0  0
 34 32  2  0  0  0  0
 34 33  1  0  0  0  0
 35 34  1  0  0  0  0
 36 35  1  0  0  0  0
 37 41  1  1  0  0  0
 37 36  1  0  0  0  0
 38 40  1  0  0  0  0
 38 39  1  0  0  0  0
 40 39  1  0  0  0  0
 40 37  1  0  0  0  0
 42 43  1  0  0  0  0
 42 41  1  0  0  0  0
 45 44  1  6  0  0  0
 45 46  1  0  0  0  0
 45 43  1  0  0  0  0
M  END
>  <MODEL>
2

>  <REMARK>
 VINA RESULT:      -6.7      3.258      9.634
  Name = 
  18 active torsions:
  status: ('A' for Active; 'I' for Inactive)
    1  A    between atoms: N_3  and  C_20
    2  A    between atoms: N_5  and  C_21
    3  A    between atoms: N_5  and  C_25
    4  A    between atoms: C_6  and  C_21
    5  A    between atoms: C_7  and  C_41
    6  A    between atoms: N_10  and  C_23
    7  A    between atoms: N_10  and  C_37
    8  A    between atoms: N_12  and  C_17
    9  A    between atoms: C_15  and  C_27
   10  A    between atoms: C_15  and  N_33
   11  A    between atoms: C_17  and  C_18
   12  A    between atoms: C_18  and  C_22
   13  A    between atoms: C_20  and  N_24
   14  A    between atoms: C_23  and  C_36
   15  A    between atoms: N_24  and  C_44
   16  A    between atoms: C_25  and  C_37
   17  A    between atoms: C_30  and  C_37
   18  A    between atoms: C_38  and  C_40
                            x       y       z     vdW  Elec       q    Type
                         _______ _______ _______ _____ _____    ______ ____

>  <TORSDO>
F 18

$$$$
=
 OpenBabel11032420013D

 46 49  0  0  1  0  0  0  0  0999 V2000
  188.6200  178.0820  139.5670 C   0  0  0  0  0  2  0  0  0  0  0  0
  189.6810  177.5320  136.8480 N   0  0  0  0  0  0  0  0  0  0  0  0
  187.7160  178.9140  137.3820 C   0  0  0  0  0  2  0  0  0  0  0  0
  189.1720  178.9050  136.9110 C   0  0  0  0  0  2  0  0  0  0  0  0
  187.4850  177.9680  138.5600 C   0  0  2  0  0  3  0  0  0  0  0  0
  190.2530  176.9090  138.0240 C   0  0  0  0  0  0  0  0  0  0  0  0
  189.7580  177.1410  139.2730 C   0  0  0  0  0  0  0  0  0  0  0  0
  190.3820  176.5580  140.4120 N   0  0  0  0  0  1  0  0  0  0  0  0
  192.5590  174.2460  137.5750 C   0  0  0  0  0  3  0  0  0  0  0  0
  192.6850  176.3890  137.6900 N   0  0  0  0  0  0  0  0  0  0  0  0
  193.4050  175.2920  137.5280 N   0  0  0  0  0  2  0  0  0  0  0  0
  191.2870  174.6520  137.7670 N   0  0  0  0  0  0  0  0  0  0  0  0
  191.4080  175.9920  137.8300 C   0  0  0  0  0  0  0  0  0  0  0  0
  189.6500  176.7790  135.5880 C   0  0  0  0  0  2  0  0  0  0  0  0
  188.6200  177.2950  134.5940 C   0  0  0  0  0  2  0  0  0  0  0  0
  187.3440  175.3790  135.3770 C   0  0  0  0  0  3  0  0  0  0  0  0
  187.3460  176.5620  134.7820 C   0  0  0  0  0  3  0  0  0  0  0  0
  185.3450  174.9180  136.5910 N   0  0  0  0  0  0  0  0  0  0  0  0
  186.0860  174.6630  135.5620 C   0  0  0  0  0  3  0  0  0  0  0  0
  184.0860  174.2120  136.7810 C   0  0  1  0  0  3  0  0  0  0  0  0
  184.3990  172.4970  137.2920 S   0  0  0  0  0  1  0  0  0  0  0  0
  183.3010  174.8760  137.8080 N   0  0  0  0  0  2  0  0  0  0  0  0
  181.0290  177.3780  139.1500 N   0  0  0  0  0  0  0  0  0  0  0  0
  180.8600  175.9220  139.2330 C   0  0  0  0  0  2  0  0  0  0  0  0
  182.4900  177.1000  137.1730 C   0  0  0  0  0  2  0  0  0  0  0  0
  181.0020  177.8410  140.5310 C   0  0  0  0  0  1  0  0  0  0  0  0
  182.3620  177.6770  138.5890 C   0  0  1  0  0  3  0  0  0  0  0  0
  180.8740  175.3020  137.8410 C   0  0  0  0  0  2  0  0  0  0  0  0
  182.5860  179.1820  138.4880 C   0  0  0  0  0  1  0  0  0  0  0  0
  182.2130  175.5950  137.1520 C   0  0  2  0  0  3  0  0  0  0  0  0
  186.1680  178.3010  139.2380 C   0  0  0  0  0  2  0  0  0  0  0  0
  184.3540  177.9300  141.4330 O   0  0  0  0  0  0  0  0  0  0  0  0
  186.3990  178.7170  140.6150 N   0  0  0  0  0  2  0  0  0  0  0  0
  185.4690  178.4670  141.6700 C   0  0  0  0  0  0  0  0  0  0  0  0
  185.8310  178.8330  143.0630 C   0  0  0  0  0  2  0  0  0  0  0  0
  186.2590  177.6470  143.7840 N   0  0  0  0  0  2  0  0  0  0  0  0
  186.8820  178.1120  145.0160 C   0  0  1  0  0  3  0  0  0  0  0  0
  185.8160  178.9660  147.0920 C   0  0  0  0  0  2  0  0  0  0  0  0
  184.7180  178.5400  146.1450 C   0  0  0  0  0  2  0  0  0  0  0  0
  186.0080  177.7490  146.2060 C   0  0  0  0  0  3  0  0  0  0  0  0
  188.2490  177.4740  145.1590 C   0  0  0  0  0  2  0  0  0  0  0  0
  188.7370  177.0930  143.8520 N   0  0  0  0  0  2  0  0  0  0  0  0
  190.1540  176.8000  143.9890 C   0  0  0  0  0  2  0  0  0  0  0  0
  191.4830  178.8840  143.8840 C   0  0  0  0  0  1  0  0  0  0  0  0
  190.8260  177.8820  144.8100 C   0  0  2  0  0  3  0  0  0  0  0  0
  191.7930  177.3140  145.6350 O   0  0  0  0  0  1  0  0  0  0  0  0
  2  4  1  0  0  0  0
  2  6  1  0  0  0  0
  3  5  1  0  0  0  0
  4  3  1  0  0  0  0
  5 31  1  1  0  0  0
  5  1  1  0  0  0  0
  6  7  2  0  0  0  0
  7  1  1  0  0  0  0
  7  8  1  0  0  0  0
  9 12  2  0  0  0  0
 10 13  2  0  0  0  0
 11  9  1  0  0  0  0
 11 10  1  0  0  0  0
 12 13  1  0  0  0  0
 13  6  1  0  0  0  0
 14  2  1  0  0  0  0
 15 17  1  0  0  0  0
 15 14  1  0  0  0  0
 16 19  1  0  0  0  0
 17 16  2  0  0  0  0
 18 20  1  0  0  0  0
 19 18  2  0  0  0  0
 20 21  1  1  0  0  0
 20 22  1  0  0  0  0
 23 24  1  0  0  0  0
 23 26  1  0  0  0  0
 25 27  1  0  0  0  0
 27 29  1  6  0  0  0
 27 23  1  0  0  0  0
 28 24  1  0  0  0  0
 30 25  1  0  0  0  0
 30 22  1  1  0  0  0
 30 28  1  0  0  0  0
 31 33  1  0  0  0  0
 32 34  2  0  0  0  0
 33 34  1  0  0  0  0
 34 35  1  0  0  0  0
 35 36  1  0  0  0  0
 36 37  1  0  0  0  0
 37 41  1  1  0  0  0
 37 40  1  0  0  0  0
 39 40  1  0  0  0  0
 39 38  1  0  0  0  0
 40 38  1  0  0  0  0
 42 43  1  0  0  0  0
 42 41  1  0  0  0  0
 43 45  1  0  0  0  0
 45 44  1  6  0  0  0
 45 46  1  0  0  0  0
M  END
>  <MODEL>
3

>  <REMARK>
 VINA RESULT:      -6.6      2.090      3.064
  Name = 
  18 active torsions:
  status: ('A' for Active; 'I' for Inactive)
    1  A    between atoms: N_3  and  C_20
    2  A    between atoms: N_5  and  C_21
    3  A    between atoms: N_5  and  C_25
    4  A    between atoms: C_6  and  C_21
    5  A    between atoms: C_7  and  C_41
    6  A    between atoms: N_10  and  C_23
    7  A    between atoms: N_10  and  C_37
    8  A    between atoms: N_12  and  C_17
    9  A    between atoms: C_15  and  C_27
   10  A    between atoms: C_15  and  N_33
   11  A    between atoms: C_17  and  C_18
   12  A    between atoms: C_18  and  C_22
   13  A    between atoms: C_20  and  N_24
   14  A    between atoms: C_23  and  C_36
   15  A    between atoms: N_24  and  C_44
   16  A    between atoms: C_25  and  C_37
   17  A    between atoms: C_30  and  C_37
   18  A    between atoms: C_38  and  C_40
                            x       y       z     vdW  Elec       q    Type
                         _______ _______ _______ _____ _____    ______ ____

>  <TORSDO>
F 18

$$$$
=
 OpenBabel11032420013D

 46 49  0  0  1  0  0  0  0  0999 V2000
  187.6000  178.1670  146.4540 C   0  0  0  0  0  2  0  0  0  0  0  0
  190.1210  177.3970  145.0850 N   0  0  0  0  0  0  0  0  0  0  0  0
  188.0720  178.2140  143.9930 C   0  0  0  0  0  2  0  0  0  0  0  0
  189.5130  178.5380  144.3950 C   0  0  0  0  0  2  0  0  0  0  0  0
  187.3050  177.5120  145.1130 C   0  0  2  0  0  3  0  0  0  0  0  0
  189.9560  177.2340  146.5140 C   0  0  0  0  0  0  0  0  0  0  0  0
  188.7950  177.5660  147.1460 C   0  0  0  0  0  0  0  0  0  0  0  0
  188.6890  177.4480  148.5610 N   0  0  0  0  0  1  0  0  0  0  0  0
  192.5330  175.3480  148.0680 C   0  0  0  0  0  3  0  0  0  0  0  0
  191.9000  177.4020  148.0920 N   0  0  0  0  0  0  0  0  0  0  0  0
  192.7990  176.5640  148.5800 N   0  0  0  0  0  0  0  0  0  0  0  0
  191.4650  175.3850  147.2450 N   0  0  0  0  0  2  0  0  0  0  0  0
  191.1020  176.6820  147.2850 C   0  0  0  0  0  0  0  0  0  0  0  0
  190.9320  176.4210  144.3460 C   0  0  0  0  0  2  0  0  0  0  0  0
  191.7860  177.0410  143.2500 C   0  0  0  0  0  2  0  0  0  0  0  0
  191.4610  177.3530  140.8610 C   0  0  0  0  0  3  0  0  0  0  0  0
  191.2940  176.5870  141.9280 C   0  0  0  0  0  3  0  0  0  0  0  0
  191.8100  176.7220  138.5890 N   0  0  0  0  0  0  0  0  0  0  0  0
  190.9760  176.9000  139.5620 C   0  0  0  0  0  3  0  0  0  0  0  0
  191.3360  176.2660  137.2900 C   0  0  1  0  0  3  0  0  0  0  0  0
  191.9190  174.5770  136.9660 S   0  0  0  0  0  1  0  0  0  0  0  0
  189.8820  176.2790  137.2660 N   0  0  0  0  0  2  0  0  0  0  0  0
  186.6320  176.9580  135.7840 N   0  0  0  0  0  0  0  0  0  0  0  0
  187.6870  176.1170  135.2070 C   0  0  0  0  0  2  0  0  0  0  0  0
  188.3230  178.1640  137.1290 C   0  0  0  0  0  2  0  0  0  0  0  0
  185.4640  176.0920  135.8740 C   0  0  0  0  0  1  0  0  0  0  0  0
  187.0220  177.3500  137.1540 C   0  0  1  0  0  3  0  0  0  0  0  0
  188.9820  176.9080  135.0600 C   0  0  0  0  0  2  0  0  0  0  0  0
  185.9510  178.2230  137.7970 C   0  0  0  0  0  1  0  0  0  0  0  0
  189.4520  177.3990  136.4350 C   0  0  2  0  0  3  0  0  0  0  0  0
  185.8140  177.5750  144.8340 C   0  0  0  0  0  2  0  0  0  0  0  0
  183.4070  178.6590  143.7040 O   0  0  0  0  0  0  0  0  0  0  0  0
  185.5750  177.8260  143.4190 N   0  0  0  0  0  2  0  0  0  0  0  0
  184.3650  178.4050  142.9260 C   0  0  0  0  0  0  0  0  0  0  0  0
  184.2460  178.7220  141.4800 C   0  0  0  0  0  2  0  0  0  0  0  0
  183.7200  177.5710  140.7690 N   0  0  0  0  0  2  0  0  0  0  0  0
  182.8870  178.0910  139.6920 C   0  0  1  0  0  3  0  0  0  0  0  0
  182.2860  176.7020  137.7220 C   0  0  0  0  0  2  0  0  0  0  0  0
  182.7870  175.7780  138.8090 C   0  0  0  0  0  2  0  0  0  0  0  0
  181.9660  176.9970  139.1760 C   0  0  0  0  0  3  0  0  0  0  0  0
  182.0720  179.2590  140.2090 C   0  0  0  0  0  2  0  0  0  0  0  0
  180.7840  178.7800  140.6600 N   0  0  0  0  0  2  0  0  0  0  0  0
  180.5040  179.4280  141.9310 C   0  0  0  0  0  2  0  0  0  0  0  0
  179.8870  178.4280  144.1080 C   0  0  0  0  0  1  0  0  0  0  0  0
  179.4390  178.6520  142.6800 C   0  0  2  0  0  3  0  0  0  0  0  0
  179.2330  177.4200  142.0620 O   0  0  0  0  0  1  0  0  0  0  0  0
  1  7  1  0  0  0  0
  2  6  1  0  0  0  0
  3  4  1  0  0  0  0
  3  5  1  0  0  0  0
  4  2  1  0  0  0  0
  5 31  1  6  0  0  0
  5  1  1  0  0  0  0
  6  7  2  0  0  0  0
  6 13  1  0  0  0  0
  7  8  1  0  0  0  0
  9 11  2  0  0  0  0
 10 11  1  0  0  0  0
 12 13  1  0  0  0  0
 12  9  1  0  0  0  0
 13 10  2  0  0  0  0
 14  2  1  0  0  0  0
 15 14  1  0  0  0  0
 16 17  2  0  0  0  0
 17 15  1  0  0  0  0
 18 19  2  0  0  0  0
 19 16  1  0  0  0  0
 20 21  1  1  0  0  0
 20 18  1  0  0  0  0
 22 20  1  0  0  0  0
 23 26  1  0  0  0  0
 23 27  1  0  0  0  0
 24 23  1  0  0  0  0
 25 27  1  0  0  0  0
 27 29  1  6  0  0  0
 28 24  1  0  0  0  0
 28 30  1  0  0  0  0
 30 25  1  0  0  0  0
 30 22  1  1  0  0  0
 33 31  1  0  0  0  0
 34 33  1  0  0  0  0
 34 32  2  0  0  0  0
 35 34  1  0  0  0  0
 36 35  1  0  0  0  0
 37 41  1  1  0  0  0
 37 36  1  0  0  0  0
 38 39  1  0  0  0  0
 38 40  1  0  0  0  0
 39 40  1  0  0  0  0
 40 37  1  0  0  0  0
 41 42  1  0  0  0  0
 42 43  1  0  0  0  0
 43 45  1  0  0  0  0
 45 44  1  1  0  0  0
 46 45  1  0  0  0  0
M  END
>  <MODEL>
4

>  <REMARK>
 VINA RESULT:      -6.5      2.830      9.152
  Name = 
  18 active torsions:
  status: ('A' for Active; 'I' for Inactive)
    1  A    between atoms: N_3  and  C_20
    2  A    between atoms: N_5  and  C_21
    3  A    between atoms: N_5  and  C_25
    4  A    between atoms: C_6  and  C_21
    5  A    between atoms: C_7  and  C_41
    6  A    between atoms: N_10  and  C_23
    7  A    between atoms: N_10  and  C_37
    8  A    between atoms: N_12  and  C_17
    9  A    between atoms: C_15  and  C_27
   10  A    between atoms: C_15  and  N_33
   11  A    between atoms: C_17  and  C_18
   12  A    between atoms: C_18  and  C_22
   13  A    between atoms: C_20  and  N_24
   14  A    between atoms: C_23  and  C_36
   15  A    between atoms: N_24  and  C_44
   16  A    between atoms: C_25  and  C_37
   17  A    between atoms: C_30  and  C_37
   18  A    between atoms: C_38  and  C_40
                            x       y       z     vdW  Elec       q    Type
                         _______ _______ _______ _____ _____    ______ ____

>  <TORSDO>
F 18

$$$$
=
 OpenBabel11032420013D

 46 49  0  0  1  0  0  0  0  0999 V2000
  191.2720  176.5390  143.6740 C   0  0  0  0  0  2  0  0  0  0  0  0
  188.3720  177.0130  144.1050 N   0  0  0  0  0  0  0  0  0  0  0  0
  189.4580  176.5560  141.9440 C   0  0  0  0  0  2  0  0  0  0  0  0
  188.5570  176.0090  143.0540 C   0  0  0  0  0  2  0  0  0  0  0  0
  190.6720  177.3000  142.5010 C   0  0  2  0  0  3  0  0  0  0  0  0
  189.3260  177.1220  145.1890 C   0  0  0  0  0  0  0  0  0  0  0  0
  190.6610  176.9260  144.9940 C   0  0  0  0  0  0  0  0  0  0  0  0
  191.5630  176.9820  146.0950 N   0  0  0  0  0  1  0  0  0  0  0  0
  187.9950  177.2890  148.4770 C   0  0  0  0  0  3  0  0  0  0  0  0
  188.7410  178.7070  147.0450 N   0  0  0  0  0  0  0  0  0  0  0  0
  188.2350  178.5960  148.2610 N   0  0  0  0  0  0  0  0  0  0  0  0
  188.3410  176.5430  147.4080 N   0  0  0  0  0  2  0  0  0  0  0  0
  188.8040  177.4630  146.5400 C   0  0  0  0  0  0  0  0  0  0  0  0
  187.2030  177.9020  144.0950 C   0  0  0  0  0  2  0  0  0  0  0  0
  186.6800  178.2060  142.6980 C   0  0  0  0  0  2  0  0  0  0  0  0
  184.4910  178.2880  141.6440 C   0  0  0  0  0  3  0  0  0  0  0  0
  185.2090  178.3800  142.7520 C   0  0  0  0  0  3  0  0  0  0  0  0
  182.3920  178.8160  140.6440 N   0  0  0  0  0  0  0  0  0  0  0  0
  183.0430  178.4570  141.7030 C   0  0  0  0  0  3  0  0  0  0  0  0
  180.9470  178.9850  140.6930 C   0  0  1  0  0  3  0  0  0  0  0  0
  180.4560  179.7510  142.2650 S   0  0  0  0  0  1  0  0  0  0  0  0
  180.5140  179.8350  139.5960 N   0  0  0  0  0  2  0  0  0  0  0  0
  180.6970  181.5990  136.4220 N   0  0  0  0  0  0  0  0  0  0  0  0
  180.3280  180.1900  136.6090 C   0  0  0  0  0  2  0  0  0  0  0  0
  181.9100  181.5720  138.5780 C   0  0  0  0  0  2  0  0  0  0  0  0
  179.5680  182.1950  135.7200 C   0  0  0  0  0  1  0  0  0  0  0  0
  180.8130  182.2470  137.7440 C   0  0  1  0  0  3  0  0  0  0  0  0
  181.4340  179.4410  137.3440 C   0  0  0  0  0  2  0  0  0  0  0  0
  181.1900  183.7170  137.5990 C   0  0  0  0  0  1  0  0  0  0  0  0
  181.6610  180.0700  138.7250 C   0  0  2  0  0  3  0  0  0  0  0  0
  191.7180  177.4660  141.4130 C   0  0  0  0  0  2  0  0  0  0  0  0
  193.0710  176.8080  138.9680 O   0  0  0  0  0  0  0  0  0  0  0  0
  191.1000  177.3640  140.0980 N   0  0  0  0  0  2  0  0  0  0  0  0
  191.8260  176.9940  138.9240 C   0  0  0  0  0  0  0  0  0  0  0  0
  191.0970  176.8130  137.6430 C   0  0  0  0  0  2  0  0  0  0  0  0
  189.9030  176.0170  137.8690 N   0  0  0  0  0  2  0  0  0  0  0  0
  189.3400  175.7310  136.5570 C   0  0  1  0  0  3  0  0  0  0  0  0
  188.7220  173.4710  135.7280 C   0  0  0  0  0  2  0  0  0  0  0  0
  189.0120  173.3630  137.2070 C   0  0  0  0  0  2  0  0  0  0  0  0
  188.3290  174.6000  136.6630 C   0  0  0  0  0  3  0  0  0  0  0  0
  188.6710  176.9790  136.0150 C   0  0  0  0  0  2  0  0  0  0  0  0
  187.2350  176.8190  136.0830 N   0  0  0  0  0  2  0  0  0  0  0  0
  186.6930  178.0350  136.6660 C   0  0  0  0  0  2  0  0  0  0  0  0
  184.5540  177.5050  137.7920 C   0  0  0  0  0  1  0  0  0  0  0  0
  186.0390  177.7200  137.9960 C   0  0  2  0  0  3  0  0  0  0  0  0
  186.2340  178.7800  138.8790 O   0  0  0  0  0  1  0  0  0  0  0  0
  1  7  1  0  0  0  0
  2  6  1  0  0  0  0
  3  5  1  0  0  0  0
  3  4  1  0  0  0  0
  4  2  1  0  0  0  0
  5 31  1  6  0  0  0
  5  1  1  0  0  0  0
  6 13  1  0  0  0  0
  7  6  2  0  0  0  0
  7  8  1  0  0  0  0
 10 11  1  0  0  0  0
 11  9  2  0  0  0  0
 12  9  1  0  0  0  0
 13 10  2  0  0  0  0
 13 12  1  0  0  0  0
 14  2  1  0  0  0  0
 15 17  1  0  0  0  0
 15 14  1  0  0  0  0
 16 19  1  0  0  0  0
 16 17  2  0  0  0  0
 18 20  1  0  0  0  0
 18 19  2  0  0  0  0
 20 21  1  1  0  0  0
 22 20  1  0  0  0  0
 23 24  1  0  0  0  0
 23 27  1  0  0  0  0
 24 28  1  0  0  0  0
 25 30  1  0  0  0  0
 26 23  1  0  0  0  0
 27 29  1  6  0  0  0
 27 25  1  0  0  0  0
 28 30  1  0  0  0  0
 30 22  1  1  0  0  0
 33 31  1  0  0  0  0
 34 32  2  0  0  0  0
 34 33  1  0  0  0  0
 35 36  1  0  0  0  0
 35 34  1  0  0  0  0
 37 41  1  1  0  0  0
 37 40  1  0  0  0  0
 37 36  1  0  0  0  0
 38 40  1  0  0  0  0
 38 39  1  0  0  0  0
 40 39  1  0  0  0  0
 41 42  1  0  0  0  0
 42 43  1  0  0  0  0
 43 45  1  0  0  0  0
 45 44  1  6  0  0  0
 45 46  1  0  0  0  0
M  END
>  <MODEL>
5

>  <REMARK>
 VINA RESULT:      -6.4      2.539      7.779
  Name = 
  18 active torsions:
  status: ('A' for Active; 'I' for Inactive)
    1  A    between atoms: N_3  and  C_20
    2  A    between atoms: N_5  and  C_21
    3  A    between atoms: N_5  and  C_25
    4  A    between atoms: C_6  and  C_21
    5  A    between atoms: C_7  and  C_41
    6  A    between atoms: N_10  and  C_23
    7  A    between atoms: N_10  and  C_37
    8  A    between atoms: N_12  and  C_17
    9  A    between atoms: C_15  and  C_27
   10  A    between atoms: C_15  and  N_33
   11  A    between atoms: C_17  and  C_18
   12  A    between atoms: C_18  and  C_22
   13  A    between atoms: C_20  and  N_24
   14  A    between atoms: C_23  and  C_36
   15  A    between atoms: N_24  and  C_44
   16  A    between atoms: C_25  and  C_37
   17  A    between atoms: C_30  and  C_37
   18  A    between atoms: C_38  and  C_40
                            x       y       z     vdW  Elec       q    Type
                         _______ _______ _______ _____ _____    ______ ____

>  <TORSDO>
F 18

$$$$
=
 OpenBabel11032420013D

 46 49  0  0  1  0  0  0  0  0999 V2000
  190.0010  176.8370  138.0690 C   0  0  0  0  0  2  0  0  0  0  0  0
  187.8910  176.2380  136.0670 N   0  0  0  0  0  0  0  0  0  0  0  0
  188.2340  178.3920  137.2060 C   0  0  0  0  0  2  0  0  0  0  0  0
  188.3590  177.6160  135.8930 C   0  0  0  0  0  2  0  0  0  0  0  0
  188.7150  177.5770  138.4060 C   0  0  2  0  0  3  0  0  0  0  0  0
  188.7960  175.2120  136.5430 C   0  0  0  0  0  0  0  0  0  0  0  0
  189.7540  175.4760  137.4770 C   0  0  0  0  0  0  0  0  0  0  0  0
  190.6650  174.4570  137.8770 N   0  0  0  0  0  1  0  0  0  0  0  0
  188.8080  172.1720  134.7080 C   0  0  0  0  0  3  0  0  0  0  0  0
  187.9870  172.8370  136.5790 N   0  0  0  0  0  0  0  0  0  0  0  0
  188.0910  171.7890  135.7800 N   0  0  0  0  0  0  0  0  0  0  0  0
  189.1770  173.4660  134.8000 N   0  0  0  0  0  2  0  0  0  0  0  0
  188.6480  173.8430  135.9810 C   0  0  0  0  0  0  0  0  0  0  0  0
  186.5100  175.8680  135.7310 C   0  0  0  0  0  2  0  0  0  0  0  0
  185.7900  176.9050  134.8810 C   0  0  0  0  0  2  0  0  0  0  0  0
  183.9680  176.6070  136.4630 C   0  0  0  0  0  3  0  0  0  0  0  0
  184.3500  176.9140  135.2340 C   0  0  0  0  0  3  0  0  0  0  0  0
  182.1380  177.3020  137.8240 N   0  0  0  0  0  0  0  0  0  0  0  0
  182.5490  176.6200  136.8040 C   0  0  0  0  0  3  0  0  0  0  0  0
  180.7240  177.3240  138.1700 C   0  0  1  0  0  3  0  0  0  0  0  0
  179.9830  175.6890  137.8890 S   0  0  0  0  0  1  0  0  0  0  0  0
  180.5660  177.6810  139.5700 N   0  0  0  0  0  2  0  0  0  0  0  0
  180.3510  180.1980  142.1850 N   0  0  0  0  0  0  0  0  0  0  0  0
  179.6700  180.2410  140.8850 C   0  0  0  0  0  2  0  0  0  0  0  0
  182.0550  178.6680  141.2480 C   0  0  0  0  0  2  0  0  0  0  0  0
  179.2860  180.3020  143.1730 C   0  0  0  0  0  1  0  0  0  0  0  0
  181.0040  178.8830  142.3450 C   0  0  1  0  0  3  0  0  0  0  0  0
  180.6800  180.1360  139.7490 C   0  0  0  0  0  2  0  0  0  0  0  0
  181.7220  178.7910  143.6870 C   0  0  0  0  0  1  0  0  0  0  0  0
  181.4460  178.8110  139.8510 C   0  0  2  0  0  3  0  0  0  0  0  0
  188.9520  178.4950  139.5920 C   0  0  0  0  0  2  0  0  0  0  0  0
  190.4240  177.9830  142.0030 O   0  0  0  0  0  0  0  0  0  0  0  0
  188.4150  177.8980  140.8080 N   0  0  0  0  0  2  0  0  0  0  0  0
  189.1950  177.7050  141.9900 C   0  0  0  0  0  0  0  0  0  0  0  0
  188.5420  177.1850  143.2180 C   0  0  0  0  0  2  0  0  0  0  0  0
  189.5210  176.4910  144.0350 N   0  0  0  0  0  2  0  0  0  0  0  0
  189.2760  176.8980  145.4120 C   0  0  1  0  0  3  0  0  0  0  0  0
  190.9150  176.6470  147.2640 C   0  0  0  0  0  2  0  0  0  0  0  0
  191.6390  176.3880  145.9620 C   0  0  0  0  0  2  0  0  0  0  0  0
  190.5560  177.4460  146.0240 C   0  0  0  0  0  3  0  0  0  0  0  0
  188.1910  177.9560  145.4380 C   0  0  0  0  0  2  0  0  0  0  0  0
  187.3010  177.6990  146.5490 N   0  0  0  0  0  2  0  0  0  0  0  0
  186.3210  178.7730  146.5730 C   0  0  0  0  0  2  0  0  0  0  0  0
  185.1370  179.1870  144.4400 C   0  0  0  0  0  1  0  0  0  0  0  0
  185.1210  178.3920  145.7280 C   0  0  2  0  0  3  0  0  0  0  0  0
  183.9480  178.6710  146.4260 O   0  0  0  0  0  1  0  0  0  0  0  0
  1  5  1  0  0  0  0
  2  6  1  0  0  0  0
  3  5  1  0  0  0  0
  4  2  1  0  0  0  0
  4  3  1  0  0  0  0
  5 31  1  1  0  0  0
  6  7  2  0  0  0  0
  7  8  1  0  0  0  0
  7  1  1  0  0  0  0
  9 12  1  0  0  0  0
  9 11  2  0  0  0  0
 11 10  1  0  0  0  0
 12 13  1  0  0  0  0
 13  6  1  0  0  0  0
 13 10  2  0  0  0  0
 14  2  1  0  0  0  0
 15 17  1  0  0  0  0
 15 14  1  0  0  0  0
 16 19  1  0  0  0  0
 17 16  2  0  0  0  0
 18 20  1  0  0  0  0
 19 18  2  0  0  0  0
 20 21  1  1  0  0  0
 20 22  1  0  0  0  0
 23 27  1  0  0  0  0
 23 26  1  0  0  0  0
 24 23  1  0  0  0  0
 25 27  1  0  0  0  0
 27 29  1  1  0  0  0
 28 30  1  0  0  0  0
 28 24  1  0  0  0  0
 30 22  1  1  0  0  0
 30 25  1  0  0  0  0
 31 33  1  0  0  0  0
 33 34  1  0  0  0  0
 34 32  2  0  0  0  0
 34 35  1  0  0  0  0
 35 36  1  0  0  0  0
 36 37  1  0  0  0  0
 37 41  1  6  0  0  0
 37 40  1  0  0  0  0
 39 40  1  0  0  0  0
 39 38  1  0  0  0  0
 40 38  1  0  0  0  0
 41 42  1  0  0  0  0
 42 43  1  0  0  0  0
 45 44  1  6  0  0  0
 45 46  1  0  0  0  0
 45 43  1  0  0  0  0
M  END
>  <MODEL>
6

>  <REMARK>
 VINA RESULT:      -6.4      1.761      3.000
  Name = 
  18 active torsions:
  status: ('A' for Active; 'I' for Inactive)
    1  A    between atoms: N_3  and  C_20
    2  A    between atoms: N_5  and  C_21
    3  A    between atoms: N_5  and  C_25
    4  A    between atoms: C_6  and  C_21
    5  A    between atoms: C_7  and  C_41
    6  A    between atoms: N_10  and  C_23
    7  A    between atoms: N_10  and  C_37
    8  A    between atoms: N_12  and  C_17
    9  A    between atoms: C_15  and  C_27
   10  A    between atoms: C_15  and  N_33
   11  A    between atoms: C_17  and  C_18
   12  A    between atoms: C_18  and  C_22
   13  A    between atoms: C_20  and  N_24
   14  A    between atoms: C_23  and  C_36
   15  A    between atoms: N_24  and  C_44
   16  A    between atoms: C_25  and  C_37
   17  A    between atoms: C_30  and  C_37
   18  A    between atoms: C_38  and  C_40
                            x       y       z     vdW  Elec       q    Type
                         _______ _______ _______ _____ _____    ______ ____

>  <TORSDO>
F 18

$$$$
=
 OpenBabel11032420013D

 46 49  0  0  1  0  0  0  0  0999 V2000
  191.4460  176.7090  143.9110 C   0  0  0  0  0  2  0  0  0  0  0  0
  188.5090  176.9550  144.2780 N   0  0  0  0  0  0  0  0  0  0  0  0
  189.6790  176.6530  142.1340 C   0  0  0  0  0  2  0  0  0  0  0  0
  188.7930  176.0030  143.2000 C   0  0  0  0  0  2  0  0  0  0  0  0
  190.8200  177.4640  142.7470 C   0  0  2  0  0  3  0  0  0  0  0  0
  189.4250  177.0960  145.3910 C   0  0  0  0  0  0  0  0  0  0  0  0
  190.7750  177.0040  145.2260 C   0  0  0  0  0  0  0  0  0  0  0  0
  191.6430  177.0880  146.3520 N   0  0  0  0  0  1  0  0  0  0  0  0
  188.1600  178.3360  148.4680 C   0  0  0  0  0  3  0  0  0  0  0  0
  188.3600  176.4010  147.5540 N   0  0  0  0  0  0  0  0  0  0  0  0
  187.9290  177.0210  148.6390 N   0  0  0  0  0  0  0  0  0  0  0  0
  188.7410  178.5810  147.2760 N   0  0  0  0  0  2  0  0  0  0  0  0
  188.8450  177.3510  146.7370 C   0  0  0  0  0  0  0  0  0  0  0  0
  187.2780  177.7560  144.2640 C   0  0  0  0  0  2  0  0  0  0  0  0
  186.9350  178.3250  142.8950 C   0  0  0  0  0  2  0  0  0  0  0  0
  185.0330  178.2330  141.3840 C   0  0  0  0  0  3  0  0  0  0  0  0
  185.4970  178.1040  142.6170 C   0  0  0  0  0  3  0  0  0  0  0  0
  182.7580  178.9440  141.3770 N   0  0  0  0  0  0  0  0  0  0  0  0
  183.6160  178.0120  141.1170 C   0  0  0  0  0  3  0  0  0  0  0  0
  181.3420  178.7340  141.1110 C   0  0  1  0  0  3  0  0  0  0  0  0
  180.6430  180.1760  140.2550 S   0  0  0  0  0  1  0  0  0  0  0  0
  181.1690  177.5580  140.2740 N   0  0  0  0  0  2  0  0  0  0  0  0
  179.4110  174.6230  139.0410 N   0  0  0  0  0  0  0  0  0  0  0  0
  179.9890  175.6950  138.2200 C   0  0  0  0  0  2  0  0  0  0  0  0
  179.2740  176.1690  140.9690 C   0  0  0  0  0  2  0  0  0  0  0  0
  180.0400  173.4000  138.5640 C   0  0  0  0  0  1  0  0  0  0  0  0
  179.8080  174.8270  140.4490 C   0  0  1  0  0  3  0  0  0  0  0  0
  179.4130  177.0470  138.6230 C   0  0  0  0  0  2  0  0  0  0  0  0
  179.2330  173.7330  141.3410 C   0  0  0  0  0  1  0  0  0  0  0  0
  179.7380  177.3350  140.0940 C   0  0  2  0  0  3  0  0  0  0  0  0
  191.8780  177.7430  141.6950 C   0  0  0  0  0  2  0  0  0  0  0  0
  193.5610  177.1280  139.4510 O   0  0  0  0  0  0  0  0  0  0  0  0
  191.4230  177.2880  140.3880 N   0  0  0  0  0  2  0  0  0  0  0  0
  192.3180  176.9610  139.3230 C   0  0  0  0  0  0  0  0  0  0  0  0
  191.7740  176.4060  138.0580 C   0  0  0  0  0  2  0  0  0  0  0  0
  190.8330  175.3420  138.3570 N   0  0  0  0  0  2  0  0  0  0  0  0
  189.8340  175.3590  137.2960 C   0  0  1  0  0  3  0  0  0  0  0  0
  189.9360  173.8950  135.2900 C   0  0  0  0  0  2  0  0  0  0  0  0
  190.9310  173.3720  136.3010 C   0  0  0  0  0  2  0  0  0  0  0  0
  189.6120  173.9490  136.7720 C   0  0  0  0  0  3  0  0  0  0  0  0
  188.5370  175.9250  137.8370 C   0  0  0  0  0  2  0  0  0  0  0  0
  188.4880  177.3460  137.5710 N   0  0  0  0  0  2  0  0  0  0  0  0
  187.3700  177.8870  138.3260 C   0  0  0  0  0  2  0  0  0  0  0  0
  185.0250  177.4090  137.6980 C   0  0  0  0  0  1  0  0  0  0  0  0
  186.2420  178.2520  137.3820 C   0  0  2  0  0  3  0  0  0  0  0  0
  186.6360  178.0180  136.0660 O   0  0  0  0  0  1  0  0  0  0  0  0
  1  7  1  0  0  0  0
  2  6  1  0  0  0  0
  3  5  1  0  0  0  0
  3  4  1  0  0  0  0
  4  2  1  0  0  0  0
  5 31  1  6  0  0  0
  5  1  1  0  0  0  0
  6 13  1  0  0  0  0
  7  6  2  0  0  0  0
  7  8  1  0  0  0  0
  9 11  2  0  0  0  0
 10 11  1  0  0  0  0
 12  9  1  0  0  0  0
 13 12  1  0  0  0  0
 13 10  2  0  0  0  0
 14  2  1  0  0  0  0
 15 14  1  0  0  0  0
 16 17  2  0  0  0  0
 17 15  1  0  0  0  0
 19 18  2  0  0  0  0
 19 16  1  0  0  0  0
 20 21  1  6  0  0  0
 20 18  1  0  0  0  0
 22 20  1  0  0  0  0
 23 27  1  0  0  0  0
 24 28  1  0  0  0  0
 24 23  1  0  0  0  0
 26 23  1  0  0  0  0
 27 25  1  0  0  0  0
 27 29  1  1  0  0  0
 28 30  1  0  0  0  0
 30 22  1  6  0  0  0
 30 25  1  0  0  0  0
 33 31  1  0  0  0  0
 34 32  2  0  0  0  0
 34 33  1  0  0  0  0
 35 36  1  0  0  0  0
 35 34  1  0  0  0  0
 37 41  1  1  0  0  0
 37 36  1  0  0  0  0
 38 39  1  0  0  0  0
 38 40  1  0  0  0  0
 39 40  1  0  0  0  0
 40 37  1  0  0  0  0
 42 41  1  0  0  0  0
 42 43  1  0  0  0  0
 45 44  1  1  0  0  0
 45 43  1  0  0  0  0
 46 45  1  0  0  0  0
M  END
>  <MODEL>
7

>  <REMARK>
 VINA RESULT:      -6.4      2.407      7.759
  Name = 
  18 active torsions:
  status: ('A' for Active; 'I' for Inactive)
    1  A    between atoms: N_3  and  C_20
    2  A    between atoms: N_5  and  C_21
    3  A    between atoms: N_5  and  C_25
    4  A    between atoms: C_6  and  C_21
    5  A    between atoms: C_7  and  C_41
    6  A    between atoms: N_10  and  C_23
    7  A    between atoms: N_10  and  C_37
    8  A    between atoms: N_12  and  C_17
    9  A    between atoms: C_15  and  C_27
   10  A    between atoms: C_15  and  N_33
   11  A    between atoms: C_17  and  C_18
   12  A    between atoms: C_18  and  C_22
   13  A    between atoms: C_20  and  N_24
   14  A    between atoms: C_23  and  C_36
   15  A    between atoms: N_24  and  C_44
   16  A    between atoms: C_25  and  C_37
   17  A    between atoms: C_30  and  C_37
   18  A    between atoms: C_38  and  C_40
                            x       y       z     vdW  Elec       q    Type
                         _______ _______ _______ _____ _____    ______ ____

>  <TORSDO>
F 18

$$$$
=
 OpenBabel11032420013D

 46 49  0  0  1  0  0  0  0  0999 V2000
  189.6130  178.0680  139.1210 C   0  0  0  0  0  2  0  0  0  0  0  0
  188.6890  176.4480  136.8090 N   0  0  0  0  0  0  0  0  0  0  0  0
  187.3840  178.1750  137.9790 C   0  0  0  0  0  2  0  0  0  0  0  0
  188.1500  177.8060  136.7060 C   0  0  0  0  0  2  0  0  0  0  0  0
  188.1300  177.7520  139.2440 C   0  0  2  0  0  3  0  0  0  0  0  0
  189.9780  176.2170  137.4280 C   0  0  0  0  0  0  0  0  0  0  0  0
  190.4000  176.9430  138.5020 C   0  0  0  0  0  0  0  0  0  0  0  0
  191.6980  176.7290  139.0480 N   0  0  0  0  0  1  0  0  0  0  0  0
  192.3020  174.1510  135.7130 C   0  0  0  0  0  3  0  0  0  0  0  0
  190.7910  173.8520  137.2120 N   0  0  0  0  0  0  0  0  0  0  0  0
  191.7110  173.2290  136.4960 N   0  0  0  0  0  0  0  0  0  0  0  0
  191.7750  175.3760  135.9140 N   0  0  0  0  0  2  0  0  0  0  0  0
  190.8400  175.1470  136.8560 C   0  0  0  0  0  0  0  0  0  0  0  0
  187.9500  175.3040  136.2590 C   0  0  0  0  0  2  0  0  0  0  0  0
  187.0210  175.6740  135.1110 C   0  0  0  0  0  2  0  0  0  0  0  0
  184.6390  176.0630  134.8140 C   0  0  0  0  0  3  0  0  0  0  0  0
  185.6620  175.9330  135.6440 C   0  0  0  0  0  3  0  0  0  0  0  0
  182.7370  175.4400  136.1090 N   0  0  0  0  0  0  0  0  0  0  0  0
  183.3040  176.3160  135.3440 C   0  0  0  0  0  3  0  0  0  0  0  0
  181.4070  175.6850  136.6460 C   0  0  1  0  0  3  0  0  0  0  0  0
  180.4180  174.1620  136.5980 S   0  0  0  0  0  1  0  0  0  0  0  0
  181.5090  176.1410  138.0230 N   0  0  0  0  0  2  0  0  0  0  0  0
  182.0950  178.7240  140.5140 N   0  0  0  0  0  0  0  0  0  0  0  0
  181.0780  177.6680  140.5850 C   0  0  0  0  0  2  0  0  0  0  0  0
  182.1580  178.5030  138.0500 C   0  0  0  0  0  2  0  0  0  0  0  0
  182.8890  178.5660  141.7240 C   0  0  0  0  0  1  0  0  0  0  0  0
  182.9710  178.4720  139.3510 C   0  0  1  0  0  3  0  0  0  0  0  0
  180.1700  177.7170  139.3620 C   0  0  0  0  0  2  0  0  0  0  0  0
  184.0490  179.5440  139.2390 C   0  0  0  0  0  1  0  0  0  0  0  0
  180.9980  177.5060  138.0880 C   0  0  2  0  0  3  0  0  0  0  0  0
  187.5550  178.4750  140.4490 C   0  0  0  0  0  2  0  0  0  0  0  0
  187.7350  176.7670  142.7500 O   0  0  0  0  0  0  0  0  0  0  0  0
  188.5540  178.5710  141.5050 N   0  0  0  0  0  2  0  0  0  0  0  0
  188.6100  177.6620  142.6060 C   0  0  0  0  0  0  0  0  0  0  0  0
  189.7240  177.7690  143.5830 C   0  0  0  0  0  2  0  0  0  0  0  0
  189.8360  176.5300  144.3320 N   0  0  0  0  0  2  0  0  0  0  0  0
  189.8230  176.8950  145.7430 C   0  0  1  0  0  3  0  0  0  0  0  0
  191.5410  176.1780  147.3900 C   0  0  0  0  0  2  0  0  0  0  0  0
  192.0590  175.8580  146.0060 C   0  0  0  0  0  2  0  0  0  0  0  0
  191.2460  177.1160  146.2330 C   0  0  0  0  0  3  0  0  0  0  0  0
  189.0060  178.1580  145.9270 C   0  0  0  0  0  2  0  0  0  0  0  0
  187.8570  177.8660  146.7550 N   0  0  0  0  0  2  0  0  0  0  0  0
  186.7120  177.7240  145.8700 C   0  0  0  0  0  2  0  0  0  0  0  0
  184.5140  178.7840  145.4610 C   0  0  0  0  0  1  0  0  0  0  0  0
  185.4780  178.3090  146.5270 C   0  0  2  0  0  3  0  0  0  0  0  0
  185.8410  179.3850  147.3340 O   0  0  0  0  0  1  0  0  0  0  0  0
  1  5  1  0  0  0  0
  2  6  1  0  0  0  0
  3  5  1  0  0  0  0
  4  2  1  0  0  0  0
  4  3  1  0  0  0  0
  5 31  1  1  0  0  0
  6  7  2  0  0  0  0
  7  8  1  0  0  0  0
  7  1  1  0  0  0  0
  9 12  1  0  0  0  0
  9 11  2  0  0  0  0
 11 10  1  0  0  0  0
 12 13  1  0  0  0  0
 13 10  2  0  0  0  0
 13  6  1  0  0  0  0
 14  2  1  0  0  0  0
 15 17  1  0  0  0  0
 15 14  1  0  0  0  0
 16 19  1  0  0  0  0
 16 17  2  0  0  0  0
 18 20  1  0  0  0  0
 19 18  2  0  0  0  0
 20 21  1  1  0  0  0
 20 22  1  0  0  0  0
 23 24  1  0  0  0  0
 23 26  1  0  0  0  0
 25 30  1  0  0  0  0
 25 27  1  0  0  0  0
 27 29  1  6  0  0  0
 27 23  1  0  0  0  0
 28 24  1  0  0  0  0
 30 22  1  1  0  0  0
 30 28  1  0  0  0  0
 31 33  1  0  0  0  0
 33 34  1  0  0  0  0
 34 32  2  0  0  0  0
 34 35  1  0  0  0  0
 35 36  1  0  0  0  0
 36 37  1  0  0  0  0
 37 41  1  6  0  0  0
 37 40  1  0  0  0  0
 39 40  1  0  0  0  0
 39 38  1  0  0  0  0
 40 38  1  0  0  0  0
 41 42  1  0  0  0  0
 43 45  1  0  0  0  0
 43 42  1  0  0  0  0
 45 44  1  6  0  0  0
 45 46  1  0  0  0  0
M  END
>  <MODEL>
8

>  <REMARK>
 VINA RESULT:      -6.3      1.715      3.023
  Name = 
  18 active torsions:
  status: ('A' for Active; 'I' for Inactive)
    1  A    between atoms: N_3  and  C_20
    2  A    between atoms: N_5  and  C_21
    3  A    between atoms: N_5  and  C_25
    4  A    between atoms: C_6  and  C_21
    5  A    between atoms: C_7  and  C_41
    6  A    between atoms: N_10  and  C_23
    7  A    between atoms: N_10  and  C_37
    8  A    between atoms: N_12  and  C_17
    9  A    between atoms: C_15  and  C_27
   10  A    between atoms: C_15  and  N_33
   11  A    between atoms: C_17  and  C_18
   12  A    between atoms: C_18  and  C_22
   13  A    between atoms: C_20  and  N_24
   14  A    between atoms: C_23  and  C_36
   15  A    between atoms: N_24  and  C_44
   16  A    between atoms: C_25  and  C_37
   17  A    between atoms: C_30  and  C_37
   18  A    between atoms: C_38  and  C_40
                            x       y       z     vdW  Elec       q    Type
                         _______ _______ _______ _____ _____    ______ ____

>  <TORSDO>
F 18

$$$$
=
 OpenBabel11032420013D

 46 49  0  0  1  0  0  0  0  0999 V2000
  189.9180  176.7780  137.4040 C   0  0  0  0  0  2  0  0  0  0  0  0
  187.5250  175.7880  135.9510 N   0  0  0  0  0  0  0  0  0  0  0  0
  187.9300  178.1100  136.6590 C   0  0  0  0  0  2  0  0  0  0  0  0
  187.8650  177.1340  135.4810 C   0  0  0  0  0  2  0  0  0  0  0  0
  188.6690  177.5180  137.8590 C   0  0  2  0  0  3  0  0  0  0  0  0
  188.5640  174.8850  136.4010 C   0  0  0  0  0  0  0  0  0  0  0  0
  189.6550  175.3300  137.0860 C   0  0  0  0  0  0  0  0  0  0  0  0
  190.6860  174.4220  137.4610 N   0  0  0  0  0  1  0  0  0  0  0  0
  187.9190  171.3950  136.2710 C   0  0  0  0  0  3  0  0  0  0  0  0
  188.7550  172.8570  134.9350 N   0  0  0  0  0  0  0  0  0  0  0  0
  188.4470  171.5760  135.0460 N   0  0  0  0  0  2  0  0  0  0  0  0
  187.8780  172.5520  136.9630 N   0  0  0  0  0  0  0  0  0  0  0  0
  188.4050  173.4380  136.0950 C   0  0  0  0  0  0  0  0  0  0  0  0
  186.1320  175.3210  135.9420 C   0  0  0  0  0  2  0  0  0  0  0  0
  185.2080  176.1730  135.0830 C   0  0  0  0  0  2  0  0  0  0  0  0
  183.5750  175.7610  136.8360 C   0  0  0  0  0  3  0  0  0  0  0  0
  183.8140  176.0190  135.5600 C   0  0  0  0  0  3  0  0  0  0  0  0
  181.6430  176.5600  137.9810 N   0  0  0  0  0  0  0  0  0  0  0  0
  182.2000  175.6120  137.2990 C   0  0  0  0  0  3  0  0  0  0  0  0
  180.2700  176.4210  138.4450 C   0  0  1  0  0  3  0  0  0  0  0  0
  179.9080  174.6830  138.8280 S   0  0  0  0  0  1  0  0  0  0  0  0
  180.0730  177.2220  139.6420 N   0  0  0  0  0  2  0  0  0  0  0  0
  180.3280  180.1510  141.7810 N   0  0  0  0  0  0  0  0  0  0  0  0
  179.5160  180.0360  140.5640 C   0  0  0  0  0  2  0  0  0  0  0  0
  181.8030  178.3360  140.9730 C   0  0  0  0  0  2  0  0  0  0  0  0
  179.3870  180.5150  142.8310 C   0  0  0  0  0  1  0  0  0  0  0  0
  180.8950  178.8270  142.1090 C   0  0  1  0  0  3  0  0  0  0  0  0
  180.3860  179.6510  139.3740 C   0  0  0  0  0  2  0  0  0  0  0  0
  181.7450  178.8960  143.3720 C   0  0  0  0  0  1  0  0  0  0  0  0
  181.0590  178.2980  139.6360 C   0  0  2  0  0  3  0  0  0  0  0  0
  189.0560  178.6260  138.8230 C   0  0  0  0  0  2  0  0  0  0  0  0
  187.0270  178.8170  140.8440 O   0  0  0  0  0  0  0  0  0  0  0  0
  189.1530  178.1030  140.1790 N   0  0  0  0  0  2  0  0  0  0  0  0
  188.0880  178.1990  141.1270 C   0  0  0  0  0  0  0  0  0  0  0  0
  188.2330  177.5480  142.4540 C   0  0  0  0  0  2  0  0  0  0  0  0
  186.9440  177.5090  143.1210 N   0  0  0  0  0  2  0  0  0  0  0  0
  187.1780  177.9110  144.5020 C   0  0  1  0  0  3  0  0  0  0  0  0
  185.5760  179.0140  146.0500 C   0  0  0  0  0  2  0  0  0  0  0  0
  184.8290  178.6480  144.7870 C   0  0  0  0  0  2  0  0  0  0  0  0
  185.9070  177.7260  145.3170 C   0  0  0  0  0  3  0  0  0  0  0  0
  188.2980  177.0740  145.0850 C   0  0  0  0  0  2  0  0  0  0  0  0
  188.9920  177.8430  146.0950 N   0  0  0  0  0  2  0  0  0  0  0  0
  189.7010  176.8990  146.9440 C   0  0  0  0  0  2  0  0  0  0  0  0
  191.7030  176.0010  145.8000 C   0  0  0  0  0  1  0  0  0  0  0  0
  191.1960  177.0610  146.7550 C   0  0  2  0  0  3  0  0  0  0  0  0
  191.8430  176.9230  147.9810 O   0  0  0  0  0  1  0  0  0  0  0  0
  1  5  1  0  0  0  0
  2  6  1  0  0  0  0
  3  5  1  0  0  0  0
  4  2  1  0  0  0  0
  4  3  1  0  0  0  0
  5 31  1  1  0  0  0
  6  7  2  0  0  0  0
  7  1  1  0  0  0  0
  7  8  1  0  0  0  0
  9 12  2  0  0  0  0
 10 11  1  0  0  0  0
 10 13  2  0  0  0  0
 11  9  1  0  0  0  0
 13  6  1  0  0  0  0
 13 12  1  0  0  0  0
 14  2  1  0  0  0  0
 15 17  1  0  0  0  0
 15 14  1  0  0  0  0
 16 19  1  0  0  0  0
 17 16  2  0  0  0  0
 18 20  1  0  0  0  0
 19 18  2  0  0  0  0
 20 21  1  1  0  0  0
 20 22  1  0  0  0  0
 23 27  1  0  0  0  0
 23 26  1  0  0  0  0
 24 23  1  0  0  0  0
 25 27  1  0  0  0  0
 27 29  1  1  0  0  0
 28 30  1  0  0  0  0
 28 24  1  0  0  0  0
 30 22  1  1  0  0  0
 30 25  1  0  0  0  0
 31 33  1  0  0  0  0
 32 34  2  0  0  0  0
 33 34  1  0  0  0  0
 34 35  1  0  0  0  0
 35 36  1  0  0  0  0
 36 37  1  0  0  0  0
 37 41  1  1  0  0  0
 37 40  1  0  0  0  0
 39 40  1  0  0  0  0
 39 38  1  0  0  0  0
 40 38  1  0  0  0  0
 41 42  1  0  0  0  0
 42 43  1  0  0  0  0
 45 44  1  6  0  0  0
 45 43  1  0  0  0  0
 45 46  1  0  0  0  0
M  END
>  <MODEL>
9

>  <REMARK>
 VINA RESULT:      -6.3      1.941      2.512
  Name = 
  18 active torsions:
  status: ('A' for Active; 'I' for Inactive)
    1  A    between atoms: N_3  and  C_20
    2  A    between atoms: N_5  and  C_21
    3  A    between atoms: N_5  and  C_25
    4  A    between atoms: C_6  and  C_21
    5  A    between atoms: C_7  and  C_41
    6  A    between atoms: N_10  and  C_23
    7  A    between atoms: N_10  and  C_37
    8  A    between atoms: N_12  and  C_17
    9  A    between atoms: C_15  and  C_27
   10  A    between atoms: C_15  and  N_33
   11  A    between atoms: C_17  and  C_18
   12  A    between atoms: C_18  and  C_22
   13  A    between atoms: C_20  and  N_24
   14  A    between atoms: C_23  and  C_36
   15  A    between atoms: N_24  and  C_44
   16  A    between atoms: C_25  and  C_37
   17  A    between atoms: C_30  and  C_37
   18  A    between atoms: C_38  and  C_40
                            x       y       z     vdW  Elec       q    Type
                         _______ _______ _______ _____ _____    ______ ____

>  <TORSDO>
F 18

$$$$
