=
 OpenBabel11042412003D

 28 31  0  0  1  0  0  0  0  0999 V2000
  189.3720  177.1820  139.9350 C   0  0  0  0  0  0  0  0  0  0  0  0
  187.9570  178.5750  141.2220 O   0  0  0  0  0  1  0  0  0  0  0  0
  189.0710  177.7460  141.1150 C   0  0  0  0  0  0  0  0  0  0  0  0
  187.1850  176.7500  135.7530 C   0  0  0  0  0  2  0  0  0  0  0  0
  186.9610  176.2220  137.1730 C   0  0  0  0  0  2  0  0  0  0  0  0
  188.4710  177.4180  138.7540 C   0  0  0  0  0  3  0  0  0  0  0  0
  188.0630  178.9230  136.7520 C   0  0  0  0  0  2  0  0  0  0  0  0
  188.2470  176.1200  137.9810 C   0  0  0  0  0  2  0  0  0  0  0  0
  189.0140  178.5510  137.8820 C   0  0  0  0  0  2  0  0  0  0  0  0
  188.1840  177.9030  135.6290 C   0  0  0  0  0  2  0  0  0  0  0  0
  189.7000  176.1840  142.9690 C   0  0  0  0  0  2  0  0  0  0  0  0
  189.7380  177.7060  144.8840 N   0  0  0  0  0  0  0  0  0  0  0  0
  187.6600  177.3420  143.8050 C   0  0  0  0  0  3  0  0  0  0  0  0
  187.5460  177.5570  145.1110 C   0  0  0  0  0  0  0  0  0  0  0  0
  189.1290  177.4280  143.6040 C   0  0  2  0  0  0  0  0  0  0  0  0
  188.8070  177.7780  145.7450 N   0  0  0  0  0  0  0  0  0  0  0  0
  189.9460  177.5490  142.3250 C   0  0  2  0  0  3  0  0  0  0  0  0
  186.2450  177.6050  145.8380 C   0  0  0  0  0  2  0  0  0  0  0  0
  184.2820  178.9460  145.0740 C   0  0  0  0  0  1  0  0  0  0  0  0
  185.6330  178.9950  145.7660 C   0  0  0  0  0  2  0  0  0  0  0  0
  190.5460  176.3670  139.8100 N   0  0  0  0  0  2  0  0  0  0  0  0
  191.6770  176.7900  139.0980 N   0  0  0  0  0  2  0  0  0  0  0  0
  193.2280  174.5010  135.9470 N   0  0  0  0  0  0  0  0  0  0  0  0
  193.3650  176.4350  137.3420 C   0  0  0  0  0  3  0  0  0  0  0  0
  192.1080  174.0790  136.5950 C   0  0  0  0  0  3  0  0  0  0  0  0
  191.5820  174.8320  137.6470 C   0  0  0  0  0  3  0  0  0  0  0  0
  193.8610  175.6540  136.2960 C   0  0  0  0  0  3  0  0  0  0  0  0
  192.2140  176.0200  138.0230 C   0  0  0  0  0  0  0  0  0  0  0  0
  1  3  2  0  0  0  0
  3  2  1  0  0  0  0
  4  5  1  0  0  0  0
  5  8  1  0  0  0  0
  6  1  1  0  0  0  0
  7  9  1  0  0  0  0
  8  6  1  0  0  0  0
  9  6  1  0  0  0  0
 10  4  1  0  0  0  0
 10  7  1  0  0  0  0
 12 16  2  0  0  0  0
 13 14  2  0  0  0  0
 14 16  1  0  0  0  0
 14 18  1  0  0  0  0
 15 11  1  1  0  0  0
 15 13  1  0  0  0  0
 15 12  1  0  0  0  0
 17  3  1  6  0  0  0
 17 11  1  0  0  0  0
 17 15  1  0  0  0  0
 19 20  1  0  0  0  0
 20 18  1  0  0  0  0
 21  1  1  0  0  0  0
 22 21  1  0  0  0  0
 23 27  2  0  0  0  0
 23 25  1  0  0  0  0
 24 28  2  0  0  0  0
 25 26  2  0  0  0  0
 26 28  1  0  0  0  0
 27 24  1  0  0  0  0
 28 22  1  0  0  0  0
M  END
>  <MODEL>
1

>  <REMARK>
 VINA RESULT:      -7.5      0.000      0.000
  Name = 
  7 active torsions:
  status: ('A' for Active; 'I' for Inactive)
    1  A    between atoms: N_2  and  N_15
    2  A    between atoms: N_2  and  C_25
    3  A    between atoms: C_7  and  C_25
    4  A    between atoms: C_13  and  C_14
    5  A    between atoms: C_13  and  C_27
    6  A    between atoms: N_15  and  C_19
    7  A    between atoms: C_22  and  C_28
                            x       y       z     vdW  Elec       q    Type
                         _______ _______ _______ _____ _____    ______ ____

>  <TORSDO>
F 7

$$$$
=
 OpenBabel11042412003D

 28 31  0  0  1  0  0  0  0  0999 V2000
  188.4250  177.7940  140.7010 C   0  0  0  0  0  0  0  0  0  0  0  0
  186.7040  179.2210  141.4810 O   0  0  0  0  0  1  0  0  0  0  0  0
  187.6960  178.2720  141.7220 C   0  0  0  0  0  0  0  0  0  0  0  0
  187.2200  177.8650  136.1180 C   0  0  0  0  0  2  0  0  0  0  0  0
  186.4780  177.9660  137.4540 C   0  0  0  0  0  2  0  0  0  0  0  0
  188.1240  178.2570  139.3010 C   0  0  0  0  0  3  0  0  0  0  0  0
  189.1690  179.1330  137.1600 C   0  0  0  0  0  2  0  0  0  0  0  0
  187.2040  177.2650  138.5940 C   0  0  0  0  0  2  0  0  0  0  0  0
  189.4200  178.5260  138.5350 C   0  0  0  0  0  2  0  0  0  0  0  0
  188.7390  178.0390  136.1930 C   0  0  0  0  0  2  0  0  0  0  0  0
  187.1440  176.6130  143.5150 C   0  0  0  0  0  2  0  0  0  0  0  0
  186.8510  178.0790  145.4500 N   0  0  0  0  0  0  0  0  0  0  0  0
  185.3190  178.3020  143.6560 C   0  0  0  0  0  3  0  0  0  0  0  0
  184.7800  178.5510  144.8440 C   0  0  0  0  0  0  0  0  0  0  0  0
  186.7230  177.9720  144.0150 C   0  0  2  0  0  0  0  0  0  0  0  0
  185.7180  178.4160  145.9130 N   0  0  0  0  0  0  0  0  0  0  0  0
  187.9640  177.8490  143.1420 C   0  0  2  0  0  3  0  0  0  0  0  0
  183.3620  178.9670  145.0460 C   0  0  0  0  0  2  0  0  0  0  0  0
  181.1700  178.6650  143.8900 C   0  0  0  0  0  1  0  0  0  0  0  0
  182.6270  179.0530  143.7180 C   0  0  0  0  0  2  0  0  0  0  0  0
  189.4800  176.8550  140.9520 N   0  0  0  0  0  2  0  0  0  0  0  0
  190.7610  177.2590  141.3520 N   0  0  0  0  0  2  0  0  0  0  0  0
  191.8200  177.4540  145.4030 N   0  0  0  0  0  0  0  0  0  0  0  0
  191.3340  178.5760  143.3510 C   0  0  0  0  0  3  0  0  0  0  0  0
  191.6190  176.2410  144.8200 C   0  0  0  0  0  3  0  0  0  0  0  0
  191.2650  176.1630  143.4710 C   0  0  0  0  0  3  0  0  0  0  0  0
  191.6860  178.6120  144.7020 C   0  0  0  0  0  3  0  0  0  0  0  0
  191.1230  177.3380  142.7300 C   0  0  0  0  0  0  0  0  0  0  0  0
  1 21  1  0  0  0  0
  1  3  2  0  0  0  0
  2  3  1  0  0  0  0
  4 10  1  0  0  0  0
  4  5  1  0  0  0  0
  5  8  1  0  0  0  0
  6  1  1  0  0  0  0
  7  9  1  0  0  0  0
  8  6  1  0  0  0  0
  9  6  1  0  0  0  0
 10  7  1  0  0  0  0
 12 16  2  0  0  0  0
 13 15  1  0  0  0  0
 13 14  2  0  0  0  0
 14 18  1  0  0  0  0
 14 16  1  0  0  0  0
 15 11  1  1  0  0  0
 15 12  1  0  0  0  0
 17  3  1  6  0  0  0
 17 11  1  0  0  0  0
 17 15  1  0  0  0  0
 20 19  1  0  0  0  0
 20 18  1  0  0  0  0
 21 22  1  0  0  0  0
 22 28  1  0  0  0  0
 24 27  1  0  0  0  0
 25 23  1  0  0  0  0
 26 25  2  0  0  0  0
 27 23  2  0  0  0  0
 28 24  2  0  0  0  0
 28 26  1  0  0  0  0
M  END
>  <MODEL>
2

>  <REMARK>
 VINA RESULT:      -7.4      2.704      4.124
  Name = 
  7 active torsions:
  status: ('A' for Active; 'I' for Inactive)
    1  A    between atoms: N_2  and  N_15
    2  A    between atoms: N_2  and  C_25
    3  A    between atoms: C_7  and  C_25
    4  A    between atoms: C_13  and  C_14
    5  A    between atoms: C_13  and  C_27
    6  A    between atoms: N_15  and  C_19
    7  A    between atoms: C_22  and  C_28
                            x       y       z     vdW  Elec       q    Type
                         _______ _______ _______ _____ _____    ______ ____

>  <TORSDO>
F 7

$$$$
=
 OpenBabel11042412003D

 28 31  0  0  1  0  0  0  0  0999 V2000
  185.9290  178.4040  141.9050 C   0  0  0  0  0  0  0  0  0  0  0  0
  186.4500  177.1880  143.8680 O   0  0  0  0  0  1  0  0  0  0  0  0
  186.8510  177.8690  142.7210 C   0  0  0  0  0  0  0  0  0  0  0  0
  181.2060  178.7970  141.8780 C   0  0  0  0  0  2  0  0  0  0  0  0
  182.2470  177.9650  141.1230 C   0  0  0  0  0  2  0  0  0  0  0  0
  184.4700  178.2160  142.2200 C   0  0  0  0  0  3  0  0  0  0  0  0
  182.6720  178.6540  143.9570 C   0  0  0  0  0  2  0  0  0  0  0  0
  183.6060  178.6450  141.0360 C   0  0  0  0  0  2  0  0  0  0  0  0
  184.1050  178.9320  143.5210 C   0  0  0  0  0  2  0  0  0  0  0  0
  181.7160  179.5070  143.1360 C   0  0  0  0  0  2  0  0  0  0  0  0
  189.0580  176.6970  142.5400 C   0  0  0  0  0  2  0  0  0  0  0  0
  190.5060  178.2050  143.8100 N   0  0  0  0  0  0  0  0  0  0  0  0
  188.7700  177.0950  144.9810 C   0  0  0  0  0  3  0  0  0  0  0  0
  189.8550  177.3040  145.7190 C   0  0  0  0  0  0  0  0  0  0  0  0
  189.1650  177.6840  143.6760 C   0  0  2  0  0  0  0  0  0  0  0  0
  190.8890  177.9770  144.9990 N   0  0  0  0  0  0  0  0  0  0  0  0
  188.3240  178.0370  142.4560 C   0  0  2  0  0  3  0  0  0  0  0  0
  189.9740  176.9190  147.1540 C   0  0  0  0  0  2  0  0  0  0  0  0
  188.3950  178.2300  148.5750 C   0  0  0  0  0  1  0  0  0  0  0  0
  188.6140  176.9240  147.8330 C   0  0  0  0  0  2  0  0  0  0  0  0
  186.3400  179.1480  140.7500 N   0  0  0  0  0  2  0  0  0  0  0  0
  186.2630  178.6200  139.4540 N   0  0  0  0  0  2  0  0  0  0  0  0
  189.5840  176.9110  137.5510 N   0  0  0  0  0  0  0  0  0  0  0  0
  188.7000  178.4400  139.1590 C   0  0  0  0  0  3  0  0  0  0  0  0
  188.3320  176.5140  137.1990 C   0  0  0  0  0  3  0  0  0  0  0  0
  187.2170  177.0750  137.8250 C   0  0  0  0  0  3  0  0  0  0  0  0
  189.7890  177.8540  138.5100 C   0  0  0  0  0  3  0  0  0  0  0  0
  187.4020  178.0460  138.8130 C   0  0  0  0  0  0  0  0  0  0  0  0
  1  6  1  0  0  0  0
  1  3  2  0  0  0  0
  3  2  1  0  0  0  0
  4 10  1  0  0  0  0
  5  4  1  0  0  0  0
  6  9  1  0  0  0  0
  8  5  1  0  0  0  0
  8  6  1  0  0  0  0
  9  7  1  0  0  0  0
 10  7  1  0  0  0  0
 12 16  2  0  0  0  0
 13 14  2  0  0  0  0
 14 18  1  0  0  0  0
 15 11  1  6  0  0  0
 15 12  1  0  0  0  0
 15 13  1  0  0  0  0
 16 14  1  0  0  0  0
 17 11  1  0  0  0  0
 17  3  1  1  0  0  0
 17 15  1  0  0  0  0
 18 20  1  0  0  0  0
 20 19  1  0  0  0  0
 21  1  1  0  0  0  0
 22 21  1  0  0  0  0
 23 27  1  0  0  0  0
 25 23  2  0  0  0  0
 25 26  1  0  0  0  0
 26 28  2  0  0  0  0
 27 24  2  0  0  0  0
 28 24  1  0  0  0  0
 28 22  1  0  0  0  0
M  END
>  <MODEL>
3

>  <REMARK>
 VINA RESULT:      -7.3      2.751      5.173
  Name = 
  7 active torsions:
  status: ('A' for Active; 'I' for Inactive)
    1  A    between atoms: N_2  and  N_15
    2  A    between atoms: N_2  and  C_25
    3  A    between atoms: C_7  and  C_25
    4  A    between atoms: C_13  and  C_14
    5  A    between atoms: C_13  and  C_27
    6  A    between atoms: N_15  and  C_19
    7  A    between atoms: C_22  and  C_28
                            x       y       z     vdW  Elec       q    Type
                         _______ _______ _______ _____ _____    ______ ____

>  <TORSDO>
F 7

$$$$
=
 OpenBabel11042412003D

 28 31  0  0  1  0  0  0  0  0999 V2000
  189.4190  177.9430  141.4620 C   0  0  0  0  0  0  0  0  0  0  0  0
  191.0360  177.4960  139.7910 O   0  0  0  0  0  1  0  0  0  0  0  0
  189.7410  177.8520  140.1620 C   0  0  0  0  0  0  0  0  0  0  0  0
  191.6810  175.9630  145.1250 C   0  0  0  0  0  2  0  0  0  0  0  0
  191.5490  175.6760  143.6260 C   0  0  0  0  0  2  0  0  0  0  0  0
  190.4550  177.6110  142.5020 C   0  0  0  0  0  3  0  0  0  0  0  0
  191.5950  178.4560  144.6060 C   0  0  0  0  0  2  0  0  0  0  0  0
  190.2470  176.1950  143.0330 C   0  0  0  0  0  2  0  0  0  0  0  0
  190.4670  178.6710  143.6040 C   0  0  0  0  0  2  0  0  0  0  0  0
  191.2090  177.3480  145.5750 C   0  0  0  0  0  2  0  0  0  0  0  0
  188.0450  176.9230  138.5690 C   0  0  0  0  0  2  0  0  0  0  0  0
  188.6130  178.1220  136.5140 N   0  0  0  0  0  2  0  0  0  0  0  0
  190.2210  176.6220  137.3960 C   0  0  0  0  0  2  0  0  0  0  0  0
  190.2390  176.6950  136.0700 C   0  0  0  0  0  0  0  0  0  0  0  0
  189.1300  177.5690  137.7440 C   0  0  2  0  0  0  0  0  0  0  0  0
  189.2660  177.6060  135.5560 N   0  0  0  0  0  0  0  0  0  0  0  0
  188.7440  178.1840  139.0820 C   0  0  2  0  0  3  0  0  0  0  0  0
  191.1940  175.9430  135.2070 C   0  0  0  0  0  2  0  0  0  0  0  0
  193.6040  176.0000  135.8580 C   0  0  0  0  0  1  0  0  0  0  0  0
  192.2790  175.2830  136.0430 C   0  0  0  0  0  2  0  0  0  0  0  0
  188.1010  178.3580  141.8460 N   0  0  0  0  0  2  0  0  0  0  0  0
  187.2000  177.4920  142.4820 N   0  0  0  0  0  2  0  0  0  0  0  0
  185.5130  178.4280  146.2020 N   0  0  0  0  0  0  0  0  0  0  0  0
  187.2940  177.4580  144.9410 C   0  0  0  0  0  3  0  0  0  0  0  0
  184.8550  178.7730  145.0620 C   0  0  0  0  0  3  0  0  0  0  0  0
  185.4070  178.4670  143.8160 C   0  0  0  0  0  3  0  0  0  0  0  0
  186.7090  177.7820  146.1670 C   0  0  0  0  0  3  0  0  0  0  0  0
  186.6360  177.8040  143.7540 C   0  0  0  0  0  0  0  0  0  0  0  0
  1 21  1  0  0  0  0
  1  6  1  0  0  0  0
  2  3  1  0  0  0  0
  3  1  2  0  0  0  0
  4 10  1  0  0  0  0
  5  4  1  0  0  0  0
  6  8  1  0  0  0  0
  6  9  1  0  0  0  0
  7 10  1  0  0  0  0
  8  5  1  0  0  0  0
  9  7  1  0  0  0  0
 11 17  1  0  0  0  0
 12 15  1  0  0  0  0
 14 13  1  0  0  0  0
 15 13  1  6  0  0  0
 15 11  1  0  0  0  0
 15 17  1  0  0  0  0
 16 14  2  0  0  0  0
 16 12  1  0  0  0  0
 17  3  1  1  0  0  0
 18 20  1  0  0  0  0
 18 14  1  0  0  0  0
 19 20  1  0  0  0  0
 21 22  1  0  0  0  0
 22 28  1  0  0  0  0
 24 27  2  0  0  0  0
 25 23  2  0  0  0  0
 26 25  1  0  0  0  0
 27 23  1  0  0  0  0
 28 26  2  0  0  0  0
 28 24  1  0  0  0  0
M  END
>  <MODEL>
4

>  <REMARK>
 VINA RESULT:      -7.3      2.279      8.635
  Name = 
  7 active torsions:
  status: ('A' for Active; 'I' for Inactive)
    1  A    between atoms: N_2  and  N_15
    2  A    between atoms: N_2  and  C_25
    3  A    between atoms: C_7  and  C_25
    4  A    between atoms: C_13  and  C_14
    5  A    between atoms: C_13  and  C_27
    6  A    between atoms: N_15  and  C_19
    7  A    between atoms: C_22  and  C_28
                            x       y       z     vdW  Elec       q    Type
                         _______ _______ _______ _____ _____    ______ ____

>  <TORSDO>
F 7

$$$$
=
 OpenBabel11042412003D

 28 31  0  0  1  0  0  0  0  0999 V2000
  184.9620  178.8190  141.8220 C   0  0  0  0  0  0  0  0  0  0  0  0
  182.6520  178.3060  141.9050 O   0  0  0  0  0  1  0  0  0  0  0  0
  183.7620  178.7950  141.2200 C   0  0  0  0  0  0  0  0  0  0  0  0
  185.4030  178.7790  146.5400 C   0  0  0  0  0  2  0  0  0  0  0  0
  184.2450  178.8690  145.5430 C   0  0  0  0  0  2  0  0  0  0  0  0
  185.0770  178.3610  143.2500 C   0  0  0  0  0  3  0  0  0  0  0  0
  186.6110  177.2240  144.9230 C   0  0  0  0  0  2  0  0  0  0  0  0
  184.6530  179.4730  144.2070 C   0  0  0  0  0  2  0  0  0  0  0  0
  186.4840  177.8310  143.5320 C   0  0  0  0  0  2  0  0  0  0  0  0
  186.7460  178.3370  145.9520 C   0  0  0  0  0  2  0  0  0  0  0  0
  182.1760  178.9530  139.2880 C   0  0  0  0  0  2  0  0  0  0  0  0
  183.5820  178.1640  137.4480 N   0  0  0  0  0  2  0  0  0  0  0  0
  183.0560  176.6260  139.1730 C   0  0  0  0  0  2  0  0  0  0  0  0
  183.1830  176.0570  137.9790 C   0  0  0  0  0  0  0  0  0  0  0  0
  183.3130  178.0570  138.8630 C   0  0  2  0  0  0  0  0  0  0  0  0
  183.5040  176.9980  136.9530 N   0  0  0  0  0  0  0  0  0  0  0  0
  183.5940  179.2320  139.7880 C   0  0  2  0  0  3  0  0  0  0  0  0
  183.0480  174.5930  137.7350 C   0  0  0  0  0  2  0  0  0  0  0  0
  185.0660  173.1230  137.7410 C   0  0  0  0  0  1  0  0  0  0  0  0
  184.2150  174.0690  136.9130 C   0  0  0  0  0  2  0  0  0  0  0  0
  186.1150  179.2750  141.1020 N   0  0  0  0  0  2  0  0  0  0  0  0
  186.6030  178.6060  139.9710 N   0  0  0  0  0  2  0  0  0  0  0  0
  190.5970  177.3540  139.7500 N   0  0  0  0  0  0  0  0  0  0  0  0
  188.6280  178.1420  138.6520 C   0  0  0  0  0  3  0  0  0  0  0  0
  189.9690  177.3830  140.9570 C   0  0  0  0  0  3  0  0  0  0  0  0
  188.6390  177.8000  141.0440 C   0  0  0  0  0  3  0  0  0  0  0  0
  189.9590  177.7200  138.6060 C   0  0  0  0  0  3  0  0  0  0  0  0
  187.9620  178.1810  139.8830 C   0  0  0  0  0  0  0  0  0  0  0  0
  1  6  1  0  0  0  0
  3  1  2  0  0  0  0
  3  2  1  0  0  0  0
  5  4  1  0  0  0  0
  6  9  1  0  0  0  0
  6  8  1  0  0  0  0
  7 10  1  0  0  0  0
  8  5  1  0  0  0  0
  9  7  1  0  0  0  0
 10  4  1  0  0  0  0
 11 17  1  0  0  0  0
 12 15  1  0  0  0  0
 14 13  1  0  0  0  0
 15 13  1  1  0  0  0
 15 11  1  0  0  0  0
 15 17  1  0  0  0  0
 16 12  1  0  0  0  0
 16 14  2  0  0  0  0
 17  3  1  1  0  0  0
 18 14  1  0  0  0  0
 20 18  1  0  0  0  0
 20 19  1  0  0  0  0
 21  1  1  0  0  0  0
 22 21  1  0  0  0  0
 23 25  1  0  0  0  0
 24 28  2  0  0  0  0
 25 26  2  0  0  0  0
 27 24  1  0  0  0  0
 27 23  2  0  0  0  0
 28 22  1  0  0  0  0
 28 26  1  0  0  0  0
M  END
>  <MODEL>
5

>  <REMARK>
 VINA RESULT:      -7.3      3.768      7.593
  Name = 
  7 active torsions:
  status: ('A' for Active; 'I' for Inactive)
    1  A    between atoms: N_2  and  N_15
    2  A    between atoms: N_2  and  C_25
    3  A    between atoms: C_7  and  C_25
    4  A    between atoms: C_13  and  C_14
    5  A    between atoms: C_13  and  C_27
    6  A    between atoms: N_15  and  C_19
    7  A    between atoms: C_22  and  C_28
                            x       y       z     vdW  Elec       q    Type
                         _______ _______ _______ _____ _____    ______ ____

>  <TORSDO>
F 7

$$$$
=
 OpenBabel11042412003D

 28 31  0  0  1  0  0  0  0  0999 V2000
  188.5230  177.5890  143.1490 C   0  0  0  0  0  0  0  0  0  0  0  0
  186.4350  177.0260  144.1130 O   0  0  0  0  0  1  0  0  0  0  0  0
  187.1820  177.5980  143.0850 C   0  0  0  0  0  0  0  0  0  0  0  0
  190.5720  177.0880  147.3930 C   0  0  0  0  0  2  0  0  0  0  0  0
  189.1410  177.0460  146.8480 C   0  0  0  0  0  2  0  0  0  0  0  0
  189.1990  177.0010  144.3570 C   0  0  0  0  0  3  0  0  0  0  0  0
  191.3780  176.0280  145.2200 C   0  0  0  0  0  2  0  0  0  0  0  0
  188.9590  177.8760  145.5850 C   0  0  0  0  0  2  0  0  0  0  0  0
  190.6820  176.7540  144.0770 C   0  0  0  0  0  2  0  0  0  0  0  0
  191.6810  177.0150  146.3390 C   0  0  0  0  0  2  0  0  0  0  0  0
  186.0480  179.6190  142.1340 C   0  0  0  0  0  2  0  0  0  0  0  0
  184.0330  178.6270  141.1670 N   0  0  0  0  0  2  0  0  0  0  0  0
  184.2930  178.5230  143.5200 C   0  0  0  0  0  2  0  0  0  0  0  0
  183.0270  178.6280  143.1340 C   0  0  0  0  0  0  0  0  0  0  0  0
  185.0150  178.5230  142.2220 C   0  0  2  0  0  0  0  0  0  0  0  0
  182.8880  178.6840  141.7130 N   0  0  0  0  0  0  0  0  0  0  0  0
  186.4570  178.1650  141.8930 C   0  0  2  0  0  3  0  0  0  0  0  0
  181.8670  178.6430  144.0710 C   0  0  0  0  0  2  0  0  0  0  0  0
  179.4070  179.0010  144.3020 C   0  0  0  0  0  1  0  0  0  0  0  0
  180.5770  178.9680  143.3350 C   0  0  0  0  0  2  0  0  0  0  0  0
  189.2950  178.1330  142.0690 N   0  0  0  0  0  2  0  0  0  0  0  0
  189.9390  177.3190  141.1270 N   0  0  0  0  0  2  0  0  0  0  0  0
  189.3900  177.8260  137.0020 N   0  0  0  0  0  0  0  0  0  0  0  0
  189.0560  178.6170  139.2310 C   0  0  0  0  0  3  0  0  0  0  0  0
  190.0620  176.7360  137.4600 C   0  0  0  0  0  3  0  0  0  0  0  0
  190.2530  176.5560  138.8320 C   0  0  0  0  0  3  0  0  0  0  0  0
  188.8870  178.7620  137.8520 C   0  0  0  0  0  3  0  0  0  0  0  0
  189.7450  177.5030  139.7250 C   0  0  0  0  0  0  0  0  0  0  0  0
  1  6  1  0  0  0  0
  3  1  2  0  0  0  0
  3  2  1  0  0  0  0
  5  4  1  0  0  0  0
  6  8  1  0  0  0  0
  7 10  1  0  0  0  0
  8  5  1  0  0  0  0
  9  6  1  0  0  0  0
  9  7  1  0  0  0  0
 10  4  1  0  0  0  0
 12 16  1  0  0  0  0
 12 15  1  0  0  0  0
 14 13  1  0  0  0  0
 14 18  1  0  0  0  0
 15 11  1  1  0  0  0
 15 13  1  0  0  0  0
 16 14  2  0  0  0  0
 17 11  1  0  0  0  0
 17 15  1  0  0  0  0
 17  3  1  1  0  0  0
 20 18  1  0  0  0  0
 20 19  1  0  0  0  0
 21  1  1  0  0  0  0
 22 21  1  0  0  0  0
 23 25  2  0  0  0  0
 23 27  1  0  0  0  0
 24 28  1  0  0  0  0
 25 26  1  0  0  0  0
 26 28  2  0  0  0  0
 27 24  2  0  0  0  0
 28 22  1  0  0  0  0
M  END
>  <MODEL>
6

>  <REMARK>
 VINA RESULT:      -7.2      3.111      6.115
  Name = 
  7 active torsions:
  status: ('A' for Active; 'I' for Inactive)
    1  A    between atoms: N_2  and  N_15
    2  A    between atoms: N_2  and  C_25
    3  A    between atoms: C_7  and  C_25
    4  A    between atoms: C_13  and  C_14
    5  A    between atoms: C_13  and  C_27
    6  A    between atoms: N_15  and  C_19
    7  A    between atoms: C_22  and  C_28
                            x       y       z     vdW  Elec       q    Type
                         _______ _______ _______ _____ _____    ______ ____

>  <TORSDO>
F 7

$$$$
=
 OpenBabel11042412003D

 28 31  0  0  1  0  0  0  0  0999 V2000
  186.1490  178.6200  141.2530 C   0  0  0  0  0  0  0  0  0  0  0  0
  186.7030  177.1140  142.9940 O   0  0  0  0  0  1  0  0  0  0  0  0
  185.9350  178.1660  142.4980 C   0  0  0  0  0  0  0  0  0  0  0  0
  190.3050  177.8750  139.1020 C   0  0  0  0  0  2  0  0  0  0  0  0
  189.6980  177.5490  140.4700 C   0  0  0  0  0  2  0  0  0  0  0  0
  187.2510  178.0140  140.4280 C   0  0  0  0  0  3  0  0  0  0  0  0
  188.0080  177.5280  138.0550 C   0  0  0  0  0  2  0  0  0  0  0  0
  188.6130  178.5290  140.8890 C   0  0  0  0  0  2  0  0  0  0  0  0
  186.9950  178.2440  138.9380 C   0  0  0  0  0  2  0  0  0  0  0  0
  189.3080  178.3190  138.0270 C   0  0  0  0  0  2  0  0  0  0  0  0
  185.2740  180.0390  144.0250 C   0  0  0  0  0  2  0  0  0  0  0  0
  184.2140  178.8120  145.8560 N   0  0  0  0  0  0  0  0  0  0  0  0
  186.5290  178.4640  145.4900 C   0  0  0  0  0  3  0  0  0  0  0  0
  186.1770  178.3740  146.7680 C   0  0  0  0  0  0  0  0  0  0  0  0
  185.2310  178.7650  144.8320 C   0  0  2  0  0  0  0  0  0  0  0  0
  184.7780  178.5820  146.9700 N   0  0  0  0  0  0  0  0  0  0  0  0
  184.8380  178.7310  143.3610 C   0  0  2  0  0  3  0  0  0  0  0  0
  187.1250  178.0500  147.8730 C   0  0  0  0  0  2  0  0  0  0  0  0
  189.1980  176.7540  147.3680 C   0  0  0  0  0  1  0  0  0  0  0  0
  188.5660  178.1330  147.3950 C   0  0  0  0  0  2  0  0  0  0  0  0
  185.3270  179.6690  140.7220 N   0  0  0  0  0  2  0  0  0  0  0  0
  184.3850  179.4410  139.7100 N   0  0  0  0  0  2  0  0  0  0  0  0
  181.0980  176.9070  140.2930 N   0  0  0  0  0  0  0  0  0  0  0  0
  182.1320  179.0360  140.6130 C   0  0  0  0  0  3  0  0  0  0  0  0
  182.1840  176.4500  139.6130 C   0  0  0  0  0  3  0  0  0  0  0  0
  183.2860  177.2850  139.4110 C   0  0  0  0  0  3  0  0  0  0  0  0
  181.0500  178.1710  140.7930 C   0  0  0  0  0  3  0  0  0  0  0  0
  183.2600  178.5870  139.9160 C   0  0  0  0  0  0  0  0  0  0  0  0
  1  3  2  0  0  0  0
  3  2  1  0  0  0  0
  4  5  1  0  0  0  0
  5  8  1  0  0  0  0
  6  8  1  0  0  0  0
  6  1  1  0  0  0  0
  7  9  1  0  0  0  0
  9  6  1  0  0  0  0
 10  7  1  0  0  0  0
 10  4  1  0  0  0  0
 12 16  2  0  0  0  0
 13 14  2  0  0  0  0
 14 16  1  0  0  0  0
 14 18  1  0  0  0  0
 15 11  1  1  0  0  0
 15 13  1  0  0  0  0
 15 12  1  0  0  0  0
 17  3  1  6  0  0  0
 17 11  1  0  0  0  0
 17 15  1  0  0  0  0
 19 20  1  0  0  0  0
 20 18  1  0  0  0  0
 21  1  1  0  0  0  0
 22 28  1  0  0  0  0
 22 21  1  0  0  0  0
 23 27  1  0  0  0  0
 24 27  2  0  0  0  0
 25 23  2  0  0  0  0
 26 25  1  0  0  0  0
 26 28  2  0  0  0  0
 28 24  1  0  0  0  0
M  END
>  <MODEL>
7

>  <REMARK>
 VINA RESULT:      -7.1      3.820      6.528
  Name = 
  7 active torsions:
  status: ('A' for Active; 'I' for Inactive)
    1  A    between atoms: N_2  and  N_15
    2  A    between atoms: N_2  and  C_25
    3  A    between atoms: C_7  and  C_25
    4  A    between atoms: C_13  and  C_14
    5  A    between atoms: C_13  and  C_27
    6  A    between atoms: N_15  and  C_19
    7  A    between atoms: C_22  and  C_28
                            x       y       z     vdW  Elec       q    Type
                         _______ _______ _______ _____ _____    ______ ____

>  <TORSDO>
F 7

$$$$
=
 OpenBabel11042412003D

 28 31  0  0  1  0  0  0  0  0999 V2000
  189.7420  176.9430  139.6680 C   0  0  0  0  0  0  0  0  0  0  0  0
  188.5730  178.3430  141.1770 O   0  0  0  0  0  1  0  0  0  0  0  0
  189.6430  177.5000  140.8850 C   0  0  0  0  0  0  0  0  0  0  0  0
  186.9960  176.6670  135.8150 C   0  0  0  0  0  2  0  0  0  0  0  0
  187.0160  176.0200  137.2030 C   0  0  0  0  0  2  0  0  0  0  0  0
  188.6640  177.2000  138.6510 C   0  0  0  0  0  3  0  0  0  0  0  0
  187.8760  178.8180  136.8610 C   0  0  0  0  0  2  0  0  0  0  0  0
  188.4100  175.9510  137.8090 C   0  0  0  0  0  2  0  0  0  0  0  0
  189.0030  178.4320  137.8100 C   0  0  0  0  0  2  0  0  0  0  0  0
  187.8940  177.8970  135.6490 C   0  0  0  0  0  2  0  0  0  0  0  0
  190.4640  175.9760  142.6950 C   0  0  0  0  0  2  0  0  0  0  0  0
  190.9610  177.5740  144.4790 N   0  0  0  0  0  0  0  0  0  0  0  0
  188.7030  177.3480  143.7980 C   0  0  0  0  0  3  0  0  0  0  0  0
  188.8390  177.6320  145.0890 C   0  0  0  0  0  0  0  0  0  0  0  0
  190.1160  177.2940  143.3410 C   0  0  2  0  0  0  0  0  0  0  0  0
  190.2060  177.7690  145.4800 N   0  0  0  0  0  0  0  0  0  0  0  0
  190.7000  177.2830  141.9360 C   0  0  2  0  0  3  0  0  0  0  0  0
  187.6950  177.8290  146.0240 C   0  0  0  0  0  2  0  0  0  0  0  0
  187.9610  178.2500  148.4710 C   0  0  0  0  0  1  0  0  0  0  0  0
  187.9840  177.1980  147.3770 C   0  0  0  0  0  2  0  0  0  0  0  0
  190.8690  176.1140  139.3490 N   0  0  0  0  0  2  0  0  0  0  0  0
  191.8960  176.5450  138.4980 N   0  0  0  0  0  2  0  0  0  0  0  0
  193.5910  174.0310  135.6040 N   0  0  0  0  0  0  0  0  0  0  0  0
  191.8710  174.4500  137.2080 C   0  0  0  0  0  3  0  0  0  0  0  0
  194.1850  175.2220  135.8890 C   0  0  0  0  0  3  0  0  0  0  0  0
  193.6290  176.0690  136.8510 C   0  0  0  0  0  3  0  0  0  0  0  0
  192.4560  173.6320  136.2390 C   0  0  0  0  0  3  0  0  0  0  0  0
  192.4640  175.6800  137.5160 C   0  0  0  0  0  0  0  0  0  0  0  0
  1  3  2  0  0  0  0
  3  2  1  0  0  0  0
  4  5  1  0  0  0  0
  5  8  1  0  0  0  0
  6  1  1  0  0  0  0
  7  9  1  0  0  0  0
  8  6  1  0  0  0  0
  9  6  1  0  0  0  0
 10  4  1  0  0  0  0
 10  7  1  0  0  0  0
 12 16  2  0  0  0  0
 13 14  2  0  0  0  0
 14 16  1  0  0  0  0
 14 18  1  0  0  0  0
 15 11  1  1  0  0  0
 15 13  1  0  0  0  0
 15 12  1  0  0  0  0
 17  3  1  6  0  0  0
 17 11  1  0  0  0  0
 17 15  1  0  0  0  0
 18 20  1  0  0  0  0
 20 19  1  0  0  0  0
 21  1  1  0  0  0  0
 22 21  1  0  0  0  0
 23 25  2  0  0  0  0
 23 27  1  0  0  0  0
 24 28  1  0  0  0  0
 25 26  1  0  0  0  0
 26 28  2  0  0  0  0
 27 24  2  0  0  0  0
 28 22  1  0  0  0  0
M  END
>  <MODEL>
8

>  <REMARK>
 VINA RESULT:      -7.0      1.087      1.649
  Name = 
  7 active torsions:
  status: ('A' for Active; 'I' for Inactive)
    1  A    between atoms: N_2  and  N_15
    2  A    between atoms: N_2  and  C_25
    3  A    between atoms: C_7  and  C_25
    4  A    between atoms: C_13  and  C_14
    5  A    between atoms: C_13  and  C_27
    6  A    between atoms: N_15  and  C_19
    7  A    between atoms: C_22  and  C_28
                            x       y       z     vdW  Elec       q    Type
                         _______ _______ _______ _____ _____    ______ ____

>  <TORSDO>
F 7

$$$$
=
 OpenBabel11042412003D

 28 31  0  0  1  0  0  0  0  0999 V2000
  188.8860  177.6770  143.1770 C   0  0  0  0  0  0  0  0  0  0  0  0
  190.9030  178.4260  142.1910 O   0  0  0  0  0  1  0  0  0  0  0  0
  189.5780  178.0110  142.0770 C   0  0  0  0  0  0  0  0  0  0  0  0
  191.2700  176.4180  147.0740 C   0  0  0  0  0  2  0  0  0  0  0  0
  191.6330  176.9400  145.6810 C   0  0  0  0  0  2  0  0  0  0  0  0
  189.5700  177.7110  144.5170 C   0  0  0  0  0  3  0  0  0  0  0  0
  189.1770  177.8700  147.0190 C   0  0  0  0  0  2  0  0  0  0  0  0
  190.5970  176.5860  144.6230 C   0  0  0  0  0  2  0  0  0  0  0  0
  188.5400  177.6930  145.6470 C   0  0  0  0  0  2  0  0  0  0  0  0
  189.7960  176.5530  147.4650 C   0  0  0  0  0  2  0  0  0  0  0  0
  188.7630  176.5760  140.1930 C   0  0  0  0  0  2  0  0  0  0  0  0
  189.6640  177.7700  138.2570 N   0  0  0  0  0  2  0  0  0  0  0  0
  191.2070  176.8080  139.7760 C   0  0  0  0  0  2  0  0  0  0  0  0
  191.6360  176.8110  138.5190 C   0  0  0  0  0  0  0  0  0  0  0  0
  189.8700  177.4440  139.6490 C   0  0  2  0  0  0  0  0  0  0  0  0
  190.6960  177.3980  137.6180 N   0  0  0  0  0  0  0  0  0  0  0  0
  188.9370  178.0030  140.7140 C   0  0  2  0  0  3  0  0  0  0  0  0
  192.9700  176.2980  138.0920 C   0  0  0  0  0  2  0  0  0  0  0  0
  192.1810  174.1120  137.1790 C   0  0  0  0  0  1  0  0  0  0  0  0
  192.8460  175.4350  136.8460 C   0  0  0  0  0  2  0  0  0  0  0  0
  187.5070  177.2970  143.0680 N   0  0  0  0  0  2  0  0  0  0  0  0
  186.5030  178.2150  142.7310 N   0  0  0  0  0  2  0  0  0  0  0  0
  183.2920  179.0350  145.2980 N   0  0  0  0  0  0  0  0  0  0  0  0
  185.6030  178.5060  145.0030 C   0  0  0  0  0  3  0  0  0  0  0  0
  183.0900  179.0260  143.9530 C   0  0  0  0  0  3  0  0  0  0  0  0
  184.1510  178.7550  143.0870 C   0  0  0  0  0  3  0  0  0  0  0  0
  184.5160  178.7820  145.8360 C   0  0  0  0  0  3  0  0  0  0  0  0
  185.4180  178.4920  143.6160 C   0  0  0  0  0  0  0  0  0  0  0  0
  1  6  1  0  0  0  0
  3  2  1  0  0  0  0
  3  1  2  0  0  0  0
  4 10  1  0  0  0  0
  5  4  1  0  0  0  0
  6  8  1  0  0  0  0
  6  9  1  0  0  0  0
  7 10  1  0  0  0  0
  8  5  1  0  0  0  0
  9  7  1  0  0  0  0
 11 17  1  0  0  0  0
 12 15  1  0  0  0  0
 14 13  1  0  0  0  0
 15 13  1  1  0  0  0
 15 11  1  0  0  0  0
 15 17  1  0  0  0  0
 16 12  1  0  0  0  0
 16 14  2  0  0  0  0
 17  3  1  1  0  0  0
 18 14  1  0  0  0  0
 20 19  1  0  0  0  0
 20 18  1  0  0  0  0
 21  1  1  0  0  0  0
 22 21  1  0  0  0  0
 22 28  1  0  0  0  0
 23 27  1  0  0  0  0
 24 27  2  0  0  0  0
 25 23  2  0  0  0  0
 26 28  2  0  0  0  0
 26 25  1  0  0  0  0
 28 24  1  0  0  0  0
M  END
>  <MODEL>
9

>  <REMARK>
 VINA RESULT:      -7.0      2.312      8.895
  Name = 
  7 active torsions:
  status: ('A' for Active; 'I' for Inactive)
    1  A    between atoms: N_2  and  N_15
    2  A    between atoms: N_2  and  C_25
    3  A    between atoms: C_7  and  C_25
    4  A    between atoms: C_13  and  C_14
    5  A    between atoms: C_13  and  C_27
    6  A    between atoms: N_15  and  C_19
    7  A    between atoms: C_22  and  C_28
                            x       y       z     vdW  Elec       q    Type
                         _______ _______ _______ _____ _____    ______ ____

>  <TORSDO>
F 7

$$$$
