=
 OpenBabel11032421043D

 59 62  0  0  1  0  0  0  0  0999 V2000
  189.2020  178.1530  140.2210 C   0  0  0  0  0  2  0  0  0  0  0  0
  190.0570  177.0060  142.2830 C   0  0  0  0  0  3  0  0  0  0  0  0
  187.6820  177.5310  142.2070 C   0  0  0  0  0  2  0  0  0  0  0  0
  188.9420  177.2420  142.9790 C   0  0  0  0  0  0  0  0  0  0  0  0
  190.0120  176.9730  140.7820 C   0  0  2  0  0  3  0  0  0  0  0  0
  187.9700  178.5260  141.0700 C   0  0  2  0  0  3  0  0  0  0  0  0
  188.9350  177.3000  144.4680 C   0  0  0  0  0  0  0  0  0  0  0  0
  191.3990  176.6720  144.6890 C   0  0  0  0  0  1  0  0  0  0  0  0
  187.7190  177.6020  145.0980 C   0  0  0  0  0  3  0  0  0  0  0  0
  191.0940  176.9330  147.4800 O   0  0  0  0  0  1  0  0  0  0  0  0
  190.0800  177.0670  145.2770 C   0  0  0  0  0  0  0  0  0  0  0  0
  189.9770  177.1590  146.6780 C   0  0  0  0  0  0  0  0  0  0  0  0
  188.6630  177.5590  148.6640 O   0  0  0  0  0  1  0  0  0  0  0  0
  188.7520  177.4720  147.2790 C   0  0  0  0  0  0  0  0  0  0  0  0
  187.6170  177.6900  146.4920 C   0  0  0  0  0  0  0  0  0  0  0  0
  185.6560  179.1690  146.8150 C   0  0  0  0  0  1  0  0  0  0  0  0
  186.4000  177.9920  147.1130 O   0  0  0  0  0  0  0  0  0  0  0  0
  186.8500  178.6550  140.2470 O   0  0  0  0  0  0  0  0  0  0  0  0
  185.7790  178.8700  141.1240 C   0  0  0  0  0  2  0  0  0  0  0  0
  184.4860  179.0350  140.3430 C   0  0  0  0  0  2  0  0  0  0  0  0
  183.3470  178.8130  141.2200 N   0  0  0  0  0  2  0  0  0  0  0  0
  182.3090  178.1930  140.4140 C   0  0  0  0  0  2  0  0  0  0  0  0
  181.2400  179.1970  140.1060 C   0  0  0  0  0  0  0  0  0  0  0  0
  180.6590  179.7600  141.0200 O   0  0  0  0  0  0  0  0  0  0  0  0
  180.8640  179.5200  138.6920 C   0  0  1  0  0  3  0  0  0  0  0  0
  180.7530  180.9610  138.4980 N   0  0  0  0  0  2  0  0  0  0  0  0
  179.8070  181.5490  137.6020 C   0  0  0  0  0  0  0  0  0  0  0  0
  178.9870  180.8330  136.9700 O   0  0  0  0  0  0  0  0  0  0  0  0
  179.7660  183.0310  137.4420 C   0  0  0  0  0  2  0  0  0  0  0  0
  181.3210  184.9660  137.1870 C   0  0  0  0  0  1  0  0  0  0  0  0
  180.8440  183.4920  135.2610 C   0  0  0  0  0  1  0  0  0  0  0  0
  181.0310  183.5360  136.7630 C   0  0  0  0  0  3  0  0  0  0  0  0
  181.8710  178.9490  137.7380 C   0  0  0  0  0  3  0  0  0  0  0  0
  181.6410  177.8500  137.0020 C   0  0  0  0  0  3  0  0  0  0  0  0
  180.3620  177.0700  137.0700 C   0  0  1  0  0  3  0  0  0  0  0  0
  180.0730  176.4540  135.7350 C   0  0  0  0  0  2  0  0  0  0  0  0
  180.0250  175.0230  135.9740 N   0  0  0  0  0  2  0  0  0  0  0  0
  179.8790  174.8610  137.3640 N   0  0  0  0  0  2  0  0  0  0  0  0
  180.5100  175.9550  137.9840 N   0  0  0  0  0  2  0  0  0  0  0  0
  191.3080  176.9930  140.2640 O   0  0  0  0  0  0  0  0  0  0  0  0
  191.2190  176.3000  139.0540 C   0  0  0  0  0  2  0  0  0  0  0  0
  193.5000  176.9630  139.0470 O   0  0  0  0  0  1  0  0  0  0  0  0
  192.4520  176.5820  138.2050 C   0  0  1  0  0  3  0  0  0  0  0  0
  192.8580  175.3480  137.3920 C   0  0  1  0  0  3  0  0  0  0  0  0
  192.0830  175.2720  136.2300 O   0  0  0  0  0  1  0  0  0  0  0  0
  194.3410  175.3940  137.0010 C   0  0  2  0  0  3  0  0  0  0  0  0
  194.9430  174.9780  134.7080 O   0  0  0  0  0  1  0  0  0  0  0  0
  194.5250  175.9700  135.5980 C   0  0  0  0  0  2  0  0  0  0  0  0
  194.9240  174.1210  137.0630 O   0  0  0  0  0  0  0  0  0  0  0  0
  196.1240  174.3010  137.7630 C   0  0  2  0  0  3  0  0  0  0  0  0
  198.6410  174.2740  136.1160 O   0  0  0  0  0  1  0  0  0  0  0  0
  198.2250  171.9740  135.6460 C   0  0  0  0  0  2  0  0  0  0  0  0
  197.2100  170.7300  137.2240 C   0  0  0  0  0  2  0  0  0  0  0  0
  197.0530  173.1970  137.4680 N   0  0  0  0  0  0  0  0  0  0  0  0
  196.3420  171.9260  137.6520 C   0  0  0  0  0  2  0  0  0  0  0  0
  198.4710  171.1420  136.7520 O   0  0  0  0  0  0  0  0  0  0  0  0
  197.6350  173.3090  136.1140 C   0  0  1  0  0  3  0  0  0  0  0  0
  195.8310  174.4900  139.2540 C   0  0  0  0  0  2  0  0  0  0  0  0
  196.9260  175.0700  139.8960 O   0  0  0  0  0  1  0  0  0  0  0  0
  1  5  1  0  0  0  0
  1  6  1  0  0  0  0
  2  4  2  0  0  0  0
  3  4  1  0  0  0  0
  4  7  1  0  0  0  0
  5 40  1  6  0  0  0
  5  2  1  0  0  0  0
  6 18  1  6  0  0  0
  6  3  1  0  0  0  0
  7  9  2  0  0  0  0
  7 11  1  0  0  0  0
  8 11  1  0  0  0  0
  9 15  1  0  0  0  0
 11 12  2  0  0  0  0
 12 14  1  0  0  0  0
 12 10  1  0  0  0  0
 14 13  1  0  0  0  0
 15 17  1  0  0  0  0
 15 14  2  0  0  0  0
 16 17  1  0  0  0  0
 18 19  1  0  0  0  0
 20 19  1  0  0  0  0
 20 21  1  0  0  0  0
 22 21  1  0  0  0  0
 23 22  1  0  0  0  0
 23 24  2  0  0  0  0
 25 33  1  6  0  0  0
 25 23  1  0  0  0  0
 26 25  1  0  0  0  0
 27 26  1  0  0  0  0
 28 27  2  0  0  0  0
 29 27  1  0  0  0  0
 31 32  1  0  0  0  0
 32 30  1  0  0  0  0
 32 29  1  0  0  0  0
 34 33  2  0  0  0  0
 35 34  1  6  0  0  0
 35 39  1  0  0  0  0
 36 37  1  0  0  0  0
 36 35  1  0  0  0  0
 37 38  1  0  0  0  0
 38 39  1  0  0  0  0
 41 40  1  0  0  0  0
 43 42  1  1  0  0  0
 43 41  1  0  0  0  0
 44 45  1  6  0  0  0
 44 43  1  0  0  0  0
 46 48  1  6  0  0  0
 46 49  1  0  0  0  0
 46 44  1  0  0  0  0
 47 48  1  0  0  0  0
 49 50  1  0  0  0  0
 50 58  1  1  0  0  0
 52 57  1  0  0  0  0
 52 56  1  0  0  0  0
 53 55  1  0  0  0  0
 54 55  1  0  0  0  0
 54 50  1  0  0  0  0
 56 53  1  0  0  0  0
 57 51  1  1  0  0  0
 57 54  1  0  0  0  0
 58 59  1  0  0  0  0
M  END
>  <MODEL>
1

>  <REMARK>
 VINA RESULT:      -7.3      0.000      0.000
  Name = 
  24 active torsions:
  status: ('A' for Active; 'I' for Inactive)
    1  A    between atoms: C_3  and  C_17
    2  A    between atoms: C_6  and  N_24
    3  A    between atoms: C_6  and  C_48
    4  A    between atoms: C_7  and  C_56
    5  A    between atoms: N_10  and  C_43
    6  A    between atoms: C_12  and  C_16
    7  A    between atoms: C_13  and  C_32
    8  A    between atoms: C_14  and  N_24
    9  A    between atoms: C_14  and  C_55
   10  A    between atoms: O_15  and  C_48
   11  A    between atoms: O_15  and  C_52
   12  A    between atoms: C_16  and  O_29
   13  A    between atoms: C_16  and  N_34
   14  A    between atoms: C_21  and  C_33
   15  A    between atoms: C_21  and  C_46
   16  A    between atoms: O_23  and  C_31
   17  A    between atoms: O_23  and  C_40
   18  A    between atoms: O_29  and  C_33
   19  A    between atoms: C_31  and  C_46
   20  A    between atoms: C_32  and  C_58
   21  A    between atoms: C_33  and  C_35
   22  A    between atoms: C_38  and  C_43
   23  A    between atoms: C_43  and  C_55
   24  A    between atoms: C_45  and  O_49
                            x       y       z     vdW  Elec       q    Type
                         _______ _______ _______ _____ _____    ______ ____

>  <TORSDO>
F 24

$$$$
=
 OpenBabel11032421043D

 59 62  0  0  1  0  0  0  0  0999 V2000
  189.6350  177.8490  139.8040 C   0  0  0  0  0  2  0  0  0  0  0  0
  190.3210  176.6650  141.9070 C   0  0  0  0  0  3  0  0  0  0  0  0
  188.0390  177.5030  141.7960 C   0  0  0  0  0  2  0  0  0  0  0  0
  189.2460  177.0720  142.5870 C   0  0  0  0  0  0  0  0  0  0  0  0
  190.2770  176.5900  140.4080 C   0  0  2  0  0  3  0  0  0  0  0  0
  188.4620  178.4120  140.6320 C   0  0  2  0  0  3  0  0  0  0  0  0
  189.2420  177.1780  144.0730 C   0  0  0  0  0  0  0  0  0  0  0  0
  191.7530  176.7730  144.2950 C   0  0  0  0  0  1  0  0  0  0  0  0
  188.0080  177.3940  144.7030 C   0  0  0  0  0  3  0  0  0  0  0  0
  191.4410  177.0990  147.0780 O   0  0  0  0  0  1  0  0  0  0  0  0
  190.4070  177.0720  144.8800 C   0  0  0  0  0  0  0  0  0  0  0  0
  190.3040  177.2010  146.2780 C   0  0  0  0  0  0  0  0  0  0  0  0
  188.9720  177.5520  148.2600 O   0  0  0  0  0  1  0  0  0  0  0  0
  189.0600  177.4270  146.8790 C   0  0  0  0  0  0  0  0  0  0  0  0
  187.9060  177.5190  146.0950 C   0  0  0  0  0  0  0  0  0  0  0  0
  185.8860  178.9000  146.4810 C   0  0  0  0  0  1  0  0  0  0  0  0
  186.6710  177.7360  146.7160 O   0  0  0  0  0  0  0  0  0  0  0  0
  187.3720  178.6640  139.7970 O   0  0  0  0  0  0  0  0  0  0  0  0
  187.6900  178.0340  138.5870 C   0  0  0  0  0  2  0  0  0  0  0  0
  186.4230  177.5790  137.8820 C   0  0  0  0  0  2  0  0  0  0  0  0
  185.4680  178.6750  137.8270 N   0  0  0  0  0  2  0  0  0  0  0  0
  184.1640  178.1120  138.1360 C   0  0  0  0  0  2  0  0  0  0  0  0
  183.2730  179.1760  138.6990 C   0  0  0  0  0  0  0  0  0  0  0  0
  183.7510  180.0580  139.3960 O   0  0  0  0  0  0  0  0  0  0  0  0
  181.7990  179.1780  138.4300 C   0  0  1  0  0  3  0  0  0  0  0  0
  181.2660  177.8210  138.4380 N   0  0  0  0  0  2  0  0  0  0  0  0
  180.0880  177.4490  137.7170 C   0  0  0  0  0  0  0  0  0  0  0  0
  179.4820  178.2860  136.9980 O   0  0  0  0  0  0  0  0  0  0  0  0
  179.5920  176.0450  137.7890 C   0  0  0  0  0  2  0  0  0  0  0  0
  179.6930  173.9240  139.1000 C   0  0  0  0  0  1  0  0  0  0  0  0
  179.0160  176.0330  140.1970 C   0  0  0  0  0  1  0  0  0  0  0  0
  179.9160  175.4260  139.1410 C   0  0  0  0  0  3  0  0  0  0  0  0
  181.0810  180.0170  139.4460 C   0  0  0  0  0  3  0  0  0  0  0  0
  180.6820  181.2750  139.2040 C   0  0  0  0  0  3  0  0  0  0  0  0
  180.9250  181.9780  137.9030 C   0  0  1  0  0  3  0  0  0  0  0  0
  179.7200  182.7850  137.5280 C   0  0  0  0  0  2  0  0  0  0  0  0
  180.1860  184.1570  137.4390 N   0  0  0  0  0  2  0  0  0  0  0  0
  181.5900  184.0900  137.3530 N   0  0  0  0  0  2  0  0  0  0  0  0
  182.0000  182.9390  138.0520 N   0  0  0  0  0  2  0  0  0  0  0  0
  191.5650  176.4190  139.8990 O   0  0  0  0  0  0  0  0  0  0  0  0
  191.4110  176.4730  138.5110 C   0  0  0  0  0  2  0  0  0  0  0  0
  193.7630  176.5770  138.8250 O   0  0  0  0  0  1  0  0  0  0  0  0
  192.7690  176.6660  137.8480 C   0  0  1  0  0  3  0  0  0  0  0  0
  193.0080  175.6130  136.7610 C   0  0  1  0  0  3  0  0  0  0  0  0
  192.0500  175.7490  135.7510 O   0  0  0  0  0  1  0  0  0  0  0  0
  194.4060  175.7480  136.1430 C   0  0  2  0  0  3  0  0  0  0  0  0
  195.4520  177.8420  135.5850 O   0  0  0  0  0  1  0  0  0  0  0  0
  194.4730  176.9310  135.1800 C   0  0  0  0  0  2  0  0  0  0  0  0
  194.7820  174.5770  135.4720 O   0  0  0  0  0  0  0  0  0  0  0  0
  194.8730  173.5960  136.4680 C   0  0  2  0  0  3  0  0  0  0  0  0
  195.9060  173.6390  139.2930 O   0  0  0  0  0  1  0  0  0  0  0  0
  197.9270  174.5950  138.4640 C   0  0  0  0  0  2  0  0  0  0  0  0
  198.6210  174.0030  136.4070 C   0  0  0  0  0  2  0  0  0  0  0  0
  196.2540  173.5140  136.9750 N   0  0  0  0  0  0  0  0  0  0  0  0
  197.1690  173.9280  135.9040 C   0  0  0  0  0  2  0  0  0  0  0  0
  198.7210  173.6660  137.7700 O   0  0  0  0  0  0  0  0  0  0  0  0
  196.4420  174.3180  138.2000 C   0  0  1  0  0  3  0  0  0  0  0  0
  194.3210  172.2690  135.9400 C   0  0  0  0  0  2  0  0  0  0  0  0
  194.3590  171.2930  136.9380 O   0  0  0  0  0  1  0  0  0  0  0  0
  1  5  1  0  0  0  0
  1  6  1  0  0  0  0
  2  4  2  0  0  0  0
  3  4  1  0  0  0  0
  4  7  1  0  0  0  0
  5 40  1  6  0  0  0
  5  2  1  0  0  0  0
  6 18  1  6  0  0  0
  6  3  1  0  0  0  0
  7  9  2  0  0  0  0
  7 11  1  0  0  0  0
  8 11  1  0  0  0  0
  9 15  1  0  0  0  0
 11 12  2  0  0  0  0
 12 14  1  0  0  0  0
 12 10  1  0  0  0  0
 14 13  1  0  0  0  0
 15 17  1  0  0  0  0
 15 14  2  0  0  0  0
 16 17  1  0  0  0  0
 19 18  1  0  0  0  0
 20 19  1  0  0  0  0
 21 20  1  0  0  0  0
 21 22  1  0  0  0  0
 22 23  1  0  0  0  0
 23 24  2  0  0  0  0
 25 26  1  0  0  0  0
 25 23  1  0  0  0  0
 25 33  1  1  0  0  0
 27 29  1  0  0  0  0
 27 26  1  0  0  0  0
 28 27  2  0  0  0  0
 29 32  1  0  0  0  0
 30 32  1  0  0  0  0
 32 31  1  0  0  0  0
 34 33  2  0  0  0  0
 35 39  1  0  0  0  0
 35 34  1  1  0  0  0
 36 35  1  0  0  0  0
 37 36  1  0  0  0  0
 38 37  1  0  0  0  0
 38 39  1  0  0  0  0
 41 40  1  0  0  0  0
 43 41  1  0  0  0  0
 43 42  1  1  0  0  0
 44 45  1  6  0  0  0
 44 43  1  0  0  0  0
 46 48  1  6  0  0  0
 46 44  1  0  0  0  0
 48 47  1  0  0  0  0
 49 46  1  0  0  0  0
 49 50  1  0  0  0  0
 50 58  1  6  0  0  0
 50 54  1  0  0  0  0
 53 56  1  0  0  0  0
 54 57  1  0  0  0  0
 55 53  1  0  0  0  0
 55 54  1  0  0  0  0
 56 52  1  0  0  0  0
 57 52  1  0  0  0  0
 57 51  1  1  0  0  0
 58 59  1  0  0  0  0
M  END
>  <MODEL>
2

>  <REMARK>
 VINA RESULT:      -7.1      1.795      3.888
  Name = 
  24 active torsions:
  status: ('A' for Active; 'I' for Inactive)
    1  A    between atoms: C_3  and  C_17
    2  A    between atoms: C_6  and  N_24
    3  A    between atoms: C_6  and  C_48
    4  A    between atoms: C_7  and  C_56
    5  A    between atoms: N_10  and  C_43
    6  A    between atoms: C_12  and  C_16
    7  A    between atoms: C_13  and  C_32
    8  A    between atoms: C_14  and  N_24
    9  A    between atoms: C_14  and  C_55
   10  A    between atoms: O_15  and  C_48
   11  A    between atoms: O_15  and  C_52
   12  A    between atoms: C_16  and  O_29
   13  A    between atoms: C_16  and  N_34
   14  A    between atoms: C_21  and  C_33
   15  A    between atoms: C_21  and  C_46
   16  A    between atoms: O_23  and  C_31
   17  A    between atoms: O_23  and  C_40
   18  A    between atoms: O_29  and  C_33
   19  A    between atoms: C_31  and  C_46
   20  A    between atoms: C_32  and  C_58
   21  A    between atoms: C_33  and  C_35
   22  A    between atoms: C_38  and  C_43
   23  A    between atoms: C_43  and  C_55
   24  A    between atoms: C_45  and  O_49
                            x       y       z     vdW  Elec       q    Type
                         _______ _______ _______ _____ _____    ______ ____

>  <TORSDO>
F 24

$$$$
=
 OpenBabel11032421043D

 59 62  0  0  1  0  0  0  0  0999 V2000
  188.8620  177.9950  140.3050 C   0  0  0  0  0  2  0  0  0  0  0  0
  189.7670  176.9490  142.3980 C   0  0  0  0  0  3  0  0  0  0  0  0
  187.4030  177.5290  142.3770 C   0  0  0  0  0  2  0  0  0  0  0  0
  188.6840  177.2530  143.1190 C   0  0  0  0  0  0  0  0  0  0  0  0
  189.6650  176.8300  140.9040 C   0  0  2  0  0  3  0  0  0  0  0  0
  187.6710  178.4480  141.1750 C   0  0  2  0  0  3  0  0  0  0  0  0
  188.7350  177.3970  144.6010 C   0  0  0  0  0  0  0  0  0  0  0  0
  191.1480  176.5830  144.7850 C   0  0  0  0  0  1  0  0  0  0  0  0
  187.5700  177.8330  145.2490 C   0  0  0  0  0  3  0  0  0  0  0  0
  190.9630  177.0290  147.5630 O   0  0  0  0  0  1  0  0  0  0  0  0
  189.8850  177.1190  145.3880 C   0  0  0  0  0  0  0  0  0  0  0  0
  189.8400  177.2990  146.7830 C   0  0  0  0  0  0  0  0  0  0  0  0
  188.6340  177.9200  148.7800 O   0  0  0  0  0  1  0  0  0  0  0  0
  188.6660  177.7460  147.4010 C   0  0  0  0  0  0  0  0  0  0  0  0
  187.5250  178.0100  146.6380 C   0  0  0  0  0  0  0  0  0  0  0  0
  185.0620  178.2600  146.7200 C   0  0  0  0  0  1  0  0  0  0  0  0
  186.3590  178.4470  147.2770 O   0  0  0  0  0  0  0  0  0  0  0  0
  186.5250  178.5580  140.3870 O   0  0  0  0  0  0  0  0  0  0  0  0
  185.5830  179.1970  141.2040 C   0  0  0  0  0  2  0  0  0  0  0  0
  184.3190  178.3600  141.3020 C   0  0  0  0  0  2  0  0  0  0  0  0
  183.1550  179.1900  141.0330 N   0  0  0  0  0  2  0  0  0  0  0  0
  182.3990  178.5280  139.9830 C   0  0  0  0  0  2  0  0  0  0  0  0
  181.1830  179.3360  139.6490 C   0  0  0  0  0  0  0  0  0  0  0  0
  180.5370  179.8550  140.5450 O   0  0  0  0  0  0  0  0  0  0  0  0
  180.7370  179.5150  138.2290 C   0  0  1  0  0  3  0  0  0  0  0  0
  180.4090  178.2320  137.6200 N   0  0  0  0  0  2  0  0  0  0  0  0
  181.2770  177.5730  136.6930 C   0  0  0  0  0  0  0  0  0  0  0  0
  182.3990  178.0630  136.4010 O   0  0  0  0  0  0  0  0  0  0  0  0
  180.8650  176.2700  136.0960 C   0  0  0  0  0  2  0  0  0  0  0  0
  182.7100  174.6870  135.5330 C   0  0  0  0  0  1  0  0  0  0  0  0
  180.8650  173.9700  137.0140 C   0  0  0  0  0  1  0  0  0  0  0  0
  181.7420  175.1380  136.6130 C   0  0  0  0  0  3  0  0  0  0  0  0
  179.5500  180.4320  138.1650 C   0  0  0  0  0  3  0  0  0  0  0  0
  179.5900  181.6400  137.5820 C   0  0  0  0  0  3  0  0  0  0  0  0
  180.8270  182.2060  136.9500 C   0  0  1  0  0  3  0  0  0  0  0  0
  180.5270  182.6390  135.5470 C   0  0  0  0  0  2  0  0  0  0  0  0
  180.8240  184.0590  135.5100 N   0  0  0  0  0  2  0  0  0  0  0  0
  181.6110  184.3260  136.6460 N   0  0  0  0  0  2  0  0  0  0  0  0
  181.2320  183.4110  137.6460 N   0  0  0  0  0  2  0  0  0  0  0  0
  190.9400  176.7870  140.3400 O   0  0  0  0  0  0  0  0  0  0  0  0
  190.7610  177.2100  139.0190 C   0  0  0  0  0  2  0  0  0  0  0  0
  193.0980  176.8000  138.9160 O   0  0  0  0  0  1  0  0  0  0  0  0
  191.9240  176.7320  138.1610 C   0  0  1  0  0  3  0  0  0  0  0  0
  191.7000  175.2950  137.6750 C   0  0  1  0  0  3  0  0  0  0  0  0
  190.4000  174.8870  137.9920 O   0  0  0  0  0  1  0  0  0  0  0  0
  191.9050  175.1740  136.1600 C   0  0  2  0  0  3  0  0  0  0  0  0
  190.6210  173.6880  134.7710 O   0  0  0  0  0  1  0  0  0  0  0  0
  191.6770  173.7410  135.6840 C   0  0  0  0  0  2  0  0  0  0  0  0
  193.1890  175.5920  135.7850 O   0  0  0  0  0  0  0  0  0  0  0  0
  194.0100  174.4730  135.9760 C   0  0  2  0  0  3  0  0  0  0  0  0
  196.5390  176.0980  135.8290 O   0  0  0  0  0  1  0  0  0  0  0  0
  197.4510  174.7000  137.5320 C   0  0  0  0  0  2  0  0  0  0  0  0
  196.0550  173.8610  139.0850 C   0  0  0  0  0  2  0  0  0  0  0  0
  195.0190  174.7550  137.0120 N   0  0  0  0  0  0  0  0  0  0  0  0
  194.9340  173.7120  138.0420 C   0  0  0  0  0  2  0  0  0  0  0  0
  196.8940  174.9530  138.7970 O   0  0  0  0  0  0  0  0  0  0  0  0
  196.3800  174.8580  136.4460 C   0  0  1  0  0  3  0  0  0  0  0  0
  194.6000  174.0280  134.6350 C   0  0  0  0  0  2  0  0  0  0  0  0
  194.7260  172.6390  134.5940 O   0  0  0  0  0  1  0  0  0  0  0  0
  1  5  1  0  0  0  0
  1  6  1  0  0  0  0
  2  4  2  0  0  0  0
  3  4  1  0  0  0  0
  4  7  1  0  0  0  0
  5 40  1  6  0  0  0
  5  2  1  0  0  0  0
  6 18  1  6  0  0  0
  6  3  1  0  0  0  0
  7  9  2  0  0  0  0
  7 11  1  0  0  0  0
  8 11  1  0  0  0  0
  9 15  1  0  0  0  0
 11 12  2  0  0  0  0
 12 14  1  0  0  0  0
 12 10  1  0  0  0  0
 14 13  1  0  0  0  0
 15 17  1  0  0  0  0
 15 14  2  0  0  0  0
 16 17  1  0  0  0  0
 18 19  1  0  0  0  0
 19 20  1  0  0  0  0
 21 20  1  0  0  0  0
 22 21  1  0  0  0  0
 23 22  1  0  0  0  0
 23 24  2  0  0  0  0
 25 33  1  1  0  0  0
 25 23  1  0  0  0  0
 26 25  1  0  0  0  0
 27 26  1  0  0  0  0
 28 27  2  0  0  0  0
 29 32  1  0  0  0  0
 29 27  1  0  0  0  0
 30 32  1  0  0  0  0
 32 31  1  0  0  0  0
 34 33  2  0  0  0  0
 35 34  1  1  0  0  0
 35 39  1  0  0  0  0
 36 35  1  0  0  0  0
 37 36  1  0  0  0  0
 37 38  1  0  0  0  0
 38 39  1  0  0  0  0
 41 40  1  0  0  0  0
 43 42  1  1  0  0  0
 43 41  1  0  0  0  0
 44 45  1  6  0  0  0
 44 43  1  0  0  0  0
 46 48  1  1  0  0  0
 46 44  1  0  0  0  0
 47 48  1  0  0  0  0
 49 50  1  0  0  0  0
 49 46  1  0  0  0  0
 50 58  1  6  0  0  0
 50 54  1  0  0  0  0
 52 56  1  0  0  0  0
 54 55  1  0  0  0  0
 55 53  1  0  0  0  0
 56 53  1  0  0  0  0
 57 51  1  1  0  0  0
 57 54  1  0  0  0  0
 57 52  1  0  0  0  0
 59 58  1  0  0  0  0
M  END
>  <MODEL>
3

>  <REMARK>
 VINA RESULT:      -6.9      1.704      3.900
  Name = 
  24 active torsions:
  status: ('A' for Active; 'I' for Inactive)
    1  A    between atoms: C_3  and  C_17
    2  A    between atoms: C_6  and  N_24
    3  A    between atoms: C_6  and  C_48
    4  A    between atoms: C_7  and  C_56
    5  A    between atoms: N_10  and  C_43
    6  A    between atoms: C_12  and  C_16
    7  A    between atoms: C_13  and  C_32
    8  A    between atoms: C_14  and  N_24
    9  A    between atoms: C_14  and  C_55
   10  A    between atoms: O_15  and  C_48
   11  A    between atoms: O_15  and  C_52
   12  A    between atoms: C_16  and  O_29
   13  A    between atoms: C_16  and  N_34
   14  A    between atoms: C_21  and  C_33
   15  A    between atoms: C_21  and  C_46
   16  A    between atoms: O_23  and  C_31
   17  A    between atoms: O_23  and  C_40
   18  A    between atoms: O_29  and  C_33
   19  A    between atoms: C_31  and  C_46
   20  A    between atoms: C_32  and  C_58
   21  A    between atoms: C_33  and  C_35
   22  A    between atoms: C_38  and  C_43
   23  A    between atoms: C_43  and  C_55
   24  A    between atoms: C_45  and  O_49
                            x       y       z     vdW  Elec       q    Type
                         _______ _______ _______ _____ _____    ______ ____

>  <TORSDO>
F 24

$$$$
=
 OpenBabel11032421043D

 59 62  0  0  1  0  0  0  0  0999 V2000
  189.5190  177.7690  139.8830 C   0  0  0  0  0  2  0  0  0  0  0  0
  190.2560  176.6100  141.9820 C   0  0  0  0  0  3  0  0  0  0  0  0
  188.0030  177.5310  141.9530 C   0  0  0  0  0  2  0  0  0  0  0  0
  189.2280  177.0730  142.7000 C   0  0  0  0  0  0  0  0  0  0  0  0
  190.1400  176.5010  140.4890 C   0  0  2  0  0  3  0  0  0  0  0  0
  188.4060  178.3960  140.7480 C   0  0  2  0  0  3  0  0  0  0  0  0
  189.2970  177.2130  144.1810 C   0  0  0  0  0  0  0  0  0  0  0  0
  191.7240  176.4350  144.3300 C   0  0  0  0  0  1  0  0  0  0  0  0
  188.1340  177.6310  144.8460 C   0  0  0  0  0  3  0  0  0  0  0  0
  191.5700  176.8700  147.1110 O   0  0  0  0  0  1  0  0  0  0  0  0
  190.4620  176.9500  144.9510 C   0  0  0  0  0  0  0  0  0  0  0  0
  190.4330  177.1260  146.3470 C   0  0  0  0  0  0  0  0  0  0  0  0
  189.2450  177.7240  148.3620 O   0  0  0  0  0  1  0  0  0  0  0  0
  189.2610  177.5540  146.9830 C   0  0  0  0  0  0  0  0  0  0  0  0
  188.1050  177.8030  146.2360 C   0  0  0  0  0  0  0  0  0  0  0  0
  185.6880  178.3430  146.2280 C   0  0  0  0  0  1  0  0  0  0  0  0
  186.9420  178.2210  146.8910 O   0  0  0  0  0  0  0  0  0  0  0  0
  187.2890  178.6700  139.9570 O   0  0  0  0  0  0  0  0  0  0  0  0
  187.5830  178.1060  138.7090 C   0  0  0  0  0  2  0  0  0  0  0  0
  186.3040  177.6620  138.0190 C   0  0  0  0  0  2  0  0  0  0  0  0
  185.3790  178.7800  137.9260 N   0  0  0  0  0  2  0  0  0  0  0  0
  184.0510  178.2510  138.1900 C   0  0  0  0  0  2  0  0  0  0  0  0
  183.1280  179.3680  138.5710 C   0  0  0  0  0  0  0  0  0  0  0  0
  183.5370  180.2760  139.2770 O   0  0  0  0  0  0  0  0  0  0  0  0
  181.7030  179.3890  138.1060 C   0  0  1  0  0  3  0  0  0  0  0  0
  181.1270  178.0500  138.1270 N   0  0  0  0  0  2  0  0  0  0  0  0
  180.7280  177.3620  136.9380 C   0  0  0  0  0  0  0  0  0  0  0  0
  180.9060  177.8790  135.8040 O   0  0  0  0  0  0  0  0  0  0  0  0
  180.1290  176.0000  137.0410 C   0  0  0  0  0  2  0  0  0  0  0  0
  181.9390  174.5830  136.0700 C   0  0  0  0  0  1  0  0  0  0  0  0
  180.5460  173.7240  137.9220 C   0  0  0  0  0  1  0  0  0  0  0  0
  181.2000  174.9610  137.3420 C   0  0  0  0  0  3  0  0  0  0  0  0
  180.8870  180.3130  138.9620 C   0  0  0  0  0  3  0  0  0  0  0  0
  180.3500  179.9400  140.1340 C   0  0  0  0  0  3  0  0  0  0  0  0
  180.4960  178.5600  140.7010 C   0  0  1  0  0  3  0  0  0  0  0  0
  180.8260  178.6430  142.1600 C   0  0  0  0  0  2  0  0  0  0  0  0
  179.7510  177.9450  142.8400 N   0  0  0  0  0  2  0  0  0  0  0  0
  179.0980  177.1770  141.8580 N   0  0  0  0  0  2  0  0  0  0  0  0
  179.2280  177.8600  140.6340 N   0  0  0  0  0  2  0  0  0  0  0  0
  191.3960  176.2690  139.9270 O   0  0  0  0  0  0  0  0  0  0  0  0
  191.2000  176.3940  138.5490 C   0  0  0  0  0  2  0  0  0  0  0  0
  193.5570  176.5260  138.8090 O   0  0  0  0  0  1  0  0  0  0  0  0
  192.5420  176.5640  137.8500 C   0  0  1  0  0  3  0  0  0  0  0  0
  192.7670  175.4620  136.8080 C   0  0  1  0  0  3  0  0  0  0  0  0
  191.8460  175.6030  135.7650 O   0  0  0  0  0  1  0  0  0  0  0  0
  194.1870  175.5130  136.2310 C   0  0  2  0  0  3  0  0  0  0  0  0
  195.3220  177.5420  135.6090 O   0  0  0  0  0  1  0  0  0  0  0  0
  194.3300  176.6420  135.2120 C   0  0  0  0  0  2  0  0  0  0  0  0
  194.5380  174.2960  135.6320 O   0  0  0  0  0  0  0  0  0  0  0  0
  194.6660  173.3890  136.6910 C   0  0  2  0  0  3  0  0  0  0  0  0
  195.9620  173.8520  139.3660 O   0  0  0  0  0  1  0  0  0  0  0  0
  197.9610  174.4550  138.2150 C   0  0  0  0  0  2  0  0  0  0  0  0
  198.4120  173.4390  136.2590 C   0  0  0  0  0  2  0  0  0  0  0  0
  196.0790  173.2760  137.0940 N   0  0  0  0  0  0  0  0  0  0  0  0
  196.9180  173.4040  135.8950 C   0  0  0  0  0  2  0  0  0  0  0  0
  198.6150  173.3480  137.6480 O   0  0  0  0  0  0  0  0  0  0  0  0
  196.4410  174.2690  138.1260 C   0  0  1  0  0  3  0  0  0  0  0  0
  194.0160  172.0550  136.3120 C   0  0  0  0  0  2  0  0  0  0  0  0
  194.5270  171.0230  137.1010 O   0  0  0  0  0  1  0  0  0  0  0  0
  1  5  1  0  0  0  0
  1  6  1  0  0  0  0
  2  4  2  0  0  0  0
  3  4  1  0  0  0  0
  4  7  1  0  0  0  0
  5 40  1  6  0  0  0
  5  2  1  0  0  0  0
  6 18  1  6  0  0  0
  6  3  1  0  0  0  0
  7  9  2  0  0  0  0
  7 11  1  0  0  0  0
  8 11  1  0  0  0  0
  9 15  1  0  0  0  0
 11 12  2  0  0  0  0
 12 14  1  0  0  0  0
 12 10  1  0  0  0  0
 14 13  1  0  0  0  0
 15 17  1  0  0  0  0
 15 14  2  0  0  0  0
 16 17  1  0  0  0  0
 19 18  1  0  0  0  0
 20 19  1  0  0  0  0
 21 20  1  0  0  0  0
 21 22  1  0  0  0  0
 22 23  1  0  0  0  0
 23 24  2  0  0  0  0
 25 26  1  0  0  0  0
 25 23  1  0  0  0  0
 25 33  1  1  0  0  0
 27 29  1  0  0  0  0
 27 26  1  0  0  0  0
 28 27  2  0  0  0  0
 29 32  1  0  0  0  0
 30 32  1  0  0  0  0
 32 31  1  0  0  0  0
 33 34  2  0  0  0  0
 35 34  1  1  0  0  0
 35 36  1  0  0  0  0
 36 37  1  0  0  0  0
 38 37  1  0  0  0  0
 39 35  1  0  0  0  0
 39 38  1  0  0  0  0
 41 40  1  0  0  0  0
 43 41  1  0  0  0  0
 43 42  1  1  0  0  0
 44 45  1  6  0  0  0
 44 43  1  0  0  0  0
 46 48  1  6  0  0  0
 46 44  1  0  0  0  0
 48 47  1  0  0  0  0
 49 46  1  0  0  0  0
 49 50  1  0  0  0  0
 50 58  1  6  0  0  0
 50 54  1  0  0  0  0
 53 56  1  0  0  0  0
 54 57  1  0  0  0  0
 55 53  1  0  0  0  0
 55 54  1  0  0  0  0
 56 52  1  0  0  0  0
 57 52  1  0  0  0  0
 57 51  1  1  0  0  0
 58 59  1  0  0  0  0
M  END
>  <MODEL>
4

>  <REMARK>
 VINA RESULT:      -6.6      1.965      3.555
  Name = 
  24 active torsions:
  status: ('A' for Active; 'I' for Inactive)
    1  A    between atoms: C_3  and  C_17
    2  A    between atoms: C_6  and  N_24
    3  A    between atoms: C_6  and  C_48
    4  A    between atoms: C_7  and  C_56
    5  A    between atoms: N_10  and  C_43
    6  A    between atoms: C_12  and  C_16
    7  A    between atoms: C_13  and  C_32
    8  A    between atoms: C_14  and  N_24
    9  A    between atoms: C_14  and  C_55
   10  A    between atoms: O_15  and  C_48
   11  A    between atoms: O_15  and  C_52
   12  A    between atoms: C_16  and  O_29
   13  A    between atoms: C_16  and  N_34
   14  A    between atoms: C_21  and  C_33
   15  A    between atoms: C_21  and  C_46
   16  A    between atoms: O_23  and  C_31
   17  A    between atoms: O_23  and  C_40
   18  A    between atoms: O_29  and  C_33
   19  A    between atoms: C_31  and  C_46
   20  A    between atoms: C_32  and  C_58
   21  A    between atoms: C_33  and  C_35
   22  A    between atoms: C_38  and  C_43
   23  A    between atoms: C_43  and  C_55
   24  A    between atoms: C_45  and  O_49
                            x       y       z     vdW  Elec       q    Type
                         _______ _______ _______ _____ _____    ______ ____

>  <TORSDO>
F 24

$$$$
=
 OpenBabel11032421043D

 59 62  0  0  1  0  0  0  0  0999 V2000
  188.6020  177.2550  140.2600 C   0  0  0  0  0  2  0  0  0  0  0  0
  187.9020  178.4970  142.3250 C   0  0  0  0  0  3  0  0  0  0  0  0
  190.0140  177.2910  142.4150 C   0  0  0  0  0  2  0  0  0  0  0  0
  188.8180  177.9030  143.0950 C   0  0  0  0  0  0  0  0  0  0  0  0
  188.1160  178.5920  140.8420 C   0  0  2  0  0  3  0  0  0  0  0  0
  189.5730  176.4880  141.1810 C   0  0  2  0  0  3  0  0  0  0  0  0
  188.6470  177.7690  144.5690 C   0  0  0  0  0  0  0  0  0  0  0  0
  191.0460  176.9910  144.9650 C   0  0  0  0  0  1  0  0  0  0  0  0
  187.3810  178.0510  145.1020 C   0  0  0  0  0  3  0  0  0  0  0  0
  190.4410  176.9080  147.7170 O   0  0  0  0  0  1  0  0  0  0  0  0
  189.6850  177.3760  145.4570 C   0  0  0  0  0  0  0  0  0  0  0  0
  189.4300  177.2930  146.8380 C   0  0  0  0  0  0  0  0  0  0  0  0
  187.9200  177.5040  148.7100 O   0  0  0  0  0  1  0  0  0  0  0  0
  188.1580  177.5900  147.3430 C   0  0  0  0  0  0  0  0  0  0  0  0
  187.1270  177.9650  146.4770 C   0  0  0  0  0  0  0  0  0  0  0  0
  184.7170  178.4490  146.1780 C   0  0  0  0  0  1  0  0  0  0  0  0
  185.8610  178.2490  147.0000 O   0  0  0  0  0  0  0  0  0  0  0  0
  190.6880  176.0740  140.4520 O   0  0  0  0  0  0  0  0  0  0  0  0
  191.2660  177.2550  139.9700 C   0  0  0  0  0  2  0  0  0  0  0  0
  192.7270  177.3300  140.3780 C   0  0  0  0  0  2  0  0  0  0  0  0
  193.5730  177.3100  139.1950 N   0  0  0  0  0  2  0  0  0  0  0  0
  192.9510  176.4000  138.2480 C   0  0  0  0  0  2  0  0  0  0  0  0
  193.9250  175.3310  137.8580 C   0  0  0  0  0  0  0  0  0  0  0  0
  195.0100  175.2690  138.4160 O   0  0  0  0  0  0  0  0  0  0  0  0
  193.5980  174.3350  136.7870 C   0  0  1  0  0  3  0  0  0  0  0  0
  192.5870  174.8610  135.8770 N   0  0  0  0  0  2  0  0  0  0  0  0
  191.2500  174.3570  135.8330 C   0  0  0  0  0  0  0  0  0  0  0  0
  190.8750  173.4540  136.6270 O   0  0  0  0  0  0  0  0  0  0  0  0
  190.2760  174.9330  134.8620 C   0  0  0  0  0  2  0  0  0  0  0  0
  189.4140  176.1290  136.8760 C   0  0  0  0  0  1  0  0  0  0  0  0
  188.1270  174.2610  135.8940 C   0  0  0  0  0  1  0  0  0  0  0  0
  189.0310  175.4350  135.5800 C   0  0  0  0  0  3  0  0  0  0  0  0
  194.8340  173.9630  136.0220 C   0  0  0  0  0  3  0  0  0  0  0  0
  195.3560  172.7280  136.0330 C   0  0  0  0  0  3  0  0  0  0  0  0
  194.7710  171.5960  136.8230 C   0  0  1  0  0  3  0  0  0  0  0  0
  195.2370  170.2880  136.2590 C   0  0  0  0  0  2  0  0  0  0  0  0
  195.9390  169.6280  137.3440 N   0  0  0  0  0  2  0  0  0  0  0  0
  195.5540  170.2920  138.5240 N   0  0  0  0  0  2  0  0  0  0  0  0
  195.2740  171.6290  138.1830 N   0  0  0  0  0  2  0  0  0  0  0  0
  186.9350  178.9860  140.2120 O   0  0  0  0  0  0  0  0  0  0  0  0
  185.9260  178.7070  141.1390 C   0  0  0  0  0  2  0  0  0  0  0  0
  184.6340  178.2450  139.2000 O   0  0  0  0  0  1  0  0  0  0  0  0
  184.5630  178.8240  140.4700 C   0  0  1  0  0  3  0  0  0  0  0  0
  183.4780  178.1290  141.3000 C   0  0  1  0  0  3  0  0  0  0  0  0
  183.6490  178.4370  142.6530 O   0  0  0  0  0  1  0  0  0  0  0  0
  182.0720  178.5600  140.8640 C   0  0  2  0  0  3  0  0  0  0  0  0
  182.2060  176.3400  139.9430 O   0  0  0  0  0  1  0  0  0  0  0  0
  181.3910  177.4710  140.0370 C   0  0  0  0  0  2  0  0  0  0  0  0
  182.1100  179.7510  140.1270 O   0  0  0  0  0  0  0  0  0  0  0  0
  180.8210  179.8980  139.6000 C   0  0  2  0  0  3  0  0  0  0  0  0
  182.0540  182.2980  138.2690 O   0  0  0  0  0  1  0  0  0  0  0  0
  180.4490  182.0660  136.5220 C   0  0  0  0  0  2  0  0  0  0  0  0
  179.7470  179.9960  135.9860 C   0  0  0  0  0  2  0  0  0  0  0  0
  180.8930  180.2600  138.1740 N   0  0  0  0  0  0  0  0  0  0  0  0
  179.8220  179.5560  137.4580 C   0  0  0  0  0  2  0  0  0  0  0  0
  180.7150  180.9710  135.6820 O   0  0  0  0  0  0  0  0  0  0  0  0
  180.8210  181.7220  137.9690 C   0  0  1  0  0  3  0  0  0  0  0  0
  180.0210  180.8850  140.4550 C   0  0  0  0  0  2  0  0  0  0  0  0
  179.9470  180.4380  141.7750 O   0  0  0  0  0  1  0  0  0  0  0  0
  1  5  1  0  0  0  0
  1  6  1  0  0  0  0
  2  4  2  0  0  0  0
  3  4  1  0  0  0  0
  4  7  1  0  0  0  0
  5 40  1  6  0  0  0
  5  2  1  0  0  0  0
  6 18  1  6  0  0  0
  6  3  1  0  0  0  0
  7  9  2  0  0  0  0
  7 11  1  0  0  0  0
  8 11  1  0  0  0  0
  9 15  1  0  0  0  0
 11 12  2  0  0  0  0
 12 14  1  0  0  0  0
 12 10  1  0  0  0  0
 14 13  1  0  0  0  0
 15 17  1  0  0  0  0
 15 14  2  0  0  0  0
 16 17  1  0  0  0  0
 19 20  1  0  0  0  0
 19 18  1  0  0  0  0
 21 20  1  0  0  0  0
 22 21  1  0  0  0  0
 23 22  1  0  0  0  0
 23 24  2  0  0  0  0
 25 33  1  6  0  0  0
 25 23  1  0  0  0  0
 26 25  1  0  0  0  0
 27 26  1  0  0  0  0
 27 28  2  0  0  0  0
 29 32  1  0  0  0  0
 29 27  1  0  0  0  0
 32 31  1  0  0  0  0
 32 30  1  0  0  0  0
 33 34  2  0  0  0  0
 35 34  1  6  0  0  0
 35 39  1  0  0  0  0
 36 35  1  0  0  0  0
 36 37  1  0  0  0  0
 37 38  1  0  0  0  0
 39 38  1  0  0  0  0
 40 41  1  0  0  0  0
 43 42  1  6  0  0  0
 43 41  1  0  0  0  0
 43 44  1  0  0  0  0
 44 45  1  1  0  0  0
 46 48  1  6  0  0  0
 46 44  1  0  0  0  0
 47 48  1  0  0  0  0
 49 46  1  0  0  0  0
 50 49  1  0  0  0  0
 50 58  1  1  0  0  0
 52 57  1  0  0  0  0
 53 55  1  0  0  0  0
 54 50  1  0  0  0  0
 55 54  1  0  0  0  0
 56 53  1  0  0  0  0
 56 52  1  0  0  0  0
 57 54  1  0  0  0  0
 57 51  1  6  0  0  0
 58 59  1  0  0  0  0
M  END
>  <MODEL>
5

>  <REMARK>
 VINA RESULT:      -6.5      2.264     12.023
  Name = 
  24 active torsions:
  status: ('A' for Active; 'I' for Inactive)
    1  A    between atoms: C_3  and  C_17
    2  A    between atoms: C_6  and  N_24
    3  A    between atoms: C_6  and  C_48
    4  A    between atoms: C_7  and  C_56
    5  A    between atoms: N_10  and  C_43
    6  A    between atoms: C_12  and  C_16
    7  A    between atoms: C_13  and  C_32
    8  A    between atoms: C_14  and  N_24
    9  A    between atoms: C_14  and  C_55
   10  A    between atoms: O_15  and  C_48
   11  A    between atoms: O_15  and  C_52
   12  A    between atoms: C_16  and  O_29
   13  A    between atoms: C_16  and  N_34
   14  A    between atoms: C_21  and  C_33
   15  A    between atoms: C_21  and  C_46
   16  A    between atoms: O_23  and  C_31
   17  A    between atoms: O_23  and  C_40
   18  A    between atoms: O_29  and  C_33
   19  A    between atoms: C_31  and  C_46
   20  A    between atoms: C_32  and  C_58
   21  A    between atoms: C_33  and  C_35
   22  A    between atoms: C_38  and  C_43
   23  A    between atoms: C_43  and  C_55
   24  A    between atoms: C_45  and  O_49
                            x       y       z     vdW  Elec       q    Type
                         _______ _______ _______ _____ _____    ______ ____

>  <TORSDO>
F 24

$$$$
=
 OpenBabel11032421043D

 59 62  0  0  1  0  0  0  0  0999 V2000
  184.0760  179.2600  140.6180 C   0  0  0  0  0  2  0  0  0  0  0  0
  186.3490  178.3020  141.0780 C   0  0  0  0  0  3  0  0  0  0  0  0
  184.6080  177.8760  142.7250 C   0  0  0  0  0  2  0  0  0  0  0  0
  186.0600  178.0080  142.3500 C   0  0  0  0  0  0  0  0  0  0  0  0
  185.2450  178.4280  140.0680 C   0  0  2  0  0  3  0  0  0  0  0  0
  183.7930  179.0290  142.1160 C   0  0  2  0  0  3  0  0  0  0  0  0
  187.1160  177.8870  143.3940 C   0  0  0  0  0  0  0  0  0  0  0  0
  188.9750  177.3760  141.7190 C   0  0  0  0  0  1  0  0  0  0  0  0
  186.7240  178.0430  144.7310 C   0  0  0  0  0  3  0  0  0  0  0  0
  190.7560  177.2840  143.9030 O   0  0  0  0  0  1  0  0  0  0  0  0
  188.4840  177.6240  143.1130 C   0  0  0  0  0  0  0  0  0  0  0  0
  189.4120  177.5410  144.1680 C   0  0  0  0  0  0  0  0  0  0  0  0
  189.9200  177.6270  146.5270 O   0  0  0  0  0  1  0  0  0  0  0  0
  188.9940  177.7110  145.4930 C   0  0  0  0  0  0  0  0  0  0  0  0
  187.6480  177.9580  145.7810 C   0  0  0  0  0  0  0  0  0  0  0  0
  186.0570  178.7990  147.4830 C   0  0  0  0  0  1  0  0  0  0  0  0
  187.2490  178.1150  147.1130 O   0  0  0  0  0  0  0  0  0  0  0  0
  182.4290  178.8100  142.3120 O   0  0  0  0  0  0  0  0  0  0  0  0
  181.8470  179.0010  141.0520 C   0  0  0  0  0  2  0  0  0  0  0  0
  180.6050  178.1370  140.9100 C   0  0  0  0  0  2  0  0  0  0  0  0
  180.9670  176.8360  140.3710 N   0  0  0  0  0  2  0  0  0  0  0  0
  179.7240  176.1320  140.1000 C   0  0  0  0  0  2  0  0  0  0  0  0
  179.9890  174.9670  139.1960 C   0  0  0  0  0  0  0  0  0  0  0  0
  179.8080  173.8310  139.6040 O   0  0  0  0  0  0  0  0  0  0  0  0
  180.4810  175.1700  137.7940 C   0  0  1  0  0  3  0  0  0  0  0  0
  180.2670  176.5450  137.3600 N   0  0  0  0  0  2  0  0  0  0  0  0
  179.7870  176.8770  136.0550 C   0  0  0  0  0  0  0  0  0  0  0  0
  179.4810  175.9750  135.2320 O   0  0  0  0  0  0  0  0  0  0  0  0
  179.6110  178.3080  135.6760 C   0  0  0  0  0  2  0  0  0  0  0  0
  181.1840  179.7000  137.0240 C   0  0  0  0  0  1  0  0  0  0  0  0
  180.9410  180.0960  134.5960 C   0  0  0  0  0  1  0  0  0  0  0  0
  180.9480  179.0360  135.6780 C   0  0  0  0  0  3  0  0  0  0  0  0
  181.9370  174.8200  137.6950 C   0  0  0  0  0  3  0  0  0  0  0  0
  182.4000  173.8360  136.9100 C   0  0  0  0  0  3  0  0  0  0  0  0
  181.5120  172.9720  136.0650 C   0  0  1  0  0  3  0  0  0  0  0  0
  182.2520  172.5280  134.8400 C   0  0  0  0  0  2  0  0  0  0  0  0
  182.2610  171.0780  134.9000 N   0  0  0  0  0  2  0  0  0  0  0  0
  181.2690  170.7160  135.8310 N   0  0  0  0  0  2  0  0  0  0  0  0
  181.1820  171.7540  136.7780 N   0  0  0  0  0  2  0  0  0  0  0  0
  185.7340  179.0050  138.8950 O   0  0  0  0  0  0  0  0  0  0  0  0
  185.2080  178.2190  137.8650 C   0  0  0  0  0  2  0  0  0  0  0  0
  185.3870  175.9450  137.2050 O   0  0  0  0  0  1  0  0  0  0  0  0
  186.1480  177.0580  137.5690 C   0  0  1  0  0  3  0  0  0  0  0  0
  187.1270  177.4120  136.4450 C   0  0  1  0  0  3  0  0  0  0  0  0
  186.8280  178.6820  135.9390 O   0  0  0  0  0  1  0  0  0  0  0  0
  188.5800  177.4020  136.9380 C   0  0  2  0  0  3  0  0  0  0  0  0
  189.0250  179.0720  138.6120 O   0  0  0  0  0  1  0  0  0  0  0  0
  189.0720  178.8160  137.2390 C   0  0  0  0  0  2  0  0  0  0  0  0
  189.4310  176.8000  136.0020 O   0  0  0  0  0  0  0  0  0  0  0  0
  189.7350  175.5420  136.5360 C   0  0  2  0  0  3  0  0  0  0  0  0
  190.9270  175.6900  139.2940 O   0  0  0  0  0  1  0  0  0  0  0  0
  192.8800  176.6530  138.3210 C   0  0  0  0  0  2  0  0  0  0  0  0
  193.4650  176.0080  136.2460 C   0  0  0  0  0  2  0  0  0  0  0  0
  191.1430  175.4980  136.9640 N   0  0  0  0  0  0  0  0  0  0  0  0
  191.9890  175.8930  135.8310 C   0  0  0  0  0  2  0  0  0  0  0  0
  193.6490  175.7160  137.6110 O   0  0  0  0  0  0  0  0  0  0  0  0
  191.3870  176.3430  138.1520 C   0  0  1  0  0  3  0  0  0  0  0  0
  189.3520  174.4480  135.5350 C   0  0  0  0  0  2  0  0  0  0  0  0
  187.9660  174.3980  135.3730 O   0  0  0  0  0  1  0  0  0  0  0  0
  1  6  1  0  0  0  0
  2  4  2  0  0  0  0
  4  3  1  0  0  0  0
  4  7  1  0  0  0  0
  5 40  1  6  0  0  0
  5  1  1  0  0  0  0
  5  2  1  0  0  0  0
  6 18  1  6  0  0  0
  6  3  1  0  0  0  0
  7  9  1  0  0  0  0
  8 11  1  0  0  0  0
  9 15  2  0  0  0  0
 10 12  1  0  0  0  0
 11  7  2  0  0  0  0
 11 12  1  0  0  0  0
 12 14  2  0  0  0  0
 14 15  1  0  0  0  0
 14 13  1  0  0  0  0
 15 17  1  0  0  0  0
 17 16  1  0  0  0  0
 19 18  1  0  0  0  0
 20 19  1  0  0  0  0
 21 20  1  0  0  0  0
 22 21  1  0  0  0  0
 23 24  2  0  0  0  0
 23 22  1  0  0  0  0
 25 33  1  1  0  0  0
 25 23  1  0  0  0  0
 26 25  1  0  0  0  0
 27 26  1  0  0  0  0
 28 27  2  0  0  0  0
 29 32  1  0  0  0  0
 29 27  1  0  0  0  0
 31 32  1  0  0  0  0
 32 30  1  0  0  0  0
 34 33  2  0  0  0  0
 35 39  1  0  0  0  0
 35 34  1  1  0  0  0
 36 37  1  0  0  0  0
 36 35  1  0  0  0  0
 37 38  1  0  0  0  0
 38 39  1  0  0  0  0
 41 40  1  0  0  0  0
 43 42  1  6  0  0  0
 43 41  1  0  0  0  0
 44 45  1  1  0  0  0
 44 46  1  0  0  0  0
 44 43  1  0  0  0  0
 46 48  1  6  0  0  0
 48 47  1  0  0  0  0
 49 50  1  0  0  0  0
 49 46  1  0  0  0  0
 50 58  1  6  0  0  0
 50 54  1  0  0  0  0
 53 56  1  0  0  0  0
 54 57  1  0  0  0  0
 55 53  1  0  0  0  0
 55 54  1  0  0  0  0
 56 52  1  0  0  0  0
 57 52  1  0  0  0  0
 57 51  1  1  0  0  0
 59 58  1  0  0  0  0
M  END
>  <MODEL>
6

>  <REMARK>
 VINA RESULT:      -6.3      2.968      5.234
  Name = 
  24 active torsions:
  status: ('A' for Active; 'I' for Inactive)
    1  A    between atoms: C_3  and  C_17
    2  A    between atoms: C_6  and  N_24
    3  A    between atoms: C_6  and  C_48
    4  A    between atoms: C_7  and  C_56
    5  A    between atoms: N_10  and  C_43
    6  A    between atoms: C_12  and  C_16
    7  A    between atoms: C_13  and  C_32
    8  A    between atoms: C_14  and  N_24
    9  A    between atoms: C_14  and  C_55
   10  A    between atoms: O_15  and  C_48
   11  A    between atoms: O_15  and  C_52
   12  A    between atoms: C_16  and  O_29
   13  A    between atoms: C_16  and  N_34
   14  A    between atoms: C_21  and  C_33
   15  A    between atoms: C_21  and  C_46
   16  A    between atoms: O_23  and  C_31
   17  A    between atoms: O_23  and  C_40
   18  A    between atoms: O_29  and  C_33
   19  A    between atoms: C_31  and  C_46
   20  A    between atoms: C_32  and  C_58
   21  A    between atoms: C_33  and  C_35
   22  A    between atoms: C_38  and  C_43
   23  A    between atoms: C_43  and  C_55
   24  A    between atoms: C_45  and  O_49
                            x       y       z     vdW  Elec       q    Type
                         _______ _______ _______ _____ _____    ______ ____

>  <TORSDO>
F 24

$$$$
=
 OpenBabel11032421043D

 59 62  0  0  1  0  0  0  0  0999 V2000
  187.3620  175.8750  137.0430 C   0  0  0  0  0  2  0  0  0  0  0  0
  186.3140  173.7470  136.2260 C   0  0  0  0  0  3  0  0  0  0  0  0
  184.9420  175.7560  136.1650 C   0  0  0  0  0  2  0  0  0  0  0  0
  185.0790  174.2580  136.2200 C   0  0  0  0  0  0  0  0  0  0  0  0
  187.5040  174.6570  136.1170 C   0  0  2  0  0  3  0  0  0  0  0  0
  185.9210  176.4170  137.1490 C   0  0  2  0  0  3  0  0  0  0  0  0
  183.8670  173.4000  136.3390 C   0  0  0  0  0  0  0  0  0  0  0  0
  185.0400  171.3000  135.4850 C   0  0  0  0  0  1  0  0  0  0  0  0
  182.6850  174.0100  136.7840 C   0  0  0  0  0  3  0  0  0  0  0  0
  182.6140  169.9220  135.8900 O   0  0  0  0  0  1  0  0  0  0  0  0
  183.8420  172.0130  136.0310 C   0  0  0  0  0  0  0  0  0  0  0  0
  182.6490  171.2820  136.1900 C   0  0  0  0  0  0  0  0  0  0  0  0
  180.3150  171.1830  136.7990 O   0  0  0  0  0  1  0  0  0  0  0  0
  181.4870  171.9150  136.6450 C   0  0  0  0  0  0  0  0  0  0  0  0
  181.4980  173.2820  136.9400 C   0  0  0  0  0  0  0  0  0  0  0  0
  180.0750  174.1800  138.7570 C   0  0  0  0  0  1  0  0  0  0  0  0
  180.3230  173.8980  137.3840 O   0  0  0  0  0  0  0  0  0  0  0  0
  185.9230  177.8010  136.9700 O   0  0  0  0  0  0  0  0  0  0  0  0
  184.8250  178.2630  137.7070 C   0  0  0  0  0  2  0  0  0  0  0  0
  184.9750  177.8790  139.1700 C   0  0  0  0  0  2  0  0  0  0  0  0
  185.3130  179.0550  139.9570 N   0  0  0  0  0  2  0  0  0  0  0  0
  184.5010  179.0030  141.1620 C   0  0  0  0  0  2  0  0  0  0  0  0
  185.3640  178.6650  142.3390 C   0  0  0  0  0  0  0  0  0  0  0  0
  186.5400  178.3860  142.1660 O   0  0  0  0  0  0  0  0  0  0  0  0
  184.8080  178.6550  143.7310 C   0  0  1  0  0  3  0  0  0  0  0  0
  185.8790  178.6740  144.7200 N   0  0  0  0  0  2  0  0  0  0  0  0
  185.6330  178.5800  146.1260 C   0  0  0  0  0  0  0  0  0  0  0  0
  184.4640  178.4280  146.5670 O   0  0  0  0  0  0  0  0  0  0  0  0
  186.7790  178.6250  147.0790 C   0  0  0  0  0  2  0  0  0  0  0  0
  187.9280  176.7350  148.2340 C   0  0  0  0  0  1  0  0  0  0  0  0
  189.0060  177.8570  146.3140 C   0  0  0  0  0  1  0  0  0  0  0  0
  187.6810  177.4120  146.8970 C   0  0  0  0  0  3  0  0  0  0  0  0
  183.8960  179.8280  143.9390 C   0  0  0  0  0  3  0  0  0  0  0  0
  182.5620  179.7490  143.8110 C   0  0  0  0  0  3  0  0  0  0  0  0
  181.8470  178.4870  143.4310 C   0  0  1  0  0  3  0  0  0  0  0  0
  180.6680  178.2800  144.3310 C   0  0  0  0  0  2  0  0  0  0  0  0
  179.5120  178.2540  143.4540 N   0  0  0  0  0  2  0  0  0  0  0  0
  180.0100  178.0420  142.1540 N   0  0  0  0  0  2  0  0  0  0  0  0
  181.2940  178.6140  142.0970 N   0  0  0  0  0  2  0  0  0  0  0  0
  188.6710  173.9570  136.4220 O   0  0  0  0  0  0  0  0  0  0  0  0
  189.4740  174.0890  135.2850 C   0  0  0  0  0  2  0  0  0  0  0  0
  190.7920  176.0630  135.3460 O   0  0  0  0  0  1  0  0  0  0  0  0
  190.8140  174.7040  135.6670 C   0  0  1  0  0  3  0  0  0  0  0  0
  191.0980  174.5260  137.1630 C   0  0  1  0  0  3  0  0  0  0  0  0
  192.2770  173.7940  137.3360 O   0  0  0  0  0  1  0  0  0  0  0  0
  191.2400  175.8770  137.8750 C   0  0  2  0  0  3  0  0  0  0  0  0
  193.4540  176.5890  137.2570 O   0  0  0  0  0  1  0  0  0  0  0  0
  192.6810  176.1180  138.3210 C   0  0  0  0  0  2  0  0  0  0  0  0
  190.3870  175.9620  138.9830 O   0  0  0  0  0  0  0  0  0  0  0  0
  190.4160  177.3080  139.3670 C   0  0  2  0  0  3  0  0  0  0  0  0
  192.5720  178.2640  141.2350 O   0  0  0  0  0  1  0  0  0  0  0  0
  191.6670  176.8220  142.9040 C   0  0  0  0  0  2  0  0  0  0  0  0
  189.4460  176.4610  142.9110 C   0  0  0  0  0  2  0  0  0  0  0  0
  190.4190  177.4180  140.8360 N   0  0  0  0  0  0  0  0  0  0  0  0
  189.4020  176.5060  141.3740 C   0  0  0  0  0  2  0  0  0  0  0  0
  190.4530  177.2960  143.4300 O   0  0  0  0  0  0  0  0  0  0  0  0
  191.7550  177.1490  141.4080 C   0  0  1  0  0  3  0  0  0  0  0  0
  189.2720  178.0660  138.6870 C   0  0  0  0  0  2  0  0  0  0  0  0
  189.0460  179.2850  139.3280 O   0  0  0  0  0  1  0  0  0  0  0  0
  1  6  1  0  0  0  0
  3  4  1  0  0  0  0
  3  6  1  0  0  0  0
  4  2  2  0  0  0  0
  4  7  1  0  0  0  0
  5  2  1  0  0  0  0
  5 40  1  1  0  0  0
  5  1  1  0  0  0  0
  6 18  1  6  0  0  0
  7  9  1  0  0  0  0
  8 11  1  0  0  0  0
  9 15  2  0  0  0  0
 10 12  1  0  0  0  0
 11 12  1  0  0  0  0
 11  7  2  0  0  0  0
 12 14  2  0  0  0  0
 14 13  1  0  0  0  0
 14 15  1  0  0  0  0
 15 17  1  0  0  0  0
 17 16  1  0  0  0  0
 18 19  1  0  0  0  0
 19 20  1  0  0  0  0
 20 21  1  0  0  0  0
 21 22  1  0  0  0  0
 22 23  1  0  0  0  0
 23 25  1  0  0  0  0
 24 23  2  0  0  0  0
 25 33  1  1  0  0  0
 25 26  1  0  0  0  0
 26 27  1  0  0  0  0
 27 28  2  0  0  0  0
 27 29  1  0  0  0  0
 31 32  1  0  0  0  0
 32 29  1  0  0  0  0
 32 30  1  0  0  0  0
 34 33  2  0  0  0  0
 35 34  1  1  0  0  0
 35 36  1  0  0  0  0
 37 36  1  0  0  0  0
 38 37  1  0  0  0  0
 39 38  1  0  0  0  0
 39 35  1  0  0  0  0
 41 43  1  0  0  0  0
 41 40  1  0  0  0  0
 43 42  1  1  0  0  0
 43 44  1  0  0  0  0
 44 45  1  6  0  0  0
 44 46  1  0  0  0  0
 46 48  1  1  0  0  0
 46 49  1  0  0  0  0
 47 48  1  0  0  0  0
 49 50  1  0  0  0  0
 50 58  1  1  0  0  0
 50 54  1  0  0  0  0
 52 56  1  0  0  0  0
 53 56  1  0  0  0  0
 54 55  1  0  0  0  0
 54 57  1  0  0  0  0
 55 53  1  0  0  0  0
 57 51  1  1  0  0  0
 57 52  1  0  0  0  0
 58 59  1  0  0  0  0
M  END
>  <MODEL>
7

>  <REMARK>
 VINA RESULT:      -6.3      4.192      8.950
  Name = 
  24 active torsions:
  status: ('A' for Active; 'I' for Inactive)
    1  A    between atoms: C_3  and  C_17
    2  A    between atoms: C_6  and  N_24
    3  A    between atoms: C_6  and  C_48
    4  A    between atoms: C_7  and  C_56
    5  A    between atoms: N_10  and  C_43
    6  A    between atoms: C_12  and  C_16
    7  A    between atoms: C_13  and  C_32
    8  A    between atoms: C_14  and  N_24
    9  A    between atoms: C_14  and  C_55
   10  A    between atoms: O_15  and  C_48
   11  A    between atoms: O_15  and  C_52
   12  A    between atoms: C_16  and  O_29
   13  A    between atoms: C_16  and  N_34
   14  A    between atoms: C_21  and  C_33
   15  A    between atoms: C_21  and  C_46
   16  A    between atoms: O_23  and  C_31
   17  A    between atoms: O_23  and  C_40
   18  A    between atoms: O_29  and  C_33
   19  A    between atoms: C_31  and  C_46
   20  A    between atoms: C_32  and  C_58
   21  A    between atoms: C_33  and  C_35
   22  A    between atoms: C_38  and  C_43
   23  A    between atoms: C_43  and  C_55
   24  A    between atoms: C_45  and  O_49
                            x       y       z     vdW  Elec       q    Type
                         _______ _______ _______ _____ _____    ______ ____

>  <TORSDO>
F 24

$$$$
=
 OpenBabel11032421043D

 59 62  0  0  1  0  0  0  0  0999 V2000
  186.4270  178.9040  140.8760 C   0  0  0  0  0  2  0  0  0  0  0  0
  188.4820  177.8750  141.8830 C   0  0  0  0  0  3  0  0  0  0  0  0
  186.3770  177.5280  143.0540 C   0  0  0  0  0  2  0  0  0  0  0  0
  187.8800  177.6060  143.0450 C   0  0  0  0  0  0  0  0  0  0  0  0
  187.6650  178.0260  140.6320 C   0  0  2  0  0  3  0  0  0  0  0  0
  185.7780  178.7000  142.2600 C   0  0  2  0  0  3  0  0  0  0  0  0
  188.6430  177.4610  144.3170 C   0  0  0  0  0  0  0  0  0  0  0  0
  190.9180  177.3770  143.1600 C   0  0  0  0  0  1  0  0  0  0  0  0
  187.9080  177.3960  145.5090 C   0  0  0  0  0  3  0  0  0  0  0  0
  192.0820  177.1870  145.7210 O   0  0  0  0  0  1  0  0  0  0  0  0
  190.0610  177.3840  144.3880 C   0  0  0  0  0  0  0  0  0  0  0  0
  190.6930  177.2620  145.6400 C   0  0  0  0  0  0  0  0  0  0  0  0
  190.5690  177.0890  148.0450 O   0  0  0  0  0  1  0  0  0  0  0  0
  189.9330  177.2100  146.8140 C   0  0  0  0  0  0  0  0  0  0  0  0
  188.5370  177.2720  146.7540 C   0  0  0  0  0  0  0  0  0  0  0  0
  187.9200  178.1760  148.9750 C   0  0  0  0  0  1  0  0  0  0  0  0
  187.7960  177.2080  147.9390 O   0  0  0  0  0  0  0  0  0  0  0  0
  184.4000  178.5300  142.1150 O   0  0  0  0  0  0  0  0  0  0  0  0
  184.1300  178.8750  140.7850 C   0  0  0  0  0  2  0  0  0  0  0  0
  182.6780  178.5800  140.4500 C   0  0  0  0  0  2  0  0  0  0  0  0
  182.5310  177.1820  140.0760 N   0  0  0  0  0  2  0  0  0  0  0  0
  181.1400  176.8290  140.3060 C   0  0  0  0  0  2  0  0  0  0  0  0
  180.7380  175.7240  139.3770 C   0  0  0  0  0  0  0  0  0  0  0  0
  180.0380  174.8130  139.7890 O   0  0  0  0  0  0  0  0  0  0  0  0
  181.1870  175.7110  137.9470 C   0  0  1  0  0  3  0  0  0  0  0  0
  181.6620  174.3870  137.5630 N   0  0  0  0  0  2  0  0  0  0  0  0
  182.6540  174.1860  136.5520 C   0  0  0  0  0  0  0  0  0  0  0  0
  183.1980  175.1660  135.9790 O   0  0  0  0  0  0  0  0  0  0  0  0
  183.0770  172.8000  136.1990 C   0  0  0  0  0  2  0  0  0  0  0  0
  184.8590  173.0010  137.9340 C   0  0  0  0  0  1  0  0  0  0  0  0
  185.3820  173.4370  135.5580 C   0  0  0  0  0  1  0  0  0  0  0  0
  184.5540  172.5920  136.5030 C   0  0  0  0  0  3  0  0  0  0  0  0
  180.0680  176.1370  137.0430 C   0  0  0  0  0  3  0  0  0  0  0  0
  179.9810  177.3690  136.5190 C   0  0  0  0  0  3  0  0  0  0  0  0
  180.9810  178.4510  136.7950 C   0  0  1  0  0  3  0  0  0  0  0  0
  181.1620  179.2990  135.5730 C   0  0  0  0  0  2  0  0  0  0  0  0
  180.7910  180.6430  135.9770 N   0  0  0  0  0  2  0  0  0  0  0  0
  180.8040  180.6480  137.3840 N   0  0  0  0  0  2  0  0  0  0  0  0
  180.4720  179.3490  137.8130 N   0  0  0  0  0  2  0  0  0  0  0  0
  188.4460  178.5720  139.6130 O   0  0  0  0  0  0  0  0  0  0  0  0
  187.8340  178.1510  138.4290 C   0  0  0  0  0  2  0  0  0  0  0  0
  187.2580  176.0380  137.5110 O   0  0  0  0  0  1  0  0  0  0  0  0
  188.3220  176.7550  138.0640 C   0  0  1  0  0  3  0  0  0  0  0  0
  189.4830  176.8190  137.0650 C   0  0  1  0  0  3  0  0  0  0  0  0
  189.7590  178.1520  136.7460 O   0  0  0  0  0  1  0  0  0  0  0  0
  190.7510  176.1690  137.6330 C   0  0  2  0  0  3  0  0  0  0  0  0
  191.1600  176.9530  139.8710 O   0  0  0  0  0  1  0  0  0  0  0  0
  191.5140  177.1390  138.5330 C   0  0  0  0  0  2  0  0  0  0  0  0
  191.5940  175.7170  136.6100 O   0  0  0  0  0  0  0  0  0  0  0  0
  191.8330  174.3680  136.8990 C   0  0  2  0  0  3  0  0  0  0  0  0
  194.2080  176.2120  136.7850 O   0  0  0  0  0  1  0  0  0  0  0  0
  195.3160  174.5850  135.4390 C   0  0  0  0  0  2  0  0  0  0  0  0
  194.8650  172.4110  135.8050 C   0  0  0  0  0  2  0  0  0  0  0  0
  193.2660  174.0620  136.7460 N   0  0  0  0  0  0  0  0  0  0  0  0
  193.3970  172.7370  136.1260 C   0  0  0  0  0  2  0  0  0  0  0  0
  195.7270  173.4610  136.1750 O   0  0  0  0  0  0  0  0  0  0  0  0
  193.9750  175.1020  135.9730 C   0  0  1  0  0  3  0  0  0  0  0  0
  190.9120  173.4860  136.0510 C   0  0  0  0  0  2  0  0  0  0  0  0
  190.5020  174.1690  134.9050 O   0  0  0  0  0  1  0  0  0  0  0  0
  1  6  1  0  0  0  0
  2  4  2  0  0  0  0
  4  3  1  0  0  0  0
  4  7  1  0  0  0  0
  5 40  1  6  0  0  0
  5  1  1  0  0  0  0
  5  2  1  0  0  0  0
  6 18  1  6  0  0  0
  6  3  1  0  0  0  0
  7 11  2  0  0  0  0
  7  9  1  0  0  0  0
  8 11  1  0  0  0  0
  9 15  2  0  0  0  0
 11 12  1  0  0  0  0
 12 10  1  0  0  0  0
 12 14  2  0  0  0  0
 14 13  1  0  0  0  0
 15 14  1  0  0  0  0
 15 17  1  0  0  0  0
 17 16  1  0  0  0  0
 19 18  1  0  0  0  0
 20 19  1  0  0  0  0
 21 22  1  0  0  0  0
 21 20  1  0  0  0  0
 23 24  2  0  0  0  0
 23 22  1  0  0  0  0
 25 33  1  6  0  0  0
 25 23  1  0  0  0  0
 26 25  1  0  0  0  0
 27 26  1  0  0  0  0
 28 27  2  0  0  0  0
 29 32  1  0  0  0  0
 29 27  1  0  0  0  0
 31 32  1  0  0  0  0
 32 30  1  0  0  0  0
 34 33  2  0  0  0  0
 35 34  1  6  0  0  0
 35 39  1  0  0  0  0
 36 37  1  0  0  0  0
 36 35  1  0  0  0  0
 37 38  1  0  0  0  0
 38 39  1  0  0  0  0
 41 40  1  0  0  0  0
 43 42  1  6  0  0  0
 43 41  1  0  0  0  0
 44 45  1  1  0  0  0
 44 46  1  0  0  0  0
 44 43  1  0  0  0  0
 46 48  1  6  0  0  0
 48 47  1  0  0  0  0
 49 50  1  0  0  0  0
 49 46  1  0  0  0  0
 50 58  1  6  0  0  0
 52 57  1  0  0  0  0
 52 56  1  0  0  0  0
 53 55  1  0  0  0  0
 53 56  1  0  0  0  0
 54 50  1  0  0  0  0
 55 54  1  0  0  0  0
 57 54  1  0  0  0  0
 57 51  1  1  0  0  0
 59 58  1  0  0  0  0
M  END
>  <MODEL>
8

>  <REMARK>
 VINA RESULT:      -6.1      2.584      4.805
  Name = 
  24 active torsions:
  status: ('A' for Active; 'I' for Inactive)
    1  A    between atoms: C_3  and  C_17
    2  A    between atoms: C_6  and  N_24
    3  A    between atoms: C_6  and  C_48
    4  A    between atoms: C_7  and  C_56
    5  A    between atoms: N_10  and  C_43
    6  A    between atoms: C_12  and  C_16
    7  A    between atoms: C_13  and  C_32
    8  A    between atoms: C_14  and  N_24
    9  A    between atoms: C_14  and  C_55
   10  A    between atoms: O_15  and  C_48
   11  A    between atoms: O_15  and  C_52
   12  A    between atoms: C_16  and  O_29
   13  A    between atoms: C_16  and  N_34
   14  A    between atoms: C_21  and  C_33
   15  A    between atoms: C_21  and  C_46
   16  A    between atoms: O_23  and  C_31
   17  A    between atoms: O_23  and  C_40
   18  A    between atoms: O_29  and  C_33
   19  A    between atoms: C_31  and  C_46
   20  A    between atoms: C_32  and  C_58
   21  A    between atoms: C_33  and  C_35
   22  A    between atoms: C_38  and  C_43
   23  A    between atoms: C_43  and  C_55
   24  A    between atoms: C_45  and  O_49
                            x       y       z     vdW  Elec       q    Type
                         _______ _______ _______ _____ _____    ______ ____

>  <TORSDO>
F 24

$$$$
=
 OpenBabel11032421043D

 59 62  0  0  1  0  0  0  0  0999 V2000
  189.1530  176.3240  137.3370 C   0  0  0  0  0  2  0  0  0  0  0  0
  187.1930  175.2640  136.1840 C   0  0  0  0  0  3  0  0  0  0  0  0
  186.7510  177.2320  137.5460 C   0  0  0  0  0  2  0  0  0  0  0  0
  186.2950  175.9550  136.8930 C   0  0  0  0  0  0  0  0  0  0  0  0
  188.5840  175.8020  136.0080 C   0  0  2  0  0  3  0  0  0  0  0  0
  188.1100  177.0240  138.2320 C   0  0  2  0  0  3  0  0  0  0  0  0
  184.9060  175.4590  137.1090 C   0  0  0  0  0  0  0  0  0  0  0  0
  184.1060  177.6220  138.2030 C   0  0  0  0  0  1  0  0  0  0  0  0
  184.6190  174.1450  136.7120 C   0  0  0  0  0  3  0  0  0  0  0  0
  181.5550  176.4370  138.4070 O   0  0  0  0  0  1  0  0  0  0  0  0
  183.8670  176.2360  137.6890 C   0  0  0  0  0  0  0  0  0  0  0  0
  182.5810  175.6840  137.8390 C   0  0  0  0  0  0  0  0  0  0  0  0
  181.0460  173.8390  137.5770 O   0  0  0  0  0  1  0  0  0  0  0  0
  182.3210  174.3720  137.4240 C   0  0  0  0  0  0  0  0  0  0  0  0
  183.3390  173.5960  136.8630 C   0  0  0  0  0  0  0  0  0  0  0  0
  183.5240  171.7410  135.2320 C   0  0  0  0  0  1  0  0  0  0  0  0
  183.0610  172.2840  136.4640 O   0  0  0  0  0  0  0  0  0  0  0  0
  188.6160  178.2450  138.6800 O   0  0  0  0  0  0  0  0  0  0  0  0
  187.8330  178.5750  139.7940 C   0  0  0  0  0  2  0  0  0  0  0  0
  188.6210  178.3530  141.0740 C   0  0  0  0  0  2  0  0  0  0  0  0
  187.7100  178.2490  142.2030 N   0  0  0  0  0  2  0  0  0  0  0  0
  186.3820  178.5660  141.7040 C   0  0  0  0  0  2  0  0  0  0  0  0
  185.5530  179.1500  142.8060 C   0  0  0  0  0  0  0  0  0  0  0  0
  185.5120  180.3610  142.9570 O   0  0  0  0  0  0  0  0  0  0  0  0
  184.7730  178.2720  143.7380 C   0  0  1  0  0  3  0  0  0  0  0  0
  185.6650  177.4990  144.5940 N   0  0  0  0  0  2  0  0  0  0  0  0
  186.3340  178.0650  145.7250 C   0  0  0  0  0  0  0  0  0  0  0  0
  186.1370  179.2630  146.0560 O   0  0  0  0  0  0  0  0  0  0  0  0
  187.2460  177.2160  146.5430 C   0  0  0  0  0  2  0  0  0  0  0  0
  189.7210  177.4640  146.7390 C   0  0  0  0  0  1  0  0  0  0  0  0
  188.2580  178.0530  148.6430 C   0  0  0  0  0  1  0  0  0  0  0  0
  188.3760  178.0490  147.1330 C   0  0  0  0  0  3  0  0  0  0  0  0
  183.8420  179.0960  144.5790 C   0  0  0  0  0  3  0  0  0  0  0  0
  182.5250  179.1820  144.3400 C   0  0  0  0  0  3  0  0  0  0  0  0
  181.8490  178.4780  143.2020 C   0  0  1  0  0  3  0  0  0  0  0  0
  180.3930  178.8310  143.1790 C   0  0  0  0  0  2  0  0  0  0  0  0
  180.1660  179.4470  141.8840 N   0  0  0  0  0  2  0  0  0  0  0  0
  181.2720  179.1020  141.0850 N   0  0  0  0  0  2  0  0  0  0  0  0
  182.3800  178.9540  141.9400 N   0  0  0  0  0  2  0  0  0  0  0  0
  189.4170  174.8110  135.4870 O   0  0  0  0  0  0  0  0  0  0  0  0
  190.1280  174.3260  136.5890 C   0  0  0  0  0  2  0  0  0  0  0  0
  190.9280  172.7280  135.0250 O   0  0  0  0  0  1  0  0  0  0  0  0
  191.3220  173.5090  136.1140 C   0  0  1  0  0  3  0  0  0  0  0  0
  192.4890  174.4180  135.7090 C   0  0  1  0  0  3  0  0  0  0  0  0
  191.9980  175.5570  135.0640 O   0  0  0  0  0  1  0  0  0  0  0  0
  193.3140  174.8520  136.9270 C   0  0  2  0  0  3  0  0  0  0  0  0
  194.3080  177.0310  136.6960 O   0  0  0  0  0  1  0  0  0  0  0  0
  193.1850  176.3530  137.1770 C   0  0  0  0  0  2  0  0  0  0  0  0
  194.6660  174.5180  136.7720 O   0  0  0  0  0  0  0  0  0  0  0  0
  195.0780  174.0610  138.0300 C   0  0  2  0  0  3  0  0  0  0  0  0
  197.6880  174.6050  136.6360 O   0  0  0  0  0  1  0  0  0  0  0  0
  198.7250  174.7310  138.7800 C   0  0  0  0  0  2  0  0  0  0  0  0
  197.5180  175.5270  140.5030 C   0  0  0  0  0  2  0  0  0  0  0  0
  196.2570  174.8190  138.4850 N   0  0  0  0  0  0  0  0  0  0  0  0
  196.2400  174.8720  139.9520 C   0  0  0  0  0  2  0  0  0  0  0  0
  198.3970  175.9080  139.4730 O   0  0  0  0  0  0  0  0  0  0  0  0
  197.5170  174.2430  137.9710 C   0  0  1  0  0  3  0  0  0  0  0  0
  195.2890  172.5440  137.9870 C   0  0  0  0  0  2  0  0  0  0  0  0
  195.2120  172.0790  136.6730 O   0  0  0  0  0  1  0  0  0  0  0  0
  1  6  1  0  0  0  0
  2  4  2  0  0  0  0
  3  6  1  0  0  0  0
  4  7  1  0  0  0  0
  4  3  1  0  0  0  0
  5 40  1  1  0  0  0
  5  2  1  0  0  0  0
  5  1  1  0  0  0  0
  6 18  1  6  0  0  0
  7 11  1  0  0  0  0
  9 15  1  0  0  0  0
  9  7  2  0  0  0  0
 11 12  2  0  0  0  0
 11  8  1  0  0  0  0
 12 10  1  0  0  0  0
 14 13  1  0  0  0  0
 14 12  1  0  0  0  0
 15 14  2  0  0  0  0
 16 17  1  0  0  0  0
 17 15  1  0  0  0  0
 18 19  1  0  0  0  0
 19 20  1  0  0  0  0
 20 21  1  0  0  0  0
 22 21  1  0  0  0  0
 22 23  1  0  0  0  0
 23 24  2  0  0  0  0
 23 25  1  0  0  0  0
 25 33  1  1  0  0  0
 25 26  1  0  0  0  0
 26 27  1  0  0  0  0
 27 28  2  0  0  0  0
 27 29  1  0  0  0  0
 29 32  1  0  0  0  0
 30 32  1  0  0  0  0
 32 31  1  0  0  0  0
 34 33  2  0  0  0  0
 35 34  1  1  0  0  0
 36 35  1  0  0  0  0
 37 36  1  0  0  0  0
 38 37  1  0  0  0  0
 38 39  1  0  0  0  0
 39 35  1  0  0  0  0
 40 41  1  0  0  0  0
 43 42  1  6  0  0  0
 43 41  1  0  0  0  0
 44 45  1  1  0  0  0
 44 43  1  0  0  0  0
 44 46  1  0  0  0  0
 46 48  1  6  0  0  0
 47 48  1  0  0  0  0
 49 46  1  0  0  0  0
 49 50  1  0  0  0  0
 50 58  1  6  0  0  0
 50 54  1  0  0  0  0
 52 56  1  0  0  0  0
 54 55  1  0  0  0  0
 55 53  1  0  0  0  0
 56 53  1  0  0  0  0
 57 51  1  6  0  0  0
 57 54  1  0  0  0  0
 57 52  1  0  0  0  0
 59 58  1  0  0  0  0
M  END
>  <MODEL>
9

>  <REMARK>
 VINA RESULT:      -6.0      3.337      7.783
  Name = 
  24 active torsions:
  status: ('A' for Active; 'I' for Inactive)
    1  A    between atoms: C_3  and  C_17
    2  A    between atoms: C_6  and  N_24
    3  A    between atoms: C_6  and  C_48
    4  A    between atoms: C_7  and  C_56
    5  A    between atoms: N_10  and  C_43
    6  A    between atoms: C_12  and  C_16
    7  A    between atoms: C_13  and  C_32
    8  A    between atoms: C_14  and  N_24
    9  A    between atoms: C_14  and  C_55
   10  A    between atoms: O_15  and  C_48
   11  A    between atoms: O_15  and  C_52
   12  A    between atoms: C_16  and  O_29
   13  A    between atoms: C_16  and  N_34
   14  A    between atoms: C_21  and  C_33
   15  A    between atoms: C_21  and  C_46
   16  A    between atoms: O_23  and  C_31
   17  A    between atoms: O_23  and  C_40
   18  A    between atoms: O_29  and  C_33
   19  A    between atoms: C_31  and  C_46
   20  A    between atoms: C_32  and  C_58
   21  A    between atoms: C_33  and  C_35
   22  A    between atoms: C_38  and  C_43
   23  A    between atoms: C_43  and  C_55
   24  A    between atoms: C_45  and  O_49
                            x       y       z     vdW  Elec       q    Type
                         _______ _______ _______ _____ _____    ______ ____

>  <TORSDO>
F 24

$$$$
