=
 OpenBabel11042413223D

 50 55  0  0  1  0  0  0  0  0999 V2000
  183.7520  178.6470  138.0750 C   0  0  2  0  0  3  0  0  0  0  0  0
  182.6050  178.7020  141.6360 N   0  0  0  0  0  0  0  0  0  0  0  0
  181.2010  178.4260  137.6830 C   0  0  0  0  0  2  0  0  0  0  0  0
  181.9220  177.2430  139.7160 N   0  0  0  0  0  0  0  0  0  0  0  0
  182.5890  177.8880  137.3960 C   0  0  2  0  0  0  0  0  0  0  0  0
  182.6910  178.3380  140.2480 C   0  0  0  0  0  0  0  0  0  0  0  0
  185.0450  177.8400  138.0050 C   0  0  0  0  0  1  0  0  0  0  0  0
  181.5150  176.1530  140.5920 C   0  0  0  0  0  1  0  0  0  0  0  0
  183.4880  179.0020  139.4650 N   0  0  0  0  0  0  0  0  0  0  0  0
  181.6430  177.0870  138.2830 C   0  0  2  0  0  3  0  0  0  0  0  0
  181.0920  178.4330  143.5770 C   0  0  0  0  0  3  0  0  0  0  0  0
  179.1620  180.0350  142.3450 C   0  0  0  0  0  3  0  0  0  0  0  0
  179.8980  178.7310  144.2430 C   0  0  0  0  0  3  0  0  0  0  0  0
  178.9330  179.5330  143.6280 C   0  0  0  0  0  3  0  0  0  0  0  0
  180.3540  179.7340  141.6780 C   0  0  0  0  0  3  0  0  0  0  0  0
  181.3340  178.9280  142.2820 C   0  0  0  0  0  0  0  0  0  0  0  0
  182.4620  178.2730  135.0480 O   0  0  0  0  0  0  0  0  0  0  0  0
  182.7760  177.4600  135.9590 C   0  0  0  0  0  0  0  0  0  0  0  0
  183.3180  176.1900  135.5710 N   0  0  0  0  0  2  0  0  0  0  0  0
  185.6650  170.5580  135.3950 O   0  0  0  0  0  0  0  0  0  0  0  0
  187.4760  171.8660  136.2270 C   0  0  0  0  0  2  0  0  0  0  0  0
  186.0410  171.6770  135.8380 C   0  0  0  0  0  0  0  0  0  0  0  0
  188.3820  171.5330  135.0830 C   0  0  0  0  0  3  0  0  0  0  0  0
  189.9170  173.4280  135.6220 C   0  0  0  0  0  2  0  0  0  0  0  0
  183.0030  173.7920  135.2370 C   0  0  0  0  0  2  0  0  0  0  0  0
  189.6260  174.7190  134.8620 C   0  0  0  0  0  2  0  0  0  0  0  0
  187.4850  175.1290  135.8610 O   0  0  0  0  0  0  0  0  0  0  0  0
  186.1420  174.9130  135.5620 C   0  0  0  0  0  2  0  0  0  0  0  0
  189.4990  172.2240  134.8240 C   0  0  0  0  0  3  0  0  0  0  0  0
  185.0890  172.7420  136.0030 N   0  0  0  0  0  0  0  0  0  0  0  0
  185.4960  174.0170  136.6130 C   0  0  2  0  0  3  0  0  0  0  0  0
  184.2890  174.7170  137.2550 C   0  0  0  0  0  2  0  0  0  0  0  0
  183.6790  172.4950  135.6860 C   0  0  0  0  0  2  0  0  0  0  0  0
  188.1350  174.9380  134.6420 C   0  0  0  0  0  2  0  0  0  0  0  0
  183.1280  174.9240  136.2680 C   0  0  1  0  0  3  0  0  0  0  0  0
  183.8300  179.1280  142.3080 C   0  0  0  0  0  2  0  0  0  0  0  0
  184.7650  177.9420  142.4940 C   0  0  0  0  0  2  0  0  0  0  0  0
  185.3120  177.9460  143.9090 C   0  0  0  0  0  2  0  0  0  0  0  0
  188.8830  177.9670  145.2090 C   0  0  0  0  0  0  0  0  0  0  0  0
  189.6540  178.0350  143.9070 C   0  0  0  0  0  2  0  0  0  0  0  0
  188.8780  177.4650  142.8030 N   0  0  0  0  0  0  0  0  0  0  0  0
  187.5460  177.9100  145.1990 C   0  0  0  0  0  3  0  0  0  0  0  0
  187.4500  177.5500  142.7960 C   0  0  0  0  0  3  0  0  0  0  0  0
  186.7990  177.8170  143.9310 C   0  0  0  0  0  0  0  0  0  0  0  0
  189.5680  177.0360  141.6020 C   0  0  0  0  0  1  0  0  0  0  0  0
  189.5500  177.9340  146.4320 O   0  0  0  0  0  0  0  0  0  0  0  0
  189.8570  176.7080  147.1000 C   0  0  0  0  0  2  0  0  0  0  0  0
  191.3360  176.5540  147.3050 C   0  0  0  0  0  0  0  0  0  0  0  0
  192.0950  175.5880  146.4600 C   0  0  0  0  0  1  0  0  0  0  0  0
  191.9210  177.1760  148.1750 O   0  0  0  0  0  0  0  0  0  0  0  0
  1  7  1  1  0  0  0
  1  9  1  0  0  0  0
  2 16  1  0  0  0  0
  2 36  1  0  0  0  0
  4  6  1  0  0  0  0
  4  8  1  0  0  0  0
  5 18  1  6  0  0  0
  5  3  1  0  0  0  0
  5  1  1  0  0  0  0
  5 10  1  0  0  0  0
  6  2  1  0  0  0  0
  9  6  2  0  0  0  0
 10  3  1  1  0  0  0
 10  4  1  0  0  0  0
 11 13  1  0  0  0  0
 12 14  1  0  0  0  0
 14 13  2  0  0  0  0
 15 16  1  0  0  0  0
 15 12  2  0  0  0  0
 16 11  2  0  0  0  0
 17 18  2  0  0  0  0
 19 18  1  0  0  0  0
 20 22  2  0  0  0  0
 22 30  1  0  0  0  0
 22 21  1  0  0  0  0
 23 21  1  0  0  0  0
 25 33  1  0  0  0  0
 25 35  1  0  0  0  0
 26 24  1  0  0  0  0
 28 27  1  0  0  0  0
 29 23  2  0  0  0  0
 29 24  1  0  0  0  0
 30 31  1  0  0  0  0
 31 28  1  6  0  0  0
 31 32  1  0  0  0  0
 33 30  1  0  0  0  0
 34 26  1  0  0  0  0
 34 27  1  0  0  0  0
 35 19  1  6  0  0  0
 35 32  1  0  0  0  0
 36 37  1  0  0  0  0
 37 38  1  0  0  0  0
 38 44  1  0  0  0  0
 39 46  1  0  0  0  0
 40 39  1  0  0  0  0
 41 40  1  0  0  0  0
 42 39  2  0  0  0  0
 43 41  1  0  0  0  0
 43 44  2  0  0  0  0
 44 42  1  0  0  0  0
 45 41  1  0  0  0  0
 46 47  1  0  0  0  0
 47 48  1  0  0  0  0
 48 50  2  0  0  0  0
 49 48  1  0  0  0  0
M  END
>  <MODEL>
1

>  <REMARK>
 VINA RESULT:      -7.7      0.000      0.000
  Name = 
  10 active torsions:
  status: ('A' for Active; 'I' for Inactive)
    1  A    between atoms: C_2  and  C_7
    2  A    between atoms: C_2  and  O_42
    3  A    between atoms: C_5  and  O_42
    4  A    between atoms: C_9  and  C_44
    5  A    between atoms: C_9  and  C_50
    6  A    between atoms: N_10  and  C_26
    7  A    between atoms: N_10  and  C_38
    8  A    between atoms: C_22  and  C_30
    9  A    between atoms: C_26  and  C_50
   10  A    between atoms: C_47  and  N_49
                            x       y       z     vdW  Elec       q    Type
                         _______ _______ _______ _____ _____    ______ ____

>  <TORSDO>
F 10

$$$$
=
 OpenBabel11042413223D

 50 55  0  0  1  0  0  0  0  0999 V2000
  187.8210  178.7000  137.1340 C   0  0  2  0  0  3  0  0  0  0  0  0
  184.3690  177.7590  138.2270 N   0  0  0  0  0  0  0  0  0  0  0  0
  187.0530  177.4360  135.0080 C   0  0  0  0  0  2  0  0  0  0  0  0
  186.1390  176.4250  137.0550 N   0  0  0  0  0  0  0  0  0  0  0  0
  188.1120  177.6080  136.0800 C   0  0  2  0  0  0  0  0  0  0  0  0
  185.6710  177.6640  137.6240 C   0  0  0  0  0  0  0  0  0  0  0  0
  188.7540  178.5630  138.3340 C   0  0  0  0  0  1  0  0  0  0  0  0
  185.6220  175.1590  137.5560 C   0  0  0  0  0  1  0  0  0  0  0  0
  186.4400  178.7090  137.6040 N   0  0  0  0  0  0  0  0  0  0  0  0
  187.2370  176.3600  136.0830 C   0  0  2  0  0  3  0  0  0  0  0  0
  183.0270  177.5330  136.1590 C   0  0  0  0  0  3  0  0  0  0  0  0
  181.1020  176.0360  137.5250 C   0  0  0  0  0  3  0  0  0  0  0  0
  181.9220  177.0190  135.4730 C   0  0  0  0  0  3  0  0  0  0  0  0
  180.9600  176.2680  136.1550 C   0  0  0  0  0  3  0  0  0  0  0  0
  182.2060  176.5550  138.2110 C   0  0  0  0  0  3  0  0  0  0  0  0
  183.1810  177.3120  137.5400 C   0  0  0  0  0  0  0  0  0  0  0  0
  189.8570  178.2670  134.5980 O   0  0  0  0  0  0  0  0  0  0  0  0
  189.5210  177.5070  135.5450 C   0  0  0  0  0  0  0  0  0  0  0  0
  190.5110  176.6130  136.0740 N   0  0  0  0  0  2  0  0  0  0  0  0
  193.0340  171.0690  135.6750 O   0  0  0  0  0  0  0  0  0  0  0  0
  194.6720  172.3170  136.8760 C   0  0  0  0  0  2  0  0  0  0  0  0
  193.3100  172.1440  136.2750 C   0  0  0  0  0  0  0  0  0  0  0  0
  195.7360  172.1170  135.8430 C   0  0  0  0  0  3  0  0  0  0  0  0
  197.1230  173.9750  136.7730 C   0  0  0  0  0  2  0  0  0  0  0  0
  190.3190  174.2560  135.4660 C   0  0  0  0  0  2  0  0  0  0  0  0
  196.8990  175.3300  136.1110 C   0  0  0  0  0  2  0  0  0  0  0  0
  194.6290  175.6000  136.8370 O   0  0  0  0  0  0  0  0  0  0  0  0
  193.3480  175.3920  136.3340 C   0  0  0  0  0  2  0  0  0  0  0  0
  196.8560  172.8500  135.8110 C   0  0  0  0  0  3  0  0  0  0  0  0
  192.3120  173.1690  136.4080 N   0  0  0  0  0  0  0  0  0  0  0  0
  192.5910  174.3830  137.1910 C   0  0  2  0  0  3  0  0  0  0  0  0
  191.2860  174.9940  137.7250 C   0  0  0  0  0  2  0  0  0  0  0  0
  190.9670  172.9320  135.8760 C   0  0  0  0  0  2  0  0  0  0  0  0
  195.4460  175.5440  135.7080 C   0  0  0  0  0  2  0  0  0  0  0  0
  190.2660  175.2790  136.6100 C   0  0  1  0  0  3  0  0  0  0  0  0
  184.2310  178.5840  139.4240 C   0  0  0  0  0  2  0  0  0  0  0  0
  184.2000  177.7050  140.6660 C   0  0  0  0  0  2  0  0  0  0  0  0
  183.8780  178.5550  141.8810 C   0  0  0  0  0  2  0  0  0  0  0  0
  187.1840  177.8250  143.6070 C   0  0  0  0  0  0  0  0  0  0  0  0
  186.7090  177.5680  145.0230 C   0  0  0  0  0  2  0  0  0  0  0  0
  185.4460  178.2610  145.2910 N   0  0  0  0  0  0  0  0  0  0  0  0
  186.3080  178.1580  142.6520 C   0  0  0  0  0  3  0  0  0  0  0  0
  184.4960  178.4730  144.2430 C   0  0  0  0  0  3  0  0  0  0  0  0
  184.8830  178.3740  142.9690 C   0  0  0  0  0  0  0  0  0  0  0  0
  185.0540  178.5090  146.6640 C   0  0  0  0  0  1  0  0  0  0  0  0
  188.5370  177.7480  143.2840 O   0  0  0  0  0  0  0  0  0  0  0  0
  188.9900  177.4830  141.9550 C   0  0  0  0  0  2  0  0  0  0  0  0
  190.2590  176.6810  141.9600 C   0  0  0  0  0  0  0  0  0  0  0  0
  191.4860  177.2510  141.3340 C   0  0  0  0  0  1  0  0  0  0  0  0
  190.2950  175.5580  142.4330 O   0  0  0  0  0  0  0  0  0  0  0  0
  1  9  1  0  0  0  0
  1  7  1  1  0  0  0
  2 36  1  0  0  0  0
  3  5  1  0  0  0  0
  4  8  1  0  0  0  0
  4  6  1  0  0  0  0
  5 18  1  6  0  0  0
  5 10  1  0  0  0  0
  5  1  1  0  0  0  0
  6  2  1  0  0  0  0
  9  6  2  0  0  0  0
 10  3  1  6  0  0  0
 10  4  1  0  0  0  0
 11 16  1  0  0  0  0
 12 15  1  0  0  0  0
 13 14  1  0  0  0  0
 13 11  2  0  0  0  0
 14 12  2  0  0  0  0
 16 15  2  0  0  0  0
 16  2  1  0  0  0  0
 17 18  2  0  0  0  0
 18 19  1  0  0  0  0
 20 22  2  0  0  0  0
 22 30  1  0  0  0  0
 22 21  1  0  0  0  0
 23 21  1  0  0  0  0
 25 33  1  0  0  0  0
 25 35  1  0  0  0  0
 26 24  1  0  0  0  0
 28 27  1  0  0  0  0
 29 23  2  0  0  0  0
 29 24  1  0  0  0  0
 30 31  1  0  0  0  0
 31 28  1  6  0  0  0
 31 32  1  0  0  0  0
 33 30  1  0  0  0  0
 34 26  1  0  0  0  0
 34 27  1  0  0  0  0
 35 19  1  6  0  0  0
 35 32  1  0  0  0  0
 36 37  1  0  0  0  0
 37 38  1  0  0  0  0
 38 44  1  0  0  0  0
 39 40  1  0  0  0  0
 40 41  1  0  0  0  0
 41 45  1  0  0  0  0
 42 44  1  0  0  0  0
 42 39  2  0  0  0  0
 43 41  1  0  0  0  0
 44 43  2  0  0  0  0
 46 39  1  0  0  0  0
 47 48  1  0  0  0  0
 47 46  1  0  0  0  0
 48 50  2  0  0  0  0
 49 48  1  0  0  0  0
M  END
>  <MODEL>
2

>  <REMARK>
 VINA RESULT:      -7.6      3.698      6.027
  Name = 
  10 active torsions:
  status: ('A' for Active; 'I' for Inactive)
    1  A    between atoms: C_2  and  C_7
    2  A    between atoms: C_2  and  O_42
    3  A    between atoms: C_5  and  O_42
    4  A    between atoms: C_9  and  C_44
    5  A    between atoms: C_9  and  C_50
    6  A    between atoms: N_10  and  C_26
    7  A    between atoms: N_10  and  C_38
    8  A    between atoms: C_22  and  C_30
    9  A    between atoms: C_26  and  C_50
   10  A    between atoms: C_47  and  N_49
                            x       y       z     vdW  Elec       q    Type
                         _______ _______ _______ _____ _____    ______ ____

>  <TORSDO>
F 10

$$$$
=
 OpenBabel11042413223D

 50 55  0  0  1  0  0  0  0  0999 V2000
  184.0590  178.6630  137.9560 C   0  0  2  0  0  3  0  0  0  0  0  0
  182.7720  178.6800  141.4690 N   0  0  0  0  0  0  0  0  0  0  0  0
  181.5760  178.0990  137.4810 C   0  0  0  0  0  2  0  0  0  0  0  0
  182.3610  177.0840  139.5800 N   0  0  0  0  0  0  0  0  0  0  0  0
  183.0330  177.7380  137.2640 C   0  0  2  0  0  0  0  0  0  0  0  0
  182.9610  178.2880  140.0990 C   0  0  0  0  0  0  0  0  0  0  0  0
  185.4480  178.0300  137.9620 C   0  0  0  0  0  1  0  0  0  0  0  0
  182.0640  175.9790  140.4800 C   0  0  0  0  0  1  0  0  0  0  0  0
  183.6960  179.0240  139.3220 N   0  0  0  0  0  0  0  0  0  0  0  0
  182.1630  176.8480  138.1450 C   0  0  2  0  0  3  0  0  0  0  0  0
  181.2730  178.4980  143.4310 C   0  0  0  0  0  3  0  0  0  0  0  0
  179.1010  179.3700  141.9030 C   0  0  0  0  0  3  0  0  0  0  0  0
  180.0180  178.6650  144.0260 C   0  0  0  0  0  3  0  0  0  0  0  0
  178.9320  179.1030  143.2630 C   0  0  0  0  0  3  0  0  0  0  0  0
  180.3560  179.1990  141.3070 C   0  0  0  0  0  3  0  0  0  0  0  0
  181.4570  178.7580  142.0610 C   0  0  0  0  0  0  0  0  0  0  0  0
  182.8740  177.9820  134.8990 O   0  0  0  0  0  0  0  0  0  0  0  0
  183.3310  177.2930  135.8510 C   0  0  0  0  0  0  0  0  0  0  0  0
  184.1290  176.1460  135.5290 N   0  0  0  0  0  2  0  0  0  0  0  0
  187.7900  171.2740  135.8980 O   0  0  0  0  0  0  0  0  0  0  0  0
  189.1360  173.0250  136.7970 C   0  0  0  0  0  2  0  0  0  0  0  0
  187.8350  172.4690  136.3020 C   0  0  0  0  0  0  0  0  0  0  0  0
  190.2020  172.8840  135.7560 C   0  0  0  0  0  3  0  0  0  0  0  0
  191.1660  175.1220  136.3030 C   0  0  0  0  0  2  0  0  0  0  0  0
  184.4440  173.7340  135.3190 C   0  0  0  0  0  2  0  0  0  0  0  0
  190.6430  176.2690  135.4430 C   0  0  0  0  0  2  0  0  0  0  0  0
  188.3810  176.1710  136.2330 O   0  0  0  0  0  0  0  0  0  0  0  0
  187.1670  175.6140  135.8360 C   0  0  0  0  0  2  0  0  0  0  0  0
  191.1350  173.8220  135.5490 C   0  0  0  0  0  3  0  0  0  0  0  0
  186.6400  173.2680  136.3200 N   0  0  0  0  0  0  0  0  0  0  0  0
  186.6610  174.6270  136.8820 C   0  0  2  0  0  3  0  0  0  0  0  0
  185.2630  175.0280  137.3770 C   0  0  0  0  0  2  0  0  0  0  0  0
  185.3710  172.6650  135.9020 C   0  0  0  0  0  2  0  0  0  0  0  0
  189.1720  176.1000  135.0860 C   0  0  0  0  0  2  0  0  0  0  0  0
  184.1880  174.9000  136.2850 C   0  0  1  0  0  3  0  0  0  0  0  0
  183.9040  179.2830  142.1680 C   0  0  0  0  0  2  0  0  0  0  0  0
  184.8340  178.1990  142.6920 C   0  0  0  0  0  2  0  0  0  0  0  0
  184.8120  178.2030  144.2090 C   0  0  0  0  0  2  0  0  0  0  0  0
  188.4840  177.2500  144.4260 C   0  0  0  0  0  0  0  0  0  0  0  0
  188.6310  177.0370  145.9190 C   0  0  0  0  0  2  0  0  0  0  0  0
  187.6410  177.8200  146.6640 N   0  0  0  0  0  0  0  0  0  0  0  0
  187.3120  177.6380  143.9120 C   0  0  0  0  0  3  0  0  0  0  0  0
  186.3550  178.0930  146.1000 C   0  0  0  0  0  3  0  0  0  0  0  0
  186.1670  177.9570  144.7850 C   0  0  0  0  0  0  0  0  0  0  0  0
  187.8760  178.1040  148.0650 C   0  0  0  0  0  1  0  0  0  0  0  0
  189.5710  177.0740  143.5710 O   0  0  0  0  0  0  0  0  0  0  0  0
  189.8080  177.9320  142.4530 C   0  0  0  0  0  2  0  0  0  0  0  0
  189.9970  177.1440  141.1900 C   0  0  0  0  0  0  0  0  0  0  0  0
  189.5060  177.7050  139.8980 C   0  0  0  0  0  1  0  0  0  0  0  0
  190.5090  176.0380  141.2060 O   0  0  0  0  0  0  0  0  0  0  0  0
  1  7  1  1  0  0  0
  1  9  1  0  0  0  0
  2 16  1  0  0  0  0
  2 36  1  0  0  0  0
  4  6  1  0  0  0  0
  4  8  1  0  0  0  0
  5 18  1  6  0  0  0
  5  3  1  0  0  0  0
  5  1  1  0  0  0  0
  5 10  1  0  0  0  0
  6  2  1  0  0  0  0
  9  6  2  0  0  0  0
 10  3  1  6  0  0  0
 10  4  1  0  0  0  0
 11 13  1  0  0  0  0
 12 14  1  0  0  0  0
 14 13  2  0  0  0  0
 15 12  2  0  0  0  0
 15 16  1  0  0  0  0
 16 11  2  0  0  0  0
 17 18  2  0  0  0  0
 19 18  1  0  0  0  0
 20 22  2  0  0  0  0
 22 30  1  0  0  0  0
 22 21  1  0  0  0  0
 23 21  1  0  0  0  0
 25 33  1  0  0  0  0
 25 35  1  0  0  0  0
 26 24  1  0  0  0  0
 28 27  1  0  0  0  0
 29 23  2  0  0  0  0
 29 24  1  0  0  0  0
 30 31  1  0  0  0  0
 31 28  1  6  0  0  0
 31 32  1  0  0  0  0
 33 30  1  0  0  0  0
 34 26  1  0  0  0  0
 34 27  1  0  0  0  0
 35 19  1  6  0  0  0
 35 32  1  0  0  0  0
 36 37  1  0  0  0  0
 37 38  1  0  0  0  0
 38 44  1  0  0  0  0
 39 40  1  0  0  0  0
 40 41  1  0  0  0  0
 41 45  1  0  0  0  0
 42 39  2  0  0  0  0
 42 44  1  0  0  0  0
 43 41  1  0  0  0  0
 44 43  2  0  0  0  0
 46 39  1  0  0  0  0
 47 46  1  0  0  0  0
 48 50  2  0  0  0  0
 48 47  1  0  0  0  0
 49 48  1  0  0  0  0
M  END
>  <MODEL>
3

>  <REMARK>
 VINA RESULT:      -7.5      1.569      2.530
  Name = 
  10 active torsions:
  status: ('A' for Active; 'I' for Inactive)
    1  A    between atoms: C_2  and  C_7
    2  A    between atoms: C_2  and  O_42
    3  A    between atoms: C_5  and  O_42
    4  A    between atoms: C_9  and  C_44
    5  A    between atoms: C_9  and  C_50
    6  A    between atoms: N_10  and  C_26
    7  A    between atoms: N_10  and  C_38
    8  A    between atoms: C_22  and  C_30
    9  A    between atoms: C_26  and  C_50
   10  A    between atoms: C_47  and  N_49
                            x       y       z     vdW  Elec       q    Type
                         _______ _______ _______ _____ _____    ______ ____

>  <TORSDO>
F 10

$$$$
=
 OpenBabel11042413223D

 50 55  0  0  1  0  0  0  0  0999 V2000
  187.9870  177.4770  140.7990 C   0  0  2  0  0  3  0  0  0  0  0  0
  188.6100  177.3980  144.4880 N   0  0  0  0  0  0  0  0  0  0  0  0
  190.5320  177.0000  140.7710 C   0  0  0  0  0  2  0  0  0  0  0  0
  189.8990  178.4800  142.6300 N   0  0  0  0  0  0  0  0  0  0  0  0
  189.3870  177.8550  140.2660 C   0  0  2  0  0  0  0  0  0  0  0  0
  188.8030  177.6650  143.0880 C   0  0  0  0  0  0  0  0  0  0  0  0
  186.9760  178.5840  140.5120 C   0  0  0  0  0  1  0  0  0  0  0  0
  190.4650  179.4910  143.5120 C   0  0  0  0  0  1  0  0  0  0  0  0
  187.9650  177.1730  142.2260 N   0  0  0  0  0  0  0  0  0  0  0  0
  190.3910  178.4490  141.2480 C   0  0  2  0  0  3  0  0  0  0  0  0
  190.8190  176.3110  144.7410 C   0  0  0  0  0  3  0  0  0  0  0  0
  190.7370  176.6990  147.5080 C   0  0  0  0  0  3  0  0  0  0  0  0
  191.8990  175.9150  145.5380 C   0  0  0  0  0  3  0  0  0  0  0  0
  191.8600  176.1100  146.9210 C   0  0  0  0  0  3  0  0  0  0  0  0
  189.6560  177.0910  146.7110 C   0  0  0  0  0  3  0  0  0  0  0  0
  189.6800  176.9010  145.3190 C   0  0  0  0  0  0  0  0  0  0  0  0
  189.2550  179.3900  138.4480 O   0  0  0  0  0  0  0  0  0  0  0  0
  189.5080  178.2060  138.8010 C   0  0  0  0  0  0  0  0  0  0  0  0
  189.9230  177.2770  137.7910 N   0  0  0  0  0  2  0  0  0  0  0  0
  191.6750  172.3800  134.5940 O   0  0  0  0  0  0  0  0  0  0  0  0
  193.6370  172.9460  135.8240 C   0  0  0  0  0  2  0  0  0  0  0  0
  192.1780  173.0850  135.5110 C   0  0  0  0  0  0  0  0  0  0  0  0
  194.4660  173.1830  134.6000 C   0  0  0  0  0  3  0  0  0  0  0  0
  196.2030  174.4220  135.8980 C   0  0  0  0  0  2  0  0  0  0  0  0
  189.3530  175.4170  136.3150 C   0  0  0  0  0  2  0  0  0  0  0  0
  196.0200  175.9360  135.9230 C   0  0  0  0  0  2  0  0  0  0  0  0
  193.9670  175.9260  137.1640 O   0  0  0  0  0  0  0  0  0  0  0  0
  192.6000  175.9890  136.9060 C   0  0  0  0  0  2  0  0  0  0  0  0
  195.6380  173.8290  134.6370 C   0  0  0  0  0  3  0  0  0  0  0  0
  191.3460  173.9790  136.2700 N   0  0  0  0  0  0  0  0  0  0  0  0
  191.9010  174.7290  137.4070 C   0  0  2  0  0  3  0  0  0  0  0  0
  190.7950  175.0840  138.4110 C   0  0  0  0  0  2  0  0  0  0  0  0
  189.9080  174.0290  135.9880 C   0  0  0  0  0  2  0  0  0  0  0  0
  194.5530  176.3410  135.9670 C   0  0  0  0  0  2  0  0  0  0  0  0
  189.6290  175.8490  137.7630 C   0  0  1  0  0  3  0  0  0  0  0  0
  187.2400  177.3560  144.9920 C   0  0  0  0  0  2  0  0  0  0  0  0
  186.5110  178.6430  144.6360 C   0  0  0  0  0  2  0  0  0  0  0  0
  185.1250  178.6290  145.2550 C   0  0  0  0  0  2  0  0  0  0  0  0
  183.4510  178.3400  141.8570 C   0  0  0  0  0  0  0  0  0  0  0  0
  182.0960  178.9490  142.1590 C   0  0  0  0  0  2  0  0  0  0  0  0
  181.7590  178.8090  143.5780 N   0  0  0  0  0  0  0  0  0  0  0  0
  184.3670  178.2190  142.8240 C   0  0  0  0  0  3  0  0  0  0  0  0
  182.7870  178.8120  144.5740 C   0  0  0  0  0  3  0  0  0  0  0  0
  184.0530  178.5830  144.2180 C   0  0  0  0  0  0  0  0  0  0  0  0
  180.3740  178.9160  143.9890 C   0  0  0  0  0  1  0  0  0  0  0  0
  183.7520  177.8730  140.5790 O   0  0  0  0  0  0  0  0  0  0  0  0
  182.8460  177.0590  139.8310 C   0  0  0  0  0  2  0  0  0  0  0  0
  183.4780  176.5600  138.5650 C   0  0  0  0  0  0  0  0  0  0  0  0
  182.9920  175.2880  137.9570 C   0  0  0  0  0  1  0  0  0  0  0  0
  184.4060  177.1550  138.0450 O   0  0  0  0  0  0  0  0  0  0  0  0
  1  7  1  1  0  0  0
  1  9  1  0  0  0  0
  2 36  1  0  0  0  0
  2 16  1  0  0  0  0
  4  6  1  0  0  0  0
  4  8  1  0  0  0  0
  5 18  1  6  0  0  0
  5  3  1  0  0  0  0
  5  1  1  0  0  0  0
  5 10  1  0  0  0  0
  6  2  1  0  0  0  0
  9  6  2  0  0  0  0
 10  3  1  1  0  0  0
 10  4  1  0  0  0  0
 11 16  2  0  0  0  0
 11 13  1  0  0  0  0
 13 14  2  0  0  0  0
 14 12  1  0  0  0  0
 15 12  2  0  0  0  0
 16 15  1  0  0  0  0
 17 18  2  0  0  0  0
 19 18  1  0  0  0  0
 20 22  2  0  0  0  0
 22 21  1  0  0  0  0
 22 30  1  0  0  0  0
 23 29  2  0  0  0  0
 23 21  1  0  0  0  0
 24 26  1  0  0  0  0
 25 35  1  0  0  0  0
 26 34  1  0  0  0  0
 28 27  1  0  0  0  0
 29 24  1  0  0  0  0
 30 31  1  0  0  0  0
 31 28  1  6  0  0  0
 31 32  1  0  0  0  0
 33 30  1  0  0  0  0
 33 25  1  0  0  0  0
 34 27  1  0  0  0  0
 35 19  1  6  0  0  0
 35 32  1  0  0  0  0
 37 36  1  0  0  0  0
 37 38  1  0  0  0  0
 39 40  1  0  0  0  0
 39 42  2  0  0  0  0
 40 41  1  0  0  0  0
 41 45  1  0  0  0  0
 41 43  1  0  0  0  0
 42 44  1  0  0  0  0
 44 43  2  0  0  0  0
 44 38  1  0  0  0  0
 46 39  1  0  0  0  0
 47 46  1  0  0  0  0
 48 47  1  0  0  0  0
 49 48  1  0  0  0  0
 50 48  2  0  0  0  0
M  END
>  <MODEL>
4

>  <REMARK>
 VINA RESULT:      -7.4      3.305      7.978
  Name = 
  10 active torsions:
  status: ('A' for Active; 'I' for Inactive)
    1  A    between atoms: C_2  and  C_7
    2  A    between atoms: C_2  and  O_42
    3  A    between atoms: C_5  and  O_42
    4  A    between atoms: C_9  and  C_44
    5  A    between atoms: C_9  and  C_50
    6  A    between atoms: N_10  and  C_26
    7  A    between atoms: N_10  and  C_38
    8  A    between atoms: C_22  and  C_30
    9  A    between atoms: C_26  and  C_50
   10  A    between atoms: C_47  and  N_49
                            x       y       z     vdW  Elec       q    Type
                         _______ _______ _______ _____ _____    ______ ____

>  <TORSDO>
F 10

$$$$
=
 OpenBabel11042413223D

 50 55  0  0  1  0  0  0  0  0999 V2000
  182.3770  178.4770  137.5650 C   0  0  2  0  0  3  0  0  0  0  0  0
  182.0290  178.6900  141.2840 N   0  0  0  0  0  0  0  0  0  0  0  0
  179.7940  178.3900  137.7370 C   0  0  0  0  0  2  0  0  0  0  0  0
  180.8770  177.2210  139.6110 N   0  0  0  0  0  0  0  0  0  0  0  0
  181.0590  177.7670  137.1800 C   0  0  2  0  0  0  0  0  0  0  0  0
  181.7960  178.2860  139.9240 C   0  0  0  0  0  0  0  0  0  0  0  0
  183.5840  177.5980  137.2500 C   0  0  0  0  0  1  0  0  0  0  0  0
  180.6160  176.1790  140.5940 C   0  0  0  0  0  1  0  0  0  0  0  0
  182.4370  178.8830  138.9650 N   0  0  0  0  0  0  0  0  0  0  0  0
  180.2880  177.0440  138.2780 C   0  0  2  0  0  3  0  0  0  0  0  0
  180.8450  178.3800  143.4360 C   0  0  0  0  0  3  0  0  0  0  0  0
  179.0190  180.3860  142.7660 C   0  0  0  0  0  3  0  0  0  0  0  0
  179.8460  178.7510  144.3420 C   0  0  0  0  0  3  0  0  0  0  0  0
  178.9340  179.7550  144.0090 C   0  0  0  0  0  3  0  0  0  0  0  0
  180.0160  180.0120  141.8580 C   0  0  0  0  0  3  0  0  0  0  0  0
  180.9400  179.0040  142.1790 C   0  0  0  0  0  0  0  0  0  0  0  0
  180.7770  178.1580  134.8460 O   0  0  0  0  0  0  0  0  0  0  0  0
  180.9100  177.2920  135.7530 C   0  0  0  0  0  0  0  0  0  0  0  0
  180.9410  175.9110  135.3670 N   0  0  0  0  0  2  0  0  0  0  0  0
  181.7210  169.8610  135.5970 O   0  0  0  0  0  0  0  0  0  0  0  0
  183.8130  170.7010  136.3730 C   0  0  0  0  0  2  0  0  0  0  0  0
  182.3790  170.8700  135.9730 C   0  0  0  0  0  0  0  0  0  0  0  0
  184.5990  170.0640  135.2680 C   0  0  0  0  0  3  0  0  0  0  0  0
  186.5790  171.5220  135.7070 C   0  0  0  0  0  2  0  0  0  0  0  0
  180.0050  173.6640  135.1850 C   0  0  0  0  0  2  0  0  0  0  0  0
  186.6380  172.7890  134.8600 C   0  0  0  0  0  2  0  0  0  0  0  0
  184.6820  173.8140  135.7950 O   0  0  0  0  0  0  0  0  0  0  0  0
  183.3290  173.9390  135.4880 C   0  0  0  0  0  2  0  0  0  0  0  0
  185.8580  170.4190  134.9830 C   0  0  0  0  0  3  0  0  0  0  0  0
  181.7410  172.1560  136.0520 N   0  0  0  0  0  0  0  0  0  0  0  0
  182.4700  173.3170  136.5850 C   0  0  2  0  0  3  0  0  0  0  0  0
  181.4910  174.3520  137.1600 C   0  0  0  0  0  2  0  0  0  0  0  0
  180.3160  172.2680  135.7290 C   0  0  0  0  0  2  0  0  0  0  0  0
  185.2570  173.3770  134.6020 C   0  0  0  0  0  2  0  0  0  0  0  0
  180.4250  174.7890  136.1420 C   0  0  1  0  0  3  0  0  0  0  0  0
  183.3900  179.0640  141.6620 C   0  0  0  0  0  2  0  0  0  0  0  0
  184.1040  177.8760  142.2900 C   0  0  0  0  0  2  0  0  0  0  0  0
  184.5970  178.2560  143.6740 C   0  0  0  0  0  2  0  0  0  0  0  0
  188.1920  177.3660  142.8240 C   0  0  0  0  0  0  0  0  0  0  0  0
  188.6950  176.9090  144.1790 C   0  0  0  0  0  2  0  0  0  0  0  0
  187.9320  177.5320  145.2640 N   0  0  0  0  0  0  0  0  0  0  0  0
  186.9370  177.8070  142.6850 C   0  0  0  0  0  3  0  0  0  0  0  0
  186.5520  177.8660  145.0850 C   0  0  0  0  0  3  0  0  0  0  0  0
  186.0460  177.9490  143.8520 C   0  0  0  0  0  0  0  0  0  0  0  0
  188.5070  177.5830  146.5930 C   0  0  0  0  0  1  0  0  0  0  0  0
  189.0330  177.3610  141.7130 O   0  0  0  0  0  0  0  0  0  0  0  0
  188.5290  177.3580  140.3760 C   0  0  0  0  0  2  0  0  0  0  0  0
  189.5490  177.8830  139.4070 C   0  0  0  0  0  0  0  0  0  0  0  0
  190.8360  177.1490  139.2320 C   0  0  0  0  0  1  0  0  0  0  0  0
  189.3610  178.9170  138.7900 O   0  0  0  0  0  0  0  0  0  0  0  0
  1  7  1  1  0  0  0
  1  9  1  0  0  0  0
  2 36  1  0  0  0  0
  2 16  1  0  0  0  0
  4  6  1  0  0  0  0
  4  8  1  0  0  0  0
  5 18  1  6  0  0  0
  5  1  1  0  0  0  0
  5  3  1  0  0  0  0
  5 10  1  0  0  0  0
  6  2  1  0  0  0  0
  9  6  2  0  0  0  0
 10  3  1  1  0  0  0
 10  4  1  0  0  0  0
 11 13  1  0  0  0  0
 12 14  1  0  0  0  0
 14 13  2  0  0  0  0
 15 16  1  0  0  0  0
 15 12  2  0  0  0  0
 16 11  2  0  0  0  0
 17 18  2  0  0  0  0
 19 18  1  0  0  0  0
 20 22  2  0  0  0  0
 22 30  1  0  0  0  0
 22 21  1  0  0  0  0
 23 21  1  0  0  0  0
 25 33  1  0  0  0  0
 25 35  1  0  0  0  0
 26 24  1  0  0  0  0
 28 27  1  0  0  0  0
 29 23  2  0  0  0  0
 29 24  1  0  0  0  0
 30 31  1  0  0  0  0
 31 28  1  6  0  0  0
 31 32  1  0  0  0  0
 33 30  1  0  0  0  0
 34 26  1  0  0  0  0
 34 27  1  0  0  0  0
 35 19  1  6  0  0  0
 35 32  1  0  0  0  0
 36 37  1  0  0  0  0
 37 38  1  0  0  0  0
 38 44  1  0  0  0  0
 39 40  1  0  0  0  0
 40 41  1  0  0  0  0
 41 45  1  0  0  0  0
 42 39  2  0  0  0  0
 42 44  1  0  0  0  0
 43 41  1  0  0  0  0
 44 43  2  0  0  0  0
 46 39  1  0  0  0  0
 47 46  1  0  0  0  0
 48 47  1  0  0  0  0
 49 48  1  0  0  0  0
 50 48  2  0  0  0  0
M  END
>  <MODEL>
5

>  <REMARK>
 VINA RESULT:      -7.0      2.188      3.374
  Name = 
  10 active torsions:
  status: ('A' for Active; 'I' for Inactive)
    1  A    between atoms: C_2  and  C_7
    2  A    between atoms: C_2  and  O_42
    3  A    between atoms: C_5  and  O_42
    4  A    between atoms: C_9  and  C_44
    5  A    between atoms: C_9  and  C_50
    6  A    between atoms: N_10  and  C_26
    7  A    between atoms: N_10  and  C_38
    8  A    between atoms: C_22  and  C_30
    9  A    between atoms: C_26  and  C_50
   10  A    between atoms: C_47  and  N_49
                            x       y       z     vdW  Elec       q    Type
                         _______ _______ _______ _____ _____    ______ ____

>  <TORSDO>
F 10

$$$$
=
 OpenBabel11042413223D

 50 55  0  0  1  0  0  0  0  0999 V2000
  185.0140  177.1370  138.1800 C   0  0  2  0  0  3  0  0  0  0  0  0
  182.6130  174.8620  136.4320 N   0  0  0  0  0  0  0  0  0  0  0  0
  182.9430  177.4930  139.6940 C   0  0  0  0  0  2  0  0  0  0  0  0
  182.3120  177.1810  137.3370 N   0  0  0  0  0  0  0  0  0  0  0  0
  184.0460  178.1260  138.8680 C   0  0  2  0  0  0  0  0  0  0  0  0
  183.1260  176.0090  137.1310 C   0  0  0  0  0  0  0  0  0  0  0  0
  185.8550  177.8440  137.1210 C   0  0  0  0  0  1  0  0  0  0  0  0
  181.2340  177.4840  136.4070 C   0  0  0  0  0  1  0  0  0  0  0  0
  184.3480  175.9920  137.5710 N   0  0  0  0  0  0  0  0  0  0  0  0
  182.6070  178.1830  138.3680 C   0  0  2  0  0  3  0  0  0  0  0  0
  180.4900  173.7550  135.8030 C   0  0  0  0  0  3  0  0  0  0  0  0
  179.8420  173.3770  138.4950 C   0  0  0  0  0  3  0  0  0  0  0  0
  179.3150  173.0820  136.1540 C   0  0  0  0  0  3  0  0  0  0  0  0
  178.9920  172.8910  137.5000 C   0  0  0  0  0  3  0  0  0  0  0  0
  181.0150  174.0540  138.1430 C   0  0  0  0  0  3  0  0  0  0  0  0
  181.3540  174.2550  136.7940 C   0  0  0  0  0  0  0  0  0  0  0  0
  184.1680  180.4820  139.2010 O   0  0  0  0  0  0  0  0  0  0  0  0
  184.6410  179.3560  139.5130 C   0  0  0  0  0  0  0  0  0  0  0  0
  185.6950  179.3150  140.4850 N   0  0  0  0  0  2  0  0  0  0  0  0
  190.2520  177.8300  144.2660 O   0  0  0  0  0  0  0  0  0  0  0  0
  188.3140  177.1200  145.4590 C   0  0  0  0  0  2  0  0  0  0  0  0
  189.0070  177.6270  144.2310 C   0  0  0  0  0  0  0  0  0  0  0  0
  188.5670  178.0270  146.6220 C   0  0  0  0  0  3  0  0  0  0  0  0
  186.2240  177.7760  147.4510 C   0  0  0  0  0  2  0  0  0  0  0  0
  188.0900  179.0950  140.9040 C   0  0  0  0  0  2  0  0  0  0  0  0
  185.2600  178.8550  146.9700 C   0  0  0  0  0  2  0  0  0  0  0  0
  185.3430  178.2590  144.6480 O   0  0  0  0  0  0  0  0  0  0  0  0
  186.0160  178.6620  143.4980 C   0  0  0  0  0  2  0  0  0  0  0  0
  187.6290  178.3040  147.5370 C   0  0  0  0  0  3  0  0  0  0  0  0
  188.2780  177.8450  143.0120 N   0  0  0  0  0  0  0  0  0  0  0  0
  186.8460  177.5150  142.9320 C   0  0  2  0  0  3  0  0  0  0  0  0
  186.4410  177.2160  141.4800 C   0  0  0  0  0  2  0  0  0  0  0  0
  189.0030  178.2650  141.8090 C   0  0  0  0  0  2  0  0  0  0  0  0
  185.5580  179.3050  145.5460 C   0  0  0  0  0  2  0  0  0  0  0  0
  186.7980  178.3610  140.5180 C   0  0  1  0  0  3  0  0  0  0  0  0
  183.5220  174.1410  135.5450 C   0  0  0  0  0  2  0  0  0  0  0  0
  183.7140  172.7150  136.0380 C   0  0  0  0  0  2  0  0  0  0  0  0
  184.8370  172.6780  137.0570 C   0  0  0  0  0  2  0  0  0  0  0  0
  188.0410  174.2630  135.7690 C   0  0  0  0  0  0  0  0  0  0  0  0
  188.5080  173.2000  134.7960 C   0  0  0  0  0  2  0  0  0  0  0  0
  187.9960  171.8790  135.1700 N   0  0  0  0  0  0  0  0  0  0  0  0
  186.9250  174.0810  136.4830 C   0  0  0  0  0  3  0  0  0  0  0  0
  186.7300  171.7480  135.8240 C   0  0  0  0  0  3  0  0  0  0  0  0
  186.1770  172.8110  136.4130 C   0  0  0  0  0  0  0  0  0  0  0  0
  188.6540  170.6940  134.6570 C   0  0  0  0  0  1  0  0  0  0  0  0
  188.7790  175.4300  135.9570 O   0  0  0  0  0  0  0  0  0  0  0  0
  190.1810  175.4090  136.2350 C   0  0  0  0  0  2  0  0  0  0  0  0
  190.4480  175.5490  137.7060 C   0  0  0  0  0  0  0  0  0  0  0  0
  189.7370  176.6060  138.4810 C   0  0  0  0  0  1  0  0  0  0  0  0
  191.2630  174.8390  138.2700 O   0  0  0  0  0  0  0  0  0  0  0  0
  1  7  1  6  0  0  0
  1  5  1  0  0  0  0
  2 16  1  0  0  0  0
  2  6  1  0  0  0  0
  4 10  1  0  0  0  0
  5 18  1  1  0  0  0
  5  3  1  0  0  0  0
  6  4  1  0  0  0  0
  6  9  2  0  0  0  0
  8  4  1  0  0  0  0
  9  1  1  0  0  0  0
 10  5  1  0  0  0  0
 10  3  1  1  0  0  0
 11 13  2  0  0  0  0
 11 16  1  0  0  0  0
 13 14  1  0  0  0  0
 14 12  2  0  0  0  0
 15 12  1  0  0  0  0
 16 15  2  0  0  0  0
 17 18  2  0  0  0  0
 18 19  1  0  0  0  0
 21 23  1  0  0  0  0
 22 20  2  0  0  0  0
 22 21  1  0  0  0  0
 23 29  2  0  0  0  0
 24 29  1  0  0  0  0
 25 33  1  0  0  0  0
 26 24  1  0  0  0  0
 27 34  1  0  0  0  0
 28 27  1  0  0  0  0
 30 22  1  0  0  0  0
 31 32  1  6  0  0  0
 31 30  1  0  0  0  0
 31 28  1  0  0  0  0
 33 30  1  0  0  0  0
 34 26  1  0  0  0  0
 35 19  1  1  0  0  0
 35 25  1  0  0  0  0
 35 32  1  0  0  0  0
 36 37  1  0  0  0  0
 36  2  1  0  0  0  0
 37 38  1  0  0  0  0
 39 46  1  0  0  0  0
 39 42  2  0  0  0  0
 40 41  1  0  0  0  0
 40 39  1  0  0  0  0
 41 43  1  0  0  0  0
 43 44  2  0  0  0  0
 44 42  1  0  0  0  0
 44 38  1  0  0  0  0
 45 41  1  0  0  0  0
 46 47  1  0  0  0  0
 47 48  1  0  0  0  0
 48 50  2  0  0  0  0
 48 49  1  0  0  0  0
M  END
>  <MODEL>
6

>  <REMARK>
 VINA RESULT:      -6.4      2.633      8.728
  Name = 
  10 active torsions:
  status: ('A' for Active; 'I' for Inactive)
    1  A    between atoms: C_2  and  C_7
    2  A    between atoms: C_2  and  O_42
    3  A    between atoms: C_5  and  O_42
    4  A    between atoms: C_9  and  C_44
    5  A    between atoms: C_9  and  C_50
    6  A    between atoms: N_10  and  C_26
    7  A    between atoms: N_10  and  C_38
    8  A    between atoms: C_22  and  C_30
    9  A    between atoms: C_26  and  C_50
   10  A    between atoms: C_47  and  N_49
                            x       y       z     vdW  Elec       q    Type
                         _______ _______ _______ _____ _____    ______ ____

>  <TORSDO>
F 10

$$$$
=
 OpenBabel11042413223D

 50 55  0  0  1  0  0  0  0  0999 V2000
  184.8540  178.3970  137.8720 C   0  0  2  0  0  3  0  0  0  0  0  0
  183.3770  178.5180  141.3070 N   0  0  0  0  0  0  0  0  0  0  0  0
  182.3460  178.2610  137.2400 C   0  0  0  0  0  2  0  0  0  0  0  0
  182.8280  177.0690  139.3370 N   0  0  0  0  0  0  0  0  0  0  0  0
  183.7350  177.6740  137.0890 C   0  0  2  0  0  0  0  0  0  0  0  0
  183.5820  178.1410  139.9350 C   0  0  0  0  0  0  0  0  0  0  0  0
  186.1190  177.5460  137.9280 C   0  0  0  0  0  1  0  0  0  0  0  0
  182.3030  176.0000  140.1740 C   0  0  0  0  0  1  0  0  0  0  0  0
  184.4720  178.7710  139.2290 N   0  0  0  0  0  0  0  0  0  0  0  0
  182.6810  176.9120  137.8850 C   0  0  2  0  0  3  0  0  0  0  0  0
  181.7460  178.5010  143.1700 C   0  0  0  0  0  3  0  0  0  0  0  0
  179.8550  179.8050  141.5770 C   0  0  0  0  0  3  0  0  0  0  0  0
  180.5010  178.8530  143.7030 C   0  0  0  0  0  3  0  0  0  0  0  0
  179.5560  179.5060  142.9090 C   0  0  0  0  0  3  0  0  0  0  0  0
  181.0980  179.4500  141.0430 C   0  0  0  0  0  3  0  0  0  0  0  0
  182.0590  178.7920  141.8290 C   0  0  0  0  0  0  0  0  0  0  0  0
  183.8950  178.0630  134.7430 O   0  0  0  0  0  0  0  0  0  0  0  0
  184.0420  177.2290  135.6780 C   0  0  0  0  0  0  0  0  0  0  0  0
  184.5190  175.9190  135.3410 N   0  0  0  0  0  2  0  0  0  0  0  0
  186.2120  170.0560  135.1650 O   0  0  0  0  0  0  0  0  0  0  0  0
  188.1190  171.1360  136.1020 C   0  0  0  0  0  2  0  0  0  0  0  0
  186.6920  171.1190  135.6460 C   0  0  0  0  0  0  0  0  0  0  0  0
  189.0340  170.7160  134.9940 C   0  0  0  0  0  3  0  0  0  0  0  0
  190.7480  172.4150  135.6370 C   0  0  0  0  0  2  0  0  0  0  0  0
  183.9470  173.5780  134.9490 C   0  0  0  0  0  2  0  0  0  0  0  0
  190.6440  173.7410  134.8890 C   0  0  0  0  0  2  0  0  0  0  0  0
  188.5190  174.3820  135.7990 O   0  0  0  0  0  0  0  0  0  0  0  0
  187.1760  174.3250  135.4360 C   0  0  0  0  0  2  0  0  0  0  0  0
  190.2340  171.2780  134.7990 C   0  0  0  0  0  3  0  0  0  0  0  0
  185.8610  172.2840  135.7870 N   0  0  0  0  0  0  0  0  0  0  0  0
  186.3820  173.4950  136.4390 C   0  0  2  0  0  3  0  0  0  0  0  0
  185.2350  174.3210  137.0400 C   0  0  0  0  0  2  0  0  0  0  0  0
  184.4490  172.2060  135.4030 C   0  0  0  0  0  2  0  0  0  0  0  0
  189.1990  174.1330  134.6070 C   0  0  0  0  0  2  0  0  0  0  0  0
  184.1530  174.6740  136.0060 C   0  0  1  0  0  3  0  0  0  0  0  0
  184.5470  178.9060  142.0900 C   0  0  0  0  0  2  0  0  0  0  0  0
  185.1160  177.6960  142.8170 C   0  0  0  0  0  2  0  0  0  0  0  0
  186.1740  178.1510  143.8060 C   0  0  0  0  0  2  0  0  0  0  0  0
  189.0080  177.3170  141.4170 C   0  0  0  0  0  0  0  0  0  0  0  0
  190.0990  176.9390  142.3980 C   0  0  0  0  0  2  0  0  0  0  0  0
  189.8950  177.5930  143.6930 N   0  0  0  0  0  0  0  0  0  0  0  0
  187.8110  177.7170  141.8600 C   0  0  0  0  0  3  0  0  0  0  0  0
  188.5750  177.8810  144.1640 C   0  0  0  0  0  3  0  0  0  0  0  0
  187.5540  177.8910  143.3030 C   0  0  0  0  0  0  0  0  0  0  0  0
  191.0150  177.7220  144.6040 C   0  0  0  0  0  1  0  0  0  0  0  0
  189.2420  177.2810  140.0440 O   0  0  0  0  0  0  0  0  0  0  0  0
  190.5580  177.3490  139.4920 C   0  0  0  0  0  2  0  0  0  0  0  0
  190.5710  176.9180  138.0540 C   0  0  0  0  0  0  0  0  0  0  0  0
  191.7570  176.1900  137.5200 C   0  0  0  0  0  1  0  0  0  0  0  0
  189.6460  177.1850  137.3070 O   0  0  0  0  0  0  0  0  0  0  0  0
  1  7  1  1  0  0  0
  1  9  1  0  0  0  0
  2 16  1  0  0  0  0
  2 36  1  0  0  0  0
  4  6  1  0  0  0  0
  4  8  1  0  0  0  0
  5 18  1  6  0  0  0
  5  3  1  0  0  0  0
  5  1  1  0  0  0  0
  5 10  1  0  0  0  0
  6  2  1  0  0  0  0
  9  6  2  0  0  0  0
 10  3  1  6  0  0  0
 10  4  1  0  0  0  0
 11 13  1  0  0  0  0
 12 14  1  0  0  0  0
 14 13  2  0  0  0  0
 15 12  2  0  0  0  0
 15 16  1  0  0  0  0
 16 11  2  0  0  0  0
 17 18  2  0  0  0  0
 19 18  1  0  0  0  0
 20 22  2  0  0  0  0
 22 30  1  0  0  0  0
 22 21  1  0  0  0  0
 23 21  1  0  0  0  0
 25 33  1  0  0  0  0
 25 35  1  0  0  0  0
 26 24  1  0  0  0  0
 28 27  1  0  0  0  0
 29 23  2  0  0  0  0
 29 24  1  0  0  0  0
 30 31  1  0  0  0  0
 31 28  1  6  0  0  0
 31 32  1  0  0  0  0
 33 30  1  0  0  0  0
 34 26  1  0  0  0  0
 34 27  1  0  0  0  0
 35 19  1  6  0  0  0
 35 32  1  0  0  0  0
 36 37  1  0  0  0  0
 37 38  1  0  0  0  0
 39 42  2  0  0  0  0
 39 40  1  0  0  0  0
 40 41  1  0  0  0  0
 41 43  1  0  0  0  0
 41 45  1  0  0  0  0
 42 44  1  0  0  0  0
 44 38  1  0  0  0  0
 44 43  2  0  0  0  0
 46 39  1  0  0  0  0
 47 46  1  0  0  0  0
 48 47  1  0  0  0  0
 49 48  1  0  0  0  0
 50 48  2  0  0  0  0
M  END
>  <MODEL>
7

>  <REMARK>
 VINA RESULT:      -6.4      1.929      3.100
  Name = 
  10 active torsions:
  status: ('A' for Active; 'I' for Inactive)
    1  A    between atoms: C_2  and  C_7
    2  A    between atoms: C_2  and  O_42
    3  A    between atoms: C_5  and  O_42
    4  A    between atoms: C_9  and  C_44
    5  A    between atoms: C_9  and  C_50
    6  A    between atoms: N_10  and  C_26
    7  A    between atoms: N_10  and  C_38
    8  A    between atoms: C_22  and  C_30
    9  A    between atoms: C_26  and  C_50
   10  A    between atoms: C_47  and  N_49
                            x       y       z     vdW  Elec       q    Type
                         _______ _______ _______ _____ _____    ______ ____

>  <TORSDO>
F 10

$$$$
=
 OpenBabel11042413223D

 50 55  0  0  1  0  0  0  0  0999 V2000
  183.8920  178.5100  139.3240 C   0  0  2  0  0  3  0  0  0  0  0  0
  181.6910  177.0460  136.6760 N   0  0  0  0  0  0  0  0  0  0  0  0
  182.6530  176.7420  140.7560 C   0  0  0  0  0  2  0  0  0  0  0  0
  181.1890  177.7180  139.0380 N   0  0  0  0  0  0  0  0  0  0  0  0
  183.0810  178.1880  140.6000 C   0  0  2  0  0  0  0  0  0  0  0  0
  182.1200  177.5510  137.9510 C   0  0  0  0  0  0  0  0  0  0  0  0
  183.9740  180.0160  139.0940 C   0  0  0  0  0  1  0  0  0  0  0  0
  179.7790  177.9460  138.7530 C   0  0  0  0  0  1  0  0  0  0  0  0
  183.3670  177.8740  138.1200 N   0  0  0  0  0  0  0  0  0  0  0  0
  181.6100  177.8200  140.4400 C   0  0  2  0  0  3  0  0  0  0  0  0
  179.8560  175.7390  135.6500 C   0  0  0  0  0  3  0  0  0  0  0  0
  180.6110  173.4700  137.0960 C   0  0  0  0  0  3  0  0  0  0  0  0
  179.1720  174.5320  135.4690 C   0  0  0  0  0  3  0  0  0  0  0  0
  179.5500  173.3960  136.1900 C   0  0  0  0  0  3  0  0  0  0  0  0
  181.2920  174.6780  137.2790 C   0  0  0  0  0  3  0  0  0  0  0  0
  180.9230  175.8290  136.5620 C   0  0  0  0  0  0  0  0  0  0  0  0
  182.8390  179.7460  142.3870 O   0  0  0  0  0  0  0  0  0  0  0  0
  183.5360  178.8170  141.8960 C   0  0  0  0  0  0  0  0  0  0  0  0
  184.7030  178.3980  142.6180 N   0  0  0  0  0  2  0  0  0  0  0  0
  190.6710  178.6730  143.8720 O   0  0  0  0  0  0  0  0  0  0  0  0
  189.8180  177.3000  145.6260 C   0  0  0  0  0  2  0  0  0  0  0  0
  189.6830  178.0290  144.3230 C   0  0  0  0  0  0  0  0  0  0  0  0
  190.2510  178.2350  146.7120 C   0  0  0  0  0  3  0  0  0  0  0  0
  188.7490  177.1430  148.3820 C   0  0  0  0  0  2  0  0  0  0  0  0
  186.9580  179.0680  141.9660 C   0  0  0  0  0  2  0  0  0  0  0  0
  187.3790  177.7970  148.5290 C   0  0  0  0  0  2  0  0  0  0  0  0
  186.6080  177.2780  146.3180 O   0  0  0  0  0  0  0  0  0  0  0  0
  186.5250  177.9020  145.0750 C   0  0  0  0  0  2  0  0  0  0  0  0
  189.7870  178.1480  147.9650 C   0  0  0  0  0  3  0  0  0  0  0  0
  188.4610  177.9680  143.5690 N   0  0  0  0  0  0  0  0  0  0  0  0
  187.3400  177.1380  144.0360 C   0  0  2  0  0  3  0  0  0  0  0  0
  186.4520  176.7150  142.8550 C   0  0  0  0  0  2  0  0  0  0  0  0
  188.3930  178.6270  142.2620 C   0  0  0  0  0  2  0  0  0  0  0  0
  186.8460  178.3280  147.2050 C   0  0  0  0  0  2  0  0  0  0  0  0
  185.9480  177.9130  142.0340 C   0  0  1  0  0  3  0  0  0  0  0  0
  182.2920  177.6240  135.4760 C   0  0  0  0  0  2  0  0  0  0  0  0
  183.2510  176.6290  134.8400 C   0  0  0  0  0  2  0  0  0  0  0  0
  184.6760  177.1290  134.9950 C   0  0  0  0  0  2  0  0  0  0  0  0
  187.6980  175.6450  136.7560 C   0  0  0  0  0  0  0  0  0  0  0  0
  187.2200  174.2250  136.9840 C   0  0  0  0  0  2  0  0  0  0  0  0
  185.7570  174.1640  137.0480 N   0  0  0  0  0  0  0  0  0  0  0  0
  186.8970  176.5400  136.1690 C   0  0  0  0  0  3  0  0  0  0  0  0
  184.9570  175.0790  136.2930 C   0  0  0  0  0  3  0  0  0  0  0  0
  185.5050  176.2000  135.8170 C   0  0  0  0  0  0  0  0  0  0  0  0
  185.1250  173.0230  137.6790 C   0  0  0  0  0  1  0  0  0  0  0  0
  188.9640  176.0470  137.1770 O   0  0  0  0  0  0  0  0  0  0  0  0
  189.4000  177.4050  137.0930 C   0  0  0  0  0  2  0  0  0  0  0  0
  189.4730  178.0400  138.4510 C   0  0  0  0  0  0  0  0  0  0  0  0
  190.3740  177.4550  139.4850 C   0  0  0  0  0  1  0  0  0  0  0  0
  188.7810  179.0030  138.7360 O   0  0  0  0  0  0  0  0  0  0  0  0
  1  7  1  6  0  0  0
  1  5  1  0  0  0  0
  2  6  1  0  0  0  0
  4 10  1  0  0  0  0
  5  3  1  0  0  0  0
  5 18  1  1  0  0  0
  6  9  2  0  0  0  0
  6  4  1  0  0  0  0
  8  4  1  0  0  0  0
  9  1  1  0  0  0  0
 10  5  1  0  0  0  0
 10  3  1  6  0  0  0
 11 16  1  0  0  0  0
 12 15  1  0  0  0  0
 13 11  2  0  0  0  0
 13 14  1  0  0  0  0
 14 12  2  0  0  0  0
 16  2  1  0  0  0  0
 16 15  2  0  0  0  0
 18 17  2  0  0  0  0
 18 19  1  0  0  0  0
 20 22  2  0  0  0  0
 21 23  1  0  0  0  0
 22 21  1  0  0  0  0
 23 29  2  0  0  0  0
 24 26  1  0  0  0  0
 25 35  1  0  0  0  0
 25 33  1  0  0  0  0
 27 34  1  0  0  0  0
 28 27  1  0  0  0  0
 29 24  1  0  0  0  0
 30 31  1  0  0  0  0
 30 22  1  0  0  0  0
 31 32  1  6  0  0  0
 31 28  1  0  0  0  0
 33 30  1  0  0  0  0
 34 26  1  0  0  0  0
 35 19  1  1  0  0  0
 35 32  1  0  0  0  0
 36  2  1  0  0  0  0
 37 38  1  0  0  0  0
 37 36  1  0  0  0  0
 38 44  1  0  0  0  0
 39 40  1  0  0  0  0
 39 46  1  0  0  0  0
 40 41  1  0  0  0  0
 41 45  1  0  0  0  0
 42 39  2  0  0  0  0
 43 41  1  0  0  0  0
 44 42  1  0  0  0  0
 44 43  2  0  0  0  0
 47 46  1  0  0  0  0
 47 48  1  0  0  0  0
 48 50  2  0  0  0  0
 48 49  1  0  0  0  0
M  END
>  <MODEL>
8

>  <REMARK>
 VINA RESULT:      -6.1      2.634      8.671
  Name = 
  10 active torsions:
  status: ('A' for Active; 'I' for Inactive)
    1  A    between atoms: C_2  and  C_7
    2  A    between atoms: C_2  and  O_42
    3  A    between atoms: C_5  and  O_42
    4  A    between atoms: C_9  and  C_44
    5  A    between atoms: C_9  and  C_50
    6  A    between atoms: N_10  and  C_26
    7  A    between atoms: N_10  and  C_38
    8  A    between atoms: C_22  and  C_30
    9  A    between atoms: C_26  and  C_50
   10  A    between atoms: C_47  and  N_49
                            x       y       z     vdW  Elec       q    Type
                         _______ _______ _______ _____ _____    ______ ____

>  <TORSDO>
F 10

$$$$
=
 OpenBabel11042413223D

 50 55  0  0  1  0  0  0  0  0999 V2000
  188.9750  177.4710  137.4700 C   0  0  2  0  0  3  0  0  0  0  0  0
  192.4030  175.9770  137.5930 N   0  0  0  0  0  0  0  0  0  0  0  0
  188.5700  175.4030  135.9650 C   0  0  0  0  0  2  0  0  0  0  0  0
  190.8320  176.3220  135.6700 N   0  0  0  0  0  0  0  0  0  0  0  0
  188.4470  176.9050  136.1320 C   0  0  2  0  0  0  0  0  0  0  0  0
  191.1320  176.4070  137.0770 C   0  0  0  0  0  0  0  0  0  0  0  0
  189.1200  178.9890  137.4000 C   0  0  0  0  0  1  0  0  0  0  0  0
  191.9150  176.3660  134.6970 C   0  0  0  0  0  1  0  0  0  0  0  0
  190.2450  176.8920  137.8920 N   0  0  0  0  0  0  0  0  0  0  0  0
  189.4620  176.3400  135.1440 C   0  0  2  0  0  3  0  0  0  0  0  0
  192.1700  173.7200  136.6050 C   0  0  0  0  0  3  0  0  0  0  0  0
  194.8520  173.1590  137.1560 C   0  0  0  0  0  3  0  0  0  0  0  0
  192.7250  172.4950  136.2170 C   0  0  0  0  0  3  0  0  0  0  0  0
  194.0660  172.2150  136.4910 C   0  0  0  0  0  3  0  0  0  0  0  0
  194.2950  174.3810  137.5480 C   0  0  0  0  0  3  0  0  0  0  0  0
  192.9480  174.6780  137.2810 C   0  0  0  0  0  0  0  0  0  0  0  0
  187.1890  178.2500  134.6220 O   0  0  0  0  0  0  0  0  0  0  0  0
  187.1460  177.4580  135.6010 C   0  0  0  0  0  0  0  0  0  0  0  0
  185.8580  177.1090  136.1290 N   0  0  0  0  0  2  0  0  0  0  0  0
  182.2270  179.3730  140.4830 O   0  0  0  0  0  0  0  0  0  0  0  0
  180.6800  178.4310  138.9320 C   0  0  0  0  0  2  0  0  0  0  0  0
  182.0660  178.6560  139.4570 C   0  0  0  0  0  0  0  0  0  0  0  0
  180.0010  179.7350  138.6540 C   0  0  0  0  0  3  0  0  0  0  0  0
  178.9340  178.8460  136.5790 C   0  0  0  0  0  2  0  0  0  0  0  0
  185.6050  178.1330  138.3310 C   0  0  0  0  0  2  0  0  0  0  0  0
  179.7140  179.1130  135.2960 C   0  0  0  0  0  2  0  0  0  0  0  0
  181.6050  177.7480  135.8560 O   0  0  0  0  0  0  0  0  0  0  0  0
  182.8770  177.9110  136.4000 C   0  0  0  0  0  2  0  0  0  0  0  0
  179.1920  179.9160  137.6030 C   0  0  0  0  0  3  0  0  0  0  0  0
  183.2000  178.0350  138.8290 N   0  0  0  0  0  0  0  0  0  0  0  0
  183.0120  177.1170  137.6950 C   0  0  2  0  0  3  0  0  0  0  0  0
  184.1830  176.1260  137.6040 C   0  0  0  0  0  2  0  0  0  0  0  0
  184.5310  178.2140  139.4180 C   0  0  0  0  0  2  0  0  0  0  0  0
  181.2200  179.0440  135.5100 C   0  0  0  0  0  2  0  0  0  0  0  0
  185.5490  176.8260  137.5260 C   0  0  1  0  0  3  0  0  0  0  0  0
  192.9980  176.7570  138.6750 C   0  0  0  0  0  2  0  0  0  0  0  0
  191.9460  177.0890  139.7230 C   0  0  0  0  0  2  0  0  0  0  0  0
  192.5930  177.1310  141.0950 C   0  0  0  0  0  2  0  0  0  0  0  0
  189.3710  178.1770  142.8170 C   0  0  0  0  0  0  0  0  0  0  0  0
  189.8330  178.2420  144.2590 C   0  0  0  0  0  2  0  0  0  0  0  0
  190.9760  177.3550  144.4880 N   0  0  0  0  0  0  0  0  0  0  0  0
  190.2210  177.8050  141.8530 C   0  0  0  0  0  3  0  0  0  0  0  0
  191.9200  177.0990  143.4430 C   0  0  0  0  0  3  0  0  0  0  0  0
  191.5900  177.3610  142.1760 C   0  0  0  0  0  0  0  0  0  0  0  0
  191.2870  176.9380  145.8400 C   0  0  0  0  0  1  0  0  0  0  0  0
  188.0530  178.4750  142.4770 O   0  0  0  0  0  0  0  0  0  0  0  0
  187.0060  177.5060  142.5660 C   0  0  0  0  0  2  0  0  0  0  0  0
  186.0510  177.8350  143.6760 C   0  0  0  0  0  0  0  0  0  0  0  0
  186.4320  177.5260  145.0840 C   0  0  0  0  0  1  0  0  0  0  0  0
  184.9540  178.3160  143.4440 O   0  0  0  0  0  0  0  0  0  0  0  0
  1  7  1  6  0  0  0
  1  9  1  0  0  0  0
  2 36  1  0  0  0  0
  3  5  1  0  0  0  0
  4  6  1  0  0  0  0
  5 18  1  6  0  0  0
  5  1  1  0  0  0  0
  6  2  1  0  0  0  0
  6  9  2  0  0  0  0
  8  4  1  0  0  0  0
 10  4  1  0  0  0  0
 10  3  1  1  0  0  0
 10  5  1  0  0  0  0
 11 16  1  0  0  0  0
 12 15  1  0  0  0  0
 13 14  1  0  0  0  0
 13 11  2  0  0  0  0
 14 12  2  0  0  0  0
 16 15  2  0  0  0  0
 16  2  1  0  0  0  0
 17 18  2  0  0  0  0
 18 19  1  0  0  0  0
 21 22  1  0  0  0  0
 22 20  2  0  0  0  0
 23 21  1  0  0  0  0
 24 29  1  0  0  0  0
 25 33  1  0  0  0  0
 26 34  1  0  0  0  0
 26 24  1  0  0  0  0
 27 28  1  0  0  0  0
 29 23  2  0  0  0  0
 30 33  1  0  0  0  0
 30 22  1  0  0  0  0
 31 28  1  6  0  0  0
 31 30  1  0  0  0  0
 32 31  1  0  0  0  0
 34 27  1  0  0  0  0
 35 19  1  6  0  0  0
 35 32  1  0  0  0  0
 35 25  1  0  0  0  0
 36 37  1  0  0  0  0
 37 38  1  0  0  0  0
 38 44  1  0  0  0  0
 39 40  1  0  0  0  0
 40 41  1  0  0  0  0
 41 45  1  0  0  0  0
 42 44  1  0  0  0  0
 42 39  2  0  0  0  0
 43 41  1  0  0  0  0
 44 43  2  0  0  0  0
 46 47  1  0  0  0  0
 46 39  1  0  0  0  0
 47 48  1  0  0  0  0
 48 49  1  0  0  0  0
 50 48  2  0  0  0  0
M  END
>  <MODEL>
9

>  <REMARK>
 VINA RESULT:      -6.1      3.127      8.930
  Name = 
  10 active torsions:
  status: ('A' for Active; 'I' for Inactive)
    1  A    between atoms: C_2  and  C_7
    2  A    between atoms: C_2  and  O_42
    3  A    between atoms: C_5  and  O_42
    4  A    between atoms: C_9  and  C_44
    5  A    between atoms: C_9  and  C_50
    6  A    between atoms: N_10  and  C_26
    7  A    between atoms: N_10  and  C_38
    8  A    between atoms: C_22  and  C_30
    9  A    between atoms: C_26  and  C_50
   10  A    between atoms: C_47  and  N_49
                            x       y       z     vdW  Elec       q    Type
                         _______ _______ _______ _____ _____    ______ ____

>  <TORSDO>
F 10

$$$$
