=
 OpenBabel11032419443D

 45 50  0  0  1  0  0  0  0  0999 V2000
  184.6080  179.4130  138.9070 C   0  0  0  0  0  2  0  0  0  0  0  0
  181.4510  176.5390  139.1730 C   0  0  0  0  0  0  0  0  0  0  0  0
  187.0700  178.5310  137.9450 O   0  0  0  0  0  0  0  0  0  0  0  0
  183.7000  179.3420  140.1280 C   0  0  1  0  0  3  0  0  0  0  0  0
  186.0630  177.2270  136.2300 C   0  0  2  0  0  3  0  0  0  0  0  0
  186.0160  177.9880  137.5110 C   0  0  0  0  0  0  0  0  0  0  0  0
  179.0120  176.0530  139.4400 C   0  0  0  0  0  2  0  0  0  0  0  0
  181.5760  175.2030  138.5500 C   0  0  0  0  0  0  0  0  0  0  0  0
  186.2190  175.7680  136.5660 C   0  0  0  0  0  2  0  0  0  0  0  0
  182.3480  178.7630  139.7430 C   0  0  0  0  0  2  0  0  0  0  0  0
  180.5940  174.3000  138.6320 C   0  0  0  0  0  3  0  0  0  0  0  0
  184.5690  173.9910  136.6390 N   0  0  0  0  0  0  0  0  0  0  0  0
  182.7680  174.9490  137.8160 N   0  0  0  0  0  0  0  0  0  0  0  0
  183.8220  175.8870  137.7110 C   0  0  0  0  0  0  0  0  0  0  0  0
  182.6220  172.7130  137.0560 O   0  0  0  0  0  0  0  0  0  0  0  0
  183.7270  177.1170  138.2800 C   0  0  0  0  0  0  0  0  0  0  0  0
  182.4730  177.4230  139.0690 C   0  0  0  0  0  0  0  0  0  0  0  0
  183.2600  173.7940  137.1620 C   0  0  0  0  0  0  0  0  0  0  0  0
  184.7940  178.1100  138.2580 N   0  0  0  0  0  0  0  0  0  0  0  0
  184.8970  175.2100  136.9480 C   0  0  0  0  0  0  0  0  0  0  0  0
  179.3540  174.5640  139.4410 C   0  0  0  0  0  2  0  0  0  0  0  0
  180.2030  176.8570  139.9620 C   0  0  0  0  0  2  0  0  0  0  0  0
  184.3360  178.6410  141.2950 C   0  0  0  0  0  0  0  0  0  0  0  0
  183.6940  177.8670  141.9900 O   0  0  0  0  0  0  0  0  0  0  0  0
  186.0550  178.9730  141.7000 S   0  0  0  0  0  0  0  0  0  0  0  0
  186.1780  178.6180  144.4510 C   0  0  1  0  0  3  0  0  0  0  0  0
  187.2190  178.0180  145.2650 N   0  0  0  0  0  2  0  0  0  0  0  0
  187.3460  177.0410  143.1020 N   0  0  0  0  0  2  0  0  0  0  0  0
  186.1490  177.8560  143.1470 C   0  0  2  0  0  3  0  0  0  0  0  0
  187.7430  176.8970  144.4940 C   0  0  0  0  0  2  0  0  0  0  0  0
  184.8420  178.5070  145.1660 C   0  0  0  0  0  2  0  0  0  0  0  0
  185.0500  178.4280  146.6680 C   0  0  0  0  0  1  0  0  0  0  0  0
  187.1390  177.6450  135.4420 O   0  0  0  0  0  0  0  0  0  0  0  0
  188.0410  176.5780  135.4670 C   0  0  0  0  0  2  0  0  0  0  0  0
  189.4460  177.0910  135.7260 C   0  0  0  0  0  2  0  0  0  0  0  0
  190.3500  175.9500  136.1600 C   0  0  0  0  0  2  0  0  0  0  0  0
  189.8280  175.3220  137.4400 C   0  0  0  0  0  2  0  0  0  0  0  0
  190.8720  175.3150  138.4530 N   0  0  0  0  0  2  0  0  0  0  0  0
  191.0640  176.6910  138.8900 C   0  0  2  0  0  3  0  0  0  0  0  0
  192.5160  176.9710  139.1140 C   0  0  0  0  0  0  0  0  0  0  0  0
  193.4240  176.7370  138.0910 O   0  0  0  0  0  0  0  0  0  0  0  0
  192.9180  177.4330  140.2140 O   0  0  0  0  0  1  0  0  0  0  0  0
  190.3230  176.1110  141.1730 F   0  0  0  0  0  0  0  0  0  0  0  0
  190.2620  176.9720  140.1260 C   0  0  0  0  0  0  0  0  0  0  0  0
  189.5570  177.9660  140.2000 O   0  0  0  0  0  0  0  0  0  0  0  0
  1  4  1  0  0  0  0
  2 22  1  0  0  0  0
  4 23  1  1  0  0  0
  5 33  1  6  0  0  0
  5  9  1  0  0  0  0
  5  6  1  0  0  0  0
  6  3  2  0  0  0  0
  6 19  1  0  0  0  0
  7 21  1  0  0  0  0
  7 22  1  0  0  0  0
  8 11  2  0  0  0  0
  8  2  1  0  0  0  0
  9 20  1  0  0  0  0
 10  4  1  0  0  0  0
 11 21  1  0  0  0  0
 12 20  2  0  0  0  0
 12 18  1  0  0  0  0
 13  8  1  0  0  0  0
 14 13  1  0  0  0  0
 14 16  2  0  0  0  0
 15 18  2  0  0  0  0
 16 17  1  0  0  0  0
 17  2  2  0  0  0  0
 17 10  1  0  0  0  0
 18 13  1  0  0  0  0
 19 16  1  0  0  0  0
 19  1  1  0  0  0  0
 20 14  1  0  0  0  0
 23 25  1  0  0  0  0
 23 24  2  0  0  0  0
 26 31  1  1  0  0  0
 26 27  1  0  0  0  0
 28 29  1  0  0  0  0
 28 30  1  0  0  0  0
 29 25  1  6  0  0  0
 29 26  1  0  0  0  0
 30 27  1  0  0  0  0
 31 32  1  0  0  0  0
 33 34  1  0  0  0  0
 34 35  1  0  0  0  0
 35 36  1  0  0  0  0
 36 37  1  0  0  0  0
 37 38  1  0  0  0  0
 39 38  1  1  0  0  0
 39 40  1  0  0  0  0
 39 44  1  0  0  0  0
 40 42  1  0  0  0  0
 41 40  2  0  0  0  0
 44 45  2  0  0  0  0
 44 43  1  0  0  0  0
M  END
>  <MODEL>
1

>  <REMARK>
 VINA RESULT:      -7.0      0.000      0.000
  Name = 
  13 active torsions:
  status: ('A' for Active; 'I' for Inactive)
    1  A    between atoms: CA_2  and  C_13
    2  A    between atoms: CA_2  and  N_41
    3  A    between atoms: CA_2  and  C_42
    4  A    between atoms: S_4  and  C_14
    5  A    between atoms: S_4  and  C_20
    6  A    between atoms: C_5  and  C_30
    7  A    between atoms: C_8  and  C_14
    8  A    between atoms: C_9  and  O_18
    9  A    between atoms: C_9  and  C_38
   10  A    between atoms: C_10  and  O_18
   11  A    between atoms: C_12  and  C_34
   12  A    between atoms: C_12  and  N_41
   13  A    between atoms: C_34  and  C_38
                            x       y       z     vdW  Elec       q    Type
                         _______ _______ _______ _____ _____    ______ ____

>  <TORSDO>
F 13

$$$$
=
 OpenBabel11032419443D

 45 50  0  0  1  0  0  0  0  0999 V2000
  186.8500  179.3820  141.6700 C   0  0  0  0  0  2  0  0  0  0  0  0
  182.6530  178.7060  142.1430 C   0  0  0  0  0  0  0  0  0  0  0  0
  188.1230  178.1150  139.5400 O   0  0  0  0  0  0  0  0  0  0  0  0
  186.2390  179.1100  143.0380 C   0  0  1  0  0  3  0  0  0  0  0  0
  186.3360  178.5850  138.0420 C   0  0  2  0  0  3  0  0  0  0  0  0
  186.9150  178.4610  139.4090 C   0  0  0  0  0  0  0  0  0  0  0  0
  180.4790  179.3700  143.1870 C   0  0  0  0  0  2  0  0  0  0  0  0
  181.8590  178.0390  141.0870 C   0  0  0  0  0  0  0  0  0  0  0  0
  185.6040  177.3070  137.7330 C   0  0  0  0  0  2  0  0  0  0  0  0
  184.7820  179.5440  143.0590 C   0  0  0  0  0  2  0  0  0  0  0  0
  180.5480  177.8230  141.2300 C   0  0  0  0  0  3  0  0  0  0  0  0
  183.2340  176.7960  137.8250 N   0  0  0  0  0  0  0  0  0  0  0  0
  182.5500  177.6910  139.8930 N   0  0  0  0  0  0  0  0  0  0  0  0
  183.9360  177.9100  139.7130 C   0  0  0  0  0  0  0  0  0  0  0  0
  180.9790  176.5920  138.5070 O   0  0  0  0  0  0  0  0  0  0  0  0
  184.6810  178.5170  140.6740 C   0  0  0  0  0  0  0  0  0  0  0  0
  183.9810  178.9020  141.9580 C   0  0  0  0  0  0  0  0  0  0  0  0
  182.1510  176.9950  138.7260 C   0  0  0  0  0  0  0  0  0  0  0  0
  186.1220  178.7240  140.5790 N   0  0  0  0  0  0  0  0  0  0  0  0
  184.2740  177.3340  138.3910 C   0  0  0  0  0  0  0  0  0  0  0  0
  179.8350  178.1620  142.5100 C   0  0  0  0  0  2  0  0  0  0  0  0
  181.9640  179.0970  143.4290 C   0  0  0  0  0  2  0  0  0  0  0  0
  186.4440  177.6950  143.5040 C   0  0  0  0  0  0  0  0  0  0  0  0
  185.6130  177.1380  144.2070 O   0  0  0  0  0  0  0  0  0  0  0  0
  187.9480  176.8220  143.0530 S   0  0  0  0  0  0  0  0  0  0  0  0
  190.3790  176.9370  144.3890 C   0  0  1  0  0  3  0  0  0  0  0  0
  190.6740  176.7590  145.7990 N   0  0  0  0  0  2  0  0  0  0  0  0
  188.4350  177.5360  145.6260 N   0  0  0  0  0  2  0  0  0  0  0  0
  189.0280  177.6070  144.3060 C   0  0  2  0  0  3  0  0  0  0  0  0
  189.5640  177.3640  146.5260 C   0  0  0  0  0  2  0  0  0  0  0  0
  191.4490  177.8050  143.7490 C   0  0  0  0  0  2  0  0  0  0  0  0
  191.0820  179.2730  143.8670 C   0  0  0  0  0  1  0  0  0  0  0  0
  187.3420  178.7930  137.0930 O   0  0  0  0  0  0  0  0  0  0  0  0
  187.4830  177.5630  136.4440 C   0  0  0  0  0  2  0  0  0  0  0  0
  188.7860  177.5350  135.6650 C   0  0  0  0  0  2  0  0  0  0  0  0
  189.5980  176.3080  136.0450 C   0  0  0  0  0  2  0  0  0  0  0  0
  189.2290  175.8450  137.4430 C   0  0  0  0  0  2  0  0  0  0  0  0
  190.3980  175.2910  138.1100 N   0  0  0  0  0  2  0  0  0  0  0  0
  191.3110  176.3950  138.3740 C   0  0  2  0  0  3  0  0  0  0  0  0
  192.7040  176.0260  137.9750 C   0  0  0  0  0  0  0  0  0  0  0  0
  193.0360  174.6900  137.7990 O   0  0  0  0  0  1  0  0  0  0  0  0
  193.5730  176.9180  137.7800 O   0  0  0  0  0  0  0  0  0  0  0  0
  191.9770  177.8600  140.2460 F   0  0  0  0  0  0  0  0  0  0  0  0
  191.2490  176.7990  139.8170 C   0  0  0  0  0  0  0  0  0  0  0  0
  190.5500  176.1840  140.6080 O   0  0  0  0  0  0  0  0  0  0  0  0
  1  4  1  0  0  0  0
  2 22  1  0  0  0  0
  4 10  1  0  0  0  0
  4 23  1  6  0  0  0
  5 33  1  6  0  0  0
  5  6  1  0  0  0  0
  6  3  2  0  0  0  0
  6 19  1  0  0  0  0
  7 22  1  0  0  0  0
  8 11  2  0  0  0  0
  8  2  1  0  0  0  0
  9  5  1  0  0  0  0
  9 20  1  0  0  0  0
 11 21  1  0  0  0  0
 12 20  2  0  0  0  0
 12 18  1  0  0  0  0
 13  8  1  0  0  0  0
 14 13  1  0  0  0  0
 14 16  2  0  0  0  0
 15 18  2  0  0  0  0
 16 17  1  0  0  0  0
 17  2  2  0  0  0  0
 17 10  1  0  0  0  0
 18 13  1  0  0  0  0
 19 16  1  0  0  0  0
 19  1  1  0  0  0  0
 20 14  1  0  0  0  0
 21  7  1  0  0  0  0
 23 24  2  0  0  0  0
 25 23  1  0  0  0  0
 26 31  1  1  0  0  0
 26 27  1  0  0  0  0
 27 30  1  0  0  0  0
 28 30  1  0  0  0  0
 29 25  1  6  0  0  0
 29 26  1  0  0  0  0
 29 28  1  0  0  0  0
 31 32  1  0  0  0  0
 34 33  1  0  0  0  0
 35 36  1  0  0  0  0
 35 34  1  0  0  0  0
 36 37  1  0  0  0  0
 37 38  1  0  0  0  0
 38 39  1  0  0  0  0
 39 40  1  1  0  0  0
 39 44  1  0  0  0  0
 41 40  1  0  0  0  0
 42 40  2  0  0  0  0
 44 43  1  0  0  0  0
 44 45  2  0  0  0  0
M  END
>  <MODEL>
2

>  <REMARK>
 VINA RESULT:      -6.9      2.182      3.322
  Name = 
  13 active torsions:
  status: ('A' for Active; 'I' for Inactive)
    1  A    between atoms: CA_2  and  C_13
    2  A    between atoms: CA_2  and  N_41
    3  A    between atoms: CA_2  and  C_42
    4  A    between atoms: S_4  and  C_14
    5  A    between atoms: S_4  and  C_20
    6  A    between atoms: C_5  and  C_30
    7  A    between atoms: C_8  and  C_14
    8  A    between atoms: C_9  and  O_18
    9  A    between atoms: C_9  and  C_38
   10  A    between atoms: C_10  and  O_18
   11  A    between atoms: C_12  and  C_34
   12  A    between atoms: C_12  and  N_41
   13  A    between atoms: C_34  and  C_38
                            x       y       z     vdW  Elec       q    Type
                         _______ _______ _______ _____ _____    ______ ____

>  <TORSDO>
F 13

$$$$
=
 OpenBabel11032419443D

 45 50  0  0  1  0  0  0  0  0999 V2000
  182.9930  178.4930  137.9240 C   0  0  0  0  0  2  0  0  0  0  0  0
  181.7170  174.4690  137.2370 C   0  0  0  0  0  0  0  0  0  0  0  0
  185.7170  178.9280  138.3150 O   0  0  0  0  0  0  0  0  0  0  0  0
  181.7570  177.9260  138.6090 C   0  0  1  0  0  3  0  0  0  0  0  0
  186.3240  177.4250  136.5750 C   0  0  2  0  0  3  0  0  0  0  0  0
  185.3530  177.9870  137.5550 C   0  0  0  0  0  0  0  0  0  0  0  0
  179.9380  172.8860  136.4720 C   0  0  0  0  0  2  0  0  0  0  0  0
  182.6930  173.3910  136.9650 C   0  0  0  0  0  0  0  0  0  0  0  0
  186.9280  176.1880  137.1820 C   0  0  0  0  0  2  0  0  0  0  0  0
  181.1570  176.8100  137.7670 C   0  0  0  0  0  2  0  0  0  0  0  0
  182.3000  172.1310  136.7520 C   0  0  0  0  0  3  0  0  0  0  0  0
  186.4140  173.8460  136.8100 N   0  0  0  0  0  0  0  0  0  0  0  0
  184.0610  173.7730  136.8890 N   0  0  0  0  0  0  0  0  0  0  0  0
  184.5050  175.0980  137.1080 C   0  0  0  0  0  0  0  0  0  0  0  0
  185.2910  171.7840  136.5270 O   0  0  0  0  0  0  0  0  0  0  0  0
  183.6230  176.1000  137.3620 C   0  0  0  0  0  0  0  0  0  0  0  0
  182.1590  175.7330  137.4510 C   0  0  0  0  0  0  0  0  0  0  0  0
  185.2540  173.0270  136.7230 C   0  0  0  0  0  0  0  0  0  0  0  0
  184.0130  177.4750  137.6520 N   0  0  0  0  0  0  0  0  0  0  0  0
  185.9830  175.0540  137.0250 C   0  0  0  0  0  0  0  0  0  0  0  0
  180.8550  171.7320  136.8720 C   0  0  0  0  0  2  0  0  0  0  0  0
  180.2510  174.1150  137.3260 C   0  0  0  0  0  2  0  0  0  0  0  0
  182.0060  177.5230  140.0360 C   0  0  0  0  0  0  0  0  0  0  0  0
  182.2960  176.3720  140.3230 O   0  0  0  0  0  0  0  0  0  0  0  0
  181.8350  178.7440  141.3430 S   0  0  0  0  0  0  0  0  0  0  0  0
  183.6800  179.3150  143.3380 C   0  0  1  0  0  3  0  0  0  0  0  0
  185.0410  179.8070  143.2320 N   0  0  0  0  0  2  0  0  0  0  0  0
  184.5440  178.6300  141.2280 N   0  0  0  0  0  2  0  0  0  0  0  0
  183.4460  178.4150  142.1480 C   0  0  2  0  0  3  0  0  0  0  0  0
  185.6140  179.1670  142.0540 C   0  0  0  0  0  2  0  0  0  0  0  0
  183.5150  178.5420  144.6350 C   0  0  0  0  0  2  0  0  0  0  0  0
  184.6920  178.7980  145.5580 C   0  0  0  0  0  1  0  0  0  0  0  0
  187.3330  178.3490  136.2880 O   0  0  0  0  0  0  0  0  0  0  0  0
  188.5050  177.7650  136.7750 C   0  0  0  0  0  2  0  0  0  0  0  0
  189.1560  178.6820  137.7960 C   0  0  0  0  0  2  0  0  0  0  0  0
  189.7490  177.8660  138.9310 C   0  0  0  0  0  2  0  0  0  0  0  0
  188.9520  178.0800  140.2050 C   0  0  0  0  0  2  0  0  0  0  0  0
  189.4190  177.1750  141.2440 N   0  0  0  0  0  2  0  0  0  0  0  0
  189.1980  177.8320  142.5250 C   0  0  2  0  0  3  0  0  0  0  0  0
  190.5020  178.1130  143.2000 C   0  0  0  0  0  0  0  0  0  0  0  0
  191.5140  177.1640  143.1570 O   0  0  0  0  0  0  0  0  0  0  0  0
  190.6970  179.2090  143.7910 O   0  0  0  0  0  1  0  0  0  0  0  0
  187.6330  177.5920  144.4200 F   0  0  0  0  0  0  0  0  0  0  0  0
  188.3040  177.0030  143.3980 C   0  0  0  0  0  0  0  0  0  0  0  0
  188.1720  175.8050  143.1980 O   0  0  0  0  0  0  0  0  0  0  0  0
  1  4  1  0  0  0  0
  2 22  1  0  0  0  0
  2 17  2  0  0  0  0
  4 23  1  1  0  0  0
  5 33  1  1  0  0  0
  5  9  1  0  0  0  0
  5  6  1  0  0  0  0
  6 19  1  0  0  0  0
  6  3  2  0  0  0  0
  7 21  1  0  0  0  0
  7 22  1  0  0  0  0
  8  2  1  0  0  0  0
 10  4  1  0  0  0  0
 11 21  1  0  0  0  0
 11  8  2  0  0  0  0
 12 20  2  0  0  0  0
 13  8  1  0  0  0  0
 13 14  1  0  0  0  0
 14 16  2  0  0  0  0
 15 18  2  0  0  0  0
 16 17  1  0  0  0  0
 16 19  1  0  0  0  0
 17 10  1  0  0  0  0
 18 12  1  0  0  0  0
 18 13  1  0  0  0  0
 19  1  1  0  0  0  0
 20 14  1  0  0  0  0
 20  9  1  0  0  0  0
 23 24  2  0  0  0  0
 23 25  1  0  0  0  0
 26 31  1  1  0  0  0
 27 26  1  0  0  0  0
 28 30  1  0  0  0  0
 28 29  1  0  0  0  0
 29 25  1  6  0  0  0
 29 26  1  0  0  0  0
 30 27  1  0  0  0  0
 31 32  1  0  0  0  0
 33 34  1  0  0  0  0
 34 35  1  0  0  0  0
 35 36  1  0  0  0  0
 36 37  1  0  0  0  0
 37 38  1  0  0  0  0
 39 38  1  6  0  0  0
 39 40  1  0  0  0  0
 39 44  1  0  0  0  0
 40 42  1  0  0  0  0
 41 40  2  0  0  0  0
 44 43  1  0  0  0  0
 45 44  2  0  0  0  0
M  END
>  <MODEL>
3

>  <REMARK>
 VINA RESULT:      -6.8      2.284      3.065
  Name = 
  13 active torsions:
  status: ('A' for Active; 'I' for Inactive)
    1  A    between atoms: CA_2  and  C_13
    2  A    between atoms: CA_2  and  N_41
    3  A    between atoms: CA_2  and  C_42
    4  A    between atoms: S_4  and  C_14
    5  A    between atoms: S_4  and  C_20
    6  A    between atoms: C_5  and  C_30
    7  A    between atoms: C_8  and  C_14
    8  A    between atoms: C_9  and  O_18
    9  A    between atoms: C_9  and  C_38
   10  A    between atoms: C_10  and  O_18
   11  A    between atoms: C_12  and  C_34
   12  A    between atoms: C_12  and  N_41
   13  A    between atoms: C_34  and  C_38
                            x       y       z     vdW  Elec       q    Type
                         _______ _______ _______ _____ _____    ______ ____

>  <TORSDO>
F 13

$$$$
=
 OpenBabel11032419443D

 45 50  0  0  1  0  0  0  0  0999 V2000
  184.6570  179.0030  138.4810 C   0  0  0  0  0  2  0  0  0  0  0  0
  181.7230  175.9360  137.9540 C   0  0  0  0  0  0  0  0  0  0  0  0
  187.3360  178.2370  138.4520 O   0  0  0  0  0  0  0  0  0  0  0  0
  183.4020  178.9510  139.3410 C   0  0  1  0  0  3  0  0  0  0  0  0
  187.0110  176.7520  136.6230 C   0  0  2  0  0  3  0  0  0  0  0  0
  186.5100  177.5920  137.7470 C   0  0  0  0  0  0  0  0  0  0  0  0
  179.3570  175.2960  137.4550 C   0  0  0  0  0  2  0  0  0  0  0  0
  182.1070  174.5730  137.5240 C   0  0  0  0  0  0  0  0  0  0  0  0
  187.1130  175.3340  137.1170 C   0  0  0  0  0  2  0  0  0  0  0  0
  182.2790  178.2510  138.5900 C   0  0  0  0  0  2  0  0  0  0  0  0
  181.1940  173.6100  137.3600 C   0  0  0  0  0  3  0  0  0  0  0  0
  185.6140  173.4530  136.8030 N   0  0  0  0  0  0  0  0  0  0  0  0
  183.4840  174.3570  137.2420 N   0  0  0  0  0  0  0  0  0  0  0  0
  184.4700  175.3580  137.4050 C   0  0  0  0  0  0  0  0  0  0  0  0
  183.6990  172.0700  136.6740 O   0  0  0  0  0  0  0  0  0  0  0  0
  184.1370  176.6130  137.8020 C   0  0  0  0  0  0  0  0  0  0  0  0
  182.6810  176.8820  138.1120 C   0  0  0  0  0  0  0  0  0  0  0  0
  184.2170  173.1980  136.8870 C   0  0  0  0  0  0  0  0  0  0  0  0
  185.1060  177.6760  138.0430 N   0  0  0  0  0  0  0  0  0  0  0  0
  185.7660  174.7100  137.0950 C   0  0  0  0  0  0  0  0  0  0  0  0
  179.7470  173.8390  137.6960 C   0  0  0  0  0  2  0  0  0  0  0  0
  180.2710  176.2170  138.2640 C   0  0  0  0  0  2  0  0  0  0  0  0
  183.6480  178.3760  140.7080 C   0  0  0  0  0  0  0  0  0  0  0  0
  182.9650  177.4580  141.1360 O   0  0  0  0  0  0  0  0  0  0  0  0
  184.9390  179.0760  141.7440 S   0  0  0  0  0  0  0  0  0  0  0  0
  183.3670  179.2160  144.0280 C   0  0  1  0  0  3  0  0  0  0  0  0
  183.7600  179.2560  145.4250 N   0  0  0  0  0  2  0  0  0  0  0  0
  185.4750  178.1260  144.2290 N   0  0  0  0  0  2  0  0  0  0  0  0
  184.3680  178.3350  143.3180 C   0  0  2  0  0  3  0  0  0  0  0  0
  184.9150  178.3750  145.5480 C   0  0  0  0  0  2  0  0  0  0  0  0
  181.9660  178.6420  143.9060 C   0  0  0  0  0  2  0  0  0  0  0  0
  181.0450  179.6300  143.2160 C   0  0  0  0  0  1  0  0  0  0  0  0
  188.2670  177.1920  136.1940 O   0  0  0  0  0  0  0  0  0  0  0  0
  189.0890  176.0650  136.2690 C   0  0  0  0  0  2  0  0  0  0  0  0
  190.4900  176.4710  136.6870 C   0  0  0  0  0  2  0  0  0  0  0  0
  190.4320  177.3920  137.8930 C   0  0  0  0  0  2  0  0  0  0  0  0
  190.3330  176.5790  139.1720 C   0  0  0  0  0  2  0  0  0  0  0  0
  190.5620  177.4350  140.3260 N   0  0  0  0  0  2  0  0  0  0  0  0
  189.7730  176.9000  141.4270 C   0  0  2  0  0  3  0  0  0  0  0  0
  188.9610  177.9840  142.0630 C   0  0  0  0  0  0  0  0  0  0  0  0
  188.8780  178.0550  143.4460 O   0  0  0  0  0  1  0  0  0  0  0  0
  188.3700  178.8430  141.3560 O   0  0  0  0  0  0  0  0  0  0  0  0
  191.8120  176.8220  142.8170 F   0  0  0  0  0  0  0  0  0  0  0  0
  190.6560  176.2240  142.4320 C   0  0  0  0  0  0  0  0  0  0  0  0
  190.3450  175.1440  142.9100 O   0  0  0  0  0  0  0  0  0  0  0  0
  1  4  1  0  0  0  0
  2 17  2  0  0  0  0
  2 22  1  0  0  0  0
  4 23  1  1  0  0  0
  5 33  1  1  0  0  0
  5  9  1  0  0  0  0
  5  6  1  0  0  0  0
  6 19  1  0  0  0  0
  6  3  2  0  0  0  0
  7 21  1  0  0  0  0
  7 22  1  0  0  0  0
  8  2  1  0  0  0  0
 10  4  1  0  0  0  0
 11  8  2  0  0  0  0
 11 21  1  0  0  0  0
 12 18  1  0  0  0  0
 12 20  2  0  0  0  0
 13 14  1  0  0  0  0
 13  8  1  0  0  0  0
 14 16  2  0  0  0  0
 15 18  2  0  0  0  0
 16 19  1  0  0  0  0
 16 17  1  0  0  0  0
 17 10  1  0  0  0  0
 18 13  1  0  0  0  0
 19  1  1  0  0  0  0
 20  9  1  0  0  0  0
 20 14  1  0  0  0  0
 23 24  2  0  0  0  0
 23 25  1  0  0  0  0
 26 31  1  1  0  0  0
 26 27  1  0  0  0  0
 27 30  1  0  0  0  0
 28 30  1  0  0  0  0
 29 25  1  6  0  0  0
 29 26  1  0  0  0  0
 29 28  1  0  0  0  0
 32 31  1  0  0  0  0
 33 34  1  0  0  0  0
 34 35  1  0  0  0  0
 35 36  1  0  0  0  0
 36 37  1  0  0  0  0
 37 38  1  0  0  0  0
 39 38  1  6  0  0  0
 39 40  1  0  0  0  0
 39 44  1  0  0  0  0
 40 41  1  0  0  0  0
 42 40  2  0  0  0  0
 44 43  1  0  0  0  0
 44 45  2  0  0  0  0
M  END
>  <MODEL>
4

>  <REMARK>
 VINA RESULT:      -6.8      1.802      2.479
  Name = 
  13 active torsions:
  status: ('A' for Active; 'I' for Inactive)
    1  A    between atoms: CA_2  and  C_13
    2  A    between atoms: CA_2  and  N_41
    3  A    between atoms: CA_2  and  C_42
    4  A    between atoms: S_4  and  C_14
    5  A    between atoms: S_4  and  C_20
    6  A    between atoms: C_5  and  C_30
    7  A    between atoms: C_8  and  C_14
    8  A    between atoms: C_9  and  O_18
    9  A    between atoms: C_9  and  C_38
   10  A    between atoms: C_10  and  O_18
   11  A    between atoms: C_12  and  C_34
   12  A    between atoms: C_12  and  N_41
   13  A    between atoms: C_34  and  C_38
                            x       y       z     vdW  Elec       q    Type
                         _______ _______ _______ _____ _____    ______ ____

>  <TORSDO>
F 13

$$$$
=
 OpenBabel11032419443D

 45 50  0  0  1  0  0  0  0  0999 V2000
  190.1770  178.1750  140.9860 C   0  0  0  0  0  2  0  0  0  0  0  0
  186.1580  178.2470  139.5240 C   0  0  0  0  0  0  0  0  0  0  0  0
  191.9350  176.3520  139.8240 O   0  0  0  0  0  0  0  0  0  0  0  0
  188.9890  178.2610  141.9350 C   0  0  1  0  0  3  0  0  0  0  0  0
  191.1310  176.8000  137.6310 C   0  0  2  0  0  3  0  0  0  0  0  0
  191.0140  176.8470  139.1160 C   0  0  0  0  0  0  0  0  0  0  0  0
  183.9540  179.4180  139.3720 C   0  0  0  0  0  2  0  0  0  0  0  0
  185.7780  177.5230  138.2910 C   0  0  0  0  0  0  0  0  0  0  0  0
  190.3430  175.6130  137.1440 C   0  0  0  0  0  2  0  0  0  0  0  0
  187.8040  178.9070  141.2360 C   0  0  0  0  0  2  0  0  0  0  0  0
  184.5230  177.5400  137.8300 C   0  0  0  0  0  3  0  0  0  0  0  0
  188.1220  175.4950  136.1770 N   0  0  0  0  0  0  0  0  0  0  0  0
  186.8230  176.8560  137.5940 N   0  0  0  0  0  0  0  0  0  0  0  0
  188.1590  176.8230  138.0570 C   0  0  0  0  0  0  0  0  0  0  0  0
  185.8110  175.7690  135.7520 O   0  0  0  0  0  0  0  0  0  0  0  0
  188.5260  177.4790  139.1890 C   0  0  0  0  0  0  0  0  0  0  0  0
  187.4420  178.2000  139.9580 C   0  0  0  0  0  0  0  0  0  0  0  0
  186.8290  176.0220  136.4490 C   0  0  0  0  0  0  0  0  0  0  0  0
  189.8710  177.4430  139.7520 N   0  0  0  0  0  0  0  0  0  0  0  0
  188.9020  175.9650  137.1040 C   0  0  0  0  0  0  0  0  0  0  0  0
  183.4190  178.2170  138.5940 C   0  0  0  0  0  2  0  0  0  0  0  0
  185.0840  178.9730  140.2990 C   0  0  0  0  0  2  0  0  0  0  0  0
  188.6520  176.9440  142.5780 C   0  0  0  0  0  0  0  0  0  0  0  0
  189.3450  175.9550  142.3870 O   0  0  0  0  0  0  0  0  0  0  0  0
  187.1870  176.8110  143.6100 S   0  0  0  0  0  0  0  0  0  0  0  0
  188.8430  176.9710  145.8330 C   0  0  1  0  0  3  0  0  0  0  0  0
  188.5060  177.1650  147.2310 N   0  0  0  0  0  2  0  0  0  0  0  0
  186.7810  178.1570  145.9320 N   0  0  0  0  0  2  0  0  0  0  0  0
  187.8430  177.7670  145.0270 C   0  0  2  0  0  3  0  0  0  0  0  0
  187.3850  178.0970  147.2530 C   0  0  0  0  0  2  0  0  0  0  0  0
  190.2560  177.4670  145.5740 C   0  0  0  0  0  2  0  0  0  0  0  0
  191.2300  176.8260  146.5450 C   0  0  0  0  0  1  0  0  0  0  0  0
  192.4670  176.6700  137.2410 O   0  0  0  0  0  0  0  0  0  0  0  0
  192.6360  175.3070  136.9830 C   0  0  0  0  0  2  0  0  0  0  0  0
  194.0480  174.8820  137.3420 C   0  0  0  0  0  2  0  0  0  0  0  0
  194.0890  173.3930  137.6410 C   0  0  0  0  0  2  0  0  0  0  0  0
  195.4120  173.0220  138.2880 C   0  0  0  0  0  2  0  0  0  0  0  0
  195.8660  174.1030  139.1500 N   0  0  0  0  0  2  0  0  0  0  0  0
  197.3210  174.1140  139.1040 C   0  0  2  0  0  3  0  0  0  0  0  0
  197.8690  175.0530  140.1300 C   0  0  0  0  0  0  0  0  0  0  0  0
  199.1780  174.9050  140.5660 O   0  0  0  0  0  0  0  0  0  0  0  0
  197.1600  175.9880  140.5890 O   0  0  0  0  0  1  0  0  0  0  0  0
  198.3290  173.5060  136.9330 F   0  0  0  0  0  0  0  0  0  0  0  0
  197.8050  174.4710  137.7300 C   0  0  0  0  0  0  0  0  0  0  0  0
  197.7290  175.6190  137.3210 O   0  0  0  0  0  0  0  0  0  0  0  0
  1  4  1  0  0  0  0
  2 17  2  0  0  0  0
  2 22  1  0  0  0  0
  4 23  1  6  0  0  0
  5 33  1  1  0  0  0
  5  6  1  0  0  0  0
  6 19  1  0  0  0  0
  6  3  2  0  0  0  0
  7 22  1  0  0  0  0
  8  2  1  0  0  0  0
  9  5  1  0  0  0  0
 10  4  1  0  0  0  0
 11  8  2  0  0  0  0
 11 21  1  0  0  0  0
 12 18  1  0  0  0  0
 12 20  2  0  0  0  0
 13 14  1  0  0  0  0
 13  8  1  0  0  0  0
 14 16  2  0  0  0  0
 15 18  2  0  0  0  0
 16 19  1  0  0  0  0
 16 17  1  0  0  0  0
 17 10  1  0  0  0  0
 18 13  1  0  0  0  0
 19  1  1  0  0  0  0
 20  9  1  0  0  0  0
 20 14  1  0  0  0  0
 21  7  1  0  0  0  0
 23 25  1  0  0  0  0
 24 23  2  0  0  0  0
 26 31  1  1  0  0  0
 26 27  1  0  0  0  0
 27 30  1  0  0  0  0
 28 30  1  0  0  0  0
 29 25  1  6  0  0  0
 29 26  1  0  0  0  0
 29 28  1  0  0  0  0
 31 32  1  0  0  0  0
 34 33  1  0  0  0  0
 34 35  1  0  0  0  0
 35 36  1  0  0  0  0
 36 37  1  0  0  0  0
 37 38  1  0  0  0  0
 39 44  1  6  0  0  0
 39 38  1  0  0  0  0
 39 40  1  0  0  0  0
 40 41  2  0  0  0  0
 40 42  1  0  0  0  0
 43 44  1  0  0  0  0
 45 44  2  0  0  0  0
M  END
>  <MODEL>
5

>  <REMARK>
 VINA RESULT:      -6.7      3.350      5.381
  Name = 
  13 active torsions:
  status: ('A' for Active; 'I' for Inactive)
    1  A    between atoms: CA_2  and  C_13
    2  A    between atoms: CA_2  and  N_41
    3  A    between atoms: CA_2  and  C_42
    4  A    between atoms: S_4  and  C_14
    5  A    between atoms: S_4  and  C_20
    6  A    between atoms: C_5  and  C_30
    7  A    between atoms: C_8  and  C_14
    8  A    between atoms: C_9  and  O_18
    9  A    between atoms: C_9  and  C_38
   10  A    between atoms: C_10  and  O_18
   11  A    between atoms: C_12  and  C_34
   12  A    between atoms: C_12  and  N_41
   13  A    between atoms: C_34  and  C_38
                            x       y       z     vdW  Elec       q    Type
                         _______ _______ _______ _____ _____    ______ ____

>  <TORSDO>
F 13

$$$$
=
 OpenBabel11032419443D

 45 50  0  0  1  0  0  0  0  0999 V2000
  186.0010  179.6250  142.0800 C   0  0  0  0  0  2  0  0  0  0  0  0
  181.8540  178.7710  142.6860 C   0  0  0  0  0  0  0  0  0  0  0  0
  187.2810  178.3440  139.9630 O   0  0  0  0  0  0  0  0  0  0  0  0
  185.4380  179.3740  143.4720 C   0  0  1  0  0  3  0  0  0  0  0  0
  185.4380  178.6760  138.4960 C   0  0  2  0  0  3  0  0  0  0  0  0
  186.0550  178.6270  139.8520 C   0  0  0  0  0  0  0  0  0  0  0  0
  179.6770  179.3690  143.7630 C   0  0  0  0  0  2  0  0  0  0  0  0
  181.0680  178.0300  141.6750 C   0  0  0  0  0  0  0  0  0  0  0  0
  184.7600  177.3550  138.2510 C   0  0  0  0  0  2  0  0  0  0  0  0
  183.9630  179.7390  143.5160 C   0  0  0  0  0  2  0  0  0  0  0  0
  179.7720  177.7580  141.8590 C   0  0  0  0  0  3  0  0  0  0  0  0
  182.4210  176.7360  138.4230 N   0  0  0  0  0  0  0  0  0  0  0  0
  181.7450  177.6720  140.4760 N   0  0  0  0  0  0  0  0  0  0  0  0
  183.1140  177.9490  140.2530 C   0  0  0  0  0  0  0  0  0  0  0  0
  180.1940  176.4510  139.1700 O   0  0  0  0  0  0  0  0  0  0  0  0
  183.8530  178.6240  141.1720 C   0  0  0  0  0  0  0  0  0  0  0  0
  183.1670  179.0220  142.4600 C   0  0  0  0  0  0  0  0  0  0  0  0
  181.3520  176.9170  139.3440 C   0  0  0  0  0  0  0  0  0  0  0  0
  185.2790  178.8950  141.0320 N   0  0  0  0  0  0  0  0  0  0  0  0
  183.4460  177.3420  138.9420 C   0  0  0  0  0  0  0  0  0  0  0  0
  179.0750  178.1090  143.1450 C   0  0  0  0  0  2  0  0  0  0  0  0
  181.1790  179.1750  143.9750 C   0  0  0  0  0  2  0  0  0  0  0  0
  185.7210  177.9880  143.9810 C   0  0  0  0  0  0  0  0  0  0  0  0
  186.1630  177.1230  143.2390 O   0  0  0  0  0  0  0  0  0  0  0  0
  185.3670  177.5840  145.6960 S   0  0  0  0  0  0  0  0  0  0  0  0
  188.0280  177.1510  146.3580 C   0  0  1  0  0  3  0  0  0  0  0  0
  188.6800  177.1830  147.6540 N   0  0  0  0  0  2  0  0  0  0  0  0
  186.7860  178.6150  147.7670 N   0  0  0  0  0  2  0  0  0  0  0  0
  186.9450  178.2030  146.3870 C   0  0  2  0  0  3  0  0  0  0  0  0
  188.0480  178.2640  148.4000 C   0  0  0  0  0  2  0  0  0  0  0  0
  189.0410  177.4540  145.2670 C   0  0  0  0  0  2  0  0  0  0  0  0
  190.4400  177.0850  145.7250 C   0  0  0  0  0  1  0  0  0  0  0  0
  186.4090  178.8960  137.5150 O   0  0  0  0  0  0  0  0  0  0  0  0
  186.6090  177.6480  136.9200 C   0  0  0  0  0  2  0  0  0  0  0  0
  188.0910  177.4130  136.6920 C   0  0  0  0  0  2  0  0  0  0  0  0
  188.6510  176.5070  137.7750 C   0  0  0  0  0  2  0  0  0  0  0  0
  190.0060  177.0130  138.2350 C   0  0  0  0  0  2  0  0  0  0  0  0
  190.3570  176.4090  139.5120 N   0  0  0  0  0  2  0  0  0  0  0  0
  190.5640  177.4910  140.4630 C   0  0  2  0  0  3  0  0  0  0  0  0
  191.9610  177.4580  140.9970 C   0  0  0  0  0  0  0  0  0  0  0  0
  192.1690  177.3690  142.3660 O   0  0  0  0  0  1  0  0  0  0  0  0
  192.9480  177.4920  140.2150 O   0  0  0  0  0  0  0  0  0  0  0  0
  189.1490  178.5620  142.1810 F   0  0  0  0  0  0  0  0  0  0  0  0
  189.5580  177.4200  141.5740 C   0  0  0  0  0  0  0  0  0  0  0  0
  189.1030  176.3460  141.9350 O   0  0  0  0  0  0  0  0  0  0  0  0
  1  4  1  0  0  0  0
  2 22  1  0  0  0  0
  4 10  1  0  0  0  0
  4 23  1  6  0  0  0
  5 33  1  6  0  0  0
  5  6  1  0  0  0  0
  6  3  2  0  0  0  0
  6 19  1  0  0  0  0
  7 22  1  0  0  0  0
  8 11  2  0  0  0  0
  8  2  1  0  0  0  0
  9  5  1  0  0  0  0
  9 20  1  0  0  0  0
 11 21  1  0  0  0  0
 12 20  2  0  0  0  0
 12 18  1  0  0  0  0
 13  8  1  0  0  0  0
 14 13  1  0  0  0  0
 14 16  2  0  0  0  0
 15 18  2  0  0  0  0
 16 17  1  0  0  0  0
 17  2  2  0  0  0  0
 17 10  1  0  0  0  0
 18 13  1  0  0  0  0
 19 16  1  0  0  0  0
 19  1  1  0  0  0  0
 20 14  1  0  0  0  0
 21  7  1  0  0  0  0
 23 25  1  0  0  0  0
 24 23  2  0  0  0  0
 26 31  1  6  0  0  0
 26 29  1  0  0  0  0
 26 27  1  0  0  0  0
 27 30  1  0  0  0  0
 28 30  1  0  0  0  0
 29 25  1  1  0  0  0
 29 28  1  0  0  0  0
 31 32  1  0  0  0  0
 34 33  1  0  0  0  0
 35 34  1  0  0  0  0
 35 36  1  0  0  0  0
 36 37  1  0  0  0  0
 37 38  1  0  0  0  0
 39 38  1  6  0  0  0
 39 40  1  0  0  0  0
 39 44  1  0  0  0  0
 40 41  1  0  0  0  0
 42 40  2  0  0  0  0
 44 45  2  0  0  0  0
 44 43  1  0  0  0  0
M  END
>  <MODEL>
6

>  <REMARK>
 VINA RESULT:      -6.4      2.376      3.541
  Name = 
  13 active torsions:
  status: ('A' for Active; 'I' for Inactive)
    1  A    between atoms: CA_2  and  C_13
    2  A    between atoms: CA_2  and  N_41
    3  A    between atoms: CA_2  and  C_42
    4  A    between atoms: S_4  and  C_14
    5  A    between atoms: S_4  and  C_20
    6  A    between atoms: C_5  and  C_30
    7  A    between atoms: C_8  and  C_14
    8  A    between atoms: C_9  and  O_18
    9  A    between atoms: C_9  and  C_38
   10  A    between atoms: C_10  and  O_18
   11  A    between atoms: C_12  and  C_34
   12  A    between atoms: C_12  and  N_41
   13  A    between atoms: C_34  and  C_38
                            x       y       z     vdW  Elec       q    Type
                         _______ _______ _______ _____ _____    ______ ____

>  <TORSDO>
F 13

$$$$
=
 OpenBabel11032419443D

 45 50  0  0  1  0  0  0  0  0999 V2000
  188.7800  176.5720  143.6970 C   0  0  0  0  0  2  0  0  0  0  0  0
  189.3540  176.8250  139.4660 C   0  0  0  0  0  0  0  0  0  0  0  0
  186.8740  178.2540  144.8380 O   0  0  0  0  0  0  0  0  0  0  0  0
  190.1740  176.5770  143.0850 C   0  0  1  0  0  3  0  0  0  0  0  0
  185.3210  177.8810  143.0760 C   0  0  2  0  0  3  0  0  0  0  0  0
  186.6910  177.8370  143.6610 C   0  0  0  0  0  0  0  0  0  0  0  0
  190.2810  175.8340  137.3660 C   0  0  0  0  0  2  0  0  0  0  0  0
  188.4150  177.5820  138.6090 C   0  0  0  0  0  0  0  0  0  0  0  0
  185.2160  179.1280  142.2410 C   0  0  0  0  0  2  0  0  0  0  0  0
  190.1260  176.0290  141.6670 C   0  0  0  0  0  2  0  0  0  0  0  0
  188.5900  177.6670  137.2870 C   0  0  0  0  0  3  0  0  0  0  0  0
  185.3870  179.4260  139.8390 N   0  0  0  0  0  0  0  0  0  0  0  0
  187.2900  178.1670  139.2550 N   0  0  0  0  0  0  0  0  0  0  0  0
  187.0780  178.0920  140.6520 C   0  0  0  0  0  0  0  0  0  0  0  0
  186.0930  179.3390  137.5830 O   0  0  0  0  0  0  0  0  0  0  0  0
  187.9320  177.4050  141.4550 C   0  0  0  0  0  0  0  0  0  0  0  0
  189.1400  176.7680  140.8040 C   0  0  0  0  0  0  0  0  0  0  0  0
  186.2460  179.0030  138.7870 C   0  0  0  0  0  0  0  0  0  0  0  0
  187.8050  177.3310  142.9060 N   0  0  0  0  0  0  0  0  0  0  0  0
  185.8620  178.8920  140.9250 C   0  0  0  0  0  0  0  0  0  0  0  0
  189.8010  177.0770  136.6190 C   0  0  0  0  0  2  0  0  0  0  0  0
  190.5620  176.1840  138.8270 C   0  0  0  0  0  2  0  0  0  0  0  0
  190.8550  177.9140  143.1820 C   0  0  0  0  0  0  0  0  0  0  0  0
  191.3680  178.4310  142.2010 O   0  0  0  0  0  0  0  0  0  0  0  0
  190.9510  178.7460  144.7720 S   0  0  0  0  0  0  0  0  0  0  0  0
  190.3410  177.5670  147.2100 C   0  0  1  0  0  3  0  0  0  0  0  0
  191.1850  176.7990  148.1080 N   0  0  0  0  0  2  0  0  0  0  0  0
  192.0550  176.5440  145.9110 N   0  0  0  0  0  2  0  0  0  0  0  0
  190.7910  177.2430  145.8040 C   0  0  2  0  0  3  0  0  0  0  0  0
  192.0590  175.9990  147.2590 C   0  0  0  0  0  2  0  0  0  0  0  0
  188.8880  177.1730  147.4120 C   0  0  0  0  0  2  0  0  0  0  0  0
  188.2900  177.9310  148.5820 C   0  0  0  0  0  1  0  0  0  0  0  0
  184.3510  177.9060  144.0830 O   0  0  0  0  0  0  0  0  0  0  0  0
  183.4850  178.9420  143.7230 C   0  0  0  0  0  2  0  0  0  0  0  0
  182.0770  178.6280  144.1940 C   0  0  0  0  0  2  0  0  0  0  0  0
  181.0610  179.3650  143.3390 C   0  0  0  0  0  2  0  0  0  0  0  0
  180.1910  178.3750  142.5840 C   0  0  0  0  0  2  0  0  0  0  0  0
  180.0170  178.8120  141.2080 N   0  0  0  0  0  2  0  0  0  0  0  0
  181.3440  178.9600  140.6270 C   0  0  2  0  0  3  0  0  0  0  0  0
  181.3210  179.9680  139.5220 C   0  0  0  0  0  0  0  0  0  0  0  0
  182.3440  179.9780  138.5830 O   0  0  0  0  0  0  0  0  0  0  0  0
  180.3750  180.7930  139.4250 O   0  0  0  0  0  1  0  0  0  0  0  0
  183.0570  177.1810  140.5940 F   0  0  0  0  0  0  0  0  0  0  0  0
  181.8610  177.6380  140.1430 C   0  0  0  0  0  0  0  0  0  0  0  0
  181.2170  176.9680  139.3510 O   0  0  0  0  0  0  0  0  0  0  0  0
  2 17  2  0  0  0  0
  4 23  1  6  0  0  0
  4  1  1  0  0  0  0
  5  6  1  0  0  0  0
  5 33  1  1  0  0  0
  6  3  2  0  0  0  0
  7 22  1  0  0  0  0
  8 13  1  0  0  0  0
  8  2  1  0  0  0  0
  9  5  1  0  0  0  0
 10  4  1  0  0  0  0
 11  8  2  0  0  0  0
 12 20  2  0  0  0  0
 13 14  1  0  0  0  0
 14 20  1  0  0  0  0
 14 16  2  0  0  0  0
 15 18  2  0  0  0  0
 16 19  1  0  0  0  0
 17 16  1  0  0  0  0
 17 10  1  0  0  0  0
 18 13  1  0  0  0  0
 18 12  1  0  0  0  0
 19  6  1  0  0  0  0
 19  1  1  0  0  0  0
 20  9  1  0  0  0  0
 21 11  1  0  0  0  0
 21  7  1  0  0  0  0
 22  2  1  0  0  0  0
 23 25  1  0  0  0  0
 24 23  2  0  0  0  0
 26 31  1  6  0  0  0
 26 27  1  0  0  0  0
 28 30  1  0  0  0  0
 29 25  1  6  0  0  0
 29 28  1  0  0  0  0
 29 26  1  0  0  0  0
 30 27  1  0  0  0  0
 31 32  1  0  0  0  0
 34 33  1  0  0  0  0
 34 35  1  0  0  0  0
 36 35  1  0  0  0  0
 37 36  1  0  0  0  0
 38 37  1  0  0  0  0
 39 40  1  6  0  0  0
 39 38  1  0  0  0  0
 41 40  2  0  0  0  0
 42 40  1  0  0  0  0
 44 43  1  0  0  0  0
 44 39  1  0  0  0  0
 45 44  2  0  0  0  0
M  END
>  <MODEL>
7

>  <REMARK>
 VINA RESULT:      -6.4      3.174      8.185
  Name = 
  13 active torsions:
  status: ('A' for Active; 'I' for Inactive)
    1  A    between atoms: CA_2  and  C_13
    2  A    between atoms: CA_2  and  N_41
    3  A    between atoms: CA_2  and  C_42
    4  A    between atoms: S_4  and  C_14
    5  A    between atoms: S_4  and  C_20
    6  A    between atoms: C_5  and  C_30
    7  A    between atoms: C_8  and  C_14
    8  A    between atoms: C_9  and  O_18
    9  A    between atoms: C_9  and  C_38
   10  A    between atoms: C_10  and  O_18
   11  A    between atoms: C_12  and  C_34
   12  A    between atoms: C_12  and  N_41
   13  A    between atoms: C_34  and  C_38
                            x       y       z     vdW  Elec       q    Type
                         _______ _______ _______ _____ _____    ______ ____

>  <TORSDO>
F 13

$$$$
=
 OpenBabel11032419443D

 45 50  0  0  1  0  0  0  0  0999 V2000
  189.6500  177.8770  136.9430 C   0  0  0  0  0  2  0  0  0  0  0  0
  185.5350  176.7710  137.3150 C   0  0  0  0  0  0  0  0  0  0  0  0
  191.5420  175.8330  137.0190 O   0  0  0  0  0  0  0  0  0  0  0  0
  188.6950  178.6630  137.8300 C   0  0  1  0  0  3  0  0  0  0  0  0
  190.2280  174.4090  135.6400 C   0  0  2  0  0  3  0  0  0  0  0  0
  190.4030  175.5910  136.5300 C   0  0  0  0  0  0  0  0  0  0  0  0
  183.1220  177.3820  137.0760 C   0  0  0  0  0  2  0  0  0  0  0  0
  185.1120  175.3560  137.2320 C   0  0  0  0  0  0  0  0  0  0  0  0
  189.6860  173.2800  136.4750 C   0  0  0  0  0  2  0  0  0  0  0  0
  187.2690  178.5230  137.3210 C   0  0  0  0  0  2  0  0  0  0  0  0
  183.8270  175.0040  137.3500 C   0  0  0  0  0  3  0  0  0  0  0  0
  187.4190  172.4460  136.7010 N   0  0  0  0  0  0  0  0  0  0  0  0
  186.1300  174.3980  136.9680 N   0  0  0  0  0  0  0  0  0  0  0  0
  187.4960  174.7420  136.8370 C   0  0  0  0  0  0  0  0  0  0  0  0
  185.0780  172.2790  136.9930 O   0  0  0  0  0  0  0  0  0  0  0  0
  187.9040  176.0360  136.9130 C   0  0  0  0  0  0  0  0  0  0  0  0
  186.8490  177.0840  137.1930 C   0  0  0  0  0  0  0  0  0  0  0  0
  186.1170  172.9840  136.8940 C   0  0  0  0  0  0  0  0  0  0  0  0
  189.2980  176.4560  136.8420 N   0  0  0  0  0  0  0  0  0  0  0  0
  188.2250  173.4650  136.6580 C   0  0  0  0  0  0  0  0  0  0  0  0
  182.7640  176.0190  137.6660 C   0  0  0  0  0  2  0  0  0  0  0  0
  184.4910  177.8260  137.5920 C   0  0  0  0  0  2  0  0  0  0  0  0
  188.8380  178.3310  139.2900 C   0  0  0  0  0  0  0  0  0  0  0  0
  187.9740  178.6470  140.0940 O   0  0  0  0  0  0  0  0  0  0  0  0
  190.3190  177.4920  139.8660 S   0  0  0  0  0  0  0  0  0  0  0  0
  191.0340  177.0640  142.5150 C   0  0  1  0  0  3  0  0  0  0  0  0
  190.5190  176.1030  143.4720 N   0  0  0  0  0  2  0  0  0  0  0  0
  188.7920  176.5470  141.9010 N   0  0  0  0  0  2  0  0  0  0  0  0
  189.8720  177.4760  141.6420 C   0  0  2  0  0  3  0  0  0  0  0  0
  189.0870  176.0010  143.2160 C   0  0  0  0  0  2  0  0  0  0  0  0
  191.6040  178.2640  143.2510 C   0  0  0  0  0  2  0  0  0  0  0  0
  190.5530  178.8800  144.1560 C   0  0  0  0  0  1  0  0  0  0  0  0
  191.4470  174.0300  135.0710 O   0  0  0  0  0  0  0  0  0  0  0  0
  191.7420  172.7900  135.6430 C   0  0  0  0  0  2  0  0  0  0  0  0
  193.2120  172.7260  136.0170 C   0  0  0  0  0  2  0  0  0  0  0  0
  194.0740  172.7890  134.7680 C   0  0  0  0  0  2  0  0  0  0  0  0
  195.4320  173.3840  135.0960 C   0  0  0  0  0  2  0  0  0  0  0  0
  195.3250  174.2690  136.2460 N   0  0  0  0  0  2  0  0  0  0  0  0
  196.4260  173.9490  137.1440 C   0  0  2  0  0  3  0  0  0  0  0  0
  195.9680  173.9920  138.5670 C   0  0  0  0  0  0  0  0  0  0  0  0
  195.2680  172.9150  139.0940 O   0  0  0  0  0  0  0  0  0  0  0  0
  196.2290  174.9850  139.2960 O   0  0  0  0  0  1  0  0  0  0  0  0
  198.8390  174.4690  137.2140 F   0  0  0  0  0  0  0  0  0  0  0  0
  197.5800  174.8800  136.9190 C   0  0  0  0  0  0  0  0  0  0  0  0
  197.3990  176.0010  136.4700 O   0  0  0  0  0  0  0  0  0  0  0  0
  1  4  1  0  0  0  0
  2 22  1  0  0  0  0
  4 23  1  1  0  0  0
  5 33  1  1  0  0  0
  5  9  1  0  0  0  0
  5  6  1  0  0  0  0
  6 19  1  0  0  0  0
  6  3  2  0  0  0  0
  7 22  1  0  0  0  0
  7 21  1  0  0  0  0
  8  2  1  0  0  0  0
  8 11  2  0  0  0  0
  9 20  1  0  0  0  0
 10  4  1  0  0  0  0
 11 21  1  0  0  0  0
 12 18  1  0  0  0  0
 13  8  1  0  0  0  0
 14 16  2  0  0  0  0
 14 13  1  0  0  0  0
 16 17  1  0  0  0  0
 17  2  2  0  0  0  0
 17 10  1  0  0  0  0
 18 13  1  0  0  0  0
 18 15  2  0  0  0  0
 19 16  1  0  0  0  0
 19  1  1  0  0  0  0
 20 12  2  0  0  0  0
 20 14  1  0  0  0  0
 23 25  1  0  0  0  0
 23 24  2  0  0  0  0
 26 31  1  1  0  0  0
 26 27  1  0  0  0  0
 28 30  1  0  0  0  0
 29 25  1  6  0  0  0
 29 28  1  0  0  0  0
 29 26  1  0  0  0  0
 30 27  1  0  0  0  0
 31 32  1  0  0  0  0
 33 34  1  0  0  0  0
 34 35  1  0  0  0  0
 36 37  1  0  0  0  0
 36 35  1  0  0  0  0
 37 38  1  0  0  0  0
 39 38  1  6  0  0  0
 39 40  1  0  0  0  0
 40 41  2  0  0  0  0
 40 42  1  0  0  0  0
 44 39  1  0  0  0  0
 44 43  1  0  0  0  0
 45 44  2  0  0  0  0
M  END
>  <MODEL>
8

>  <REMARK>
 VINA RESULT:      -6.3      3.414      5.141
  Name = 
  13 active torsions:
  status: ('A' for Active; 'I' for Inactive)
    1  A    between atoms: CA_2  and  C_13
    2  A    between atoms: CA_2  and  N_41
    3  A    between atoms: CA_2  and  C_42
    4  A    between atoms: S_4  and  C_14
    5  A    between atoms: S_4  and  C_20
    6  A    between atoms: C_5  and  C_30
    7  A    between atoms: C_8  and  C_14
    8  A    between atoms: C_9  and  O_18
    9  A    between atoms: C_9  and  C_38
   10  A    between atoms: C_10  and  O_18
   11  A    between atoms: C_12  and  C_34
   12  A    between atoms: C_12  and  N_41
   13  A    between atoms: C_34  and  C_38
                            x       y       z     vdW  Elec       q    Type
                         _______ _______ _______ _____ _____    ______ ____

>  <TORSDO>
F 13

$$$$
=
 OpenBabel11032419443D

 45 50  0  0  1  0  0  0  0  0999 V2000
  184.5170  179.1660  138.5790 C   0  0  0  0  0  2  0  0  0  0  0  0
  182.4270  176.1890  136.3280 C   0  0  0  0  0  0  0  0  0  0  0  0
  187.1520  178.6180  139.2980 O   0  0  0  0  0  0  0  0  0  0  0  0
  183.0790  178.7880  138.9070 C   0  0  1  0  0  3  0  0  0  0  0  0
  187.6640  177.6970  137.1660 C   0  0  2  0  0  3  0  0  0  0  0  0
  186.7060  178.1470  138.2140 C   0  0  0  0  0  0  0  0  0  0  0  0
  180.4750  175.5640  134.8950 C   0  0  0  0  0  2  0  0  0  0  0  0
  183.1390  175.0340  135.7380 C   0  0  0  0  0  0  0  0  0  0  0  0
  187.8280  176.2070  137.3000 C   0  0  0  0  0  2  0  0  0  0  0  0
  182.3780  178.2590  137.6650 C   0  0  0  0  0  2  0  0  0  0  0  0
  182.4910  174.0990  135.0350 C   0  0  0  0  0  3  0  0  0  0  0  0
  186.8250  174.3990  136.0320 N   0  0  0  0  0  0  0  0  0  0  0  0
  184.5500  174.9980  135.9090 N   0  0  0  0  0  0  0  0  0  0  0  0
  185.2620  175.9740  136.6460 C   0  0  0  0  0  0  0  0  0  0  0  0
  185.2950  172.9870  134.9090 O   0  0  0  0  0  0  0  0  0  0  0  0
  184.6250  177.0390  137.1980 C   0  0  0  0  0  0  0  0  0  0  0  0
  183.1230  177.1120  137.0360 C   0  0  0  0  0  0  0  0  0  0  0  0
  185.5320  174.0390  135.5590 C   0  0  0  0  0  0  0  0  0  0  0  0
  185.2860  178.0510  138.0140 N   0  0  0  0  0  0  0  0  0  0  0  0
  186.6750  175.5280  136.6580 C   0  0  0  0  0  0  0  0  0  0  0  0
  180.9940  174.1270  134.8910 C   0  0  0  0  0  2  0  0  0  0  0  0
  180.9270  176.2740  136.1710 C   0  0  0  0  0  2  0  0  0  0  0  0
  182.9670  177.8650  140.0890 C   0  0  0  0  0  0  0  0  0  0  0  0
  182.0040  177.1240  140.2190 O   0  0  0  0  0  0  0  0  0  0  0  0
  184.2470  177.8800  141.3490 S   0  0  0  0  0  0  0  0  0  0  0  0
  183.6360  178.6280  143.9520 C   0  0  1  0  0  3  0  0  0  0  0  0
  182.3530  178.6740  144.6290 N   0  0  0  0  0  2  0  0  0  0  0  0
  181.9510  178.9650  142.3050 N   0  0  0  0  0  2  0  0  0  0  0  0
  183.3840  179.0010  142.5110 C   0  0  2  0  0  3  0  0  0  0  0  0
  181.3860  179.1240  143.6350 C   0  0  0  0  0  2  0  0  0  0  0  0
  184.5930  179.6130  144.6020 C   0  0  0  0  0  2  0  0  0  0  0  0
  185.2750  178.9780  145.8000 C   0  0  0  0  0  1  0  0  0  0  0  0
  188.9040  178.3230  137.3240 O   0  0  0  0  0  0  0  0  0  0  0  0
  189.8010  177.2840  137.5850 C   0  0  0  0  0  2  0  0  0  0  0  0
  190.6270  177.6090  138.8170 C   0  0  0  0  0  2  0  0  0  0  0  0
  190.1810  176.7520  139.9890 C   0  0  0  0  0  2  0  0  0  0  0  0
  190.9520  177.1290  141.2410 C   0  0  0  0  0  2  0  0  0  0  0  0
  190.0800  177.8310  142.1710 N   0  0  0  0  0  2  0  0  0  0  0  0
  190.1980  177.1680  143.4620 C   0  0  2  0  0  3  0  0  0  0  0  0
  188.8450  176.8320  144.0020 C   0  0  0  0  0  0  0  0  0  0  0  0
  188.4660  177.3100  145.2480 O   0  0  0  0  0  1  0  0  0  0  0  0
  188.0400  176.1350  143.3280 O   0  0  0  0  0  0  0  0  0  0  0  0
  190.8810  179.3710  144.3450 F   0  0  0  0  0  0  0  0  0  0  0  0
  190.9690  178.0200  144.4260 C   0  0  0  0  0  0  0  0  0  0  0  0
  191.6730  177.5100  145.2840 O   0  0  0  0  0  0  0  0  0  0  0  0
  1  4  1  0  0  0  0
  2 17  2  0  0  0  0
  4 23  1  1  0  0  0
  5  9  1  0  0  0  0
  5 33  1  1  0  0  0
  5  6  1  0  0  0  0
  6  3  2  0  0  0  0
  7 22  1  0  0  0  0
  8 13  1  0  0  0  0
  8  2  1  0  0  0  0
 10  4  1  0  0  0  0
 11  8  2  0  0  0  0
 12 20  2  0  0  0  0
 13 14  1  0  0  0  0
 14 20  1  0  0  0  0
 14 16  2  0  0  0  0
 15 18  2  0  0  0  0
 16 19  1  0  0  0  0
 17 16  1  0  0  0  0
 17 10  1  0  0  0  0
 18 13  1  0  0  0  0
 18 12  1  0  0  0  0
 19  6  1  0  0  0  0
 19  1  1  0  0  0  0
 20  9  1  0  0  0  0
 21  7  1  0  0  0  0
 21 11  1  0  0  0  0
 22  2  1  0  0  0  0
 23 24  2  0  0  0  0
 23 25  1  0  0  0  0
 26 31  1  1  0  0  0
 26 27  1  0  0  0  0
 28 29  1  0  0  0  0
 28 30  1  0  0  0  0
 29 25  1  6  0  0  0
 29 26  1  0  0  0  0
 30 27  1  0  0  0  0
 31 32  1  0  0  0  0
 33 34  1  0  0  0  0
 34 35  1  0  0  0  0
 35 36  1  0  0  0  0
 36 37  1  0  0  0  0
 37 38  1  0  0  0  0
 39 38  1  6  0  0  0
 39 40  1  0  0  0  0
 39 44  1  0  0  0  0
 40 41  1  0  0  0  0
 42 40  2  0  0  0  0
 43 44  1  0  0  0  0
 44 45  2  0  0  0  0
M  END
>  <MODEL>
9

>  <REMARK>
 VINA RESULT:      -6.2      2.586      3.718
  Name = 
  13 active torsions:
  status: ('A' for Active; 'I' for Inactive)
    1  A    between atoms: CA_2  and  C_13
    2  A    between atoms: CA_2  and  N_41
    3  A    between atoms: CA_2  and  C_42
    4  A    between atoms: S_4  and  C_14
    5  A    between atoms: S_4  and  C_20
    6  A    between atoms: C_5  and  C_30
    7  A    between atoms: C_8  and  C_14
    8  A    between atoms: C_9  and  O_18
    9  A    between atoms: C_9  and  C_38
   10  A    between atoms: C_10  and  O_18
   11  A    between atoms: C_12  and  C_34
   12  A    between atoms: C_12  and  N_41
   13  A    between atoms: C_34  and  C_38
                            x       y       z     vdW  Elec       q    Type
                         _______ _______ _______ _____ _____    ______ ____

>  <TORSDO>
F 13

$$$$
