=
 OpenBabel11042413043D

 40 46  0  0  1  0  0  0  0  0999 V2000
  188.8850  177.9410  137.4710 C   0  0  0  0  0  3  0  0  0  0  0  0
  187.3300  175.7600  137.0560 S   0  0  0  0  0  0  0  0  0  0  0  0
  185.6420  177.8320  136.5420 N   0  0  0  0  0  2  0  0  0  0  0  0
  186.6800  177.3890  137.4780 C   0  0  2  0  0  0  0  0  0  0  0  0
  189.0230  176.4680  137.1840 C   0  0  1  0  0  3  0  0  0  0  0  0
  187.6970  178.3840  137.6250 N   0  0  0  0  0  0  0  0  0  0  0  0
  185.3140  177.5970  137.9650 C   0  0  1  0  0  3  0  0  0  0  0  0
  189.9040  176.1620  135.9460 C   0  0  0  0  0  0  0  0  0  0  0  0
  189.7820  177.3000  134.9470 C   0  0  0  0  0  1  0  0  0  0  0  0
  189.4330  174.8830  135.2580 C   0  0  0  0  0  1  0  0  0  0  0  0
  194.0510  174.0360  136.5140 C   0  0  2  0  0  3  0  0  0  0  0  0
  194.2770  171.5690  136.4900 C   0  0  0  0  0  1  0  0  0  0  0  0
  196.2450  175.3200  135.4020 C   0  0  0  0  0  2  0  0  0  0  0  0
  191.9240  176.4290  137.6110 C   0  0  0  0  0  3  0  0  0  0  0  0
  192.2440  175.4570  135.5810 N   0  0  0  0  0  0  0  0  0  0  0  0
  194.7800  176.4790  135.3810 S   0  0  0  0  0  0  0  0  0  0  0  0
  194.4340  173.6180  135.0950 C   0  0  2  0  0  3  0  0  0  0  0  0
  193.2030  176.0870  137.5940 C   0  0  0  0  0  3  0  0  0  0  0  0
  193.5140  172.7530  135.9320 C   0  0  2  0  0  3  0  0  0  0  0  0
  193.5240  175.4480  136.2820 C   0  0  2  0  0  0  0  0  0  0  0  0
  195.9320  173.8120  135.2040 C   0  0  0  0  0  2  0  0  0  0  0  0
  191.3630  176.0380  136.3260 C   0  0  0  0  0  0  0  0  0  0  0  0
  185.1640  178.9170  138.7070 C   0  0  0  0  0  2  0  0  0  0  0  0
  183.0010  177.5900  140.6740 C   0  0  0  0  0  1  0  0  0  0  0  0
  184.8960  178.4340  143.3820 N   0  0  0  0  0  0  0  0  0  0  0  0
  185.8680  178.8520  139.9780 N   0  0  0  0  0  2  0  0  0  0  0  0
  183.5840  178.5670  142.8510 C   0  0  0  0  0  0  0  0  0  0  0  0
  185.1740  178.6730  141.2150 C   0  0  0  0  0  0  0  0  0  0  0  0
  185.8080  178.4970  142.3290 N   0  0  0  0  0  0  0  0  0  0  0  0
  182.5170  178.8780  143.5800 C   0  0  0  0  0  2  0  0  0  0  0  0
  183.6760  178.7580  141.3760 C   0  0  1  0  0  3  0  0  0  0  0  0
  185.2660  178.7890  147.0870 N   0  0  0  0  0  2  0  0  0  0  0  0
  186.7210  178.6870  147.1460 C   0  0  0  0  0  2  0  0  0  0  0  0
  184.8760  179.1540  145.7280 C   0  0  0  0  0  2  0  0  0  0  0  0
  185.2770  178.0560  144.7400 C   0  0  2  0  0  3  0  0  0  0  0  0
  187.1930  177.5340  146.2650 C   0  0  1  0  0  3  0  0  0  0  0  0
  186.7780  177.7770  144.8200 C   0  0  0  0  0  2  0  0  0  0  0  0
  188.6710  177.3590  146.3690 C   0  0  0  0  0  0  0  0  0  0  0  0
  189.1570  176.7500  147.3570 O   0  0  0  0  0  1  0  0  0  0  0  0
  189.5150  177.8380  145.3730 O   0  0  0  0  0  0  0  0  0  0  0  0
  1  6  2  0  0  0  0
  2  5  1  0  0  0  0
  2  4  1  0  0  0  0
  3  7  1  0  0  0  0
  4  3  1  6  0  0  0
  4  6  1  0  0  0  0
  4  7  1  0  0  0  0
  5  8  1  6  0  0  0
  5  1  1  0  0  0  0
  7 23  1  1  0  0  0
  8 22  1  0  0  0  0
  9  8  1  0  0  0  0
 10  8  1  0  0  0  0
 15 20  1  0  0  0  0
 15 22  2  0  0  0  0
 16 13  1  0  0  0  0
 16 20  1  0  0  0  0
 17 21  1  0  0  0  0
 17 19  1  0  0  0  0
 17 11  1  0  0  0  0
 18 14  2  0  0  0  0
 19 12  1  0  0  0  0
 19 11  1  0  0  0  0
 20 11  1  0  0  0  0
 20 18  1  0  0  0  0
 21 13  1  0  0  0  0
 22 14  1  0  0  0  0
 23 26  1  0  0  0  0
 24 31  1  0  0  0  0
 25 35  1  0  0  0  0
 26 28  1  0  0  0  0
 27 25  1  0  0  0  0
 27 30  2  0  0  0  0
 28 31  1  0  0  0  0
 28 29  2  0  0  0  0
 29 25  1  0  0  0  0
 31 27  1  0  0  0  0
 32 33  1  0  0  0  0
 34 32  1  0  0  0  0
 35 37  1  0  0  0  0
 35 34  1  0  0  0  0
 36 38  1  0  0  0  0
 36 33  1  0  0  0  0
 37 36  1  0  0  0  0
 38 39  1  0  0  0  0
 40 38  2  0  0  0  0
M  END
>  <MODEL>
1

>  <REMARK>
 VINA RESULT:      -8.8      0.000      0.000
  Name = 
  6 active torsions:
  status: ('A' for Active; 'I' for Inactive)
    1  A    between atoms: N_10  and  C_16
    2  A    between atoms: N_13  and  C_24
    3  A    between atoms: C_17  and  C_31
    4  A    between atoms: C_17  and  C_34
    5  A    between atoms: C_19  and  C_28
    6  A    between atoms: C_24  and  C_39
                            x       y       z     vdW  Elec       q    Type
                         _______ _______ _______ _____ _____    ______ ____

>  <TORSDO>
F 6

$$$$
=
 OpenBabel11042413043D

 40 46  0  0  1  0  0  0  0  0999 V2000
  183.9570  178.4770  139.3130 C   0  0  0  0  0  3  0  0  0  0  0  0
  182.0410  176.7500  140.1460 S   0  0  0  0  0  0  0  0  0  0  0  0
  181.2670  179.1150  141.2480 N   0  0  0  0  0  2  0  0  0  0  0  0
  182.4500  178.2840  141.0040 C   0  0  2  0  0  0  0  0  0  0  0  0
  183.3830  177.1320  138.9470 C   0  0  1  0  0  3  0  0  0  0  0  0
  183.4810  179.0370  140.3580 N   0  0  0  0  0  0  0  0  0  0  0  0
  182.0370  178.5570  142.3820 C   0  0  1  0  0  3  0  0  0  0  0  0
  182.9200  177.0410  137.4710 C   0  0  0  0  0  0  0  0  0  0  0  0
  182.1990  178.3230  137.0880 C   0  0  0  0  0  1  0  0  0  0  0  0
  181.9440  175.8820  137.2870 C   0  0  0  0  0  1  0  0  0  0  0  0
  187.3650  177.4540  136.0170 C   0  0  2  0  0  3  0  0  0  0  0  0
  188.9500  179.0380  137.0720 C   0  0  0  0  0  1  0  0  0  0  0  0
  188.5960  175.1170  135.1690 C   0  0  0  0  0  2  0  0  0  0  0  0
  184.1040  177.2620  135.1310 C   0  0  0  0  0  3  0  0  0  0  0  0
  185.2670  176.4910  136.9260 N   0  0  0  0  0  0  0  0  0  0  0  0
  186.7630  174.8110  135.3600 S   0  0  0  0  0  0  0  0  0  0  0  0
  188.1570  176.6850  137.0720 C   0  0  2  0  0  3  0  0  0  0  0  0
  185.3300  177.0520  134.6780 C   0  0  0  0  0  3  0  0  0  0  0  0
  187.7620  178.1290  137.3060 C   0  0  2  0  0  3  0  0  0  0  0  0
  186.1800  176.5220  135.7880 C   0  0  2  0  0  0  0  0  0  0  0  0
  189.2340  176.1180  136.1700 C   0  0  0  0  0  2  0  0  0  0  0  0
  184.0980  176.8800  136.5350 C   0  0  0  0  0  0  0  0  0  0  0  0
  182.8900  179.6360  143.0340 C   0  0  0  0  0  2  0  0  0  0  0  0
  186.0450  179.3450  142.5160 C   0  0  0  0  0  1  0  0  0  0  0  0
  186.3940  177.5840  145.4180 N   0  0  0  0  0  0  0  0  0  0  0  0
  183.3930  179.1620  144.3140 N   0  0  0  0  0  2  0  0  0  0  0  0
  186.6710  177.5100  144.0250 C   0  0  0  0  0  0  0  0  0  0  0  0
  184.6790  178.5500  144.4370 C   0  0  0  0  0  0  0  0  0  0  0  0
  185.1740  178.2370  145.5910 N   0  0  0  0  0  0  0  0  0  0  0  0
  187.5620  176.6820  143.4890 C   0  0  0  0  0  2  0  0  0  0  0  0
  185.5410  178.1260  143.2730 C   0  0  1  0  0  3  0  0  0  0  0  0
  188.0590  178.0180  148.7380 N   0  0  0  0  0  2  0  0  0  0  0  0
  189.4340  178.1010  148.2540 C   0  0  0  0  0  2  0  0  0  0  0  0
  187.1550  178.3180  147.6320 C   0  0  0  0  0  2  0  0  0  0  0  0
  187.2910  177.2700  146.5250 C   0  0  2  0  0  3  0  0  0  0  0  0
  189.6830  177.0080  147.2190 C   0  0  1  0  0  3  0  0  0  0  0  0
  188.7370  177.1830  146.0370 C   0  0  0  0  0  2  0  0  0  0  0  0
  191.1040  177.0210  146.7660 C   0  0  0  0  0  0  0  0  0  0  0  0
  192.0100  176.6390  147.5510 O   0  0  0  0  0  1  0  0  0  0  0  0
  191.4350  177.4250  145.4760 O   0  0  0  0  0  0  0  0  0  0  0  0
  1  6  2  0  0  0  0
  3  7  1  0  0  0  0
  4  2  1  6  0  0  0
  4  3  1  0  0  0  0
  4  7  1  0  0  0  0
  5  8  1  6  0  0  0
  5  1  1  0  0  0  0
  5  2  1  0  0  0  0
  6  4  1  0  0  0  0
  7 23  1  1  0  0  0
  9  8  1  0  0  0  0
 10  8  1  0  0  0  0
 11 17  1  0  0  0  0
 11 19  1  0  0  0  0
 12 19  1  0  0  0  0
 13 16  1  0  0  0  0
 13 21  1  0  0  0  0
 14 22  1  0  0  0  0
 16 20  1  0  0  0  0
 17 19  1  0  0  0  0
 18 14  2  0  0  0  0
 18 20  1  0  0  0  0
 20 11  1  0  0  0  0
 20 15  1  0  0  0  0
 21 17  1  0  0  0  0
 22 15  2  0  0  0  0
 22  8  1  0  0  0  0
 23 26  1  0  0  0  0
 24 31  1  0  0  0  0
 25 29  1  0  0  0  0
 25 35  1  0  0  0  0
 26 28  1  0  0  0  0
 27 25  1  0  0  0  0
 28 29  2  0  0  0  0
 30 27  2  0  0  0  0
 31 27  1  0  0  0  0
 31 28  1  0  0  0  0
 33 32  1  0  0  0  0
 34 32  1  0  0  0  0
 35 34  1  0  0  0  0
 36 33  1  0  0  0  0
 37 35  1  0  0  0  0
 37 36  1  0  0  0  0
 38 36  1  0  0  0  0
 38 39  1  0  0  0  0
 40 38  2  0  0  0  0
M  END
>  <MODEL>
2

>  <REMARK>
 VINA RESULT:      -8.8      3.485      5.822
  Name = 
  6 active torsions:
  status: ('A' for Active; 'I' for Inactive)
    1  A    between atoms: N_10  and  C_16
    2  A    between atoms: N_13  and  C_24
    3  A    between atoms: C_17  and  C_31
    4  A    between atoms: C_17  and  C_34
    5  A    between atoms: C_19  and  C_28
    6  A    between atoms: C_24  and  C_39
                            x       y       z     vdW  Elec       q    Type
                         _______ _______ _______ _____ _____    ______ ____

>  <TORSDO>
F 6

$$$$
=
 OpenBabel11042413043D

 40 46  0  0  1  0  0  0  0  0999 V2000
  182.9050  178.3710  139.2020 C   0  0  0  0  0  3  0  0  0  0  0  0
  180.9110  176.9460  140.3600 S   0  0  0  0  0  0  0  0  0  0  0  0
  180.7210  179.3760  141.5700 N   0  0  0  0  0  2  0  0  0  0  0  0
  181.6980  178.3760  141.1280 C   0  0  2  0  0  0  0  0  0  0  0  0
  182.0710  177.1420  138.9460 C   0  0  1  0  0  3  0  0  0  0  0  0
  182.7090  178.9740  140.3110 N   0  0  0  0  0  0  0  0  0  0  0  0
  181.5750  178.6780  142.5560 C   0  0  1  0  0  3  0  0  0  0  0  0
  181.3540  177.1590  137.5720 C   0  0  0  0  0  0  0  0  0  0  0  0
  181.5620  178.5120  136.9110 C   0  0  0  0  0  1  0  0  0  0  0  0
  179.8530  176.9510  137.7490 C   0  0  0  0  0  1  0  0  0  0  0  0
  184.1180  173.5980  136.2590 C   0  0  2  0  0  3  0  0  0  0  0  0
  186.1540  172.9790  137.5270 C   0  0  0  0  0  1  0  0  0  0  0  0
  182.8360  171.3980  135.1570 C   0  0  0  0  0  2  0  0  0  0  0  0
  182.4070  176.3550  135.2970 C   0  0  0  0  0  3  0  0  0  0  0  0
  182.1310  174.8820  137.0070 N   0  0  0  0  0  0  0  0  0  0  0  0
  181.6260  172.8170  135.2760 S   0  0  0  0  0  0  0  0  0  0  0  0
  183.7400  172.4790  137.2280 C   0  0  2  0  0  3  0  0  0  0  0  0
  182.8980  175.2120  134.8450 C   0  0  0  0  0  3  0  0  0  0  0  0
  184.7490  173.5360  137.6270 C   0  0  2  0  0  3  0  0  0  0  0  0
  182.7470  174.1620  135.8980 C   0  0  2  0  0  0  0  0  0  0  0  0
  183.9010  171.3050  136.2840 C   0  0  0  0  0  2  0  0  0  0  0  0
  181.9170  176.1040  136.6450 C   0  0  0  0  0  0  0  0  0  0  0  0
  182.6870  179.5940  143.0460 C   0  0  0  0  0  2  0  0  0  0  0  0
  185.8440  179.4390  142.4860 C   0  0  0  0  0  1  0  0  0  0  0  0
  186.2900  177.5880  145.3180 N   0  0  0  0  0  0  0  0  0  0  0  0
  183.2220  179.0930  144.3030 N   0  0  0  0  0  2  0  0  0  0  0  0
  186.5540  177.5750  143.9200 C   0  0  0  0  0  0  0  0  0  0  0  0
  184.5310  178.5250  144.3910 C   0  0  0  0  0  0  0  0  0  0  0  0
  185.0500  178.1890  145.5270 N   0  0  0  0  0  0  0  0  0  0  0  0
  187.4680  176.8000  143.3450 C   0  0  0  0  0  2  0  0  0  0  0  0
  185.3940  178.1760  143.2030 C   0  0  1  0  0  3  0  0  0  0  0  0
  187.9940  177.9760  148.6240 N   0  0  0  0  0  2  0  0  0  0  0  0
  189.3600  178.1050  148.1230 C   0  0  0  0  0  2  0  0  0  0  0  0
  187.0670  178.2830  147.5400 C   0  0  0  0  0  2  0  0  0  0  0  0
  187.2110  177.2670  146.4040 C   0  0  2  0  0  3  0  0  0  0  0  0
  189.6190  177.0460  147.0560 C   0  0  1  0  0  3  0  0  0  0  0  0
  188.6520  177.2290  145.8930 C   0  0  0  0  0  2  0  0  0  0  0  0
  191.0330  177.1060  146.5830 C   0  0  0  0  0  0  0  0  0  0  0  0
  191.9610  176.7530  147.3550 O   0  0  0  0  0  1  0  0  0  0  0  0
  191.3330  177.5220  145.2900 O   0  0  0  0  0  0  0  0  0  0  0  0
  1  6  2  0  0  0  0
  2  4  1  0  0  0  0
  3  7  1  0  0  0  0
  4  6  1  6  0  0  0
  4  3  1  0  0  0  0
  4  7  1  0  0  0  0
  5  8  1  6  0  0  0
  5  1  1  0  0  0  0
  5  2  1  0  0  0  0
  7 23  1  6  0  0  0
  8 10  1  0  0  0  0
  9  8  1  0  0  0  0
 11 17  1  0  0  0  0
 11 19  1  0  0  0  0
 12 19  1  0  0  0  0
 13 16  1  0  0  0  0
 13 21  1  0  0  0  0
 14 22  1  0  0  0  0
 16 20  1  0  0  0  0
 17 19  1  0  0  0  0
 18 14  2  0  0  0  0
 18 20  1  0  0  0  0
 20 11  1  0  0  0  0
 20 15  1  0  0  0  0
 21 17  1  0  0  0  0
 22 15  2  0  0  0  0
 22  8  1  0  0  0  0
 23 26  1  0  0  0  0
 24 31  1  0  0  0  0
 25 29  1  0  0  0  0
 25 35  1  0  0  0  0
 26 28  1  0  0  0  0
 27 25  1  0  0  0  0
 28 29  2  0  0  0  0
 30 27  2  0  0  0  0
 31 27  1  0  0  0  0
 31 28  1  0  0  0  0
 33 32  1  0  0  0  0
 34 32  1  0  0  0  0
 35 34  1  0  0  0  0
 36 33  1  0  0  0  0
 37 35  1  0  0  0  0
 37 36  1  0  0  0  0
 38 36  1  0  0  0  0
 38 39  1  0  0  0  0
 40 38  2  0  0  0  0
M  END
>  <MODEL>
3

>  <REMARK>
 VINA RESULT:      -8.6      5.694      7.390
  Name = 
  6 active torsions:
  status: ('A' for Active; 'I' for Inactive)
    1  A    between atoms: N_10  and  C_16
    2  A    between atoms: N_13  and  C_24
    3  A    between atoms: C_17  and  C_31
    4  A    between atoms: C_17  and  C_34
    5  A    between atoms: C_19  and  C_28
    6  A    between atoms: C_24  and  C_39
                            x       y       z     vdW  Elec       q    Type
                         _______ _______ _______ _____ _____    ______ ____

>  <TORSDO>
F 6

$$$$
=
 OpenBabel11042413043D

 40 46  0  0  1  0  0  0  0  0999 V2000
  187.1560  178.0550  138.0600 C   0  0  0  0  0  3  0  0  0  0  0  0
  184.9350  176.5590  137.6370 S   0  0  0  0  0  0  0  0  0  0  0  0
  183.9250  178.9570  138.4370 N   0  0  0  0  0  2  0  0  0  0  0  0
  184.9870  177.9890  138.7360 C   0  0  2  0  0  0  0  0  0  0  0  0
  186.7290  176.8130  137.3190 C   0  0  1  0  0  3  0  0  0  0  0  0
  186.2660  178.6280  138.7750 N   0  0  0  0  0  0  0  0  0  0  0  0
  183.9550  178.2560  139.7400 C   0  0  1  0  0  3  0  0  0  0  0  0
  187.0790  176.8460  135.8100 C   0  0  0  0  0  0  0  0  0  0  0  0
  186.8070  178.2360  135.2590 C   0  0  0  0  0  1  0  0  0  0  0  0
  186.2090  175.8580  135.0380 C   0  0  0  0  0  1  0  0  0  0  0  0
  191.5730  176.1230  136.9630 C   0  0  2  0  0  3  0  0  0  0  0  0
  192.4900  176.8050  139.1600 C   0  0  0  0  0  1  0  0  0  0  0  0
  192.7200  173.7850  136.0050 C   0  0  0  0  0  2  0  0  0  0  0  0
  189.3950  177.2200  134.6160 C   0  0  0  0  0  3  0  0  0  0  0  0
  189.2160  175.7080  136.3040 N   0  0  0  0  0  0  0  0  0  0  0  0
  191.0780  174.0570  135.1550 S   0  0  0  0  0  0  0  0  0  0  0  0
  191.5110  174.9100  137.8890 C   0  0  2  0  0  3  0  0  0  0  0  0
  190.6170  176.7360  134.7710 C   0  0  0  0  0  3  0  0  0  0  0  0
  191.2630  176.3040  138.4280 C   0  0  2  0  0  3  0  0  0  0  0  0
  190.6050  175.7110  135.8580 C   0  0  2  0  0  0  0  0  0  0  0  0
  192.8150  174.2550  137.4820 C   0  0  0  0  0  2  0  0  0  0  0  0
  188.5420  176.5380  135.5780 C   0  0  0  0  0  0  0  0  0  0  0  0
  184.4490  179.1850  140.8390 C   0  0  0  0  0  2  0  0  0  0  0  0
  183.4490  178.5280  143.8170 C   0  0  0  0  0  1  0  0  0  0  0  0
  186.6710  178.0440  144.8300 N   0  0  0  0  0  0  0  0  0  0  0  0
  185.6330  178.6200  141.4680 N   0  0  0  0  0  2  0  0  0  0  0  0
  185.5000  178.7880  145.1440 C   0  0  0  0  0  0  0  0  0  0  0  0
  185.7560  178.5250  142.8890 C   0  0  0  0  0  0  0  0  0  0  0  0
  186.7540  177.9160  143.4440 N   0  0  0  0  0  0  0  0  0  0  0  0
  185.2850  179.3730  146.3180 C   0  0  0  0  0  2  0  0  0  0  0  0
  184.8220  179.1800  143.8760 C   0  0  1  0  0  3  0  0  0  0  0  0
  188.2810  177.1620  148.0880 N   0  0  0  0  0  2  0  0  0  0  0  0
  189.6680  177.3780  147.6820 C   0  0  0  0  0  2  0  0  0  0  0  0
  187.4070  177.8790  147.1650 C   0  0  0  0  0  2  0  0  0  0  0  0
  187.5380  177.3140  145.7490 C   0  0  2  0  0  3  0  0  0  0  0  0
  189.9100  176.7410  146.3160 C   0  0  1  0  0  3  0  0  0  0  0  0
  188.9910  177.3720  145.2770 C   0  0  0  0  0  2  0  0  0  0  0  0
  191.3390  176.8790  145.9130 C   0  0  0  0  0  0  0  0  0  0  0  0
  191.6330  177.5310  144.8780 O   0  0  0  0  0  0  0  0  0  0  0  0
  192.3520  176.3180  146.6850 O   0  0  0  0  0  1  0  0  0  0  0  0
  1  6  2  0  0  0  0
  3  4  1  0  0  0  0
  3  7  1  0  0  0  0
  4  2  1  6  0  0  0
  4  6  1  0  0  0  0
  4  7  1  0  0  0  0
  5  8  1  6  0  0  0
  5  2  1  0  0  0  0
  5  1  1  0  0  0  0
  7 23  1  1  0  0  0
  9  8  1  0  0  0  0
 10  8  1  0  0  0  0
 11 17  1  0  0  0  0
 11 19  1  0  0  0  0
 13 21  1  0  0  0  0
 14 18  2  0  0  0  0
 14 22  1  0  0  0  0
 16 20  1  0  0  0  0
 16 13  1  0  0  0  0
 17 19  1  0  0  0  0
 18 20  1  0  0  0  0
 19 12  1  0  0  0  0
 20 15  1  0  0  0  0
 20 11  1  0  0  0  0
 21 17  1  0  0  0  0
 22  8  1  0  0  0  0
 22 15  2  0  0  0  0
 23 26  1  0  0  0  0
 24 31  1  0  0  0  0
 25 27  1  0  0  0  0
 25 35  1  0  0  0  0
 26 28  1  0  0  0  0
 27 30  2  0  0  0  0
 28 29  2  0  0  0  0
 28 31  1  0  0  0  0
 29 25  1  0  0  0  0
 31 27  1  0  0  0  0
 33 32  1  0  0  0  0
 34 32  1  0  0  0  0
 35 34  1  0  0  0  0
 36 33  1  0  0  0  0
 37 35  1  0  0  0  0
 37 36  1  0  0  0  0
 38 36  1  0  0  0  0
 38 40  1  0  0  0  0
 39 38  2  0  0  0  0
M  END
>  <MODEL>
4

>  <REMARK>
 VINA RESULT:      -8.5      1.920      3.212
  Name = 
  6 active torsions:
  status: ('A' for Active; 'I' for Inactive)
    1  A    between atoms: N_10  and  C_16
    2  A    between atoms: N_13  and  C_24
    3  A    between atoms: C_17  and  C_31
    4  A    between atoms: C_17  and  C_34
    5  A    between atoms: C_19  and  C_28
    6  A    between atoms: C_24  and  C_39
                            x       y       z     vdW  Elec       q    Type
                         _______ _______ _______ _____ _____    ______ ____

>  <TORSDO>
F 6

$$$$
=
 OpenBabel11042413043D

 40 46  0  0  1  0  0  0  0  0999 V2000
  187.9370  176.8510  137.5320 C   0  0  0  0  0  3  0  0  0  0  0  0
  185.4920  175.7240  137.2110 S   0  0  0  0  0  0  0  0  0  0  0  0
  184.9570  178.3930  137.1680 N   0  0  0  0  0  2  0  0  0  0  0  0
  185.7530  177.3820  137.8720 C   0  0  2  0  0  0  0  0  0  0  0  0
  187.3200  175.5430  137.1040 C   0  0  1  0  0  3  0  0  0  0  0  0
  187.1320  177.7610  137.9240 N   0  0  0  0  0  0  0  0  0  0  0  0
  184.7180  178.1180  138.6030 C   0  0  1  0  0  3  0  0  0  0  0  0
  187.8010  175.0620  135.7110 C   0  0  0  0  0  0  0  0  0  0  0  0
  187.0360  175.8040  134.6290 C   0  0  0  0  0  1  0  0  0  0  0  0
  187.5290  173.5700  135.5380 C   0  0  0  0  0  1  0  0  0  0  0  0
  192.2120  176.0690  136.9640 C   0  0  2  0  0  3  0  0  0  0  0  0
  192.7700  176.9620  139.2070 C   0  0  0  0  0  1  0  0  0  0  0  0
  194.1810  174.3880  135.9650 C   0  0  0  0  0  2  0  0  0  0  0  0
  189.8120  176.3400  134.5940 C   0  0  0  0  0  3  0  0  0  0  0  0
  190.2040  174.8100  136.2290 N   0  0  0  0  0  0  0  0  0  0  0  0
  192.5720  174.0440  135.0800 S   0  0  0  0  0  0  0  0  0  0  0  0
  192.6090  174.8890  137.8500 C   0  0  2  0  0  3  0  0  0  0  0  0
  191.1240  176.3550  134.7680 C   0  0  0  0  0  3  0  0  0  0  0  0
  191.8380  176.0590  138.4250 C   0  0  2  0  0  3  0  0  0  0  0  0
  191.4920  175.3610  135.8210 C   0  0  2  0  0  0  0  0  0  0  0  0
  194.0700  174.7990  137.4580 C   0  0  0  0  0  2  0  0  0  0  0  0
  189.2730  175.3470  135.5110 C   0  0  0  0  0  0  0  0  0  0  0  0
  185.3020  179.2260  139.4660 C   0  0  0  0  0  2  0  0  0  0  0  0
  188.0250  178.7860  141.1080 C   0  0  0  0  0  1  0  0  0  0  0  0
  186.2520  177.7940  143.8490 N   0  0  0  0  0  0  0  0  0  0  0  0
  184.8410  179.0790  140.8370 N   0  0  0  0  0  2  0  0  0  0  0  0
  187.3010  177.3750  142.9840 C   0  0  0  0  0  0  0  0  0  0  0  0
  185.6690  178.5040  141.8520 C   0  0  0  0  0  0  0  0  0  0  0  0
  185.3040  178.4820  143.0930 N   0  0  0  0  0  0  0  0  0  0  0  0
  188.1840  176.4320  143.2920 C   0  0  0  0  0  2  0  0  0  0  0  0
  186.9760  177.7970  141.5920 C   0  0  1  0  0  3  0  0  0  0  0  0
  185.5490  178.9920  147.3210 N   0  0  0  0  0  2  0  0  0  0  0  0
  186.9270  179.0020  147.8050 C   0  0  0  0  0  2  0  0  0  0  0  0
  185.5640  179.0180  145.8620 C   0  0  0  0  0  2  0  0  0  0  0  0
  186.2290  177.7550  145.3080 C   0  0  2  0  0  3  0  0  0  0  0  0
  187.6300  177.7150  147.3840 C   0  0  1  0  0  3  0  0  0  0  0  0
  187.6450  177.6010  145.8640 C   0  0  0  0  0  2  0  0  0  0  0  0
  189.0160  177.6650  147.9320 C   0  0  0  0  0  0  0  0  0  0  0  0
  189.3420  178.4390  148.8680 O   0  0  0  0  0  1  0  0  0  0  0  0
  189.9430  176.7530  147.4380 O   0  0  0  0  0  0  0  0  0  0  0  0
  1  6  2  0  0  0  0
  2  4  1  0  0  0  0
  3  7  1  0  0  0  0
  4  3  1  6  0  0  0
  4  6  1  0  0  0  0
  4  7  1  0  0  0  0
  5  8  1  6  0  0  0
  5  2  1  0  0  0  0
  5  1  1  0  0  0  0
  7 23  1  1  0  0  0
  9  8  1  0  0  0  0
 10  8  1  0  0  0  0
 11 17  1  0  0  0  0
 11 19  1  0  0  0  0
 13 21  1  0  0  0  0
 14 18  2  0  0  0  0
 14 22  1  0  0  0  0
 16 20  1  0  0  0  0
 16 13  1  0  0  0  0
 17 19  1  0  0  0  0
 18 20  1  0  0  0  0
 19 12  1  0  0  0  0
 20 15  1  0  0  0  0
 20 11  1  0  0  0  0
 21 17  1  0  0  0  0
 22  8  1  0  0  0  0
 22 15  2  0  0  0  0
 23 26  1  0  0  0  0
 24 31  1  0  0  0  0
 25 35  1  0  0  0  0
 26 28  1  0  0  0  0
 27 30  2  0  0  0  0
 27 25  1  0  0  0  0
 28 29  2  0  0  0  0
 29 25  1  0  0  0  0
 31 28  1  0  0  0  0
 31 27  1  0  0  0  0
 32 33  1  0  0  0  0
 34 32  1  0  0  0  0
 35 34  1  0  0  0  0
 35 37  1  0  0  0  0
 36 33  1  0  0  0  0
 36 38  1  0  0  0  0
 37 36  1  0  0  0  0
 38 39  1  0  0  0  0
 40 38  2  0  0  0  0
M  END
>  <MODEL>
5

>  <REMARK>
 VINA RESULT:      -7.9      1.591      2.729
  Name = 
  6 active torsions:
  status: ('A' for Active; 'I' for Inactive)
    1  A    between atoms: N_10  and  C_16
    2  A    between atoms: N_13  and  C_24
    3  A    between atoms: C_17  and  C_31
    4  A    between atoms: C_17  and  C_34
    5  A    between atoms: C_19  and  C_28
    6  A    between atoms: C_24  and  C_39
                            x       y       z     vdW  Elec       q    Type
                         _______ _______ _______ _____ _____    ______ ____

>  <TORSDO>
F 6

$$$$
=
 OpenBabel11042413043D

 40 46  0  0  1  0  0  0  0  0999 V2000
  188.5630  176.3810  142.7790 C   0  0  0  0  0  3  0  0  0  0  0  0
  190.0070  177.0420  140.5820 S   0  0  0  0  0  0  0  0  0  0  0  0
  188.2530  179.1100  140.8180 N   0  0  0  0  0  2  0  0  0  0  0  0
  188.3390  177.6490  140.9060 C   0  0  2  0  0  0  0  0  0  0  0  0
  189.8860  176.0590  142.1320 C   0  0  1  0  0  3  0  0  0  0  0  0
  187.7940  177.1770  142.1410 N   0  0  0  0  0  0  0  0  0  0  0  0
  187.5010  178.2580  139.8700 C   0  0  1  0  0  3  0  0  0  0  0  0
  191.0990  176.2620  143.0750 C   0  0  0  0  0  0  0  0  0  0  0  0
  192.2290  176.9290  142.3080 C   0  0  0  0  0  1  0  0  0  0  0  0
  191.6100  174.9180  143.5870 C   0  0  0  0  0  1  0  0  0  0  0  0
  188.3170  178.3050  146.2580 C   0  0  2  0  0  3  0  0  0  0  0  0
  185.8500  178.3250  146.0270 C   0  0  0  0  0  1  0  0  0  0  0  0
  189.1410  178.1190  148.9010 C   0  0  0  0  0  2  0  0  0  0  0  0
  191.0970  178.5670  144.3450 C   0  0  0  0  0  3  0  0  0  0  0  0
  189.9810  176.7880  145.2150 N   0  0  0  0  0  0  0  0  0  0  0  0
  190.5340  177.5710  147.7830 S   0  0  0  0  0  0  0  0  0  0  0  0
  187.7660  177.1260  147.0580 C   0  0  2  0  0  3  0  0  0  0  0  0
  190.5370  179.0250  145.4540 C   0  0  0  0  0  3  0  0  0  0  0  0
  187.1180  177.5420  145.7520 C   0  0  2  0  0  3  0  0  0  0  0  0
  189.7850  177.9170  146.1180 C   0  0  2  0  0  0  0  0  0  0  0  0
  187.7010  177.7910  148.4170 C   0  0  0  0  0  2  0  0  0  0  0  0
  190.7440  177.1590  144.2400 C   0  0  0  0  0  0  0  0  0  0  0  0
  186.0240  178.2250  140.2340 C   0  0  0  0  0  2  0  0  0  0  0  0
  183.2470  178.6330  141.7910 C   0  0  0  0  0  1  0  0  0  0  0  0
  181.8500  180.0240  139.0070 N   0  0  0  0  0  0  0  0  0  0  0  0
  185.2790  179.1130  139.3550 N   0  0  0  0  0  2  0  0  0  0  0  0
  181.6490  178.9870  139.9590 C   0  0  0  0  0  0  0  0  0  0  0  0
  183.8620  179.2670  139.4660 C   0  0  0  0  0  0  0  0  0  0  0  0
  183.2180  180.1430  138.7660 N   0  0  0  0  0  0  0  0  0  0  0  0
  180.4810  178.3890  140.1690 C   0  0  0  0  0  2  0  0  0  0  0  0
  182.9700  178.3950  140.3150 C   0  0  1  0  0  3  0  0  0  0  0  0
  179.0960  181.3480  136.8510 N   0  0  0  0  0  2  0  0  0  0  0  0
  179.8130  182.4980  136.3070 C   0  0  0  0  0  2  0  0  0  0  0  0
  180.0690  180.3850  137.3570 C   0  0  0  0  0  2  0  0  0  0  0  0
  180.8700  180.9870  138.5150 C   0  0  2  0  0  3  0  0  0  0  0  0
  180.5530  183.2210  137.4280 C   0  0  1  0  0  3  0  0  0  0  0  0
  181.5580  182.2810  138.0810 C   0  0  0  0  0  2  0  0  0  0  0  0
  181.2300  184.4460  136.9110 C   0  0  0  0  0  0  0  0  0  0  0  0
  180.8050  184.9950  135.8620 O   0  0  0  0  0  0  0  0  0  0  0  0
  182.3090  185.0020  137.5910 O   0  0  0  0  0  1  0  0  0  0  0  0
  2  5  1  0  0  0  0
  3  4  1  0  0  0  0
  4  2  1  6  0  0  0
  4  6  1  0  0  0  0
  5  1  1  0  0  0  0
  5  8  1  1  0  0  0
  6  1  2  0  0  0  0
  7 23  1  1  0  0  0
  7  3  1  0  0  0  0
  7  4  1  0  0  0  0
  8 10  1  0  0  0  0
  8 22  1  0  0  0  0
  9  8  1  0  0  0  0
 11 17  1  0  0  0  0
 14 18  2  0  0  0  0
 15 20  1  0  0  0  0
 16 13  1  0  0  0  0
 17 21  1  0  0  0  0
 18 20  1  0  0  0  0
 19 12  1  0  0  0  0
 19 11  1  0  0  0  0
 19 17  1  0  0  0  0
 20 11  1  0  0  0  0
 20 16  1  0  0  0  0
 21 13  1  0  0  0  0
 22 14  1  0  0  0  0
 22 15  2  0  0  0  0
 25 27  1  0  0  0  0
 26 28  1  0  0  0  0
 26 23  1  0  0  0  0
 27 30  2  0  0  0  0
 27 31  1  0  0  0  0
 28 31  1  0  0  0  0
 29 25  1  0  0  0  0
 29 28  2  0  0  0  0
 31 24  1  0  0  0  0
 32 34  1  0  0  0  0
 33 32  1  0  0  0  0
 33 36  1  0  0  0  0
 34 35  1  0  0  0  0
 35 25  1  0  0  0  0
 36 37  1  0  0  0  0
 37 35  1  0  0  0  0
 38 36  1  0  0  0  0
 38 40  1  0  0  0  0
 39 38  2  0  0  0  0
M  END
>  <MODEL>
6

>  <REMARK>
 VINA RESULT:      -7.9      5.506      9.477
  Name = 
  6 active torsions:
  status: ('A' for Active; 'I' for Inactive)
    1  A    between atoms: N_10  and  C_16
    2  A    between atoms: N_13  and  C_24
    3  A    between atoms: C_17  and  C_31
    4  A    between atoms: C_17  and  C_34
    5  A    between atoms: C_19  and  C_28
    6  A    between atoms: C_24  and  C_39
                            x       y       z     vdW  Elec       q    Type
                         _______ _______ _______ _____ _____    ______ ____

>  <TORSDO>
F 6

$$$$
=
 OpenBabel11042413043D

 40 46  0  0  1  0  0  0  0  0999 V2000
  191.7500  176.6630  137.9920 C   0  0  0  0  0  3  0  0  0  0  0  0
  189.8800  174.8210  137.3190 S   0  0  0  0  0  0  0  0  0  0  0  0
  188.6530  177.1840  136.7570 N   0  0  0  0  0  2  0  0  0  0  0  0
  189.4930  176.5260  137.7630 C   0  0  2  0  0  0  0  0  0  0  0  0
  191.6500  175.2000  137.6430 C   0  0  1  0  0  3  0  0  0  0  0  0
  190.6520  177.3120  138.0570 N   0  0  0  0  0  0  0  0  0  0  0  0
  188.1440  176.9650  138.1290 C   0  0  1  0  0  3  0  0  0  0  0  0
  192.5830  174.7800  136.4790 C   0  0  0  0  0  0  0  0  0  0  0  0
  192.6960  175.9240  135.4840 C   0  0  0  0  0  1  0  0  0  0  0  0
  192.0080  173.5730  135.7410 C   0  0  0  0  0  1  0  0  0  0  0  0
  196.2780  172.0910  137.5570 C   0  0  2  0  0  3  0  0  0  0  0  0
  196.0900  169.6320  137.7880 C   0  0  0  0  0  1  0  0  0  0  0  0
  198.7160  172.8810  136.4940 C   0  0  0  0  0  2  0  0  0  0  0  0
  194.5200  174.8970  138.2570 C   0  0  0  0  0  3  0  0  0  0  0  0
  194.7900  173.6750  136.3590 N   0  0  0  0  0  0  0  0  0  0  0  0
  197.4680  174.2500  136.2530 S   0  0  0  0  0  0  0  0  0  0  0  0
  196.6670  171.4670  136.2180 C   0  0  2  0  0  3  0  0  0  0  0  0
  195.7220  174.3550  138.3690 C   0  0  0  0  0  3  0  0  0  0  0  0
  195.5680  170.8550  137.0630 C   0  0  2  0  0  3  0  0  0  0  0  0
  196.0070  173.5360  137.1520 C   0  0  2  0  0  0  0  0  0  0  0  0
  198.1680  171.4300  136.4190 C   0  0  0  0  0  2  0  0  0  0  0  0
  193.9770  174.4660  136.9780 C   0  0  0  0  0  0  0  0  0  0  0  0
  188.1590  178.2640  138.9210 C   0  0  0  0  0  2  0  0  0  0  0  0
  185.2180  178.2030  140.2080 C   0  0  0  0  0  1  0  0  0  0  0  0
  186.5520  178.3010  143.3460 N   0  0  0  0  0  0  0  0  0  0  0  0
  188.4170  177.9840  140.3250 N   0  0  0  0  0  2  0  0  0  0  0  0
  185.6200  178.9710  142.5060 C   0  0  0  0  0  0  0  0  0  0  0  0
  187.4350  178.2290  141.3340 C   0  0  0  0  0  0  0  0  0  0  0  0
  187.6220  177.8700  142.5630 N   0  0  0  0  0  0  0  0  0  0  0  0
  184.6680  179.7830  142.9540 C   0  0  0  0  0  2  0  0  0  0  0  0
  186.1510  178.9900  141.1140 C   0  0  1  0  0  3  0  0  0  0  0  0
  185.3050  178.5080  146.8660 N   0  0  0  0  0  2  0  0  0  0  0  0
  186.6060  178.5400  147.5300 C   0  0  0  0  0  2  0  0  0  0  0  0
  185.4810  178.9010  145.4720 C   0  0  0  0  0  2  0  0  0  0  0  0
  186.3700  177.8950  144.7360 C   0  0  2  0  0  3  0  0  0  0  0  0
  187.5200  177.4800  146.9220 C   0  0  1  0  0  3  0  0  0  0  0  0
  187.7210  177.7540  145.4370 C   0  0  0  0  0  2  0  0  0  0  0  0
  188.8300  177.4380  147.6350 C   0  0  0  0  0  0  0  0  0  0  0  0
  189.7430  176.6820  147.2140 O   0  0  0  0  0  0  0  0  0  0  0  0
  189.0610  178.2460  148.7440 O   0  0  0  0  0  1  0  0  0  0  0  0
  1  6  2  0  0  0  0
  2  5  1  0  0  0  0
  2  4  1  0  0  0  0
  3  7  1  0  0  0  0
  4  3  1  6  0  0  0
  4  6  1  0  0  0  0
  4  7  1  0  0  0  0
  5  8  1  6  0  0  0
  5  1  1  0  0  0  0
  7 23  1  1  0  0  0
  8 22  1  0  0  0  0
  9  8  1  0  0  0  0
 10  8  1  0  0  0  0
 14 18  2  0  0  0  0
 15 22  2  0  0  0  0
 15 20  1  0  0  0  0
 16 13  1  0  0  0  0
 16 20  1  0  0  0  0
 17 21  1  0  0  0  0
 17 19  1  0  0  0  0
 17 11  1  0  0  0  0
 19 11  1  0  0  0  0
 19 12  1  0  0  0  0
 20 11  1  0  0  0  0
 20 18  1  0  0  0  0
 21 13  1  0  0  0  0
 22 14  1  0  0  0  0
 23 26  1  0  0  0  0
 24 31  1  0  0  0  0
 25 35  1  0  0  0  0
 26 28  1  0  0  0  0
 27 30  2  0  0  0  0
 27 25  1  0  0  0  0
 28 29  2  0  0  0  0
 29 25  1  0  0  0  0
 31 28  1  0  0  0  0
 31 27  1  0  0  0  0
 32 33  1  0  0  0  0
 34 32  1  0  0  0  0
 35 37  1  0  0  0  0
 35 34  1  0  0  0  0
 36 33  1  0  0  0  0
 36 38  1  0  0  0  0
 37 36  1  0  0  0  0
 38 40  1  0  0  0  0
 39 38  2  0  0  0  0
M  END
>  <MODEL>
7

>  <REMARK>
 VINA RESULT:      -7.7      1.934      2.678
  Name = 
  6 active torsions:
  status: ('A' for Active; 'I' for Inactive)
    1  A    between atoms: N_10  and  C_16
    2  A    between atoms: N_13  and  C_24
    3  A    between atoms: C_17  and  C_31
    4  A    between atoms: C_17  and  C_34
    5  A    between atoms: C_19  and  C_28
    6  A    between atoms: C_24  and  C_39
                            x       y       z     vdW  Elec       q    Type
                         _______ _______ _______ _____ _____    ______ ____

>  <TORSDO>
F 6

$$$$
=
 OpenBabel11042413043D

 40 46  0  0  1  0  0  0  0  0999 V2000
  192.3690  175.9540  137.2020 C   0  0  0  0  0  3  0  0  0  0  0  0
  190.2190  174.3060  137.2940 S   0  0  0  0  0  0  0  0  0  0  0  0
  189.1150  176.7400  136.7740 N   0  0  0  0  0  2  0  0  0  0  0  0
  190.1350  176.0820  137.5980 C   0  0  2  0  0  0  0  0  0  0  0  0
  192.0370  174.4880  137.0850 C   0  0  1  0  0  3  0  0  0  0  0  0
  191.3990  176.7400  137.4700 N   0  0  0  0  0  0  0  0  0  0  0  0
  188.9890  176.7240  138.2490 C   0  0  1  0  0  3  0  0  0  0  0  0
  192.5650  173.8380  135.7800 C   0  0  0  0  0  0  0  0  0  0  0  0
  191.7950  174.3930  134.5940 C   0  0  0  0  0  1  0  0  0  0  0  0
  192.3530  172.3270  135.8110 C   0  0  0  0  0  1  0  0  0  0  0  0
  197.0540  174.5230  136.9750 C   0  0  2  0  0  3  0  0  0  0  0  0
  197.7440  174.9050  139.3230 C   0  0  0  0  0  1  0  0  0  0  0  0
  198.9360  173.0890  135.5280 C   0  0  0  0  0  2  0  0  0  0  0  0
  194.5360  175.3180  134.8570 C   0  0  0  0  0  3  0  0  0  0  0  0
  194.9880  173.4670  136.0970 N   0  0  0  0  0  0  0  0  0  0  0  0
  197.2770  172.9550  134.6790 S   0  0  0  0  0  0  0  0  0  0  0  0
  197.4760  173.1770  137.5600 C   0  0  2  0  0  3  0  0  0  0  0  0
  195.8560  175.2870  134.9570 C   0  0  0  0  0  3  0  0  0  0  0  0
  196.7570  174.1990  138.4180 C   0  0  2  0  0  3  0  0  0  0  0  0
  196.2610  174.0860  135.7480 C   0  0  2  0  0  0  0  0  0  0  0  0
  198.9120  173.1660  137.0790 C   0  0  0  0  0  2  0  0  0  0  0  0
  194.0290  174.1520  135.5650 C   0  0  0  0  0  0  0  0  0  0  0  0
  189.3470  178.0830  138.8320 C   0  0  0  0  0  2  0  0  0  0  0  0
  191.7410  177.8070  140.9530 C   0  0  0  0  0  1  0  0  0  0  0  0
  189.4940  177.5480  143.5070 N   0  0  0  0  0  0  0  0  0  0  0  0
  188.6780  178.2630  140.1110 N   0  0  0  0  0  2  0  0  0  0  0  0
  190.6080  176.8810  142.9260 C   0  0  0  0  0  0  0  0  0  0  0  0
  189.2850  177.8580  141.3410 C   0  0  0  0  0  0  0  0  0  0  0  0
  188.7430  178.1260  142.4850 N   0  0  0  0  0  0  0  0  0  0  0  0
  191.3350  175.9640  143.5560 C   0  0  0  0  0  2  0  0  0  0  0  0
  190.5360  177.0210  141.4440 C   0  0  1  0  0  3  0  0  0  0  0  0
  189.4150  176.8760  147.1850 N   0  0  0  0  0  2  0  0  0  0  0  0
  187.9790  177.0540  147.3830 C   0  0  0  0  0  2  0  0  0  0  0  0
  189.6650  176.6160  145.7710 C   0  0  0  0  0  2  0  0  0  0  0  0
  189.2550  177.8210  144.9210 C   0  0  2  0  0  3  0  0  0  0  0  0
  187.5100  178.3080  146.6510 C   0  0  1  0  0  3  0  0  0  0  0  0
  187.7860  178.1750  145.1580 C   0  0  0  0  0  2  0  0  0  0  0  0
  186.0610  178.5570  146.9010 C   0  0  0  0  0  0  0  0  0  0  0  0
  185.7150  179.4680  147.6960 O   0  0  0  0  0  1  0  0  0  0  0  0
  185.0880  177.8090  146.2450 O   0  0  0  0  0  0  0  0  0  0  0  0
  1  6  2  0  0  0  0
  2  4  1  0  0  0  0
  3  7  1  0  0  0  0
  4  3  1  6  0  0  0
  4  7  1  0  0  0  0
  5  8  1  6  0  0  0
  5  1  1  0  0  0  0
  5  2  1  0  0  0  0
  6  4  1  0  0  0  0
  7 23  1  1  0  0  0
  8 10  1  0  0  0  0
  9  8  1  0  0  0  0
 11 17  1  0  0  0  0
 11 19  1  0  0  0  0
 13 21  1  0  0  0  0
 14 18  2  0  0  0  0
 14 22  1  0  0  0  0
 16 13  1  0  0  0  0
 16 20  1  0  0  0  0
 17 19  1  0  0  0  0
 18 20  1  0  0  0  0
 19 12  1  0  0  0  0
 20 15  1  0  0  0  0
 20 11  1  0  0  0  0
 21 17  1  0  0  0  0
 22  8  1  0  0  0  0
 22 15  2  0  0  0  0
 23 26  1  0  0  0  0
 24 31  1  0  0  0  0
 25 35  1  0  0  0  0
 26 28  1  0  0  0  0
 27 25  1  0  0  0  0
 27 30  2  0  0  0  0
 28 31  1  0  0  0  0
 28 29  2  0  0  0  0
 29 25  1  0  0  0  0
 31 27  1  0  0  0  0
 32 33  1  0  0  0  0
 34 32  1  0  0  0  0
 35 37  1  0  0  0  0
 35 34  1  0  0  0  0
 36 38  1  0  0  0  0
 36 33  1  0  0  0  0
 37 36  1  0  0  0  0
 38 39  1  0  0  0  0
 40 38  2  0  0  0  0
M  END
>  <MODEL>
8

>  <REMARK>
 VINA RESULT:      -7.6      3.040      4.418
  Name = 
  6 active torsions:
  status: ('A' for Active; 'I' for Inactive)
    1  A    between atoms: N_10  and  C_16
    2  A    between atoms: N_13  and  C_24
    3  A    between atoms: C_17  and  C_31
    4  A    between atoms: C_17  and  C_34
    5  A    between atoms: C_19  and  C_28
    6  A    between atoms: C_24  and  C_39
                            x       y       z     vdW  Elec       q    Type
                         _______ _______ _______ _____ _____    ______ ____

>  <TORSDO>
F 6

$$$$
=
 OpenBabel11042413043D

 40 46  0  0  1  0  0  0  0  0999 V2000
  183.6160  177.6760  139.3630 C   0  0  0  0  0  3  0  0  0  0  0  0
  181.3570  176.4750  140.2560 S   0  0  0  0  0  0  0  0  0  0  0  0
  181.0100  179.0730  140.9900 N   0  0  0  0  0  2  0  0  0  0  0  0
  182.0170  178.0070  140.9430 C   0  0  2  0  0  0  0  0  0  0  0  0
  182.8070  176.4270  139.1250 C   0  0  1  0  0  3  0  0  0  0  0  0
  183.2070  178.4550  140.2890 N   0  0  0  0  0  0  0  0  0  0  0  0
  181.5960  178.5410  142.2410 C   0  0  1  0  0  3  0  0  0  0  0  0
  182.4110  176.2230  137.6400 C   0  0  0  0  0  0  0  0  0  0  0  0
  182.0130  174.7730  137.4200 C   0  0  0  0  0  1  0  0  0  0  0  0
  183.5930  176.5280  136.7250 C   0  0  0  0  0  1  0  0  0  0  0  0
  179.8640  180.1540  137.3230 C   0  0  2  0  0  3  0  0  0  0  0  0
  180.3560  182.1520  138.7010 C   0  0  0  0  0  1  0  0  0  0  0  0
  178.9320  180.8050  134.7920 C   0  0  0  0  0  2  0  0  0  0  0  0
  179.8400  176.7790  137.5750 C   0  0  0  0  0  3  0  0  0  0  0  0
  181.3440  178.2550  136.7240 N   0  0  0  0  0  0  0  0  0  0  0  0
  179.5990  179.0600  134.7700 S   0  0  0  0  0  0  0  0  0  0  0  0
  180.7480  181.0840  136.4940 C   0  0  2  0  0  3  0  0  0  0  0  0
  179.1140  177.8080  137.1650 C   0  0  0  0  0  3  0  0  0  0  0  0
  180.9530  180.9560  137.9900 C   0  0  2  0  0  3  0  0  0  0  0  0
  180.0170  178.8380  136.5670 C   0  0  2  0  0  0  0  0  0  0  0  0
  179.6560  181.8070  135.7320 C   0  0  0  0  0  2  0  0  0  0  0  0
  181.2270  177.0860  137.2640 C   0  0  0  0  0  0  0  0  0  0  0  0
  182.6110  179.5180  142.8150 C   0  0  0  0  0  2  0  0  0  0  0  0
  185.7990  179.5180  142.4320 C   0  0  0  0  0  1  0  0  0  0  0  0
  186.1740  177.6580  145.2670 N   0  0  0  0  0  0  0  0  0  0  0  0
  183.0980  179.0280  144.0950 N   0  0  0  0  0  2  0  0  0  0  0  0
  186.5150  177.6730  143.8860 C   0  0  0  0  0  0  0  0  0  0  0  0
  184.4260  178.5210  144.2510 C   0  0  0  0  0  0  0  0  0  0  0  0
  184.8960  178.1970  145.4120 N   0  0  0  0  0  0  0  0  0  0  0  0
  187.4960  176.9480  143.3570 C   0  0  0  0  0  2  0  0  0  0  0  0
  185.3700  178.2270  143.1110 C   0  0  1  0  0  3  0  0  0  0  0  0
  187.8490  178.2180  148.5630 N   0  0  0  0  0  2  0  0  0  0  0  0
  189.2280  178.1890  148.0860 C   0  0  0  0  0  2  0  0  0  0  0  0
  186.9680  178.4950  147.4330 C   0  0  0  0  0  2  0  0  0  0  0  0
  187.0470  177.3680  146.4000 C   0  0  2  0  0  3  0  0  0  0  0  0
  189.4180  177.0170  147.1280 C   0  0  1  0  0  3  0  0  0  0  0  0
  188.4880  177.1660  145.9300 C   0  0  0  0  0  2  0  0  0  0  0  0
  190.8390  176.9180  146.6860 C   0  0  0  0  0  0  0  0  0  0  0  0
  191.1020  176.7770  145.4640 O   0  0  0  0  0  0  0  0  0  0  0  0
  191.8770  177.0070  147.6080 O   0  0  0  0  0  1  0  0  0  0  0  0
  1  6  2  0  0  0  0
  3  7  1  0  0  0  0
  4  2  1  6  0  0  0
  4  3  1  0  0  0  0
  4  7  1  0  0  0  0
  5  8  1  6  0  0  0
  5  1  1  0  0  0  0
  5  2  1  0  0  0  0
  6  4  1  0  0  0  0
  7 23  1  6  0  0  0
  9  8  1  0  0  0  0
 10  8  1  0  0  0  0
 11 19  1  0  0  0  0
 13 21  1  0  0  0  0
 15 22  2  0  0  0  0
 16 13  1  0  0  0  0
 16 20  1  0  0  0  0
 17 11  1  0  0  0  0
 17 19  1  0  0  0  0
 18 14  2  0  0  0  0
 19 12  1  0  0  0  0
 20 15  1  0  0  0  0
 20 18  1  0  0  0  0
 20 11  1  0  0  0  0
 21 17  1  0  0  0  0
 22 14  1  0  0  0  0
 22  8  1  0  0  0  0
 23 26  1  0  0  0  0
 24 31  1  0  0  0  0
 25 29  1  0  0  0  0
 25 35  1  0  0  0  0
 26 28  1  0  0  0  0
 27 25  1  0  0  0  0
 28 29  2  0  0  0  0
 30 27  2  0  0  0  0
 31 27  1  0  0  0  0
 31 28  1  0  0  0  0
 33 32  1  0  0  0  0
 34 32  1  0  0  0  0
 35 34  1  0  0  0  0
 36 33  1  0  0  0  0
 37 35  1  0  0  0  0
 37 36  1  0  0  0  0
 38 36  1  0  0  0  0
 38 40  1  0  0  0  0
 39 38  2  0  0  0  0
M  END
>  <MODEL>
9

>  <REMARK>
 VINA RESULT:      -7.6      6.476      9.115
  Name = 
  6 active torsions:
  status: ('A' for Active; 'I' for Inactive)
    1  A    between atoms: N_10  and  C_16
    2  A    between atoms: N_13  and  C_24
    3  A    between atoms: C_17  and  C_31
    4  A    between atoms: C_17  and  C_34
    5  A    between atoms: C_19  and  C_28
    6  A    between atoms: C_24  and  C_39
                            x       y       z     vdW  Elec       q    Type
                         _______ _______ _______ _____ _____    ______ ____

>  <TORSDO>
F 6

$$$$
