=
 OpenBabel11042413313D

 41 49  0  0  1  0  0  0  0  0999 V2000
  186.5590  178.4640  138.6800 N   0  0  0  0  0  0  0  0  0  0  0  0
  192.1920  176.3980  137.9100 C   0  0  0  0  0  2  0  0  0  0  0  0
  189.5510  176.6270  137.7280 C   0  0  0  0  0  0  0  0  0  0  0  0
  188.2510  174.9840  136.4360 C   0  0  0  0  0  3  0  0  0  0  0  0
  189.2020  177.7910  139.6780 N   0  0  0  0  0  2  0  0  0  0  0  0
  187.0100  175.1620  136.8900 C   0  0  0  0  0  3  0  0  0  0  0  0
  184.5020  177.7370  137.8060 N   0  0  0  0  0  0  0  0  0  0  0  0
  191.4300  175.4590  138.6400 O   0  0  0  0  0  0  0  0  0  0  0  0
  186.4650  176.4250  137.4310 C   0  0  0  0  0  0  0  0  0  0  0  0
  190.8540  176.7290  138.4440 C   0  0  1  0  0  0  0  0  0  0  0  0
  185.0930  176.6340  137.2850 C   0  0  0  0  0  3  0  0  0  0  0  0
  187.2080  177.3840  138.1640 C   0  0  0  0  0  0  0  0  0  0  0  0
  185.2280  178.6520  138.4960 C   0  0  0  0  0  0  0  0  0  0  0  0
  189.2540  176.0850  136.3530 C   0  0  2  0  0  3  0  0  0  0  0  0
  188.6440  177.2320  138.4880 C   0  0  0  0  0  0  0  0  0  0  0  0
  184.5900  179.7990  139.0420 N   0  0  0  0  0  1  0  0  0  0  0  0
  190.6330  177.5160  139.7390 C   0  0  2  0  0  3  0  0  0  0  0  0
  191.6370  177.4050  143.2820 C   0  0  0  0  0  2  0  0  0  0  0  0
  189.7660  176.6520  141.9450 C   0  0  0  0  0  2  0  0  0  0  0  0
  188.2450  176.5200  144.3610 O   0  0  0  0  0  0  0  0  0  0  0  0
  190.9760  176.7530  141.0260 C   0  0  2  0  0  3  0  0  0  0  0  0
  192.0490  177.4880  141.8260 C   0  0  0  0  0  2  0  0  0  0  0  0
  190.2550  176.9780  143.2690 N   0  0  0  0  0  0  0  0  0  0  0  0
  189.4470  176.8940  144.4470 C   0  0  0  0  0  0  0  0  0  0  0  0
  190.0030  177.2320  145.7190 N   0  0  0  0  0  2  0  0  0  0  0  0
  189.1290  178.0370  149.1120 N   0  0  0  0  0  2  0  0  0  0  0  0
  189.2230  177.1690  146.9430 C   0  0  1  0  0  3  0  0  0  0  0  0
  189.5840  178.3090  147.8100 N   0  0  1  0  0  0  0  0  0  0  0  0
  187.7190  177.9700  149.1460 C   0  0  0  0  0  3  0  0  0  0  0  0
  187.2350  178.1100  147.9660 N   0  0  0  0  0  0  0  0  0  0  0  0
  188.3290  178.3330  147.0180 C   0  0  2  0  0  3  0  0  0  0  0  0
  190.4810  175.6120  135.5910 C   0  0  1  0  0  3  0  0  0  0  0  0
  190.6540  174.1490  135.7560 C   0  0  1  0  0  3  0  0  0  0  0  0
  190.0840  174.7040  134.5940 O   0  0  0  0  0  0  0  0  0  0  0  0
  194.7080  172.9850  134.9320 C   0  0  0  0  0  0  0  0  0  0  0  0
  192.9560  174.6580  134.8870 C   0  0  0  0  0  3  0  0  0  0  0  0
  193.8230  172.0760  135.5200 C   0  0  0  0  0  3  0  0  0  0  0  0
  192.0720  173.7540  135.4920 C   0  0  0  0  0  0  0  0  0  0  0  0
  196.1060  172.5790  134.6390 C   0  0  0  0  0  1  0  0  0  0  0  0
  192.5070  172.4570  135.7950 C   0  0  0  0  0  3  0  0  0  0  0  0
  194.2720  174.2750  134.6130 C   0  0  0  0  0  3  0  0  0  0  0  0
  2  8  1  0  0  0  0
  3 10  1  0  0  0  0
  3 15  2  0  0  0  0
  4  6  2  0  0  0  0
  6  9  1  0  0  0  0
  7 13  1  0  0  0  0
  9 12  2  0  0  0  0
 10  2  1  6  0  0  0
 10  8  1  0  0  0  0
 10 17  1  0  0  0  0
 11  9  1  0  0  0  0
 11  7  2  0  0  0  0
 12 15  1  0  0  0  0
 12  1  1  0  0  0  0
 13  1  2  0  0  0  0
 13 16  1  0  0  0  0
 14  4  1  1  0  0  0
 14  3  1  0  0  0  0
 15  5  1  0  0  0  0
 17  5  1  1  0  0  0
 17 21  1  0  0  0  0
 19 23  1  0  0  0  0
 20 24  2  0  0  0  0
 21 22  1  1  0  0  0
 21 19  1  0  0  0  0
 22 18  1  0  0  0  0
 23 18  1  0  0  0  0
 23 24  1  0  0  0  0
 24 25  1  0  0  0  0
 26 29  1  0  0  0  0
 27 25  1  6  0  0  0
 27 31  1  0  0  0  0
 27 28  1  0  0  0  0
 28 26  1  1  0  0  0
 30 29  2  0  0  0  0
 31 28  1  0  0  0  0
 31 30  1  1  0  0  0
 32 34  1  6  0  0  0
 32 33  1  0  0  0  0
 32 14  1  0  0  0  0
 33 38  1  6  0  0  0
 34 33  1  0  0  0  0
 35 37  1  0  0  0  0
 36 38  2  0  0  0  0
 37 40  2  0  0  0  0
 38 40  1  0  0  0  0
 39 35  1  0  0  0  0
 41 36  1  0  0  0  0
 41 35  2  0  0  0  0
M  END
>  <MODEL>
1

>  <REMARK>
 VINA RESULT:      -8.5      0.000      0.000
  Name = 
  4 active torsions:
  status: ('A' for Active; 'I' for Inactive)
    1  A    between atoms: C_10  and  N_33
    2  A    between atoms: C_14  and  C_31
    3  A    between atoms: C_16  and  C_41
    4  A    between atoms: C_27  and  C_29
                            x       y       z     vdW  Elec       q    Type
                         _______ _______ _______ _____ _____    ______ ____

>  <TORSDO>
F 4

$$$$
=
 OpenBabel11042413313D

 41 49  0  0  1  0  0  0  0  0999 V2000
  190.8590  178.6670  143.0240 N   0  0  0  0  0  0  0  0  0  0  0  0
  187.5460  178.0840  137.9960 C   0  0  0  0  0  2  0  0  0  0  0  0
  188.2610  178.0430  140.5550 C   0  0  0  0  0  0  0  0  0  0  0  0
  186.6910  177.2280  142.2680 C   0  0  0  0  0  3  0  0  0  0  0  0
  190.5330  177.8940  140.2440 N   0  0  0  0  0  2  0  0  0  0  0  0
  187.4890  176.9730  143.3050 C   0  0  0  0  0  3  0  0  0  0  0  0
  190.3380  178.2870  145.2840 N   0  0  0  0  0  0  0  0  0  0  0  0
  187.8020  176.8120  138.5550 O   0  0  0  0  0  0  0  0  0  0  0  0
  188.7690  177.6520  143.5950 C   0  0  0  0  0  0  0  0  0  0  0  0
  188.5180  177.8980  139.0940 C   0  0  1  0  0  0  0  0  0  0  0  0
  189.1500  177.7330  144.9350 C   0  0  0  0  0  3  0  0  0  0  0  0
  189.6730  178.1380  142.6180 C   0  0  0  0  0  0  0  0  0  0  0  0
  191.1880  178.7570  144.3380 C   0  0  0  0  0  0  0  0  0  0  0  0
  186.9660  178.3100  141.2780 C   0  0  2  0  0  3  0  0  0  0  0  0
  189.4440  178.0140  141.1610 C   0  0  0  0  0  0  0  0  0  0  0  0
  192.4320  179.3280  144.7220 N   0  0  0  0  0  1  0  0  0  0  0  0
  190.0310  177.8130  138.8760 C   0  0  2  0  0  3  0  0  0  0  0  0
  191.8530  176.0080  136.2310 C   0  0  0  0  0  2  0  0  0  0  0  0
  191.9320  176.1700  138.6430 C   0  0  0  0  0  2  0  0  0  0  0  0
  194.6030  175.1630  138.5050 O   0  0  0  0  0  0  0  0  0  0  0  0
  190.5160  176.5190  138.2070 C   0  0  2  0  0  3  0  0  0  0  0  0
  190.5740  176.6810  136.6890 C   0  0  0  0  0  2  0  0  0  0  0  0
  192.6350  175.8080  137.4300 N   0  0  0  0  0  0  0  0  0  0  0  0
  193.9750  175.3070  137.4200 C   0  0  0  0  0  0  0  0  0  0  0  0
  194.6020  174.9700  136.1800 N   0  0  0  0  0  2  0  0  0  0  0  0
  197.5800  173.7240  134.5980 N   0  0  0  0  0  2  0  0  0  0  0  0
  195.9620  174.4640  136.1150 C   0  0  1  0  0  3  0  0  0  0  0  0
  196.4460  174.5460  134.7220 N   0  0  1  0  0  0  0  0  0  0  0  0
  198.6400  174.2090  135.3940 C   0  0  0  0  0  3  0  0  0  0  0  0
  198.2620  175.2330  136.0680 N   0  0  0  0  0  0  0  0  0  0  0  0
  196.8740  175.5500  135.7280 C   0  0  2  0  0  3  0  0  0  0  0  0
  185.7660  178.4900  140.3620 C   0  0  1  0  0  3  0  0  0  0  0  0
  184.5670  178.8550  141.1540 C   0  0  1  0  0  3  0  0  0  0  0  0
  185.3130  179.8180  140.4470 O   0  0  0  0  0  0  0  0  0  0  0  0
  180.9420  177.9060  139.0490 C   0  0  0  0  0  0  0  0  0  0  0  0
  182.6000  179.5300  139.7410 C   0  0  0  0  0  3  0  0  0  0  0  0
  181.6480  176.9010  139.7190 C   0  0  0  0  0  3  0  0  0  0  0  0
  183.3190  178.5230  140.3990 C   0  0  0  0  0  0  0  0  0  0  0  0
  179.6850  177.5780  138.3300 C   0  0  0  0  0  1  0  0  0  0  0  0
  182.8310  177.2090  140.3960 C   0  0  0  0  0  3  0  0  0  0  0  0
  181.4170  179.2210  139.0640 C   0  0  0  0  0  3  0  0  0  0  0  0
  1 13  2  0  0  0  0
  2  8  1  0  0  0  0
  3 15  2  0  0  0  0
  3 14  1  0  0  0  0
  4  6  2  0  0  0  0
  5 15  1  0  0  0  0
  6  9  1  0  0  0  0
  8 10  1  0  0  0  0
  9 11  1  0  0  0  0
 10  2  1  6  0  0  0
 10  3  1  0  0  0  0
 11  7  2  0  0  0  0
 12  1  1  0  0  0  0
 12  9  2  0  0  0  0
 13 16  1  0  0  0  0
 13  7  1  0  0  0  0
 14  4  1  1  0  0  0
 15 12  1  0  0  0  0
 17 10  1  0  0  0  0
 17  5  1  1  0  0  0
 18 22  1  0  0  0  0
 18 23  1  0  0  0  0
 21 22  1  6  0  0  0
 21 19  1  0  0  0  0
 21 17  1  0  0  0  0
 23 19  1  0  0  0  0
 24 23  1  0  0  0  0
 24 20  2  0  0  0  0
 25 24  1  0  0  0  0
 26 29  1  0  0  0  0
 27 25  1  6  0  0  0
 28 26  1  1  0  0  0
 28 31  1  0  0  0  0
 28 27  1  0  0  0  0
 29 30  2  0  0  0  0
 31 30  1  1  0  0  0
 31 27  1  0  0  0  0
 32 34  1  6  0  0  0
 32 33  1  0  0  0  0
 32 14  1  0  0  0  0
 33 38  1  6  0  0  0
 34 33  1  0  0  0  0
 35 41  2  0  0  0  0
 35 37  1  0  0  0  0
 36 38  2  0  0  0  0
 37 40  2  0  0  0  0
 39 35  1  0  0  0  0
 40 38  1  0  0  0  0
 41 36  1  0  0  0  0
M  END
>  <MODEL>
2

>  <REMARK>
 VINA RESULT:      -8.4      3.986     10.030
  Name = 
  4 active torsions:
  status: ('A' for Active; 'I' for Inactive)
    1  A    between atoms: C_10  and  N_33
    2  A    between atoms: C_14  and  C_31
    3  A    between atoms: C_16  and  C_41
    4  A    between atoms: C_27  and  C_29
                            x       y       z     vdW  Elec       q    Type
                         _______ _______ _______ _____ _____    ______ ____

>  <TORSDO>
F 4

$$$$
=
 OpenBabel11042413313D

 41 49  0  0  1  0  0  0  0  0999 V2000
  187.1150  178.6130  136.9610 N   0  0  0  0  0  0  0  0  0  0  0  0
  185.6690  179.2220  142.8040 C   0  0  0  0  0  2  0  0  0  0  0  0
  186.9450  178.4840  140.5930 C   0  0  0  0  0  0  0  0  0  0  0  0
  188.9160  177.0150  140.7310 C   0  0  0  0  0  3  0  0  0  0  0  0
  185.1850  178.6930  139.1300 N   0  0  0  0  0  2  0  0  0  0  0  0
  189.0260  176.5470  139.4880 C   0  0  0  0  0  3  0  0  0  0  0  0
  188.9000  177.5070  135.9070 N   0  0  0  0  0  0  0  0  0  0  0  0
  185.5020  177.8780  142.4040 O   0  0  0  0  0  0  0  0  0  0  0  0
  188.5840  177.2450  138.2630 C   0  0  0  0  0  0  0  0  0  0  0  0
  185.7260  178.8210  141.3820 C   0  0  1  0  0  0  0  0  0  0  0  0
  189.2780  176.9560  137.0870 C   0  0  0  0  0  3  0  0  0  0  0  0
  187.4600  178.1030  138.1750 C   0  0  0  0  0  0  0  0  0  0  0  0
  187.8280  178.3350  135.8410 C   0  0  0  0  0  0  0  0  0  0  0  0
  188.3780  178.3710  141.0450 C   0  0  2  0  0  3  0  0  0  0  0  0
  186.5710  178.4050  139.3200 C   0  0  0  0  0  0  0  0  0  0  0  0
  187.4410  178.8970  134.5940 N   0  0  0  0  0  1  0  0  0  0  0  0
  184.5510  178.9770  140.4130 C   0  0  2  0  0  3  0  0  0  0  0  0
  181.2000  177.6690  139.6190 C   0  0  0  0  0  2  0  0  0  0  0  0
  183.4590  176.8090  139.7250 C   0  0  0  0  0  2  0  0  0  0  0  0
  182.5910  174.6550  138.0580 O   0  0  0  0  0  0  0  0  0  0  0  0
  183.3820  178.0120  140.6550 C   0  0  2  0  0  3  0  0  0  0  0  0
  182.0460  178.6890  140.3540 C   0  0  0  0  0  2  0  0  0  0  0  0
  182.1160  176.6260  139.2130 N   0  0  0  0  0  0  0  0  0  0  0  0
  181.7360  175.5270  138.3800 C   0  0  0  0  0  0  0  0  0  0  0  0
  180.3900  175.4150  137.9150 N   0  0  0  0  0  2  0  0  0  0  0  0
  178.9310  173.8850  135.0070 N   0  0  0  0  0  2  0  0  0  0  0  0
  179.9560  174.3210  137.0620 C   0  0  1  0  0  3  0  0  0  0  0  0
  179.6970  174.8370  135.7030 N   0  0  1  0  0  0  0  0  0  0  0  0
  179.6610  172.6910  134.8240 C   0  0  0  0  0  3  0  0  0  0  0  0
  180.8040  172.7720  135.4000 N   0  0  0  0  0  0  0  0  0  0  0  0
  180.9490  174.0980  136.0030 C   0  0  2  0  0  3  0  0  0  0  0  0
  188.5940  178.6860  142.5160 C   0  0  1  0  0  3  0  0  0  0  0  0
  189.0220  177.4660  143.2440 C   0  0  1  0  0  3  0  0  0  0  0  0
  189.9410  178.4560  142.8460 O   0  0  0  0  0  0  0  0  0  0  0  0
  188.1860  177.7680  147.4480 C   0  0  0  0  0  0  0  0  0  0  0  0
  189.7770  177.7700  145.6220 C   0  0  0  0  0  3  0  0  0  0  0  0
  187.1420  177.5780  146.5380 C   0  0  0  0  0  3  0  0  0  0  0  0
  188.7310  177.5970  144.7050 C   0  0  0  0  0  0  0  0  0  0  0  0
  187.8960  177.8630  148.9020 C   0  0  0  0  0  1  0  0  0  0  0  0
  187.4140  177.4890  145.1700 C   0  0  0  0  0  3  0  0  0  0  0  0
  189.5030  177.8600  146.9900 C   0  0  0  0  0  3  0  0  0  0  0  0
  1 12  1  0  0  0  0
  3 14  1  0  0  0  0
  3 10  1  0  0  0  0
  5 15  1  0  0  0  0
  6  4  2  0  0  0  0
  7 11  2  0  0  0  0
  8  2  1  0  0  0  0
  9  6  1  0  0  0  0
 10  8  1  0  0  0  0
 10  2  1  1  0  0  0
 11  9  1  0  0  0  0
 12  9  2  0  0  0  0
 12 15  1  0  0  0  0
 13  7  1  0  0  0  0
 13  1  2  0  0  0  0
 14  4  1  1  0  0  0
 14 32  1  0  0  0  0
 15  3  2  0  0  0  0
 16 13  1  0  0  0  0
 17  5  1  6  0  0  0
 17 21  1  0  0  0  0
 17 10  1  0  0  0  0
 18 22  1  0  0  0  0
 20 24  2  0  0  0  0
 21 19  1  6  0  0  0
 22 21  1  0  0  0  0
 23 18  1  0  0  0  0
 23 19  1  0  0  0  0
 24 23  1  0  0  0  0
 25 24  1  0  0  0  0
 27 25  1  1  0  0  0
 28 26  1  6  0  0  0
 28 31  1  0  0  0  0
 28 27  1  0  0  0  0
 29 26  1  0  0  0  0
 29 30  2  0  0  0  0
 31 30  1  6  0  0  0
 31 27  1  0  0  0  0
 32 34  1  6  0  0  0
 32 33  1  0  0  0  0
 33 38  1  1  0  0  0
 34 33  1  0  0  0  0
 35 39  1  0  0  0  0
 36 41  2  0  0  0  0
 37 35  2  0  0  0  0
 38 40  2  0  0  0  0
 38 36  1  0  0  0  0
 40 37  1  0  0  0  0
 41 35  1  0  0  0  0
M  END
>  <MODEL>
3

>  <REMARK>
 VINA RESULT:      -8.3      4.710     10.051
  Name = 
  4 active torsions:
  status: ('A' for Active; 'I' for Inactive)
    1  A    between atoms: C_10  and  N_33
    2  A    between atoms: C_14  and  C_31
    3  A    between atoms: C_16  and  C_41
    4  A    between atoms: C_27  and  C_29
                            x       y       z     vdW  Elec       q    Type
                         _______ _______ _______ _____ _____    ______ ____

>  <TORSDO>
F 4

$$$$
=
 OpenBabel11042413313D

 41 49  0  0  1  0  0  0  0  0999 V2000
  183.6440  174.6750  137.9790 N   0  0  0  0  0  0  0  0  0  0  0  0
  181.2510  179.8820  139.9170 C   0  0  0  0  0  2  0  0  0  0  0  0
  182.2820  178.0310  138.3120 C   0  0  0  0  0  0  0  0  0  0  0  0
  182.6400  178.5200  135.9270 C   0  0  0  0  0  3  0  0  0  0  0  0
  183.4270  176.8360  139.9070 N   0  0  0  0  0  2  0  0  0  0  0  0
  183.5040  177.5750  135.5550 C   0  0  0  0  0  3  0  0  0  0  0  0
  184.2850  173.9590  135.8350 N   0  0  0  0  0  0  0  0  0  0  0  0
  182.5820  180.0920  139.4930 O   0  0  0  0  0  0  0  0  0  0  0  0
  183.6280  176.2340  136.1650 C   0  0  0  0  0  0  0  0  0  0  0  0
  182.1570  178.7540  139.6100 C   0  0  1  0  0  0  0  0  0  0  0  0
  184.0850  175.2060  135.3400 C   0  0  0  0  0  3  0  0  0  0  0  0
  183.4100  175.9400  137.5340 C   0  0  0  0  0  0  0  0  0  0  0  0
  184.0620  173.6900  137.1450 C   0  0  0  0  0  0  0  0  0  0  0  0
  181.6150  178.3130  136.9910 C   0  0  2  0  0  3  0  0  0  0  0  0
  183.0320  176.9580  138.5390 C   0  0  0  0  0  0  0  0  0  0  0  0
  184.2840  172.3780  137.6480 N   0  0  0  0  0  1  0  0  0  0  0  0
  182.9040  177.9570  140.6820 C   0  0  2  0  0  3  0  0  0  0  0  0
  184.9630  178.7610  143.6290 C   0  0  0  0  0  2  0  0  0  0  0  0
  185.3190  177.8700  141.4080 C   0  0  0  0  0  2  0  0  0  0  0  0
  187.7950  176.8070  142.3600 O   0  0  0  0  0  0  0  0  0  0  0  0
  184.0520  178.7120  141.3660 C   0  0  2  0  0  3  0  0  0  0  0  0
  183.7070  179.0230  142.8220 C   0  0  0  0  0  2  0  0  0  0  0  0
  185.8370  178.0110  142.7530 N   0  0  0  0  0  0  0  0  0  0  0  0
  187.0860  177.4570  143.1760 C   0  0  0  0  0  0  0  0  0  0  0  0
  187.5290  177.6410  144.5220 N   0  0  0  0  0  2  0  0  0  0  0  0
  191.0770  177.5520  145.0990 N   0  0  0  0  0  2  0  0  0  0  0  0
  188.7870  177.0930  145.0020 C   0  0  1  0  0  3  0  0  0  0  0  0
  189.8110  178.1560  145.0080 N   0  0  1  0  0  0  0  0  0  0  0  0
  191.2240  176.8810  146.3320 C   0  0  0  0  0  3  0  0  0  0  0  0
  190.1380  176.9470  147.0110 N   0  0  0  0  0  0  0  0  0  0  0  0
  189.1530  177.7380  146.2710 C   0  0  2  0  0  3  0  0  0  0  0  0
  180.6510  179.4880  137.0170 C   0  0  1  0  0  3  0  0  0  0  0  0
  180.8460  180.3370  135.8160 C   0  0  1  0  0  3  0  0  0  0  0  0
  179.7920  179.4070  135.9070 O   0  0  0  0  0  0  0  0  0  0  0  0
  179.4210  184.3360  136.4860 C   0  0  0  0  0  0  0  0  0  0  0  0
  179.4210  182.3030  135.1680 C   0  0  0  0  0  3  0  0  0  0  0  0
  180.3400  183.7620  137.3700 C   0  0  0  0  0  3  0  0  0  0  0  0
  180.3290  181.7190  136.0610 C   0  0  0  0  0  0  0  0  0  0  0  0
  178.9360  185.7210  136.7140 C   0  0  0  0  0  1  0  0  0  0  0  0
  180.7970  182.4580  137.1560 C   0  0  0  0  0  3  0  0  0  0  0  0
  178.9650  183.6070  135.3840 C   0  0  0  0  0  3  0  0  0  0  0  0
  3 15  2  0  0  0  0
  3 10  1  0  0  0  0
  6  4  2  0  0  0  0
  6  9  1  0  0  0  0
  7 13  1  0  0  0  0
  8 10  1  0  0  0  0
  8  2  1  0  0  0  0
  9 12  2  0  0  0  0
 10  2  1  1  0  0  0
 10 17  1  0  0  0  0
 11  7  2  0  0  0  0
 11  9  1  0  0  0  0
 12  1  1  0  0  0  0
 12 15  1  0  0  0  0
 13 16  1  0  0  0  0
 13  1  2  0  0  0  0
 14  4  1  6  0  0  0
 14 32  1  0  0  0  0
 14  3  1  0  0  0  0
 15  5  1  0  0  0  0
 17  5  1  6  0  0  0
 17 21  1  0  0  0  0
 19 23  1  0  0  0  0
 20 24  2  0  0  0  0
 21 19  1  1  0  0  0
 21 22  1  0  0  0  0
 22 18  1  0  0  0  0
 23 24  1  0  0  0  0
 23 18  1  0  0  0  0
 24 25  1  0  0  0  0
 26 29  1  0  0  0  0
 27 25  1  6  0  0  0
 27 28  1  0  0  0  0
 27 31  1  0  0  0  0
 28 26  1  1  0  0  0
 28 31  1  0  0  0  0
 29 30  2  0  0  0  0
 31 30  1  1  0  0  0
 32 34  1  6  0  0  0
 33 34  1  0  0  0  0
 33 38  1  1  0  0  0
 33 32  1  0  0  0  0
 35 39  1  0  0  0  0
 35 37  1  0  0  0  0
 36 41  1  0  0  0  0
 36 38  2  0  0  0  0
 38 40  1  0  0  0  0
 40 37  2  0  0  0  0
 41 35  2  0  0  0  0
M  END
>  <MODEL>
4

>  <REMARK>
 VINA RESULT:      -7.9      5.627      9.405
  Name = 
  4 active torsions:
  status: ('A' for Active; 'I' for Inactive)
    1  A    between atoms: C_10  and  N_33
    2  A    between atoms: C_14  and  C_31
    3  A    between atoms: C_16  and  C_41
    4  A    between atoms: C_27  and  C_29
                            x       y       z     vdW  Elec       q    Type
                         _______ _______ _______ _____ _____    ______ ____

>  <TORSDO>
F 4

$$$$
=
 OpenBabel11042413313D

 41 49  0  0  1  0  0  0  0  0999 V2000
  182.9460  174.8030  137.5570 N   0  0  0  0  0  0  0  0  0  0  0  0
  181.2900  180.3300  139.3760 C   0  0  0  0  0  2  0  0  0  0  0  0
  181.9110  178.2820  137.8000 C   0  0  0  0  0  0  0  0  0  0  0  0
  181.9210  178.5590  135.3540 C   0  0  0  0  0  3  0  0  0  0  0  0
  183.2000  177.1130  139.3000 N   0  0  0  0  0  2  0  0  0  0  0  0
  182.6410  177.5160  134.9400 C   0  0  0  0  0  3  0  0  0  0  0  0
  183.1820  173.8770  135.4110 N   0  0  0  0  0  0  0  0  0  0  0  0
  182.5480  180.3900  138.7370 O   0  0  0  0  0  0  0  0  0  0  0  0
  182.7590  176.2190  135.6380 C   0  0  0  0  0  0  0  0  0  0  0  0
  182.0470  179.1080  139.0340 C   0  0  1  0  0  0  0  0  0  0  0  0
  183.0010  175.0960  134.8460 C   0  0  0  0  0  3  0  0  0  0  0  0
  182.7400  176.0470  137.0450 C   0  0  0  0  0  0  0  0  0  0  0  0
  183.1500  173.7260  136.7580 C   0  0  0  0  0  0  0  0  0  0  0  0
  181.0650  178.5230  136.5760 C   0  0  2  0  0  3  0  0  0  0  0  0
  182.6040  177.1670  138.0030 C   0  0  0  0  0  0  0  0  0  0  0  0
  183.3490  172.4410  137.3340 N   0  0  0  0  0  1  0  0  0  0  0  0
  182.8930  178.3290  140.0450 C   0  0  2  0  0  3  0  0  0  0  0  0
  186.2490  178.3030  141.5660 C   0  0  0  0  0  2  0  0  0  0  0  0
  185.2770  178.8760  139.4250 C   0  0  0  0  0  2  0  0  0  0  0  0
  187.8870  178.5890  138.2970 O   0  0  0  0  0  0  0  0  0  0  0  0
  184.1890  179.0290  140.4780 C   0  0  2  0  0  3  0  0  0  0  0  0
  184.7470  178.3990  141.7530 C   0  0  0  0  0  2  0  0  0  0  0  0
  186.4770  178.5210  140.1540 N   0  0  0  0  0  0  0  0  0  0  0  0
  187.7610  178.3910  139.5370 C   0  0  0  0  0  0  0  0  0  0  0  0
  188.9000  178.0370  140.3250 N   0  0  0  0  0  2  0  0  0  0  0  0
  192.4180  177.2990  140.2960 N   0  0  0  0  0  2  0  0  0  0  0  0
  190.2240  177.8870  139.7450 C   0  0  1  0  0  3  0  0  0  0  0  0
  191.0760  177.1150  140.6710 N   0  0  1  0  0  0  0  0  0  0  0  0
  192.6610  176.7530  139.0170 C   0  0  0  0  0  3  0  0  0  0  0  0
  191.5750  176.2920  138.5130 N   0  0  0  0  0  0  0  0  0  0  0  0
  190.4840  176.4660  139.4740 C   0  0  2  0  0  3  0  0  0  0  0  0
  180.2090  179.7770  136.6460 C   0  0  1  0  0  3  0  0  0  0  0  0
  180.7000  180.7860  135.6770 C   0  0  1  0  0  3  0  0  0  0  0  0
  179.5800  179.9770  135.4040 O   0  0  0  0  0  0  0  0  0  0  0  0
  179.4700  184.7240  136.8800 C   0  0  0  0  0  0  0  0  0  0  0  0
  180.8050  183.2880  135.4580 C   0  0  0  0  0  3  0  0  0  0  0  0
  178.9310  183.5980  137.5100 C   0  0  0  0  0  3  0  0  0  0  0  0
  180.2550  182.1570  136.0760 C   0  0  0  0  0  0  0  0  0  0  0  0
  179.0500  186.0850  137.3030 C   0  0  0  0  0  1  0  0  0  0  0  0
  179.3250  182.3180  137.1120 C   0  0  0  0  0  3  0  0  0  0  0  0
  180.4100  184.5680  135.8570 C   0  0  0  0  0  3  0  0  0  0  0  0
  3 15  2  0  0  0  0
  3 10  1  0  0  0  0
  6  4  2  0  0  0  0
  6  9  1  0  0  0  0
  7 13  1  0  0  0  0
  8 10  1  0  0  0  0
  8  2  1  0  0  0  0
  9 12  2  0  0  0  0
 10  2  1  1  0  0  0
 10 17  1  0  0  0  0
 11  7  2  0  0  0  0
 11  9  1  0  0  0  0
 12  1  1  0  0  0  0
 12 15  1  0  0  0  0
 13 16  1  0  0  0  0
 13  1  2  0  0  0  0
 14  4  1  6  0  0  0
 14 32  1  0  0  0  0
 14  3  1  0  0  0  0
 15  5  1  0  0  0  0
 17  5  1  6  0  0  0
 17 21  1  0  0  0  0
 18 22  1  0  0  0  0
 19 23  1  0  0  0  0
 20 24  2  0  0  0  0
 21 19  1  6  0  0  0
 21 22  1  0  0  0  0
 23 18  1  0  0  0  0
 24 23  1  0  0  0  0
 24 25  1  0  0  0  0
 27 25  1  1  0  0  0
 27 28  1  0  0  0  0
 28 26  1  6  0  0  0
 29 26  1  0  0  0  0
 30 29  2  0  0  0  0
 31 30  1  6  0  0  0
 31 27  1  0  0  0  0
 31 28  1  0  0  0  0
 32 34  1  6  0  0  0
 33 38  1  1  0  0  0
 33 32  1  0  0  0  0
 34 33  1  0  0  0  0
 35 39  1  0  0  0  0
 35 37  1  0  0  0  0
 36 41  1  0  0  0  0
 36 38  2  0  0  0  0
 38 40  1  0  0  0  0
 40 37  2  0  0  0  0
 41 35  2  0  0  0  0
M  END
>  <MODEL>
5

>  <REMARK>
 VINA RESULT:      -7.6      4.986     10.230
  Name = 
  4 active torsions:
  status: ('A' for Active; 'I' for Inactive)
    1  A    between atoms: C_10  and  N_33
    2  A    between atoms: C_14  and  C_31
    3  A    between atoms: C_16  and  C_41
    4  A    between atoms: C_27  and  C_29
                            x       y       z     vdW  Elec       q    Type
                         _______ _______ _______ _____ _____    ______ ____

>  <TORSDO>
F 4

$$$$
=
 OpenBabel11042413313D

 41 49  0  0  1  0  0  0  0  0999 V2000
  184.4220  172.5310  136.4850 N   0  0  0  0  0  0  0  0  0  0  0  0
  185.9880  178.1760  137.9950 C   0  0  0  0  0  2  0  0  0  0  0  0
  184.7230  176.1380  136.8520 C   0  0  0  0  0  0  0  0  0  0  0  0
  182.9180  176.5520  135.2300 C   0  0  0  0  0  3  0  0  0  0  0  0
  186.4030  174.5820  137.0370 N   0  0  0  0  0  2  0  0  0  0  0  0
  182.8160  175.3850  134.5940 C   0  0  0  0  0  3  0  0  0  0  0  0
  182.7260  171.7090  135.0820 N   0  0  0  0  0  0  0  0  0  0  0  0
  186.2780  177.9440  136.6330 O   0  0  0  0  0  0  0  0  0  0  0  0
  183.1440  174.0620  135.1640 C   0  0  0  0  0  0  0  0  0  0  0  0
  185.9260  176.8210  137.4060 C   0  0  1  0  0  0  0  0  0  0  0  0
  182.4450  172.9660  134.6570 C   0  0  0  0  0  3  0  0  0  0  0  0
  184.1710  173.8150  136.1090 C   0  0  0  0  0  0  0  0  0  0  0  0
  183.7050  171.4890  135.9940 C   0  0  0  0  0  0  0  0  0  0  0  0
  183.3240  176.6660  136.6610 C   0  0  2  0  0  3  0  0  0  0  0  0
  185.0610  174.8700  136.6430 C   0  0  0  0  0  0  0  0  0  0  0  0
  183.9920  170.1640  136.4230 N   0  0  0  0  0  1  0  0  0  0  0  0
  187.0460  175.7880  137.5470 C   0  0  2  0  0  3  0  0  0  0  0  0
  190.5770  176.8160  137.3100 C   0  0  0  0  0  2  0  0  0  0  0  0
  189.2450  174.8930  136.6920 C   0  0  0  0  0  2  0  0  0  0  0  0
  191.6740  173.3890  136.6000 O   0  0  0  0  0  0  0  0  0  0  0  0
  188.3160  176.0970  136.7400 C   0  0  2  0  0  3  0  0  0  0  0  0
  189.1180  177.2190  137.3970 C   0  0  0  0  0  2  0  0  0  0  0  0
  190.5700  175.4110  136.9630 N   0  0  0  0  0  0  0  0  0  0  0  0
  191.7540  174.6110  136.9030 C   0  0  0  0  0  0  0  0  0  0  0  0
  193.0260  175.1970  137.1840 N   0  0  0  0  0  2  0  0  0  0  0  0
  196.5800  174.6610  137.2660 N   0  0  0  0  0  2  0  0  0  0  0  0
  194.2580  174.4260  137.1420 C   0  0  1  0  0  3  0  0  0  0  0  0
  195.3680  175.2530  137.6580 N   0  0  1  0  0  0  0  0  0  0  0  0
  196.7400  173.3960  137.8720 C   0  0  0  0  0  3  0  0  0  0  0  0
  195.7030  173.0980  138.5670 N   0  0  0  0  0  0  0  0  0  0  0  0
  194.7480  174.2070  138.5100 C   0  0  2  0  0  3  0  0  0  0  0  0
  183.1250  178.0930  137.1440 C   0  0  1  0  0  3  0  0  0  0  0  0
  181.6840  178.3630  137.3660 C   0  0  1  0  0  3  0  0  0  0  0  0
  182.5590  178.0720  138.4310 O   0  0  0  0  0  0  0  0  0  0  0  0
  180.8330  182.5730  137.2510 C   0  0  0  0  0  0  0  0  0  0  0  0
  181.8040  180.6610  138.3770 C   0  0  0  0  0  3  0  0  0  0  0  0
  180.4250  181.7470  136.2000 C   0  0  0  0  0  3  0  0  0  0  0  0
  181.4120  179.8320  137.3170 C   0  0  0  0  0  0  0  0  0  0  0  0
  180.5300  184.0270  137.2140 C   0  0  0  0  0  1  0  0  0  0  0  0
  180.7090  180.3790  136.2340 C   0  0  0  0  0  3  0  0  0  0  0  0
  181.5190  182.0290  138.3410 C   0  0  0  0  0  3  0  0  0  0  0  0
  3 10  1  0  0  0  0
  6  9  1  0  0  0  0
  6  4  2  0  0  0  0
  7 13  1  0  0  0  0
  8 10  1  0  0  0  0
  8  2  1  0  0  0  0
  9 12  2  0  0  0  0
 10 17  1  0  0  0  0
 10  2  1  1  0  0  0
 11  7  2  0  0  0  0
 11  9  1  0  0  0  0
 12  1  1  0  0  0  0
 12 15  1  0  0  0  0
 13 16  1  0  0  0  0
 13  1  2  0  0  0  0
 14  4  1  6  0  0  0
 14  3  1  0  0  0  0
 14 32  1  0  0  0  0
 15  3  2  0  0  0  0
 15  5  1  0  0  0  0
 17  5  1  6  0  0  0
 18 22  1  0  0  0  0
 19 23  1  0  0  0  0
 20 24  2  0  0  0  0
 21 19  1  1  0  0  0
 21 22  1  0  0  0  0
 21 17  1  0  0  0  0
 23 18  1  0  0  0  0
 24 23  1  0  0  0  0
 24 25  1  0  0  0  0
 26 29  1  0  0  0  0
 27 25  1  1  0  0  0
 27 28  1  0  0  0  0
 27 31  1  0  0  0  0
 28 26  1  6  0  0  0
 28 31  1  0  0  0  0
 29 30  2  0  0  0  0
 31 30  1  6  0  0  0
 32 33  1  0  0  0  0
 32 34  1  1  0  0  0
 33 38  1  1  0  0  0
 33 34  1  0  0  0  0
 35 41  1  0  0  0  0
 37 40  1  0  0  0  0
 37 35  2  0  0  0  0
 38 36  1  0  0  0  0
 39 35  1  0  0  0  0
 40 38  2  0  0  0  0
 41 36  2  0  0  0  0
M  END
>  <MODEL>
6

>  <REMARK>
 VINA RESULT:      -7.4      5.472      9.872
  Name = 
  4 active torsions:
  status: ('A' for Active; 'I' for Inactive)
    1  A    between atoms: C_10  and  N_33
    2  A    between atoms: C_14  and  C_31
    3  A    between atoms: C_16  and  C_41
    4  A    between atoms: C_27  and  C_29
                            x       y       z     vdW  Elec       q    Type
                         _______ _______ _______ _____ _____    ______ ____

>  <TORSDO>
F 4

$$$$
=
 OpenBabel11042413313D

 41 49  0  0  1  0  0  0  0  0999 V2000
  187.6770  172.7740  136.7450 N   0  0  0  0  0  0  0  0  0  0  0  0
  187.3380  178.3680  139.0230 C   0  0  0  0  0  2  0  0  0  0  0  0
  186.9040  176.2530  137.4730 C   0  0  0  0  0  0  0  0  0  0  0  0
  185.3660  176.4150  135.5580 C   0  0  0  0  0  3  0  0  0  0  0  0
  188.8880  175.1640  137.8650 N   0  0  0  0  0  2  0  0  0  0  0  0
  185.7030  175.3590  134.8160 C   0  0  0  0  0  3  0  0  0  0  0  0
  186.5460  171.7500  134.9590 N   0  0  0  0  0  0  0  0  0  0  0  0
  187.9140  178.4070  137.7340 O   0  0  0  0  0  0  0  0  0  0  0  0
  186.2780  174.0970  135.3260 C   0  0  0  0  0  0  0  0  0  0  0  0
  187.7550  177.1360  138.3200 C   0  0  1  0  0  0  0  0  0  0  0  0
  186.0080  172.9400  134.5940 C   0  0  0  0  0  3  0  0  0  0  0  0
  187.1520  173.9910  136.4370 C   0  0  0  0  0  0  0  0  0  0  0  0
  187.3720  171.6620  136.0300 C   0  0  0  0  0  0  0  0  0  0  0  0
  185.4690  176.4300  137.0460 C   0  0  2  0  0  3  0  0  0  0  0  0
  187.6090  175.1530  137.2310 C   0  0  0  0  0  0  0  0  0  0  0  0
  187.9330  170.4070  136.3930 N   0  0  0  0  0  1  0  0  0  0  0  0
  189.0750  176.4120  138.5980 C   0  0  2  0  0  3  0  0  0  0  0  0
  192.7140  176.9850  138.5930 C   0  0  0  0  0  2  0  0  0  0  0  0
  191.0160  176.3580  136.9870 C   0  0  0  0  0  2  0  0  0  0  0  0
  193.1150  175.3140  135.3520 O   0  0  0  0  0  0  0  0  0  0  0  0
  190.3300  177.1410  138.0980 C   0  0  2  0  0  3  0  0  0  0  0  0
  191.3630  177.2740  139.2160 C   0  0  0  0  0  2  0  0  0  0  0  0
  192.4270  176.3760  137.3120 N   0  0  0  0  0  0  0  0  0  0  0  0
  193.4370  175.8380  136.4540 C   0  0  0  0  0  0  0  0  0  0  0  0
  194.8110  175.8940  136.8450 N   0  0  0  0  0  2  0  0  0  0  0  0
  198.1960  175.3840  135.7470 N   0  0  0  0  0  2  0  0  0  0  0  0
  195.8730  175.3560  136.0130 C   0  0  1  0  0  3  0  0  0  0  0  0
  197.1700  175.5470  136.6940 N   0  0  1  0  0  0  0  0  0  0  0  0
  198.2200  174.0600  135.2570 C   0  0  0  0  0  3  0  0  0  0  0  0
  197.2560  173.3790  135.7590 N   0  0  0  0  0  0  0  0  0  0  0  0
  196.5060  174.2190  136.6960 C   0  0  2  0  0  3  0  0  0  0  0  0
  184.8030  177.6800  137.5980 C   0  0  1  0  0  3  0  0  0  0  0  0
  183.3590  177.4330  137.8260 C   0  0  1  0  0  3  0  0  0  0  0  0
  184.2940  177.4050  138.8790 O   0  0  0  0  0  0  0  0  0  0  0  0
  181.2380  181.1700  137.8450 C   0  0  0  0  0  0  0  0  0  0  0  0
  181.5390  178.9350  136.9610 C   0  0  0  0  0  3  0  0  0  0  0  0
  182.3090  180.9680  138.7200 C   0  0  0  0  0  3  0  0  0  0  0  0
  182.6030  178.7230  137.8490 C   0  0  0  0  0  0  0  0  0  0  0  0
  180.5110  182.4650  137.8460 C   0  0  0  0  0  1  0  0  0  0  0  0
  182.9930  179.7490  138.7200 C   0  0  0  0  0  3  0  0  0  0  0  0
  180.8560  180.1540  136.9630 C   0  0  0  0  0  3  0  0  0  0  0  0
  3 10  1  0  0  0  0
  6  9  1  0  0  0  0
  6  4  2  0  0  0  0
  7 13  1  0  0  0  0
  8 10  1  0  0  0  0
  8  2  1  0  0  0  0
  9 12  2  0  0  0  0
 10 17  1  0  0  0  0
 10  2  1  1  0  0  0
 11  7  2  0  0  0  0
 11  9  1  0  0  0  0
 12  1  1  0  0  0  0
 12 15  1  0  0  0  0
 13 16  1  0  0  0  0
 13  1  2  0  0  0  0
 14  4  1  6  0  0  0
 14  3  1  0  0  0  0
 14 32  1  0  0  0  0
 15  3  2  0  0  0  0
 15  5  1  0  0  0  0
 17  5  1  6  0  0  0
 18 22  1  0  0  0  0
 19 23  1  0  0  0  0
 20 24  2  0  0  0  0
 21 19  1  6  0  0  0
 21 17  1  0  0  0  0
 21 22  1  0  0  0  0
 23 18  1  0  0  0  0
 24 25  1  0  0  0  0
 24 23  1  0  0  0  0
 27 28  1  0  0  0  0
 27 31  1  0  0  0  0
 27 25  1  1  0  0  0
 28 26  1  6  0  0  0
 28 31  1  0  0  0  0
 29 26  1  0  0  0  0
 29 30  2  0  0  0  0
 31 30  1  6  0  0  0
 32 33  1  0  0  0  0
 32 34  1  1  0  0  0
 33 38  1  1  0  0  0
 33 34  1  0  0  0  0
 35 39  1  0  0  0  0
 35 37  1  0  0  0  0
 36 41  1  0  0  0  0
 36 38  2  0  0  0  0
 37 40  2  0  0  0  0
 38 40  1  0  0  0  0
 41 35  2  0  0  0  0
M  END
>  <MODEL>
7

>  <REMARK>
 VINA RESULT:      -7.3      4.949      9.708
  Name = 
  4 active torsions:
  status: ('A' for Active; 'I' for Inactive)
    1  A    between atoms: C_10  and  N_33
    2  A    between atoms: C_14  and  C_31
    3  A    between atoms: C_16  and  C_41
    4  A    between atoms: C_27  and  C_29
                            x       y       z     vdW  Elec       q    Type
                         _______ _______ _______ _____ _____    ______ ____

>  <TORSDO>
F 4

$$$$
=
 OpenBabel11042413313D

 41 49  0  0  1  0  0  0  0  0999 V2000
  190.4740  177.8700  144.0750 N   0  0  0  0  0  0  0  0  0  0  0  0
  187.9470  178.5660  138.6230 C   0  0  0  0  0  2  0  0  0  0  0  0
  188.2380  178.0350  141.2100 C   0  0  0  0  0  0  0  0  0  0  0  0
  186.3230  177.2350  142.5340 C   0  0  0  0  0  3  0  0  0  0  0  0
  190.4900  177.5770  141.1860 N   0  0  0  0  0  2  0  0  0  0  0  0
  186.9050  176.7070  143.6110 C   0  0  0  0  0  3  0  0  0  0  0  0
  189.5570  177.2480  146.1470 N   0  0  0  0  0  0  0  0  0  0  0  0
  187.9390  177.2010  138.9870 O   0  0  0  0  0  0  0  0  0  0  0  0
  188.2030  177.1250  144.1810 C   0  0  0  0  0  0  0  0  0  0  0  0
  188.7010  178.0680  139.7940 C   0  0  1  0  0  0  0  0  0  0  0  0
  188.3760  176.9460  145.5540 C   0  0  0  0  0  3  0  0  0  0  0  0
  189.3070  177.6000  143.4290 C   0  0  0  0  0  0  0  0  0  0  0  0
  190.6010  177.7120  145.4170 C   0  0  0  0  0  0  0  0  0  0  0  0
  186.8930  178.3940  141.7880 C   0  0  2  0  0  3  0  0  0  0  0  0
  189.2960  177.7310  141.9550 C   0  0  0  0  0  0  0  0  0  0  0  0
  191.8350  178.0160  146.0550 N   0  0  0  0  0  1  0  0  0  0  0  0
  190.2040  177.7790  139.7690 C   0  0  2  0  0  3  0  0  0  0  0  0
  191.8090  176.1710  136.8690 C   0  0  0  0  0  2  0  0  0  0  0  0
  192.0380  176.1180  139.2770 C   0  0  0  0  0  2  0  0  0  0  0  0
  194.6660  175.0630  138.8860 O   0  0  0  0  0  0  0  0  0  0  0  0
  190.6090  176.5370  138.9620 C   0  0  2  0  0  3  0  0  0  0  0  0
  190.5800  176.8300  137.4630 C   0  0  0  0  0  2  0  0  0  0  0  0
  192.6560  175.8460  137.9960 N   0  0  0  0  0  0  0  0  0  0  0  0
  193.9780  175.3170  137.8580 C   0  0  0  0  0  0  0  0  0  0  0  0
  194.5190  175.0760  136.5580 N   0  0  0  0  0  2  0  0  0  0  0  0
  197.1160  172.5900  136.6120 N   0  0  0  0  0  2  0  0  0  0  0  0
  195.8580  174.5450  136.3640 C   0  0  1  0  0  3  0  0  0  0  0  0
  195.8090  173.0700  136.4160 N   0  0  1  0  0  0  0  0  0  0  0  0
  197.9350  172.9010  135.5050 C   0  0  0  0  0  3  0  0  0  0  0  0
  197.2830  173.5960  134.6460 N   0  0  0  0  0  0  0  0  0  0  0  0
  195.9070  173.7750  135.1140 C   0  0  2  0  0  3  0  0  0  0  0  0
  185.8880  178.8940  140.7620 C   0  0  1  0  0  3  0  0  0  0  0  0
  184.5100  178.5500  141.1860 C   0  0  1  0  0  3  0  0  0  0  0  0
  185.0430  179.8410  141.3670 O   0  0  0  0  0  0  0  0  0  0  0  0
  181.9150  178.5240  137.7610 C   0  0  0  0  0  0  0  0  0  0  0  0
  183.1460  177.3240  139.4680 C   0  0  0  0  0  3  0  0  0  0  0  0
  182.3650  179.7370  138.2890 C   0  0  0  0  0  3  0  0  0  0  0  0
  183.5860  178.5390  140.0100 C   0  0  0  0  0  0  0  0  0  0  0  0
  181.0250  178.5160  136.5720 C   0  0  0  0  0  1  0  0  0  0  0  0
  183.2030  179.7450  139.4090 C   0  0  0  0  0  3  0  0  0  0  0  0
  182.3080  177.3180  138.3490 C   0  0  0  0  0  3  0  0  0  0  0  0
  1 13  2  0  0  0  0
  2  8  1  0  0  0  0
  3 14  1  0  0  0  0
  3 15  2  0  0  0  0
  4  6  2  0  0  0  0
  5 15  1  0  0  0  0
  6  9  1  0  0  0  0
  8 10  1  0  0  0  0
  9 11  1  0  0  0  0
 10  2  1  6  0  0  0
 10  3  1  0  0  0  0
 11  7  2  0  0  0  0
 12  1  1  0  0  0  0
 12  9  2  0  0  0  0
 13 16  1  0  0  0  0
 13  7  1  0  0  0  0
 14  4  1  6  0  0  0
 15 12  1  0  0  0  0
 17 10  1  0  0  0  0
 17  5  1  1  0  0  0
 18 22  1  0  0  0  0
 18 23  1  0  0  0  0
 21 22  1  6  0  0  0
 21 19  1  0  0  0  0
 21 17  1  0  0  0  0
 23 19  1  0  0  0  0
 24 23  1  0  0  0  0
 24 20  2  0  0  0  0
 25 24  1  0  0  0  0
 27 28  1  0  0  0  0
 27 25  1  6  0  0  0
 28 26  1  1  0  0  0
 29 26  1  0  0  0  0
 30 29  2  0  0  0  0
 31 30  1  1  0  0  0
 31 27  1  0  0  0  0
 31 28  1  0  0  0  0
 32 33  1  0  0  0  0
 32 34  1  1  0  0  0
 32 14  1  0  0  0  0
 33 38  1  6  0  0  0
 33 34  1  0  0  0  0
 35 37  2  0  0  0  0
 35 41  1  0  0  0  0
 36 38  1  0  0  0  0
 37 40  1  0  0  0  0
 39 35  1  0  0  0  0
 40 38  2  0  0  0  0
 41 36  2  0  0  0  0
M  END
>  <MODEL>
8

>  <REMARK>
 VINA RESULT:      -7.2      3.721      9.844
  Name = 
  4 active torsions:
  status: ('A' for Active; 'I' for Inactive)
    1  A    between atoms: C_10  and  N_33
    2  A    between atoms: C_14  and  C_31
    3  A    between atoms: C_16  and  C_41
    4  A    between atoms: C_27  and  C_29
                            x       y       z     vdW  Elec       q    Type
                         _______ _______ _______ _____ _____    ______ ____

>  <TORSDO>
F 4

$$$$
=
 OpenBabel11042413313D

 41 49  0  0  1  0  0  0  0  0999 V2000
  189.7210  177.9820  144.7620 N   0  0  0  0  0  0  0  0  0  0  0  0
  185.4660  179.5090  140.7410 C   0  0  0  0  0  2  0  0  0  0  0  0
  186.6260  178.5940  142.9510 C   0  0  0  0  0  0  0  0  0  0  0  0
  185.2620  177.6240  144.7550 C   0  0  0  0  0  3  0  0  0  0  0  0
  188.6870  178.1240  142.0510 N   0  0  0  0  0  2  0  0  0  0  0  0
  186.1550  176.9350  145.4660 C   0  0  0  0  0  3  0  0  0  0  0  0
  189.5650  177.0660  146.9200 N   0  0  0  0  0  0  0  0  0  0  0  0
  185.5020  178.1050  140.8950 O   0  0  0  0  0  0  0  0  0  0  0  0
  187.5940  177.2510  145.5790 C   0  0  0  0  0  0  0  0  0  0  0  0
  186.5540  178.8350  141.4810 C   0  0  1  0  0  0  0  0  0  0  0  0
  188.2330  176.8680  146.7590 C   0  0  0  0  0  3  0  0  0  0  0  0
  188.3850  177.8230  144.5520 C   0  0  0  0  0  0  0  0  0  0  0  0
  190.3070  177.6240  145.9320 C   0  0  0  0  0  0  0  0  0  0  0  0
  185.6000  178.8760  144.0180 C   0  0  2  0  0  3  0  0  0  0  0  0
  187.8580  178.1730  143.2140 C   0  0  0  0  0  0  0  0  0  0  0  0
  191.7040  177.8170  146.1160 N   0  0  0  0  0  1  0  0  0  0  0  0
  187.9290  178.5380  140.8760 C   0  0  2  0  0  3  0  0  0  0  0  0
  188.6910  177.2790  137.4980 C   0  0  0  0  0  2  0  0  0  0  0  0
  189.2880  176.7200  139.7750 C   0  0  0  0  0  2  0  0  0  0  0  0
  191.5520  175.3340  138.7160 O   0  0  0  0  0  0  0  0  0  0  0  0
  187.9420  177.4280  139.8160 C   0  0  2  0  0  3  0  0  0  0  0  0
  187.7320  178.0080  138.4180 C   0  0  0  0  0  2  0  0  0  0  0  0
  189.6250  176.6030  138.3720 N   0  0  0  0  0  0  0  0  0  0  0  0
  190.7740  175.8950  137.8960 C   0  0  0  0  0  0  0  0  0  0  0  0
  191.0390  175.8240  136.4940 N   0  0  0  0  0  2  0  0  0  0  0  0
  194.0780  175.4400  134.6120 N   0  0  0  0  0  2  0  0  0  0  0  0
  192.1950  175.1240  135.9610 C   0  0  1  0  0  3  0  0  0  0  0  0
  193.1690  176.1090  135.4490 N   0  0  1  0  0  0  0  0  0  0  0  0
  194.8400  174.5040  135.3450 C   0  0  0  0  0  3  0  0  0  0  0  0
  194.4510  174.4690  136.5670 N   0  0  0  0  0  0  0  0  0  0  0  0
  193.3820  175.4510  136.7630 C   0  0  2  0  0  3  0  0  0  0  0  0
  184.3300  179.5330  143.5040 C   0  0  1  0  0  3  0  0  0  0  0  0
  183.1720  178.6250  143.6880 C   0  0  1  0  0  3  0  0  0  0  0  0
  183.4270  179.6930  144.5700 O   0  0  0  0  0  0  0  0  0  0  0  0
  180.0200  179.7380  140.9880 C   0  0  0  0  0  0  0  0  0  0  0  0
  182.1420  178.6430  141.3960 C   0  0  0  0  0  3  0  0  0  0  0  0
  179.9480  180.1000  142.3360 C   0  0  0  0  0  3  0  0  0  0  0  0
  182.0650  178.9890  142.7520 C   0  0  0  0  0  0  0  0  0  0  0  0
  178.9350  180.1310  140.0530 C   0  0  0  0  0  1  0  0  0  0  0  0
  180.9690  179.7300  143.2160 C   0  0  0  0  0  3  0  0  0  0  0  0
  181.1200  179.0130  140.5170 C   0  0  0  0  0  3  0  0  0  0  0  0
  1 13  2  0  0  0  0
  2  8  1  0  0  0  0
  3 15  2  0  0  0  0
  3 14  1  0  0  0  0
  4  6  2  0  0  0  0
  5 15  1  0  0  0  0
  6  9  1  0  0  0  0
  8 10  1  0  0  0  0
  9 11  1  0  0  0  0
 10  2  1  6  0  0  0
 10  3  1  0  0  0  0
 11  7  2  0  0  0  0
 12  1  1  0  0  0  0
 12  9  2  0  0  0  0
 13 16  1  0  0  0  0
 13  7  1  0  0  0  0
 14  4  1  6  0  0  0
 15 12  1  0  0  0  0
 17 10  1  0  0  0  0
 17  5  1  1  0  0  0
 18 23  1  0  0  0  0
 18 22  1  0  0  0  0
 19 21  1  0  0  0  0
 21 22  1  6  0  0  0
 21 17  1  0  0  0  0
 23 19  1  0  0  0  0
 24 23  1  0  0  0  0
 24 20  2  0  0  0  0
 25 24  1  0  0  0  0
 26 29  1  0  0  0  0
 27 25  1  1  0  0  0
 27 31  1  0  0  0  0
 28 26  1  6  0  0  0
 28 27  1  0  0  0  0
 28 31  1  0  0  0  0
 29 30  2  0  0  0  0
 31 30  1  6  0  0  0
 32 33  1  0  0  0  0
 32 14  1  0  0  0  0
 32 34  1  1  0  0  0
 33 38  1  6  0  0  0
 33 34  1  0  0  0  0
 35 37  1  0  0  0  0
 36 38  2  0  0  0  0
 37 40  2  0  0  0  0
 38 40  1  0  0  0  0
 39 35  1  0  0  0  0
 41 35  2  0  0  0  0
 41 36  1  0  0  0  0
M  END
>  <MODEL>
9

>  <REMARK>
 VINA RESULT:      -7.2      3.904     10.678
  Name = 
  4 active torsions:
  status: ('A' for Active; 'I' for Inactive)
    1  A    between atoms: C_10  and  N_33
    2  A    between atoms: C_14  and  C_31
    3  A    between atoms: C_16  and  C_41
    4  A    between atoms: C_27  and  C_29
                            x       y       z     vdW  Elec       q    Type
                         _______ _______ _______ _____ _____    ______ ____

>  <TORSDO>
F 4

$$$$
