=
 OpenBabel11032419193D

 25 28  0  0  1  0  0  0  0  0999 V2000
  191.1760  176.1070  146.2580 N   0  0  0  0  0  2  0  0  0  0  0  0
  191.7090  177.2420  145.6270 N   0  0  0  0  0  2  0  0  0  0  0  0
  188.7530  178.0450  146.1870 C   0  0  2  0  0  3  0  0  0  0  0  0
  190.8980  178.1580  144.8840 C   0  0  0  0  0  0  0  0  0  0  0  0
  191.6060  179.4310  144.1470 S   0  0  0  0  0  0  0  0  0  0  0  0
  189.4120  178.0060  144.7950 C   0  0  1  0  0  3  0  0  0  0  0  0
  188.9440  176.7550  146.9960 C   0  0  0  0  0  2  0  0  0  0  0  0
  186.8010  177.8080  143.7390 C   0  0  1  0  0  3  0  0  0  0  0  0
  189.0240  176.7450  144.0130 C   0  0  0  0  0  2  0  0  0  0  0  0
  186.4660  177.5050  145.1940 C   0  0  0  0  0  2  0  0  0  0  0  0
  187.2700  178.4430  146.0880 C   0  0  1  0  0  3  0  0  0  0  0  0
  190.3960  176.5580  147.4020 C   0  0  0  0  0  2  0  0  0  0  0  0
  187.8090  176.8870  143.1970 N   0  0  0  0  0  2  0  0  0  0  0  0
  186.6590  178.5190  147.4060 N   0  0  0  0  0  2  0  0  0  0  0  0
  185.6270  179.3910  147.3150 O   0  0  0  0  0  1  0  0  0  0  0  0
  185.5330  177.7290  142.9060 C   0  0  0  0  0  2  0  0  0  0  0  0
  185.3520  178.9790  142.0530 C   0  0  0  0  0  2  0  0  0  0  0  0
  184.8750  178.6960  139.4740 C   0  0  0  0  0  2  0  0  0  0  0  0
  185.8110  178.4680  138.3840 N   0  0  0  0  0  0  0  0  0  0  0  0
  186.9920  178.3880  138.9010 C   0  0  0  0  0  0  0  0  0  0  0  0
  185.7920  178.7500  140.6460 C   0  0  0  0  0  0  0  0  0  0  0  0
  187.0230  178.5670  140.3110 N   0  0  0  0  0  0  0  0  0  0  0  0
  189.3930  177.8350  138.9670 C   0  0  0  0  0  2  0  0  0  0  0  0
  188.2230  178.2050  138.0760 C   0  0  0  0  0  3  0  0  0  0  0  0
  188.6910  176.7650  138.1630 C   0  0  0  0  0  2  0  0  0  0  0  0
  1 12  1  0  0  0  0
  2  1  1  0  0  0  0
  3  7  1  6  0  0  0
  4  2  1  0  0  0  0
  5  4  2  0  0  0  0
  6  9  1  1  0  0  0
  6  4  1  0  0  0  0
  6  3  1  0  0  0  0
  7 12  1  0  0  0  0
  8 16  1  6  0  0  0
  8 10  1  0  0  0  0
 10 11  1  0  0  0  0
 11  3  1  0  0  0  0
 11 14  1  1  0  0  0
 13  8  1  0  0  0  0
 13  9  1  0  0  0  0
 15 14  1  0  0  0  0
 17 16  1  0  0  0  0
 18 21  1  0  0  0  0
 19 20  2  0  0  0  0
 19 18  1  0  0  0  0
 20 22  1  0  0  0  0
 21 17  1  0  0  0  0
 22 21  2  0  0  0  0
 24 25  1  0  0  0  0
 24 20  1  0  0  0  0
 24 23  1  0  0  0  0
 25 23  1  0  0  0  0
M  END
>  <MODEL>
1

>  <REMARK>
 VINA RESULT:      -7.7      0.000      0.000
  Name = 
  5 active torsions:
  status: ('A' for Active; 'I' for Inactive)
    1  A    between atoms: C_1  and  C_18
    2  A    between atoms: C_1  and  C_23
    3  A    between atoms: C_10  and  C_16
    4  A    between atoms: N_11  and  C_19
    5  A    between atoms: C_14  and  C_18
                            x       y       z     vdW  Elec       q    Type
                         _______ _______ _______ _____ _____    ______ ____

>  <TORSDO>
F 5

$$$$
=
 OpenBabel11032419193D

 25 28  0  0  1  0  0  0  0  0999 V2000
  191.1780  176.0580  146.2580 N   0  0  0  0  0  2  0  0  0  0  0  0
  191.6990  177.1740  145.5830 N   0  0  0  0  0  2  0  0  0  0  0  0
  188.7730  178.0200  146.2310 C   0  0  2  0  0  3  0  0  0  0  0  0
  190.8710  178.0820  144.8490 C   0  0  0  0  0  0  0  0  0  0  0  0
  191.5630  179.3310  144.0600 S   0  0  0  0  0  0  0  0  0  0  0  0
  189.3810  177.9430  144.8180 C   0  0  1  0  0  3  0  0  0  0  0  0
  188.9810  176.7450  147.0620 C   0  0  0  0  0  2  0  0  0  0  0  0
  186.7310  177.7490  143.8610 C   0  0  1  0  0  3  0  0  0  0  0  0
  188.9530  176.6690  144.0780 C   0  0  0  0  0  2  0  0  0  0  0  0
  186.4470  177.4820  145.3340 C   0  0  0  0  0  2  0  0  0  0  0  0
  187.2920  178.4300  146.1770 C   0  0  1  0  0  3  0  0  0  0  0  0
  190.4450  176.5420  147.4190 C   0  0  0  0  0  2  0  0  0  0  0  0
  187.7100  176.8060  143.3040 N   0  0  0  0  0  2  0  0  0  0  0  0
  186.7290  178.5420  147.5140 N   0  0  0  0  0  2  0  0  0  0  0  0
  185.5970  179.2770  147.4090 O   0  0  0  0  0  1  0  0  0  0  0  0
  185.4330  177.6650  143.0760 C   0  0  0  0  0  2  0  0  0  0  0  0
  184.3830  178.6140  143.6400 C   0  0  0  0  0  2  0  0  0  0  0  0
  181.8260  179.1020  143.2070 C   0  0  0  0  0  2  0  0  0  0  0  0
  181.0690  179.0150  141.9690 N   0  0  0  0  0  0  0  0  0  0  0  0
  181.8790  178.6040  141.0500 C   0  0  0  0  0  0  0  0  0  0  0  0
  183.1840  178.6920  142.7550 C   0  0  0  0  0  0  0  0  0  0  0  0
  183.2110  178.3990  141.5000 N   0  0  0  0  0  0  0  0  0  0  0  0
  182.5620  177.7420  138.8450 C   0  0  0  0  0  2  0  0  0  0  0  0
  181.4650  178.4400  139.6260 C   0  0  0  0  0  3  0  0  0  0  0  0
  181.3460  176.9640  139.2920 C   0  0  0  0  0  2  0  0  0  0  0  0
  1 12  1  0  0  0  0
  2  1  1  0  0  0  0
  3  7  1  6  0  0  0
  4  2  1  0  0  0  0
  5  4  2  0  0  0  0
  6  9  1  1  0  0  0
  6  4  1  0  0  0  0
  6  3  1  0  0  0  0
  7 12  1  0  0  0  0
  8 16  1  6  0  0  0
  8 10  1  0  0  0  0
 10 11  1  0  0  0  0
 11  3  1  0  0  0  0
 11 14  1  1  0  0  0
 13  8  1  0  0  0  0
 13  9  1  0  0  0  0
 15 14  1  0  0  0  0
 16 17  1  0  0  0  0
 19 18  1  0  0  0  0
 20 22  1  0  0  0  0
 20 19  2  0  0  0  0
 21 18  1  0  0  0  0
 21 17  1  0  0  0  0
 22 21  2  0  0  0  0
 23 25  1  0  0  0  0
 23 24  1  0  0  0  0
 24 20  1  0  0  0  0
 25 24  1  0  0  0  0
M  END
>  <MODEL>
2

>  <REMARK>
 VINA RESULT:      -7.3      2.542      3.292
  Name = 
  5 active torsions:
  status: ('A' for Active; 'I' for Inactive)
    1  A    between atoms: C_1  and  C_18
    2  A    between atoms: C_1  and  C_23
    3  A    between atoms: C_10  and  C_16
    4  A    between atoms: N_11  and  C_19
    5  A    between atoms: C_14  and  C_18
                            x       y       z     vdW  Elec       q    Type
                         _______ _______ _______ _____ _____    ______ ____

>  <TORSDO>
F 5

$$$$
=
 OpenBabel11032419193D

 25 28  0  0  1  0  0  0  0  0999 V2000
  190.4760  176.6730  135.0210 N   0  0  0  0  0  2  0  0  0  0  0  0
  190.0820  175.3520  135.2860 N   0  0  0  0  0  2  0  0  0  0  0  0
  188.4560  177.0220  137.3520 C   0  0  2  0  0  3  0  0  0  0  0  0
  189.6170  174.9340  136.5740 C   0  0  0  0  0  0  0  0  0  0  0  0
  189.2170  173.3690  136.8070 S   0  0  0  0  0  0  0  0  0  0  0  0
  189.4500  175.8990  137.7060 C   0  0  1  0  0  3  0  0  0  0  0  0
  189.0330  178.0770  136.3960 C   0  0  0  0  0  2  0  0  0  0  0  0
  189.6280  177.0790  140.2640 C   0  0  1  0  0  3  0  0  0  0  0  0
  190.8010  176.4560  138.1710 C   0  0  0  0  0  2  0  0  0  0  0  0
  188.9370  178.2320  139.5450 C   0  0  0  0  0  2  0  0  0  0  0  0
  187.8680  177.6620  138.6200 C   0  0  1  0  0  3  0  0  0  0  0  0
  189.2790  177.5020  135.0100 C   0  0  0  0  0  2  0  0  0  0  0  0
  190.8910  176.6980  139.6190 N   0  0  0  0  0  2  0  0  0  0  0  0
  186.8990  178.6950  138.2860 N   0  0  0  0  0  2  0  0  0  0  0  0
  186.0100  178.7520  139.3050 O   0  0  0  0  0  1  0  0  0  0  0  0
  189.8870  177.4730  141.7090 C   0  0  0  0  0  2  0  0  0  0  0  0
  189.4810  176.3610  142.6680 C   0  0  0  0  0  2  0  0  0  0  0  0
  189.5330  177.5900  145.0010 C   0  0  0  0  0  2  0  0  0  0  0  0
  188.4330  177.9170  145.8950 N   0  0  0  0  0  0  0  0  0  0  0  0
  187.3520  177.4580  145.3580 C   0  0  0  0  0  0  0  0  0  0  0  0
  188.8180  176.9060  143.8890 C   0  0  0  0  0  0  0  0  0  0  0  0
  187.5500  176.8270  144.1000 N   0  0  0  0  0  0  0  0  0  0  0  0
  185.8990  179.0410  146.5660 C   0  0  0  0  0  2  0  0  0  0  0  0
  186.0040  177.6490  145.9710 C   0  0  0  0  0  3  0  0  0  0  0  0
  185.2540  178.7420  145.2330 C   0  0  0  0  0  2  0  0  0  0  0  0
  1  2  1  0  0  0  0
  2  4  1  0  0  0  0
  3  7  1  1  0  0  0
  3  6  1  0  0  0  0
  3 11  1  0  0  0  0
  4  5  2  0  0  0  0
  4  6  1  0  0  0  0
  6  9  1  6  0  0  0
  8 16  1  1  0  0  0
  9 13  1  0  0  0  0
 10  8  1  0  0  0  0
 11 14  1  6  0  0  0
 11 10  1  0  0  0  0
 12  1  1  0  0  0  0
 12  7  1  0  0  0  0
 13  8  1  0  0  0  0
 14 15  1  0  0  0  0
 16 17  1  0  0  0  0
 17 21  1  0  0  0  0
 18 19  1  0  0  0  0
 20 19  2  0  0  0  0
 20 24  1  0  0  0  0
 21 22  2  0  0  0  0
 21 18  1  0  0  0  0
 22 20  1  0  0  0  0
 24 23  1  0  0  0  0
 25 24  1  0  0  0  0
 25 23  1  0  0  0  0
M  END
>  <MODEL>
3

>  <REMARK>
 VINA RESULT:      -7.2      3.519      7.987
  Name = 
  5 active torsions:
  status: ('A' for Active; 'I' for Inactive)
    1  A    between atoms: C_1  and  C_18
    2  A    between atoms: C_1  and  C_23
    3  A    between atoms: C_10  and  C_16
    4  A    between atoms: N_11  and  C_19
    5  A    between atoms: C_14  and  C_18
                            x       y       z     vdW  Elec       q    Type
                         _______ _______ _______ _____ _____    ______ ____

>  <TORSDO>
F 5

$$$$
=
 OpenBabel11032419193D

 25 28  0  0  1  0  0  0  0  0999 V2000
  190.4980  176.7540  135.0770 N   0  0  0  0  0  2  0  0  0  0  0  0
  190.1470  175.4230  135.3530 N   0  0  0  0  0  2  0  0  0  0  0  0
  188.3190  177.0680  137.2640 C   0  0  2  0  0  3  0  0  0  0  0  0
  189.6190  175.0160  136.6200 C   0  0  0  0  0  0  0  0  0  0  0  0
  189.2740  173.4410  136.8710 S   0  0  0  0  0  0  0  0  0  0  0  0
  189.3360  176.0020  137.7110 C   0  0  1  0  0  3  0  0  0  0  0  0
  188.9080  178.1240  136.3180 C   0  0  0  0  0  2  0  0  0  0  0  0
  189.2960  177.2520  140.2420 C   0  0  1  0  0  3  0  0  0  0  0  0
  190.6290  176.6310  138.2460 C   0  0  0  0  0  2  0  0  0  0  0  0
  188.6030  178.3530  139.4490 C   0  0  0  0  0  2  0  0  0  0  0  0
  187.6220  177.7120  138.4740 C   0  0  1  0  0  3  0  0  0  0  0  0
  189.2690  177.5260  134.9670 C   0  0  0  0  0  2  0  0  0  0  0  0
  190.6130  176.9130  139.6890 N   0  0  0  0  0  2  0  0  0  0  0  0
  186.6320  178.6910  138.0500 N   0  0  0  0  0  2  0  0  0  0  0  0
  185.8280  178.9300  139.1130 O   0  0  0  0  0  1  0  0  0  0  0  0
  189.4440  177.6940  141.6890 C   0  0  0  0  0  2  0  0  0  0  0  0
  188.5690  176.8590  142.6150 C   0  0  0  0  0  2  0  0  0  0  0  0
  190.2930  177.4930  144.5080 C   0  0  0  0  0  2  0  0  0  0  0  0
  190.1100  177.5160  145.9500 N   0  0  0  0  0  0  0  0  0  0  0  0
  188.9040  177.1230  146.1920 C   0  0  0  0  0  0  0  0  0  0  0  0
  188.9510  177.0460  144.0450 C   0  0  0  0  0  0  0  0  0  0  0  0
  188.1450  176.8280  145.0270 N   0  0  0  0  0  0  0  0  0  0  0  0
  188.9470  178.1570  148.4290 C   0  0  0  0  0  2  0  0  0  0  0  0
  188.3370  177.0640  147.5710 C   0  0  0  0  0  3  0  0  0  0  0  0
  187.5580  178.3340  147.8610 C   0  0  0  0  0  2  0  0  0  0  0  0
  1  2  1  0  0  0  0
  2  4  1  0  0  0  0
  3  7  1  1  0  0  0
  3  6  1  0  0  0  0
  3 11  1  0  0  0  0
  4  5  2  0  0  0  0
  4  6  1  0  0  0  0
  6  9  1  6  0  0  0
  8 16  1  1  0  0  0
  9 13  1  0  0  0  0
 10  8  1  0  0  0  0
 11 14  1  6  0  0  0
 11 10  1  0  0  0  0
 12  1  1  0  0  0  0
 12  7  1  0  0  0  0
 13  8  1  0  0  0  0
 14 15  1  0  0  0  0
 16 17  1  0  0  0  0
 17 21  1  0  0  0  0
 18 19  1  0  0  0  0
 19 20  2  0  0  0  0
 20 24  1  0  0  0  0
 21 18  1  0  0  0  0
 21 22  2  0  0  0  0
 22 20  1  0  0  0  0
 24 25  1  0  0  0  0
 24 23  1  0  0  0  0
 25 23  1  0  0  0  0
M  END
>  <MODEL>
4

>  <REMARK>
 VINA RESULT:      -7.1      3.505      8.244
  Name = 
  5 active torsions:
  status: ('A' for Active; 'I' for Inactive)
    1  A    between atoms: C_1  and  C_18
    2  A    between atoms: C_1  and  C_23
    3  A    between atoms: C_10  and  C_16
    4  A    between atoms: N_11  and  C_19
    5  A    between atoms: C_14  and  C_18
                            x       y       z     vdW  Elec       q    Type
                         _______ _______ _______ _____ _____    ______ ____

>  <TORSDO>
F 5

$$$$
=
 OpenBabel11032419193D

 25 28  0  0  1  0  0  0  0  0999 V2000
  190.8960  176.0280  146.3720 N   0  0  0  0  0  2  0  0  0  0  0  0
  191.5080  177.1420  145.7750 N   0  0  0  0  0  2  0  0  0  0  0  0
  188.5590  178.0620  146.1760 C   0  0  2  0  0  3  0  0  0  0  0  0
  190.7760  178.0910  144.9920 C   0  0  0  0  0  0  0  0  0  0  0  0
  191.5720  179.3350  144.2990 S   0  0  0  0  0  0  0  0  0  0  0  0
  189.2910  177.9980  144.8210 C   0  0  1  0  0  3  0  0  0  0  0  0
  188.6550  176.7630  146.9900 C   0  0  0  0  0  2  0  0  0  0  0  0
  186.7360  177.9050  143.6240 C   0  0  1  0  0  3  0  0  0  0  0  0
  188.8980  176.7540  144.0150 C   0  0  0  0  0  2  0  0  0  0  0  0
  186.3110  177.6140  145.0580 C   0  0  0  0  0  2  0  0  0  0  0  0
  187.1020  178.5170  145.9970 C   0  0  1  0  0  3  0  0  0  0  0  0
  190.0740  176.5080  147.4730 C   0  0  0  0  0  2  0  0  0  0  0  0
  187.7350  176.9450  143.1350 N   0  0  0  0  0  2  0  0  0  0  0  0
  186.4230  178.6160  147.2800 N   0  0  0  0  0  2  0  0  0  0  0  0
  185.0930  178.6680  147.0230 O   0  0  0  0  0  1  0  0  0  0  0  0
  185.5130  177.8770  142.7220 C   0  0  0  0  0  2  0  0  0  0  0  0
  185.6560  178.8590  141.5660 C   0  0  0  0  0  2  0  0  0  0  0  0
  183.2340  178.0280  140.9300 C   0  0  0  0  0  2  0  0  0  0  0  0
  182.3370  178.5130  139.8930 N   0  0  0  0  0  0  0  0  0  0  0  0
  182.9530  179.4570  139.2610 C   0  0  0  0  0  0  0  0  0  0  0  0
  184.4150  178.9150  140.7400 C   0  0  0  0  0  0  0  0  0  0  0  0
  184.2500  179.7440  139.7660 N   0  0  0  0  0  0  0  0  0  0  0  0
  180.8120  180.0780  138.2100 C   0  0  0  0  0  2  0  0  0  0  0  0
  182.3200  180.2310  138.1530 C   0  0  0  0  0  3  0  0  0  0  0  0
  181.4600  181.3410  138.7270 C   0  0  0  0  0  2  0  0  0  0  0  0
  1 12  1  0  0  0  0
  2  1  1  0  0  0  0
  3  7  1  6  0  0  0
  4  2  1  0  0  0  0
  5  4  2  0  0  0  0
  6  9  1  1  0  0  0
  6  4  1  0  0  0  0
  6  3  1  0  0  0  0
  7 12  1  0  0  0  0
  8 16  1  6  0  0  0
  8 10  1  0  0  0  0
 10 11  1  0  0  0  0
 11  3  1  0  0  0  0
 11 14  1  1  0  0  0
 13  8  1  0  0  0  0
 13  9  1  0  0  0  0
 15 14  1  0  0  0  0
 17 16  1  0  0  0  0
 19 18  1  0  0  0  0
 20 22  1  0  0  0  0
 20 19  2  0  0  0  0
 21 18  1  0  0  0  0
 21 17  1  0  0  0  0
 22 21  2  0  0  0  0
 23 25  1  0  0  0  0
 24 23  1  0  0  0  0
 24 25  1  0  0  0  0
 24 20  1  0  0  0  0
M  END
>  <MODEL>
5

>  <REMARK>
 VINA RESULT:      -6.9      1.953      3.113
  Name = 
  5 active torsions:
  status: ('A' for Active; 'I' for Inactive)
    1  A    between atoms: C_1  and  C_18
    2  A    between atoms: C_1  and  C_23
    3  A    between atoms: C_10  and  C_16
    4  A    between atoms: N_11  and  C_19
    5  A    between atoms: C_14  and  C_18
                            x       y       z     vdW  Elec       q    Type
                         _______ _______ _______ _____ _____    ______ ____

>  <TORSDO>
F 5

$$$$
=
 OpenBabel11032419193D

 25 28  0  0  1  0  0  0  0  0999 V2000
  180.5700  176.7960  140.1720 N   0  0  0  0  0  2  0  0  0  0  0  0
  180.0120  178.0780  140.0430 N   0  0  0  0  0  2  0  0  0  0  0  0
  183.0540  178.6430  140.4060 C   0  0  2  0  0  3  0  0  0  0  0  0
  180.6220  179.2410  140.6140 C   0  0  0  0  0  0  0  0  0  0  0  0
  179.8860  180.6880  140.4510 S   0  0  0  0  0  0  0  0  0  0  0  0
  181.9380  179.1750  141.3250 C   0  0  1  0  0  3  0  0  0  0  0  0
  182.9850  177.1270  140.1670 C   0  0  0  0  0  2  0  0  0  0  0  0
  183.9340  179.4990  143.2950 C   0  0  1  0  0  3  0  0  0  0  0  0
  181.8320  178.3670  142.6240 C   0  0  0  0  0  2  0  0  0  0  0  0
  184.7250  178.6220  142.3330 C   0  0  0  0  0  2  0  0  0  0  0  0
  184.4400  179.0790  140.9060 C   0  0  1  0  0  3  0  0  0  0  0  0
  181.7650  176.7440  139.3430 C   0  0  0  0  0  2  0  0  0  0  0  0
  182.6780  178.8670  143.7190 N   0  0  0  0  0  2  0  0  0  0  0  0
  185.4910  178.6110  140.0160 N   0  0  0  0  0  2  0  0  0  0  0  0
  186.6730  178.8560  140.6310 O   0  0  0  0  0  1  0  0  0  0  0  0
  184.7900  179.8070  144.5120 C   0  0  0  0  0  2  0  0  0  0  0  0
  184.7690  178.6550  145.5100 C   0  0  0  0  0  2  0  0  0  0  0  0
  186.6000  178.4570  147.3980 C   0  0  0  0  0  2  0  0  0  0  0  0
  187.9760  177.9940  147.3030 N   0  0  0  0  0  0  0  0  0  0  0  0
  188.1990  177.7030  146.0640 C   0  0  0  0  0  0  0  0  0  0  0  0
  186.1420  178.3210  145.9880 C   0  0  0  0  0  0  0  0  0  0  0  0
  187.0750  177.8850  145.2130 N   0  0  0  0  0  0  0  0  0  0  0  0
  189.4620  176.9550  144.0840 C   0  0  0  0  0  2  0  0  0  0  0  0
  189.4990  177.1450  145.5890 C   0  0  0  0  0  3  0  0  0  0  0  0
  190.1840  178.1440  144.6750 C   0  0  0  0  0  2  0  0  0  0  0  0
  2  1  1  0  0  0  0
  2  4  1  0  0  0  0
  3  7  1  1  0  0  0
  3 11  1  0  0  0  0
  3  6  1  0  0  0  0
  4  6  1  0  0  0  0
  5  4  2  0  0  0  0
  6  9  1  1  0  0  0
  8 13  1  0  0  0  0
  8 16  1  1  0  0  0
  9 13  1  0  0  0  0
 10  8  1  0  0  0  0
 11 14  1  6  0  0  0
 11 10  1  0  0  0  0
 12  7  1  0  0  0  0
 12  1  1  0  0  0  0
 14 15  1  0  0  0  0
 16 17  1  0  0  0  0
 17 21  1  0  0  0  0
 19 18  1  0  0  0  0
 20 19  2  0  0  0  0
 21 18  1  0  0  0  0
 22 21  2  0  0  0  0
 22 20  1  0  0  0  0
 23 25  1  0  0  0  0
 23 24  1  0  0  0  0
 24 20  1  0  0  0  0
 25 24  1  0  0  0  0
M  END
>  <MODEL>
6

>  <REMARK>
 VINA RESULT:      -6.8      4.006      8.027
  Name = 
  5 active torsions:
  status: ('A' for Active; 'I' for Inactive)
    1  A    between atoms: C_1  and  C_18
    2  A    between atoms: C_1  and  C_23
    3  A    between atoms: C_10  and  C_16
    4  A    between atoms: N_11  and  C_19
    5  A    between atoms: C_14  and  C_18
                            x       y       z     vdW  Elec       q    Type
                         _______ _______ _______ _____ _____    ______ ____

>  <TORSDO>
F 5

$$$$
=
 OpenBabel11032419193D

 25 28  0  0  1  0  0  0  0  0999 V2000
  190.9730  176.3180  139.7540 N   0  0  0  0  0  2  0  0  0  0  0  0
  189.8050  176.9800  139.3430 N   0  0  0  0  0  2  0  0  0  0  0  0
  190.4200  178.2490  142.1210 C   0  0  2  0  0  3  0  0  0  0  0  0
  188.8700  177.5350  140.2750 C   0  0  0  0  0  0  0  0  0  0  0  0
  187.5170  178.2530  139.7130 S   0  0  0  0  0  0  0  0  0  0  0  0
  189.1180  177.5120  141.7510 C   0  0  1  0  0  3  0  0  0  0  0  0
  191.6920  177.4560  141.7870 C   0  0  0  0  0  2  0  0  0  0  0  0
  188.7380  177.1240  144.5220 C   0  0  1  0  0  3  0  0  0  0  0  0
  189.0930  176.0800  142.3000 C   0  0  0  0  0  2  0  0  0  0  0  0
  190.2000  177.5530  144.5650 C   0  0  0  0  0  2  0  0  0  0  0  0
  190.4010  178.7070  143.5890 C   0  0  1  0  0  3  0  0  0  0  0  0
  191.8880  177.3180  140.2860 C   0  0  0  0  0  2  0  0  0  0  0  0
  188.5260  175.9600  143.6520 N   0  0  0  0  0  2  0  0  0  0  0  0
  191.6130  179.4370  143.9260 N   0  0  0  0  0  2  0  0  0  0  0  0
  192.3540  178.6300  144.7230 O   0  0  0  0  0  1  0  0  0  0  0  0
  188.2680  176.8050  145.9310 C   0  0  0  0  0  2  0  0  0  0  0  0
  187.7380  178.0490  146.6330 C   0  0  0  0  0  2  0  0  0  0  0  0
  185.1780  178.5870  146.9700 C   0  0  0  0  0  2  0  0  0  0  0  0
  184.1810  178.9760  145.9850 N   0  0  0  0  0  0  0  0  0  0  0  0
  184.7640  178.9900  144.8320 C   0  0  0  0  0  0  0  0  0  0  0  0
  186.3910  178.4340  146.1210 C   0  0  0  0  0  0  0  0  0  0  0  0
  186.1470  178.6660  144.8770 N   0  0  0  0  0  0  0  0  0  0  0  0
  185.0310  179.3770  142.4120 C   0  0  0  0  0  2  0  0  0  0  0  0
  184.0610  179.3940  143.5790 C   0  0  0  0  0  3  0  0  0  0  0  0
  184.0570  178.2370  142.5960 C   0  0  0  0  0  2  0  0  0  0  0  0
  1 12  1  0  0  0  0
  2  1  1  0  0  0  0
  2  4  1  0  0  0  0
  3  7  1  1  0  0  0
  3 11  1  0  0  0  0
  4  6  1  0  0  0  0
  5  4  2  0  0  0  0
  6  3  1  0  0  0  0
  6  9  1  6  0  0  0
  8 10  1  0  0  0  0
  8 16  1  1  0  0  0
  9 13  1  0  0  0  0
 11 14  1  1  0  0  0
 11 10  1  0  0  0  0
 12  7  1  0  0  0  0
 13  8  1  0  0  0  0
 14 15  1  0  0  0  0
 16 17  1  0  0  0  0
 19 18  1  0  0  0  0
 20 22  1  0  0  0  0
 20 19  2  0  0  0  0
 21 17  1  0  0  0  0
 21 18  1  0  0  0  0
 22 21  2  0  0  0  0
 23 25  1  0  0  0  0
 23 24  1  0  0  0  0
 24 20  1  0  0  0  0
 25 24  1  0  0  0  0
M  END
>  <MODEL>
7

>  <REMARK>
 VINA RESULT:      -6.7      2.890      5.575
  Name = 
  5 active torsions:
  status: ('A' for Active; 'I' for Inactive)
    1  A    between atoms: C_1  and  C_18
    2  A    between atoms: C_1  and  C_23
    3  A    between atoms: C_10  and  C_16
    4  A    between atoms: N_11  and  C_19
    5  A    between atoms: C_14  and  C_18
                            x       y       z     vdW  Elec       q    Type
                         _______ _______ _______ _____ _____    ______ ____

>  <TORSDO>
F 5

$$$$
=
 OpenBabel11032419193D

 25 28  0  0  1  0  0  0  0  0999 V2000
  191.5900  175.9660  145.4110 N   0  0  0  0  0  2  0  0  0  0  0  0
  191.9410  177.2280  144.9040 N   0  0  0  0  0  2  0  0  0  0  0  0
  189.3140  177.7830  146.4840 C   0  0  2  0  0  3  0  0  0  0  0  0
  190.9700  178.2490  144.6510 C   0  0  0  0  0  0  0  0  0  0  0  0
  191.4580  179.6750  144.0240 S   0  0  0  0  0  0  0  0  0  0  0  0
  189.5220  178.0630  144.9830 C   0  0  1  0  0  3  0  0  0  0  0  0
  189.7040  176.3590  146.9050 C   0  0  0  0  0  2  0  0  0  0  0  0
  186.7100  177.9940  144.7440 C   0  0  1  0  0  3  0  0  0  0  0  0
  188.8820  176.9820  144.1040 C   0  0  0  0  0  2  0  0  0  0  0  0
  186.8210  177.3790  146.1330 C   0  0  0  0  0  2  0  0  0  0  0  0
  187.8830  178.1360  146.9210 C   0  0  1  0  0  3  0  0  0  0  0  0
  191.2050  176.1360  146.8040 C   0  0  0  0  0  2  0  0  0  0  0  0
  187.4810  177.2470  143.7410 N   0  0  0  0  0  2  0  0  0  0  0  0
  187.7000  177.9100  148.3470 N   0  0  0  0  0  2  0  0  0  0  0  0
  188.6790  178.5910  148.9870 O   0  0  0  0  0  1  0  0  0  0  0  0
  185.2480  178.0450  144.3330 C   0  0  0  0  0  2  0  0  0  0  0  0
  185.1000  178.3350  142.8440 C   0  0  0  0  0  2  0  0  0  0  0  0
  183.1040  178.2600  141.1210 C   0  0  0  0  0  2  0  0  0  0  0  0
  181.7100  178.6270  141.3110 N   0  0  0  0  0  0  0  0  0  0  0  0
  181.5860  179.0550  142.5230 C   0  0  0  0  0  0  0  0  0  0  0  0
  183.6720  178.5470  142.4670 C   0  0  0  0  0  0  0  0  0  0  0  0
  182.7880  179.0130  143.2800 N   0  0  0  0  0  0  0  0  0  0  0  0
  179.2640  178.3550  142.9630 C   0  0  0  0  0  2  0  0  0  0  0  0
  180.2750  179.4790  143.0980 C   0  0  0  0  0  3  0  0  0  0  0  0
  179.9330  178.6100  144.2940 C   0  0  0  0  0  2  0  0  0  0  0  0
  1 12  1  0  0  0  0
  2  1  1  0  0  0  0
  3  7  1  6  0  0  0
  3 11  1  0  0  0  0
  4  2  1  0  0  0  0
  4  6  1  0  0  0  0
  5  4  2  0  0  0  0
  6  9  1  6  0  0  0
  6  3  1  0  0  0  0
  8 16  1  6  0  0  0
  8 10  1  0  0  0  0
 10 11  1  0  0  0  0
 11 14  1  1  0  0  0
 12  7  1  0  0  0  0
 13  9  1  0  0  0  0
 13  8  1  0  0  0  0
 14 15  1  0  0  0  0
 17 16  1  0  0  0  0
 18 19  1  0  0  0  0
 18 21  1  0  0  0  0
 19 20  2  0  0  0  0
 20 24  1  0  0  0  0
 20 22  1  0  0  0  0
 21 17  1  0  0  0  0
 21 22  2  0  0  0  0
 23 24  1  0  0  0  0
 23 25  1  0  0  0  0
 24 25  1  0  0  0  0
M  END
>  <MODEL>
8

>  <REMARK>
 VINA RESULT:      -6.7      2.834      4.299
  Name = 
  5 active torsions:
  status: ('A' for Active; 'I' for Inactive)
    1  A    between atoms: C_1  and  C_18
    2  A    between atoms: C_1  and  C_23
    3  A    between atoms: C_10  and  C_16
    4  A    between atoms: N_11  and  C_19
    5  A    between atoms: C_14  and  C_18
                            x       y       z     vdW  Elec       q    Type
                         _______ _______ _______ _____ _____    ______ ____

>  <TORSDO>
F 5

$$$$
=
 OpenBabel11032419193D

 25 28  0  0  1  0  0  0  0  0999 V2000
  181.4100  177.9480  137.0280 N   0  0  0  0  0  2  0  0  0  0  0  0
  181.1140  179.3150  137.1510 N   0  0  0  0  0  2  0  0  0  0  0  0
  183.8360  179.0280  138.6370 C   0  0  2  0  0  3  0  0  0  0  0  0
  181.6050  180.1130  138.2330 C   0  0  0  0  0  0  0  0  0  0  0  0
  181.1790  181.6850  138.3210 S   0  0  0  0  0  0  0  0  0  0  0  0
  182.5330  179.5560  139.2680 C   0  0  1  0  0  3  0  0  0  0  0  0
  183.6690  177.6860  137.9100 C   0  0  0  0  0  2  0  0  0  0  0  0
  183.6560  178.8800  141.7680 C   0  0  1  0  0  3  0  0  0  0  0  0
  181.8390  178.4910  140.1260 C   0  0  0  0  0  2  0  0  0  0  0  0
  184.6330  178.1170  140.8820 C   0  0  0  0  0  2  0  0  0  0  0  0
  184.9730  178.9790  139.6710 C   0  0  1  0  0  3  0  0  0  0  0  0
  182.8140  177.8280  136.6600 C   0  0  0  0  0  2  0  0  0  0  0  0
  182.2630  178.4780  141.5350 N   0  0  0  0  0  2  0  0  0  0  0  0
  186.2130  178.5190  139.0660 N   0  0  0  0  0  2  0  0  0  0  0  0
  187.1600  178.5400  140.0340 O   0  0  0  0  0  1  0  0  0  0  0  0
  184.0190  178.6530  143.2260 C   0  0  0  0  0  2  0  0  0  0  0  0
  185.3800  177.9820  143.3600 C   0  0  0  0  0  2  0  0  0  0  0  0
  185.2150  178.7710  145.8730 C   0  0  0  0  0  2  0  0  0  0  0  0
  186.2160  178.7050  146.9260 N   0  0  0  0  0  0  0  0  0  0  0  0
  187.2850  178.1970  146.4100 C   0  0  0  0  0  0  0  0  0  0  0  0
  185.9530  178.1740  144.7250 C   0  0  0  0  0  0  0  0  0  0  0  0
  187.1580  177.8440  145.0400 N   0  0  0  0  0  0  0  0  0  0  0  0
  188.2350  178.1510  148.6840 C   0  0  0  0  0  2  0  0  0  0  0  0
  188.5170  177.9290  147.2100 C   0  0  0  0  0  3  0  0  0  0  0  0
  188.2850  176.7460  148.1310 C   0  0  0  0  0  2  0  0  0  0  0  0
  1  2  1  0  0  0  0
  2  4  1  0  0  0  0
  3  7  1  1  0  0  0
  3  6  1  0  0  0  0
  3 11  1  0  0  0  0
  4  5  2  0  0  0  0
  4  6  1  0  0  0  0
  6  9  1  6  0  0  0
  8 16  1  1  0  0  0
  9 13  1  0  0  0  0
 10  8  1  0  0  0  0
 11 14  1  6  0  0  0
 11 10  1  0  0  0  0
 12  1  1  0  0  0  0
 12  7  1  0  0  0  0
 13  8  1  0  0  0  0
 14 15  1  0  0  0  0
 16 17  1  0  0  0  0
 17 21  1  0  0  0  0
 18 19  1  0  0  0  0
 20 19  2  0  0  0  0
 20 24  1  0  0  0  0
 21 22  2  0  0  0  0
 21 18  1  0  0  0  0
 22 20  1  0  0  0  0
 24 25  1  0  0  0  0
 24 23  1  0  0  0  0
 25 23  1  0  0  0  0
M  END
>  <MODEL>
9

>  <REMARK>
 VINA RESULT:      -6.7      3.790      8.750
  Name = 
  5 active torsions:
  status: ('A' for Active; 'I' for Inactive)
    1  A    between atoms: C_1  and  C_18
    2  A    between atoms: C_1  and  C_23
    3  A    between atoms: C_10  and  C_16
    4  A    between atoms: N_11  and  C_19
    5  A    between atoms: C_14  and  C_18
                            x       y       z     vdW  Elec       q    Type
                         _______ _______ _______ _____ _____    ______ ____

>  <TORSDO>
F 5

$$$$
