=
 OpenBabel11042410243D

 29 32  0  0  1  0  0  0  0  0999 V2000
  186.6900  178.6080  144.7470 C   0  0  2  0  0  3  0  0  0  0  0  0
  186.6280  177.1030  144.5470 C   0  0  2  0  0  3  0  0  0  0  0  0
  186.7880  178.4840  146.2040 N   0  0  2  0  0  0  0  0  0  0  0  0
  185.3900  179.3400  144.4390 C   0  0  2  0  0  3  0  0  0  0  0  0
  184.5240  179.2150  145.6610 C   0  0  0  0  0  2  0  0  0  0  0  0
  186.7480  177.0310  146.0550 C   0  0  0  0  0  2  0  0  0  0  0  0
  185.5080  178.9130  146.7780 C   0  0  0  0  0  2  0  0  0  0  0  0
  185.5150  178.8980  142.0860 C   0  0  0  0  0  0  0  0  0  0  0  0
  186.3020  178.7950  141.0530 C   0  0  0  0  0  3  0  0  0  0  0  0
  184.7260  178.9990  143.1260 C   0  0  0  0  0  0  0  0  0  0  0  0
  182.6970  178.5830  141.6970 C   0  0  0  0  0  3  0  0  0  0  0  0
  181.3240  178.3780  141.5460 C   0  0  0  0  0  3  0  0  0  0  0  0
  181.0340  178.5690  143.9390 C   0  0  0  0  0  3  0  0  0  0  0  0
  183.2610  178.7800  142.9720 C   0  0  0  0  0  0  0  0  0  0  0  0
  179.1280  178.1620  142.5180 O   0  0  0  0  0  1  0  0  0  0  0  0
  180.4920  178.3690  142.6670 C   0  0  0  0  0  0  0  0  0  0  0  0
  182.4080  178.7720  144.0880 C   0  0  0  0  0  3  0  0  0  0  0  0
  187.7770  178.7580  141.2450 C   0  0  0  0  0  2  0  0  0  0  0  0
  187.4640  178.5610  139.0160 O   0  0  0  0  0  1  0  0  0  0  0  0
  188.4380  178.6170  139.9580 N   0  0  0  0  0  2  0  0  0  0  0  0
  187.7840  175.7940  142.8980 O   0  0  0  0  0  0  0  0  0  0  0  0
  187.8670  176.6020  143.8630 C   0  0  0  0  0  0  0  0  0  0  0  0
  191.5200  178.3180  144.6200 S   0  0  0  0  0  0  0  0  0  0  0  0
  190.8690  177.2160  145.8280 N   0  0  0  0  0  0  0  0  0  0  0  0
  190.1210  177.8810  143.5290 C   0  0  1  0  0  3  0  0  0  0  0  0
  190.7460  176.9380  142.1510 Cl  0  0  0  0  0  0  0  0  0  0  0  0
  189.6260  176.6810  145.5050 N   0  0  0  0  0  0  0  0  0  0  0  0
  189.1910  177.0310  144.3430 C   0  0  0  0  0  0  0  0  0  0  0  0
  191.7050  176.6150  146.8480 C   0  0  0  0  0  1  0  0  0  0  0  0
  1  3  1  0  0  0  0
  2  1  1  0  0  0  0
  2  6  1  0  0  0  0
  3  7  1  0  0  0  0
  4  1  1  0  0  0  0
  4  5  1  0  0  0  0
  5  7  1  0  0  0  0
  6  3  1  0  0  0  0
  8 10  2  0  0  0  0
  9 18  1  0  0  0  0
  9  8  2  0  0  0  0
 10  4  1  0  0  0  0
 11 14  1  0  0  0  0
 12 11  2  0  0  0  0
 12 16  1  0  0  0  0
 13 17  1  0  0  0  0
 14 10  1  0  0  0  0
 14 17  2  0  0  0  0
 15 16  1  0  0  0  0
 16 13  2  0  0  0  0
 19 20  1  0  0  0  0
 20 18  1  0  0  0  0
 21 22  2  0  0  0  0
 22 28  1  0  0  0  0
 22  2  1  0  0  0  0
 23 24  1  0  0  0  0
 24 29  1  0  0  0  0
 25 28  1  0  0  0  0
 25 23  1  0  0  0  0
 26 25  1  0  0  0  0
 27 24  1  0  0  0  0
 28 27  2  0  0  0  0
M  END
>  <MODEL>
1

>  <REMARK>
 VINA RESULT:      -8.1      0.000      0.000
  Name = 
  6 active torsions:
  status: ('A' for Active; 'I' for Inactive)
    1  A    between atoms: C_3  and  C_19
    2  A    between atoms: C_3  and  N_24
    3  A    between atoms: C_6  and  C_9
    4  A    between atoms: C_6  and  C_26
    5  A    between atoms: C_16  and  C_21
    6  A    between atoms: C_17  and  C_21
                            x       y       z     vdW  Elec       q    Type
                         _______ _______ _______ _____ _____    ______ ____

>  <TORSDO>
F 6

$$$$
=
 OpenBabel11042410243D

 29 32  0  0  1  0  0  0  0  0999 V2000
  189.9870  178.3860  143.4390 C   0  0  2  0  0  3  0  0  0  0  0  0
  189.9360  176.9210  143.0400 C   0  0  2  0  0  3  0  0  0  0  0  0
  191.3040  178.5820  142.8270 N   0  0  2  0  0  0  0  0  0  0  0  0
  190.1380  178.6270  144.9350 C   0  0  2  0  0  3  0  0  0  0  0  0
  191.6020  178.4930  145.2480 C   0  0  0  0  0  2  0  0  0  0  0  0
  191.2890  177.1830  142.4100 C   0  0  0  0  0  2  0  0  0  0  0  0
  192.2850  178.7190  143.9100 C   0  0  0  0  0  2  0  0  0  0  0  0
  189.7440  176.9220  146.5730 C   0  0  0  0  0  0  0  0  0  0  0  0
  190.2860  175.9930  147.3090 C   0  0  0  0  0  3  0  0  0  0  0  0
  189.2020  177.8560  145.8340 C   0  0  0  0  0  0  0  0  0  0  0  0
  186.9340  178.0320  144.7570 C   0  0  0  0  0  3  0  0  0  0  0  0
  185.5590  178.2670  144.8230 C   0  0  0  0  0  3  0  0  0  0  0  0
  185.7440  178.6710  147.2000 C   0  0  0  0  0  3  0  0  0  0  0  0
  187.7350  178.1080  145.9120 C   0  0  0  0  0  0  0  0  0  0  0  0
  183.5970  178.8160  146.1130 O   0  0  0  0  0  1  0  0  0  0  0  0
  184.9630  178.5850  146.0450 C   0  0  0  0  0  0  0  0  0  0  0  0
  187.1200  178.4330  147.1320 C   0  0  0  0  0  3  0  0  0  0  0  0
  191.7670  175.9100  147.4270 C   0  0  0  0  0  2  0  0  0  0  0  0
  193.3280  176.4340  148.9730 O   0  0  0  0  0  1  0  0  0  0  0  0
  192.2480  176.9420  148.3300 N   0  0  0  0  0  2  0  0  0  0  0  0
  187.7960  176.1070  142.3130 O   0  0  0  0  0  0  0  0  0  0  0  0
  188.8760  176.6830  142.0040 C   0  0  0  0  0  0  0  0  0  0  0  0
  189.3340  178.5460  138.3740 S   0  0  0  0  0  0  0  0  0  0  0  0
  189.9290  176.8970  138.5260 N   0  0  0  0  0  0  0  0  0  0  0  0
  188.6230  178.4000  140.0510 C   0  0  1  0  0  3  0  0  0  0  0  0
  186.8470  178.3730  139.9160 Cl  0  0  0  0  0  0  0  0  0  0  0  0
  189.7450  176.3360  139.7860 N   0  0  0  0  0  0  0  0  0  0  0  0
  189.1090  177.0960  140.6100 C   0  0  0  0  0  0  0  0  0  0  0  0
  190.2080  176.0710  137.3680 C   0  0  0  0  0  1  0  0  0  0  0  0
  1  4  1  0  0  0  0
  2  1  1  0  0  0  0
  3  1  1  0  0  0  0
  3  7  1  0  0  0  0
  4  5  1  0  0  0  0
  4 10  1  0  0  0  0
  6  3  1  0  0  0  0
  6  2  1  0  0  0  0
  7  5  1  0  0  0  0
  8  9  2  0  0  0  0
  9 18  1  0  0  0  0
 10 14  1  0  0  0  0
 10  8  2  0  0  0  0
 11 12  2  0  0  0  0
 11 14  1  0  0  0  0
 12 16  1  0  0  0  0
 14 17  2  0  0  0  0
 16 15  1  0  0  0  0
 16 13  2  0  0  0  0
 17 13  1  0  0  0  0
 18 20  1  0  0  0  0
 20 19  1  0  0  0  0
 22 21  2  0  0  0  0
 22  2  1  0  0  0  0
 23 24  1  0  0  0  0
 23 25  1  0  0  0  0
 24 27  1  0  0  0  0
 25 28  1  0  0  0  0
 26 25  1  0  0  0  0
 27 28  2  0  0  0  0
 28 22  1  0  0  0  0
 29 24  1  0  0  0  0
M  END
>  <MODEL>
2

>  <REMARK>
 VINA RESULT:      -8.0      3.361      6.255
  Name = 
  6 active torsions:
  status: ('A' for Active; 'I' for Inactive)
    1  A    between atoms: C_3  and  C_19
    2  A    between atoms: C_3  and  N_24
    3  A    between atoms: C_6  and  C_9
    4  A    between atoms: C_6  and  C_26
    5  A    between atoms: C_16  and  C_21
    6  A    between atoms: C_17  and  C_21
                            x       y       z     vdW  Elec       q    Type
                         _______ _______ _______ _____ _____    ______ ____

>  <TORSDO>
F 6

$$$$
=
 OpenBabel11042410243D

 29 32  0  0  1  0  0  0  0  0999 V2000
  180.4020  178.9800  140.7520 C   0  0  2  0  0  3  0  0  0  0  0  0
  180.8830  180.2470  140.0650 C   0  0  2  0  0  3  0  0  0  0  0  0
  179.2490  179.6560  141.3520 N   0  0  2  0  0  0  0  0  0  0  0  0
  181.2940  178.5020  141.8900 C   0  0  2  0  0  3  0  0  0  0  0  0
  180.9110  179.3020  143.1030 C   0  0  0  0  0  2  0  0  0  0  0  0
  179.6670  180.8930  140.6970 C   0  0  0  0  0  2  0  0  0  0  0  0
  179.5100  179.7970  142.7890 C   0  0  0  0  0  2  0  0  0  0  0  0
  183.5790  178.6820  142.5920 C   0  0  0  0  0  0  0  0  0  0  0  0
  184.3800  178.9360  143.5880 C   0  0  0  0  0  3  0  0  0  0  0  0
  182.7720  178.4250  141.5940 C   0  0  0  0  0  0  0  0  0  0  0  0
  182.9290  176.9060  139.5940 C   0  0  0  0  0  3  0  0  0  0  0  0
  183.4490  176.5770  138.3400 C   0  0  0  0  0  3  0  0  0  0  0  0
  184.7990  178.5830  138.3770 C   0  0  0  0  0  3  0  0  0  0  0  0
  183.3310  178.0810  140.2560 C   0  0  0  0  0  0  0  0  0  0  0  0
  184.8990  177.0920  136.4840 O   0  0  0  0  0  1  0  0  0  0  0  0
  184.3840  177.4160  137.7310 C   0  0  0  0  0  0  0  0  0  0  0  0
  184.2750  178.9120  139.6300 C   0  0  0  0  0  3  0  0  0  0  0  0
  183.8390  179.0270  144.9710 C   0  0  0  0  0  2  0  0  0  0  0  0
  184.6210  178.4140  147.0000 O   0  0  0  0  0  1  0  0  0  0  0  0
  184.9310  179.1710  145.9190 N   0  0  0  0  0  2  0  0  0  0  0  0
  180.7840  179.0070  138.0100 O   0  0  0  0  0  0  0  0  0  0  0  0
  180.7450  180.1350  138.5740 C   0  0  0  0  0  0  0  0  0  0  0  0
  179.7640  183.1290  135.9410 S   0  0  0  0  0  0  0  0  0  0  0  0
  180.8260  183.5370  137.2820 N   0  0  0  0  0  0  0  0  0  0  0  0
  179.8600  181.3770  136.4520 C   0  0  1  0  0  3  0  0  0  0  0  0
  180.7860  180.4750  135.2260 Cl  0  0  0  0  0  0  0  0  0  0  0  0
  181.1070  182.4740  138.1350 N   0  0  0  0  0  0  0  0  0  0  0  0
  180.5950  181.3530  137.7600 C   0  0  0  0  0  0  0  0  0  0  0  0
  181.6440  184.7340  137.2770 C   0  0  0  0  0  1  0  0  0  0  0  0
  1  3  1  0  0  0  0
  1  4  1  0  0  0  0
  2  6  1  0  0  0  0
  2  1  1  0  0  0  0
  3  7  1  0  0  0  0
  4  5  1  0  0  0  0
  6  3  1  0  0  0  0
  7  5  1  0  0  0  0
  8  9  2  0  0  0  0
  9 18  1  0  0  0  0
 10  4  1  0  0  0  0
 10  8  2  0  0  0  0
 11 14  1  0  0  0  0
 12 11  2  0  0  0  0
 13 17  1  0  0  0  0
 14 10  1  0  0  0  0
 15 16  1  0  0  0  0
 16 12  1  0  0  0  0
 16 13  2  0  0  0  0
 17 14  2  0  0  0  0
 18 20  1  0  0  0  0
 20 19  1  0  0  0  0
 21 22  2  0  0  0  0
 22  2  1  0  0  0  0
 23 25  1  0  0  0  0
 23 24  1  0  0  0  0
 24 27  1  0  0  0  0
 25 28  1  0  0  0  0
 26 25  1  0  0  0  0
 28 27  2  0  0  0  0
 28 22  1  0  0  0  0
 29 24  1  0  0  0  0
M  END
>  <MODEL>
3

>  <REMARK>
 VINA RESULT:      -7.6      5.660      8.868
  Name = 
  6 active torsions:
  status: ('A' for Active; 'I' for Inactive)
    1  A    between atoms: C_3  and  C_19
    2  A    between atoms: C_3  and  N_24
    3  A    between atoms: C_6  and  C_9
    4  A    between atoms: C_6  and  C_26
    5  A    between atoms: C_16  and  C_21
    6  A    between atoms: C_17  and  C_21
                            x       y       z     vdW  Elec       q    Type
                         _______ _______ _______ _____ _____    ______ ____

>  <TORSDO>
F 6

$$$$
=
 OpenBabel11042410243D

 29 32  0  0  1  0  0  0  0  0999 V2000
  189.7780  177.9580  138.2410 C   0  0  2  0  0  3  0  0  0  0  0  0
  189.4250  177.1280  139.4640 C   0  0  2  0  0  3  0  0  0  0  0  0
  188.5600  178.7650  138.3470 N   0  0  2  0  0  0  0  0  0  0  0  0
  189.7090  177.1990  136.9220 C   0  0  2  0  0  3  0  0  0  0  0  0
  188.2660  177.1960  136.5020 C   0  0  0  0  0  2  0  0  0  0  0  0
  188.1900  178.0030  139.5370 C   0  0  0  0  0  2  0  0  0  0  0  0
  187.6610  178.3660  137.2590 C   0  0  0  0  0  2  0  0  0  0  0  0
  189.6370  174.8030  136.9360 C   0  0  0  0  0  0  0  0  0  0  0  0
  188.8700  173.7520  136.9850 C   0  0  0  0  0  3  0  0  0  0  0  0
  190.4060  175.8610  136.8840 C   0  0  0  0  0  0  0  0  0  0  0  0
  192.5660  176.0100  135.6010 C   0  0  0  0  0  3  0  0  0  0  0  0
  193.9520  175.8620  135.5090 C   0  0  0  0  0  3  0  0  0  0  0  0
  194.0180  175.0820  137.7970 C   0  0  0  0  0  3  0  0  0  0  0  0
  191.8850  175.7010  136.7930 C   0  0  0  0  0  0  0  0  0  0  0  0
  196.0550  175.2550  136.5190 O   0  0  0  0  0  1  0  0  0  0  0  0
  194.6780  175.3990  136.6080 C   0  0  0  0  0  0  0  0  0  0  0  0
  192.6310  175.2330  137.8880 C   0  0  0  0  0  3  0  0  0  0  0  0
  187.3980  173.8980  136.8170 C   0  0  0  0  0  2  0  0  0  0  0  0
  185.7120  173.0180  138.0350 O   0  0  0  0  0  1  0  0  0  0  0  0
  186.7320  172.6700  137.2140 N   0  0  0  0  0  2  0  0  0  0  0  0
  191.6120  177.5220  140.3770 O   0  0  0  0  0  0  0  0  0  0  0  0
  190.3740  177.4070  140.5940 C   0  0  0  0  0  0  0  0  0  0  0  0
  189.6540  177.9920  144.5940 S   0  0  0  0  0  0  0  0  0  0  0  0
  188.2780  177.6180  143.5620 N   0  0  0  0  0  0  0  0  0  0  0  0
  190.7520  177.7020  143.1620 C   0  0  1  0  0  3  0  0  0  0  0  0
  191.6870  176.2130  143.4540 Cl  0  0  0  0  0  0  0  0  0  0  0  0
  188.5990  177.4410  142.2200 N   0  0  0  0  0  0  0  0  0  0  0  0
  189.8610  177.5140  141.9700 C   0  0  0  0  0  0  0  0  0  0  0  0
  187.0190  177.1460  144.1030 C   0  0  0  0  0  1  0  0  0  0  0  0
  1  3  1  0  0  0  0
  1  2  1  0  0  0  0
  2  6  1  0  0  0  0
  2 22  1  0  0  0  0
  3  6  1  0  0  0  0
  4  1  1  0  0  0  0
  5  4  1  0  0  0  0
  5  7  1  0  0  0  0
  7  3  1  0  0  0  0
  8  9  2  0  0  0  0
 10  4  1  0  0  0  0
 10  8  2  0  0  0  0
 11 14  1  0  0  0  0
 12 11  2  0  0  0  0
 12 16  1  0  0  0  0
 13 17  1  0  0  0  0
 14 10  1  0  0  0  0
 14 17  2  0  0  0  0
 15 16  1  0  0  0  0
 16 13  2  0  0  0  0
 18  9  1  0  0  0  0
 18 20  1  0  0  0  0
 20 19  1  0  0  0  0
 21 22  2  0  0  0  0
 22 28  1  0  0  0  0
 24 29  1  0  0  0  0
 24 23  1  0  0  0  0
 25 26  1  0  0  0  0
 25 23  1  0  0  0  0
 27 24  1  0  0  0  0
 28 27  2  0  0  0  0
 28 25  1  0  0  0  0
M  END
>  <MODEL>
4

>  <REMARK>
 VINA RESULT:      -7.3      5.387      8.933
  Name = 
  6 active torsions:
  status: ('A' for Active; 'I' for Inactive)
    1  A    between atoms: C_3  and  C_19
    2  A    between atoms: C_3  and  N_24
    3  A    between atoms: C_6  and  C_9
    4  A    between atoms: C_6  and  C_26
    5  A    between atoms: C_16  and  C_21
    6  A    between atoms: C_17  and  C_21
                            x       y       z     vdW  Elec       q    Type
                         _______ _______ _______ _____ _____    ______ ____

>  <TORSDO>
F 6

$$$$
=
 OpenBabel11042410243D

 29 32  0  0  1  0  0  0  0  0999 V2000
  181.7060  178.1140  139.2660 C   0  0  2  0  0  3  0  0  0  0  0  0
  182.5140  177.1150  138.4550 C   0  0  2  0  0  3  0  0  0  0  0  0
  181.0340  178.6440  138.0770 N   0  0  2  0  0  0  0  0  0  0  0  0
  182.5260  179.2470  139.8700 C   0  0  2  0  0  3  0  0  0  0  0  0
  182.7070  180.2730  138.7870 C   0  0  0  0  0  2  0  0  0  0  0  0
  181.7780  177.6890  137.2620 C   0  0  0  0  0  2  0  0  0  0  0  0
  181.5780  179.9810  137.8130 C   0  0  0  0  0  2  0  0  0  0  0  0
  184.8100  178.5180  139.8690 C   0  0  0  0  0  0  0  0  0  0  0  0
  185.8350  178.1970  139.1320 C   0  0  0  0  0  3  0  0  0  0  0  0
  183.7800  178.8430  140.6080 C   0  0  0  0  0  0  0  0  0  0  0  0
  185.1390  178.6320  142.7150 C   0  0  0  0  0  3  0  0  0  0  0  0
  185.2480  178.5920  144.1070 C   0  0  0  0  0  3  0  0  0  0  0  0
  182.8550  178.8820  144.3000 C   0  0  0  0  0  3  0  0  0  0  0  0
  183.8880  178.8020  142.0940 C   0  0  0  0  0  0  0  0  0  0  0  0
  184.2120  178.6820  146.2830 O   0  0  0  0  0  1  0  0  0  0  0  0
  184.1050  178.7190  144.9000 C   0  0  0  0  0  0  0  0  0  0  0  0
  182.7490  178.9240  142.9070 C   0  0  0  0  0  3  0  0  0  0  0  0
  185.8160  178.4800  137.6710 C   0  0  0  0  0  2  0  0  0  0  0  0
  187.9830  178.7140  138.2620 O   0  0  0  0  0  1  0  0  0  0  0  0
  187.1220  178.9510  137.2430 N   0  0  0  0  0  2  0  0  0  0  0  0
  181.4650  175.4400  139.8220 O   0  0  0  0  0  0  0  0  0  0  0  0
  182.0820  175.7080  138.7540 C   0  0  0  0  0  0  0  0  0  0  0  0
  182.2920  172.8460  135.8170 S   0  0  0  0  0  0  0  0  0  0  0  0
  183.7650  173.2140  136.7050 N   0  0  0  0  0  0  0  0  0  0  0  0
  181.3800  173.9460  136.9560 C   0  0  1  0  0  3  0  0  0  0  0  0
  180.3130  172.9510  137.9790 Cl  0  0  0  0  0  0  0  0  0  0  0  0
  183.6180  174.1980  137.6770 N   0  0  0  0  0  0  0  0  0  0  0  0
  182.4100  174.6270  137.8100 C   0  0  0  0  0  0  0  0  0  0  0  0
  184.9040  172.3170  136.7090 C   0  0  0  0  0  1  0  0  0  0  0  0
  1  4  1  0  0  0  0
  2 22  1  0  0  0  0
  2  1  1  0  0  0  0
  3  1  1  0  0  0  0
  4 10  1  0  0  0  0
  5  4  1  0  0  0  0
  6  3  1  0  0  0  0
  6  2  1  0  0  0  0
  7  3  1  0  0  0  0
  7  5  1  0  0  0  0
  8 10  2  0  0  0  0
  9  8  2  0  0  0  0
 10 14  1  0  0  0  0
 11 12  1  0  0  0  0
 12 16  2  0  0  0  0
 13 16  1  0  0  0  0
 14 11  2  0  0  0  0
 14 17  1  0  0  0  0
 16 15  1  0  0  0  0
 17 13  2  0  0  0  0
 18  9  1  0  0  0  0
 20 18  1  0  0  0  0
 20 19  1  0  0  0  0
 22 21  2  0  0  0  0
 23 24  1  0  0  0  0
 23 25  1  0  0  0  0
 24 29  1  0  0  0  0
 24 27  1  0  0  0  0
 25 28  1  0  0  0  0
 25 26  1  0  0  0  0
 27 28  2  0  0  0  0
 28 22  1  0  0  0  0
M  END
>  <MODEL>
5

>  <REMARK>
 VINA RESULT:      -7.3      5.280      7.704
  Name = 
  6 active torsions:
  status: ('A' for Active; 'I' for Inactive)
    1  A    between atoms: C_3  and  C_19
    2  A    between atoms: C_3  and  N_24
    3  A    between atoms: C_6  and  C_9
    4  A    between atoms: C_6  and  C_26
    5  A    between atoms: C_16  and  C_21
    6  A    between atoms: C_17  and  C_21
                            x       y       z     vdW  Elec       q    Type
                         _______ _______ _______ _____ _____    ______ ____

>  <TORSDO>
F 6

$$$$
=
 OpenBabel11042410243D

 29 32  0  0  1  0  0  0  0  0999 V2000
  190.0200  177.8380  138.3330 C   0  0  2  0  0  3  0  0  0  0  0  0
  189.3470  177.2880  139.5790 C   0  0  2  0  0  3  0  0  0  0  0  0
  189.1800  179.0380  138.3200 N   0  0  2  0  0  0  0  0  0  0  0  0
  189.7220  177.0580  137.0590 C   0  0  2  0  0  3  0  0  0  0  0  0
  188.3930  177.5480  136.5550 C   0  0  0  0  0  2  0  0  0  0  0  0
  188.5170  178.5540  139.5280 C   0  0  0  0  0  2  0  0  0  0  0  0
  188.2340  178.9110  137.2060 C   0  0  0  0  0  2  0  0  0  0  0  0
  191.0930  175.1160  137.3660 C   0  0  0  0  0  0  0  0  0  0  0  0
  192.2980  174.6770  137.5940 C   0  0  0  0  0  3  0  0  0  0  0  0
  189.8820  175.5590  137.1400 C   0  0  0  0  0  0  0  0  0  0  0  0
  187.4300  175.0010  137.2170 C   0  0  0  0  0  3  0  0  0  0  0  0
  186.3700  174.1040  137.0670 C   0  0  0  0  0  3  0  0  0  0  0  0
  187.9320  172.3660  136.4450 C   0  0  0  0  0  3  0  0  0  0  0  0
  188.7560  174.5970  136.9780 C   0  0  0  0  0  0  0  0  0  0  0  0
  185.5690  171.8940  136.5280 O   0  0  0  0  0  1  0  0  0  0  0  0
  186.6210  172.7860  136.6800 C   0  0  0  0  0  0  0  0  0  0  0  0
  188.9910  173.2660  136.5920 C   0  0  0  0  0  3  0  0  0  0  0  0
  193.3680  175.6260  138.0080 C   0  0  0  0  0  2  0  0  0  0  0  0
  194.6300  176.6880  136.4660 O   0  0  0  0  0  1  0  0  0  0  0  0
  193.4230  176.7420  137.0790 N   0  0  0  0  0  2  0  0  0  0  0  0
  191.5370  177.1630  140.5600 O   0  0  0  0  0  0  0  0  0  0  0  0
  190.2940  177.2880  140.7440 C   0  0  0  0  0  0  0  0  0  0  0  0
  189.5440  177.8550  144.7420 S   0  0  0  0  0  0  0  0  0  0  0  0
  188.1690  177.5540  143.6870 N   0  0  0  0  0  0  0  0  0  0  0  0
  190.6490  177.5350  143.3220 C   0  0  1  0  0  3  0  0  0  0  0  0
  191.5150  176.0040  143.6070 Cl  0  0  0  0  0  0  0  0  0  0  0  0
  188.5000  177.3790  142.3470 N   0  0  0  0  0  0  0  0  0  0  0  0
  189.7670  177.4010  142.1150 C   0  0  0  0  0  0  0  0  0  0  0  0
  186.8820  177.1300  144.2050 C   0  0  0  0  0  1  0  0  0  0  0  0
  1  2  1  0  0  0  0
  2 22  1  0  0  0  0
  3  1  1  0  0  0  0
  3  6  1  0  0  0  0
  4 10  1  0  0  0  0
  4  1  1  0  0  0  0
  5  4  1  0  0  0  0
  5  7  1  0  0  0  0
  6  2  1  0  0  0  0
  7  3  1  0  0  0  0
  8  9  2  0  0  0  0
  9 18  1  0  0  0  0
 10  8  2  0  0  0  0
 12 11  1  0  0  0  0
 13 17  2  0  0  0  0
 13 16  1  0  0  0  0
 14 10  1  0  0  0  0
 14 11  2  0  0  0  0
 15 16  1  0  0  0  0
 16 12  2  0  0  0  0
 17 14  1  0  0  0  0
 19 20  1  0  0  0  0
 20 18  1  0  0  0  0
 21 22  2  0  0  0  0
 22 28  1  0  0  0  0
 24 29  1  0  0  0  0
 24 23  1  0  0  0  0
 25 26  1  0  0  0  0
 25 23  1  0  0  0  0
 27 24  1  0  0  0  0
 28 27  2  0  0  0  0
 28 25  1  0  0  0  0
M  END
>  <MODEL>
6

>  <REMARK>
 VINA RESULT:      -7.3      5.062      7.513
  Name = 
  6 active torsions:
  status: ('A' for Active; 'I' for Inactive)
    1  A    between atoms: C_3  and  C_19
    2  A    between atoms: C_3  and  N_24
    3  A    between atoms: C_6  and  C_9
    4  A    between atoms: C_6  and  C_26
    5  A    between atoms: C_16  and  C_21
    6  A    between atoms: C_17  and  C_21
                            x       y       z     vdW  Elec       q    Type
                         _______ _______ _______ _____ _____    ______ ____

>  <TORSDO>
F 6

$$$$
=
 OpenBabel11042410243D

 29 32  0  0  1  0  0  0  0  0999 V2000
  188.1130  177.5780  136.7200 C   0  0  2  0  0  3  0  0  0  0  0  0
  187.8830  177.2420  138.1840 C   0  0  2  0  0  3  0  0  0  0  0  0
  186.7460  178.0730  136.5430 N   0  0  2  0  0  0  0  0  0  0  0  0
  188.2800  176.3650  135.8130 C   0  0  2  0  0  3  0  0  0  0  0  0
  186.8960  175.8800  135.4830 C   0  0  0  0  0  2  0  0  0  0  0  0
  186.4870  177.7810  137.9510 C   0  0  0  0  0  2  0  0  0  0  0  0
  186.0130  177.0900  135.7370 C   0  0  0  0  0  2  0  0  0  0  0  0
  188.7340  174.1570  136.6300 C   0  0  0  0  0  0  0  0  0  0  0  0
  188.2170  173.0120  136.9730 C   0  0  0  0  0  3  0  0  0  0  0  0
  189.2510  175.3090  136.2820 C   0  0  0  0  0  0  0  0  0  0  0  0
  191.3520  175.7170  137.6060 C   0  0  0  0  0  3  0  0  0  0  0  0
  192.7330  175.9120  137.6870 C   0  0  0  0  0  3  0  0  0  0  0  0
  192.9000  175.7210  135.2820 C   0  0  0  0  0  3  0  0  0  0  0  0
  190.7250  175.5160  136.3620 C   0  0  0  0  0  0  0  0  0  0  0  0
  194.8790  176.1040  136.6060 O   0  0  0  0  0  1  0  0  0  0  0  0
  193.5070  175.9130  136.5250 C   0  0  0  0  0  0  0  0  0  0  0  0
  191.5190  175.5230  135.2030 C   0  0  0  0  0  3  0  0  0  0  0  0
  186.7940  172.7140  136.6560 C   0  0  0  0  0  2  0  0  0  0  0  0
  184.7250  172.4840  137.5320 O   0  0  0  0  0  1  0  0  0  0  0  0
  185.9740  172.9140  137.8380 N   0  0  0  0  0  2  0  0  0  0  0  0
  189.0570  179.2810  138.6690 O   0  0  0  0  0  0  0  0  0  0  0  0
  188.6880  178.1440  139.0740 C   0  0  0  0  0  0  0  0  0  0  0  0
  189.0430  176.6090  142.8660 S   0  0  0  0  0  0  0  0  0  0  0  0
  190.5170  177.1020  142.0440 N   0  0  0  0  0  0  0  0  0  0  0  0
  188.0840  177.3000  141.4720 C   0  0  1  0  0  3  0  0  0  0  0  0
  187.2170  178.7490  142.0400 Cl  0  0  0  0  0  0  0  0  0  0  0  0
  190.3190  177.6050  140.7610 N   0  0  0  0  0  0  0  0  0  0  0  0
  189.0790  177.6870  140.4180 C   0  0  0  0  0  0  0  0  0  0  0  0
  191.7540  177.3420  142.7620 C   0  0  0  0  0  1  0  0  0  0  0  0
  1  2  1  0  0  0  0
  2 22  1  0  0  0  0
  3  1  1  0  0  0  0
  3  6  1  0  0  0  0
  4 10  1  0  0  0  0
  4  1  1  0  0  0  0
  5  7  1  0  0  0  0
  5  4  1  0  0  0  0
  6  2  1  0  0  0  0
  7  3  1  0  0  0  0
  8  9  2  0  0  0  0
 10 14  1  0  0  0  0
 10  8  2  0  0  0  0
 11 12  1  0  0  0  0
 13 16  1  0  0  0  0
 14 11  2  0  0  0  0
 16 15  1  0  0  0  0
 16 12  2  0  0  0  0
 17 13  2  0  0  0  0
 17 14  1  0  0  0  0
 18  9  1  0  0  0  0
 18 20  1  0  0  0  0
 19 20  1  0  0  0  0
 21 22  2  0  0  0  0
 22 28  1  0  0  0  0
 24 29  1  0  0  0  0
 24 23  1  0  0  0  0
 25 26  1  0  0  0  0
 25 23  1  0  0  0  0
 27 24  1  0  0  0  0
 28 27  2  0  0  0  0
 28 25  1  0  0  0  0
M  END
>  <MODEL>
7

>  <REMARK>
 VINA RESULT:      -7.3      5.550      9.051
  Name = 
  6 active torsions:
  status: ('A' for Active; 'I' for Inactive)
    1  A    between atoms: C_3  and  C_19
    2  A    between atoms: C_3  and  N_24
    3  A    between atoms: C_6  and  C_9
    4  A    between atoms: C_6  and  C_26
    5  A    between atoms: C_16  and  C_21
    6  A    between atoms: C_17  and  C_21
                            x       y       z     vdW  Elec       q    Type
                         _______ _______ _______ _____ _____    ______ ____

>  <TORSDO>
F 6

$$$$
=
 OpenBabel11042410243D

 29 32  0  0  1  0  0  0  0  0999 V2000
  186.7130  178.6260  144.2950 C   0  0  2  0  0  3  0  0  0  0  0  0
  186.6520  177.1100  144.2060 C   0  0  2  0  0  3  0  0  0  0  0  0
  186.6510  178.6150  145.7590 N   0  0  2  0  0  0  0  0  0  0  0  0
  185.4640  179.3380  143.7910 C   0  0  2  0  0  3  0  0  0  0  0  0
  184.4690  179.3140  144.9170 C   0  0  0  0  0  2  0  0  0  0  0  0
  186.6060  177.1560  145.7190 C   0  0  0  0  0  2  0  0  0  0  0  0
  185.3220  179.0950  146.1550 C   0  0  0  0  0  2  0  0  0  0  0  0
  183.6500  178.7170  142.3530 C   0  0  0  0  0  0  0  0  0  0  0  0
  182.3630  178.5380  142.2640 C   0  0  0  0  0  3  0  0  0  0  0  0
  184.9430  178.8990  142.4440 C   0  0  0  0  0  0  0  0  0  0  0  0
  187.2130  178.6770  141.3800 C   0  0  0  0  0  3  0  0  0  0  0  0
  188.0320  178.4660  140.2690 C   0  0  0  0  0  3  0  0  0  0  0  0
  186.0720  178.2530  138.8680 C   0  0  0  0  0  3  0  0  0  0  0  0
  185.8110  178.6740  141.2540 C   0  0  0  0  0  0  0  0  0  0  0  0
  188.2740  178.0400  137.9080 O   0  0  0  0  0  1  0  0  0  0  0  0
  187.4610  178.2520  139.0120 C   0  0  0  0  0  0  0  0  0  0  0  0
  185.2540  178.4610  139.9820 C   0  0  0  0  0  3  0  0  0  0  0  0
  181.4710  179.0040  143.3610 C   0  0  0  0  0  2  0  0  0  0  0  0
  179.6800  177.6490  143.6060 O   0  0  0  0  0  1  0  0  0  0  0  0
  180.0820  178.7890  142.9920 N   0  0  0  0  0  2  0  0  0  0  0  0
  187.9600  175.6250  142.8440 O   0  0  0  0  0  0  0  0  0  0  0  0
  187.9510  176.5500  143.7030 C   0  0  0  0  0  0  0  0  0  0  0  0
  191.4400  178.5050  144.6310 S   0  0  0  0  0  0  0  0  0  0  0  0
  190.8350  177.3220  145.7840 N   0  0  0  0  0  0  0  0  0  0  0  0
  190.1130  178.0000  143.4810 C   0  0  1  0  0  3  0  0  0  0  0  0
  190.8490  177.1490  142.1000 Cl  0  0  0  0  0  0  0  0  0  0  0  0
  189.6460  176.7070  145.4050 N   0  0  0  0  0  0  0  0  0  0  0  0
  189.2230  177.0600  144.2400 C   0  0  0  0  0  0  0  0  0  0  0  0
  191.6810  176.7530  146.8150 C   0  0  0  0  0  1  0  0  0  0  0  0
  1  3  1  0  0  0  0
  2  1  1  0  0  0  0
  2  6  1  0  0  0  0
  3  7  1  0  0  0  0
  4  1  1  0  0  0  0
  4  5  1  0  0  0  0
  5  7  1  0  0  0  0
  6  3  1  0  0  0  0
  8 10  2  0  0  0  0
  9  8  2  0  0  0  0
  9 18  1  0  0  0  0
 10  4  1  0  0  0  0
 12 11  2  0  0  0  0
 13 16  2  0  0  0  0
 13 17  1  0  0  0  0
 14 11  1  0  0  0  0
 14 10  1  0  0  0  0
 15 16  1  0  0  0  0
 16 12  1  0  0  0  0
 17 14  2  0  0  0  0
 20 18  1  0  0  0  0
 20 19  1  0  0  0  0
 21 22  2  0  0  0  0
 22  2  1  0  0  0  0
 22 28  1  0  0  0  0
 23 24  1  0  0  0  0
 24 29  1  0  0  0  0
 25 28  1  0  0  0  0
 25 23  1  0  0  0  0
 26 25  1  0  0  0  0
 27 24  1  0  0  0  0
 28 27  2  0  0  0  0
M  END
>  <MODEL>
8

>  <REMARK>
 VINA RESULT:      -7.2      1.644      4.352
  Name = 
  6 active torsions:
  status: ('A' for Active; 'I' for Inactive)
    1  A    between atoms: C_3  and  C_19
    2  A    between atoms: C_3  and  N_24
    3  A    between atoms: C_6  and  C_9
    4  A    between atoms: C_6  and  C_26
    5  A    between atoms: C_16  and  C_21
    6  A    between atoms: C_17  and  C_21
                            x       y       z     vdW  Elec       q    Type
                         _______ _______ _______ _____ _____    ______ ____

>  <TORSDO>
F 6

$$$$
=
 OpenBabel11042410243D

 29 32  0  0  1  0  0  0  0  0999 V2000
  185.9130  177.7210  143.0430 C   0  0  2  0  0  3  0  0  0  0  0  0
  186.4120  179.0710  142.5580 C   0  0  2  0  0  3  0  0  0  0  0  0
  184.5580  178.2260  143.2810 N   0  0  2  0  0  0  0  0  0  0  0  0
  186.4800  177.2850  144.3890 C   0  0  2  0  0  3  0  0  0  0  0  0
  185.6570  177.9670  145.4450 C   0  0  0  0  0  2  0  0  0  0  0  0
  184.9920  179.5370  142.8060 C   0  0  0  0  0  2  0  0  0  0  0  0
  184.3610  178.3160  144.7320 C   0  0  0  0  0  2  0  0  0  0  0  0
  188.4200  177.5380  145.7730 C   0  0  0  0  0  0  0  0  0  0  0  0
  188.8590  177.6790  146.9910 C   0  0  0  0  0  3  0  0  0  0  0  0
  187.9760  177.3940  144.5500 C   0  0  0  0  0  0  0  0  0  0  0  0
  189.9900  178.2770  143.3250 C   0  0  0  0  0  3  0  0  0  0  0  0
  190.8940  178.2370  142.2610 C   0  0  0  0  0  3  0  0  0  0  0  0
  189.7130  176.3420  141.3310 C   0  0  0  0  0  3  0  0  0  0  0  0
  188.9370  177.3460  143.4120 C   0  0  0  0  0  0  0  0  0  0  0  0
  191.6550  177.2270  140.2080 O   0  0  0  0  0  1  0  0  0  0  0  0
  190.7560  177.2690  141.2640 C   0  0  0  0  0  0  0  0  0  0  0  0
  188.8120  176.3810  142.3980 C   0  0  0  0  0  3  0  0  0  0  0  0
  187.9380  177.4710  148.1410 C   0  0  0  0  0  2  0  0  0  0  0  0
  189.6650  178.6290  149.0220 O   0  0  0  0  0  1  0  0  0  0  0  0
  188.3910  178.2480  149.2820 N   0  0  0  0  0  2  0  0  0  0  0  0
  187.9340  179.1120  140.6990 O   0  0  0  0  0  0  0  0  0  0  0  0
  186.7380  179.0280  141.0930 C   0  0  0  0  0  0  0  0  0  0  0  0
  183.9980  178.0100  138.2090 S   0  0  0  0  0  0  0  0  0  0  0  0
  183.6900  179.4630  139.1510 N   0  0  0  0  0  0  0  0  0  0  0  0
  185.6240  177.8730  139.0300 C   0  0  1  0  0  3  0  0  0  0  0  0
  186.8990  178.2110  137.8310 Cl  0  0  0  0  0  0  0  0  0  0  0  0
  184.6570  179.7390  140.1130 N   0  0  0  0  0  0  0  0  0  0  0  0
  185.6510  178.9180  140.1060 C   0  0  0  0  0  0  0  0  0  0  0  0
  182.7560  180.4800  138.7100 C   0  0  0  0  0  1  0  0  0  0  0  0
  1  3  1  0  0  0  0
  1  4  1  0  0  0  0
  2  6  1  0  0  0  0
  2  1  1  0  0  0  0
  3  7  1  0  0  0  0
  4 10  1  0  0  0  0
  4  5  1  0  0  0  0
  6  3  1  0  0  0  0
  7  5  1  0  0  0  0
  8  9  2  0  0  0  0
  9 18  1  0  0  0  0
 10  8  2  0  0  0  0
 11 14  1  0  0  0  0
 12 11  2  0  0  0  0
 13 17  1  0  0  0  0
 14 10  1  0  0  0  0
 15 16  1  0  0  0  0
 16 13  2  0  0  0  0
 16 12  1  0  0  0  0
 17 14  2  0  0  0  0
 18 20  1  0  0  0  0
 19 20  1  0  0  0  0
 21 22  2  0  0  0  0
 22  2  1  0  0  0  0
 23 25  1  0  0  0  0
 23 24  1  0  0  0  0
 24 27  1  0  0  0  0
 25 28  1  0  0  0  0
 26 25  1  0  0  0  0
 28 27  2  0  0  0  0
 28 22  1  0  0  0  0
 29 24  1  0  0  0  0
M  END
>  <MODEL>
9

>  <REMARK>
 VINA RESULT:      -7.1      3.646      7.282
  Name = 
  6 active torsions:
  status: ('A' for Active; 'I' for Inactive)
    1  A    between atoms: C_3  and  C_19
    2  A    between atoms: C_3  and  N_24
    3  A    between atoms: C_6  and  C_9
    4  A    between atoms: C_6  and  C_26
    5  A    between atoms: C_16  and  C_21
    6  A    between atoms: C_17  and  C_21
                            x       y       z     vdW  Elec       q    Type
                         _______ _______ _______ _____ _____    ______ ____

>  <TORSDO>
F 6

$$$$
