=
 OpenBabel11032420473D

 47 51  0  0  1  0  0  0  0  0999 V2000
  195.2040  170.6390  136.0210 C   0  0  0  0  0  3  0  0  0  0  0  0
  193.8020  175.1150  137.0610 C   0  0  1  0  0  3  0  0  0  0  0  0
  191.5290  175.8550  137.8190 C   0  0  0  0  0  0  0  0  0  0  0  0
  190.7340  174.9870  136.8570 C   0  0  2  0  0  3  0  0  0  0  0  0
  189.2010  175.0350  137.0350 C   0  0  2  0  0  3  0  0  0  0  0  0
  192.9990  172.3700  135.8820 C   0  0  0  0  0  0  0  0  0  0  0  0
  187.8030  176.6570  135.6250 C   0  0  2  0  0  3  0  0  0  0  0  0
  188.6740  178.6280  137.4700 O   0  0  0  0  0  0  0  0  0  0  0  0
  187.6080  175.4050  134.7690 C   0  0  0  0  0  2  0  0  0  0  0  0
  188.9310  177.4240  137.7520 C   0  0  0  0  0  0  0  0  0  0  0  0
  188.5650  174.0890  136.1980 O   0  0  0  0  0  0  0  0  0  0  0  0
  189.6120  177.0760  139.0430 C   0  0  1  0  0  3  0  0  0  0  0  0
  194.0390  173.7840  137.7540 C   0  0  0  0  0  2  0  0  0  0  0  0
  192.8780  175.9210  137.8550 N   0  0  0  0  0  0  0  0  0  0  0  0
  193.0720  171.2440  135.0550 C   0  0  0  0  0  3  0  0  0  0  0  0
  193.2630  176.7700  138.7950 N   0  0  0  0  0  0  0  0  0  0  0  0
  188.6480  176.3820  136.8030 N   0  0  0  0  0  0  0  0  0  0  0  0
  188.6900  174.5360  134.9560 O   0  0  0  0  0  0  0  0  0  0  0  0
  192.1670  177.3080  139.3660 C   0  0  0  0  0  3  0  0  0  0  0  0
  194.1660  170.3790  135.1260 C   0  0  0  0  0  3  0  0  0  0  0  0
  191.1870  173.6040  136.9510 N   0  0  0  0  0  2  0  0  0  0  0  0
  191.8340  173.2930  135.6860 C   0  0  0  0  0  2  0  0  0  0  0  0
  194.0620  172.6440  136.7800 C   0  0  0  0  0  0  0  0  0  0  0  0
  195.1490  171.7640  136.8460 C   0  0  0  0  0  3  0  0  0  0  0  0
  191.0490  176.7530  138.7620 C   0  0  0  0  0  0  0  0  0  0  0  0
  186.4590  177.1700  136.0380 C   0  0  0  0  0  0  0  0  0  0  0  0
  185.8440  176.6790  137.2320 N   0  0  0  0  0  2  0  0  0  0  0  0
  185.8720  178.0210  135.3190 O   0  0  0  0  0  0  0  0  0  0  0  0
  184.6130  177.2380  137.7760 C   0  0  2  0  0  3  0  0  0  0  0  0
  185.3140  179.3580  138.7040 O   0  0  0  0  0  1  0  0  0  0  0  0
  184.9060  178.0640  139.0370 C   0  0  1  0  0  3  0  0  0  0  0  0
  183.7080  178.1020  140.0000 C   0  0  2  0  0  3  0  0  0  0  0  0
  181.6490  179.2460  140.5410 O   0  0  0  0  0  1  0  0  0  0  0  0
  182.8710  179.3770  139.8790 C   0  0  0  0  0  2  0  0  0  0  0  0
  184.1310  177.8530  141.4460 C   0  0  0  0  0  2  0  0  0  0  0  0
  184.4840  179.3120  143.4400 C   0  0  0  0  0  1  0  0  0  0  0  0
  184.9040  179.0340  142.0100 C   0  0  0  0  0  2  0  0  0  0  0  0
  183.6310  176.1070  138.0690 C   0  0  0  0  0  2  0  0  0  0  0  0
  183.8970  174.9990  137.2610 O   0  0  0  0  0  1  0  0  0  0  0  0
  188.1690  177.9020  140.9110 C   0  0  0  0  0  1  0  0  0  0  0  0
  189.4400  178.1480  140.1180 C   0  0  0  0  0  2  0  0  0  0  0  0
  195.0630  175.8110  136.8660 N   0  0  0  0  0  2  0  0  0  0  0  0
  195.5610  175.4160  135.5610 C   0  0  0  0  0  2  0  0  0  0  0  0
  197.0480  175.6960  135.4830 C   0  0  0  0  0  2  0  0  0  0  0  0
  197.7690  174.8670  136.4850 C   0  0  0  0  0  0  0  0  0  0  0  0
  198.0800  175.3580  137.6020 O   0  0  0  0  0  1  0  0  0  0  0  0
  198.0720  173.5400  136.2040 O   0  0  0  0  0  0  0  0  0  0  0  0
  1 24  1  0  0  0  0
  2 42  1  1  0  0  0
  2 13  1  0  0  0  0
  2 14  1  0  0  0  0
  3 14  1  0  0  0  0
  3 25  2  0  0  0  0
  4 21  1  1  0  0  0
  4  5  1  0  0  0  0
  4  3  1  0  0  0  0
  5 11  1  6  0  0  0
  6 23  1  0  0  0  0
  7 26  1  1  0  0  0
  7 17  1  0  0  0  0
  8 10  2  0  0  0  0
  9 18  1  0  0  0  0
  9  7  1  0  0  0  0
 10 12  1  0  0  0  0
 12 41  1  1  0  0  0
 14 16  1  0  0  0  0
 15 20  1  0  0  0  0
 15  6  2  0  0  0  0
 16 19  2  0  0  0  0
 17  5  1  0  0  0  0
 17 10  1  0  0  0  0
 18 11  1  0  0  0  0
 20  1  2  0  0  0  0
 22  6  1  0  0  0  0
 22 21  1  0  0  0  0
 23 24  2  0  0  0  0
 23 13  1  0  0  0  0
 25 12  1  0  0  0  0
 25 19  1  0  0  0  0
 26 27  1  0  0  0  0
 27 29  1  0  0  0  0
 28 26  2  0  0  0  0
 29 38  1  1  0  0  0
 29 31  1  0  0  0  0
 31 30  1  6  0  0  0
 31 32  1  0  0  0  0
 32 34  1  1  0  0  0
 32 35  1  0  0  0  0
 34 33  1  0  0  0  0
 35 37  1  0  0  0  0
 37 36  1  0  0  0  0
 39 38  1  0  0  0  0
 41 40  1  0  0  0  0
 43 42  1  0  0  0  0
 44 43  1  0  0  0  0
 44 45  1  0  0  0  0
 45 46  1  0  0  0  0
 47 45  2  0  0  0  0
M  END
>  <MODEL>
1

>  <REMARK>
 VINA RESULT:      -6.3      0.000      0.000
  Name = 
  13 active torsions:
  status: ('A' for Active; 'I' for Inactive)
    1  A    between atoms: C_2  and  N_17
    2  A    between atoms: C_6  and  C_39
    3  A    between atoms: CA_12  and  C_31
    4  A    between atoms: CA_12  and  N_34
    5  A    between atoms: CA_12  and  C_35
    6  A    between atoms: C_14  and  C_22
    7  A    between atoms: C_15  and  C_29
    8  A    between atoms: C_16  and  C_27
    9  A    between atoms: N_17  and  C_26
   10  A    between atoms: C_23  and  C_40
   11  A    between atoms: C_26  and  C_39
   12  A    between atoms: C_27  and  C_31
   13  A    between atoms: C_27  and  C_40
                            x       y       z     vdW  Elec       q    Type
                         _______ _______ _______ _____ _____    ______ ____

>  <TORSDO>
F 13

$$$$
=
 OpenBabel11032420473D

 47 51  0  0  1  0  0  0  0  0999 V2000
  179.4180  180.7530  137.3950 C   0  0  0  0  0  3  0  0  0  0  0  0
  180.9260  178.3650  141.2800 C   0  0  1  0  0  3  0  0  0  0  0  0
  183.0450  178.7440  142.5670 C   0  0  0  0  0  0  0  0  0  0  0  0
  183.9500  178.9290  141.3580 C   0  0  2  0  0  3  0  0  0  0  0  0
  185.4120  179.3070  141.6790 C   0  0  2  0  0  3  0  0  0  0  0  0
  181.7340  179.8090  138.6670 C   0  0  0  0  0  0  0  0  0  0  0  0
  187.1960  177.4730  141.8550 C   0  0  2  0  0  3  0  0  0  0  0  0
  186.1220  177.0170  144.4420 O   0  0  0  0  0  0  0  0  0  0  0  0
  187.4620  177.8940  140.4100 C   0  0  0  0  0  2  0  0  0  0  0  0
  185.7180  178.0420  143.8250 C   0  0  0  0  0  0  0  0  0  0  0  0
  186.1300  179.5990  140.4960 O   0  0  0  0  0  0  0  0  0  0  0  0
  184.7610  178.9930  144.4800 C   0  0  1  0  0  3  0  0  0  0  0  0
  180.4460  179.7520  140.8860 C   0  0  0  0  0  2  0  0  0  0  0  0
  181.7270  178.4540  142.4980 N   0  0  0  0  0  0  0  0  0  0  0  0
  181.7440  180.1030  137.2990 C   0  0  0  0  0  3  0  0  0  0  0  0
  181.2260  178.3490  143.7190 N   0  0  0  0  0  0  0  0  0  0  0  0
  186.1070  178.2650  142.4590 N   0  0  0  0  0  0  0  0  0  0  0  0
  186.3000  178.4480  139.8600 O   0  0  0  0  0  0  0  0  0  0  0  0
  182.2200  178.5290  144.6120 C   0  0  0  0  0  3  0  0  0  0  0  0
  180.5940  180.5780  136.6650 C   0  0  0  0  0  3  0  0  0  0  0  0
  183.3790  179.9290  140.4640 N   0  0  0  0  0  2  0  0  0  0  0  0
  182.9840  179.2240  139.2540 C   0  0  0  0  0  2  0  0  0  0  0  0
  180.5340  179.9720  139.4050 C   0  0  0  0  0  0  0  0  0  0  0  0
  179.3910  180.4550  138.7580 C   0  0  0  0  0  3  0  0  0  0  0  0
  183.3910  178.7730  143.9100 C   0  0  0  0  0  0  0  0  0  0  0  0
  188.4610  177.6180  142.6390 C   0  0  0  0  0  0  0  0  0  0  0  0
  188.8210  176.6270  143.6050 N   0  0  0  0  0  2  0  0  0  0  0  0
  189.1940  178.6260  142.4530 O   0  0  0  0  0  0  0  0  0  0  0  0
  190.1050  176.6210  144.2940 C   0  0  2  0  0  3  0  0  0  0  0  0
  188.9620  178.4580  145.3730 O   0  0  0  0  0  1  0  0  0  0  0  0
  190.1420  177.7090  145.3770 C   0  0  1  0  0  3  0  0  0  0  0  0
  190.4140  177.1310  146.7750 C   0  0  2  0  0  3  0  0  0  0  0  0
  192.4340  176.6240  148.0020 O   0  0  0  0  0  1  0  0  0  0  0  0
  191.7040  176.3120  146.8530 C   0  0  0  0  0  2  0  0  0  0  0  0
  189.2220  176.3380  147.3060 C   0  0  0  0  0  2  0  0  0  0  0  0
  188.8930  178.2430  148.8850 C   0  0  0  0  0  1  0  0  0  0  0  0
  188.2030  177.2470  147.9730 C   0  0  0  0  0  2  0  0  0  0  0  0
  191.2260  176.8140  143.2760 C   0  0  0  0  0  2  0  0  0  0  0  0
  192.0550  177.8760  143.6470 O   0  0  0  0  0  1  0  0  0  0  0  0
  186.0150  179.6350  146.5450 C   0  0  0  0  0  1  0  0  0  0  0  0
  184.7910  178.9180  146.0060 C   0  0  0  0  0  2  0  0  0  0  0  0
  179.7920  177.4760  141.4700 N   0  0  0  0  0  2  0  0  0  0  0  0
  180.0310  176.3110  140.6380 C   0  0  0  0  0  2  0  0  0  0  0  0
  179.4280  176.5400  139.2660 C   0  0  0  0  0  2  0  0  0  0  0  0
  180.4270  176.2030  138.2160 C   0  0  0  0  0  0  0  0  0  0  0  0
  181.2260  175.2460  138.3910 O   0  0  0  0  0  1  0  0  0  0  0  0
  180.4590  176.9240  137.0280 O   0  0  0  0  0  0  0  0  0  0  0  0
  1 24  1  0  0  0  0
  2 42  1  1  0  0  0
  2 14  1  0  0  0  0
  3 25  2  0  0  0  0
  4 21  1  6  0  0  0
  4  5  1  0  0  0  0
  4  3  1  0  0  0  0
  5 11  1  6  0  0  0
  5 17  1  0  0  0  0
  6 22  1  0  0  0  0
  6 23  1  0  0  0  0
  7 17  1  0  0  0  0
  7 26  1  1  0  0  0
  9  7  1  0  0  0  0
 10  8  2  0  0  0  0
 10 12  1  0  0  0  0
 12 41  1  1  0  0  0
 13  2  1  0  0  0  0
 14  3  1  0  0  0  0
 14 16  1  0  0  0  0
 15  6  2  0  0  0  0
 16 19  2  0  0  0  0
 17 10  1  0  0  0  0
 18  9  1  0  0  0  0
 18 11  1  0  0  0  0
 20 15  1  0  0  0  0
 20  1  2  0  0  0  0
 22 21  1  0  0  0  0
 23 13  1  0  0  0  0
 24 23  2  0  0  0  0
 25 12  1  0  0  0  0
 25 19  1  0  0  0  0
 26 27  1  0  0  0  0
 27 29  1  0  0  0  0
 28 26  2  0  0  0  0
 29 38  1  6  0  0  0
 29 31  1  0  0  0  0
 31 30  1  1  0  0  0
 31 32  1  0  0  0  0
 32 34  1  6  0  0  0
 32 35  1  0  0  0  0
 34 33  1  0  0  0  0
 35 37  1  0  0  0  0
 37 36  1  0  0  0  0
 38 39  1  0  0  0  0
 41 40  1  0  0  0  0
 43 42  1  0  0  0  0
 44 43  1  0  0  0  0
 45 46  1  0  0  0  0
 45 44  1  0  0  0  0
 47 45  2  0  0  0  0
M  END
>  <MODEL>
2

>  <REMARK>
 VINA RESULT:      -6.2      6.309     11.697
  Name = 
  13 active torsions:
  status: ('A' for Active; 'I' for Inactive)
    1  A    between atoms: C_2  and  N_17
    2  A    between atoms: C_6  and  C_39
    3  A    between atoms: CA_12  and  C_31
    4  A    between atoms: CA_12  and  N_34
    5  A    between atoms: CA_12  and  C_35
    6  A    between atoms: C_14  and  C_22
    7  A    between atoms: C_15  and  C_29
    8  A    between atoms: C_16  and  C_27
    9  A    between atoms: N_17  and  C_26
   10  A    between atoms: C_23  and  C_40
   11  A    between atoms: C_26  and  C_39
   12  A    between atoms: C_27  and  C_31
   13  A    between atoms: C_27  and  C_40
                            x       y       z     vdW  Elec       q    Type
                         _______ _______ _______ _____ _____    ______ ____

>  <TORSDO>
F 13

$$$$
=
 OpenBabel11032420473D

 47 51  0  0  1  0  0  0  0  0999 V2000
  188.5650  178.0320  147.7810 C   0  0  0  0  0  3  0  0  0  0  0  0
  189.0650  176.6330  143.2130 C   0  0  1  0  0  3  0  0  0  0  0  0
  188.0970  177.7280  141.1760 C   0  0  0  0  0  0  0  0  0  0  0  0
  186.7230  178.0070  141.7660 C   0  0  2  0  0  3  0  0  0  0  0  0
  185.7630  178.8060  140.8590 C   0  0  2  0  0  3  0  0  0  0  0  0
  187.2090  177.9170  145.3270 C   0  0  0  0  0  0  0  0  0  0  0  0
  184.0950  177.5640  139.3590 C   0  0  2  0  0  3  0  0  0  0  0  0
  186.3170  177.1470  137.6460 O   0  0  0  0  0  0  0  0  0  0  0  0
  183.1530  177.8650  140.5260 C   0  0  0  0  0  2  0  0  0  0  0  0
  186.4800  177.9400  138.6150 C   0  0  0  0  0  0  0  0  0  0  0  0
  184.5740  179.1390  141.5480 O   0  0  0  0  0  0  0  0  0  0  0  0
  187.7820  178.6660  138.7910 C   0  0  1  0  0  3  0  0  0  0  0  0
  189.4720  177.7770  144.1260 C   0  0  0  0  0  2  0  0  0  0  0  0
  189.0910  177.0830  141.8240 N   0  0  0  0  0  0  0  0  0  0  0  0
  186.4990  178.0350  146.5270 C   0  0  0  0  0  3  0  0  0  0  0  0
  190.1550  176.9920  141.0400 N   0  0  0  0  0  0  0  0  0  0  0  0
  185.4490  178.0950  139.6050 N   0  0  0  0  0  0  0  0  0  0  0  0
  183.8960  178.0100  141.7030 O   0  0  0  0  0  0  0  0  0  0  0  0
  189.8590  177.5440  139.8460 C   0  0  0  0  0  3  0  0  0  0  0  0
  187.1720  178.0970  147.7490 C   0  0  0  0  0  3  0  0  0  0  0  0
  186.8660  178.6970  143.0430 N   0  0  0  0  0  2  0  0  0  0  0  0
  186.4090  177.7710  144.0670 C   0  0  0  0  0  2  0  0  0  0  0  0
  188.6240  177.8330  145.3620 C   0  0  0  0  0  0  0  0  0  0  0  0
  189.2860  177.9040  146.5930 C   0  0  0  0  0  3  0  0  0  0  0  0
  188.5550  178.0130  139.8980 C   0  0  0  0  0  0  0  0  0  0  0  0
  183.5110  178.1440  138.1090 C   0  0  0  0  0  0  0  0  0  0  0  0
  183.0210  177.2780  137.0820 N   0  0  0  0  0  2  0  0  0  0  0  0
  183.4720  179.3940  137.9640 O   0  0  0  0  0  0  0  0  0  0  0  0
  182.3050  177.7650  135.9100 C   0  0  2  0  0  3  0  0  0  0  0  0
  180.4180  176.9860  137.2060 O   0  0  0  0  0  1  0  0  0  0  0  0
  180.8020  177.8810  136.2040 C   0  0  1  0  0  3  0  0  0  0  0  0
  180.3890  179.3160  136.5690 C   0  0  2  0  0  3  0  0  0  0  0  0
  179.4030  179.8390  138.7120 O   0  0  0  0  0  1  0  0  0  0  0  0
  179.1210  179.3850  137.4220 C   0  0  0  0  0  2  0  0  0  0  0  0
  180.2750  180.2080  135.3350 C   0  0  0  0  0  2  0  0  0  0  0  0
  179.6400  182.5500  134.7530 C   0  0  0  0  0  1  0  0  0  0  0  0
  180.4460  181.6750  135.6920 C   0  0  0  0  0  2  0  0  0  0  0  0
  182.5700  176.8300  134.7320 C   0  0  0  0  0  2  0  0  0  0  0  0
  183.5490  175.8890  135.0580 O   0  0  0  0  0  1  0  0  0  0  0  0
  187.7110  179.3550  136.3890 C   0  0  0  0  0  1  0  0  0  0  0  0
  188.5810  178.7860  137.4950 C   0  0  0  0  0  2  0  0  0  0  0  0
  189.9520  175.4970  143.4070 N   0  0  0  0  0  2  0  0  0  0  0  0
  191.2400  176.0360  143.8030 C   0  0  0  0  0  2  0  0  0  0  0  0
  191.8750  175.1210  144.8310 C   0  0  0  0  0  2  0  0  0  0  0  0
  192.0680  175.8580  146.1080 C   0  0  0  0  0  0  0  0  0  0  0  0
  192.1480  177.1140  146.1040 O   0  0  0  0  0  0  0  0  0  0  0  0
  192.1300  175.1640  147.3110 O   0  0  0  0  0  1  0  0  0  0  0  0
  2 42  1  6  0  0  0
  2 13  1  0  0  0  0
  3 14  1  0  0  0  0
  4  3  1  6  0  0  0
  4 21  1  0  0  0  0
  5 11  1  1  0  0  0
  5  4  1  0  0  0  0
  6 23  2  0  0  0  0
  6 15  1  0  0  0  0
  7 26  1  6  0  0  0
  7 17  1  0  0  0  0
  7  9  1  0  0  0  0
  8 10  2  0  0  0  0
  9 18  1  0  0  0  0
 10 12  1  0  0  0  0
 10 17  1  0  0  0  0
 11 18  1  0  0  0  0
 12 41  1  6  0  0  0
 12 25  1  0  0  0  0
 13 23  1  0  0  0  0
 14  2  1  0  0  0  0
 15 20  2  0  0  0  0
 16 14  1  0  0  0  0
 17  5  1  0  0  0  0
 19 25  1  0  0  0  0
 19 16  2  0  0  0  0
 20  1  1  0  0  0  0
 21 22  1  0  0  0  0
 22  6  1  0  0  0  0
 23 24  1  0  0  0  0
 24  1  2  0  0  0  0
 25  3  2  0  0  0  0
 27 26  1  0  0  0  0
 28 26  2  0  0  0  0
 29 38  1  6  0  0  0
 29 31  1  0  0  0  0
 29 27  1  0  0  0  0
 31 32  1  0  0  0  0
 31 30  1  1  0  0  0
 32 35  1  6  0  0  0
 32 34  1  0  0  0  0
 34 33  1  0  0  0  0
 35 37  1  0  0  0  0
 36 37  1  0  0  0  0
 38 39  1  0  0  0  0
 40 41  1  0  0  0  0
 42 43  1  0  0  0  0
 43 44  1  0  0  0  0
 44 45  1  0  0  0  0
 45 47  1  0  0  0  0
 46 45  2  0  0  0  0
M  END
>  <MODEL>
3

>  <REMARK>
 VINA RESULT:      -6.2      5.279      8.099
  Name = 
  13 active torsions:
  status: ('A' for Active; 'I' for Inactive)
    1  A    between atoms: C_2  and  N_17
    2  A    between atoms: C_6  and  C_39
    3  A    between atoms: CA_12  and  C_31
    4  A    between atoms: CA_12  and  N_34
    5  A    between atoms: CA_12  and  C_35
    6  A    between atoms: C_14  and  C_22
    7  A    between atoms: C_15  and  C_29
    8  A    between atoms: C_16  and  C_27
    9  A    between atoms: N_17  and  C_26
   10  A    between atoms: C_23  and  C_40
   11  A    between atoms: C_26  and  C_39
   12  A    between atoms: C_27  and  C_31
   13  A    between atoms: C_27  and  C_40
                            x       y       z     vdW  Elec       q    Type
                         _______ _______ _______ _____ _____    ______ ____

>  <TORSDO>
F 13

$$$$
=
 OpenBabel11032420473D

 47 51  0  0  1  0  0  0  0  0999 V2000
  188.2260  178.1880  147.4710 C   0  0  0  0  0  3  0  0  0  0  0  0
  188.8470  176.6850  142.9510 C   0  0  1  0  0  3  0  0  0  0  0  0
  187.8690  177.6870  140.8710 C   0  0  0  0  0  0  0  0  0  0  0  0
  186.4770  177.9300  141.4340 C   0  0  2  0  0  3  0  0  0  0  0  0
  185.5010  178.6670  140.4910 C   0  0  2  0  0  3  0  0  0  0  0  0
  186.9120  177.9550  145.0020 C   0  0  0  0  0  0  0  0  0  0  0  0
  183.9030  177.3230  139.0030 C   0  0  2  0  0  3  0  0  0  0  0  0
  186.1660  176.9430  137.3340 O   0  0  0  0  0  0  0  0  0  0  0  0
  182.9340  177.6190  140.1480 C   0  0  0  0  0  2  0  0  0  0  0  0
  186.2840  177.7680  138.2820 C   0  0  0  0  0  0  0  0  0  0  0  0
  184.2910  178.9730  141.1540 O   0  0  0  0  0  0  0  0  0  0  0  0
  187.5550  178.5460  138.4570 C   0  0  1  0  0  3  0  0  0  0  0  0
  189.1960  177.8680  143.8380 C   0  0  0  0  0  2  0  0  0  0  0  0
  188.8770  177.0980  141.5510 N   0  0  0  0  0  0  0  0  0  0  0  0
  186.1800  178.0790  146.1890 C   0  0  0  0  0  3  0  0  0  0  0  0
  189.9550  177.0260  140.7840 N   0  0  0  0  0  0  0  0  0  0  0  0
  185.2330  177.9110  139.2530 N   0  0  0  0  0  0  0  0  0  0  0  0
  183.6530  177.8240  141.3310 O   0  0  0  0  0  0  0  0  0  0  0  0
  189.6560  177.5330  139.5710 C   0  0  0  0  0  3  0  0  0  0  0  0
  186.8320  178.2000  147.4180 C   0  0  0  0  0  3  0  0  0  0  0  0
  186.5750  178.6590  142.6930 N   0  0  0  0  0  2  0  0  0  0  0  0
  186.1380  177.7450  143.7360 C   0  0  0  0  0  2  0  0  0  0  0  0
  188.3290  177.9260  145.0590 C   0  0  0  0  0  0  0  0  0  0  0  0
  188.9690  178.0550  146.2970 C   0  0  0  0  0  3  0  0  0  0  0  0
  188.3350  177.9530  139.5920 C   0  0  0  0  0  0  0  0  0  0  0  0
  183.3170  177.8450  137.7300 C   0  0  0  0  0  0  0  0  0  0  0  0
  181.9190  178.1350  137.6530 N   0  0  0  0  0  2  0  0  0  0  0  0
  184.0610  178.0100  136.7270 O   0  0  0  0  0  0  0  0  0  0  0  0
  181.3070  178.7850  136.5010 C   0  0  2  0  0  3  0  0  0  0  0  0
  179.6240  179.5060  138.0800 O   0  0  0  0  0  1  0  0  0  0  0  0
  180.3530  179.9000  136.9540 C   0  0  1  0  0  3  0  0  0  0  0  0
  181.0870  181.2240  137.2170 C   0  0  2  0  0  3  0  0  0  0  0  0
  182.9780  181.3150  138.7190 O   0  0  0  0  0  1  0  0  0  0  0  0
  181.5840  181.3680  138.6570 C   0  0  0  0  0  2  0  0  0  0  0  0
  180.2530  182.4320  136.7970 C   0  0  0  0  0  2  0  0  0  0  0  0
  180.8400  184.6020  135.7120 C   0  0  0  0  0  1  0  0  0  0  0  0
  180.8230  183.0940  135.5530 C   0  0  0  0  0  2  0  0  0  0  0  0
  180.5800  177.7400  135.6590 C   0  0  0  0  0  2  0  0  0  0  0  0
  181.4250  177.2240  134.6730 O   0  0  0  0  0  1  0  0  0  0  0  0
  187.5660  179.3800  136.0990 C   0  0  0  0  0  1  0  0  0  0  0  0
  188.3680  178.6610  137.1690 C   0  0  0  0  0  2  0  0  0  0  0  0
  189.7720  175.5890  143.1880 N   0  0  0  0  0  2  0  0  0  0  0  0
  191.0520  176.1880  143.5180 C   0  0  0  0  0  2  0  0  0  0  0  0
  191.8000  175.2840  144.4770 C   0  0  0  0  0  2  0  0  0  0  0  0
  192.0110  175.9890  145.7700 C   0  0  0  0  0  0  0  0  0  0  0  0
  192.1820  175.3260  146.8270 O   0  0  0  0  0  1  0  0  0  0  0  0
  192.0510  177.3770  145.8090 O   0  0  0  0  0  0  0  0  0  0  0  0
  2 42  1  6  0  0  0
  2 13  1  0  0  0  0
  3 14  1  0  0  0  0
  4  3  1  6  0  0  0
  4 21  1  0  0  0  0
  5 11  1  1  0  0  0
  5  4  1  0  0  0  0
  6 23  2  0  0  0  0
  6 15  1  0  0  0  0
  7 26  1  6  0  0  0
  7 17  1  0  0  0  0
  7  9  1  0  0  0  0
  8 10  2  0  0  0  0
  9 18  1  0  0  0  0
 10 12  1  0  0  0  0
 10 17  1  0  0  0  0
 11 18  1  0  0  0  0
 12 41  1  6  0  0  0
 12 25  1  0  0  0  0
 13 23  1  0  0  0  0
 14  2  1  0  0  0  0
 15 20  2  0  0  0  0
 16 14  1  0  0  0  0
 17  5  1  0  0  0  0
 19 25  1  0  0  0  0
 19 16  2  0  0  0  0
 20  1  1  0  0  0  0
 21 22  1  0  0  0  0
 22  6  1  0  0  0  0
 23 24  1  0  0  0  0
 24  1  2  0  0  0  0
 25  3  2  0  0  0  0
 27 26  1  0  0  0  0
 28 26  2  0  0  0  0
 29 38  1  1  0  0  0
 29 31  1  0  0  0  0
 29 27  1  0  0  0  0
 31 32  1  0  0  0  0
 31 30  1  1  0  0  0
 32 35  1  1  0  0  0
 32 34  1  0  0  0  0
 34 33  1  0  0  0  0
 37 36  1  0  0  0  0
 37 35  1  0  0  0  0
 39 38  1  0  0  0  0
 40 41  1  0  0  0  0
 42 43  1  0  0  0  0
 43 44  1  0  0  0  0
 44 45  1  0  0  0  0
 45 47  2  0  0  0  0
 45 46  1  0  0  0  0
M  END
>  <MODEL>
4

>  <REMARK>
 VINA RESULT:      -6.1      5.246      8.057
  Name = 
  13 active torsions:
  status: ('A' for Active; 'I' for Inactive)
    1  A    between atoms: C_2  and  N_17
    2  A    between atoms: C_6  and  C_39
    3  A    between atoms: CA_12  and  C_31
    4  A    between atoms: CA_12  and  N_34
    5  A    between atoms: CA_12  and  C_35
    6  A    between atoms: C_14  and  C_22
    7  A    between atoms: C_15  and  C_29
    8  A    between atoms: C_16  and  C_27
    9  A    between atoms: N_17  and  C_26
   10  A    between atoms: C_23  and  C_40
   11  A    between atoms: C_26  and  C_39
   12  A    between atoms: C_27  and  C_31
   13  A    between atoms: C_27  and  C_40
                            x       y       z     vdW  Elec       q    Type
                         _______ _______ _______ _____ _____    ______ ____

>  <TORSDO>
F 13

$$$$
=
 OpenBabel11032420473D

 47 51  0  0  1  0  0  0  0  0999 V2000
  188.5640  178.0910  147.7300 C   0  0  0  0  0  3  0  0  0  0  0  0
  189.0240  176.6860  143.1600 C   0  0  1  0  0  3  0  0  0  0  0  0
  188.0020  177.7530  141.1340 C   0  0  0  0  0  0  0  0  0  0  0  0
  186.6320  178.0050  141.7440 C   0  0  2  0  0  3  0  0  0  0  0  0
  185.6420  178.7800  140.8480 C   0  0  2  0  0  3  0  0  0  0  0  0
  187.1730  177.9380  145.2970 C   0  0  0  0  0  0  0  0  0  0  0  0
  183.9780  177.4980  139.3780 C   0  0  2  0  0  3  0  0  0  0  0  0
  186.1830  177.1210  137.6330 O   0  0  0  0  0  0  0  0  0  0  0  0
  183.0480  177.7840  140.5580 C   0  0  0  0  0  2  0  0  0  0  0  0
  186.3430  177.9210  138.5970 C   0  0  0  0  0  0  0  0  0  0  0  0
  184.4570  179.0910  141.5540 O   0  0  0  0  0  0  0  0  0  0  0  0
  187.6320  178.6740  138.7510 C   0  0  1  0  0  3  0  0  0  0  0  0
  189.4200  177.8410  144.0630 C   0  0  0  0  0  2  0  0  0  0  0  0
  189.0200  177.1310  141.7690 N   0  0  0  0  0  0  0  0  0  0  0  0
  186.4790  178.0470  146.5080 C   0  0  0  0  0  3  0  0  0  0  0  0
  190.0730  177.0600  140.9700 N   0  0  0  0  0  0  0  0  0  0  0  0
  185.3240  178.0580  139.6020 N   0  0  0  0  0  0  0  0  0  0  0  0
  183.8050  177.9490  141.7240 O   0  0  0  0  0  0  0  0  0  0  0  0
  189.7480  177.6000  139.7780 C   0  0  0  0  0  3  0  0  0  0  0  0
  187.1690  178.1280  147.7190 C   0  0  0  0  0  3  0  0  0  0  0  0
  186.7800  178.7030  143.0160 N   0  0  0  0  0  2  0  0  0  0  0  0
  186.3580  177.7720  144.0500 C   0  0  0  0  0  2  0  0  0  0  0  0
  188.5900  177.8850  145.3110 C   0  0  0  0  0  0  0  0  0  0  0  0
  189.2690  177.9740  146.5310 C   0  0  0  0  0  3  0  0  0  0  0  0
  188.4350  178.0420  139.8480 C   0  0  0  0  0  0  0  0  0  0  0  0
  183.3630  178.0610  138.1350 C   0  0  0  0  0  0  0  0  0  0  0  0
  183.0920  177.2040  137.0230 N   0  0  0  0  0  2  0  0  0  0  0  0
  183.1050  179.2920  138.0730 O   0  0  0  0  0  0  0  0  0  0  0  0
  182.3600  177.6460  135.8420 C   0  0  2  0  0  3  0  0  0  0  0  0
  180.2090  177.5160  134.7450 O   0  0  0  0  0  1  0  0  0  0  0  0
  180.8820  177.2400  135.9390 C   0  0  1  0  0  3  0  0  0  0  0  0
  180.7090  175.7650  136.3330 C   0  0  2  0  0  3  0  0  0  0  0  0
  180.7210  174.0600  134.6190 O   0  0  0  0  0  1  0  0  0  0  0  0
  179.9040  174.9540  135.3140 C   0  0  0  0  0  2  0  0  0  0  0  0
  180.1330  175.6140  137.7390 C   0  0  0  0  0  2  0  0  0  0  0  0
  179.4260  176.8510  139.7880 C   0  0  0  0  0  1  0  0  0  0  0  0
  179.6690  176.9500  138.2950 C   0  0  0  0  0  2  0  0  0  0  0  0
  183.0160  177.0630  134.5940 C   0  0  0  0  0  2  0  0  0  0  0  0
  184.0610  176.2020  134.9400 O   0  0  0  0  0  1  0  0  0  0  0  0
  187.5290  179.4140  136.3650 C   0  0  0  0  0  1  0  0  0  0  0  0
  188.4090  178.8060  137.4420 C   0  0  0  0  0  2  0  0  0  0  0  0
  189.9370  175.5690  143.3440 N   0  0  0  0  0  2  0  0  0  0  0  0
  191.2320  176.1390  143.6660 C   0  0  0  0  0  2  0  0  0  0  0  0
  191.9570  175.2270  144.6370 C   0  0  0  0  0  2  0  0  0  0  0  0
  192.0400  175.8780  145.9710 C   0  0  0  0  0  0  0  0  0  0  0  0
  192.0430  177.1340  146.0600 O   0  0  0  0  0  0  0  0  0  0  0  0
  192.0820  175.1030  147.1240 O   0  0  0  0  0  1  0  0  0  0  0  0
  2 42  1  6  0  0  0
  2 13  1  0  0  0  0
  3 14  1  0  0  0  0
  4  3  1  6  0  0  0
  4 21  1  0  0  0  0
  5 11  1  1  0  0  0
  5  4  1  0  0  0  0
  6 23  2  0  0  0  0
  6 15  1  0  0  0  0
  7 26  1  6  0  0  0
  7 17  1  0  0  0  0
  7  9  1  0  0  0  0
  8 10  2  0  0  0  0
  9 18  1  0  0  0  0
 10 12  1  0  0  0  0
 10 17  1  0  0  0  0
 11 18  1  0  0  0  0
 12 41  1  6  0  0  0
 12 25  1  0  0  0  0
 13 23  1  0  0  0  0
 14  2  1  0  0  0  0
 15 20  2  0  0  0  0
 16 14  1  0  0  0  0
 17  5  1  0  0  0  0
 19 25  1  0  0  0  0
 19 16  2  0  0  0  0
 20  1  1  0  0  0  0
 21 22  1  0  0  0  0
 22  6  1  0  0  0  0
 23 24  1  0  0  0  0
 24  1  2  0  0  0  0
 25  3  2  0  0  0  0
 27 26  1  0  0  0  0
 28 26  2  0  0  0  0
 29 38  1  6  0  0  0
 29 31  1  0  0  0  0
 29 27  1  0  0  0  0
 31 30  1  6  0  0  0
 31 32  1  0  0  0  0
 32 34  1  6  0  0  0
 32 35  1  0  0  0  0
 33 34  1  0  0  0  0
 35 37  1  0  0  0  0
 37 36  1  0  0  0  0
 38 39  1  0  0  0  0
 40 41  1  0  0  0  0
 42 43  1  0  0  0  0
 43 44  1  0  0  0  0
 44 45  1  0  0  0  0
 45 46  2  0  0  0  0
 45 47  1  0  0  0  0
M  END
>  <MODEL>
5

>  <REMARK>
 VINA RESULT:      -6.0      5.319      8.092
  Name = 
  13 active torsions:
  status: ('A' for Active; 'I' for Inactive)
    1  A    between atoms: C_2  and  N_17
    2  A    between atoms: C_6  and  C_39
    3  A    between atoms: CA_12  and  C_31
    4  A    between atoms: CA_12  and  N_34
    5  A    between atoms: CA_12  and  C_35
    6  A    between atoms: C_14  and  C_22
    7  A    between atoms: C_15  and  C_29
    8  A    between atoms: C_16  and  C_27
    9  A    between atoms: N_17  and  C_26
   10  A    between atoms: C_23  and  C_40
   11  A    between atoms: C_26  and  C_39
   12  A    between atoms: C_27  and  C_31
   13  A    between atoms: C_27  and  C_40
                            x       y       z     vdW  Elec       q    Type
                         _______ _______ _______ _____ _____    ______ ____

>  <TORSDO>
F 13

$$$$
=
 OpenBabel11032420473D

 47 51  0  0  1  0  0  0  0  0999 V2000
  194.4350  170.9820  135.3680 C   0  0  0  0  0  3  0  0  0  0  0  0
  193.3550  175.3230  137.1180 C   0  0  1  0  0  3  0  0  0  0  0  0
  191.2300  176.0160  138.2550 C   0  0  0  0  0  0  0  0  0  0  0  0
  190.2840  175.2930  137.3070 C   0  0  2  0  0  3  0  0  0  0  0  0
  188.7900  175.3540  137.6910 C   0  0  2  0  0  3  0  0  0  0  0  0
  192.3010  172.7670  135.7330 C   0  0  0  0  0  0  0  0  0  0  0  0
  187.2870  177.1720  136.6850 C   0  0  2  0  0  3  0  0  0  0  0  0
  188.4650  178.8760  138.6240 O   0  0  0  0  0  0  0  0  0  0  0  0
  186.9350  176.0420  135.7170 C   0  0  0  0  0  2  0  0  0  0  0  0
  188.7080  177.6410  138.7210 C   0  0  0  0  0  0  0  0  0  0  0  0
  188.0150  174.5360  136.8370 O   0  0  0  0  0  0  0  0  0  0  0  0
  189.5350  177.1190  139.8590 C   0  0  1  0  0  3  0  0  0  0  0  0
  193.6270  173.9110  137.6080 C   0  0  0  0  0  2  0  0  0  0  0  0
  192.5740  176.0450  138.1190 N   0  0  0  0  0  0  0  0  0  0  0  0
  192.2220  171.7520  134.7730 C   0  0  0  0  0  3  0  0  0  0  0  0
  193.1100  176.7610  139.0960 N   0  0  0  0  0  0  0  0  0  0  0  0
  188.2650  176.7330  137.6990 N   0  0  0  0  0  0  0  0  0  0  0  0
  187.9970  175.1320  135.6530 O   0  0  0  0  0  0  0  0  0  0  0  0
  192.1170  177.2480  139.8680 C   0  0  0  0  0  3  0  0  0  0  0  0
  193.2810  170.8600  134.5940 C   0  0  0  0  0  3  0  0  0  0  0  0
  190.6910  173.9000  137.1730 N   0  0  0  0  0  2  0  0  0  0  0  0
  191.1570  173.7350  135.8050 C   0  0  0  0  0  2  0  0  0  0  0  0
  193.4800  172.9020  136.5090 C   0  0  0  0  0  0  0  0  0  0  0  0
  194.5310  171.9960  136.3230 C   0  0  0  0  0  3  0  0  0  0  0  0
  190.9100  176.7990  139.3540 C   0  0  0  0  0  0  0  0  0  0  0  0
  186.0290  177.6600  137.3310 C   0  0  0  0  0  0  0  0  0  0  0  0
  184.8810  176.8090  137.3930 N   0  0  0  0  0  2  0  0  0  0  0  0
  185.9860  178.8270  137.8020 O   0  0  0  0  0  0  0  0  0  0  0  0
  183.6760  177.1570  138.1360 C   0  0  2  0  0  3  0  0  0  0  0  0
  182.3550  176.1880  139.9140 O   0  0  0  0  0  1  0  0  0  0  0  0
  183.0190  175.8970  138.7190 C   0  0  1  0  0  3  0  0  0  0  0  0
  182.0670  175.2210  137.7190 C   0  0  2  0  0  3  0  0  0  0  0  0
  179.7770  175.9790  137.8610 O   0  0  0  0  0  1  0  0  0  0  0  0
  180.6640  174.9850  138.2800 C   0  0  0  0  0  2  0  0  0  0  0  0
  182.6590  173.9340  137.1500 C   0  0  0  0  0  2  0  0  0  0  0  0
  181.3740  171.9470  136.3570 C   0  0  0  0  0  1  0  0  0  0  0  0
  181.7920  173.3680  136.0370 C   0  0  0  0  0  2  0  0  0  0  0  0
  182.7170  177.9100  137.2180 C   0  0  0  0  0  2  0  0  0  0  0  0
  182.1130  178.9710  137.8960 O   0  0  0  0  0  1  0  0  0  0  0  0
  188.3130  177.8180  141.9260 C   0  0  0  0  0  1  0  0  0  0  0  0
  189.5450  178.0510  141.0700 C   0  0  0  0  0  2  0  0  0  0  0  0
  194.6070  176.0100  136.8440 N   0  0  0  0  0  2  0  0  0  0  0  0
  194.6820  176.1820  135.4050 C   0  0  0  0  0  2  0  0  0  0  0  0
  195.8870  175.4340  134.8700 C   0  0  0  0  0  2  0  0  0  0  0  0
  197.1250  175.9500  135.5130 C   0  0  0  0  0  0  0  0  0  0  0  0
  197.3380  177.1890  135.5650 O   0  0  0  0  0  0  0  0  0  0  0  0
  198.0330  175.0660  136.0850 O   0  0  0  0  0  1  0  0  0  0  0  0
  1 24  1  0  0  0  0
  2 42  1  1  0  0  0
  2 13  1  0  0  0  0
  2 14  1  0  0  0  0
  3 25  2  0  0  0  0
  4 21  1  1  0  0  0
  4  5  1  0  0  0  0
  4  3  1  0  0  0  0
  5 11  1  6  0  0  0
  5 17  1  0  0  0  0
  6 22  1  0  0  0  0
  6 23  1  0  0  0  0
  7 26  1  1  0  0  0
  7 17  1  0  0  0  0
  8 10  2  0  0  0  0
  9  7  1  0  0  0  0
 10 12  1  0  0  0  0
 12 41  1  1  0  0  0
 14  3  1  0  0  0  0
 14 16  1  0  0  0  0
 15  6  2  0  0  0  0
 16 19  2  0  0  0  0
 17 10  1  0  0  0  0
 18  9  1  0  0  0  0
 18 11  1  0  0  0  0
 20 15  1  0  0  0  0
 20  1  2  0  0  0  0
 22 21  1  0  0  0  0
 23 13  1  0  0  0  0
 24 23  2  0  0  0  0
 25 12  1  0  0  0  0
 25 19  1  0  0  0  0
 26 27  1  0  0  0  0
 26 28  2  0  0  0  0
 27 29  1  0  0  0  0
 29 38  1  6  0  0  0
 29 31  1  0  0  0  0
 31 30  1  1  0  0  0
 32 35  1  1  0  0  0
 32 34  1  0  0  0  0
 32 31  1  0  0  0  0
 33 34  1  0  0  0  0
 37 36  1  0  0  0  0
 37 35  1  0  0  0  0
 38 39  1  0  0  0  0
 41 40  1  0  0  0  0
 43 42  1  0  0  0  0
 44 43  1  0  0  0  0
 44 45  1  0  0  0  0
 45 46  2  0  0  0  0
 45 47  1  0  0  0  0
M  END
>  <MODEL>
6

>  <REMARK>
 VINA RESULT:      -5.7      1.713      2.892
  Name = 
  13 active torsions:
  status: ('A' for Active; 'I' for Inactive)
    1  A    between atoms: C_2  and  N_17
    2  A    between atoms: C_6  and  C_39
    3  A    between atoms: CA_12  and  C_31
    4  A    between atoms: CA_12  and  N_34
    5  A    between atoms: CA_12  and  C_35
    6  A    between atoms: C_14  and  C_22
    7  A    between atoms: C_15  and  C_29
    8  A    between atoms: C_16  and  C_27
    9  A    between atoms: N_17  and  C_26
   10  A    between atoms: C_23  and  C_40
   11  A    between atoms: C_26  and  C_39
   12  A    between atoms: C_27  and  C_31
   13  A    between atoms: C_27  and  C_40
                            x       y       z     vdW  Elec       q    Type
                         _______ _______ _______ _____ _____    ______ ____

>  <TORSDO>
F 13

$$$$
=
 OpenBabel11032420473D

 47 51  0  0  1  0  0  0  0  0999 V2000
  187.3730  177.5060  146.3600 C   0  0  0  0  0  3  0  0  0  0  0  0
  187.1720  178.6900  141.7090 C   0  0  1  0  0  3  0  0  0  0  0  0
  188.2080  177.4620  139.7840 C   0  0  0  0  0  0  0  0  0  0  0  0
  189.5370  177.1670  140.4630 C   0  0  2  0  0  3  0  0  0  0  0  0
  190.5150  176.2920  139.6490 C   0  0  2  0  0  3  0  0  0  0  0  0
  188.8640  177.4520  143.9820 C   0  0  0  0  0  0  0  0  0  0  0  0
  192.3060  177.4000  138.1870 C   0  0  2  0  0  3  0  0  0  0  0  0
  190.1950  177.8050  136.3340 O   0  0  0  0  0  0  0  0  0  0  0  0
  193.1720  177.1270  139.4170 C   0  0  0  0  0  2  0  0  0  0  0  0
  189.9520  177.0670  137.3300 C   0  0  0  0  0  0  0  0  0  0  0  0
  191.6520  175.9550  140.4190 O   0  0  0  0  0  0  0  0  0  0  0  0
  188.6170  176.3960  137.4690 C   0  0  1  0  0  3  0  0  0  0  0  0
  186.6750  177.6070  142.6520 C   0  0  0  0  0  2  0  0  0  0  0  0
  187.2040  178.1710  140.3440 N   0  0  0  0  0  0  0  0  0  0  0  0
  189.5030  177.3700  145.2250 C   0  0  0  0  0  3  0  0  0  0  0  0
  186.1880  178.2580  139.4990 N   0  0  0  0  0  0  0  0  0  0  0  0
  190.9220  176.9280  138.3820 N   0  0  0  0  0  0  0  0  0  0  0  0
  192.3610  177.0670  140.5570 O   0  0  0  0  0  0  0  0  0  0  0  0
  186.5280  177.6380  138.3500 C   0  0  0  0  0  3  0  0  0  0  0  0
  188.7630  177.3920  146.4090 C   0  0  0  0  0  3  0  0  0  0  0  0
  189.3010  176.5470  141.7610 N   0  0  0  0  0  2  0  0  0  0  0  0
  189.7350  177.5080  142.7630 C   0  0  0  0  0  2  0  0  0  0  0  0
  187.4520  177.5850  143.9340 C   0  0  0  0  0  0  0  0  0  0  0  0
  186.7230  177.5980  145.1280 C   0  0  0  0  0  3  0  0  0  0  0  0
  187.8090  177.1290  138.4970 C   0  0  0  0  0  0  0  0  0  0  0  0
  192.9340  176.7400  137.0000 C   0  0  0  0  0  0  0  0  0  0  0  0
  194.3070  176.9920  136.6870 N   0  0  0  0  0  2  0  0  0  0  0  0
  192.2420  175.9780  136.2750 O   0  0  0  0  0  0  0  0  0  0  0  0
  195.0260  176.2720  135.6430 C   0  0  2  0  0  3  0  0  0  0  0  0
  197.2450  175.8220  136.4910 O   0  0  0  0  0  1  0  0  0  0  0  0
  195.9920  175.2490  136.2590 C   0  0  1  0  0  3  0  0  0  0  0  0
  195.4330  174.6230  137.5470 C   0  0  2  0  0  3  0  0  0  0  0  0
  196.1950  174.9760  139.8140 O   0  0  0  0  0  1  0  0  0  0  0  0
  196.5050  174.3500  138.6050 C   0  0  0  0  0  2  0  0  0  0  0  0
  194.6070  173.3720  137.2610 C   0  0  0  0  0  2  0  0  0  0  0  0
  194.5680  171.1500  136.1240 C   0  0  0  0  0  1  0  0  0  0  0  0
  195.2870  172.4800  136.2350 C   0  0  0  0  0  2  0  0  0  0  0  0
  195.7660  177.2720  134.7590 C   0  0  0  0  0  2  0  0  0  0  0  0
  195.7660  178.5420  135.3420 O   0  0  0  0  0  1  0  0  0  0  0  0
  188.5010  175.1110  135.3260 C   0  0  0  0  0  1  0  0  0  0  0  0
  187.8850  176.2370  136.1370 C   0  0  0  0  0  2  0  0  0  0  0  0
  186.3170  179.8630  141.7970 N   0  0  0  0  0  2  0  0  0  0  0  0
  185.0260  179.4030  142.2750 C   0  0  0  0  0  2  0  0  0  0  0  0
  184.8450  179.8230  143.7200 C   0  0  0  0  0  2  0  0  0  0  0  0
  183.5460  179.3100  144.2330 C   0  0  0  0  0  0  0  0  0  0  0  0
  183.2910  179.3630  145.4650 O   0  0  0  0  0  1  0  0  0  0  0  0
  182.6000  178.8010  143.3510 O   0  0  0  0  0  0  0  0  0  0  0  0
  1 20  1  0  0  0  0
  2 42  1  6  0  0  0
  2 13  1  0  0  0  0
  3 14  1  0  0  0  0
  4  3  1  6  0  0  0
  4 21  1  0  0  0  0
  5 11  1  1  0  0  0
  5  4  1  0  0  0  0
  6 15  1  0  0  0  0
  7 26  1  6  0  0  0
  7 17  1  0  0  0  0
  7  9  1  0  0  0  0
  8 10  2  0  0  0  0
  9 18  1  0  0  0  0
 10 12  1  0  0  0  0
 10 17  1  0  0  0  0
 11 18  1  0  0  0  0
 12 41  1  6  0  0  0
 12 25  1  0  0  0  0
 13 23  1  0  0  0  0
 14  2  1  0  0  0  0
 15 20  2  0  0  0  0
 16 14  1  0  0  0  0
 17  5  1  0  0  0  0
 19 25  1  0  0  0  0
 19 16  2  0  0  0  0
 21 22  1  0  0  0  0
 22  6  1  0  0  0  0
 23  6  2  0  0  0  0
 23 24  1  0  0  0  0
 24  1  2  0  0  0  0
 25  3  2  0  0  0  0
 27 26  1  0  0  0  0
 28 26  2  0  0  0  0
 29 38  1  1  0  0  0
 29 31  1  0  0  0  0
 29 27  1  0  0  0  0
 31 30  1  1  0  0  0
 31 32  1  0  0  0  0
 32 35  1  6  0  0  0
 32 34  1  0  0  0  0
 34 33  1  0  0  0  0
 36 37  1  0  0  0  0
 37 35  1  0  0  0  0
 38 39  1  0  0  0  0
 40 41  1  0  0  0  0
 42 43  1  0  0  0  0
 43 44  1  0  0  0  0
 44 45  1  0  0  0  0
 45 46  1  0  0  0  0
 47 45  2  0  0  0  0
M  END
>  <MODEL>
7

>  <REMARK>
 VINA RESULT:      -5.6      2.833     10.464
  Name = 
  13 active torsions:
  status: ('A' for Active; 'I' for Inactive)
    1  A    between atoms: C_2  and  N_17
    2  A    between atoms: C_6  and  C_39
    3  A    between atoms: CA_12  and  C_31
    4  A    between atoms: CA_12  and  N_34
    5  A    between atoms: CA_12  and  C_35
    6  A    between atoms: C_14  and  C_22
    7  A    between atoms: C_15  and  C_29
    8  A    between atoms: C_16  and  C_27
    9  A    between atoms: N_17  and  C_26
   10  A    between atoms: C_23  and  C_40
   11  A    between atoms: C_26  and  C_39
   12  A    between atoms: C_27  and  C_31
   13  A    between atoms: C_27  and  C_40
                            x       y       z     vdW  Elec       q    Type
                         _______ _______ _______ _____ _____    ______ ____

>  <TORSDO>
F 13

$$$$
=
 OpenBabel11032420473D

 47 51  0  0  1  0  0  0  0  0999 V2000
  189.7630  176.9690  144.2490 C   0  0  0  0  0  3  0  0  0  0  0  0
  185.4280  179.0150  144.5540 C   0  0  1  0  0  3  0  0  0  0  0  0
  183.5020  178.7340  142.9730 C   0  0  0  0  0  0  0  0  0  0  0  0
  184.3180  178.8100  141.6920 C   0  0  2  0  0  3  0  0  0  0  0  0
  183.5260  178.5720  140.3880 C   0  0  2  0  0  3  0  0  0  0  0  0
  187.6810  178.0160  142.6860 C   0  0  0  0  0  0  0  0  0  0  0  0
  182.5880  180.5690  139.0820 C   0  0  2  0  0  3  0  0  0  0  0  0
  180.5290  180.5670  141.0330 O   0  0  0  0  0  0  0  0  0  0  0  0
  183.8700  180.3660  138.2740 C   0  0  0  0  0  2  0  0  0  0  0  0
  181.3240  179.5860  141.0370 C   0  0  0  0  0  0  0  0  0  0  0  0
  184.3930  178.5180  139.2720 O   0  0  0  0  0  0  0  0  0  0  0  0
  181.1270  178.4530  142.0010 C   0  0  1  0  0  3  0  0  0  0  0  0
  186.0710  177.6420  144.6480 C   0  0  0  0  0  2  0  0  0  0  0  0
  184.0150  178.8710  144.2160 N   0  0  0  0  0  0  0  0  0  0  0  0
  188.9730  177.8980  142.1620 C   0  0  0  0  0  3  0  0  0  0  0  0
  183.0490  178.7620  145.1160 N   0  0  0  0  0  0  0  0  0  0  0  0
  182.4740  179.5830  140.1740 N   0  0  0  0  0  0  0  0  0  0  0  0
  184.8380  179.7510  139.0760 O   0  0  0  0  0  0  0  0  0  0  0  0
  181.8760  178.5920  144.4720 C   0  0  0  0  0  3  0  0  0  0  0  0
  190.0100  177.3730  142.9360 C   0  0  0  0  0  3  0  0  0  0  0  0
  185.4300  177.8690  141.7590 N   0  0  0  0  0  2  0  0  0  0  0  0
  186.6450  178.6670  141.8200 C   0  0  0  0  0  2  0  0  0  0  0  0
  187.4340  177.6200  144.0250 C   0  0  0  0  0  0  0  0  0  0  0  0
  188.4810  177.0890  144.7870 C   0  0  0  0  0  3  0  0  0  0  0  0
  182.1300  178.5780  143.1090 C   0  0  0  0  0  0  0  0  0  0  0  0
  181.4170  180.4780  138.1550 C   0  0  0  0  0  0  0  0  0  0  0  0
  181.0860  179.2290  137.5410 N   0  0  0  0  0  2  0  0  0  0  0  0
  180.7390  181.5110  137.9090 O   0  0  0  0  0  0  0  0  0  0  0  0
  179.8780  179.0300  136.7510 C   0  0  2  0  0  3  0  0  0  0  0  0
  178.9970  177.0070  135.7610 O   0  0  0  0  0  1  0  0  0  0  0  0
  179.3110  177.6200  136.9770 C   0  0  1  0  0  3  0  0  0  0  0  0
  180.2600  176.7370  137.8030 C   0  0  2  0  0  3  0  0  0  0  0  0
  182.3760  176.0360  136.8710 O   0  0  0  0  0  1  0  0  0  0  0  0
  181.0220  175.7110  136.9610 C   0  0  0  0  0  2  0  0  0  0  0  0
  179.5430  176.0700  138.9740 C   0  0  0  0  0  2  0  0  0  0  0  0
  179.6260  173.9090  140.2210 C   0  0  0  0  0  1  0  0  0  0  0  0
  179.5690  174.5550  138.8500 C   0  0  0  0  0  2  0  0  0  0  0  0
  180.1930  179.2720  135.2780 C   0  0  0  0  0  2  0  0  0  0  0  0
  181.5270  178.9630  134.9990 O   0  0  0  0  0  1  0  0  0  0  0  0
  179.1700  176.9280  142.3090 C   0  0  0  0  0  1  0  0  0  0  0  0
  179.6900  178.3400  142.5070 C   0  0  0  0  0  2  0  0  0  0  0  0
  185.5900  179.7320  145.8090 N   0  0  0  0  0  2  0  0  0  0  0  0
  185.8300  178.7320  146.8330 C   0  0  0  0  0  2  0  0  0  0  0  0
  186.8260  179.2710  147.8400 C   0  0  0  0  0  2  0  0  0  0  0  0
  187.8770  178.2520  148.1020 C   0  0  0  0  0  0  0  0  0  0  0  0
  189.0460  178.6150  148.3970 O   0  0  0  0  0  1  0  0  0  0  0  0
  187.5650  176.8990  148.0520 O   0  0  0  0  0  0  0  0  0  0  0  0
  1 24  1  0  0  0  0
  2 13  1  0  0  0  0
  2 42  1  1  0  0  0
  3 25  2  0  0  0  0
  3 14  1  0  0  0  0
  4 21  1  1  0  0  0
  4  3  1  0  0  0  0
  5 11  1  6  0  0  0
  5  4  1  0  0  0  0
  6 23  1  0  0  0  0
  7 26  1  6  0  0  0
  7 17  1  0  0  0  0
  8 10  2  0  0  0  0
  9 18  1  0  0  0  0
  9  7  1  0  0  0  0
 10 12  1  0  0  0  0
 12 41  1  1  0  0  0
 12 25  1  0  0  0  0
 14  2  1  0  0  0  0
 14 16  1  0  0  0  0
 15  6  2  0  0  0  0
 15 20  1  0  0  0  0
 17  5  1  0  0  0  0
 17 10  1  0  0  0  0
 18 11  1  0  0  0  0
 19 16  2  0  0  0  0
 20  1  2  0  0  0  0
 21 22  1  0  0  0  0
 22  6  1  0  0  0  0
 23 13  1  0  0  0  0
 23 24  2  0  0  0  0
 25 19  1  0  0  0  0
 27 26  1  0  0  0  0
 28 26  2  0  0  0  0
 29 38  1  6  0  0  0
 29 31  1  0  0  0  0
 29 27  1  0  0  0  0
 31 30  1  6  0  0  0
 31 32  1  0  0  0  0
 32 34  1  6  0  0  0
 32 35  1  0  0  0  0
 33 34  1  0  0  0  0
 37 35  1  0  0  0  0
 37 36  1  0  0  0  0
 39 38  1  0  0  0  0
 40 41  1  0  0  0  0
 42 43  1  0  0  0  0
 43 44  1  0  0  0  0
 44 45  1  0  0  0  0
 45 46  1  0  0  0  0
 47 45  2  0  0  0  0
M  END
>  <MODEL>
8

>  <REMARK>
 VINA RESULT:      -5.6      7.083      9.813
  Name = 
  13 active torsions:
  status: ('A' for Active; 'I' for Inactive)
    1  A    between atoms: C_2  and  N_17
    2  A    between atoms: C_6  and  C_39
    3  A    between atoms: CA_12  and  C_31
    4  A    between atoms: CA_12  and  N_34
    5  A    between atoms: CA_12  and  C_35
    6  A    between atoms: C_14  and  C_22
    7  A    between atoms: C_15  and  C_29
    8  A    between atoms: C_16  and  C_27
    9  A    between atoms: N_17  and  C_26
   10  A    between atoms: C_23  and  C_40
   11  A    between atoms: C_26  and  C_39
   12  A    between atoms: C_27  and  C_31
   13  A    between atoms: C_27  and  C_40
                            x       y       z     vdW  Elec       q    Type
                         _______ _______ _______ _____ _____    ______ ____

>  <TORSDO>
F 13

$$$$
=
 OpenBabel11032420473D

 47 51  0  0  1  0  0  0  0  0999 V2000
  197.6060  174.1630  136.0450 C   0  0  0  0  0  3  0  0  0  0  0  0
  192.8140  174.0570  135.7400 C   0  0  1  0  0  3  0  0  0  0  0  0
  191.2030  175.8090  136.5310 C   0  0  0  0  0  0  0  0  0  0  0  0
  191.9010  176.1010  137.8510 C   0  0  2  0  0  3  0  0  0  0  0  0
  191.2900  177.2510  138.6800 C   0  0  2  0  0  3  0  0  0  0  0  0
  195.2720  174.9400  137.3960 C   0  0  0  0  0  0  0  0  0  0  0  0
  189.5680  176.7330  140.5070 C   0  0  2  0  0  3  0  0  0  0  0  0
  187.7230  176.5080  138.3640 O   0  0  0  0  0  0  0  0  0  0  0  0
  190.8070  176.8220  141.3990 C   0  0  0  0  0  2  0  0  0  0  0  0
  188.8680  176.9640  138.0900 C   0  0  0  0  0  0  0  0  0  0  0  0
  192.0900  177.5400  139.8100 O   0  0  0  0  0  0  0  0  0  0  0  0
  189.1910  177.4180  136.6970 C   0  0  1  0  0  3  0  0  0  0  0  0
  193.9950  174.8270  135.1730 C   0  0  0  0  0  2  0  0  0  0  0  0
  191.6060  174.8740  135.6430 N   0  0  0  0  0  0  0  0  0  0  0  0
  196.4840  174.8130  138.0850 C   0  0  0  0  0  3  0  0  0  0  0  0
  190.7890  174.8590  134.6020 N   0  0  0  0  0  0  0  0  0  0  0  0
  189.9000  176.9760  139.0910 N   0  0  0  0  0  0  0  0  0  0  0  0
  191.9480  176.5210  140.6470 O   0  0  0  0  0  0  0  0  0  0  0  0
  189.8090  175.7620  134.8100 C   0  0  0  0  0  3  0  0  0  0  0  0
  197.6470  174.4310  137.4130 C   0  0  0  0  0  3  0  0  0  0  0  0
  193.3130  176.3740  137.6130 N   0  0  0  0  0  2  0  0  0  0  0  0
  194.0530  175.2710  138.2030 C   0  0  0  0  0  2  0  0  0  0  0  0
  195.2280  174.6510  136.0080 C   0  0  0  0  0  0  0  0  0  0  0  0
  196.4030  174.2760  135.3470 C   0  0  0  0  0  3  0  0  0  0  0  0
  190.0400  176.3760  136.0310 C   0  0  0  0  0  0  0  0  0  0  0  0
  188.5530  177.7190  140.9960 C   0  0  0  0  0  0  0  0  0  0  0  0
  187.6560  177.3580  142.0490 N   0  0  0  0  0  2  0  0  0  0  0  0
  188.4870  178.8570  140.4610 O   0  0  0  0  0  0  0  0  0  0  0  0
  186.7470  178.3090  142.6770 C   0  0  2  0  0  3  0  0  0  0  0  0
  187.2210  176.9920  144.6480 O   0  0  0  0  0  1  0  0  0  0  0  0
  186.2410  177.7650  144.0210 C   0  0  1  0  0  3  0  0  0  0  0  0
  185.7510  178.8840  144.9540 C   0  0  2  0  0  3  0  0  0  0  0  0
  185.6860  179.4560  147.3010 O   0  0  0  0  0  1  0  0  0  0  0  0
  185.5050  178.4140  146.3890 C   0  0  0  0  0  2  0  0  0  0  0  0
  184.5270  179.6020  144.3900 C   0  0  0  0  0  2  0  0  0  0  0  0
  182.2790  178.5980  143.9770 C   0  0  0  0  0  1  0  0  0  0  0  0
  183.2440  179.1000  145.0330 C   0  0  0  0  0  2  0  0  0  0  0  0
  185.5900  178.6050  141.7260 C   0  0  0  0  0  2  0  0  0  0  0  0
  185.8760  179.7170  140.9300 O   0  0  0  0  0  1  0  0  0  0  0  0
  187.3350  179.0680  136.4120 C   0  0  0  0  0  1  0  0  0  0  0  0
  187.9500  177.7850  135.8840 C   0  0  0  0  0  2  0  0  0  0  0  0
  192.6470  172.7990  135.0300 N   0  0  0  0  0  2  0  0  0  0  0  0
  193.1590  171.7570  135.9010 C   0  0  0  0  0  2  0  0  0  0  0  0
  194.0750  170.8440  135.1110 C   0  0  0  0  0  2  0  0  0  0  0  0
  195.3670  170.6860  135.8290 C   0  0  0  0  0  0  0  0  0  0  0  0
  195.3830  170.2360  137.0040 O   0  0  0  0  0  1  0  0  0  0  0  0
  196.5620  171.0040  135.1930 O   0  0  0  0  0  0  0  0  0  0  0  0
  1 20  1  0  0  0  0
  2 42  1  6  0  0  0
  4  3  1  6  0  0  0
  4  5  1  0  0  0  0
  5 17  1  0  0  0  0
  5 11  1  1  0  0  0
  6 15  1  0  0  0  0
  6 22  1  0  0  0  0
  7 26  1  1  0  0  0
  7  9  1  0  0  0  0
 10  8  2  0  0  0  0
 10 17  1  0  0  0  0
 11 18  1  0  0  0  0
 12 41  1  6  0  0  0
 12 10  1  0  0  0  0
 13  2  1  0  0  0  0
 13 23  1  0  0  0  0
 14  2  1  0  0  0  0
 14  3  1  0  0  0  0
 16 19  2  0  0  0  0
 16 14  1  0  0  0  0
 17  7  1  0  0  0  0
 18  9  1  0  0  0  0
 19 25  1  0  0  0  0
 20 15  2  0  0  0  0
 21  4  1  0  0  0  0
 21 22  1  0  0  0  0
 23  6  2  0  0  0  0
 24 23  1  0  0  0  0
 24  1  2  0  0  0  0
 25  3  2  0  0  0  0
 25 12  1  0  0  0  0
 26 27  1  0  0  0  0
 27 29  1  0  0  0  0
 28 26  2  0  0  0  0
 29 38  1  6  0  0  0
 29 31  1  0  0  0  0
 31 30  1  1  0  0  0
 31 32  1  0  0  0  0
 32 35  1  6  0  0  0
 32 34  1  0  0  0  0
 34 33  1  0  0  0  0
 35 37  1  0  0  0  0
 36 37  1  0  0  0  0
 39 38  1  0  0  0  0
 41 40  1  0  0  0  0
 42 43  1  0  0  0  0
 44 45  1  0  0  0  0
 44 43  1  0  0  0  0
 45 46  1  0  0  0  0
 47 45  2  0  0  0  0
M  END
>  <MODEL>
9

>  <REMARK>
 VINA RESULT:      -5.3      2.649      4.697
  Name = 
  13 active torsions:
  status: ('A' for Active; 'I' for Inactive)
    1  A    between atoms: C_2  and  N_17
    2  A    between atoms: C_6  and  C_39
    3  A    between atoms: CA_12  and  C_31
    4  A    between atoms: CA_12  and  N_34
    5  A    between atoms: CA_12  and  C_35
    6  A    between atoms: C_14  and  C_22
    7  A    between atoms: C_15  and  C_29
    8  A    between atoms: C_16  and  C_27
    9  A    between atoms: N_17  and  C_26
   10  A    between atoms: C_23  and  C_40
   11  A    between atoms: C_26  and  C_39
   12  A    between atoms: C_27  and  C_31
   13  A    between atoms: C_27  and  C_40
                            x       y       z     vdW  Elec       q    Type
                         _______ _______ _______ _____ _____    ______ ____

>  <TORSDO>
F 13

$$$$
