=
 OpenBabel11032421253D

 34 37  0  0  1  0  0  0  0  0999 V2000
  190.3860  176.1420  138.5090 C   0  0  1  0  0  3  0  0  0  0  0  0
  186.0640  177.8510  136.9170 O   0  0  0  0  0  0  0  0  0  0  0  0
  188.4420  175.3530  137.2740 N   0  0  0  0  0  0  0  0  0  0  0  0
  187.1530  175.7230  136.7500 C   0  0  0  0  0  2  0  0  0  0  0  0
  187.0340  177.1480  137.1550 C   0  0  0  0  0  0  0  0  0  0  0  0
  188.2430  177.5980  137.8960 C   0  0  1  0  0  3  0  0  0  0  0  0
  189.0350  176.3250  137.8700 C   0  0  0  0  0  0  0  0  0  0  0  0
  188.9430  178.7150  137.1740 C   0  0  0  0  0  3  0  0  0  0  0  0
  188.8430  179.8750  137.5400 O   0  0  0  0  0  0  0  0  0  0  0  0
  191.4850  176.0380  137.4550 C   0  0  1  0  0  3  0  0  0  0  0  0
  192.6080  176.8090  137.8530 O   0  0  0  0  0  0  0  0  0  0  0  0
  193.7310  176.0510  138.0530 N   0  0  0  0  0  0  0  0  0  0  0  0
  192.0450  174.6140  137.3930 C   0  0  0  0  0  2  0  0  0  0  0  0
  193.4660  174.8180  137.8080 C   0  0  0  0  0  0  0  0  0  0  0  0
  194.7370  172.9930  136.6380 C   0  0  0  0  0  1  0  0  0  0  0  0
  194.5020  173.7420  137.9430 C   0  0  1  0  0  3  0  0  0  0  0  0
  195.7870  174.3000  138.4620 C   0  0  0  0  0  0  0  0  0  0  0  0
  196.7060  174.8470  137.5760 O   0  0  0  0  0  0  0  0  0  0  0  0
  196.0620  174.2510  139.6930 O   0  0  0  0  0  1  0  0  0  0  0  0
  190.6680  177.2520  139.4110 N   0  0  0  0  0  2  0  0  0  0  0  0
  191.8550  177.3630  141.4050 O   0  0  0  0  0  1  0  0  0  0  0  0
  190.8160  176.7080  140.7470 C   0  0  1  0  0  3  0  0  0  0  0  0
  189.5180  176.9040  141.5120 C   0  0  0  0  0  2  0  0  0  0  0  0
  189.5450  176.1240  142.8180 C   0  0  0  0  0  2  0  0  0  0  0  0
  188.3210  176.2630  143.4800 O   0  0  0  0  0  0  0  0  0  0  0  0
  184.7100  178.4610  143.8380 C   0  0  0  0  0  3  0  0  0  0  0  0
  188.2530  177.6150  143.8320 C   0  0  1  0  0  3  0  0  0  0  0  0
  186.3030  178.1100  145.3100 C   0  0  0  0  0  0  0  0  0  0  0  0
  186.8620  177.9850  144.0960 N   0  0  0  0  0  0  0  0  0  0  0  0
  189.1160  177.8660  145.0770 C   0  0  0  0  0  2  0  0  0  0  0  0
  188.4260  177.3200  146.3330 C   0  0  0  0  0  2  0  0  0  0  0  0
  184.9650  178.4260  145.2050 C   0  0  0  0  0  3  0  0  0  0  0  0
  187.0910  178.0310  146.5800 C   0  0  0  0  0  2  0  0  0  0  0  0
  185.9010  178.1790  143.1800 C   0  0  0  0  0  3  0  0  0  0  0  0
  1 20  1  1  0  0  0
  2  5  2  0  0  0  0
  3  7  2  0  0  0  0
  4  5  1  0  0  0  0
  4  3  1  0  0  0  0
  5  6  1  0  0  0  0
  6  8  1  6  0  0  0
  7  6  1  0  0  0  0
  7  1  1  0  0  0  0
  8  9  2  0  0  0  0
 10 11  1  0  0  0  0
 10  1  1  1  0  0  0
 11 12  1  0  0  0  0
 13 10  1  0  0  0  0
 13 14  1  0  0  0  0
 14 16  1  0  0  0  0
 14 12  2  0  0  0  0
 16 15  1  6  0  0  0
 16 17  1  0  0  0  0
 17 19  1  0  0  0  0
 18 17  2  0  0  0  0
 20 22  1  0  0  0  0
 22 21  1  1  0  0  0
 22 23  1  0  0  0  0
 23 24  1  0  0  0  0
 24 25  1  0  0  0  0
 26 32  1  0  0  0  0
 27 25  1  1  0  0  0
 27 29  1  0  0  0  0
 27 30  1  0  0  0  0
 28 33  1  0  0  0  0
 29 28  1  0  0  0  0
 30 31  1  0  0  0  0
 31 33  1  0  0  0  0
 32 28  2  0  0  0  0
 34 26  2  0  0  0  0
 34 29  1  0  0  0  0
M  END
>  <MODEL>
1

>  <REMARK>
 VINA RESULT:      -7.9      0.000      0.000
  Name = 
  11 active torsions:
  status: ('A' for Active; 'I' for Inactive)
    1  A    between atoms: C_2  and  C_25
    2  A    between atoms: C_3  and  O_13
    3  A    between atoms: C_5  and  C_15
    4  A    between atoms: C_5  and  C_30
    5  A    between atoms: N_8  and  C_25
    6  A    between atoms: N_8  and  C_30
    7  A    between atoms: C_9  and  C_33
    8  A    between atoms: O_13  and  C_15
    9  A    between atoms: C_19  and  C_28
   10  A    between atoms: C_25  and  C_31
   11  A    between atoms: C_27  and  C_33
                            x       y       z     vdW  Elec       q    Type
                         _______ _______ _______ _____ _____    ______ ____

>  <TORSDO>
F 11

$$$$
=
 OpenBabel11032421253D

 34 37  0  0  1  0  0  0  0  0999 V2000
  190.5170  176.9560  141.4320 C   0  0  1  0  0  3  0  0  0  0  0  0
  191.6940  175.9020  136.7810 O   0  0  0  0  0  0  0  0  0  0  0  0
  192.3990  177.2180  139.9100 N   0  0  0  0  0  0  0  0  0  0  0  0
  192.8720  176.9720  138.5720 C   0  0  0  0  0  2  0  0  0  0  0  0
  191.7090  176.3000  137.9350 C   0  0  0  0  0  0  0  0  0  0  0  0
  190.5760  176.1680  138.8900 C   0  0  1  0  0  3  0  0  0  0  0  0
  191.1930  176.8130  140.0950 C   0  0  0  0  0  0  0  0  0  0  0  0
  189.3640  176.9140  138.4070 C   0  0  0  0  0  3  0  0  0  0  0  0
  189.4460  178.0460  137.9590 O   0  0  0  0  0  0  0  0  0  0  0  0
  191.5400  177.0270  142.5630 C   0  0  1  0  0  3  0  0  0  0  0  0
  191.4440  178.2810  143.2210 O   0  0  0  0  0  0  0  0  0  0  0  0
  191.0760  178.1680  144.5350 N   0  0  0  0  0  0  0  0  0  0  0  0
  191.1960  176.0260  143.6710 C   0  0  0  0  0  2  0  0  0  0  0  0
  190.9260  176.9260  144.8330 C   0  0  0  0  0  0  0  0  0  0  0  0
  191.6530  176.6120  147.2170 C   0  0  0  0  0  1  0  0  0  0  0  0
  190.5210  176.4830  146.2070 C   0  0  1  0  0  3  0  0  0  0  0  0
  189.3160  177.2340  146.6760 C   0  0  0  0  0  0  0  0  0  0  0  0
  189.3710  177.9440  147.8680 O   0  0  0  0  0  1  0  0  0  0  0  0
  188.2400  177.2010  146.0180 O   0  0  0  0  0  0  0  0  0  0  0  0
  189.6800  178.1500  141.4460 N   0  0  0  0  0  2  0  0  0  0  0  0
  188.0580  176.9720  142.6220 O   0  0  0  0  0  1  0  0  0  0  0  0
  188.2960  177.7170  141.4680 C   0  0  1  0  0  3  0  0  0  0  0  0
  187.3910  178.9380  141.4480 C   0  0  0  0  0  2  0  0  0  0  0  0
  186.1730  178.6850  140.5730 C   0  0  0  0  0  2  0  0  0  0  0  0
  185.0340  179.2300  141.1750 O   0  0  0  0  0  0  0  0  0  0  0  0
  184.6930  178.7480  145.3760 C   0  0  0  0  0  3  0  0  0  0  0  0
  184.4010  178.1480  141.7950 C   0  0  1  0  0  3  0  0  0  0  0  0
  183.1330  178.8360  143.8320 C   0  0  0  0  0  0  0  0  0  0  0  0
  184.2550  178.4190  143.2260 N   0  0  0  0  0  0  0  0  0  0  0  0
  183.0260  177.9200  141.1530 C   0  0  0  0  0  2  0  0  0  0  0  0
  182.0310  178.9940  141.6100 C   0  0  0  0  0  2  0  0  0  0  0  0
  183.3480  179.0370  145.1790 C   0  0  0  0  0  3  0  0  0  0  0  0
  181.8160  178.9350  143.1260 C   0  0  0  0  0  2  0  0  0  0  0  0
  185.2280  178.3740  144.1490 C   0  0  0  0  0  3  0  0  0  0  0  0
  1 20  1  6  0  0  0
  2  5  2  0  0  0  0
  3  7  2  0  0  0  0
  4  3  1  0  0  0  0
  5  4  1  0  0  0  0
  5  6  1  0  0  0  0
  6  8  1  6  0  0  0
  6  7  1  0  0  0  0
  7  1  1  0  0  0  0
  9  8  2  0  0  0  0
 10  1  1  6  0  0  0
 10 11  1  0  0  0  0
 10 13  1  0  0  0  0
 11 12  1  0  0  0  0
 12 14  2  0  0  0  0
 13 14  1  0  0  0  0
 14 16  1  0  0  0  0
 16 17  1  0  0  0  0
 16 15  1  1  0  0  0
 17 18  1  0  0  0  0
 19 17  2  0  0  0  0
 20 22  1  0  0  0  0
 22 21  1  1  0  0  0
 23 22  1  0  0  0  0
 24 25  1  0  0  0  0
 24 23  1  0  0  0  0
 27 25  1  6  0  0  0
 27 29  1  0  0  0  0
 28 32  2  0  0  0  0
 29 28  1  0  0  0  0
 29 34  1  0  0  0  0
 30 31  1  0  0  0  0
 30 27  1  0  0  0  0
 31 33  1  0  0  0  0
 32 26  1  0  0  0  0
 33 28  1  0  0  0  0
 34 26  2  0  0  0  0
M  END
>  <MODEL>
2

>  <REMARK>
 VINA RESULT:      -7.9      2.625      6.159
  Name = 
  11 active torsions:
  status: ('A' for Active; 'I' for Inactive)
    1  A    between atoms: C_2  and  C_25
    2  A    between atoms: C_3  and  O_13
    3  A    between atoms: C_5  and  C_15
    4  A    between atoms: C_5  and  C_30
    5  A    between atoms: N_8  and  C_25
    6  A    between atoms: N_8  and  C_30
    7  A    between atoms: C_9  and  C_33
    8  A    between atoms: O_13  and  C_15
    9  A    between atoms: C_19  and  C_28
   10  A    between atoms: C_25  and  C_31
   11  A    between atoms: C_27  and  C_33
                            x       y       z     vdW  Elec       q    Type
                         _______ _______ _______ _____ _____    ______ ____

>  <TORSDO>
F 11

$$$$
=
 OpenBabel11032421253D

 34 37  0  0  1  0  0  0  0  0999 V2000
  190.3410  176.2170  138.5320 C   0  0  1  0  0  3  0  0  0  0  0  0
  185.9670  177.7630  136.9220 O   0  0  0  0  0  0  0  0  0  0  0  0
  188.3920  175.3280  137.3770 N   0  0  0  0  0  0  0  0  0  0  0  0
  187.0880  175.6470  136.8550 C   0  0  0  0  0  2  0  0  0  0  0  0
  186.9510  177.0910  137.1820 C   0  0  0  0  0  0  0  0  0  0  0  0
  188.1640  177.6010  137.8760 C   0  0  1  0  0  3  0  0  0  0  0  0
  188.9780  176.3410  137.9080 C   0  0  0  0  0  0  0  0  0  0  0  0
  188.8340  178.6870  137.0810 C   0  0  0  0  0  3  0  0  0  0  0  0
  188.9300  179.8260  137.5090 O   0  0  0  0  0  0  0  0  0  0  0  0
  191.4330  176.1580  137.4670 C   0  0  1  0  0  3  0  0  0  0  0  0
  192.5680  176.8920  137.8990 O   0  0  0  0  0  0  0  0  0  0  0  0
  193.6830  176.1120  138.0500 N   0  0  0  0  0  0  0  0  0  0  0  0
  191.9760  174.7320  137.3230 C   0  0  0  0  0  2  0  0  0  0  0  0
  193.4010  174.8970  137.7400 C   0  0  0  0  0  0  0  0  0  0  0  0
  194.6520  173.1320  136.4610 C   0  0  0  0  0  1  0  0  0  0  0  0
  194.4250  173.8030  137.8090 C   0  0  1  0  0  3  0  0  0  0  0  0
  195.7170  174.3150  138.3600 C   0  0  0  0  0  0  0  0  0  0  0  0
  195.9510  174.2540  139.7270 O   0  0  0  0  0  1  0  0  0  0  0  0
  196.5820  174.8330  137.6010 O   0  0  0  0  0  0  0  0  0  0  0  0
  190.5860  177.3390  139.4310 N   0  0  0  0  0  2  0  0  0  0  0  0
  192.0160  177.4150  141.2600 O   0  0  0  0  0  1  0  0  0  0  0  0
  190.8790  176.7970  140.7440 C   0  0  1  0  0  3  0  0  0  0  0  0
  189.6950  177.0470  141.6620 C   0  0  0  0  0  2  0  0  0  0  0  0
  190.1570  177.6650  142.9720 C   0  0  0  0  0  2  0  0  0  0  0  0
  189.0610  178.2000  143.6580 O   0  0  0  0  0  0  0  0  0  0  0  0
  189.4890  177.4990  147.8200 C   0  0  0  0  0  3  0  0  0  0  0  0
  188.4960  177.1150  144.3360 C   0  0  1  0  0  3  0  0  0  0  0  0
  187.6730  177.7460  146.6080 C   0  0  0  0  0  0  0  0  0  0  0  0
  188.6370  177.3120  145.7800 N   0  0  0  0  0  0  0  0  0  0  0  0
  187.0130  176.9880  143.9580 C   0  0  0  0  0  2  0  0  0  0  0  0
  186.1840  178.0800  144.6450 C   0  0  0  0  0  2  0  0  0  0  0  0
  188.1480  177.8620  147.8960 C   0  0  0  0  0  3  0  0  0  0  0  0
  186.2560  177.9460  146.1700 C   0  0  0  0  0  2  0  0  0  0  0  0
  189.7610  177.1700  146.4980 C   0  0  0  0  0  3  0  0  0  0  0  0
  1 20  1  1  0  0  0
  2  5  2  0  0  0  0
  3  7  2  0  0  0  0
  4  5  1  0  0  0  0
  4  3  1  0  0  0  0
  5  6  1  0  0  0  0
  6  8  1  6  0  0  0
  6  7  1  0  0  0  0
  7  1  1  0  0  0  0
  8  9  2  0  0  0  0
 10 11  1  0  0  0  0
 10  1  1  1  0  0  0
 11 12  1  0  0  0  0
 13 10  1  0  0  0  0
 13 14  1  0  0  0  0
 14 16  1  0  0  0  0
 14 12  2  0  0  0  0
 16 15  1  6  0  0  0
 16 17  1  0  0  0  0
 17 18  1  0  0  0  0
 19 17  2  0  0  0  0
 20 22  1  0  0  0  0
 22 21  1  1  0  0  0
 22 23  1  0  0  0  0
 23 24  1  0  0  0  0
 24 25  1  0  0  0  0
 26 32  1  0  0  0  0
 27 25  1  6  0  0  0
 27 29  1  0  0  0  0
 28 32  2  0  0  0  0
 29 34  1  0  0  0  0
 29 28  1  0  0  0  0
 30 27  1  0  0  0  0
 30 31  1  0  0  0  0
 31 33  1  0  0  0  0
 33 28  1  0  0  0  0
 34 26  2  0  0  0  0
M  END
>  <MODEL>
3

>  <REMARK>
 VINA RESULT:      -7.8      0.878      1.946
  Name = 
  11 active torsions:
  status: ('A' for Active; 'I' for Inactive)
    1  A    between atoms: C_2  and  C_25
    2  A    between atoms: C_3  and  O_13
    3  A    between atoms: C_5  and  C_15
    4  A    between atoms: C_5  and  C_30
    5  A    between atoms: N_8  and  C_25
    6  A    between atoms: N_8  and  C_30
    7  A    between atoms: C_9  and  C_33
    8  A    between atoms: O_13  and  C_15
    9  A    between atoms: C_19  and  C_28
   10  A    between atoms: C_25  and  C_31
   11  A    between atoms: C_27  and  C_33
                            x       y       z     vdW  Elec       q    Type
                         _______ _______ _______ _____ _____    ______ ____

>  <TORSDO>
F 11

$$$$
=
 OpenBabel11032421253D

 34 37  0  0  1  0  0  0  0  0999 V2000
  190.1610  177.3430  139.5110 C   0  0  1  0  0  3  0  0  0  0  0  0
  192.1880  175.0190  135.6870 O   0  0  0  0  0  0  0  0  0  0  0  0
  189.6880  175.4540  138.0500 N   0  0  0  0  0  0  0  0  0  0  0  0
  190.1690  174.6820  136.9330 C   0  0  0  0  0  2  0  0  0  0  0  0
  191.4530  175.3550  136.6020 C   0  0  0  0  0  0  0  0  0  0  0  0
  191.7140  176.4960  137.5210 C   0  0  1  0  0  3  0  0  0  0  0  0
  190.4880  176.4040  138.3810 C   0  0  0  0  0  0  0  0  0  0  0  0
  192.9750  176.2850  138.3100 C   0  0  0  0  0  3  0  0  0  0  0  0
  193.5190  177.2040  138.9020 O   0  0  0  0  0  0  0  0  0  0  0  0
  189.3010  178.5080  139.0280 C   0  0  1  0  0  3  0  0  0  0  0  0
  189.3650  178.6010  137.6130 O   0  0  0  0  0  0  0  0  0  0  0  0
  188.1510  178.4020  137.0100 N   0  0  0  0  0  0  0  0  0  0  0  0
  187.8170  178.2340  139.2920 C   0  0  0  0  0  2  0  0  0  0  0  0
  187.2550  178.1940  137.9080 C   0  0  0  0  0  0  0  0  0  0  0  0
  185.5450  176.4710  137.2590 C   0  0  0  0  0  1  0  0  0  0  0  0
  185.8200  177.9390  137.5530 C   0  0  1  0  0  3  0  0  0  0  0  0
  184.9080  178.4370  138.6270 C   0  0  0  0  0  0  0  0  0  0  0  0
  184.9010  179.7880  138.9490 O   0  0  0  0  0  0  0  0  0  0  0  0
  184.1690  177.6400  139.2660 O   0  0  0  0  0  1  0  0  0  0  0  0
  189.4700  176.6250  140.5750 N   0  0  0  0  0  2  0  0  0  0  0  0
  191.3540  177.4770  141.6330 O   0  0  0  0  0  1  0  0  0  0  0  0
  190.4020  176.4610  141.6740 C   0  0  1  0  0  3  0  0  0  0  0  0
  189.6410  176.5220  142.9880 C   0  0  0  0  0  2  0  0  0  0  0  0
  188.5160  177.5420  142.9060 C   0  0  0  0  0  2  0  0  0  0  0  0
  188.3900  178.2100  144.1280 O   0  0  0  0  0  0  0  0  0  0  0  0
  189.3500  177.7130  148.2310 C   0  0  0  0  0  3  0  0  0  0  0  0
  187.7640  177.2920  144.9780 C   0  0  1  0  0  3  0  0  0  0  0  0
  187.4330  178.2080  147.2770 C   0  0  0  0  0  0  0  0  0  0  0  0
  188.1650  177.5520  146.3620 N   0  0  0  0  0  0  0  0  0  0  0  0
  186.2410  177.4130  144.8320 C   0  0  0  0  0  2  0  0  0  0  0  0
  185.7290  178.6790  145.5300 C   0  0  0  0  0  2  0  0  0  0  0  0
  188.1200  178.3170  148.4670 C   0  0  0  0  0  3  0  0  0  0  0  0
  186.0190  178.6330  147.0340 C   0  0  0  0  0  2  0  0  0  0  0  0
  189.3480  177.2550  146.9190 C   0  0  0  0  0  3  0  0  0  0  0  0
  1 20  1  1  0  0  0
  2  5  2  0  0  0  0
  3  7  2  0  0  0  0
  4  3  1  0  0  0  0
  5  4  1  0  0  0  0
  5  6  1  0  0  0  0
  6  8  1  1  0  0  0
  6  7  1  0  0  0  0
  7  1  1  0  0  0  0
  8  9  2  0  0  0  0
 10 13  1  0  0  0  0
 10  1  1  6  0  0  0
 11 10  1  0  0  0  0
 12 11  1  0  0  0  0
 12 14  2  0  0  0  0
 14 13  1  0  0  0  0
 16 15  1  1  0  0  0
 16 14  1  0  0  0  0
 16 17  1  0  0  0  0
 17 18  2  0  0  0  0
 17 19  1  0  0  0  0
 20 22  1  0  0  0  0
 22 21  1  1  0  0  0
 22 23  1  0  0  0  0
 24 23  1  0  0  0  0
 24 25  1  0  0  0  0
 26 32  1  0  0  0  0
 27 25  1  6  0  0  0
 27 29  1  0  0  0  0
 28 32  2  0  0  0  0
 29 34  1  0  0  0  0
 29 28  1  0  0  0  0
 30 27  1  0  0  0  0
 30 31  1  0  0  0  0
 31 33  1  0  0  0  0
 33 28  1  0  0  0  0
 34 26  2  0  0  0  0
M  END
>  <MODEL>
4

>  <REMARK>
 VINA RESULT:      -7.8      2.102      5.651
  Name = 
  11 active torsions:
  status: ('A' for Active; 'I' for Inactive)
    1  A    between atoms: C_2  and  C_25
    2  A    between atoms: C_3  and  O_13
    3  A    between atoms: C_5  and  C_15
    4  A    between atoms: C_5  and  C_30
    5  A    between atoms: N_8  and  C_25
    6  A    between atoms: N_8  and  C_30
    7  A    between atoms: C_9  and  C_33
    8  A    between atoms: O_13  and  C_15
    9  A    between atoms: C_19  and  C_28
   10  A    between atoms: C_25  and  C_31
   11  A    between atoms: C_27  and  C_33
                            x       y       z     vdW  Elec       q    Type
                         _______ _______ _______ _____ _____    ______ ____

>  <TORSDO>
F 11

$$$$
=
 OpenBabel11032421253D

 34 37  0  0  1  0  0  0  0  0999 V2000
  186.4110  177.8240  138.4920 C   0  0  1  0  0  3  0  0  0  0  0  0
  181.6540  178.9410  137.9920 O   0  0  0  0  0  0  0  0  0  0  0  0
  184.8360  179.5240  139.2380 N   0  0  0  0  0  0  0  0  0  0  0  0
  183.4660  179.9640  139.1780 C   0  0  0  0  0  2  0  0  0  0  0  0
  182.8310  178.9350  138.3140 C   0  0  0  0  0  0  0  0  0  0  0  0
  183.8190  177.9080  137.8880 C   0  0  1  0  0  3  0  0  0  0  0  0
  185.0410  178.4420  138.5760 C   0  0  0  0  0  0  0  0  0  0  0  0
  183.4400  176.5420  138.3870 C   0  0  0  0  0  3  0  0  0  0  0  0
  183.0460  176.3660  139.5290 O   0  0  0  0  0  0  0  0  0  0  0  0
  186.8380  177.6240  137.0400 C   0  0  1  0  0  3  0  0  0  0  0  0
  187.9340  178.4740  136.7390 O   0  0  0  0  0  0  0  0  0  0  0  0
  189.0700  177.7840  136.4090 N   0  0  0  0  0  0  0  0  0  0  0  0
  187.4190  176.2210  136.8340 C   0  0  0  0  0  2  0  0  0  0  0  0
  188.8310  176.5210  136.4470 C   0  0  0  0  0  0  0  0  0  0  0  0
  191.1430  176.1320  135.5450 C   0  0  0  0  0  1  0  0  0  0  0  0
  189.8880  175.5040  136.1350 C   0  0  1  0  0  3  0  0  0  0  0  0
  190.2280  174.6980  137.3470 C   0  0  0  0  0  0  0  0  0  0  0  0
  190.8790  175.3050  138.4140 O   0  0  0  0  0  1  0  0  0  0  0  0
  189.9610  173.4660  137.3990 O   0  0  0  0  0  0  0  0  0  0  0  0
  187.3830  178.6640  139.1820 N   0  0  0  0  0  2  0  0  0  0  0  0
  189.5540  178.0820  139.7700 O   0  0  0  0  0  1  0  0  0  0  0  0
  188.2090  177.7990  140.0030 C   0  0  1  0  0  3  0  0  0  0  0  0
  187.8790  178.0360  141.4670 C   0  0  0  0  0  2  0  0  0  0  0  0
  188.4670  176.9310  142.3310 C   0  0  0  0  0  2  0  0  0  0  0  0
  187.7050  176.7820  143.4940 O   0  0  0  0  0  0  0  0  0  0  0  0
  184.5500  178.7020  145.5800 C   0  0  0  0  0  3  0  0  0  0  0  0
  187.8330  178.0000  144.1690 C   0  0  1  0  0  3  0  0  0  0  0  0
  186.5220  178.0470  146.2930 C   0  0  0  0  0  0  0  0  0  0  0  0
  186.6340  178.2470  144.9700 N   0  0  0  0  0  0  0  0  0  0  0  0
  189.0770  177.9610  145.0690 C   0  0  0  0  0  2  0  0  0  0  0  0
  188.8190  177.0980  146.3100 C   0  0  0  0  0  2  0  0  0  0  0  0
  185.2460  178.3360  146.7270 C   0  0  0  0  0  3  0  0  0  0  0  0
  187.6860  177.6820  147.1600 C   0  0  0  0  0  2  0  0  0  0  0  0
  185.4330  178.6320  144.5100 C   0  0  0  0  0  3  0  0  0  0  0  0
  1  7  1  0  0  0  0
  1 20  1  6  0  0  0
  2  5  2  0  0  0  0
  4  3  1  0  0  0  0
  5  4  1  0  0  0  0
  6  5  1  0  0  0  0
  6  8  1  1  0  0  0
  6  7  1  0  0  0  0
  7  3  2  0  0  0  0
  8  9  2  0  0  0  0
 10  1  1  1  0  0  0
 11 10  1  0  0  0  0
 12 14  2  0  0  0  0
 12 11  1  0  0  0  0
 13 10  1  0  0  0  0
 14 13  1  0  0  0  0
 16 15  1  1  0  0  0
 16 14  1  0  0  0  0
 16 17  1  0  0  0  0
 17 19  2  0  0  0  0
 17 18  1  0  0  0  0
 20 22  1  0  0  0  0
 22 21  1  1  0  0  0
 22 23  1  0  0  0  0
 23 24  1  0  0  0  0
 24 25  1  0  0  0  0
 26 32  1  0  0  0  0
 27 25  1  1  0  0  0
 27 29  1  0  0  0  0
 27 30  1  0  0  0  0
 28 32  2  0  0  0  0
 28 33  1  0  0  0  0
 29 28  1  0  0  0  0
 30 31  1  0  0  0  0
 31 33  1  0  0  0  0
 34 29  1  0  0  0  0
 34 26  2  0  0  0  0
M  END
>  <MODEL>
5

>  <REMARK>
 VINA RESULT:      -7.8      2.758      4.197
  Name = 
  11 active torsions:
  status: ('A' for Active; 'I' for Inactive)
    1  A    between atoms: C_2  and  C_25
    2  A    between atoms: C_3  and  O_13
    3  A    between atoms: C_5  and  C_15
    4  A    between atoms: C_5  and  C_30
    5  A    between atoms: N_8  and  C_25
    6  A    between atoms: N_8  and  C_30
    7  A    between atoms: C_9  and  C_33
    8  A    between atoms: O_13  and  C_15
    9  A    between atoms: C_19  and  C_28
   10  A    between atoms: C_25  and  C_31
   11  A    between atoms: C_27  and  C_33
                            x       y       z     vdW  Elec       q    Type
                         _______ _______ _______ _____ _____    ______ ____

>  <TORSDO>
F 11

$$$$
=
 OpenBabel11032421253D

 34 37  0  0  1  0  0  0  0  0999 V2000
  186.5900  177.7770  138.4170 C   0  0  1  0  0  3  0  0  0  0  0  0
  181.8110  178.8240  137.9800 O   0  0  0  0  0  0  0  0  0  0  0  0
  184.9960  179.4420  139.2010 N   0  0  0  0  0  0  0  0  0  0  0  0
  183.6190  179.8610  139.1600 C   0  0  0  0  0  2  0  0  0  0  0  0
  182.9910  178.8320  138.2910 C   0  0  0  0  0  0  0  0  0  0  0  0
  183.9910  177.8270  137.8410 C   0  0  1  0  0  3  0  0  0  0  0  0
  185.2110  178.3720  138.5230 C   0  0  0  0  0  0  0  0  0  0  0  0
  183.6390  176.4490  138.3270 C   0  0  0  0  0  3  0  0  0  0  0  0
  183.9040  175.4530  137.6730 O   0  0  0  0  0  0  0  0  0  0  0  0
  186.9680  177.5170  136.9620 C   0  0  1  0  0  3  0  0  0  0  0  0
  188.0430  178.3650  136.5850 O   0  0  0  0  0  0  0  0  0  0  0  0
  189.1750  177.6740  136.2460 N   0  0  0  0  0  0  0  0  0  0  0  0
  187.5600  176.1130  136.7970 C   0  0  0  0  0  2  0  0  0  0  0  0
  188.9530  176.4110  136.3490 C   0  0  0  0  0  0  0  0  0  0  0  0
  191.2940  176.0250  135.5190 C   0  0  0  0  0  1  0  0  0  0  0  0
  190.0120  175.3930  136.0440 C   0  0  1  0  0  3  0  0  0  0  0  0
  190.3000  174.5480  137.2430 C   0  0  0  0  0  0  0  0  0  0  0  0
  191.1220  175.0410  138.2490 O   0  0  0  0  0  1  0  0  0  0  0  0
  189.8330  173.3800  137.3360 O   0  0  0  0  0  0  0  0  0  0  0  0
  187.5680  178.6670  139.0320 N   0  0  0  0  0  2  0  0  0  0  0  0
  189.6760  177.8330  139.5410 O   0  0  0  0  0  1  0  0  0  0  0  0
  188.3510  177.8830  139.9680 C   0  0  1  0  0  3  0  0  0  0  0  0
  188.2760  178.5260  141.3430 C   0  0  0  0  0  2  0  0  0  0  0  0
  188.9630  177.6510  142.3800 C   0  0  0  0  0  2  0  0  0  0  0  0
  188.7590  178.1800  143.6580 O   0  0  0  0  0  0  0  0  0  0  0  0
  189.6020  177.4740  147.7560 C   0  0  0  0  0  3  0  0  0  0  0  0
  188.2210  177.1250  144.4030 C   0  0  1  0  0  3  0  0  0  0  0  0
  187.6790  177.8010  146.7440 C   0  0  0  0  0  0  0  0  0  0  0  0
  188.5260  177.3190  145.8210 N   0  0  0  0  0  0  0  0  0  0  0  0
  186.7020  177.0650  144.1880 C   0  0  0  0  0  2  0  0  0  0  0  0
  186.0030  178.1960  144.9520 C   0  0  0  0  0  2  0  0  0  0  0  0
  188.2950  177.8980  147.9730 C   0  0  0  0  0  3  0  0  0  0  0  0
  186.2330  178.0640  146.4610 C   0  0  0  0  0  2  0  0  0  0  0  0
  189.7140  177.1280  146.4140 C   0  0  0  0  0  3  0  0  0  0  0  0
  1  7  1  0  0  0  0
  1 20  1  6  0  0  0
  2  5  2  0  0  0  0
  4  3  1  0  0  0  0
  5  4  1  0  0  0  0
  6  5  1  0  0  0  0
  6  8  1  1  0  0  0
  6  7  1  0  0  0  0
  7  3  2  0  0  0  0
  9  8  2  0  0  0  0
 10  1  1  1  0  0  0
 11 10  1  0  0  0  0
 12 14  2  0  0  0  0
 12 11  1  0  0  0  0
 13 10  1  0  0  0  0
 14 13  1  0  0  0  0
 16 15  1  1  0  0  0
 16 14  1  0  0  0  0
 16 17  1  0  0  0  0
 17 19  2  0  0  0  0
 17 18  1  0  0  0  0
 20 22  1  0  0  0  0
 22 21  1  6  0  0  0
 22 23  1  0  0  0  0
 23 24  1  0  0  0  0
 24 25  1  0  0  0  0
 26 32  1  0  0  0  0
 27 25  1  6  0  0  0
 27 29  1  0  0  0  0
 28 32  2  0  0  0  0
 29 34  1  0  0  0  0
 29 28  1  0  0  0  0
 30 27  1  0  0  0  0
 30 31  1  0  0  0  0
 31 33  1  0  0  0  0
 33 28  1  0  0  0  0
 34 26  2  0  0  0  0
M  END
>  <MODEL>
6

>  <REMARK>
 VINA RESULT:      -7.7      2.784      4.448
  Name = 
  11 active torsions:
  status: ('A' for Active; 'I' for Inactive)
    1  A    between atoms: C_2  and  C_25
    2  A    between atoms: C_3  and  O_13
    3  A    between atoms: C_5  and  C_15
    4  A    between atoms: C_5  and  C_30
    5  A    between atoms: N_8  and  C_25
    6  A    between atoms: N_8  and  C_30
    7  A    between atoms: C_9  and  C_33
    8  A    between atoms: O_13  and  C_15
    9  A    between atoms: C_19  and  C_28
   10  A    between atoms: C_25  and  C_31
   11  A    between atoms: C_27  and  C_33
                            x       y       z     vdW  Elec       q    Type
                         _______ _______ _______ _____ _____    ______ ____

>  <TORSDO>
F 11

$$$$
=
 OpenBabel11032421253D

 34 37  0  0  1  0  0  0  0  0999 V2000
  190.2570  177.2350  139.3390 C   0  0  1  0  0  3  0  0  0  0  0  0
  191.9590  174.8140  135.4190 O   0  0  0  0  0  0  0  0  0  0  0  0
  189.7910  175.1940  138.0970 N   0  0  0  0  0  0  0  0  0  0  0  0
  190.1890  174.3840  136.9750 C   0  0  0  0  0  2  0  0  0  0  0  0
  191.3300  175.1510  136.4090 C   0  0  0  0  0  0  0  0  0  0  0  0
  191.5930  176.3830  137.2000 C   0  0  1  0  0  3  0  0  0  0  0  0
  190.5200  176.2420  138.2390 C   0  0  0  0  0  0  0  0  0  0  0  0
  192.9690  176.3650  137.8010 C   0  0  0  0  0  3  0  0  0  0  0  0
  193.9370  176.8020  137.1990 O   0  0  0  0  0  0  0  0  0  0  0  0
  189.2830  178.3180  138.8840 C   0  0  1  0  0  3  0  0  0  0  0  0
  188.4750  177.8260  137.8250 O   0  0  0  0  0  0  0  0  0  0  0  0
  187.1440  177.7810  138.1460 N   0  0  0  0  0  0  0  0  0  0  0  0
  188.2620  178.6290  139.9840 C   0  0  0  0  0  2  0  0  0  0  0  0
  186.9760  178.2210  139.3420 C   0  0  0  0  0  0  0  0  0  0  0  0
  185.6470  178.9820  141.3340 C   0  0  0  0  0  1  0  0  0  0  0  0
  185.6190  178.2910  139.9770 C   0  0  1  0  0  3  0  0  0  0  0  0
  184.6390  178.9620  139.0700 C   0  0  0  0  0  0  0  0  0  0  0  0
  183.8700  178.1950  138.2040 O   0  0  0  0  0  0  0  0  0  0  0  0
  184.5270  180.2190  139.0580 O   0  0  0  0  0  1  0  0  0  0  0  0
  189.7250  176.5530  140.5130 N   0  0  0  0  0  2  0  0  0  0  0  0
  191.7450  177.5050  141.1530 O   0  0  0  0  0  1  0  0  0  0  0  0
  190.6870  176.7090  141.5880 C   0  0  1  0  0  3  0  0  0  0  0  0
  190.0050  177.3640  142.7760 C   0  0  0  0  0  2  0  0  0  0  0  0
  188.6660  176.7000  143.0570 C   0  0  0  0  0  2  0  0  0  0  0  0
  188.5340  176.4560  144.4280 O   0  0  0  0  0  0  0  0  0  0  0  0
  185.1050  178.5860  145.7330 C   0  0  0  0  0  3  0  0  0  0  0  0
  188.5710  177.7210  145.0240 C   0  0  1  0  0  3  0  0  0  0  0  0
  186.8870  177.9550  146.8520 C   0  0  0  0  0  0  0  0  0  0  0  0
  187.2510  178.0490  145.5630 N   0  0  0  0  0  0  0  0  0  0  0  0
  189.6220  177.7310  146.1430 C   0  0  0  0  0  2  0  0  0  0  0  0
  189.1090  176.9710  147.3720 C   0  0  0  0  0  2  0  0  0  0  0  0
  185.5620  178.2980  147.0140 C   0  0  0  0  0  3  0  0  0  0  0  0
  187.8550  177.6370  147.9480 C   0  0  0  0  0  2  0  0  0  0  0  0
  186.1700  178.4180  144.8580 C   0  0  0  0  0  3  0  0  0  0  0  0
  1 20  1  1  0  0  0
  2  5  2  0  0  0  0
  3  7  2  0  0  0  0
  4  3  1  0  0  0  0
  5  4  1  0  0  0  0
  5  6  1  0  0  0  0
  6  8  1  1  0  0  0
  6  7  1  0  0  0  0
  7  1  1  0  0  0  0
  9  8  2  0  0  0  0
 10  1  1  1  0  0  0
 10 13  1  0  0  0  0
 11 12  1  0  0  0  0
 11 10  1  0  0  0  0
 12 14  2  0  0  0  0
 14 16  1  0  0  0  0
 14 13  1  0  0  0  0
 16 15  1  1  0  0  0
 17 16  1  0  0  0  0
 18 17  2  0  0  0  0
 19 17  1  0  0  0  0
 20 22  1  0  0  0  0
 22 21  1  6  0  0  0
 22 23  1  0  0  0  0
 23 24  1  0  0  0  0
 24 25  1  0  0  0  0
 26 32  1  0  0  0  0
 27 25  1  1  0  0  0
 27 29  1  0  0  0  0
 27 30  1  0  0  0  0
 28 32  2  0  0  0  0
 28 33  1  0  0  0  0
 29 28  1  0  0  0  0
 30 31  1  0  0  0  0
 31 33  1  0  0  0  0
 34 29  1  0  0  0  0
 34 26  2  0  0  0  0
M  END
>  <MODEL>
7

>  <REMARK>
 VINA RESULT:      -7.7      2.087      5.672
  Name = 
  11 active torsions:
  status: ('A' for Active; 'I' for Inactive)
    1  A    between atoms: C_2  and  C_25
    2  A    between atoms: C_3  and  O_13
    3  A    between atoms: C_5  and  C_15
    4  A    between atoms: C_5  and  C_30
    5  A    between atoms: N_8  and  C_25
    6  A    between atoms: N_8  and  C_30
    7  A    between atoms: C_9  and  C_33
    8  A    between atoms: O_13  and  C_15
    9  A    between atoms: C_19  and  C_28
   10  A    between atoms: C_25  and  C_31
   11  A    between atoms: C_27  and  C_33
                            x       y       z     vdW  Elec       q    Type
                         _______ _______ _______ _____ _____    ______ ____

>  <TORSDO>
F 11

$$$$
=
 OpenBabel11032421253D

 34 37  0  0  1  0  0  0  0  0999 V2000
  186.3930  177.9640  139.1510 C   0  0  1  0  0  3  0  0  0  0  0  0
  181.9160  179.0740  140.8390 O   0  0  0  0  0  0  0  0  0  0  0  0
  184.6130  179.5690  138.7190 N   0  0  0  0  0  0  0  0  0  0  0  0
  183.2990  180.0010  139.1170 C   0  0  0  0  0  2  0  0  0  0  0  0
  182.9680  179.0640  140.2210 C   0  0  0  0  0  0  0  0  0  0  0  0
  184.0810  178.1070  140.4650 C   0  0  1  0  0  3  0  0  0  0  0  0
  185.0470  178.5820  139.4190 C   0  0  0  0  0  0  0  0  0  0  0  0
  184.6350  178.2520  141.8540 C   0  0  0  0  0  3  0  0  0  0  0  0
  185.0700  179.3180  142.2610 O   0  0  0  0  0  0  0  0  0  0  0  0
  186.7250  177.9920  137.6610 C   0  0  1  0  0  3  0  0  0  0  0  0
  187.7880  178.9010  137.4210 O   0  0  0  0  0  0  0  0  0  0  0  0
  188.9080  178.2930  136.9200 N   0  0  0  0  0  0  0  0  0  0  0  0
  187.3080  176.6480  137.2100 C   0  0  0  0  0  2  0  0  0  0  0  0
  188.6880  177.0340  136.7840 C   0  0  0  0  0  0  0  0  0  0  0  0
  190.3360  176.5800  134.9430 C   0  0  0  0  0  1  0  0  0  0  0  0
  189.7350  176.0990  136.2570 C   0  0  1  0  0  3  0  0  0  0  0  0
  190.8100  175.8730  137.2710 C   0  0  0  0  0  0  0  0  0  0  0  0
  192.0840  176.3770  137.0430 O   0  0  0  0  0  0  0  0  0  0  0  0
  190.5810  175.2030  138.3150 O   0  0  0  0  0  1  0  0  0  0  0  0
  187.4260  178.6670  139.9020 N   0  0  0  0  0  2  0  0  0  0  0  0
  189.6110  177.8830  140.0010 O   0  0  0  0  0  1  0  0  0  0  0  0
  188.3150  177.6700  140.4670 C   0  0  1  0  0  3  0  0  0  0  0  0
  188.2890  177.7790  141.9820 C   0  0  0  0  0  2  0  0  0  0  0  0
  189.5840  177.2510  142.5780 C   0  0  0  0  0  2  0  0  0  0  0  0
  189.3470  176.7500  143.8620 O   0  0  0  0  0  0  0  0  0  0  0  0
  187.3010  177.7340  147.4460 C   0  0  0  0  0  3  0  0  0  0  0  0
  189.7240  177.7830  144.7270 C   0  0  1  0  0  3  0  0  0  0  0  0
  189.4010  177.1730  147.1260 C   0  0  0  0  0  0  0  0  0  0  0  0
  188.9560  177.6890  145.9690 N   0  0  0  0  0  0  0  0  0  0  0  0
  191.2280  177.6840  145.0210 C   0  0  0  0  0  2  0  0  0  0  0  0
  191.5150  176.5290  145.9880 C   0  0  0  0  0  2  0  0  0  0  0  0
  188.4120  177.1960  148.0860 C   0  0  0  0  0  3  0  0  0  0  0  0
  190.8230  176.7560  147.3360 C   0  0  0  0  0  2  0  0  0  0  0  0
  187.6680  178.0230  146.1370 C   0  0  0  0  0  3  0  0  0  0  0  0
  1  7  1  0  0  0  0
  1 20  1  1  0  0  0
  3  4  1  0  0  0  0
  3  7  2  0  0  0  0
  4  5  1  0  0  0  0
  5  6  1  0  0  0  0
  5  2  2  0  0  0  0
  6  8  1  1  0  0  0
  7  6  1  0  0  0  0
  8  9  2  0  0  0  0
 10  1  1  1  0  0  0
 11 10  1  0  0  0  0
 12 11  1  0  0  0  0
 13 10  1  0  0  0  0
 14 12  2  0  0  0  0
 14 13  1  0  0  0  0
 16 15  1  6  0  0  0
 16 14  1  0  0  0  0
 16 17  1  0  0  0  0
 17 19  1  0  0  0  0
 18 17  2  0  0  0  0
 20 22  1  0  0  0  0
 22 21  1  6  0  0  0
 22 23  1  0  0  0  0
 23 24  1  0  0  0  0
 24 25  1  0  0  0  0
 26 32  1  0  0  0  0
 27 25  1  6  0  0  0
 27 30  1  0  0  0  0
 27 29  1  0  0  0  0
 28 33  1  0  0  0  0
 28 32  2  0  0  0  0
 29 34  1  0  0  0  0
 29 28  1  0  0  0  0
 30 31  1  0  0  0  0
 31 33  1  0  0  0  0
 34 26  2  0  0  0  0
M  END
>  <MODEL>
8

>  <REMARK>
 VINA RESULT:      -7.6      2.762      4.585
  Name = 
  11 active torsions:
  status: ('A' for Active; 'I' for Inactive)
    1  A    between atoms: C_2  and  C_25
    2  A    between atoms: C_3  and  O_13
    3  A    between atoms: C_5  and  C_15
    4  A    between atoms: C_5  and  C_30
    5  A    between atoms: N_8  and  C_25
    6  A    between atoms: N_8  and  C_30
    7  A    between atoms: C_9  and  C_33
    8  A    between atoms: O_13  and  C_15
    9  A    between atoms: C_19  and  C_28
   10  A    between atoms: C_25  and  C_31
   11  A    between atoms: C_27  and  C_33
                            x       y       z     vdW  Elec       q    Type
                         _______ _______ _______ _____ _____    ______ ____

>  <TORSDO>
F 11

$$$$
=
 OpenBabel11032421253D

 34 37  0  0  1  0  0  0  0  0999 V2000
  190.4090  176.5330  137.8810 C   0  0  1  0  0  3  0  0  0  0  0  0
  195.1570  175.2770  137.8080 O   0  0  0  0  0  0  0  0  0  0  0  0
  191.7760  174.5350  137.6270 N   0  0  0  0  0  0  0  0  0  0  0  0
  193.1230  174.0300  137.5870 C   0  0  0  0  0  2  0  0  0  0  0  0
  193.9370  175.2570  137.7890 C   0  0  0  0  0  0  0  0  0  0  0  0
  193.0690  176.4550  137.9530 C   0  0  1  0  0  3  0  0  0  0  0  0
  191.7240  175.8030  137.8270 C   0  0  0  0  0  0  0  0  0  0  0  0
  193.2650  177.0930  139.2990 C   0  0  0  0  0  3  0  0  0  0  0  0
  194.2640  176.8800  139.9680 O   0  0  0  0  0  0  0  0  0  0  0  0
  189.4720  176.0650  136.7710 C   0  0  1  0  0  3  0  0  0  0  0  0
  188.5120  175.1630  137.3000 O   0  0  0  0  0  0  0  0  0  0  0  0
  187.2280  175.6280  137.1950 N   0  0  0  0  0  0  0  0  0  0  0  0
  188.6130  177.2260  136.2600 C   0  0  0  0  0  2  0  0  0  0  0  0
  187.2340  176.7780  136.6200 C   0  0  0  0  0  0  0  0  0  0  0  0
  185.0390  176.8260  135.3980 C   0  0  0  0  0  1  0  0  0  0  0  0
  185.9690  177.5430  136.3660 C   0  0  1  0  0  3  0  0  0  0  0  0
  185.2600  177.8420  137.6470 C   0  0  0  0  0  0  0  0  0  0  0  0
  184.2060  177.0340  138.0520 O   0  0  0  0  0  0  0  0  0  0  0  0
  185.5860  178.8400  138.3470 O   0  0  0  0  0  1  0  0  0  0  0  0
  189.7770  176.3330  139.1800 N   0  0  0  0  0  2  0  0  0  0  0  0
  188.4080  178.1310  139.7190 O   0  0  0  0  0  1  0  0  0  0  0  0
  189.7010  177.6240  139.8370 C   0  0  1  0  0  3  0  0  0  0  0  0
  190.0570  177.4580  141.3050 C   0  0  0  0  0  2  0  0  0  0  0  0
  189.0290  178.1520  142.1850 C   0  0  0  0  0  2  0  0  0  0  0  0
  189.5180  178.2630  143.4900 O   0  0  0  0  0  0  0  0  0  0  0  0
  191.3450  176.7740  147.0180 C   0  0  0  0  0  3  0  0  0  0  0  0
  189.1700  177.0580  144.1090 C   0  0  1  0  0  3  0  0  0  0  0  0
  189.2350  177.2220  146.6000 C   0  0  0  0  0  0  0  0  0  0  0  0
  189.8210  176.9730  145.4180 N   0  0  0  0  0  0  0  0  0  0  0  0
  187.6450  176.9830  144.2670 C   0  0  0  0  0  2  0  0  0  0  0  0
  187.1710  177.9060  145.3960 C   0  0  0  0  0  2  0  0  0  0  0  0
  190.1390  177.0920  147.6320 C   0  0  0  0  0  3  0  0  0  0  0  0
  187.7670  177.4790  146.7420 C   0  0  0  0  0  2  0  0  0  0  0  0
  191.1170  176.7120  145.6490 C   0  0  0  0  0  3  0  0  0  0  0  0
  1 20  1  1  0  0  0
  3  7  2  0  0  0  0
  4  3  1  0  0  0  0
  4  5  1  0  0  0  0
  5  2  2  0  0  0  0
  5  6  1  0  0  0  0
  6  8  1  1  0  0  0
  7  1  1  0  0  0  0
  7  6  1  0  0  0  0
  8  9  2  0  0  0  0
 10 11  1  0  0  0  0
 10  1  1  1  0  0  0
 12 11  1  0  0  0  0
 13 14  1  0  0  0  0
 13 10  1  0  0  0  0
 14 12  2  0  0  0  0
 16 15  1  6  0  0  0
 16 14  1  0  0  0  0
 16 17  1  0  0  0  0
 17 18  2  0  0  0  0
 17 19  1  0  0  0  0
 20 22  1  0  0  0  0
 22 21  1  1  0  0  0
 22 23  1  0  0  0  0
 23 24  1  0  0  0  0
 24 25  1  0  0  0  0
 26 32  1  0  0  0  0
 27 25  1  1  0  0  0
 27 30  1  0  0  0  0
 27 29  1  0  0  0  0
 28 33  1  0  0  0  0
 28 32  2  0  0  0  0
 29 34  1  0  0  0  0
 29 28  1  0  0  0  0
 30 31  1  0  0  0  0
 31 33  1  0  0  0  0
 34 26  2  0  0  0  0
M  END
>  <MODEL>
9

>  <REMARK>
 VINA RESULT:      -7.4      1.927      6.024
  Name = 
  11 active torsions:
  status: ('A' for Active; 'I' for Inactive)
    1  A    between atoms: C_2  and  C_25
    2  A    between atoms: C_3  and  O_13
    3  A    between atoms: C_5  and  C_15
    4  A    between atoms: C_5  and  C_30
    5  A    between atoms: N_8  and  C_25
    6  A    between atoms: N_8  and  C_30
    7  A    between atoms: C_9  and  C_33
    8  A    between atoms: O_13  and  C_15
    9  A    between atoms: C_19  and  C_28
   10  A    between atoms: C_25  and  C_31
   11  A    between atoms: C_27  and  C_33
                            x       y       z     vdW  Elec       q    Type
                         _______ _______ _______ _____ _____    ______ ____

>  <TORSDO>
F 11

$$$$
