=
 OpenBabel11042410243D

 29 34  0  0  1  0  0  0  0  0999 V2000
  189.7430  177.3370  139.9360 C   0  0  0  0  0  0  0  0  0  0  0  0
  188.1290  178.6910  140.3850 C   0  0  0  0  0  0  0  0  0  0  0  0
  191.1630  176.8720  138.0880 O   0  0  0  0  0  0  0  0  0  0  0  0
  186.3540  178.7310  141.6260 C   0  0  0  0  0  0  0  0  0  0  0  0
  188.5830  178.2600  141.5810 C   0  0  1  0  0  3  0  0  0  0  0  0
  187.4430  178.2010  142.5300 C   0  0  0  0  0  3  0  0  0  0  0  0
  189.6030  177.3660  141.3180 C   0  0  0  0  0  0  0  0  0  0  0  0
  189.4600  178.0130  136.8730 C   0  0  0  0  0  2  0  0  0  0  0  0
  186.7430  178.9750  140.4090 N   0  0  0  0  0  0  0  0  0  0  0  0
  188.8100  178.1400  139.3570 N   0  0  0  0  0  0  0  0  0  0  0  0
  190.5420  176.3040  139.2020 C   0  0  0  0  0  2  0  0  0  0  0  0
  190.2430  176.7230  137.0440 C   0  0  0  0  0  2  0  0  0  0  0  0
  187.2780  178.5350  137.6330 O   0  0  0  0  0  0  0  0  0  0  0  0
  188.4500  178.2120  137.9630 C   0  0  0  0  0  0  0  0  0  0  0  0
  183.2010  178.9840  143.3670 C   0  0  0  0  0  0  0  0  0  0  0  0
  184.9590  178.8980  142.0560 C   0  0  0  0  0  0  0  0  0  0  0  0
  183.7760  178.2780  141.4160 C   0  0  0  0  0  3  0  0  0  0  0  0
  182.9980  178.6360  144.6260 C   0  0  0  0  0  3  0  0  0  0  0  0
  184.2780  178.9570  145.3080 C   0  0  0  0  0  3  0  0  0  0  0  0
  185.2020  179.3420  144.4730 N   0  0  0  0  0  0  0  0  0  0  0  0
  182.7400  178.3100  142.2070 N   0  0  0  0  0  0  0  0  0  0  0  0
  184.5420  179.3640  143.2220 C   0  0  0  0  0  0  0  0  0  0  0  0
  191.6030  176.3690  145.3590 C   0  0  0  0  0  0  0  0  0  0  0  0
  190.1420  176.3860  142.2130 N   0  0  0  0  0  2  0  0  0  0  0  0
  191.0720  175.7460  144.3400 O   0  0  0  0  0  0  0  0  0  0  0  0
  191.6060  177.7260  145.1160 C   0  0  0  0  0  3  0  0  0  0  0  0
  191.0520  177.9190  143.9010 N   0  0  0  0  0  0  0  0  0  0  0  0
  190.7420  176.6760  143.4790 C   0  0  0  0  0  0  0  0  0  0  0  0
  192.1220  175.7000  146.5810 C   0  0  0  0  0  1  0  0  0  0  0  0
  1  7  2  0  0  0  0
  2  9  2  0  0  0  0
  2  5  1  0  0  0  0
  3 11  1  0  0  0  0
  4 16  1  0  0  0  0
  4  6  2  0  0  0  0
  5  6  1  6  0  0  0
  7  5  1  0  0  0  0
  7 24  1  0  0  0  0
  8 12  1  0  0  0  0
  8 14  1  0  0  0  0
  9  4  1  0  0  0  0
 10  1  1  0  0  0  0
 10  2  1  0  0  0  0
 11  1  1  0  0  0  0
 12  3  1  0  0  0  0
 13 14  2  0  0  0  0
 14 10  1  0  0  0  0
 15 18  1  0  0  0  0
 16 22  1  0  0  0  0
 17 16  2  0  0  0  0
 17 21  1  0  0  0  0
 18 19  2  0  0  0  0
 20 19  1  0  0  0  0
 21 15  2  0  0  0  0
 22 15  1  0  0  0  0
 22 20  2  0  0  0  0
 23 29  1  0  0  0  0
 24 28  1  0  0  0  0
 25 23  1  0  0  0  0
 26 23  2  0  0  0  0
 27 26  1  0  0  0  0
 28 27  2  0  0  0  0
 28 25  1  0  0  0  0
M  END
>  <MODEL>
1

>  <REMARK>
 VINA RESULT:      -9.3      0.000      0.000
  Name = 
  2 active torsions:
  status: ('A' for Active; 'I' for Inactive)
    1  A    between atoms: C_3  and  C_6
    2  A    between atoms: C_10  and  N_15
                            x       y       z     vdW  Elec       q    Type
                         _______ _______ _______ _____ _____    ______ ____

>  <TORSDO>
F 2

$$$$
=
 OpenBabel11042410243D

 29 34  0  0  1  0  0  0  0  0999 V2000
  189.7090  177.3980  140.0820 C   0  0  0  0  0  0  0  0  0  0  0  0
  188.0310  178.6040  140.6890 C   0  0  0  0  0  0  0  0  0  0  0  0
  191.0430  177.1230  138.1350 O   0  0  0  0  0  0  0  0  0  0  0  0
  186.3370  178.4550  142.0310 C   0  0  0  0  0  0  0  0  0  0  0  0
  188.5880  178.1570  141.8350 C   0  0  1  0  0  3  0  0  0  0  0  0
  187.5150  177.9700  142.8440 C   0  0  0  0  0  3  0  0  0  0  0  0
  189.6530  177.3560  141.4700 C   0  0  0  0  0  0  0  0  0  0  0  0
  189.1900  178.1830  137.0770 C   0  0  0  0  0  2  0  0  0  0  0  0
  186.6320  178.7810  140.8060 N   0  0  0  0  0  0  0  0  0  0  0  0
  188.6860  178.1520  139.5980 N   0  0  0  0  0  0  0  0  0  0  0  0
  190.5360  176.4610  139.2550 C   0  0  0  0  0  2  0  0  0  0  0  0
  190.0750  176.9500  137.1410 C   0  0  0  0  0  2  0  0  0  0  0  0
  187.0260  178.5040  137.9870 O   0  0  0  0  0  0  0  0  0  0  0  0
  188.2370  178.2570  138.2320 C   0  0  0  0  0  0  0  0  0  0  0  0
  182.7730  178.6380  142.5800 C   0  0  0  0  0  0  0  0  0  0  0  0
  184.9630  178.4960  142.5490 C   0  0  0  0  0  0  0  0  0  0  0  0
  184.4900  179.3240  143.6820 C   0  0  0  0  0  3  0  0  0  0  0  0
  181.8780  178.9590  141.6620 C   0  0  0  0  0  3  0  0  0  0  0  0
  182.4320  178.4080  140.3990 C   0  0  0  0  0  3  0  0  0  0  0  0
  183.6290  177.9170  140.5550 N   0  0  0  0  0  0  0  0  0  0  0  0
  183.1900  179.4250  143.6840 N   0  0  0  0  0  0  0  0  0  0  0  0
  183.8750  178.0540  141.9400 C   0  0  0  0  0  0  0  0  0  0  0  0
  191.6920  176.2630  145.4670 C   0  0  0  0  0  0  0  0  0  0  0  0
  190.3160  176.3820  142.2850 N   0  0  0  0  0  2  0  0  0  0  0  0
  191.2860  175.6740  144.3720 O   0  0  0  0  0  0  0  0  0  0  0  0
  191.4910  177.6220  145.3580 C   0  0  0  0  0  3  0  0  0  0  0  0
  190.9410  177.8530  144.1480 N   0  0  0  0  0  0  0  0  0  0  0  0
  190.8360  176.6270  143.5950 C   0  0  0  0  0  0  0  0  0  0  0  0
  192.2800  175.5580  146.6360 C   0  0  0  0  0  1  0  0  0  0  0  0
  1  7  2  0  0  0  0
  2  9  2  0  0  0  0
  2  5  1  0  0  0  0
  3 11  1  0  0  0  0
  4 16  1  0  0  0  0
  4  6  2  0  0  0  0
  5  6  1  6  0  0  0
  7  5  1  0  0  0  0
  7 24  1  0  0  0  0
  8 12  1  0  0  0  0
  8 14  1  0  0  0  0
  9  4  1  0  0  0  0
 10  1  1  0  0  0  0
 10  2  1  0  0  0  0
 11  1  1  0  0  0  0
 12  3  1  0  0  0  0
 13 14  2  0  0  0  0
 14 10  1  0  0  0  0
 15 21  1  0  0  0  0
 16 17  1  0  0  0  0
 17 21  2  0  0  0  0
 18 15  2  0  0  0  0
 19 20  2  0  0  0  0
 19 18  1  0  0  0  0
 20 22  1  0  0  0  0
 22 16  2  0  0  0  0
 22 15  1  0  0  0  0
 23 29  1  0  0  0  0
 24 28  1  0  0  0  0
 25 23  1  0  0  0  0
 26 23  2  0  0  0  0
 27 26  1  0  0  0  0
 28 27  2  0  0  0  0
 28 25  1  0  0  0  0
M  END
>  <MODEL>
2

>  <REMARK>
 VINA RESULT:      -9.2      0.799      1.610
  Name = 
  2 active torsions:
  status: ('A' for Active; 'I' for Inactive)
    1  A    between atoms: C_3  and  C_6
    2  A    between atoms: C_10  and  N_15
                            x       y       z     vdW  Elec       q    Type
                         _______ _______ _______ _____ _____    ______ ____

>  <TORSDO>
F 2

$$$$
=
 OpenBabel11042410243D

 29 34  0  0  0  0  0  0  0  0999 V2000
  188.9440  176.8180  138.0730 C   0  0  0  0  0  0  0  0  0  0  0  0
  189.0800  177.9050  139.9270 C   0  0  0  0  0  0  0  0  0  0  0  0
  187.7300  176.9910  136.0380 O   0  0  0  0  0  0  0  0  0  0  0  0
  189.5090  177.4950  142.0110 C   0  0  0  0  0  0  0  0  0  0  0  0
  190.1990  177.1520  139.8670 C   0  0  0  0  0  0  0  0  0  0  0  0
  190.5860  176.7620  141.2470 C   0  0  0  0  0  3  0  0  0  0  0  0
  190.1210  176.4220  138.6960 C   0  0  0  0  0  0  0  0  0  0  0  0
  186.3040  178.3750  137.3520 C   0  0  0  0  0  2  0  0  0  0  0  0
  188.6450  178.1120  141.2580 N   0  0  0  0  0  2  0  0  0  0  0  0
  188.2870  177.7190  138.8510 N   0  0  0  0  0  0  0  0  0  0  0  0
  188.3280  176.0880  136.9180 C   0  0  0  0  0  2  0  0  0  0  0  0
  186.4150  177.1270  136.4940 C   0  0  0  0  0  2  0  0  0  0  0  0
  186.2780  178.5530  139.7140 O   0  0  0  0  0  0  0  0  0  0  0  0
  186.9340  178.1940  138.7000 C   0  0  0  0  0  0  0  0  0  0  0  0
  188.5100  177.5600  145.4810 C   0  0  0  0  0  0  0  0  0  0  0  0
  189.3990  177.4660  143.4760 C   0  0  0  0  0  0  0  0  0  0  0  0
  190.2770  178.1900  144.4240 C   0  0  0  0  0  3  0  0  0  0  0  0
  187.3230  177.9370  145.9230 C   0  0  0  0  0  3  0  0  0  0  0  0
  186.3790  177.5010  144.8610 C   0  0  0  0  0  3  0  0  0  0  0  0
  186.9940  177.0230  143.8170 N   0  0  0  0  0  0  0  0  0  0  0  0
  189.7350  178.2640  145.6080 N   0  0  0  0  0  0  0  0  0  0  0  0
  188.3600  177.0530  144.1830 C   0  0  0  0  0  0  0  0  0  0  0  0
  193.9650  174.4980  137.0080 C   0  0  0  0  0  0  0  0  0  0  0  0
  190.8620  175.2400  138.3680 N   0  0  0  0  0  2  0  0  0  0  0  0
  192.8670  174.1380  137.6200 O   0  0  0  0  0  0  0  0  0  0  0  0
  193.9240  175.8520  136.7510 C   0  0  0  0  0  3  0  0  0  0  0  0
  192.7520  176.3180  137.2320 N   0  0  0  0  0  0  0  0  0  0  0  0
  192.1540  175.2280  137.7540 C   0  0  0  0  0  0  0  0  0  0  0  0
  195.0740  173.5750  136.6490 C   0  0  0  0  0  1  0  0  0  0  0  0
  1  7  2  0  0  0  0
  1 10  1  0  0  0  0
  2  9  1  0  0  0  0
  3 12  1  0  0  0  0
  3 11  1  0  0  0  0
  4 16  1  0  0  0  0
  5  2  2  0  0  0  0
  5  6  1  0  0  0  0
  6  4  2  0  0  0  0
  7  5  1  0  0  0  0
  8 14  1  0  0  0  0
  9  4  1  0  0  0  0
 10  2  1  0  0  0  0
 11  1  1  0  0  0  0
 12  8  1  0  0  0  0
 14 10  1  0  0  0  0
 14 13  2  0  0  0  0
 15 21  1  0  0  0  0
 15 18  2  0  0  0  0
 16 22  2  0  0  0  0
 16 17  1  0  0  0  0
 17 21  2  0  0  0  0
 19 18  1  0  0  0  0
 20 22  1  0  0  0  0
 20 19  2  0  0  0  0
 22 15  1  0  0  0  0
 23 25  1  0  0  0  0
 24  7  1  0  0  0  0
 25 28  1  0  0  0  0
 26 23  2  0  0  0  0
 26 27  1  0  0  0  0
 27 28  2  0  0  0  0
 28 24  1  0  0  0  0
 29 23  1  0  0  0  0
M  END
>  <MODEL>
3

>  <REMARK>
 VINA RESULT:      -8.9      2.873      5.131
  Name = 
  2 active torsions:
  status: ('A' for Active; 'I' for Inactive)
    1  A    between atoms: C_3  and  C_6
    2  A    between atoms: C_10  and  N_15
                            x       y       z     vdW  Elec       q    Type
                         _______ _______ _______ _____ _____    ______ ____

>  <TORSDO>
F 2

$$$$
=
 OpenBabel11042410243D

 29 34  0  0  0  0  0  0  0  0999 V2000
  189.1140  176.7000  137.7740 C   0  0  0  0  0  0  0  0  0  0  0  0
  189.0110  177.9520  139.5240 C   0  0  0  0  0  0  0  0  0  0  0  0
  188.1250  176.6410  135.6140 O   0  0  0  0  0  0  0  0  0  0  0  0
  189.2220  177.7470  141.6700 C   0  0  0  0  0  0  0  0  0  0  0  0
  190.1540  177.2450  139.6520 C   0  0  0  0  0  0  0  0  0  0  0  0
  190.4000  176.9960  141.0950 C   0  0  0  0  0  3  0  0  0  0  0  0
  190.2280  176.4120  138.5520 C   0  0  0  0  0  0  0  0  0  0  0  0
  186.5180  178.0740  136.6360 C   0  0  0  0  0  2  0  0  0  0  0  0
  188.4260  178.2570  140.7760 N   0  0  0  0  0  2  0  0  0  0  0  0
  188.3460  177.6380  138.3910 N   0  0  0  0  0  0  0  0  0  0  0  0
  188.6520  175.8460  136.6330 C   0  0  0  0  0  2  0  0  0  0  0  0
  186.7640  176.7600  135.9140 C   0  0  0  0  0  2  0  0  0  0  0  0
  186.2290  178.4590  138.9560 O   0  0  0  0  0  0  0  0  0  0  0  0
  187.0030  178.0390  138.0550 C   0  0  0  0  0  0  0  0  0  0  0  0
  189.2530  177.6910  145.2810 C   0  0  0  0  0  0  0  0  0  0  0  0
  188.9540  177.8440  143.1110 C   0  0  0  0  0  0  0  0  0  0  0  0
  187.7250  177.3800  143.7960 C   0  0  0  0  0  3  0  0  0  0  0  0
  190.1740  177.1030  146.0240 C   0  0  0  0  0  3  0  0  0  0  0  0
  191.4310  177.2650  145.2480 C   0  0  0  0  0  3  0  0  0  0  0  0
  191.2260  177.7950  144.0760 N   0  0  0  0  0  0  0  0  0  0  0  0
  187.9130  177.2680  145.0810 N   0  0  0  0  0  0  0  0  0  0  0  0
  189.8390  178.0740  144.0670 C   0  0  0  0  0  0  0  0  0  0  0  0
  194.0230  174.3950  136.8620 C   0  0  0  0  0  0  0  0  0  0  0  0
  191.0380  175.2380  138.4150 N   0  0  0  0  0  2  0  0  0  0  0  0
  193.0440  174.1240  137.6850 O   0  0  0  0  0  0  0  0  0  0  0  0
  193.8200  175.6370  136.3020 C   0  0  0  0  0  3  0  0  0  0  0  0
  192.6710  176.1280  136.8120 N   0  0  0  0  0  0  0  0  0  0  0  0
  192.2470  175.1620  137.6530 C   0  0  0  0  0  0  0  0  0  0  0  0
  195.1690  173.4890  136.5860 C   0  0  0  0  0  1  0  0  0  0  0  0
  1 10  1  0  0  0  0
  1  7  2  0  0  0  0
  2  5  2  0  0  0  0
  2  9  1  0  0  0  0
  3 12  1  0  0  0  0
  3 11  1  0  0  0  0
  4 16  1  0  0  0  0
  5  6  1  0  0  0  0
  6  4  2  0  0  0  0
  7  5  1  0  0  0  0
  8 14  1  0  0  0  0
  9  4  1  0  0  0  0
 10  2  1  0  0  0  0
 11  1  1  0  0  0  0
 12  8  1  0  0  0  0
 14 10  1  0  0  0  0
 14 13  2  0  0  0  0
 15 18  1  0  0  0  0
 16 17  2  0  0  0  0
 16 22  1  0  0  0  0
 17 21  1  0  0  0  0
 19 18  2  0  0  0  0
 20 19  1  0  0  0  0
 21 15  2  0  0  0  0
 22 20  2  0  0  0  0
 22 15  1  0  0  0  0
 23 25  1  0  0  0  0
 24  7  1  0  0  0  0
 26 27  1  0  0  0  0
 26 23  2  0  0  0  0
 27 28  2  0  0  0  0
 28 25  1  0  0  0  0
 28 24  1  0  0  0  0
 29 23  1  0  0  0  0
M  END
>  <MODEL>
4

>  <REMARK>
 VINA RESULT:      -8.8      3.033      5.399
  Name = 
  2 active torsions:
  status: ('A' for Active; 'I' for Inactive)
    1  A    between atoms: C_3  and  C_6
    2  A    between atoms: C_10  and  N_15
                            x       y       z     vdW  Elec       q    Type
                         _______ _______ _______ _____ _____    ______ ____

>  <TORSDO>
F 2

$$$$
=
 OpenBabel11042410243D

 29 34  0  0  1  0  0  0  0  0999 V2000
  188.5930  177.6910  141.4160 C   0  0  0  0  0  0  0  0  0  0  0  0
  186.7550  178.8120  141.3420 C   0  0  0  0  0  0  0  0  0  0  0  0
  190.4840  177.3540  140.0170 O   0  0  0  0  0  0  0  0  0  0  0  0
  184.7330  178.6490  142.1020 C   0  0  0  0  0  0  0  0  0  0  0  0
  186.9420  178.5090  142.6450 C   0  0  1  0  0  3  0  0  0  0  0  0
  185.6150  178.3270  143.2860 C   0  0  0  0  0  3  0  0  0  0  0  0
  188.1030  177.7630  142.7140 C   0  0  0  0  0  0  0  0  0  0  0  0
  189.0120  178.1740  138.3320 C   0  0  0  0  0  2  0  0  0  0  0  0
  185.3840  178.8900  141.0020 N   0  0  0  0  0  0  0  0  0  0  0  0
  187.7410  178.3200  140.5620 N   0  0  0  0  0  0  0  0  0  0  0  0
  189.6800  176.7530  140.9880 C   0  0  0  0  0  2  0  0  0  0  0  0
  189.8880  177.0230  138.7960 C   0  0  0  0  0  2  0  0  0  0  0  0
  186.6600  178.4050  138.4880 O   0  0  0  0  0  0  0  0  0  0  0  0
  187.7410  178.2730  139.1210 C   0  0  0  0  0  0  0  0  0  0  0  0
  181.1720  178.9690  141.5970 C   0  0  0  0  0  0  0  0  0  0  0  0
  183.2650  178.6280  142.1620 C   0  0  0  0  0  0  0  0  0  0  0  0
  182.4420  179.0030  143.3350 C   0  0  0  0  0  3  0  0  0  0  0  0
  180.6000  179.7070  140.6600 C   0  0  0  0  0  3  0  0  0  0  0  0
  181.5350  179.6270  139.5080 C   0  0  0  0  0  3  0  0  0  0  0  0
  182.6350  178.9950  139.8040 N   0  0  0  0  0  0  0  0  0  0  0  0
  181.2040  179.2280  142.9910 N   0  0  0  0  0  0  0  0  0  0  0  0
  182.4330  178.5660  141.1360 C   0  0  0  0  0  0  0  0  0  0  0  0
  191.1960  176.7540  145.9910 C   0  0  0  0  0  0  0  0  0  0  0  0
  188.5190  176.9160  143.7920 N   0  0  0  0  0  2  0  0  0  0  0  0
  190.0050  176.3750  145.6070 O   0  0  0  0  0  0  0  0  0  0  0  0
  191.6800  177.7020  145.1160 C   0  0  0  0  0  3  0  0  0  0  0  0
  190.7370  177.8970  144.1700 N   0  0  0  0  0  0  0  0  0  0  0  0
  189.7380  177.0640  144.5260 C   0  0  0  0  0  0  0  0  0  0  0  0
  191.9040  176.2300  147.1890 C   0  0  0  0  0  1  0  0  0  0  0  0
  1  7  2  0  0  0  0
  2  5  1  0  0  0  0
  3 11  1  0  0  0  0
  4 16  1  0  0  0  0
  4  6  2  0  0  0  0
  5  7  1  0  0  0  0
  5  6  1  6  0  0  0
  7 24  1  0  0  0  0
  8 12  1  0  0  0  0
  8 14  1  0  0  0  0
  9  2  2  0  0  0  0
  9  4  1  0  0  0  0
 10  2  1  0  0  0  0
 10  1  1  0  0  0  0
 11  1  1  0  0  0  0
 12  3  1  0  0  0  0
 13 14  2  0  0  0  0
 14 10  1  0  0  0  0
 15 21  1  0  0  0  0
 16 17  1  0  0  0  0
 18 15  2  0  0  0  0
 19 20  2  0  0  0  0
 19 18  1  0  0  0  0
 20 22  1  0  0  0  0
 21 17  2  0  0  0  0
 22 15  1  0  0  0  0
 22 16  2  0  0  0  0
 23 29  1  0  0  0  0
 24 28  1  0  0  0  0
 25 23  1  0  0  0  0
 26 23  2  0  0  0  0
 27 28  2  0  0  0  0
 27 26  1  0  0  0  0
 28 25  1  0  0  0  0
M  END
>  <MODEL>
5

>  <REMARK>
 VINA RESULT:      -8.8      1.591      2.478
  Name = 
  2 active torsions:
  status: ('A' for Active; 'I' for Inactive)
    1  A    between atoms: C_3  and  C_6
    2  A    between atoms: C_10  and  N_15
                            x       y       z     vdW  Elec       q    Type
                         _______ _______ _______ _____ _____    ______ ____

>  <TORSDO>
F 2

$$$$
=
 OpenBabel11042410243D

 29 34  0  0  1  0  0  0  0  0999 V2000
  188.2110  177.8370  141.2850 C   0  0  0  0  0  0  0  0  0  0  0  0
  186.3600  178.8660  140.8930 C   0  0  0  0  0  0  0  0  0  0  0  0
  190.2910  177.5130  140.1830 O   0  0  0  0  0  0  0  0  0  0  0  0
  184.2590  178.6500  141.3760 C   0  0  0  0  0  0  0  0  0  0  0  0
  186.3740  178.6430  142.2240 C   0  0  1  0  0  3  0  0  0  0  0  0
  184.9790  178.4350  142.6870 C   0  0  0  0  0  3  0  0  0  0  0  0
  187.5420  177.9570  142.4970 C   0  0  0  0  0  0  0  0  0  0  0  0
  189.0390  178.1710  138.2650 C   0  0  0  0  0  2  0  0  0  0  0  0
  185.0480  178.8620  140.3630 N   0  0  0  0  0  0  0  0  0  0  0  0
  187.4640  178.3790  140.2860 N   0  0  0  0  0  0  0  0  0  0  0  0
  189.3830  176.9290  141.0680 C   0  0  0  0  0  2  0  0  0  0  0  0
  189.8850  177.0890  138.9140 C   0  0  0  0  0  2  0  0  0  0  0  0
  186.6810  178.3000  138.0830 O   0  0  0  0  0  0  0  0  0  0  0  0
  187.6670  178.2530  138.8650 C   0  0  0  0  0  0  0  0  0  0  0  0
  180.6810  178.3670  141.7780 C   0  0  0  0  0  0  0  0  0  0  0  0
  182.7990  178.5650  141.2340 C   0  0  0  0  0  0  0  0  0  0  0  0
  182.0720  177.7050  140.2730 C   0  0  0  0  0  3  0  0  0  0  0  0
  180.0660  178.0400  142.9010 C   0  0  0  0  0  3  0  0  0  0  0  0
  180.9140  178.6280  143.9700 C   0  0  0  0  0  3  0  0  0  0  0  0
  182.0140  179.1470  143.5010 N   0  0  0  0  0  0  0  0  0  0  0  0
  180.8200  177.5700  140.6120 N   0  0  0  0  0  0  0  0  0  0  0  0
  181.8950  178.9900  142.1010 C   0  0  0  0  0  0  0  0  0  0  0  0
  190.3200  177.1210  146.0900 C   0  0  0  0  0  0  0  0  0  0  0  0
  187.8350  177.1900  143.6710 N   0  0  0  0  0  2  0  0  0  0  0  0
  189.1490  176.7530  145.6410 O   0  0  0  0  0  0  0  0  0  0  0  0
  190.9110  177.9740  145.1830 C   0  0  0  0  0  3  0  0  0  0  0  0
  190.0560  178.1220  144.1500 N   0  0  0  0  0  0  0  0  0  0  0  0
  188.9970  177.3570  144.4890 C   0  0  0  0  0  0  0  0  0  0  0  0
  190.9080  176.6750  147.3810 C   0  0  0  0  0  1  0  0  0  0  0  0
  1  7  2  0  0  0  0
  2  5  1  0  0  0  0
  3 11  1  0  0  0  0
  4  6  2  0  0  0  0
  5  7  1  0  0  0  0
  5  6  1  6  0  0  0
  7 24  1  0  0  0  0
  8 14  1  0  0  0  0
  8 12  1  0  0  0  0
  9  2  2  0  0  0  0
  9  4  1  0  0  0  0
 10  2  1  0  0  0  0
 10  1  1  0  0  0  0
 11  1  1  0  0  0  0
 12  3  1  0  0  0  0
 13 14  2  0  0  0  0
 14 10  1  0  0  0  0
 15 22  1  0  0  0  0
 15 18  1  0  0  0  0
 16  4  1  0  0  0  0
 16 22  1  0  0  0  0
 17 21  1  0  0  0  0
 17 16  2  0  0  0  0
 18 19  2  0  0  0  0
 20 19  1  0  0  0  0
 21 15  2  0  0  0  0
 22 20  2  0  0  0  0
 23 29  1  0  0  0  0
 24 28  1  0  0  0  0
 25 23  1  0  0  0  0
 26 23  2  0  0  0  0
 27 28  2  0  0  0  0
 27 26  1  0  0  0  0
 28 25  1  0  0  0  0
M  END
>  <MODEL>
6

>  <REMARK>
 VINA RESULT:      -8.6      1.719      2.285
  Name = 
  2 active torsions:
  status: ('A' for Active; 'I' for Inactive)
    1  A    between atoms: C_3  and  C_6
    2  A    between atoms: C_10  and  N_15
                            x       y       z     vdW  Elec       q    Type
                         _______ _______ _______ _____ _____    ______ ____

>  <TORSDO>
F 2

$$$$
=
 OpenBabel11042410243D

 29 34  0  0  0  0  0  0  0  0999 V2000
  188.2520  177.8560  140.1580 C   0  0  0  0  0  0  0  0  0  0  0  0
  188.7710  176.8910  142.0120 C   0  0  0  0  0  0  0  0  0  0  0  0
  188.9470  177.7540  137.8870 O   0  0  0  0  0  0  0  0  0  0  0  0
  188.7940  177.3630  144.1260 C   0  0  0  0  0  0  0  0  0  0  0  0
  187.5530  177.4350  142.2160 C   0  0  0  0  0  0  0  0  0  0  0  0
  187.4470  177.8460  143.6390 C   0  0  0  0  0  3  0  0  0  0  0  0
  187.2090  178.0860  141.0460 C   0  0  0  0  0  0  0  0  0  0  0  0
  190.8780  176.7290  138.8340 C   0  0  0  0  0  2  0  0  0  0  0  0
  189.5470  176.8540  143.1950 N   0  0  0  0  0  2  0  0  0  0  0  0
  189.2330  177.1370  140.7670 N   0  0  0  0  0  0  0  0  0  0  0  0
  188.4250  178.6000  138.8680 C   0  0  0  0  0  2  0  0  0  0  0  0
  190.3350  177.8780  138.0020 C   0  0  0  0  0  2  0  0  0  0  0  0
  191.5080  176.7210  141.1180 O   0  0  0  0  0  0  0  0  0  0  0  0
  190.5720  176.8920  140.2920 C   0  0  0  0  0  0  0  0  0  0  0  0
  190.4130  177.1980  147.3500 C   0  0  0  0  0  0  0  0  0  0  0  0
  189.2490  177.5110  145.5150 C   0  0  0  0  0  0  0  0  0  0  0  0
  188.3800  177.5120  146.7140 C   0  0  0  0  0  3  0  0  0  0  0  0
  191.3070  176.2920  147.7060 C   0  0  0  0  0  3  0  0  0  0  0  0
  192.0550  176.0030  146.4560 C   0  0  0  0  0  3  0  0  0  0  0  0
  191.5430  176.6040  145.4190 N   0  0  0  0  0  0  0  0  0  0  0  0
  189.0710  177.3020  147.8000 N   0  0  0  0  0  0  0  0  0  0  0  0
  190.4860  177.3730  145.9610 C   0  0  0  0  0  0  0  0  0  0  0  0
  183.2720  179.4840  139.0800 C   0  0  0  0  0  0  0  0  0  0  0  0
  186.2080  179.0970  140.8860 N   0  0  0  0  0  2  0  0  0  0  0  0
  184.1030  179.8730  140.0120 O   0  0  0  0  0  0  0  0  0  0  0  0
  183.7560  178.3420  138.4810 C   0  0  0  0  0  3  0  0  0  0  0  0
  184.9260  178.0360  139.0810 N   0  0  0  0  0  0  0  0  0  0  0  0
  185.0810  179.0030  140.0090 C   0  0  0  0  0  0  0  0  0  0  0  0
  182.0050  180.1820  138.7340 C   0  0  0  0  0  1  0  0  0  0  0  0
  1 10  1  0  0  0  0
  1  7  2  0  0  0  0
  2  5  2  0  0  0  0
  2  9  1  0  0  0  0
  3 12  1  0  0  0  0
  3 11  1  0  0  0  0
  4 16  1  0  0  0  0
  5  6  1  0  0  0  0
  6  4  2  0  0  0  0
  7  5  1  0  0  0  0
  8 14  1  0  0  0  0
  9  4  1  0  0  0  0
 10  2  1  0  0  0  0
 11  1  1  0  0  0  0
 12  8  1  0  0  0  0
 14 10  1  0  0  0  0
 14 13  2  0  0  0  0
 15 18  2  0  0  0  0
 15 21  1  0  0  0  0
 16 22  2  0  0  0  0
 16 17  1  0  0  0  0
 17 21  2  0  0  0  0
 19 18  1  0  0  0  0
 20 22  1  0  0  0  0
 20 19  2  0  0  0  0
 22 15  1  0  0  0  0
 23 25  1  0  0  0  0
 24  7  1  0  0  0  0
 26 23  2  0  0  0  0
 26 27  1  0  0  0  0
 27 28  2  0  0  0  0
 28 25  1  0  0  0  0
 28 24  1  0  0  0  0
 29 23  1  0  0  0  0
M  END
>  <MODEL>
7

>  <REMARK>
 VINA RESULT:      -8.4      2.268      6.512
  Name = 
  2 active torsions:
  status: ('A' for Active; 'I' for Inactive)
    1  A    between atoms: C_3  and  C_6
    2  A    between atoms: C_10  and  N_15
                            x       y       z     vdW  Elec       q    Type
                         _______ _______ _______ _____ _____    ______ ____

>  <TORSDO>
F 2

$$$$
=
 OpenBabel11042410243D

 29 34  0  0  1  0  0  0  0  0999 V2000
  188.1750  177.7300  143.8040 C   0  0  0  0  0  0  0  0  0  0  0  0
  189.5010  178.1180  142.1520 C   0  0  0  0  0  0  0  0  0  0  0  0
  188.3170  177.6800  146.1760 O   0  0  0  0  0  0  0  0  0  0  0  0
  189.7300  177.5030  140.0870 C   0  0  0  0  0  0  0  0  0  0  0  0
  188.2530  178.2510  141.6530 C   0  0  1  0  0  3  0  0  0  0  0  0
  188.2590  177.8170  140.2330 C   0  0  0  0  0  3  0  0  0  0  0  0
  187.3820  177.9780  142.6910 C   0  0  0  0  0  0  0  0  0  0  0  0
  190.6520  177.4890  145.7360 C   0  0  0  0  0  2  0  0  0  0  0  0
  190.4170  177.6450  141.1830 N   0  0  0  0  0  0  0  0  0  0  0  0
  189.4900  177.7920  143.4620 N   0  0  0  0  0  0  0  0  0  0  0  0
  187.6590  177.1280  145.0760 C   0  0  0  0  0  2  0  0  0  0  0  0
  189.4310  176.8590  146.3840 C   0  0  0  0  0  2  0  0  0  0  0  0
  191.6680  176.9610  143.6620 O   0  0  0  0  0  0  0  0  0  0  0  0
  190.6260  177.3670  144.2420 C   0  0  0  0  0  0  0  0  0  0  0  0
  190.5700  176.5630  136.7030 C   0  0  0  0  0  0  0  0  0  0  0  0
  190.3290  177.0140  138.8380 C   0  0  0  0  0  0  0  0  0  0  0  0
  190.9300  175.6770  138.6320 C   0  0  0  0  0  3  0  0  0  0  0  0
  189.7430  176.6120  135.6730 C   0  0  0  0  0  3  0  0  0  0  0  0
  188.8790  177.7890  135.9510 C   0  0  0  0  0  3  0  0  0  0  0  0
  189.1060  178.3050  137.1260 N   0  0  0  0  0  0  0  0  0  0  0  0
  191.0500  175.4030  137.3630 N   0  0  0  0  0  0  0  0  0  0  0  0
  190.1800  177.5380  137.6320 C   0  0  0  0  0  0  0  0  0  0  0  0
  182.9700  178.9780  143.6200 C   0  0  0  0  0  0  0  0  0  0  0  0
  185.9960  177.6350  142.5830 N   0  0  0  0  0  2  0  0  0  0  0  0
  183.6610  178.1260  142.9080 O   0  0  0  0  0  0  0  0  0  0  0  0
  183.8310  179.7750  144.3430 C   0  0  0  0  0  3  0  0  0  0  0  0
  185.0880  179.3830  144.0490 N   0  0  0  0  0  0  0  0  0  0  0  0
  184.9200  178.3780  143.1650 C   0  0  0  0  0  0  0  0  0  0  0  0
  181.4860  179.0570  143.6370 C   0  0  0  0  0  1  0  0  0  0  0  0
  1 11  1  0  0  0  0
  2 10  1  0  0  0  0
  3 12  1  0  0  0  0
  4  6  2  0  0  0  0
  4  9  1  0  0  0  0
  5  6  1  6  0  0  0
  5  2  1  0  0  0  0
  5  7  1  0  0  0  0
  7  1  2  0  0  0  0
  8 12  1  0  0  0  0
  9  2  2  0  0  0  0
 10  1  1  0  0  0  0
 10 14  1  0  0  0  0
 11  3  1  0  0  0  0
 13 14  2  0  0  0  0
 14  8  1  0  0  0  0
 15 21  1  0  0  0  0
 15 22  1  0  0  0  0
 16  4  1  0  0  0  0
 17 16  1  0  0  0  0
 18 19  1  0  0  0  0
 18 15  2  0  0  0  0
 19 20  2  0  0  0  0
 20 22  1  0  0  0  0
 21 17  2  0  0  0  0
 22 16  2  0  0  0  0
 23 29  1  0  0  0  0
 23 26  2  0  0  0  0
 24  7  1  0  0  0  0
 24 28  1  0  0  0  0
 25 28  1  0  0  0  0
 25 23  1  0  0  0  0
 27 26  1  0  0  0  0
 28 27  2  0  0  0  0
M  END
>  <MODEL>
8

>  <REMARK>
 VINA RESULT:      -8.3      2.151      7.435
  Name = 
  2 active torsions:
  status: ('A' for Active; 'I' for Inactive)
    1  A    between atoms: C_3  and  C_6
    2  A    between atoms: C_10  and  N_15
                            x       y       z     vdW  Elec       q    Type
                         _______ _______ _______ _____ _____    ______ ____

>  <TORSDO>
F 2

$$$$
=
 OpenBabel11042410243D

 29 34  0  0  1  0  0  0  0  0999 V2000
  188.0220  177.8150  141.7650 C   0  0  0  0  0  0  0  0  0  0  0  0
  186.5220  178.8860  140.6510 C   0  0  0  0  0  0  0  0  0  0  0  0
  190.3260  177.2840  141.5200 O   0  0  0  0  0  0  0  0  0  0  0  0
  184.3770  178.8190  140.3550 C   0  0  0  0  0  0  0  0  0  0  0  0
  186.0430  178.7970  141.9110 C   0  0  1  0  0  3  0  0  0  0  0  0
  184.5620  178.7020  141.8500 C   0  0  0  0  0  3  0  0  0  0  0  0
  186.9780  178.0870  142.6400 C   0  0  0  0  0  0  0  0  0  0  0  0
  189.8970  177.8060  139.2350 C   0  0  0  0  0  2  0  0  0  0  0  0
  185.4890  178.8910  139.6840 N   0  0  0  0  0  0  0  0  0  0  0  0
  187.7270  178.2890  140.5250 N   0  0  0  0  0  0  0  0  0  0  0  0
  189.1180  176.8360  142.0580 C   0  0  0  0  0  2  0  0  0  0  0  0
  190.3660  176.7550  140.2260 C   0  0  0  0  0  2  0  0  0  0  0  0
  187.7780  178.0270  138.2010 O   0  0  0  0  0  0  0  0  0  0  0  0
  188.4130  178.0120  139.2880 C   0  0  0  0  0  0  0  0  0  0  0  0
  181.1950  179.4950  138.7880 C   0  0  0  0  0  0  0  0  0  0  0  0
  183.0620  178.7890  139.7010 C   0  0  0  0  0  0  0  0  0  0  0  0
  181.9080  177.9580  140.1160 C   0  0  0  0  0  3  0  0  0  0  0  0
  180.6180  180.6830  138.7190 C   0  0  0  0  0  3  0  0  0  0  0  0
  181.7520  181.6350  138.5960 C   0  0  0  0  0  3  0  0  0  0  0  0
  182.9090  181.0480  138.7180 N   0  0  0  0  0  0  0  0  0  0  0  0
  180.7980  178.3950  139.5900 N   0  0  0  0  0  0  0  0  0  0  0  0
  182.5830  179.6780  138.8470 C   0  0  0  0  0  0  0  0  0  0  0  0
  188.2490  177.4450  147.0330 C   0  0  0  0  0  0  0  0  0  0  0  0
  186.7700  177.4280  143.8950 N   0  0  0  0  0  2  0  0  0  0  0  0
  187.2740  177.1110  146.2280 O   0  0  0  0  0  0  0  0  0  0  0  0
  189.1970  178.1580  146.3320 C   0  0  0  0  0  3  0  0  0  0  0  0
  188.7700  178.2540  145.0560 N   0  0  0  0  0  0  0  0  0  0  0  0
  187.5890  177.6010  145.0550 C   0  0  0  0  0  0  0  0  0  0  0  0
  188.3080  177.0970  148.4770 C   0  0  0  0  0  1  0  0  0  0  0  0
  1 11  1  0  0  0  0
  1  7  2  0  0  0  0
  2  5  1  0  0  0  0
  3 11  1  0  0  0  0
  4  6  2  0  0  0  0
  5  6  1  6  0  0  0
  5  7  1  0  0  0  0
  7 24  1  0  0  0  0
  8 14  1  0  0  0  0
  8 12  1  0  0  0  0
  9  4  1  0  0  0  0
  9  2  2  0  0  0  0
 10  2  1  0  0  0  0
 10  1  1  0  0  0  0
 12  3  1  0  0  0  0
 13 14  2  0  0  0  0
 14 10  1  0  0  0  0
 15 22  1  0  0  0  0
 15 21  1  0  0  0  0
 16 17  1  0  0  0  0
 16  4  1  0  0  0  0
 18 15  2  0  0  0  0
 19 20  2  0  0  0  0
 19 18  1  0  0  0  0
 20 22  1  0  0  0  0
 21 17  2  0  0  0  0
 22 16  2  0  0  0  0
 23 29  1  0  0  0  0
 24 28  1  0  0  0  0
 25 23  1  0  0  0  0
 26 23  2  0  0  0  0
 27 26  1  0  0  0  0
 28 27  2  0  0  0  0
 28 25  1  0  0  0  0
M  END
>  <MODEL>
9

>  <REMARK>
 VINA RESULT:      -8.3      2.733      3.723
  Name = 
  2 active torsions:
  status: ('A' for Active; 'I' for Inactive)
    1  A    between atoms: C_3  and  C_6
    2  A    between atoms: C_10  and  N_15
                            x       y       z     vdW  Elec       q    Type
                         _______ _______ _______ _____ _____    ______ ____

>  <TORSDO>
F 2

$$$$
