=
 OpenBabel11042411463D

 47 51  0  0  1  0  0  0  0  0999 V2000
  189.9590  177.7150  140.3850 C   0  0  2  0  0  3  0  0  0  0  0  0
  190.9340  176.2490  138.6100 C   0  0  0  0  0  3  0  0  0  0  0  0
  193.5440  176.9500  139.3340 C   0  0  0  0  0  3  0  0  0  0  0  0
  191.1450  177.1440  139.6650 C   0  0  0  0  0  0  0  0  0  0  0  0
  192.4570  177.4940  140.0250 C   0  0  0  0  0  3  0  0  0  0  0  0
  194.4040  175.5130  137.5970 O   0  0  0  0  0  1  0  0  0  0  0  0
  192.0210  175.7050  137.9210 C   0  0  0  0  0  3  0  0  0  0  0  0
  193.3250  176.0550  138.2820 C   0  0  0  0  0  0  0  0  0  0  0  0
  190.0530  175.9150  142.1850 C   0  0  0  0  0  2  0  0  0  0  0  0
  189.8780  177.2240  141.7960 C   0  0  0  0  0  0  0  0  0  0  0  0
  189.9180  175.8670  143.5240 N   0  0  0  0  0  0  0  0  0  0  0  0
  189.6610  177.1380  143.8900 C   0  0  0  0  0  0  0  0  0  0  0  0
  189.6340  178.0080  142.8620 N   0  0  0  0  0  0  0  0  0  0  0  0
  189.4860  177.5530  145.3120 C   0  0  0  0  0  2  0  0  0  0  0  0
  187.5560  177.8560  146.9370 C   0  0  0  0  0  0  0  0  0  0  0  0
  187.1430  177.9570  144.5580 C   0  0  0  0  0  3  0  0  0  0  0  0
  186.2320  178.0870  147.1580 N   0  0  0  0  0  0  0  0  0  0  0  0
  185.3500  178.2520  146.1360 C   0  0  0  0  0  0  0  0  0  0  0  0
  185.7930  178.1910  144.8140 C   0  0  0  0  0  3  0  0  0  0  0  0
  188.0390  177.7820  145.6160 C   0  0  0  0  0  0  0  0  0  0  0  0
  184.0430  178.4820  146.4010 F   0  0  0  0  0  0  0  0  0  0  0  0
  188.4770  177.6870  148.1040 C   0  0  0  0  0  3  0  0  0  0  0  0
  189.1640  178.8770  148.3450 O   0  0  0  0  0  1  0  0  0  0  0  0
  187.7510  177.3250  149.2400 O   0  0  0  0  0  1  0  0  0  0  0  0
  188.6540  177.4540  139.6440 C   0  0  0  0  0  2  0  0  0  0  0  0
  188.3470  178.5760  138.7730 N   0  0  0  0  0  2  0  0  0  0  0  0
  187.5330  179.0500  136.5440 C   0  0  0  0  0  2  0  0  0  0  0  0
  187.5420  178.0530  137.6850 C   0  0  1  0  0  3  0  0  0  0  0  0
  188.4300  177.8330  136.4780 C   0  0  1  0  0  3  0  0  0  0  0  0
  187.7940  176.7870  135.5820 C   0  0  0  0  0  2  0  0  0  0  0  0
  187.7550  175.4370  136.2950 C   0  0  2  0  0  3  0  0  0  0  0  0
  188.9000  174.6430  136.0500 O   0  0  0  0  0  0  0  0  0  0  0  0
  188.8410  173.4890  136.8490 C   0  0  0  0  0  1  0  0  0  0  0  0
  186.4320  174.7010  136.0450 C   0  0  0  0  0  2  0  0  0  0  0  0
  185.3810  174.9410  137.1310 C   0  0  2  0  0  3  0  0  0  0  0  0
  183.3970  173.5940  137.3040 F   0  0  0  0  0  0  0  0  0  0  0  0
  184.7420  173.6420  137.6230 C   0  0  0  0  0  2  0  0  0  0  0  0
  184.3450  175.9860  136.7200 C   0  0  0  0  0  2  0  0  0  0  0  0
  184.3600  177.1840  137.6570 C   0  0  0  0  0  2  0  0  0  0  0  0
  182.3950  178.6100  138.1200 C   0  0  1  0  0  3  0  0  0  0  0  0
  183.0460  177.2790  138.4270 C   0  0  2  0  0  3  0  0  0  0  0  0
  181.0100  178.4670  138.1760 O   0  0  0  0  0  1  0  0  0  0  0  0
  182.9790  178.3760  139.5030 C   0  0  1  0  0  3  0  0  0  0  0  0
  184.2470  179.1650  139.7040 C   0  0  0  0  0  0  0  0  0  0  0  0
  184.4320  180.2030  139.0850 O   0  0  0  0  0  0  0  0  0  0  0  0
  185.4880  179.6940  141.6480 O   0  0  0  0  0  1  0  0  0  0  0  0
  185.2680  178.7020  140.6930 C   0  0  0  0  0  2  0  0  0  0  0  0
  1 25  1  6  0  0  0
  1 10  1  0  0  0  0
  2  4  1  0  0  0  0
  3  5  1  0  0  0  0
  4  5  2  0  0  0  0
  4  1  1  0  0  0  0
  6  8  1  0  0  0  0
  7  8  1  0  0  0  0
  7  2  2  0  0  0  0
  8  3  2  0  0  0  0
  9 11  1  0  0  0  0
 10  9  1  0  0  0  0
 10 13  2  0  0  0  0
 11 12  2  0  0  0  0
 12 14  1  0  0  0  0
 13 12  1  0  0  0  0
 14 20  1  0  0  0  0
 15 17  1  0  0  0  0
 15 22  1  0  0  0  0
 16 19  2  0  0  0  0
 16 20  1  0  0  0  0
 18 21  1  0  0  0  0
 18 17  2  0  0  0  0
 19 18  1  0  0  0  0
 20 15  2  0  0  0  0
 22 23  1  0  0  0  0
 22 24  1  0  0  0  0
 26 25  1  0  0  0  0
 27 28  1  0  0  0  0
 28 26  1  1  0  0  0
 29 30  1  6  0  0  0
 29 27  1  0  0  0  0
 29 28  1  0  0  0  0
 31 30  1  6  0  0  0
 32 31  1  0  0  0  0
 32 33  1  0  0  0  0
 34 31  1  0  0  0  0
 35 34  1  6  0  0  0
 35 37  1  0  0  0  0
 36 37  1  0  0  0  0
 38 35  1  0  0  0  0
 38 39  1  0  0  0  0
 40 42  1  1  0  0  0
 40 41  1  0  0  0  0
 40 43  1  0  0  0  0
 41 39  1  6  0  0  0
 41 43  1  0  0  0  0
 43 44  1  6  0  0  0
 44 47  1  0  0  0  0
 45 44  2  0  0  0  0
 47 46  1  0  0  0  0
M  END
>  <MODEL>
1

>  <REMARK>
 VINA RESULT:      -7.4      0.000      0.000
  Name = 
  19 active torsions:
  status: ('A' for Active; 'I' for Inactive)
    1  A    between atoms: C_2  and  C_40
    2  A    between atoms: C_2  and  C_47
    3  A    between atoms: C_7  and  CA_12
    4  A    between atoms: O_9  and  C_26
    5  A    between atoms: C_10  and  C_26
    6  A    between atoms: C_10  and  C_41
    7  A    between atoms: C_11  and  C_24
    8  A    between atoms: C_14  and  C_41
    9  A    between atoms: C_15  and  C_45
   10  A    between atoms: C_16  and  C_45
   11  A    between atoms: N_20  and  C_33
   12  A    between atoms: N_20  and  C_44
   13  A    between atoms: C_22  and  C_26
   14  A    between atoms: C_22  and  C_38
   15  A    between atoms: C_24  and  C_35
   16  A    between atoms: C_30  and  C_36
   17  A    between atoms: C_35  and  C_41
   18  A    between atoms: C_36  and  C_37
   19  A    between atoms: C_44  and  C_45
                            x       y       z     vdW  Elec       q    Type
                         _______ _______ _______ _____ _____    ______ ____

>  <TORSDO>
F 19

$$$$
=
 OpenBabel11042411463D

 47 51  0  0  1  0  0  0  0  0999 V2000
  184.0020  178.7930  139.5100 C   0  0  2  0  0  3  0  0  0  0  0  0
  182.2840  178.3250  137.7550 C   0  0  0  0  0  3  0  0  0  0  0  0
  181.3550  180.9620  137.8280 C   0  0  0  0  0  3  0  0  0  0  0  0
  182.8770  179.2460  138.6250 C   0  0  0  0  0  0  0  0  0  0  0  0
  182.4070  180.5690  138.6600 C   0  0  0  0  0  3  0  0  0  0  0  0
  179.7250  180.4290  136.1320 O   0  0  0  0  0  1  0  0  0  0  0  0
  181.2320  178.7200  136.9230 C   0  0  0  0  0  3  0  0  0  0  0  0
  180.7680  180.0380  136.9590 C   0  0  0  0  0  0  0  0  0  0  0  0
  185.1500  177.4620  137.6670 C   0  0  0  0  0  2  0  0  0  0  0  0
  185.1900  178.3540  138.7140 C   0  0  0  0  0  0  0  0  0  0  0  0
  186.4060  177.3280  137.1980 N   0  0  0  0  0  0  0  0  0  0  0  0
  187.1520  178.1340  137.9780 C   0  0  0  0  0  0  0  0  0  0  0  0
  186.4470  178.7900  138.9190 N   0  0  0  0  0  0  0  0  0  0  0  0
  188.6170  178.3290  137.7770 C   0  0  0  0  0  2  0  0  0  0  0  0
  190.0990  176.4440  138.6140 C   0  0  0  0  0  0  0  0  0  0  0  0
  189.1200  176.3050  136.4100 C   0  0  0  0  0  3  0  0  0  0  0  0
  190.6830  175.2300  138.4110 N   0  0  0  0  0  0  0  0  0  0  0  0
  190.5190  174.5380  137.2520 C   0  0  0  0  0  0  0  0  0  0  0  0
  189.7310  175.0650  136.2290 C   0  0  0  0  0  3  0  0  0  0  0  0
  189.3020  177.0110  137.6020 C   0  0  0  0  0  0  0  0  0  0  0  0
  191.1160  173.3330  137.0930 F   0  0  0  0  0  0  0  0  0  0  0  0
  190.3150  177.1540  139.9130 C   0  0  0  0  0  3  0  0  0  0  0  0
  189.8310  176.3780  140.9670 O   0  0  0  0  0  1  0  0  0  0  0  0
  191.6750  177.4070  140.1020 O   0  0  0  0  0  1  0  0  0  0  0  0
  183.5680  177.7030  140.4810 C   0  0  0  0  0  2  0  0  0  0  0  0
  182.4170  178.1520  141.2470 N   0  0  0  0  0  2  0  0  0  0  0  0
  181.9330  179.3030  143.3200 C   0  0  0  0  0  2  0  0  0  0  0  0
  182.8930  179.1790  142.1550 C   0  0  1  0  0  3  0  0  0  0  0  0
  183.2310  178.5410  143.4860 C   0  0  1  0  0  3  0  0  0  0  0  0
  184.2370  179.4140  144.2100 C   0  0  0  0  0  2  0  0  0  0  0  0
  185.1070  178.5610  145.1310 C   0  0  2  0  0  3  0  0  0  0  0  0
  185.9970  179.3220  145.9230 O   0  0  0  0  0  0  0  0  0  0  0  0
  186.1690  178.6870  147.1650 C   0  0  0  0  0  1  0  0  0  0  0  0
  185.7900  177.4180  144.3680 C   0  0  0  0  0  2  0  0  0  0  0  0
  187.1340  177.8090  143.7500 C   0  0  2  0  0  3  0  0  0  0  0  0
  188.1360  178.8830  141.8460 F   0  0  0  0  0  0  0  0  0  0  0  0
  187.0060  178.2150  142.2810 C   0  0  0  0  0  2  0  0  0  0  0  0
  188.2110  176.7490  143.9730 C   0  0  0  0  0  2  0  0  0  0  0  0
  188.9860  177.0060  145.2570 C   0  0  0  0  0  2  0  0  0  0  0  0
  190.9570  177.7460  143.9620 C   0  0  1  0  0  3  0  0  0  0  0  0
  189.9920  178.1370  145.0590 C   0  0  2  0  0  3  0  0  0  0  0  0
  191.3750  178.8920  143.2890 O   0  0  0  0  0  1  0  0  0  0  0  0
  191.4530  177.7990  145.3970 C   0  0  1  0  0  3  0  0  0  0  0  0
  191.6880  176.4150  145.9470 C   0  0  0  0  0  0  0  0  0  0  0  0
  191.9870  175.4960  145.1970 O   0  0  0  0  0  0  0  0  0  0  0  0
  192.8730  175.9960  147.9520 O   0  0  0  0  0  1  0  0  0  0  0  0
  191.5960  176.1690  147.4180 C   0  0  0  0  0  2  0  0  0  0  0  0
  1 25  1  6  0  0  0
  2  4  1  0  0  0  0
  3  5  1  0  0  0  0
  4  5  2  0  0  0  0
  4  1  1  0  0  0  0
  6  8  1  0  0  0  0
  7  8  1  0  0  0  0
  7  2  2  0  0  0  0
  8  3  2  0  0  0  0
  9 10  1  0  0  0  0
 10 13  2  0  0  0  0
 10  1  1  0  0  0  0
 11  9  1  0  0  0  0
 11 12  2  0  0  0  0
 12 13  1  0  0  0  0
 14 12  1  0  0  0  0
 15 22  1  0  0  0  0
 16 20  1  0  0  0  0
 17 15  1  0  0  0  0
 18 17  2  0  0  0  0
 19 16  2  0  0  0  0
 19 18  1  0  0  0  0
 20 14  1  0  0  0  0
 20 15  2  0  0  0  0
 21 18  1  0  0  0  0
 22 24  1  0  0  0  0
 22 23  1  0  0  0  0
 25 26  1  0  0  0  0
 27 29  1  0  0  0  0
 28 26  1  6  0  0  0
 28 27  1  0  0  0  0
 28 29  1  0  0  0  0
 29 30  1  1  0  0  0
 31 30  1  6  0  0  0
 31 32  1  0  0  0  0
 32 33  1  0  0  0  0
 34 31  1  0  0  0  0
 35 37  1  6  0  0  0
 35 38  1  0  0  0  0
 35 34  1  0  0  0  0
 36 37  1  0  0  0  0
 38 39  1  0  0  0  0
 40 42  1  6  0  0  0
 40 41  1  0  0  0  0
 40 43  1  0  0  0  0
 41 39  1  1  0  0  0
 41 43  1  0  0  0  0
 43 44  1  1  0  0  0
 44 47  1  0  0  0  0
 45 44  2  0  0  0  0
 47 46  1  0  0  0  0
M  END
>  <MODEL>
2

>  <REMARK>
 VINA RESULT:      -7.2      3.136      9.441
  Name = 
  19 active torsions:
  status: ('A' for Active; 'I' for Inactive)
    1  A    between atoms: C_2  and  C_40
    2  A    between atoms: C_2  and  C_47
    3  A    between atoms: C_7  and  CA_12
    4  A    between atoms: O_9  and  C_26
    5  A    between atoms: C_10  and  C_26
    6  A    between atoms: C_10  and  C_41
    7  A    between atoms: C_11  and  C_24
    8  A    between atoms: C_14  and  C_41
    9  A    between atoms: C_15  and  C_45
   10  A    between atoms: C_16  and  C_45
   11  A    between atoms: N_20  and  C_33
   12  A    between atoms: N_20  and  C_44
   13  A    between atoms: C_22  and  C_26
   14  A    between atoms: C_22  and  C_38
   15  A    between atoms: C_24  and  C_35
   16  A    between atoms: C_30  and  C_36
   17  A    between atoms: C_35  and  C_41
   18  A    between atoms: C_36  and  C_37
   19  A    between atoms: C_44  and  C_45
                            x       y       z     vdW  Elec       q    Type
                         _______ _______ _______ _____ _____    ______ ____

>  <TORSDO>
F 19

$$$$
=
 OpenBabel11042411463D

 47 51  0  0  1  0  0  0  0  0999 V2000
  184.8080  179.1110  141.2250 C   0  0  2  0  0  3  0  0  0  0  0  0
  183.5730  179.2360  143.3950 C   0  0  0  0  0  3  0  0  0  0  0  0
  185.7750  178.2510  144.8110 C   0  0  0  0  0  3  0  0  0  0  0  0
  184.7530  178.9200  142.7120 C   0  0  0  0  0  0  0  0  0  0  0  0
  185.8550  178.4240  143.4270 C   0  0  0  0  0  3  0  0  0  0  0  0
  184.5140  178.4020  146.8630 O   0  0  0  0  0  1  0  0  0  0  0  0
  183.4940  179.0640  144.7800 C   0  0  0  0  0  3  0  0  0  0  0  0
  184.5940  178.5710  145.4880 C   0  0  0  0  0  0  0  0  0  0  0  0
  182.6790  179.1460  139.8270 C   0  0  0  0  0  2  0  0  0  0  0  0
  183.6430  178.4700  140.5400 C   0  0  0  0  0  0  0  0  0  0  0  0
  181.8080  178.2340  139.3540 N   0  0  0  0  0  0  0  0  0  0  0  0
  182.2710  177.0510  139.8010 C   0  0  0  0  0  0  0  0  0  0  0  0
  183.4010  177.1460  140.5290 N   0  0  0  0  0  0  0  0  0  0  0  0
  181.6260  175.7490  139.4670 C   0  0  0  0  0  2  0  0  0  0  0  0
  181.4870  174.3140  137.3750 C   0  0  0  0  0  0  0  0  0  0  0  0
  183.5140  175.5400  137.8520 C   0  0  0  0  0  3  0  0  0  0  0  0
  182.0640  173.8400  136.2350 N   0  0  0  0  0  0  0  0  0  0  0  0
  183.3310  174.1790  135.8760 C   0  0  0  0  0  0  0  0  0  0  0  0
  184.0790  175.0390  136.6800 C   0  0  0  0  0  3  0  0  0  0  0  0
  182.2150  175.1790  138.2150 C   0  0  0  0  0  0  0  0  0  0  0  0
  183.8640  173.6870  134.7320 F   0  0  0  0  0  0  0  0  0  0  0  0
  180.0880  173.9070  137.7140 C   0  0  0  0  0  3  0  0  0  0  0  0
  179.2460  174.1470  136.6290 O   0  0  0  0  0  1  0  0  0  0  0  0
  180.0500  172.5520  138.0480 O   0  0  0  0  0  1  0  0  0  0  0  0
  186.1220  178.6240  140.6290 C   0  0  0  0  0  2  0  0  0  0  0  0
  186.0390  178.6260  139.1780 N   0  0  0  0  0  2  0  0  0  0  0  0
  187.8470  178.3620  137.5920 C   0  0  0  0  0  2  0  0  0  0  0  0
  187.0500  177.7030  138.6990 C   0  0  1  0  0  3  0  0  0  0  0  0
  188.4200  178.2790  138.9900 C   0  0  1  0  0  3  0  0  0  0  0  0
  189.4280  177.1480  139.0550 C   0  0  0  0  0  2  0  0  0  0  0  0
  190.4670  177.4320  140.1370 C   0  0  2  0  0  3  0  0  0  0  0  0
  191.7930  177.4600  139.6440 O   0  0  0  0  0  0  0  0  0  0  0  0
  191.9680  176.4070  138.7300 C   0  0  0  0  0  1  0  0  0  0  0  0
  190.2850  176.5150  141.3540 C   0  0  0  0  0  2  0  0  0  0  0  0
  189.3440  177.0860  142.4170 C   0  0  2  0  0  3  0  0  0  0  0  0
  188.7140  179.3460  141.8900 F   0  0  0  0  0  0  0  0  0  0  0  0
  189.5720  178.5780  142.6580 C   0  0  0  0  0  2  0  0  0  0  0  0
  189.3620  176.2740  143.7110 C   0  0  0  0  0  2  0  0  0  0  0  0
  189.7620  177.1330  144.9020 C   0  0  0  0  0  2  0  0  0  0  0  0
  188.9880  177.9930  147.0870 C   0  0  1  0  0  3  0  0  0  0  0  0
  188.8420  176.8640  146.0900 C   0  0  2  0  0  3  0  0  0  0  0  0
  187.7760  178.1810  147.7470 O   0  0  0  0  0  1  0  0  0  0  0  0
  189.5420  176.6220  147.4370 C   0  0  1  0  0  3  0  0  0  0  0  0
  191.0490  176.6110  147.3910 C   0  0  0  0  0  0  0  0  0  0  0  0
  191.6790  177.6340  147.6180 O   0  0  0  0  0  0  0  0  0  0  0  0
  193.0940  175.4350  147.5650 O   0  0  0  0  0  1  0  0  0  0  0  0
  191.7800  175.3390  147.1090 C   0  0  0  0  0  2  0  0  0  0  0  0
  1 25  1  6  0  0  0
  1  4  1  0  0  0  0
  2  7  1  0  0  0  0
  3  8  1  0  0  0  0
  4  2  2  0  0  0  0
  4  5  1  0  0  0  0
  5  3  2  0  0  0  0
  7  8  2  0  0  0  0
  8  6  1  0  0  0  0
  9 10  1  0  0  0  0
 10  1  1  0  0  0  0
 11 12  2  0  0  0  0
 11  9  1  0  0  0  0
 12 13  1  0  0  0  0
 13 10  2  0  0  0  0
 14 12  1  0  0  0  0
 15 22  1  0  0  0  0
 15 20  1  0  0  0  0
 16 20  2  0  0  0  0
 17 15  2  0  0  0  0
 18 17  1  0  0  0  0
 18 19  2  0  0  0  0
 19 16  1  0  0  0  0
 20 14  1  0  0  0  0
 21 18  1  0  0  0  0
 22 24  1  0  0  0  0
 23 22  1  0  0  0  0
 26 25  1  0  0  0  0
 27 28  1  0  0  0  0
 27 29  1  0  0  0  0
 28 29  1  0  0  0  0
 28 26  1  1  0  0  0
 29 30  1  6  0  0  0
 31 30  1  6  0  0  0
 31 34  1  0  0  0  0
 32 31  1  0  0  0  0
 33 32  1  0  0  0  0
 35 34  1  6  0  0  0
 35 37  1  0  0  0  0
 35 38  1  0  0  0  0
 36 37  1  0  0  0  0
 38 39  1  0  0  0  0
 40 43  1  0  0  0  0
 40 42  1  1  0  0  0
 41 39  1  6  0  0  0
 41 40  1  0  0  0  0
 41 43  1  0  0  0  0
 43 44  1  6  0  0  0
 44 45  2  0  0  0  0
 47 44  1  0  0  0  0
 47 46  1  0  0  0  0
M  END
>  <MODEL>
3

>  <REMARK>
 VINA RESULT:      -7.0      3.070      9.343
  Name = 
  19 active torsions:
  status: ('A' for Active; 'I' for Inactive)
    1  A    between atoms: C_2  and  C_40
    2  A    between atoms: C_2  and  C_47
    3  A    between atoms: C_7  and  CA_12
    4  A    between atoms: O_9  and  C_26
    5  A    between atoms: C_10  and  C_26
    6  A    between atoms: C_10  and  C_41
    7  A    between atoms: C_11  and  C_24
    8  A    between atoms: C_14  and  C_41
    9  A    between atoms: C_15  and  C_45
   10  A    between atoms: C_16  and  C_45
   11  A    between atoms: N_20  and  C_33
   12  A    between atoms: N_20  and  C_44
   13  A    between atoms: C_22  and  C_26
   14  A    between atoms: C_22  and  C_38
   15  A    between atoms: C_24  and  C_35
   16  A    between atoms: C_30  and  C_36
   17  A    between atoms: C_35  and  C_41
   18  A    between atoms: C_36  and  C_37
   19  A    between atoms: C_44  and  C_45
                            x       y       z     vdW  Elec       q    Type
                         _______ _______ _______ _____ _____    ______ ____

>  <TORSDO>
F 19

$$$$
=
 OpenBabel11042411463D

 47 51  0  0  1  0  0  0  0  0999 V2000
  189.5000  177.6120  139.9450 C   0  0  2  0  0  3  0  0  0  0  0  0
  190.9350  176.1960  138.4650 C   0  0  0  0  0  3  0  0  0  0  0  0
  193.2720  177.0980  139.7110 C   0  0  0  0  0  3  0  0  0  0  0  0
  190.8510  177.1190  139.5140 C   0  0  0  0  0  0  0  0  0  0  0  0
  192.0270  177.5700  140.1350 C   0  0  0  0  0  3  0  0  0  0  0  0
  194.5840  175.7030  138.2440 O   0  0  0  0  0  1  0  0  0  0  0  0
  192.1800  175.7230  138.0420 C   0  0  0  0  0  3  0  0  0  0  0  0
  193.3480  176.1740  138.6650 C   0  0  0  0  0  0  0  0  0  0  0  0
  189.9480  176.3330  142.1010 C   0  0  0  0  0  2  0  0  0  0  0  0
  189.1420  177.1220  141.3120 C   0  0  0  0  0  0  0  0  0  0  0  0
  189.2930  176.1100  143.2560 N   0  0  0  0  0  0  0  0  0  0  0  0
  188.1220  176.7620  143.1200 C   0  0  0  0  0  0  0  0  0  0  0  0
  187.9880  177.4040  141.9440 N   0  0  0  0  0  0  0  0  0  0  0  0
  187.0940  176.8190  144.1990 C   0  0  0  0  0  2  0  0  0  0  0  0
  186.9600  178.0010  146.4440 C   0  0  0  0  0  0  0  0  0  0  0  0
  189.0470  177.0090  145.7380 C   0  0  0  0  0  3  0  0  0  0  0  0
  187.5600  178.3950  147.6020 N   0  0  0  0  0  0  0  0  0  0  0  0
  188.8670  178.1270  147.8610 C   0  0  0  0  0  0  0  0  0  0  0  0
  189.6350  177.4260  146.9310 C   0  0  0  0  0  3  0  0  0  0  0  0
  187.7050  177.2970  145.4780 C   0  0  0  0  0  0  0  0  0  0  0  0
  189.4230  178.5350  149.0260 F   0  0  0  0  0  0  0  0  0  0  0  0
  185.5160  178.3230  146.2190 C   0  0  0  0  0  3  0  0  0  0  0  0
  184.8800  178.5410  147.4400 O   0  0  0  0  0  1  0  0  0  0  0  0
  185.3970  179.4600  145.4180 O   0  0  0  0  0  1  0  0  0  0  0  0
  188.4110  177.2610  138.9400 C   0  0  0  0  0  2  0  0  0  0  0  0
  187.7160  178.4660  138.5220 N   0  0  0  0  0  2  0  0  0  0  0  0
  187.4090  179.2290  136.2460 C   0  0  0  0  0  2  0  0  0  0  0  0
  187.0650  178.1590  137.2620 C   0  0  1  0  0  3  0  0  0  0  0  0
  188.1240  177.8950  136.2130 C   0  0  1  0  0  3  0  0  0  0  0  0
  187.5280  177.0320  135.1170 C   0  0  0  0  0  2  0  0  0  0  0  0
  187.3470  175.6000  135.6160 C   0  0  2  0  0  3  0  0  0  0  0  0
  188.3310  174.7100  135.1260 O   0  0  0  0  0  0  0  0  0  0  0  0
  188.9130  174.0260  136.2070 C   0  0  0  0  0  1  0  0  0  0  0  0
  185.9110  175.1030  135.4050 C   0  0  0  0  0  2  0  0  0  0  0  0
  185.1640  174.8100  136.7090 C   0  0  2  0  0  3  0  0  0  0  0  0
  185.0150  172.9810  138.2620 F   0  0  0  0  0  0  0  0  0  0  0  0
  184.9270  173.3150  136.9230 C   0  0  0  0  0  2  0  0  0  0  0  0
  183.8850  175.6330  136.8470 C   0  0  0  0  0  2  0  0  0  0  0  0
  183.9440  176.5550  138.0560 C   0  0  0  0  0  2  0  0  0  0  0  0
  181.7410  177.2600  138.9290 C   0  0  1  0  0  3  0  0  0  0  0  0
  182.8300  176.2160  139.0440 C   0  0  2  0  0  3  0  0  0  0  0  0
  180.5100  176.6710  139.2130 O   0  0  0  0  0  1  0  0  0  0  0  0
  182.6090  177.2310  140.1760 C   0  0  1  0  0  3  0  0  0  0  0  0
  183.5700  178.3930  140.2030 C   0  0  0  0  0  0  0  0  0  0  0  0
  184.5890  178.3340  140.8760 O   0  0  0  0  0  0  0  0  0  0  0  0
  184.5030  180.2090  139.0080 O   0  0  0  0  0  1  0  0  0  0  0  0
  183.3000  179.6060  139.3730 C   0  0  0  0  0  2  0  0  0  0  0  0
  1 25  1  6  0  0  0
  1 10  1  0  0  0  0
  2  4  1  0  0  0  0
  3  5  1  0  0  0  0
  4  1  1  0  0  0  0
  4  5  2  0  0  0  0
  6  8  1  0  0  0  0
  7  2  2  0  0  0  0
  7  8  1  0  0  0  0
  8  3  2  0  0  0  0
  9 11  1  0  0  0  0
 10 13  2  0  0  0  0
 10  9  1  0  0  0  0
 12 11  2  0  0  0  0
 12 14  1  0  0  0  0
 13 12  1  0  0  0  0
 14 20  1  0  0  0  0
 15 17  1  0  0  0  0
 16 19  2  0  0  0  0
 17 18  2  0  0  0  0
 18 21  1  0  0  0  0
 19 18  1  0  0  0  0
 20 16  1  0  0  0  0
 20 15  2  0  0  0  0
 22 15  1  0  0  0  0
 22 23  1  0  0  0  0
 24 22  1  0  0  0  0
 26 25  1  0  0  0  0
 27 28  1  0  0  0  0
 28 26  1  1  0  0  0
 29 30  1  6  0  0  0
 29 27  1  0  0  0  0
 29 28  1  0  0  0  0
 31 30  1  6  0  0  0
 32 31  1  0  0  0  0
 32 33  1  0  0  0  0
 34 31  1  0  0  0  0
 35 34  1  6  0  0  0
 35 38  1  0  0  0  0
 35 37  1  0  0  0  0
 37 36  1  0  0  0  0
 38 39  1  0  0  0  0
 40 41  1  0  0  0  0
 40 42  1  1  0  0  0
 40 43  1  0  0  0  0
 41 39  1  6  0  0  0
 41 43  1  0  0  0  0
 43 44  1  6  0  0  0
 44 45  2  0  0  0  0
 46 47  1  0  0  0  0
 47 44  1  0  0  0  0
M  END
>  <MODEL>
4

>  <REMARK>
 VINA RESULT:      -6.9      1.562      2.060
  Name = 
  19 active torsions:
  status: ('A' for Active; 'I' for Inactive)
    1  A    between atoms: C_2  and  C_40
    2  A    between atoms: C_2  and  C_47
    3  A    between atoms: C_7  and  CA_12
    4  A    between atoms: O_9  and  C_26
    5  A    between atoms: C_10  and  C_26
    6  A    between atoms: C_10  and  C_41
    7  A    between atoms: C_11  and  C_24
    8  A    between atoms: C_14  and  C_41
    9  A    between atoms: C_15  and  C_45
   10  A    between atoms: C_16  and  C_45
   11  A    between atoms: N_20  and  C_33
   12  A    between atoms: N_20  and  C_44
   13  A    between atoms: C_22  and  C_26
   14  A    between atoms: C_22  and  C_38
   15  A    between atoms: C_24  and  C_35
   16  A    between atoms: C_30  and  C_36
   17  A    between atoms: C_35  and  C_41
   18  A    between atoms: C_36  and  C_37
   19  A    between atoms: C_44  and  C_45
                            x       y       z     vdW  Elec       q    Type
                         _______ _______ _______ _____ _____    ______ ____

>  <TORSDO>
F 19

$$$$
=
 OpenBabel11042411463D

 47 51  0  0  1  0  0  0  0  0999 V2000
  189.3310  177.3520  138.6490 C   0  0  2  0  0  3  0  0  0  0  0  0
  189.8400  175.1620  137.5550 C   0  0  0  0  0  3  0  0  0  0  0  0
  192.5960  175.5710  137.8030 C   0  0  0  0  0  3  0  0  0  0  0  0
  190.3160  176.3330  138.1550 C   0  0  0  0  0  0  0  0  0  0  0  0
  191.7010  176.5350  138.2760 C   0  0  0  0  0  3  0  0  0  0  0  0
  193.0010  173.4450  136.7380 O   0  0  0  0  0  1  0  0  0  0  0  0
  190.7360  174.1980  137.0830 C   0  0  0  0  0  3  0  0  0  0  0  0
  192.1130  174.4030  137.2070 C   0  0  0  0  0  0  0  0  0  0  0  0
  188.7510  178.4190  140.8880 C   0  0  0  0  0  2  0  0  0  0  0  0
  189.2740  177.3860  140.1430 C   0  0  0  0  0  0  0  0  0  0  0  0
  188.8650  178.0840  142.1870 N   0  0  0  0  0  0  0  0  0  0  0  0
  189.4550  176.8730  142.1790 C   0  0  0  0  0  0  0  0  0  0  0  0
  189.7180  176.4010  140.9460 N   0  0  0  0  0  0  0  0  0  0  0  0
  189.7320  176.0980  143.4230 C   0  0  0  0  0  2  0  0  0  0  0  0
  189.7840  177.1670  145.7270 C   0  0  0  0  0  0  0  0  0  0  0  0
  187.6790  176.9380  144.5620 C   0  0  0  0  0  3  0  0  0  0  0  0
  189.1260  177.7610  146.7610 N   0  0  0  0  0  0  0  0  0  0  0  0
  187.7800  177.9560  146.7400 C   0  0  0  0  0  0  0  0  0  0  0  0
  187.0320  177.5480  145.6350 C   0  0  0  0  0  3  0  0  0  0  0  0
  189.0610  176.7360  144.5980 C   0  0  0  0  0  0  0  0  0  0  0  0
  187.1670  178.5530  147.7890 F   0  0  0  0  0  0  0  0  0  0  0  0
  191.2660  176.9840  145.8090 C   0  0  0  0  0  3  0  0  0  0  0  0
  191.9110  177.9950  145.0960 O   0  0  0  0  0  1  0  0  0  0  0  0
  191.6810  177.0100  147.1410 O   0  0  0  0  0  1  0  0  0  0  0  0
  187.9430  177.1460  138.0570 C   0  0  0  0  0  2  0  0  0  0  0  0
  187.7010  178.1250  137.0120 N   0  0  0  0  0  2  0  0  0  0  0  0
  186.7920  177.6580  134.8180 C   0  0  0  0  0  2  0  0  0  0  0  0
  186.5080  177.6990  136.3060 C   0  0  1  0  0  3  0  0  0  0  0  0
  186.7860  176.3760  135.6230 C   0  0  1  0  0  3  0  0  0  0  0  0
  185.4740  175.6490  135.4020 C   0  0  0  0  0  2  0  0  0  0  0  0
  184.7950  175.3690  136.7410 C   0  0  2  0  0  3  0  0  0  0  0  0
  185.4040  174.3200  137.4670 O   0  0  0  0  0  0  0  0  0  0  0  0
  184.5450  173.2080  137.4800 C   0  0  0  0  0  1  0  0  0  0  0  0
  183.2770  175.2070  136.5860 C   0  0  0  0  0  2  0  0  0  0  0  0
  182.4670  176.2730  137.3280 C   0  0  2  0  0  3  0  0  0  0  0  0
  180.4810  177.6040  137.0760 F   0  0  0  0  0  0  0  0  0  0  0  0
  181.5600  177.0740  136.3930 C   0  0  0  0  0  2  0  0  0  0  0  0
  183.3420  177.1670  138.2050 C   0  0  0  0  0  2  0  0  0  0  0  0
  183.1890  176.8210  139.6790 C   0  0  0  0  0  2  0  0  0  0  0  0
  182.3140  179.1330  139.7250 C   0  0  1  0  0  3  0  0  0  0  0  0
  182.1870  177.7600  140.3480 C   0  0  2  0  0  3  0  0  0  0  0  0
  181.0710  179.7630  139.7480 O   0  0  0  0  0  1  0  0  0  0  0  0
  182.7940  178.9220  141.1510 C   0  0  1  0  0  3  0  0  0  0  0  0
  184.3000  178.9390  141.2310 C   0  0  0  0  0  0  0  0  0  0  0  0
  184.9530  179.5680  140.4100 O   0  0  0  0  0  0  0  0  0  0  0  0
  184.1870  178.1910  143.4720 O   0  0  0  0  0  1  0  0  0  0  0  0
  184.9980  178.2190  142.3380 C   0  0  0  0  0  2  0  0  0  0  0  0
  1 25  1  6  0  0  0
  1 10  1  0  0  0  0
  2  4  1  0  0  0  0
  3  5  1  0  0  0  0
  4  5  2  0  0  0  0
  4  1  1  0  0  0  0
  6  8  1  0  0  0  0
  7  8  1  0  0  0  0
  7  2  2  0  0  0  0
  8  3  2  0  0  0  0
  9 11  1  0  0  0  0
 10  9  1  0  0  0  0
 10 13  2  0  0  0  0
 12 11  2  0  0  0  0
 12 14  1  0  0  0  0
 13 12  1  0  0  0  0
 14 20  1  0  0  0  0
 15 22  1  0  0  0  0
 15 17  1  0  0  0  0
 16 20  1  0  0  0  0
 16 19  2  0  0  0  0
 18 17  2  0  0  0  0
 18 21  1  0  0  0  0
 19 18  1  0  0  0  0
 20 15  2  0  0  0  0
 22 24  1  0  0  0  0
 23 22  1  0  0  0  0
 26 25  1  0  0  0  0
 27 29  1  0  0  0  0
 27 28  1  0  0  0  0
 28 26  1  1  0  0  0
 29 30  1  6  0  0  0
 29 28  1  0  0  0  0
 31 30  1  6  0  0  0
 31 32  1  0  0  0  0
 32 33  1  0  0  0  0
 34 31  1  0  0  0  0
 34 35  1  0  0  0  0
 35 37  1  6  0  0  0
 35 38  1  0  0  0  0
 37 36  1  0  0  0  0
 38 39  1  0  0  0  0
 40 42  1  1  0  0  0
 40 41  1  0  0  0  0
 40 43  1  0  0  0  0
 41 39  1  6  0  0  0
 41 43  1  0  0  0  0
 43 44  1  6  0  0  0
 44 47  1  0  0  0  0
 45 44  2  0  0  0  0
 47 46  1  0  0  0  0
M  END
>  <MODEL>
5

>  <REMARK>
 VINA RESULT:      -6.9      1.952      2.708
  Name = 
  19 active torsions:
  status: ('A' for Active; 'I' for Inactive)
    1  A    between atoms: C_2  and  C_40
    2  A    between atoms: C_2  and  C_47
    3  A    between atoms: C_7  and  CA_12
    4  A    between atoms: O_9  and  C_26
    5  A    between atoms: C_10  and  C_26
    6  A    between atoms: C_10  and  C_41
    7  A    between atoms: C_11  and  C_24
    8  A    between atoms: C_14  and  C_41
    9  A    between atoms: C_15  and  C_45
   10  A    between atoms: C_16  and  C_45
   11  A    between atoms: N_20  and  C_33
   12  A    between atoms: N_20  and  C_44
   13  A    between atoms: C_22  and  C_26
   14  A    between atoms: C_22  and  C_38
   15  A    between atoms: C_24  and  C_35
   16  A    between atoms: C_30  and  C_36
   17  A    between atoms: C_35  and  C_41
   18  A    between atoms: C_36  and  C_37
   19  A    between atoms: C_44  and  C_45
                            x       y       z     vdW  Elec       q    Type
                         _______ _______ _______ _____ _____    ______ ____

>  <TORSDO>
F 19

$$$$
=
 OpenBabel11042411463D

 47 51  0  0  1  0  0  0  0  0999 V2000
  188.0250  177.5880  144.3180 C   0  0  2  0  0  3  0  0  0  0  0  0
  190.4240  177.3530  144.9800 C   0  0  0  0  0  3  0  0  0  0  0  0
  189.7370  176.8840  147.6510 C   0  0  0  0  0  3  0  0  0  0  0  0
  189.0770  177.3410  145.3590 C   0  0  0  0  0  0  0  0  0  0  0  0
  188.7370  177.1060  146.7010 C   0  0  0  0  0  3  0  0  0  0  0  0
  192.0750  176.6720  148.2080 O   0  0  0  0  0  1  0  0  0  0  0  0
  191.4240  177.1290  145.9310 C   0  0  0  0  0  3  0  0  0  0  0  0
  191.0810  176.8950  147.2650 C   0  0  0  0  0  0  0  0  0  0  0  0
  186.6490  178.6240  146.1940 C   0  0  0  0  0  2  0  0  0  0  0  0
  186.7600  178.1110  144.9210 C   0  0  0  0  0  0  0  0  0  0  0  0
  185.3680  178.9990  146.3710 N   0  0  0  0  0  0  0  0  0  0  0  0
  184.7570  178.6960  145.2090 C   0  0  0  0  0  0  0  0  0  0  0  0
  185.5750  178.1540  144.2870 N   0  0  0  0  0  0  0  0  0  0  0  0
  183.3180  178.9920  144.9480 C   0  0  0  0  0  2  0  0  0  0  0  0
  181.6820  178.7990  143.0140 C   0  0  0  0  0  0  0  0  0  0  0  0
  184.0580  178.7180  142.5820 C   0  0  0  0  0  3  0  0  0  0  0  0
  181.4520  178.6640  141.6780 N   0  0  0  0  0  0  0  0  0  0  0  0
  182.4700  178.5530  140.7820 C   0  0  0  0  0  0  0  0  0  0  0  0
  183.7930  178.5790  141.2200 C   0  0  0  0  0  3  0  0  0  0  0  0
  183.0050  178.8230  143.4940 C   0  0  0  0  0  0  0  0  0  0  0  0
  182.1960  178.4230  139.4620 F   0  0  0  0  0  0  0  0  0  0  0  0
  180.5200  178.9210  143.9490 C   0  0  0  0  0  3  0  0  0  0  0  0
  179.6790  179.9530  143.5330 O   0  0  0  0  0  1  0  0  0  0  0  0
  179.8080  177.7210  143.9890 O   0  0  0  0  0  1  0  0  0  0  0  0
  187.7510  176.3520  143.4710 C   0  0  0  0  0  2  0  0  0  0  0  0
  188.8200  176.1690  142.5030 N   0  0  0  0  0  2  0  0  0  0  0  0
  190.3400  177.4510  141.1240 C   0  0  0  0  0  2  0  0  0  0  0  0
  189.0020  177.4440  141.8340 C   0  0  1  0  0  3  0  0  0  0  0  0
  189.0680  177.2100  140.3390 C   0  0  1  0  0  3  0  0  0  0  0  0
  188.6690  178.4850  139.6220 C   0  0  0  0  0  2  0  0  0  0  0  0
  188.5550  178.2300  138.1210 C   0  0  2  0  0  3  0  0  0  0  0  0
  187.4250  178.8460  137.5340 O   0  0  0  0  0  0  0  0  0  0  0  0
  186.2630  178.1730  137.9500 C   0  0  0  0  0  1  0  0  0  0  0  0
  188.6810  176.7370  137.7870 C   0  0  0  0  0  2  0  0  0  0  0  0
  189.1850  176.4650  136.3680 C   0  0  2  0  0  3  0  0  0  0  0  0
  187.7820  174.5370  136.6730 F   0  0  0  0  0  0  0  0  0  0  0  0
  188.5300  175.2340  135.7420 C   0  0  0  0  0  2  0  0  0  0  0  0
  190.7100  176.4230  136.2880 C   0  0  0  0  0  2  0  0  0  0  0  0
  191.2530  175.0690  136.7190 C   0  0  0  0  0  2  0  0  0  0  0  0
  193.0640  176.4040  137.7460 C   0  0  1  0  0  3  0  0  0  0  0  0
  192.1460  175.2170  137.9490 C   0  0  2  0  0  3  0  0  0  0  0  0
  193.3380  176.9860  138.9810 O   0  0  0  0  0  1  0  0  0  0  0  0
  193.6500  175.0020  137.7120 C   0  0  1  0  0  3  0  0  0  0  0  0
  194.0350  174.6030  136.3100 C   0  0  0  0  0  0  0  0  0  0  0  0
  194.1000  175.4450  135.4250 O   0  0  0  0  0  0  0  0  0  0  0  0
  193.2540  172.3740  136.1740 O   0  0  0  0  0  1  0  0  0  0  0  0
  194.3790  173.1810  136.0040 C   0  0  0  0  0  2  0  0  0  0  0  0
  1 25  1  1  0  0  0
  1 10  1  0  0  0  0
  1  4  1  0  0  0  0
  2  4  2  0  0  0  0
  2  7  1  0  0  0  0
  4  5  1  0  0  0  0
  5  3  2  0  0  0  0
  7  8  2  0  0  0  0
  8  3  1  0  0  0  0
  8  6  1  0  0  0  0
  9 11  1  0  0  0  0
 10  9  1  0  0  0  0
 12 11  2  0  0  0  0
 13 10  2  0  0  0  0
 13 12  1  0  0  0  0
 14 12  1  0  0  0  0
 15 20  1  0  0  0  0
 15 22  1  0  0  0  0
 16 20  2  0  0  0  0
 17 15  2  0  0  0  0
 18 19  2  0  0  0  0
 18 17  1  0  0  0  0
 19 16  1  0  0  0  0
 20 14  1  0  0  0  0
 21 18  1  0  0  0  0
 22 24  1  0  0  0  0
 23 22  1  0  0  0  0
 26 25  1  0  0  0  0
 27 28  1  0  0  0  0
 28 26  1  1  0  0  0
 29 30  1  6  0  0  0
 29 27  1  0  0  0  0
 29 28  1  0  0  0  0
 31 34  1  1  0  0  0
 31 30  1  0  0  0  0
 32 33  1  0  0  0  0
 32 31  1  0  0  0  0
 35 37  1  1  0  0  0
 35 34  1  0  0  0  0
 37 36  1  0  0  0  0
 38 35  1  0  0  0  0
 38 39  1  0  0  0  0
 40 41  1  0  0  0  0
 40 42  1  1  0  0  0
 41 39  1  6  0  0  0
 43 44  1  6  0  0  0
 43 40  1  0  0  0  0
 43 41  1  0  0  0  0
 45 44  2  0  0  0  0
 47 46  1  0  0  0  0
 47 44  1  0  0  0  0
M  END
>  <MODEL>
6

>  <REMARK>
 VINA RESULT:      -6.8      2.803      7.456
  Name = 
  19 active torsions:
  status: ('A' for Active; 'I' for Inactive)
    1  A    between atoms: C_2  and  C_40
    2  A    between atoms: C_2  and  C_47
    3  A    between atoms: C_7  and  CA_12
    4  A    between atoms: O_9  and  C_26
    5  A    between atoms: C_10  and  C_26
    6  A    between atoms: C_10  and  C_41
    7  A    between atoms: C_11  and  C_24
    8  A    between atoms: C_14  and  C_41
    9  A    between atoms: C_15  and  C_45
   10  A    between atoms: C_16  and  C_45
   11  A    between atoms: N_20  and  C_33
   12  A    between atoms: N_20  and  C_44
   13  A    between atoms: C_22  and  C_26
   14  A    between atoms: C_22  and  C_38
   15  A    between atoms: C_24  and  C_35
   16  A    between atoms: C_30  and  C_36
   17  A    between atoms: C_35  and  C_41
   18  A    between atoms: C_36  and  C_37
   19  A    between atoms: C_44  and  C_45
                            x       y       z     vdW  Elec       q    Type
                         _______ _______ _______ _____ _____    ______ ____

>  <TORSDO>
F 19

$$$$
=
 OpenBabel11042411463D

 47 51  0  0  1  0  0  0  0  0999 V2000
  187.9950  177.7430  143.4260 C   0  0  2  0  0  3  0  0  0  0  0  0
  186.8200  178.0350  145.6130 C   0  0  0  0  0  3  0  0  0  0  0  0
  189.1610  177.5010  147.0490 C   0  0  0  0  0  3  0  0  0  0  0  0
  188.0070  177.7560  144.9270 C   0  0  0  0  0  0  0  0  0  0  0  0
  189.1790  177.4870  145.6510 C   0  0  0  0  0  3  0  0  0  0  0  0
  187.9530  177.7990  149.1160 O   0  0  0  0  0  1  0  0  0  0  0  0
  186.8030  178.0500  147.0110 C   0  0  0  0  0  3  0  0  0  0  0  0
  187.9720  177.7830  147.7280 C   0  0  0  0  0  0  0  0  0  0  0  0
  186.5990  179.0530  141.7470 C   0  0  0  0  0  2  0  0  0  0  0  0
  186.7100  178.2770  142.8780 C   0  0  0  0  0  0  0  0  0  0  0  0
  185.2930  179.3270  141.5670 N   0  0  0  0  0  0  0  0  0  0  0  0
  184.6690  178.7160  142.5930 C   0  0  0  0  0  0  0  0  0  0  0  0
  185.4990  178.0520  143.4200 N   0  0  0  0  0  0  0  0  0  0  0  0
  183.1870  178.7210  142.7610 C   0  0  0  0  0  2  0  0  0  0  0  0
  181.2030  178.6950  141.1740 C   0  0  0  0  0  0  0  0  0  0  0  0
  183.2210  177.5020  140.5860 C   0  0  0  0  0  3  0  0  0  0  0  0
  180.6460  178.2960  139.9960 N   0  0  0  0  0  0  0  0  0  0  0  0
  181.3210  177.5180  139.1090 C   0  0  0  0  0  0  0  0  0  0  0  0
  182.6250  177.1080  139.3890 C   0  0  0  0  0  3  0  0  0  0  0  0
  182.5150  178.2950  141.4940 C   0  0  0  0  0  0  0  0  0  0  0  0
  180.7300  177.1460  137.9490 F   0  0  0  0  0  0  0  0  0  0  0  0
  180.4100  179.5540  142.1070 C   0  0  0  0  0  3  0  0  0  0  0  0
  179.5420  180.3710  141.3820 O   0  0  0  0  0  1  0  0  0  0  0  0
  179.6790  178.7570  142.9890 O   0  0  0  0  0  1  0  0  0  0  0  0
  188.2950  176.3620  142.8590 C   0  0  0  0  0  2  0  0  0  0  0  0
  189.6780  176.2970  142.4200 N   0  0  0  0  0  2  0  0  0  0  0  0
  191.0130  177.1470  140.5890 C   0  0  0  0  0  2  0  0  0  0  0  0
  189.9040  177.4540  141.5740 C   0  0  1  0  0  3  0  0  0  0  0  0
  189.5680  177.0920  140.1430 C   0  0  1  0  0  3  0  0  0  0  0  0
  189.2270  178.3580  139.3800 C   0  0  0  0  0  2  0  0  0  0  0  0
  188.3270  178.0290  138.1920 C   0  0  2  0  0  3  0  0  0  0  0  0
  187.0480  178.6260  138.2780 O   0  0  0  0  0  0  0  0  0  0  0  0
  186.0740  177.6900  137.8900 C   0  0  0  0  0  1  0  0  0  0  0  0
  188.2820  176.5210  137.9130 C   0  0  0  0  0  2  0  0  0  0  0  0
  188.7730  176.1390  136.5150 C   0  0  2  0  0  3  0  0  0  0  0  0
  188.5400  173.9120  137.3900 F   0  0  0  0  0  0  0  0  0  0  0  0
  188.5980  174.6490  136.2210 C   0  0  0  0  0  2  0  0  0  0  0  0
  190.1950  176.6280  136.2420 C   0  0  0  0  0  2  0  0  0  0  0  0
  191.1950  175.4820  136.2820 C   0  0  0  0  0  2  0  0  0  0  0  0
  193.2250  176.3730  137.3760 C   0  0  1  0  0  3  0  0  0  0  0  0
  191.9960  175.5150  137.5810 C   0  0  2  0  0  3  0  0  0  0  0  0
  193.5580  176.9920  138.5790 O   0  0  0  0  0  1  0  0  0  0  0  0
  193.3900  174.8700  137.5230 C   0  0  1  0  0  3  0  0  0  0  0  0
  193.7530  174.2270  136.2090 C   0  0  0  0  0  0  0  0  0  0  0  0
  194.0400  174.9190  135.2430 O   0  0  0  0  0  0  0  0  0  0  0  0
  192.5080  172.2220  136.0440 O   0  0  0  0  0  1  0  0  0  0  0  0
  193.8020  172.7370  136.0940 C   0  0  0  0  0  2  0  0  0  0  0  0
  1 25  1  1  0  0  0
  1  4  1  0  0  0  0
  2  7  1  0  0  0  0
  3  8  1  0  0  0  0
  4  2  2  0  0  0  0
  4  5  1  0  0  0  0
  5  3  2  0  0  0  0
  7  8  2  0  0  0  0
  8  6  1  0  0  0  0
  9 10  1  0  0  0  0
 10 13  2  0  0  0  0
 10  1  1  0  0  0  0
 11  9  1  0  0  0  0
 11 12  2  0  0  0  0
 12 14  1  0  0  0  0
 12 13  1  0  0  0  0
 15 20  1  0  0  0  0
 15 22  1  0  0  0  0
 16 20  2  0  0  0  0
 17 15  2  0  0  0  0
 18 19  2  0  0  0  0
 18 17  1  0  0  0  0
 19 16  1  0  0  0  0
 20 14  1  0  0  0  0
 21 18  1  0  0  0  0
 22 24  1  0  0  0  0
 23 22  1  0  0  0  0
 26 25  1  0  0  0  0
 27 28  1  0  0  0  0
 28 26  1  1  0  0  0
 29 30  1  6  0  0  0
 29 27  1  0  0  0  0
 29 28  1  0  0  0  0
 31 34  1  1  0  0  0
 31 32  1  0  0  0  0
 31 30  1  0  0  0  0
 33 32  1  0  0  0  0
 35 37  1  1  0  0  0
 35 34  1  0  0  0  0
 37 36  1  0  0  0  0
 38 39  1  0  0  0  0
 38 35  1  0  0  0  0
 40 43  1  0  0  0  0
 40 41  1  0  0  0  0
 40 42  1  1  0  0  0
 41 39  1  6  0  0  0
 43 44  1  6  0  0  0
 43 41  1  0  0  0  0
 45 44  2  0  0  0  0
 46 47  1  0  0  0  0
 47 44  1  0  0  0  0
M  END
>  <MODEL>
7

>  <REMARK>
 VINA RESULT:      -6.7      2.633      7.933
  Name = 
  19 active torsions:
  status: ('A' for Active; 'I' for Inactive)
    1  A    between atoms: C_2  and  C_40
    2  A    between atoms: C_2  and  C_47
    3  A    between atoms: C_7  and  CA_12
    4  A    between atoms: O_9  and  C_26
    5  A    between atoms: C_10  and  C_26
    6  A    between atoms: C_10  and  C_41
    7  A    between atoms: C_11  and  C_24
    8  A    between atoms: C_14  and  C_41
    9  A    between atoms: C_15  and  C_45
   10  A    between atoms: C_16  and  C_45
   11  A    between atoms: N_20  and  C_33
   12  A    between atoms: N_20  and  C_44
   13  A    between atoms: C_22  and  C_26
   14  A    between atoms: C_22  and  C_38
   15  A    between atoms: C_24  and  C_35
   16  A    between atoms: C_30  and  C_36
   17  A    between atoms: C_35  and  C_41
   18  A    between atoms: C_36  and  C_37
   19  A    between atoms: C_44  and  C_45
                            x       y       z     vdW  Elec       q    Type
                         _______ _______ _______ _____ _____    ______ ____

>  <TORSDO>
F 19

$$$$
=
 OpenBabel11042411463D

 47 51  0  0  1  0  0  0  0  0999 V2000
  188.2280  177.6050  143.4630 C   0  0  2  0  0  3  0  0  0  0  0  0
  189.3000  177.4690  145.7180 C   0  0  0  0  0  3  0  0  0  0  0  0
  186.8790  178.0210  147.0050 C   0  0  0  0  0  3  0  0  0  0  0  0
  188.1420  177.6780  144.9600 C   0  0  0  0  0  0  0  0  0  0  0  0
  186.9290  177.9560  145.6100 C   0  0  0  0  0  3  0  0  0  0  0  0
  187.9890  177.8730  149.1420 O   0  0  0  0  0  1  0  0  0  0  0  0
  189.2480  177.5340  147.1130 C   0  0  0  0  0  3  0  0  0  0  0  0
  188.0390  177.8100  147.7570 C   0  0  0  0  0  0  0  0  0  0  0  0
  185.6930  177.8380  143.3820 C   0  0  0  0  0  2  0  0  0  0  0  0
  186.9380  177.9950  142.8150 C   0  0  0  0  0  0  0  0  0  0  0  0
  184.7850  178.3120  142.5080 N   0  0  0  0  0  0  0  0  0  0  0  0
  185.5090  178.7290  141.4510 C   0  0  0  0  0  0  0  0  0  0  0  0
  186.8370  178.5610  141.5980 N   0  0  0  0  0  0  0  0  0  0  0  0
  184.8990  179.3760  140.2540 C   0  0  0  0  0  2  0  0  0  0  0  0
  183.6310  177.6500  138.8870 C   0  0  0  0  0  0  0  0  0  0  0  0
  185.8860  178.2490  138.2610 C   0  0  0  0  0  3  0  0  0  0  0  0
  183.5850  176.7900  137.8320 N   0  0  0  0  0  0  0  0  0  0  0  0
  184.6410  176.6300  136.9890 C   0  0  0  0  0  0  0  0  0  0  0  0
  185.8120  177.3610  137.1890 C   0  0  0  0  0  3  0  0  0  0  0  0
  184.7990  178.4000  139.1240 C   0  0  0  0  0  0  0  0  0  0  0  0
  184.5510  175.7660  135.9500 F   0  0  0  0  0  0  0  0  0  0  0  0
  182.4350  177.7840  139.7760 C   0  0  0  0  0  3  0  0  0  0  0  0
  181.5770  178.7630  139.2770 O   0  0  0  0  0  1  0  0  0  0  0  0
  181.7600  176.5660  139.8600 O   0  0  0  0  0  1  0  0  0  0  0  0
  188.6870  176.2370  142.9770 C   0  0  0  0  0  2  0  0  0  0  0  0
  190.0890  176.2910  142.6000 N   0  0  0  0  0  2  0  0  0  0  0  0
  191.4450  177.1270  140.7780 C   0  0  0  0  0  2  0  0  0  0  0  0
  190.2230  177.3700  141.6400 C   0  0  1  0  0  3  0  0  0  0  0  0
  190.0660  176.8090  140.2420 C   0  0  1  0  0  3  0  0  0  0  0  0
  189.6190  177.9190  139.3110 C   0  0  0  0  0  2  0  0  0  0  0  0
  189.7710  177.4790  137.8570 C   0  0  2  0  0  3  0  0  0  0  0  0
  189.1590  178.3640  136.9390 O   0  0  0  0  0  0  0  0  0  0  0  0
  189.1770  177.7850  135.6580 C   0  0  0  0  0  1  0  0  0  0  0  0
  189.3610  176.0130  137.6620 C   0  0  0  0  0  2  0  0  0  0  0  0
  190.3680  175.1970  136.8470 C   0  0  2  0  0  3  0  0  0  0  0  0
  189.4310  173.0160  137.2240 F   0  0  0  0  0  0  0  0  0  0  0  0
  189.7460  173.9380  136.2430 C   0  0  0  0  0  2  0  0  0  0  0  0
  191.6490  174.9040  137.6260 C   0  0  0  0  0  2  0  0  0  0  0  0
  192.8850  175.3110  136.8380 C   0  0  0  0  0  2  0  0  0  0  0  0
  193.7190  172.9830  136.8170 C   0  0  1  0  0  3  0  0  0  0  0  0
  193.3530  174.1640  135.9450 C   0  0  2  0  0  3  0  0  0  0  0  0
  193.4580  171.8030  136.1230 O   0  0  0  0  0  1  0  0  0  0  0  0
  194.8240  173.7470  136.1080 C   0  0  1  0  0  3  0  0  0  0  0  0
  195.6290  174.5750  137.0780 C   0  0  0  0  0  0  0  0  0  0  0  0
  196.1300  175.6300  136.7190 O   0  0  0  0  0  0  0  0  0  0  0  0
  195.4390  175.1650  139.3610 O   0  0  0  0  0  1  0  0  0  0  0  0
  195.7820  174.1260  138.4950 C   0  0  0  0  0  2  0  0  0  0  0  0
  1 25  1  1  0  0  0
  1  4  1  0  0  0  0
  2  7  1  0  0  0  0
  3  8  1  0  0  0  0
  4  5  1  0  0  0  0
  4  2  2  0  0  0  0
  5  3  2  0  0  0  0
  7  8  2  0  0  0  0
  8  6  1  0  0  0  0
 10  9  1  0  0  0  0
 10  1  1  0  0  0  0
 11  9  1  0  0  0  0
 12 13  1  0  0  0  0
 12 11  2  0  0  0  0
 13 10  2  0  0  0  0
 14 12  1  0  0  0  0
 15 20  1  0  0  0  0
 15 22  1  0  0  0  0
 16 20  2  0  0  0  0
 17 15  2  0  0  0  0
 18 19  2  0  0  0  0
 18 17  1  0  0  0  0
 19 16  1  0  0  0  0
 20 14  1  0  0  0  0
 21 18  1  0  0  0  0
 22 24  1  0  0  0  0
 23 22  1  0  0  0  0
 26 25  1  0  0  0  0
 27 28  1  0  0  0  0
 28 26  1  1  0  0  0
 29 30  1  6  0  0  0
 29 27  1  0  0  0  0
 29 28  1  0  0  0  0
 31 34  1  1  0  0  0
 31 30  1  0  0  0  0
 32 31  1  0  0  0  0
 33 32  1  0  0  0  0
 35 37  1  1  0  0  0
 35 38  1  0  0  0  0
 35 34  1  0  0  0  0
 37 36  1  0  0  0  0
 39 38  1  0  0  0  0
 40 42  1  6  0  0  0
 41 43  1  0  0  0  0
 41 40  1  0  0  0  0
 41 39  1  1  0  0  0
 43 40  1  0  0  0  0
 43 44  1  1  0  0  0
 44 47  1  0  0  0  0
 45 44  2  0  0  0  0
 47 46  1  0  0  0  0
M  END
>  <MODEL>
8

>  <REMARK>
 VINA RESULT:      -6.6      2.510      8.477
  Name = 
  19 active torsions:
  status: ('A' for Active; 'I' for Inactive)
    1  A    between atoms: C_2  and  C_40
    2  A    between atoms: C_2  and  C_47
    3  A    between atoms: C_7  and  CA_12
    4  A    between atoms: O_9  and  C_26
    5  A    between atoms: C_10  and  C_26
    6  A    between atoms: C_10  and  C_41
    7  A    between atoms: C_11  and  C_24
    8  A    between atoms: C_14  and  C_41
    9  A    between atoms: C_15  and  C_45
   10  A    between atoms: C_16  and  C_45
   11  A    between atoms: N_20  and  C_33
   12  A    between atoms: N_20  and  C_44
   13  A    between atoms: C_22  and  C_26
   14  A    between atoms: C_22  and  C_38
   15  A    between atoms: C_24  and  C_35
   16  A    between atoms: C_30  and  C_36
   17  A    between atoms: C_35  and  C_41
   18  A    between atoms: C_36  and  C_37
   19  A    between atoms: C_44  and  C_45
                            x       y       z     vdW  Elec       q    Type
                         _______ _______ _______ _____ _____    ______ ____

>  <TORSDO>
F 19

$$$$
=
 OpenBabel11042411463D

 47 51  0  0  1  0  0  0  0  0999 V2000
  184.0400  179.1370  140.0360 C   0  0  2  0  0  3  0  0  0  0  0  0
  185.1200  179.2670  142.2870 C   0  0  0  0  0  3  0  0  0  0  0  0
  182.6870  178.7910  143.5840 C   0  0  0  0  0  3  0  0  0  0  0  0
  183.9570  179.0760  141.5330 C   0  0  0  0  0  0  0  0  0  0  0  0
  182.7380  178.8390  142.1880 C   0  0  0  0  0  3  0  0  0  0  0  0
  183.8050  178.9330  145.7180 O   0  0  0  0  0  1  0  0  0  0  0  0
  185.0690  179.2190  143.6830 C   0  0  0  0  0  3  0  0  0  0  0  0
  183.8540  178.9810  144.3310 C   0  0  0  0  0  0  0  0  0  0  0  0
  181.8810  180.0190  139.0130 C   0  0  0  0  0  2  0  0  0  0  0  0
  182.6960  178.9790  139.3990 C   0  0  0  0  0  0  0  0  0  0  0  0
  180.7690  179.4850  138.4730 N   0  0  0  0  0  0  0  0  0  0  0  0
  180.9490  178.1530  138.5590 C   0  0  0  0  0  0  0  0  0  0  0  0
  182.1230  177.7950  139.1150 N   0  0  0  0  0  0  0  0  0  0  0  0
  179.9660  177.1650  138.0290 C   0  0  0  0  0  2  0  0  0  0  0  0
  180.0800  174.7020  138.6440 C   0  0  0  0  0  0  0  0  0  0  0  0
  179.3470  176.3130  140.2890 C   0  0  0  0  0  3  0  0  0  0  0  0
  179.9200  173.7130  139.5680 N   0  0  0  0  0  0  0  0  0  0  0  0
  179.4840  173.9720  140.8300 C   0  0  0  0  0  0  0  0  0  0  0  0
  179.1910  175.2800  141.2140 C   0  0  0  0  0  3  0  0  0  0  0  0
  179.7870  176.0350  138.9940 C   0  0  0  0  0  0  0  0  0  0  0  0
  179.3420  172.9590  141.7170 F   0  0  0  0  0  0  0  0  0  0  0  0
  180.5670  174.3540  137.2730 C   0  0  0  0  0  3  0  0  0  0  0  0
  181.9540  174.4820  137.2130 O   0  0  0  0  0  1  0  0  0  0  0  0
  180.2010  173.0460  136.9520 O   0  0  0  0  0  1  0  0  0  0  0  0
  185.0300  178.1250  139.4720 C   0  0  0  0  0  2  0  0  0  0  0  0
  185.6740  178.6700  138.2890 N   0  0  0  0  0  2  0  0  0  0  0  0
  187.1070  178.0860  136.4290 C   0  0  0  0  0  2  0  0  0  0  0  0
  186.3610  177.5680  137.6410 C   0  0  1  0  0  3  0  0  0  0  0  0
  187.8550  177.8080  137.7150 C   0  0  1  0  0  3  0  0  0  0  0  0
  188.5740  176.4770  137.6020 C   0  0  0  0  0  2  0  0  0  0  0  0
  190.0310  176.6300  138.0310 C   0  0  2  0  0  3  0  0  0  0  0  0
  190.6260  175.4100  138.4310 O   0  0  0  0  0  0  0  0  0  0  0  0
  191.9820  175.4150  138.0590 C   0  0  0  0  0  1  0  0  0  0  0  0
  190.2070  177.7610  139.0530 C   0  0  0  0  0  2  0  0  0  0  0  0
  189.8960  177.3430  140.4920 C   0  0  2  0  0  3  0  0  0  0  0  0
  187.8950  177.3230  141.8250 F   0  0  0  0  0  0  0  0  0  0  0  0
  188.7380  178.1400  141.0940 C   0  0  0  0  0  2  0  0  0  0  0  0
  191.1370  177.3460  141.3830 C   0  0  0  0  0  2  0  0  0  0  0  0
  190.8250  177.8900  142.7690 C   0  0  0  0  0  2  0  0  0  0  0  0
  191.2180  175.7470  143.9380 C   0  0  1  0  0  3  0  0  0  0  0  0
  191.6730  177.1860  143.8250 C   0  0  2  0  0  3  0  0  0  0  0  0
  192.3060  174.9480  144.2830 O   0  0  0  0  0  1  0  0  0  0  0  0
  190.9210  176.7070  145.0780 C   0  0  1  0  0  3  0  0  0  0  0  0
  189.4560  177.0610  145.1290 C   0  0  0  0  0  0  0  0  0  0  0  0
  188.6650  176.5200  144.3700 O   0  0  0  0  0  0  0  0  0  0  0  0
  188.8490  177.4360  147.3840 O   0  0  0  0  0  1  0  0  0  0  0  0
  188.9600  178.0470  146.1360 C   0  0  0  0  0  2  0  0  0  0  0  0
  1 25  1  6  0  0  0
  1  4  1  0  0  0  0
  2  7  1  0  0  0  0
  3  8  1  0  0  0  0
  4  5  1  0  0  0  0
  4  2  2  0  0  0  0
  5  3  2  0  0  0  0
  7  8  2  0  0  0  0
  8  6  1  0  0  0  0
  9 10  1  0  0  0  0
 10  1  1  0  0  0  0
 11 12  2  0  0  0  0
 11  9  1  0  0  0  0
 12 13  1  0  0  0  0
 13 10  2  0  0  0  0
 14 12  1  0  0  0  0
 14 20  1  0  0  0  0
 15 20  2  0  0  0  0
 15 17  1  0  0  0  0
 16 19  2  0  0  0  0
 17 18  2  0  0  0  0
 18 19  1  0  0  0  0
 18 21  1  0  0  0  0
 20 16  1  0  0  0  0
 22 15  1  0  0  0  0
 23 22  1  0  0  0  0
 24 22  1  0  0  0  0
 26 25  1  0  0  0  0
 27 28  1  0  0  0  0
 27 29  1  0  0  0  0
 28 29  1  0  0  0  0
 28 26  1  1  0  0  0
 29 30  1  6  0  0  0
 31 30  1  1  0  0  0
 31 32  1  0  0  0  0
 31 34  1  0  0  0  0
 33 32  1  0  0  0  0
 35 34  1  6  0  0  0
 35 37  1  0  0  0  0
 35 38  1  0  0  0  0
 37 36  1  0  0  0  0
 38 39  1  0  0  0  0
 40 42  1  1  0  0  0
 40 43  1  0  0  0  0
 41 39  1  6  0  0  0
 41 40  1  0  0  0  0
 41 43  1  0  0  0  0
 43 44  1  6  0  0  0
 44 47  1  0  0  0  0
 45 44  2  0  0  0  0
 47 46  1  0  0  0  0
M  END
>  <MODEL>
9

>  <REMARK>
 VINA RESULT:      -6.5      3.611      8.962
  Name = 
  19 active torsions:
  status: ('A' for Active; 'I' for Inactive)
    1  A    between atoms: C_2  and  C_40
    2  A    between atoms: C_2  and  C_47
    3  A    between atoms: C_7  and  CA_12
    4  A    between atoms: O_9  and  C_26
    5  A    between atoms: C_10  and  C_26
    6  A    between atoms: C_10  and  C_41
    7  A    between atoms: C_11  and  C_24
    8  A    between atoms: C_14  and  C_41
    9  A    between atoms: C_15  and  C_45
   10  A    between atoms: C_16  and  C_45
   11  A    between atoms: N_20  and  C_33
   12  A    between atoms: N_20  and  C_44
   13  A    between atoms: C_22  and  C_26
   14  A    between atoms: C_22  and  C_38
   15  A    between atoms: C_24  and  C_35
   16  A    between atoms: C_30  and  C_36
   17  A    between atoms: C_35  and  C_41
   18  A    between atoms: C_36  and  C_37
   19  A    between atoms: C_44  and  C_45
                            x       y       z     vdW  Elec       q    Type
                         _______ _______ _______ _____ _____    ______ ____

>  <TORSDO>
F 19

$$$$
