=
 OpenBabel11032419153D

 30 34  0  0  1  0  0  0  0  0999 V2000
  184.4380  172.5980  135.9520 C   0  0  2  0  0  3  0  0  0  0  0  0
  185.9380  172.7720  136.1550 C   0  0  0  0  0  2  0  0  0  0  0  0
  182.8190  174.4450  136.1950 C   0  0  2  0  0  3  0  0  0  0  0  0
  188.1190  177.9320  137.9780 C   0  0  1  0  0  3  0  0  0  0  0  0
  184.8350  177.3880  137.4820 N   0  0  0  0  0  0  0  0  0  0  0  0
  182.5720  179.0890  137.5350 C   0  0  1  0  0  3  0  0  0  0  0  0
  181.8090  175.1650  135.2990 C   0  0  0  0  0  2  0  0  0  0  0  0
  183.4440  175.3920  137.1810 C   0  0  0  0  0  0  0  0  0  0  0  0
  183.6650  176.8290  136.7970 C   0  0  1  0  0  3  0  0  0  0  0  0
  187.2160  176.7380  137.7260 C   0  0  1  0  0  3  0  0  0  0  0  0
  183.8390  173.8070  135.3590 N   0  0  0  0  0  2  0  0  0  0  0  0
  186.1440  177.2960  136.8160 C   0  0  2  0  0  3  0  0  0  0  0  0
  183.5040  179.1510  138.7320 C   0  0  2  0  0  3  0  0  0  0  0  0
  182.4070  177.6660  137.0110 C   0  0  0  0  0  0  0  0  0  0  0  0
  187.4820  179.1000  137.5270 O   0  0  0  0  0  0  0  0  0  0  0  0
  184.6330  178.1660  138.6740 C   0  0  0  0  0  0  0  0  0  0  0  0
  181.2570  179.3410  139.5580 N   0  0  0  0  0  2  0  0  0  0  0  0
  183.6520  175.0220  138.3240 O   0  0  0  0  0  0  0  0  0  0  0  0
  186.2470  173.9880  137.0090 C   0  0  0  0  0  2  0  0  0  0  0  0
  187.6180  174.4730  136.7000 C   0  0  0  0  0  3  0  0  0  0  0  0
  180.7590  175.8710  136.1490 C   0  0  0  0  0  2  0  0  0  0  0  0
  186.6580  178.6780  136.4740 C   0  0  0  0  0  2  0  0  0  0  0  0
  188.0430  175.6990  137.0200 C   0  0  0  0  0  3  0  0  0  0  0  0
  182.6090  178.9380  139.9330 C   0  0  0  0  0  2  0  0  0  0  0  0
  183.7460  172.0250  137.1910 C   0  0  0  0  0  1  0  0  0  0  0  0
  181.2790  179.6400  138.1250 C   0  0  0  0  0  2  0  0  0  0  0  0
  185.4220  178.0590  139.6500 O   0  0  0  0  0  0  0  0  0  0  0  0
  181.1780  177.2470  136.6170 C   0  0  0  0  0  3  0  0  0  0  0  0
  188.7250  178.1240  140.5720 C   0  0  0  0  0  3  0  0  0  0  0  0
  188.4470  178.0460  139.4020 C   0  0  0  0  0  0  0  0  0  0  0  0
  1  2  1  0  0  0  0
  1 25  1  1  0  0  0
  2 19  1  0  0  0  0
  3  7  1  6  0  0  0
  3  8  1  0  0  0  0
  4 30  1  1  0  0  0
  5 16  1  0  0  0  0
  6 26  1  1  0  0  0
  6 13  1  0  0  0  0
  7 21  1  0  0  0  0
  8 18  2  0  0  0  0
  9 14  1  1  0  0  0
  9  8  1  0  0  0  0
  9  5  1  0  0  0  0
 10 23  1  6  0  0  0
 10  4  1  0  0  0  0
 11  1  1  0  0  0  0
 11  3  1  0  0  0  0
 12 22  1  1  0  0  0
 12  5  1  0  0  0  0
 12 10  1  0  0  0  0
 13 24  1  1  0  0  0
 14  6  1  0  0  0  0
 15  4  1  0  0  0  0
 16 13  1  0  0  0  0
 16 27  2  0  0  0  0
 17 24  1  0  0  0  0
 20 19  1  0  0  0  0
 20 23  2  0  0  0  0
 21 28  1  0  0  0  0
 22 15  1  0  0  0  0
 26 17  1  0  0  0  0
 28 14  2  0  0  0  0
 30 29  3  0  0  0  0
M  END
>  <MODEL>
1

>  <REMARK>
 VINA RESULT:      -5.2      0.000      0.000
  Name = 
  1 active torsions:
  status: ('A' for Active; 'I' for Inactive)
    1  A    between atoms: C_4  and  C_30
                            x       y       z     vdW  Elec       q    Type
                         _______ _______ _______ _____ _____    ______ ____

>  <TORSDO>
F 1

$$$$
=
 OpenBabel11032419153D

 30 34  0  0  1  0  0  0  0  0999 V2000
  190.5290  177.7910  142.7260 C   0  0  2  0  0  3  0  0  0  0  0  0
  189.0740  178.2380  142.6720 C   0  0  0  0  0  2  0  0  0  0  0  0
  191.8120  177.1280  140.7250 C   0  0  2  0  0  3  0  0  0  0  0  0
  186.0920  178.0790  137.5940 C   0  0  1  0  0  3  0  0  0  0  0  0
  189.3070  177.1270  137.8770 N   0  0  0  0  0  0  0  0  0  0  0  0
  191.2610  176.3570  135.9780 C   0  0  1  0  0  3  0  0  0  0  0  0
  193.0680  177.6120  139.9960 C   0  0  0  0  0  2  0  0  0  0  0  0
  190.7900  176.6010  139.7560 C   0  0  0  0  0  0  0  0  0  0  0  0
  190.6810  177.2060  138.3850 C   0  0  1  0  0  3  0  0  0  0  0  0
  187.0730  177.8000  138.7180 C   0  0  1  0  0  3  0  0  0  0  0  0
  191.2620  178.2260  141.5230 N   0  0  0  0  0  2  0  0  0  0  0  0
  188.3980  178.2530  138.1450 C   0  0  2  0  0  3  0  0  0  0  0  0
  189.9160  175.6600  135.8980 C   0  0  2  0  0  3  0  0  0  0  0  0
  191.6960  176.5990  137.4200 C   0  0  0  0  0  0  0  0  0  0  0  0
  186.8030  178.3650  136.4170 O   0  0  0  0  0  0  0  0  0  0  0  0
  188.9600  176.0570  136.9830 C   0  0  0  0  0  0  0  0  0  0  0  0
  191.6060  174.0190  135.4320 N   0  0  0  0  0  2  0  0  0  0  0  0
  190.1450  175.6060  140.0420 O   0  0  0  0  0  0  0  0  0  0  0  0
  188.3810  177.7330  141.4200 C   0  0  0  0  0  2  0  0  0  0  0  0
  187.2400  178.6280  141.0910 C   0  0  0  0  0  3  0  0  0  0  0  0
  193.6360  176.4980  139.1250 C   0  0  0  0  0  2  0  0  0  0  0  0
  188.0080  178.9340  136.8520 C   0  0  0  0  0  2  0  0  0  0  0  0
  186.6630  178.6550  139.8860 C   0  0  0  0  0  3  0  0  0  0  0  0
  190.2410  174.1830  135.9230 C   0  0  0  0  0  2  0  0  0  0  0  0
  190.6710  176.3200  143.1230 C   0  0  0  0  0  1  0  0  0  0  0  0
  192.1660  175.3610  135.2620 C   0  0  0  0  0  2  0  0  0  0  0  0
  187.8430  175.4810  137.0750 O   0  0  0  0  0  0  0  0  0  0  0  0
  192.9960  176.4060  137.7580 C   0  0  0  0  0  3  0  0  0  0  0  0
  184.4480  176.0080  137.2180 C   0  0  0  0  0  3  0  0  0  0  0  0
  185.1970  176.9360  137.3870 C   0  0  0  0  0  0  0  0  0  0  0  0
  1 25  1  6  0  0  0
  2  1  1  0  0  0  0
  3  7  1  6  0  0  0
  3 11  1  0  0  0  0
  4 30  1  6  0  0  0
  4 10  1  0  0  0  0
  5 12  1  0  0  0  0
  5  9  1  0  0  0  0
  6 26  1  1  0  0  0
  6 14  1  0  0  0  0
  8 18  2  0  0  0  0
  8  3  1  0  0  0  0
  9 14  1  6  0  0  0
  9  8  1  0  0  0  0
 10 23  1  1  0  0  0
 11  1  1  0  0  0  0
 12 22  1  6  0  0  0
 12 10  1  0  0  0  0
 13 24  1  1  0  0  0
 13  6  1  0  0  0  0
 13 16  1  0  0  0  0
 14 28  2  0  0  0  0
 15 22  1  0  0  0  0
 15  4  1  0  0  0  0
 16 27  2  0  0  0  0
 16  5  1  0  0  0  0
 17 24  1  0  0  0  0
 19  2  1  0  0  0  0
 20 19  1  0  0  0  0
 21  7  1  0  0  0  0
 23 20  2  0  0  0  0
 26 17  1  0  0  0  0
 28 21  1  0  0  0  0
 29 30  3  0  0  0  0
M  END
>  <MODEL>
2

>  <REMARK>
 VINA RESULT:      -5.2      3.558      8.169
  Name = 
  1 active torsions:
  status: ('A' for Active; 'I' for Inactive)
    1  A    between atoms: C_4  and  C_30
                            x       y       z     vdW  Elec       q    Type
                         _______ _______ _______ _____ _____    ______ ____

>  <TORSDO>
F 1

$$$$
=
 OpenBabel11032419153D

 30 34  0  0  1  0  0  0  0  0999 V2000
  186.3140  174.1680  135.3070 C   0  0  2  0  0  3  0  0  0  0  0  0
  187.0790  175.3480  135.8940 C   0  0  0  0  0  2  0  0  0  0  0  0
  183.8860  173.8460  135.6160 C   0  0  2  0  0  3  0  0  0  0  0  0
  184.3580  179.2170  139.4050 C   0  0  1  0  0  3  0  0  0  0  0  0
  182.8090  176.5640  138.0320 N   0  0  0  0  0  0  0  0  0  0  0  0
  180.1030  175.7320  137.9750 C   0  0  1  0  0  3  0  0  0  0  0  0
  182.6510  173.7630  134.7160 C   0  0  0  0  0  2  0  0  0  0  0  0
  183.5620  174.5110  136.9250 C   0  0  0  0  0  0  0  0  0  0  0  0
  182.5170  175.5910  136.9740 C   0  0  1  0  0  3  0  0  0  0  0  0
  184.7630  177.9590  138.6580 C   0  0  1  0  0  3  0  0  0  0  0  0
  184.9500  174.5650  134.9110 N   0  0  0  0  0  2  0  0  0  0  0  0
  183.6190  177.7440  137.6910 C   0  0  2  0  0  3  0  0  0  0  0  0
  180.6850  176.0790  139.3340 C   0  0  2  0  0  3  0  0  0  0  0  0
  181.1120  175.0080  137.0890 C   0  0  0  0  0  0  0  0  0  0  0  0
  183.0150  179.5140  139.1230 O   0  0  0  0  0  0  0  0  0  0  0  0
  182.1420  176.4310  139.2990 C   0  0  0  0  0  0  0  0  0  0  0  0
  179.2480  174.1770  139.6290 N   0  0  0  0  0  2  0  0  0  0  0  0
  184.0550  174.0850  137.9560 O   0  0  0  0  0  0  0  0  0  0  0  0
  186.3430  175.9590  137.0720 C   0  0  0  0  0  2  0  0  0  0  0  0
  186.7510  177.3810  137.2250 C   0  0  0  0  0  3  0  0  0  0  0  0
  181.5140  173.0550  135.4440 C   0  0  0  0  0  2  0  0  0  0  0  0
  182.7960  179.0060  137.8350 C   0  0  0  0  0  2  0  0  0  0  0  0
  186.0420  178.2670  137.9300 C   0  0  0  0  0  3  0  0  0  0  0  0
  180.4000  174.8710  140.1980 C   0  0  0  0  0  2  0  0  0  0  0  0
  186.4400  172.9070  136.1660 C   0  0  0  0  0  1  0  0  0  0  0  0
  178.9310  174.8390  138.3620 C   0  0  0  0  0  2  0  0  0  0  0  0
  182.7590  176.6510  140.3750 O   0  0  0  0  0  0  0  0  0  0  0  0
  180.6910  173.9670  136.3250 C   0  0  0  0  0  3  0  0  0  0  0  0
  184.7310  178.9120  142.0320 C   0  0  0  0  0  3  0  0  0  0  0  0
  184.5540  179.0530  140.8490 C   0  0  0  0  0  0  0  0  0  0  0  0
  1  2  1  0  0  0  0
  1 25  1  1  0  0  0
  2 19  1  0  0  0  0
  3  7  1  6  0  0  0
  3  8  1  0  0  0  0
  4 30  1  1  0  0  0
  5 16  1  0  0  0  0
  6 26  1  1  0  0  0
  6 13  1  0  0  0  0
  7 21  1  0  0  0  0
  8 18  2  0  0  0  0
  9  8  1  1  0  0  0
  9 14  1  0  0  0  0
  9  5  1  0  0  0  0
 10 23  1  6  0  0  0
 10  4  1  0  0  0  0
 11  1  1  0  0  0  0
 11  3  1  0  0  0  0
 12 22  1  1  0  0  0
 12  5  1  0  0  0  0
 12 10  1  0  0  0  0
 13 24  1  1  0  0  0
 14  6  1  0  0  0  0
 15  4  1  0  0  0  0
 16 13  1  0  0  0  0
 16 27  2  0  0  0  0
 17 24  1  0  0  0  0
 19 20  1  0  0  0  0
 20 23  2  0  0  0  0
 21 28  1  0  0  0  0
 22 15  1  0  0  0  0
 26 17  1  0  0  0  0
 28 14  2  0  0  0  0
 30 29  3  0  0  0  0
M  END
>  <MODEL>
3

>  <REMARK>
 VINA RESULT:      -5.1      2.184      3.363
  Name = 
  1 active torsions:
  status: ('A' for Active; 'I' for Inactive)
    1  A    between atoms: C_4  and  C_30
                            x       y       z     vdW  Elec       q    Type
                         _______ _______ _______ _____ _____    ______ ____

>  <TORSDO>
F 1

$$$$
=
 OpenBabel11032419153D

 30 34  0  0  1  0  0  0  0  0999 V2000
  183.5680  179.0120  144.3150 C   0  0  2  0  0  3  0  0  0  0  0  0
  184.5480  178.6850  145.4350 C   0  0  0  0  0  2  0  0  0  0  0  0
  184.1000  178.7050  141.9240 C   0  0  2  0  0  3  0  0  0  0  0  0
  190.0390  176.9570  144.1840 C   0  0  1  0  0  3  0  0  0  0  0  0
  187.7600  177.7140  141.8260 N   0  0  0  0  0  0  0  0  0  0  0  0
  187.7670  177.4990  139.0030 C   0  0  1  0  0  3  0  0  0  0  0  0
  183.5530  177.8780  140.7590 C   0  0  0  0  0  2  0  0  0  0  0  0
  185.5930  178.8590  141.8280 C   0  0  0  0  0  0  0  0  0  0  0  0
  186.4190  177.7540  141.2320 C   0  0  1  0  0  3  0  0  0  0  0  0
  188.6660  177.6030  144.1330 C   0  0  1  0  0  3  0  0  0  0  0  0
  183.7180  178.0720  143.1880 N   0  0  0  0  0  2  0  0  0  0  0  0
  187.9750  176.8640  143.0080 C   0  0  2  0  0  3  0  0  0  0  0  0
  188.9560  178.1950  139.6400 C   0  0  2  0  0  3  0  0  0  0  0  0
  186.4580  177.8400  139.7090 C   0  0  0  0  0  0  0  0  0  0  0  0
  190.2230  176.1650  143.0390 O   0  0  0  0  0  0  0  0  0  0  0  0
  188.8460  178.3450  141.1280 C   0  0  0  0  0  0  0  0  0  0  0  0
  188.4280  179.3780  137.6180 N   0  0  0  0  0  2  0  0  0  0  0  0
  186.1090  179.9260  142.1160 O   0  0  0  0  0  0  0  0  0  0  0  0
  185.9820  178.6800  144.9380 C   0  0  0  0  0  2  0  0  0  0  0  0
  186.8070  177.8110  145.8180 C   0  0  0  0  0  3  0  0  0  0  0  0
  183.9730  178.4940  139.4300 C   0  0  0  0  0  2  0  0  0  0  0  0
  188.9360  175.7410  142.6820 C   0  0  0  0  0  2  0  0  0  0  0  0
  188.0000  177.3330  145.4540 C   0  0  0  0  0  3  0  0  0  0  0  0
  189.0560  179.5260  138.9280 C   0  0  0  0  0  2  0  0  0  0  0  0
  183.5570  180.5030  143.9690 C   0  0  0  0  0  1  0  0  0  0  0  0
  187.8150  178.0490  137.5820 C   0  0  0  0  0  2  0  0  0  0  0  0
  189.7290  178.9850  141.7600 O   0  0  0  0  0  0  0  0  0  0  0  0
  185.3450  178.0630  138.9640 C   0  0  0  0  0  3  0  0  0  0  0  0
  191.9450  178.8210  144.3430 C   0  0  0  0  0  3  0  0  0  0  0  0
  191.0910  177.9740  144.2770 C   0  0  0  0  0  0  0  0  0  0  0  0
  1 25  1  6  0  0  0
  1  2  1  0  0  0  0
  3  7  1  6  0  0  0
  3 11  1  0  0  0  0
  4 30  1  6  0  0  0
  5 12  1  0  0  0  0
  6 26  1  6  0  0  0
  6 13  1  0  0  0  0
  6 14  1  0  0  0  0
  8  3  1  0  0  0  0
  8 18  2  0  0  0  0
  9 14  1  6  0  0  0
  9  5  1  0  0  0  0
  9  8  1  0  0  0  0
 10  4  1  0  0  0  0
 10 23  1  1  0  0  0
 11  1  1  0  0  0  0
 12 22  1  6  0  0  0
 12 10  1  0  0  0  0
 13 24  1  6  0  0  0
 13 16  1  0  0  0  0
 15  4  1  0  0  0  0
 16 27  2  0  0  0  0
 16  5  1  0  0  0  0
 17 24  1  0  0  0  0
 19  2  1  0  0  0  0
 19 20  1  0  0  0  0
 21  7  1  0  0  0  0
 22 15  1  0  0  0  0
 23 20  2  0  0  0  0
 26 17  1  0  0  0  0
 28 21  1  0  0  0  0
 28 14  2  0  0  0  0
 30 29  3  0  0  0  0
M  END
>  <MODEL>
4

>  <REMARK>
 VINA RESULT:      -5.0      4.055      7.142
  Name = 
  1 active torsions:
  status: ('A' for Active; 'I' for Inactive)
    1  A    between atoms: C_4  and  C_30
                            x       y       z     vdW  Elec       q    Type
                         _______ _______ _______ _____ _____    ______ ____

>  <TORSDO>
F 1

$$$$
=
 OpenBabel11032419153D

 30 34  0  0  1  0  0  0  0  0999 V2000
  187.8390  178.0910  143.5970 C   0  0  2  0  0  3  0  0  0  0  0  0
  186.5620  178.3910  142.8220 C   0  0  0  0  0  2  0  0  0  0  0  0
  190.0020  177.6220  142.5040 C   0  0  2  0  0  3  0  0  0  0  0  0
  186.5040  178.0900  136.9390 C   0  0  1  0  0  3  0  0  0  0  0  0
  189.2410  177.4580  138.7920 N   0  0  0  0  0  0  0  0  0  0  0  0
  191.9440  176.9470  138.1220 C   0  0  1  0  0  3  0  0  0  0  0  0
  191.3960  178.2530  142.4790 C   0  0  0  0  0  2  0  0  0  0  0  0
  189.6510  177.0250  141.1700 C   0  0  0  0  0  0  0  0  0  0  0  0
  190.1700  177.6590  139.9100 C   0  0  1  0  0  3  0  0  0  0  0  0
  186.8260  177.8760  138.4070 C   0  0  1  0  0  3  0  0  0  0  0  0
  189.0210  178.6340  142.9020 N   0  0  0  0  0  2  0  0  0  0  0  0
  188.2070  178.4770  138.5520 C   0  0  2  0  0  3  0  0  0  0  0  0
  190.8920  176.1200  137.4050 C   0  0  2  0  0  3  0  0  0  0  0  0
  191.5840  177.1860  139.5850 C   0  0  0  0  0  0  0  0  0  0  0  0
  187.6690  178.4820  136.2590 O   0  0  0  0  0  0  0  0  0  0  0  0
  189.4910  176.3860  137.8680 C   0  0  0  0  0  0  0  0  0  0  0  0
  192.7510  174.6730  137.8710 N   0  0  0  0  0  2  0  0  0  0  0  0
  189.0540  175.9630  141.1230 O   0  0  0  0  0  0  0  0  0  0  0  0
  186.6320  177.8570  141.4030 C   0  0  0  0  0  2  0  0  0  0  0  0
  185.7170  178.6430  140.5330 C   0  0  0  0  0  3  0  0  0  0  0  0
  192.4310  177.2290  142.0270 C   0  0  0  0  0  2  0  0  0  0  0  0
  188.4370  179.1550  137.2190 C   0  0  0  0  0  2  0  0  0  0  0  0
  185.8090  178.6490  139.2010 C   0  0  0  0  0  3  0  0  0  0  0  0
  191.3120  174.6840  137.6210 C   0  0  0  0  0  2  0  0  0  0  0  0
  187.9170  176.6300  144.0460 C   0  0  0  0  0  1  0  0  0  0  0  0
  193.1810  176.0690  137.9690 C   0  0  0  0  0  2  0  0  0  0  0  0
  188.5390  175.6980  137.4110 O   0  0  0  0  0  0  0  0  0  0  0  0
  192.5610  177.1150  140.5250 C   0  0  0  0  0  3  0  0  0  0  0  0
  185.4800  175.8750  135.8540 C   0  0  0  0  0  3  0  0  0  0  0  0
  185.9500  176.8700  136.3440 C   0  0  0  0  0  0  0  0  0  0  0  0
  1 25  1  6  0  0  0
  2  1  1  0  0  0  0
  3  7  1  6  0  0  0
  3 11  1  0  0  0  0
  4 30  1  6  0  0  0
  4 10  1  0  0  0  0
  5  9  1  0  0  0  0
  6 26  1  1  0  0  0
  6 14  1  0  0  0  0
  8  3  1  0  0  0  0
  9 14  1  6  0  0  0
  9  8  1  0  0  0  0
 10 12  1  0  0  0  0
 10 23  1  1  0  0  0
 11  1  1  0  0  0  0
 12 22  1  6  0  0  0
 12  5  1  0  0  0  0
 13 24  1  1  0  0  0
 13 16  1  0  0  0  0
 13  6  1  0  0  0  0
 14 28  2  0  0  0  0
 15  4  1  0  0  0  0
 15 22  1  0  0  0  0
 16  5  1  0  0  0  0
 17 26  1  0  0  0  0
 18  8  2  0  0  0  0
 19  2  1  0  0  0  0
 20 19  1  0  0  0  0
 21  7  1  0  0  0  0
 23 20  2  0  0  0  0
 24 17  1  0  0  0  0
 27 16  2  0  0  0  0
 28 21  1  0  0  0  0
 29 30  3  0  0  0  0
M  END
>  <MODEL>
5

>  <REMARK>
 VINA RESULT:      -4.9      3.639      8.126
  Name = 
  1 active torsions:
  status: ('A' for Active; 'I' for Inactive)
    1  A    between atoms: C_4  and  C_30
                            x       y       z     vdW  Elec       q    Type
                         _______ _______ _______ _____ _____    ______ ____

>  <TORSDO>
F 1

$$$$
=
 OpenBabel11032419153D

 30 34  0  0  1  0  0  0  0  0999 V2000
  186.2510  177.0020  136.5290 C   0  0  2  0  0  3  0  0  0  0  0  0
  186.1640  178.1810  137.4900 C   0  0  0  0  0  2  0  0  0  0  0  0
  184.2980  175.6320  135.8950 C   0  0  2  0  0  3  0  0  0  0  0  0
  181.0940  179.4470  140.2090 C   0  0  1  0  0  3  0  0  0  0  0  0
  181.4460  176.8790  138.0620 N   0  0  0  0  0  0  0  0  0  0  0  0
  179.6040  175.0530  136.9270 C   0  0  1  0  0  3  0  0  0  0  0  0
  183.5460  175.2950  134.6060 C   0  0  0  0  0  2  0  0  0  0  0  0
  183.3590  175.7140  137.0670 C   0  0  0  0  0  0  0  0  0  0  0  0
  181.9530  176.2050  136.8620 C   0  0  1  0  0  3  0  0  0  0  0  0
  182.2370  178.7270  139.5160 C   0  0  1  0  0  3  0  0  0  0  0  0
  185.0260  176.8900  135.7160 N   0  0  0  0  0  2  0  0  0  0  0  0
  181.6430  178.3330  138.1810 C   0  0  2  0  0  3  0  0  0  0  0  0
  179.5620  175.2210  138.4350 C   0  0  2  0  0  3  0  0  0  0  0  0
  181.0310  175.0860  136.3880 C   0  0  0  0  0  0  0  0  0  0  0  0
  179.9050  179.2250  139.4960 O   0  0  0  0  0  0  0  0  0  0  0  0
  180.6170  176.1400  138.9740 C   0  0  0  0  0  0  0  0  0  0  0  0
  179.2020  172.8940  137.9600 N   0  0  0  0  0  2  0  0  0  0  0  0
  183.7020  175.2660  138.1470 O   0  0  0  0  0  0  0  0  0  0  0  0
  184.9430  178.0830  138.3850 C   0  0  0  0  0  2  0  0  0  0  0  0
  184.5550  179.4430  138.8440 C   0  0  0  0  0  3  0  0  0  0  0  0
  182.7460  174.0100  134.7810 C   0  0  0  0  0  2  0  0  0  0  0  0
  180.3090  179.0470  138.1660 C   0  0  0  0  0  2  0  0  0  0  0  0
  183.3490  179.7240  139.3440 C   0  0  0  0  0  3  0  0  0  0  0  0
  179.6770  173.8180  138.9870 C   0  0  0  0  0  2  0  0  0  0  0  0
  186.7360  175.7240  137.2180 C   0  0  0  0  0  1  0  0  0  0  0  0
  178.9540  173.6850  136.7530 C   0  0  0  0  0  2  0  0  0  0  0  0
  180.7400  176.2910  140.2180 O   0  0  0  0  0  0  0  0  0  0  0  0
  181.3850  174.2180  135.4050 C   0  0  0  0  0  3  0  0  0  0  0  0
  180.8360  178.6280  142.7380 C   0  0  0  0  0  3  0  0  0  0  0  0
  180.9530  178.9880  141.5950 C   0  0  0  0  0  0  0  0  0  0  0  0
  1 25  1  1  0  0  0
  1  2  1  0  0  0  0
  2 19  1  0  0  0  0
  3  7  1  6  0  0  0
  3  8  1  0  0  0  0
  4 30  1  1  0  0  0
  5 12  1  0  0  0  0
  5 16  1  0  0  0  0
  6 26  1  1  0  0  0
  6 13  1  0  0  0  0
  7 21  1  0  0  0  0
  8 18  2  0  0  0  0
  9 14  1  1  0  0  0
  9  8  1  0  0  0  0
  9  5  1  0  0  0  0
 10 23  1  6  0  0  0
 10  4  1  0  0  0  0
 11  3  1  0  0  0  0
 11  1  1  0  0  0  0
 12 22  1  1  0  0  0
 12 10  1  0  0  0  0
 13 16  1  0  0  0  0
 13 24  1  1  0  0  0
 14  6  1  0  0  0  0
 15  4  1  0  0  0  0
 16 27  2  0  0  0  0
 17 24  1  0  0  0  0
 19 20  1  0  0  0  0
 20 23  2  0  0  0  0
 21 28  1  0  0  0  0
 22 15  1  0  0  0  0
 26 17  1  0  0  0  0
 28 14  2  0  0  0  0
 30 29  3  0  0  0  0
M  END
>  <MODEL>
6

>  <REMARK>
 VINA RESULT:      -4.9      2.343      5.217
  Name = 
  1 active torsions:
  status: ('A' for Active; 'I' for Inactive)
    1  A    between atoms: C_4  and  C_30
                            x       y       z     vdW  Elec       q    Type
                         _______ _______ _______ _____ _____    ______ ____

>  <TORSDO>
F 1

$$$$
=
 OpenBabel11032419153D

 30 34  0  0  1  0  0  0  0  0999 V2000
  188.1770  178.2030  140.7820 C   0  0  2  0  0  3  0  0  0  0  0  0
  188.2290  177.6200  139.3760 C   0  0  0  0  0  2  0  0  0  0  0  0
  186.0690  178.5650  142.0160 C   0  0  2  0  0  3  0  0  0  0  0  0
  183.2540  176.4650  136.4390 C   0  0  1  0  0  3  0  0  0  0  0  0
  183.3060  177.7530  139.5480 N   0  0  0  0  0  0  0  0  0  0  0  0
  181.2710  178.3020  141.4380 C   0  0  1  0  0  3  0  0  0  0  0  0
  185.4420  178.0630  143.3180 C   0  0  0  0  0  2  0  0  0  0  0  0
  185.0240  178.7860  140.9580 C   0  0  0  0  0  0  0  0  0  0  0  0
  183.8050  177.9080  140.9190 C   0  0  1  0  0  3  0  0  0  0  0  0
  184.2890  177.0570  137.3790 C   0  0  1  0  0  3  0  0  0  0  0  0
  187.0790  177.6050  141.5640 N   0  0  0  0  0  2  0  0  0  0  0  0
  183.8060  176.6250  138.7460 C   0  0  2  0  0  3  0  0  0  0  0  0
  181.0640  178.8390  140.0340 C   0  0  2  0  0  3  0  0  0  0  0  0
  182.7280  178.4000  141.8810 C   0  0  0  0  0  0  0  0  0  0  0  0
  182.1530  176.0150  137.1840 O   0  0  0  0  0  0  0  0  0  0  0  0
  182.2170  178.5820  139.1100 C   0  0  0  0  0  0  0  0  0  0  0  0
  180.2590  180.5030  141.5670 N   0  0  0  0  0  2  0  0  0  0  0  0
  185.1100  179.7530  140.2190 O   0  0  0  0  0  0  0  0  0  0  0  0
  186.9080  177.7940  138.6500 C   0  0  0  0  0  2  0  0  0  0  0  0
  186.7780  176.7470  137.6010 C   0  0  0  0  0  3  0  0  0  0  0  0
  184.3570  179.0250  143.7860 C   0  0  0  0  0  2  0  0  0  0  0  0
  182.6820  175.6620  138.4340 C   0  0  0  0  0  2  0  0  0  0  0  0
  185.6100  176.4230  137.0410 C   0  0  0  0  0  3  0  0  0  0  0  0
  180.7870  180.3140  140.2180 C   0  0  0  0  0  2  0  0  0  0  0  0
  188.2650  179.7310  140.7810 C   0  0  0  0  0  1  0  0  0  0  0  0
  180.3590  179.2130  142.2520 C   0  0  0  0  0  2  0  0  0  0  0  0
  182.2020  179.0570  137.9430 O   0  0  0  0  0  0  0  0  0  0  0  0
  183.0070  178.7780  143.1540 C   0  0  0  0  0  3  0  0  0  0  0  0
  182.4700  178.2530  134.6160 C   0  0  0  0  0  3  0  0  0  0  0  0
  182.8290  177.4530  135.4430 C   0  0  0  0  0  0  0  0  0  0  0  0
  1 25  1  6  0  0  0
  1 11  1  0  0  0  0
  2  1  1  0  0  0  0
  3  7  1  1  0  0  0
  4 30  1  6  0  0  0
  4 15  1  0  0  0  0
  4 10  1  0  0  0  0
  5  9  1  0  0  0  0
  6 14  1  0  0  0  0
  6 26  1  1  0  0  0
  7 21  1  0  0  0  0
  8  3  1  0  0  0  0
  9  8  1  6  0  0  0
  9 14  1  0  0  0  0
 10 23  1  6  0  0  0
 10 12  1  0  0  0  0
 11  3  1  0  0  0  0
 12 22  1  6  0  0  0
 12  5  1  0  0  0  0
 13 24  1  1  0  0  0
 13  6  1  0  0  0  0
 14 28  2  0  0  0  0
 15 22  1  0  0  0  0
 16  5  1  0  0  0  0
 16 13  1  0  0  0  0
 17 26  1  0  0  0  0
 18  8  2  0  0  0  0
 19  2  1  0  0  0  0
 20 19  1  0  0  0  0
 23 20  2  0  0  0  0
 24 17  1  0  0  0  0
 27 16  2  0  0  0  0
 28 21  1  0  0  0  0
 29 30  3  0  0  0  0
M  END
>  <MODEL>
7

>  <REMARK>
 VINA RESULT:      -4.8      2.423      5.740
  Name = 
  1 active torsions:
  status: ('A' for Active; 'I' for Inactive)
    1  A    between atoms: C_4  and  C_30
                            x       y       z     vdW  Elec       q    Type
                         _______ _______ _______ _____ _____    ______ ____

>  <TORSDO>
F 1

$$$$
=
 OpenBabel11032419153D

 30 34  0  0  1  0  0  0  0  0999 V2000
  181.1760  179.0660  140.6340 C   0  0  2  0  0  3  0  0  0  0  0  0
  179.8630  178.4000  140.2400 C   0  0  0  0  0  2  0  0  0  0  0  0
  183.3250  178.5760  139.5250 C   0  0  2  0  0  3  0  0  0  0  0  0
  179.7830  174.1560  136.1550 C   0  0  1  0  0  3  0  0  0  0  0  0
  182.5960  175.7220  137.1340 N   0  0  0  0  0  0  0  0  0  0  0  0
  185.2700  175.6360  136.2070 C   0  0  1  0  0  3  0  0  0  0  0  0
  184.3670  179.3570  138.7220 C   0  0  0  0  0  2  0  0  0  0  0  0
  183.1990  177.1640  139.0230 C   0  0  0  0  0  0  0  0  0  0  0  0
  183.4030  176.8700  137.5630 C   0  0  1  0  0  3  0  0  0  0  0  0
  180.1980  175.1010  137.2690 C   0  0  1  0  0  3  0  0  0  0  0  0
  182.0400  179.2740  139.4580 N   0  0  0  0  0  2  0  0  0  0  0  0
  181.2440  175.9760  136.6120 C   0  0  2  0  0  3  0  0  0  0  0  0
  184.6010  174.3040  136.4950 C   0  0  2  0  0  3  0  0  0  0  0  0
  184.8820  176.7040  137.2250 C   0  0  0  0  0  0  0  0  0  0  0  0
  180.6900  174.2670  135.0890 O   0  0  0  0  0  0  0  0  0  0  0  0
  183.2180  174.4290  137.0600 C   0  0  0  0  0  0  0  0  0  0  0  0
  186.8850  174.1340  137.2180 N   0  0  0  0  0  2  0  0  0  0  0  0
  183.0570  176.2510  139.8200 O   0  0  0  0  0  0  0  0  0  0  0  0
  180.1000  177.0860  139.5190 C   0  0  0  0  0  2  0  0  0  0  0  0
  178.9310  176.7810  138.6510 C   0  0  0  0  0  3  0  0  0  0  0  0
  185.7050  178.6280  138.7420 C   0  0  0  0  0  2  0  0  0  0  0  0
  181.1620  175.5860  135.1520 C   0  0  0  0  0  2  0  0  0  0  0  0
  178.9820  175.8990  137.6500 C   0  0  0  0  0  3  0  0  0  0  0  0
  185.5480  173.5880  137.4320 C   0  0  0  0  0  2  0  0  0  0  0  0
  181.8220  178.4010  141.8520 C   0  0  0  0  0  1  0  0  0  0  0  0
  186.7450  175.2640  136.2970 C   0  0  0  0  0  2  0  0  0  0  0  0
  182.5940  173.3960  137.4230 O   0  0  0  0  0  0  0  0  0  0  0  0
  185.8330  177.5580  137.6810 C   0  0  0  0  0  3  0  0  0  0  0  0
  179.6660  171.6380  137.0370 C   0  0  0  0  0  3  0  0  0  0  0  0
  179.7290  172.7730  136.6380 C   0  0  0  0  0  0  0  0  0  0  0  0
  1 25  1  1  0  0  0
  2  1  1  0  0  0  0
  3  7  1  6  0  0  0
  4 30  1  1  0  0  0
  4 10  1  0  0  0  0
  5  9  1  0  0  0  0
  6 26  1  1  0  0  0
  6 13  1  0  0  0  0
  6 14  1  0  0  0  0
  7 21  1  0  0  0  0
  8  3  1  0  0  0  0
  8 18  2  0  0  0  0
  9 14  1  1  0  0  0
  9  8  1  0  0  0  0
 10 23  1  6  0  0  0
 11  3  1  0  0  0  0
 11  1  1  0  0  0  0
 12 22  1  6  0  0  0
 12  5  1  0  0  0  0
 12 10  1  0  0  0  0
 13 16  1  0  0  0  0
 13 24  1  1  0  0  0
 14 28  2  0  0  0  0
 15 22  1  0  0  0  0
 15  4  1  0  0  0  0
 16  5  1  0  0  0  0
 16 27  2  0  0  0  0
 17 24  1  0  0  0  0
 19  2  1  0  0  0  0
 20 19  1  0  0  0  0
 23 20  2  0  0  0  0
 26 17  1  0  0  0  0
 28 21  1  0  0  0  0
 30 29  3  0  0  0  0
M  END
>  <MODEL>
8

>  <REMARK>
 VINA RESULT:      -4.5      2.189      6.935
  Name = 
  1 active torsions:
  status: ('A' for Active; 'I' for Inactive)
    1  A    between atoms: C_4  and  C_30
                            x       y       z     vdW  Elec       q    Type
                         _______ _______ _______ _____ _____    ______ ____

>  <TORSDO>
F 1

$$$$
=
 OpenBabel11032419153D

 30 34  0  0  1  0  0  0  0  0999 V2000
  183.3560  171.2220  136.4270 C   0  0  2  0  0  3  0  0  0  0  0  0
  182.0280  171.9200  136.6930 C   0  0  0  0  0  2  0  0  0  0  0  0
  185.5260  172.3980  136.4380 C   0  0  2  0  0  3  0  0  0  0  0  0
  181.8270  177.7620  137.4230 C   0  0  1  0  0  3  0  0  0  0  0  0
  184.6770  176.0730  136.8310 N   0  0  0  0  0  0  0  0  0  0  0  0
  187.4010  176.8460  136.7970 C   0  0  1  0  0  3  0  0  0  0  0  0
  186.8290  172.3220  137.2370 C   0  0  0  0  0  2  0  0  0  0  0  0
  185.2100  173.8140  136.0440 C   0  0  0  0  0  0  0  0  0  0  0  0
  185.6080  174.9460  136.9510 C   0  0  1  0  0  3  0  0  0  0  0  0
  182.2180  176.3580  136.9980 C   0  0  1  0  0  3  0  0  0  0  0  0
  184.4390  171.8180  137.2300 N   0  0  0  0  0  2  0  0  0  0  0  0
  183.5180  176.1200  137.7360 C   0  0  2  0  0  3  0  0  0  0  0  0
  186.4380  177.6900  135.9810 C   0  0  2  0  0  3  0  0  0  0  0  0
  187.0590  175.3610  136.7280 C   0  0  0  0  0  0  0  0  0  0  0  0
  182.9120  178.3710  138.0740 O   0  0  0  0  0  0  0  0  0  0  0  0
  185.0300  177.1760  135.9790 C   0  0  0  0  0  0  0  0  0  0  0  0
  188.4770  177.5040  134.7250 N   0  0  0  0  0  2  0  0  0  0  0  0
  184.7500  174.0440  134.9390 O   0  0  0  0  0  0  0  0  0  0  0  0
  182.1210  173.4120  136.4290 C   0  0  0  0  0  2  0  0  0  0  0  0
  181.0880  174.1200  137.2310 C   0  0  0  0  0  3  0  0  0  0  0  0
  187.9680  172.9580  136.4490 C   0  0  0  0  0  2  0  0  0  0  0  0
  183.6200  177.3130  138.6620 C   0  0  0  0  0  2  0  0  0  0  0  0
  181.1380  175.4310  137.4830 C   0  0  0  0  0  3  0  0  0  0  0  0
  187.0410  177.7370  134.5940 C   0  0  0  0  0  2  0  0  0  0  0  0
  183.6290  171.0410  134.9320 C   0  0  0  0  0  1  0  0  0  0  0  0
  188.7320  177.1630  136.1250 C   0  0  0  0  0  2  0  0  0  0  0  0
  184.1580  177.7400  135.2670 O   0  0  0  0  0  0  0  0  0  0  0  0
  188.0660  174.4570  136.6180 C   0  0  0  0  0  3  0  0  0  0  0  0
  181.0540  179.2090  135.3160 C   0  0  0  0  0  3  0  0  0  0  0  0
  181.4120  178.5610  136.2660 C   0  0  0  0  0  0  0  0  0  0  0  0
  1 25  1  6  0  0  0
  1  2  1  0  0  0  0
  1 11  1  0  0  0  0
  3 11  1  0  0  0  0
  3  7  1  1  0  0  0
  4 30  1  6  0  0  0
  4 15  1  0  0  0  0
  5  9  1  0  0  0  0
  5 12  1  0  0  0  0
  6 26  1  6  0  0  0
  8  3  1  0  0  0  0
  9  8  1  6  0  0  0
 10  4  1  0  0  0  0
 10 23  1  1  0  0  0
 10 12  1  0  0  0  0
 12 22  1  1  0  0  0
 13 24  1  6  0  0  0
 13  6  1  0  0  0  0
 14  6  1  0  0  0  0
 14  9  1  0  0  0  0
 15 22  1  0  0  0  0
 16 13  1  0  0  0  0
 16  5  1  0  0  0  0
 17 26  1  0  0  0  0
 18  8  2  0  0  0  0
 19  2  1  0  0  0  0
 19 20  1  0  0  0  0
 20 23  2  0  0  0  0
 21 28  1  0  0  0  0
 21  7  1  0  0  0  0
 24 17  1  0  0  0  0
 27 16  2  0  0  0  0
 28 14  2  0  0  0  0
 29 30  3  0  0  0  0
M  END
>  <MODEL>
9

>  <REMARK>
 VINA RESULT:      -4.5      2.213      5.459
  Name = 
  1 active torsions:
  status: ('A' for Active; 'I' for Inactive)
    1  A    between atoms: C_4  and  C_30
                            x       y       z     vdW  Elec       q    Type
                         _______ _______ _______ _____ _____    ______ ____

>  <TORSDO>
F 1

$$$$
