=
 OpenBabel11032420203D

 32 34  0  0  1  0  0  0  0  0999 V2000
  183.0740  179.3700  143.6760 C   0  0  0  0  0  2  0  0  0  0  0  0
  181.9640  178.9270  142.7340 C   0  0  0  0  0  2  0  0  0  0  0  0
  182.5330  178.6830  141.3420 C   0  0  0  0  0  2  0  0  0  0  0  0
  183.6760  177.6630  141.4110 C   0  0  0  0  0  2  0  0  0  0  0  0
  184.7420  178.0810  142.3360 N   0  0  0  0  0  0  0  0  0  0  0  0
  184.1800  178.3120  143.6820 C   0  0  1  0  0  3  0  0  0  0  0  0
  185.3990  179.2790  141.8110 C   0  0  0  0  0  2  0  0  0  0  0  0
  186.7860  178.9230  141.3150 C   0  0  0  0  0  2  0  0  0  0  0  0
  186.7340  178.6450  139.8900 N   0  0  0  0  0  2  0  0  0  0  0  0
  187.9550  177.9340  139.5440 C   0  0  2  0  0  3  0  0  0  0  0  0
  189.0300  178.2260  140.5800 C   0  0  0  0  0  2  0  0  0  0  0  0
  190.0190  177.0780  140.6540 C   0  0  0  0  0  1  0  0  0  0  0  0
  188.4180  178.3150  138.1380 C   0  0  0  0  0  2  0  0  0  0  0  0
  187.3020  178.7980  137.3360 N   0  0  0  0  0  2  0  0  0  0  0  0
  188.4910  176.6150  135.8880 C   0  0  0  0  0  1  0  0  0  0  0  0
  186.9260  178.4630  134.7470 O   0  0  0  0  0  0  0  0  0  0  0  0
  185.8420  176.8670  136.2580 O   0  0  0  0  0  0  0  0  0  0  0  0
  187.0790  177.6900  136.0250 S   0  0  0  0  0  0  0  0  0  0  0  0
  185.2590  178.6680  144.6980 C   0  0  0  0  0  2  0  0  0  0  0  0
  186.2870  177.5540  144.7860 C   0  0  0  0  0  2  0  0  0  0  0  0
  189.5290  177.9920  147.0300 C   0  0  0  0  0  0  0  0  0  0  0  0
  190.4540  176.8460  147.2710 C   0  0  0  0  0  3  0  0  0  0  0  0
  192.4960  175.1950  146.8980 Cl  0  0  0  0  0  0  0  0  0  0  0  0
  189.2140  177.6770  144.5950 C   0  0  0  0  0  3  0  0  0  0  0  0
  188.7500  178.2500  148.2460 N   0  0  0  0  0  0  0  0  0  0  0  0
  190.6570  177.6120  144.2990 C   0  0  0  0  0  3  0  0  0  0  0  0
  191.6040  177.0850  145.0840 C   0  0  0  0  0  3  0  0  0  0  0  0
  188.6650  177.7740  145.8120 C   0  0  0  0  0  0  0  0  0  0  0  0
  187.1950  177.7810  145.9540 C   0  0  1  0  0  3  0  0  0  0  0  0
  191.3950  176.4630  146.4060 C   0  0  0  0  0  0  0  0  0  0  0  0
  186.6550  178.0170  147.1430 C   0  0  0  0  0  3  0  0  0  0  0  0
  187.4740  178.2580  148.2910 N   0  0  0  0  0  0  0  0  0  0  0  0
  1  6  1  0  0  0  0
  2  1  1  0  0  0  0
  3  4  1  0  0  0  0
  3  2  1  0  0  0  0
  4  5  1  0  0  0  0
  5  6  1  0  0  0  0
  6 19  1  1  0  0  0
  7  5  1  0  0  0  0
  8  7  1  0  0  0  0
  9  8  1  0  0  0  0
 10 13  1  6  0  0  0
 10  9  1  0  0  0  0
 10 11  1  0  0  0  0
 11 12  1  0  0  0  0
 14 13  1  0  0  0  0
 15 18  1  0  0  0  0
 16 18  2  0  0  0  0
 18 17  2  0  0  0  0
 18 14  1  0  0  0  0
 19 20  1  0  0  0  0
 21 22  1  0  0  0  0
 21 25  2  0  0  0  0
 24 28  2  0  0  0  0
 25 32  1  0  0  0  0
 26 24  1  0  0  0  0
 26 27  2  0  0  0  0
 27 30  1  0  0  0  0
 28 29  1  0  0  0  0
 28 21  1  0  0  0  0
 29 20  1  6  0  0  0
 29 31  1  0  0  0  0
 30 23  1  0  0  0  0
 30 22  2  0  0  0  0
 31 32  2  0  0  0  0
M  END
>  <MODEL>
1

>  <REMARK>
 VINA RESULT:      -8.2      0.000      0.000
  Name = 
  11 active torsions:
  status: ('A' for Active; 'I' for Inactive)
    1  A    between atoms: C_3  and  N_15
    2  A    between atoms: C_3  and  C_16
    3  A    between atoms: C_7  and  N_12
    4  A    between atoms: C_7  and  C_26
    5  A    between atoms: N_12  and  S_23
    6  A    between atoms: C_14  and  C_26
    7  A    between atoms: C_16  and  N_31
    8  A    between atoms: C_18  and  C_24
    9  A    between atoms: C_18  and  C_27
   10  A    between atoms: C_26  and  N_31
   11  A    between atoms: C_27  and  C_32
                            x       y       z     vdW  Elec       q    Type
                         _______ _______ _______ _____ _____    ______ ____

>  <TORSDO>
F 11

$$$$
=
 OpenBabel11032420203D

 32 34  0  0  1  0  0  0  0  0999 V2000
  183.7750  179.2290  143.6990 C   0  0  0  0  0  2  0  0  0  0  0  0
  182.2790  178.9640  143.6100 C   0  0  0  0  0  2  0  0  0  0  0  0
  181.8510  178.8970  142.1500 C   0  0  0  0  0  2  0  0  0  0  0  0
  182.6740  177.8350  141.4090 C   0  0  0  0  0  2  0  0  0  0  0  0
  184.1210  178.0770  141.5100 N   0  0  0  0  0  0  0  0  0  0  0  0
  184.5240  178.1390  142.9290 C   0  0  1  0  0  3  0  0  0  0  0  0
  184.4580  179.3110  140.7980 C   0  0  0  0  0  2  0  0  0  0  0  0
  184.5600  179.0320  139.3130 C   0  0  0  0  0  2  0  0  0  0  0  0
  185.8950  178.5490  139.0010 N   0  0  0  0  0  2  0  0  0  0  0  0
  185.8920  178.1420  137.6050 C   0  0  2  0  0  3  0  0  0  0  0  0
  184.9750  176.9420  137.4230 C   0  0  0  0  0  2  0  0  0  0  0  0
  184.8370  176.6000  135.9510 C   0  0  0  0  0  1  0  0  0  0  0  0
  187.3130  177.8340  137.1330 C   0  0  0  0  0  2  0  0  0  0  0  0
  187.9680  176.8950  138.0340 N   0  0  0  0  0  2  0  0  0  0  0  0
  189.0940  177.5470  140.5990 C   0  0  0  0  0  1  0  0  0  0  0  0
  189.1590  179.2020  138.4970 O   0  0  0  0  0  0  0  0  0  0  0  0
  190.5760  177.2070  138.3850 O   0  0  0  0  0  0  0  0  0  0  0  0
  189.2460  177.7420  138.8370 S   0  0  0  0  0  0  0  0  0  0  0  0
  186.0310  178.3080  143.0890 C   0  0  0  0  0  2  0  0  0  0  0  0
  186.6290  177.0870  143.7660 C   0  0  0  0  0  2  0  0  0  0  0  0
  189.0890  177.9510  146.7540 C   0  0  0  0  0  0  0  0  0  0  0  0
  190.0150  176.9200  147.3070 C   0  0  0  0  0  3  0  0  0  0  0  0
  192.2240  175.4790  147.5990 Cl  0  0  0  0  0  0  0  0  0  0  0  0
  189.4740  177.5090  144.3490 C   0  0  0  0  0  3  0  0  0  0  0  0
  187.9900  178.1740  147.7000 N   0  0  0  0  0  0  0  0  0  0  0  0
  190.9430  177.5850  144.4520 C   0  0  0  0  0  3  0  0  0  0  0  0
  191.6860  177.1920  145.4920 C   0  0  0  0  0  3  0  0  0  0  0  0
  188.6110  177.5960  145.3680 C   0  0  0  0  0  0  0  0  0  0  0  0
  187.1620  177.4540  145.1140 C   0  0  1  0  0  3  0  0  0  0  0  0
  191.1850  176.6040  146.7500 C   0  0  0  0  0  0  0  0  0  0  0  0
  186.3010  177.6790  146.1000 C   0  0  0  0  0  3  0  0  0  0  0  0
  186.7550  178.0490  147.4050 N   0  0  0  0  0  0  0  0  0  0  0  0
  2  1  1  0  0  0  0
  3  2  1  0  0  0  0
  4  5  1  0  0  0  0
  4  3  1  0  0  0  0
  5  6  1  0  0  0  0
  6 19  1  6  0  0  0
  6  1  1  0  0  0  0
  7  5  1  0  0  0  0
  8  7  1  0  0  0  0
  9  8  1  0  0  0  0
 10 13  1  1  0  0  0
 10  9  1  0  0  0  0
 11 10  1  0  0  0  0
 12 11  1  0  0  0  0
 13 14  1  0  0  0  0
 14 18  1  0  0  0  0
 16 18  2  0  0  0  0
 17 18  2  0  0  0  0
 18 15  1  0  0  0  0
 19 20  1  0  0  0  0
 21 22  1  0  0  0  0
 21 25  2  0  0  0  0
 24 26  1  0  0  0  0
 24 28  2  0  0  0  0
 26 27  2  0  0  0  0
 27 30  1  0  0  0  0
 28 21  1  0  0  0  0
 29 20  1  6  0  0  0
 29 28  1  0  0  0  0
 29 31  1  0  0  0  0
 30 22  2  0  0  0  0
 30 23  1  0  0  0  0
 31 32  2  0  0  0  0
 32 25  1  0  0  0  0
M  END
>  <MODEL>
2

>  <REMARK>
 VINA RESULT:      -8.0      1.981      2.524
  Name = 
  11 active torsions:
  status: ('A' for Active; 'I' for Inactive)
    1  A    between atoms: C_3  and  N_15
    2  A    between atoms: C_3  and  C_16
    3  A    between atoms: C_7  and  N_12
    4  A    between atoms: C_7  and  C_26
    5  A    between atoms: N_12  and  S_23
    6  A    between atoms: C_14  and  C_26
    7  A    between atoms: C_16  and  N_31
    8  A    between atoms: C_18  and  C_24
    9  A    between atoms: C_18  and  C_27
   10  A    between atoms: C_26  and  N_31
   11  A    between atoms: C_27  and  C_32
                            x       y       z     vdW  Elec       q    Type
                         _______ _______ _______ _____ _____    ______ ____

>  <TORSDO>
F 11

$$$$
=
 OpenBabel11032420203D

 32 34  0  0  1  0  0  0  0  0999 V2000
  184.3720  178.0170  142.0230 C   0  0  0  0  0  2  0  0  0  0  0  0
  183.0350  178.7150  142.2230 C   0  0  0  0  0  2  0  0  0  0  0  0
  182.8070  178.9800  143.7060 C   0  0  0  0  0  2  0  0  0  0  0  0
  183.9760  179.7880  144.2830 C   0  0  0  0  0  2  0  0  0  0  0  0
  185.2720  179.1240  144.0730 N   0  0  0  0  0  0  0  0  0  0  0  0
  185.4830  178.8740  142.6330 C   0  0  1  0  0  3  0  0  0  0  0  0
  185.3130  177.8830  144.8490 C   0  0  0  0  0  2  0  0  0  0  0  0
  185.4650  178.2070  146.3210 C   0  0  0  0  0  2  0  0  0  0  0  0
  186.8050  178.7100  146.5710 N   0  0  0  0  0  2  0  0  0  0  0  0
  187.7180  177.5830  146.4520 C   0  0  2  0  0  3  0  0  0  0  0  0
  188.1710  177.1420  147.8350 C   0  0  0  0  0  2  0  0  0  0  0  0
  189.0880  178.1830  148.4490 C   0  0  0  0  0  1  0  0  0  0  0  0
  188.9090  177.9500  145.5660 C   0  0  0  0  0  2  0  0  0  0  0  0
  189.5130  176.7570  144.9880 N   0  0  0  0  0  2  0  0  0  0  0  0
  191.5710  178.5450  144.0710 C   0  0  0  0  0  1  0  0  0  0  0  0
  191.8610  175.8860  144.1610 O   0  0  0  0  0  0  0  0  0  0  0  0
  191.7910  177.0710  146.3050 O   0  0  0  0  0  0  0  0  0  0  0  0
  191.2230  177.0180  144.9140 S   0  0  0  0  0  0  0  0  0  0  0  0
  186.8500  178.2590  142.3540 C   0  0  0  0  0  2  0  0  0  0  0  0
  187.3410  178.6700  140.9760 C   0  0  0  0  0  2  0  0  0  0  0  0
  190.2110  176.9400  138.8550 C   0  0  2  0  0  3  0  0  0  0  0  0
  189.8850  175.9280  137.8070 C   0  0  0  0  0  3  0  0  0  0  0  0
  189.2890  174.9450  135.4170 Cl  0  0  0  0  0  0  0  0  0  0  0  0
  188.4800  178.6110  138.2710 C   0  0  0  0  0  3  0  0  0  0  0  0
  190.7780  176.2620  140.0260 N   0  0  0  0  0  0  0  0  0  0  0  0
  188.8370  178.6530  136.8410 C   0  0  0  0  0  3  0  0  0  0  0  0
  189.2750  177.6260  136.1040 C   0  0  0  0  0  3  0  0  0  0  0  0
  189.0220  177.8060  139.1930 C   0  0  0  0  0  0  0  0  0  0  0  0
  188.5250  177.8460  140.5840 C   0  0  0  0  0  0  0  0  0  0  0  0
  189.4910  176.2440  136.5730 C   0  0  0  0  0  0  0  0  0  0  0  0
  189.1560  177.1500  141.5220 C   0  0  0  0  0  3  0  0  0  0  0  0
  190.3040  176.3570  141.2070 N   0  0  0  0  0  0  0  0  0  0  0  0
  1  2  1  0  0  0  0
  1  6  1  0  0  0  0
  2  3  1  0  0  0  0
  3  4  1  0  0  0  0
  5  4  1  0  0  0  0
  5  7  1  0  0  0  0
  6 19  1  1  0  0  0
  6  5  1  0  0  0  0
  7  8  1  0  0  0  0
  8  9  1  0  0  0  0
 10 13  1  6  0  0  0
 10  9  1  0  0  0  0
 10 11  1  0  0  0  0
 11 12  1  0  0  0  0
 14 13  1  0  0  0  0
 15 18  1  0  0  0  0
 16 18  2  0  0  0  0
 18 14  1  0  0  0  0
 18 17  2  0  0  0  0
 20 19  1  0  0  0  0
 21 22  1  6  0  0  0
 21 28  1  0  0  0  0
 21 25  1  0  0  0  0
 23 30  1  0  0  0  0
 24 28  2  0  0  0  0
 25 32  2  0  0  0  0
 26 24  1  0  0  0  0
 27 30  1  0  0  0  0
 27 26  2  0  0  0  0
 28 29  1  0  0  0  0
 29 20  1  0  0  0  0
 29 31  2  0  0  0  0
 30 22  2  0  0  0  0
 32 31  1  0  0  0  0
M  END
>  <MODEL>
3

>  <REMARK>
 VINA RESULT:      -7.9      4.232      7.296
  Name = 
  11 active torsions:
  status: ('A' for Active; 'I' for Inactive)
    1  A    between atoms: C_3  and  N_15
    2  A    between atoms: C_3  and  C_16
    3  A    between atoms: C_7  and  N_12
    4  A    between atoms: C_7  and  C_26
    5  A    between atoms: N_12  and  S_23
    6  A    between atoms: C_14  and  C_26
    7  A    between atoms: C_16  and  N_31
    8  A    between atoms: C_18  and  C_24
    9  A    between atoms: C_18  and  C_27
   10  A    between atoms: C_26  and  N_31
   11  A    between atoms: C_27  and  C_32
                            x       y       z     vdW  Elec       q    Type
                         _______ _______ _______ _____ _____    ______ ____

>  <TORSDO>
F 11

$$$$
=
 OpenBabel11032420203D

 32 34  0  0  1  0  0  0  0  0999 V2000
  189.3840  176.7510  145.2750 C   0  0  0  0  0  2  0  0  0  0  0  0
  190.5870  177.4750  145.8620 C   0  0  0  0  0  2  0  0  0  0  0  0
  191.5960  177.7790  144.7620 C   0  0  0  0  0  2  0  0  0  0  0  0
  190.9270  178.5810  143.6390 C   0  0  0  0  0  2  0  0  0  0  0  0
  189.7520  177.8920  143.0830 N   0  0  0  0  0  0  0  0  0  0  0  0
  188.7800  177.6050  144.1570 C   0  0  1  0  0  3  0  0  0  0  0  0
  190.1830  176.6690  142.4030 C   0  0  0  0  0  2  0  0  0  0  0  0
  190.6850  177.0080  141.0150 C   0  0  0  0  0  2  0  0  0  0  0  0
  189.5970  177.5620  140.2270 N   0  0  0  0  0  2  0  0  0  0  0  0
  190.0230  177.5580  138.8370 C   0  0  2  0  0  3  0  0  0  0  0  0
  188.8060  177.6160  137.9270 C   0  0  0  0  0  2  0  0  0  0  0  0
  188.7850  178.9220  137.1550 C   0  0  0  0  0  1  0  0  0  0  0  0
  190.8820  176.3280  138.5430 C   0  0  0  0  0  2  0  0  0  0  0  0
  191.6220  176.4950  137.3000 N   0  0  0  0  0  2  0  0  0  0  0  0
  193.5040  174.3440  137.6210 C   0  0  0  0  0  1  0  0  0  0  0  0
  193.6610  176.6540  138.9650 O   0  0  0  0  0  0  0  0  0  0  0  0
  194.1580  176.7260  136.5670 O   0  0  0  0  0  0  0  0  0  0  0  0
  193.2790  176.1090  137.6190 S   0  0  0  0  0  0  0  0  0  0  0  0
  187.5070  176.9620  143.6190 C   0  0  0  0  0  2  0  0  0  0  0  0
  186.3090  177.8530  143.9000 C   0  0  0  0  0  2  0  0  0  0  0  0
  183.7940  179.2540  141.1720 C   0  0  0  0  0  0  0  0  0  0  0  0
  182.6630  178.4180  140.6710 C   0  0  0  0  0  3  0  0  0  0  0  0
  180.2250  177.3810  140.5310 Cl  0  0  0  0  0  0  0  0  0  0  0  0
  183.5380  178.7710  143.5860 C   0  0  0  0  0  3  0  0  0  0  0  0
  184.8320  179.3340  140.1390 N   0  0  0  0  0  0  0  0  0  0  0  0
  182.1000  179.0950  143.6170 C   0  0  0  0  0  3  0  0  0  0  0  0
  181.2180  178.8800  142.6350 C   0  0  0  0  0  3  0  0  0  0  0  0
  184.3170  178.7600  142.4980 C   0  0  0  0  0  0  0  0  0  0  0  0
  185.7360  178.3660  142.6170 C   0  0  0  0  0  0  0  0  0  0  0  0
  181.5060  178.2760  141.3190 C   0  0  2  0  0  3  0  0  0  0  0  0
  186.5380  178.4900  141.5660 C   0  0  0  0  0  3  0  0  0  0  0  0
  186.0490  178.9910  140.3190 N   0  0  0  0  0  0  0  0  0  0  0  0
  1  2  1  0  0  0  0
  3  2  1  0  0  0  0
  4  3  1  0  0  0  0
  5  4  1  0  0  0  0
  5  6  1  0  0  0  0
  6 19  1  6  0  0  0
  6  1  1  0  0  0  0
  7  5  1  0  0  0  0
  8  7  1  0  0  0  0
  9  8  1  0  0  0  0
 10 11  1  6  0  0  0
 10  9  1  0  0  0  0
 12 11  1  0  0  0  0
 13 10  1  0  0  0  0
 14 18  1  0  0  0  0
 14 13  1  0  0  0  0
 17 18  2  0  0  0  0
 18 15  1  0  0  0  0
 18 16  2  0  0  0  0
 19 20  1  0  0  0  0
 21 28  1  0  0  0  0
 22 21  2  0  0  0  0
 22 30  1  0  0  0  0
 24 26  1  0  0  0  0
 25 32  2  0  0  0  0
 25 21  1  0  0  0  0
 27 26  2  0  0  0  0
 28 29  1  0  0  0  0
 28 24  2  0  0  0  0
 29 20  1  0  0  0  0
 30 23  1  6  0  0  0
 30 27  1  0  0  0  0
 31 29  2  0  0  0  0
 32 31  1  0  0  0  0
M  END
>  <MODEL>
4

>  <REMARK>
 VINA RESULT:      -7.7      3.934      7.139
  Name = 
  11 active torsions:
  status: ('A' for Active; 'I' for Inactive)
    1  A    between atoms: C_3  and  N_15
    2  A    between atoms: C_3  and  C_16
    3  A    between atoms: C_7  and  N_12
    4  A    between atoms: C_7  and  C_26
    5  A    between atoms: N_12  and  S_23
    6  A    between atoms: C_14  and  C_26
    7  A    between atoms: C_16  and  N_31
    8  A    between atoms: C_18  and  C_24
    9  A    between atoms: C_18  and  C_27
   10  A    between atoms: C_26  and  N_31
   11  A    between atoms: C_27  and  C_32
                            x       y       z     vdW  Elec       q    Type
                         _______ _______ _______ _____ _____    ______ ____

>  <TORSDO>
F 11

$$$$
=
 OpenBabel11032420203D

 32 34  0  0  1  0  0  0  0  0999 V2000
  189.5550  176.7290  138.5660 C   0  0  0  0  0  2  0  0  0  0  0  0
  190.1960  177.1740  137.2600 C   0  0  0  0  0  2  0  0  0  0  0  0
  189.1650  177.8820  136.3910 C   0  0  0  0  0  2  0  0  0  0  0  0
  188.5430  179.0540  137.1610 C   0  0  0  0  0  2  0  0  0  0  0  0
  187.9390  178.6290  138.4330 N   0  0  0  0  0  0  0  0  0  0  0  0
  188.9480  177.9460  139.2680 C   0  0  1  0  0  3  0  0  0  0  0  0
  186.7890  177.7660  138.1600 C   0  0  0  0  0  2  0  0  0  0  0  0
  185.5070  178.5090  138.4760 C   0  0  0  0  0  2  0  0  0  0  0  0
  185.6400  179.1830  139.7570 N   0  0  0  0  0  2  0  0  0  0  0  0
  184.3890  178.9980  140.4750 C   0  0  2  0  0  3  0  0  0  0  0  0
  184.6470  178.2450  141.7710 C   0  0  0  0  0  2  0  0  0  0  0  0
  184.7080  179.2110  142.9400 C   0  0  0  0  0  1  0  0  0  0  0  0
  183.3710  178.2670  139.5990 C   0  0  0  0  0  2  0  0  0  0  0  0
  182.4640  177.4680  140.4120 N   0  0  0  0  0  2  0  0  0  0  0  0
  180.8240  179.5940  139.3810 C   0  0  0  0  0  1  0  0  0  0  0  0
  181.1840  179.1440  141.9950 O   0  0  0  0  0  0  0  0  0  0  0  0
  179.8380  177.5110  140.7600 O   0  0  0  0  0  0  0  0  0  0  0  0
  181.0400  178.4110  140.6920 S   0  0  0  0  0  0  0  0  0  0  0  0
  188.3920  177.5570  140.6330 C   0  0  0  0  0  2  0  0  0  0  0  0
  188.8390  178.5560  141.6870 C   0  0  0  0  0  2  0  0  0  0  0  0
  189.8270  176.7700  145.0870 C   0  0  0  0  0  0  0  0  0  0  0  0
  189.8280  177.5230  146.3760 C   0  0  0  0  0  3  0  0  0  0  0  0
  188.9150  178.5260  148.6560 Cl  0  0  0  0  0  0  0  0  0  0  0  0
  187.6690  177.5990  144.2030 C   0  0  0  0  0  3  0  0  0  0  0  0
  191.2110  176.5420  144.6580 N   0  0  0  0  0  0  0  0  0  0  0  0
  186.9120  177.2820  145.4280 C   0  0  0  0  0  3  0  0  0  0  0  0
  187.3710  177.3500  146.6830 C   0  0  0  0  0  3  0  0  0  0  0  0
  188.9880  177.4530  144.0350 C   0  0  0  0  0  0  0  0  0  0  0  0
  189.6140  177.8610  142.7600 C   0  0  0  0  0  0  0  0  0  0  0  0
  188.7290  177.7560  147.0950 C   0  0  2  0  0  3  0  0  0  0  0  0
  190.8950  177.5860  142.5440 C   0  0  0  0  0  3  0  0  0  0  0  0
  191.6810  176.9080  143.5290 N   0  0  0  0  0  0  0  0  0  0  0  0
  1  6  1  0  0  0  0
  2  1  1  0  0  0  0
  3  4  1  0  0  0  0
  3  2  1  0  0  0  0
  4  5  1  0  0  0  0
  5  6  1  0  0  0  0
  6 19  1  1  0  0  0
  7  5  1  0  0  0  0
  7  8  1  0  0  0  0
  8  9  1  0  0  0  0
  9 10  1  0  0  0  0
 10 13  1  6  0  0  0
 10 11  1  0  0  0  0
 11 12  1  0  0  0  0
 13 14  1  0  0  0  0
 14 18  1  0  0  0  0
 15 18  1  0  0  0  0
 18 17  2  0  0  0  0
 18 16  2  0  0  0  0
 19 20  1  0  0  0  0
 20 29  1  0  0  0  0
 21 22  2  0  0  0  0
 22 30  1  0  0  0  0
 24 26  1  0  0  0  0
 25 21  1  0  0  0  0
 26 27  2  0  0  0  0
 27 30  1  0  0  0  0
 28 24  2  0  0  0  0
 28 21  1  0  0  0  0
 29 28  1  0  0  0  0
 30 23  1  1  0  0  0
 31 29  2  0  0  0  0
 31 32  1  0  0  0  0
 32 25  2  0  0  0  0
M  END
>  <MODEL>
5

>  <REMARK>
 VINA RESULT:      -7.6      3.281      5.733
  Name = 
  11 active torsions:
  status: ('A' for Active; 'I' for Inactive)
    1  A    between atoms: C_3  and  N_15
    2  A    between atoms: C_3  and  C_16
    3  A    between atoms: C_7  and  N_12
    4  A    between atoms: C_7  and  C_26
    5  A    between atoms: N_12  and  S_23
    6  A    between atoms: C_14  and  C_26
    7  A    between atoms: C_16  and  N_31
    8  A    between atoms: C_18  and  C_24
    9  A    between atoms: C_18  and  C_27
   10  A    between atoms: C_26  and  N_31
   11  A    between atoms: C_27  and  C_32
                            x       y       z     vdW  Elec       q    Type
                         _______ _______ _______ _____ _____    ______ ____

>  <TORSDO>
F 11

$$$$
=
 OpenBabel11032420203D

 32 34  0  0  1  0  0  0  0  0999 V2000
  189.3170  176.7540  145.3270 C   0  0  0  0  0  2  0  0  0  0  0  0
  190.5290  177.4620  145.9130 C   0  0  0  0  0  2  0  0  0  0  0  0
  191.4690  177.8920  144.7940 C   0  0  0  0  0  2  0  0  0  0  0  0
  190.7180  178.7670  143.7820 C   0  0  0  0  0  2  0  0  0  0  0  0
  189.5350  178.0910  143.2290 N   0  0  0  0  0  0  0  0  0  0  0  0
  188.6300  177.6810  144.3220 C   0  0  1  0  0  3  0  0  0  0  0  0
  189.9610  176.9460  142.4220 C   0  0  0  0  0  2  0  0  0  0  0  0
  189.7950  177.2690  140.9510 C   0  0  0  0  0  2  0  0  0  0  0  0
  191.0130  176.9220  140.2380 N   0  0  0  0  0  2  0  0  0  0  0  0
  190.6190  176.4170  138.9320 C   0  0  2  0  0  3  0  0  0  0  0  0
  191.8420  176.3120  138.0330 C   0  0  0  0  0  2  0  0  0  0  0  0
  192.0090  174.8910  137.5300 C   0  0  0  0  0  1  0  0  0  0  0  0
  189.5470  177.3120  138.3120 C   0  0  0  0  0  2  0  0  0  0  0  0
  188.5170  176.5150  137.6590 N   0  0  0  0  0  2  0  0  0  0  0  0
  187.4920  177.5660  135.1860 C   0  0  0  0  0  1  0  0  0  0  0  0
  187.6630  179.0000  137.4390 O   0  0  0  0  0  0  0  0  0  0  0  0
  185.9790  177.2220  137.3780 O   0  0  0  0  0  0  0  0  0  0  0  0
  187.3710  177.6070  136.9600 S   0  0  0  0  0  0  0  0  0  0  0  0
  187.3480  177.0470  143.7960 C   0  0  0  0  0  2  0  0  0  0  0  0
  186.1660  177.9710  144.0370 C   0  0  0  0  0  2  0  0  0  0  0  0
  183.6870  179.2460  141.2160 C   0  0  0  0  0  0  0  0  0  0  0  0
  182.6180  178.3550  140.6750 C   0  0  0  0  0  3  0  0  0  0  0  0
  180.2420  177.1990  140.4480 Cl  0  0  0  0  0  0  0  0  0  0  0  0
  183.3670  178.7510  143.6200 C   0  0  0  0  0  3  0  0  0  0  0  0
  184.7580  179.3780  140.2220 N   0  0  0  0  0  0  0  0  0  0  0  0
  181.9150  179.0030  143.5980 C   0  0  0  0  0  3  0  0  0  0  0  0
  181.0810  178.7450  142.5840 C   0  0  0  0  0  3  0  0  0  0  0  0
  184.1850  178.7780  142.5610 C   0  0  0  0  0  0  0  0  0  0  0  0
  185.6170  178.4560  142.7330 C   0  0  0  0  0  0  0  0  0  0  0  0
  181.4470  178.1570  141.2810 C   0  0  2  0  0  3  0  0  0  0  0  0
  186.4500  178.6190  141.7120 C   0  0  0  0  0  3  0  0  0  0  0  0
  185.9820  179.0960  140.4470 N   0  0  0  0  0  0  0  0  0  0  0  0
  1  2  1  0  0  0  0
  3  2  1  0  0  0  0
  4  3  1  0  0  0  0
  5  4  1  0  0  0  0
  5  6  1  0  0  0  0
  6 19  1  6  0  0  0
  6  1  1  0  0  0  0
  7  5  1  0  0  0  0
  8  7  1  0  0  0  0
  9  8  1  0  0  0  0
 10 11  1  6  0  0  0
 10  9  1  0  0  0  0
 12 11  1  0  0  0  0
 13 10  1  0  0  0  0
 14 13  1  0  0  0  0
 15 18  1  0  0  0  0
 18 17  2  0  0  0  0
 18 16  2  0  0  0  0
 18 14  1  0  0  0  0
 19 20  1  0  0  0  0
 21 28  1  0  0  0  0
 22 21  2  0  0  0  0
 22 30  1  0  0  0  0
 25 32  2  0  0  0  0
 25 21  1  0  0  0  0
 26 24  1  0  0  0  0
 27 26  2  0  0  0  0
 28 29  1  0  0  0  0
 28 24  2  0  0  0  0
 29 20  1  0  0  0  0
 30 23  1  6  0  0  0
 30 27  1  0  0  0  0
 31 29  2  0  0  0  0
 32 31  1  0  0  0  0
M  END
>  <MODEL>
6

>  <REMARK>
 VINA RESULT:      -7.3      3.169      6.663
  Name = 
  11 active torsions:
  status: ('A' for Active; 'I' for Inactive)
    1  A    between atoms: C_3  and  N_15
    2  A    between atoms: C_3  and  C_16
    3  A    between atoms: C_7  and  N_12
    4  A    between atoms: C_7  and  C_26
    5  A    between atoms: N_12  and  S_23
    6  A    between atoms: C_14  and  C_26
    7  A    between atoms: C_16  and  N_31
    8  A    between atoms: C_18  and  C_24
    9  A    between atoms: C_18  and  C_27
   10  A    between atoms: C_26  and  N_31
   11  A    between atoms: C_27  and  C_32
                            x       y       z     vdW  Elec       q    Type
                         _______ _______ _______ _____ _____    ______ ____

>  <TORSDO>
F 11

$$$$
=
 OpenBabel11032420203D

 32 34  0  0  1  0  0  0  0  0999 V2000
  189.5010  176.8890  138.8970 C   0  0  0  0  0  2  0  0  0  0  0  0
  190.1000  177.1860  137.5300 C   0  0  0  0  0  2  0  0  0  0  0  0
  189.0030  177.6170  136.5660 C   0  0  0  0  0  2  0  0  0  0  0  0
  188.2400  178.8180  137.1390 C   0  0  0  0  0  2  0  0  0  0  0  0
  187.6750  178.5390  138.4680 N   0  0  0  0  0  0  0  0  0  0  0  0
  188.7480  178.1240  139.3950 C   0  0  1  0  0  3  0  0  0  0  0  0
  186.6370  177.5140  138.3500 C   0  0  0  0  0  2  0  0  0  0  0  0
  185.3430  178.1500  137.8840 C   0  0  0  0  0  2  0  0  0  0  0  0
  184.8640  179.0730  138.8980 N   0  0  0  0  0  2  0  0  0  0  0  0
  184.4690  178.2810  140.0520 C   0  0  2  0  0  3  0  0  0  0  0  0
  182.9940  177.9250  139.9490 C   0  0  0  0  0  2  0  0  0  0  0  0
  182.8250  176.4390  139.6950 C   0  0  0  0  0  1  0  0  0  0  0  0
  184.7710  179.0330  141.3480 C   0  0  0  0  0  2  0  0  0  0  0  0
  184.6900  178.1420  142.4980 N   0  0  0  0  0  2  0  0  0  0  0  0
  182.1410  179.2240  143.2740 C   0  0  0  0  0  1  0  0  0  0  0  0
  184.4810  180.3150  143.9780 O   0  0  0  0  0  0  0  0  0  0  0  0
  183.8900  178.1800  145.0230 O   0  0  0  0  0  0  0  0  0  0  0  0
  183.8370  178.9780  143.7500 S   0  0  0  0  0  0  0  0  0  0  0  0
  188.2270  177.9020  140.8100 C   0  0  0  0  0  2  0  0  0  0  0  0
  188.9730  178.7890  141.7920 C   0  0  0  0  0  2  0  0  0  0  0  0
  189.8640  176.6800  145.0300 C   0  0  0  0  0  0  0  0  0  0  0  0
  189.9610  177.3350  146.3680 C   0  0  0  0  0  3  0  0  0  0  0  0
  189.1920  178.2490  148.7370 Cl  0  0  0  0  0  0  0  0  0  0  0  0
  187.7730  177.7630  144.2660 C   0  0  0  0  0  3  0  0  0  0  0  0
  191.2110  176.3590  144.5480 N   0  0  0  0  0  0  0  0  0  0  0  0
  187.0160  177.4270  145.4860 C   0  0  0  0  0  3  0  0  0  0  0  0
  187.5050  177.3620  146.7300 C   0  0  0  0  0  3  0  0  0  0  0  0
  189.0690  177.5100  144.0520 C   0  0  0  0  0  0  0  0  0  0  0  0
  189.7030  177.9510  142.7920 C   0  0  0  0  0  0  0  0  0  0  0  0
  188.9030  177.6140  147.1310 C   0  0  2  0  0  3  0  0  0  0  0  0
  190.9490  177.5780  142.5220 C   0  0  0  0  0  3  0  0  0  0  0  0
  191.6890  176.7620  143.4350 N   0  0  0  0  0  0  0  0  0  0  0  0
  1  6  1  0  0  0  0
  2  1  1  0  0  0  0
  3  4  1  0  0  0  0
  3  2  1  0  0  0  0
  4  5  1  0  0  0  0
  5  6  1  0  0  0  0
  6 19  1  1  0  0  0
  7  5  1  0  0  0  0
  8  7  1  0  0  0  0
  8  9  1  0  0  0  0
  9 10  1  0  0  0  0
 10 11  1  6  0  0  0
 10 13  1  0  0  0  0
 12 11  1  0  0  0  0
 13 14  1  0  0  0  0
 14 18  1  0  0  0  0
 15 18  1  0  0  0  0
 18 16  2  0  0  0  0
 18 17  2  0  0  0  0
 19 20  1  0  0  0  0
 20 29  1  0  0  0  0
 21 22  2  0  0  0  0
 22 30  1  0  0  0  0
 24 26  1  0  0  0  0
 25 21  1  0  0  0  0
 26 27  2  0  0  0  0
 27 30  1  0  0  0  0
 28 24  2  0  0  0  0
 28 21  1  0  0  0  0
 29 28  1  0  0  0  0
 30 23  1  1  0  0  0
 31 29  2  0  0  0  0
 31 32  1  0  0  0  0
 32 25  2  0  0  0  0
M  END
>  <MODEL>
7

>  <REMARK>
 VINA RESULT:      -7.3      3.387      5.934
  Name = 
  11 active torsions:
  status: ('A' for Active; 'I' for Inactive)
    1  A    between atoms: C_3  and  N_15
    2  A    between atoms: C_3  and  C_16
    3  A    between atoms: C_7  and  N_12
    4  A    between atoms: C_7  and  C_26
    5  A    between atoms: N_12  and  S_23
    6  A    between atoms: C_14  and  C_26
    7  A    between atoms: C_16  and  N_31
    8  A    between atoms: C_18  and  C_24
    9  A    between atoms: C_18  and  C_27
   10  A    between atoms: C_26  and  N_31
   11  A    between atoms: C_27  and  C_32
                            x       y       z     vdW  Elec       q    Type
                         _______ _______ _______ _____ _____    ______ ____

>  <TORSDO>
F 11

$$$$
=
 OpenBabel11032420203D

 32 34  0  0  1  0  0  0  0  0999 V2000
  189.2860  178.1990  146.2450 C   0  0  0  0  0  2  0  0  0  0  0  0
  189.6700  177.9050  147.6870 C   0  0  0  0  0  2  0  0  0  0  0  0
  188.4500  178.0460  148.5880 C   0  0  0  0  0  2  0  0  0  0  0  0
  187.3210  177.1350  148.0910 C   0  0  0  0  0  2  0  0  0  0  0  0
  186.9600  177.4040  146.6900 N   0  0  0  0  0  0  0  0  0  0  0  0
  188.1500  177.2630  145.8260 C   0  0  1  0  0  3  0  0  0  0  0  0
  186.3740  178.7420  146.5880 C   0  0  0  0  0  2  0  0  0  0  0  0
  184.8960  178.6280  146.2760 C   0  0  0  0  0  2  0  0  0  0  0  0
  184.5620  179.5240  145.1810 N   0  0  0  0  0  2  0  0  0  0  0  0
  184.0280  178.7060  144.1020 C   0  0  2  0  0  3  0  0  0  0  0  0
  185.1030  178.4790  143.0510 C   0  0  0  0  0  2  0  0  0  0  0  0
  184.5420  178.7180  141.6610 C   0  0  0  0  0  1  0  0  0  0  0  0
  182.7860  179.3610  143.4980 C   0  0  0  0  0  2  0  0  0  0  0  0
  181.5710  178.7170  143.9790 N   0  0  0  0  0  2  0  0  0  0  0  0
  179.6200  180.4910  142.8310 C   0  0  0  0  0  1  0  0  0  0  0  0
  179.3070  177.8350  142.9550 O   0  0  0  0  0  0  0  0  0  0  0  0
  180.9930  178.6850  141.3940 O   0  0  0  0  0  0  0  0  0  0  0  0
  180.3670  178.8780  142.7470 S   0  0  0  0  0  0  0  0  0  0  0  0
  187.8120  177.4530  144.3520 C   0  0  0  0  0  2  0  0  0  0  0  0
  188.3000  176.2640  143.5430 C   0  0  0  0  0  2  0  0  0  0  0  0
  190.8920  177.5580  140.8340 C   0  0  2  0  0  3  0  0  0  0  0  0
  191.0140  176.8850  139.5070 C   0  0  0  0  0  3  0  0  0  0  0  0
  190.5540  176.3590  136.9480 Cl  0  0  0  0  0  0  0  0  0  0  0  0
  188.4210  177.6420  140.9540 C   0  0  0  0  0  3  0  0  0  0  0  0
  192.0520  177.2110  141.6620 N   0  0  0  0  0  0  0  0  0  0  0  0
  188.2610  178.2510  139.6210 C   0  0  0  0  0  3  0  0  0  0  0  0
  189.0280  178.0240  138.5480 C   0  0  0  0  0  3  0  0  0  0  0  0
  189.5760  177.2500  141.5040 C   0  0  0  0  0  0  0  0  0  0  0  0
  189.5720  176.6090  142.8360 C   0  0  0  0  0  0  0  0  0  0  0  0
  190.1910  177.1170  138.4840 C   0  0  0  0  0  0  0  0  0  0  0  0
  190.7260  176.3490  143.4390 C   0  0  0  0  0  3  0  0  0  0  0  0
  191.9730  176.6730  142.8170 N   0  0  0  0  0  0  0  0  0  0  0  0
  1  2  1  0  0  0  0
  2  3  1  0  0  0  0
  4  3  1  0  0  0  0
  5  4  1  0  0  0  0
  6 19  1  6  0  0  0
  6  1  1  0  0  0  0
  6  5  1  0  0  0  0
  7  5  1  0  0  0  0
  8  7  1  0  0  0  0
  9  8  1  0  0  0  0
 10 11  1  6  0  0  0
 10  9  1  0  0  0  0
 12 11  1  0  0  0  0
 13 14  1  0  0  0  0
 13 10  1  0  0  0  0
 17 18  2  0  0  0  0
 18 15  1  0  0  0  0
 18 16  2  0  0  0  0
 18 14  1  0  0  0  0
 20 19  1  0  0  0  0
 21 22  1  6  0  0  0
 21 28  1  0  0  0  0
 21 25  1  0  0  0  0
 23 30  1  0  0  0  0
 24 28  2  0  0  0  0
 25 32  2  0  0  0  0
 26 24  1  0  0  0  0
 27 26  2  0  0  0  0
 28 29  1  0  0  0  0
 29 31  2  0  0  0  0
 29 20  1  0  0  0  0
 30 27  1  0  0  0  0
 30 22  2  0  0  0  0
 32 31  1  0  0  0  0
M  END
>  <MODEL>
8

>  <REMARK>
 VINA RESULT:      -7.3      3.885      7.087
  Name = 
  11 active torsions:
  status: ('A' for Active; 'I' for Inactive)
    1  A    between atoms: C_3  and  N_15
    2  A    between atoms: C_3  and  C_16
    3  A    between atoms: C_7  and  N_12
    4  A    between atoms: C_7  and  C_26
    5  A    between atoms: N_12  and  S_23
    6  A    between atoms: C_14  and  C_26
    7  A    between atoms: C_16  and  N_31
    8  A    between atoms: C_18  and  C_24
    9  A    between atoms: C_18  and  C_27
   10  A    between atoms: C_26  and  N_31
   11  A    between atoms: C_27  and  C_32
                            x       y       z     vdW  Elec       q    Type
                         _______ _______ _______ _____ _____    ______ ____

>  <TORSDO>
F 11

$$$$
=
 OpenBabel11032420203D

 32 34  0  0  1  0  0  0  0  0999 V2000
  189.2930  177.0680  140.5920 C   0  0  0  0  0  2  0  0  0  0  0  0
  190.3590  177.0850  139.5060 C   0  0  0  0  0  2  0  0  0  0  0  0
  189.7150  177.3560  138.1520 C   0  0  0  0  0  2  0  0  0  0  0  0
  188.9160  178.6650  138.2030 C   0  0  0  0  0  2  0  0  0  0  0  0
  187.8980  178.6580  139.2640 N   0  0  0  0  0  0  0  0  0  0  0  0
  188.5340  178.3960  140.5710 C   0  0  1  0  0  3  0  0  0  0  0  0
  186.8750  177.6580  138.9510 C   0  0  0  0  0  2  0  0  0  0  0  0
  185.6140  178.3510  138.4750 C   0  0  0  0  0  2  0  0  0  0  0  0
  185.1630  179.2880  139.4910 N   0  0  0  0  0  2  0  0  0  0  0  0
  183.8760  178.8130  139.9750 C   0  0  2  0  0  3  0  0  0  0  0  0
  184.0800  177.9450  141.2070 C   0  0  0  0  0  2  0  0  0  0  0  0
  183.5340  178.6390  142.4400 C   0  0  0  0  0  1  0  0  0  0  0  0
  183.1360  178.0540  138.8740 C   0  0  0  0  0  2  0  0  0  0  0  0
  182.4470  176.8910  139.4170 N   0  0  0  0  0  2  0  0  0  0  0  0
  180.4200  178.7390  138.5500 C   0  0  0  0  0  1  0  0  0  0  0  0
  180.3700  177.5030  140.9240 O   0  0  0  0  0  0  0  0  0  0  0  0
  179.9560  176.1230  138.9420 O   0  0  0  0  0  0  0  0  0  0  0  0
  180.7590  177.2680  139.4920 S   0  0  0  0  0  0  0  0  0  0  0  0
  187.5310  178.4590  141.7180 C   0  0  0  0  0  2  0  0  0  0  0  0
  187.5190  177.1450  142.4790 C   0  0  0  0  0  2  0  0  0  0  0  0
  188.8470  177.8030  146.1580 C   0  0  0  0  0  0  0  0  0  0  0  0
  189.6080  176.7540  146.8970 C   0  0  0  0  0  3  0  0  0  0  0  0
  191.6900  175.3610  147.7710 Cl  0  0  0  0  0  0  0  0  0  0  0  0
  190.0020  177.5980  143.9780 C   0  0  0  0  0  3  0  0  0  0  0  0
  187.4930  177.9040  146.7150 N   0  0  0  0  0  0  0  0  0  0  0  0
  191.3550  177.7090  144.5540 C   0  0  0  0  0  3  0  0  0  0  0  0
  191.7500  177.2440  145.7440 C   0  0  0  0  0  3  0  0  0  0  0  0
  188.8560  177.5640  144.6690 C   0  0  0  0  0  0  0  0  0  0  0  0
  187.5740  177.4020  143.9520 C   0  0  0  0  0  0  0  0  0  0  0  0
  190.9110  176.5270  146.7240 C   0  0  2  0  0  3  0  0  0  0  0  0
  186.4330  177.5080  144.6230 C   0  0  0  0  0  3  0  0  0  0  0  0
  186.4250  177.7690  146.0290 N   0  0  0  0  0  0  0  0  0  0  0  0
  2  1  1  0  0  0  0
  3  4  1  0  0  0  0
  3  2  1  0  0  0  0
  4  5  1  0  0  0  0
  5  6  1  0  0  0  0
  6  1  1  0  0  0  0
  6 19  1  1  0  0  0
  7  5  1  0  0  0  0
  8  7  1  0  0  0  0
  8  9  1  0  0  0  0
  9 10  1  0  0  0  0
 10 13  1  6  0  0  0
 10 11  1  0  0  0  0
 11 12  1  0  0  0  0
 13 14  1  0  0  0  0
 14 18  1  0  0  0  0
 15 18  1  0  0  0  0
 17 18  2  0  0  0  0
 18 16  2  0  0  0  0
 19 20  1  0  0  0  0
 20 29  1  0  0  0  0
 21 25  1  0  0  0  0
 21 22  2  0  0  0  0
 24 26  1  0  0  0  0
 24 28  2  0  0  0  0
 26 27  2  0  0  0  0
 27 30  1  0  0  0  0
 28 21  1  0  0  0  0
 29 31  2  0  0  0  0
 29 28  1  0  0  0  0
 30 22  1  0  0  0  0
 30 23  1  1  0  0  0
 31 32  1  0  0  0  0
 32 25  2  0  0  0  0
M  END
>  <MODEL>
9

>  <REMARK>
 VINA RESULT:      -7.1      2.673      4.898
  Name = 
  11 active torsions:
  status: ('A' for Active; 'I' for Inactive)
    1  A    between atoms: C_3  and  N_15
    2  A    between atoms: C_3  and  C_16
    3  A    between atoms: C_7  and  N_12
    4  A    between atoms: C_7  and  C_26
    5  A    between atoms: N_12  and  S_23
    6  A    between atoms: C_14  and  C_26
    7  A    between atoms: C_16  and  N_31
    8  A    between atoms: C_18  and  C_24
    9  A    between atoms: C_18  and  C_27
   10  A    between atoms: C_26  and  N_31
   11  A    between atoms: C_27  and  C_32
                            x       y       z     vdW  Elec       q    Type
                         _______ _______ _______ _____ _____    ______ ____

>  <TORSDO>
F 11

$$$$
