=
 OpenBabel11042412063D

 30 32  0  0  0  0  0  0  0  0999 V2000
  191.1460  176.7710  137.7620 C   0  0  0  0  0  3  0  0  0  0  0  0
  184.5290  176.1610  136.7570 C   0  0  0  0  0  3  0  0  0  0  0  0
  187.3920  177.0790  144.4520 N   0  0  0  0  0  2  0  0  0  0  0  0
  187.9040  177.2080  135.9310 C   0  0  0  0  0  2  0  0  0  0  0  0
  187.0200  176.1270  136.5420 C   0  0  0  0  0  2  0  0  0  0  0  0
  188.4820  177.1940  142.2060 C   0  0  0  0  0  0  0  0  0  0  0  0
  189.8010  177.0610  137.5230 C   0  0  0  0  0  0  0  0  0  0  0  0
  188.9980  177.4420  138.6000 C   0  0  0  0  0  3  0  0  0  0  0  0
  189.5140  177.4980  139.8890 C   0  0  0  0  0  0  0  0  0  0  0  0
  183.3950  176.6650  137.3110 N   0  0  0  0  0  0  0  0  0  0  0  0
  186.2280  178.0400  142.6360 N   0  0  0  0  0  0  0  0  0  0  0  0
  189.2760  176.9510  136.2290 O   0  0  0  0  0  0  0  0  0  0  0  0
  187.3210  177.4820  143.0790 C   0  0  0  0  0  0  0  0  0  0  0  0
  190.8750  177.2130  140.0870 C   0  0  0  0  0  0  0  0  0  0  0  0
  183.4410  177.6920  138.1990 C   0  0  0  0  0  3  0  0  0  0  0  0
  188.6230  177.8600  140.9470 N   0  0  0  0  0  2  0  0  0  0  0  0
  191.6510  176.8600  139.0240 N   0  0  0  0  0  0  0  0  0  0  0  0
  186.0460  178.4330  141.3030 N   0  0  0  0  0  0  0  0  0  0  0  0
  191.4440  177.3370  141.3110 F   0  0  0  0  0  0  0  0  0  0  0  0
  184.6770  178.2400  138.5520 C   0  0  0  0  0  0  0  0  0  0  0  0
  184.9220  178.9370  140.9150 C   0  0  0  0  0  3  0  0  0  0  0  0
  185.8130  177.7310  138.0020 N   0  0  0  0  0  0  0  0  0  0  0  0
  189.3220  176.3280  142.5660 O   0  0  0  0  0  0  0  0  0  0  0  0
  185.7650  176.7110  137.1010 C   0  0  0  0  0  0  0  0  0  0  0  0
  184.7450  179.3900  139.5030 C   0  0  0  0  0  2  0  0  0  0  0  0
  186.3170  177.2580  145.3370 N   0  0  0  0  0  2  0  0  0  0  0  0
  186.7870  178.1030  146.4220 C   0  0  0  0  0  2  0  0  0  0  0  0
  185.9160  179.9240  147.6830 O   0  0  0  0  0  1  0  0  0  0  0  0
  184.3750  178.7210  146.4870 O   0  0  0  0  0  0  0  0  0  0  0  0
  185.6780  178.9750  146.8910 C   0  0  0  0  0  0  0  0  0  0  0  0
  1 17  1  0  0  0  0
  2 24  2  0  0  0  0
  2 10  1  0  0  0  0
  3 26  1  0  0  0  0
  4 12  1  0  0  0  0
  4  5  1  0  0  0  0
  5 24  1  0  0  0  0
  6 23  2  0  0  0  0
  6 13  1  0  0  0  0
  7  1  2  0  0  0  0
  7  8  1  0  0  0  0
  8  9  2  0  0  0  0
  9 14  1  0  0  0  0
  9 16  1  0  0  0  0
 10 15  2  0  0  0  0
 11 13  2  0  0  0  0
 12  7  1  0  0  0  0
 13  3  1  0  0  0  0
 14 19  1  0  0  0  0
 15 20  1  0  0  0  0
 16  6  1  0  0  0  0
 17 14  2  0  0  0  0
 18 11  1  0  0  0  0
 20 25  1  0  0  0  0
 21 18  2  0  0  0  0
 22 20  2  0  0  0  0
 24 22  1  0  0  0  0
 25 21  1  0  0  0  0
 26 27  1  0  0  0  0
 27 30  1  0  0  0  0
 29 30  2  0  0  0  0
 30 28  1  0  0  0  0
M  END
>  <MODEL>
1

>  <REMARK>
 VINA RESULT:      -8.3      0.000      0.000
  Name = 
  3 active torsions:
  status: ('A' for Active; 'I' for Inactive)
    1  A    between atoms: N_3  and  N_27
    2  A    between atoms: C_26  and  N_27
    3  A    between atoms: C_26  and  C_30
                            x       y       z     vdW  Elec       q    Type
                         _______ _______ _______ _____ _____    ______ ____

>  <TORSDO>
F 3

$$$$
=
 OpenBabel11042412063D

 30 32  0  0  0  0  0  0  0  0999 V2000
  184.2450  178.8970  141.7110 C   0  0  0  0  0  3  0  0  0  0  0  0
  188.4280  176.7010  146.4900 C   0  0  0  0  0  3  0  0  0  0  0  0
  190.7790  176.3630  138.5780 N   0  0  0  0  0  2  0  0  0  0  0  0
  185.8570  178.8490  145.0950 C   0  0  0  0  0  2  0  0  0  0  0  0
  186.4320  177.4390  145.1780 C   0  0  0  0  0  2  0  0  0  0  0  0
  188.7970  177.3670  139.7220 C   0  0  0  0  0  0  0  0  0  0  0  0
  185.2360  178.8420  142.6930 C   0  0  0  0  0  0  0  0  0  0  0  0
  186.5640  178.6820  142.2930 C   0  0  0  0  0  3  0  0  0  0  0  0
  186.8930  178.5460  140.9510 C   0  0  0  0  0  0  0  0  0  0  0  0
  189.7700  176.6960  146.7020 N   0  0  0  0  0  0  0  0  0  0  0  0
  191.0440  177.3880  140.6880 N   0  0  0  0  0  0  0  0  0  0  0  0
  184.8900  178.9280  144.0480 O   0  0  0  0  0  0  0  0  0  0  0  0
  190.2480  177.0710  139.7040 C   0  0  0  0  0  0  0  0  0  0  0  0
  185.8700  178.6210  139.9910 C   0  0  0  0  0  0  0  0  0  0  0  0
  190.6090  177.4260  145.9210 C   0  0  0  0  0  3  0  0  0  0  0  0
  188.2700  178.3490  140.6200 N   0  0  0  0  0  2  0  0  0  0  0  0
  184.5800  178.7950  140.3940 N   0  0  0  0  0  0  0  0  0  0  0  0
  190.6140  178.0460  141.8480 N   0  0  0  0  0  0  0  0  0  0  0  0
  186.1500  178.5800  138.6660 F   0  0  0  0  0  0  0  0  0  0  0  0
  190.0850  178.1930  144.8780 C   0  0  0  0  0  0  0  0  0  0  0  0
  191.4410  178.2900  142.8100 C   0  0  0  0  0  3  0  0  0  0  0  0
  188.7410  178.1920  144.6620 N   0  0  0  0  0  0  0  0  0  0  0  0
  188.0270  176.7150  138.9680 O   0  0  0  0  0  0  0  0  0  0  0  0
  187.8990  177.4730  145.4540 C   0  0  0  0  0  0  0  0  0  0  0  0
  190.9880  179.0250  144.0290 C   0  0  0  0  0  2  0  0  0  0  0  0
  192.1300  175.9890  138.5030 N   0  0  0  0  0  2  0  0  0  0  0  0
  192.5100  176.0180  137.1000 C   0  0  0  0  0  2  0  0  0  0  0  0
  194.6960  175.3440  137.7550 O   0  0  0  0  0  1  0  0  0  0  0  0
  194.6000  176.8750  136.0530 O   0  0  0  0  0  0  0  0  0  0  0  0
  193.9910  176.0460  136.9840 C   0  0  0  0  0  0  0  0  0  0  0  0
  1  7  1  0  0  0  0
  2 10  1  0  0  0  0
  3 13  1  0  0  0  0
  4  5  1  0  0  0  0
  5 24  1  0  0  0  0
  6 16  1  0  0  0  0
  7 12  1  0  0  0  0
  8  7  2  0  0  0  0
  9  8  1  0  0  0  0
 11 18  1  0  0  0  0
 12  4  1  0  0  0  0
 13  6  1  0  0  0  0
 13 11  2  0  0  0  0
 14 17  1  0  0  0  0
 14  9  2  0  0  0  0
 15 10  2  0  0  0  0
 16  9  1  0  0  0  0
 17  1  2  0  0  0  0
 18 21  2  0  0  0  0
 19 14  1  0  0  0  0
 20 15  1  0  0  0  0
 21 25  1  0  0  0  0
 22 20  2  0  0  0  0
 22 24  1  0  0  0  0
 23  6  2  0  0  0  0
 24  2  2  0  0  0  0
 25 20  1  0  0  0  0
 26  3  1  0  0  0  0
 27 26  1  0  0  0  0
 29 30  2  0  0  0  0
 30 27  1  0  0  0  0
 30 28  1  0  0  0  0
M  END
>  <MODEL>
2

>  <REMARK>
 VINA RESULT:      -8.0      2.772      8.378
  Name = 
  3 active torsions:
  status: ('A' for Active; 'I' for Inactive)
    1  A    between atoms: N_3  and  N_27
    2  A    between atoms: C_26  and  N_27
    3  A    between atoms: C_26  and  C_30
                            x       y       z     vdW  Elec       q    Type
                         _______ _______ _______ _____ _____    ______ ____

>  <TORSDO>
F 3

$$$$
=
 OpenBabel11042412063D

 30 32  0  0  0  0  0  0  0  0999 V2000
  183.4920  178.7810  144.6850 C   0  0  0  0  0  3  0  0  0  0  0  0
  189.3520  175.9160  143.0700 C   0  0  0  0  0  3  0  0  0  0  0  0
  183.7190  177.2280  137.1710 N   0  0  0  0  0  2  0  0  0  0  0  0
  187.1810  178.1610  144.9170 C   0  0  0  0  0  2  0  0  0  0  0  0
  187.3380  176.7930  144.2640 C   0  0  0  0  0  2  0  0  0  0  0  0
  183.8490  177.8920  139.5760 C   0  0  0  0  0  0  0  0  0  0  0  0
  184.8180  178.5870  144.2950 C   0  0  0  0  0  0  0  0  0  0  0  0
  185.1170  178.5740  142.9310 C   0  0  0  0  0  3  0  0  0  0  0  0
  184.1160  178.7160  141.9790 C   0  0  0  0  0  0  0  0  0  0  0  0
  190.2030  175.9370  142.0100 N   0  0  0  0  0  0  0  0  0  0  0  0
  185.8000  177.8380  138.1020 N   0  0  0  0  0  0  0  0  0  0  0  0
  185.8150  178.3920  145.2590 O   0  0  0  0  0  0  0  0  0  0  0  0
  184.5160  177.6780  138.2710 C   0  0  0  0  0  0  0  0  0  0  0  0
  182.7950  178.9230  142.4120 C   0  0  0  0  0  0  0  0  0  0  0  0
  190.0590  176.8440  141.0090 C   0  0  0  0  0  3  0  0  0  0  0  0
  184.4930  178.6550  140.6020 N   0  0  0  0  0  2  0  0  0  0  0  0
  182.5200  178.9520  143.7460 N   0  0  0  0  0  0  0  0  0  0  0  0
  186.6700  178.2380  139.1260 N   0  0  0  0  0  0  0  0  0  0  0  0
  181.7970  179.1530  141.5240 F   0  0  0  0  0  0  0  0  0  0  0  0
  189.0160  177.7710  141.0660 C   0  0  0  0  0  0  0  0  0  0  0  0
  187.9400  178.3330  138.9080 C   0  0  0  0  0  3  0  0  0  0  0  0
  188.1590  177.7450  142.1240 N   0  0  0  0  0  0  0  0  0  0  0  0
  182.7270  177.3600  139.7870 O   0  0  0  0  0  0  0  0  0  0  0  0
  188.3120  176.8460  143.1340 C   0  0  0  0  0  0  0  0  0  0  0  0
  188.8600  178.7950  139.9900 C   0  0  0  0  0  2  0  0  0  0  0  0
  184.2760  176.9440  135.9140 N   0  0  0  0  0  2  0  0  0  0  0  0
  184.0280  175.5380  135.6380 C   0  0  0  0  0  2  0  0  0  0  0  0
  186.1480  174.7520  136.3820 O   0  0  0  0  0  0  0  0  0  0  0  0
  184.3270  173.8270  137.4220 O   0  0  0  0  0  1  0  0  0  0  0  0
  184.8960  174.6980  136.5040 C   0  0  0  0  0  0  0  0  0  0  0  0
  2 24  1  0  0  0  0
  3 13  1  0  0  0  0
  4 12  1  0  0  0  0
  5  4  1  0  0  0  0
  6 23  2  0  0  0  0
  6 16  1  0  0  0  0
  7  1  1  0  0  0  0
  7 12  1  0  0  0  0
  8  7  2  0  0  0  0
  9 14  2  0  0  0  0
  9  8  1  0  0  0  0
 10  2  2  0  0  0  0
 11 13  2  0  0  0  0
 11 18  1  0  0  0  0
 13  6  1  0  0  0  0
 14 17  1  0  0  0  0
 15 20  2  0  0  0  0
 15 10  1  0  0  0  0
 16  9  1  0  0  0  0
 17  1  2  0  0  0  0
 19 14  1  0  0  0  0
 20 22  1  0  0  0  0
 21 18  2  0  0  0  0
 21 25  1  0  0  0  0
 22 24  2  0  0  0  0
 24  5  1  0  0  0  0
 25 20  1  0  0  0  0
 26  3  1  0  0  0  0
 27 26  1  0  0  0  0
 27 30  1  0  0  0  0
 28 30  2  0  0  0  0
 30 29  1  0  0  0  0
M  END
>  <MODEL>
3

>  <REMARK>
 VINA RESULT:      -7.8      3.086      7.982
  Name = 
  3 active torsions:
  status: ('A' for Active; 'I' for Inactive)
    1  A    between atoms: N_3  and  N_27
    2  A    between atoms: C_26  and  N_27
    3  A    between atoms: C_26  and  C_30
                            x       y       z     vdW  Elec       q    Type
                         _______ _______ _______ _____ _____    ______ ____

>  <TORSDO>
F 3

$$$$
=
 OpenBabel11042412063D

 30 32  0  0  0  0  0  0  0  0999 V2000
  190.3990  176.5670  136.6840 C   0  0  0  0  0  3  0  0  0  0  0  0
  183.7370  175.9490  137.3140 C   0  0  0  0  0  3  0  0  0  0  0  0
  188.3240  177.4250  144.0250 N   0  0  0  0  0  2  0  0  0  0  0  0
  186.8140  176.8960  135.6400 C   0  0  0  0  0  2  0  0  0  0  0  0
  186.1070  175.8730  136.5220 C   0  0  0  0  0  2  0  0  0  0  0  0
  188.8540  177.3570  141.5840 C   0  0  0  0  0  0  0  0  0  0  0  0
  189.0330  176.8520  136.7460 C   0  0  0  0  0  0  0  0  0  0  0  0
  188.5040  177.3220  137.9500 C   0  0  0  0  0  3  0  0  0  0  0  0
  189.3080  177.4720  139.0730 C   0  0  0  0  0  0  0  0  0  0  0  0
  182.7610  176.5050  138.0800 N   0  0  0  0  0  0  0  0  0  0  0  0
  186.7570  178.2550  142.4660 N   0  0  0  0  0  0  0  0  0  0  0  0
  188.2200  176.6490  135.6250 O   0  0  0  0  0  0  0  0  0  0  0  0
  187.9280  177.7220  142.6810 C   0  0  0  0  0  0  0  0  0  0  0  0
  190.6800  177.1890  138.9660 C   0  0  0  0  0  0  0  0  0  0  0  0
  183.0070  177.5980  138.8500 C   0  0  0  0  0  3  0  0  0  0  0  0
  188.6880  177.9230  140.2790 N   0  0  0  0  0  2  0  0  0  0  0  0
  191.1870  176.7480  137.7810 N   0  0  0  0  0  0  0  0  0  0  0  0
  186.2640  178.5480  141.1870 N   0  0  0  0  0  0  0  0  0  0  0  0
  191.5200  177.4010  140.0080 F   0  0  0  0  0  0  0  0  0  0  0  0
  184.2860  178.1590  138.8590 C   0  0  0  0  0  0  0  0  0  0  0  0
  185.0750  179.0320  141.0360 C   0  0  0  0  0  3  0  0  0  0  0  0
  185.2650  177.5970  138.0980 N   0  0  0  0  0  0  0  0  0  0  0  0
  189.7620  176.5120  141.8010 O   0  0  0  0  0  0  0  0  0  0  0  0
  185.0150  176.5120  137.3150 C   0  0  0  0  0  0  0  0  0  0  0  0
  184.5670  179.3770  139.6750 C   0  0  0  0  0  2  0  0  0  0  0  0
  187.4860  177.6820  145.1220 N   0  0  0  0  0  2  0  0  0  0  0  0
  188.2830  177.5090  146.3250 C   0  0  0  0  0  2  0  0  0  0  0  0
  186.4060  178.5600  147.3420 O   0  0  0  0  0  0  0  0  0  0  0  0
  188.0530  177.8690  148.7790 O   0  0  0  0  0  1  0  0  0  0  0  0
  187.5200  177.9970  147.5030 C   0  0  0  0  0  0  0  0  0  0  0  0
  1  7  2  0  0  0  0
  1 17  1  0  0  0  0
  2 24  2  0  0  0  0
  2 10  1  0  0  0  0
  3 26  1  0  0  0  0
  4  5  1  0  0  0  0
  5 24  1  0  0  0  0
  6 23  2  0  0  0  0
  6 13  1  0  0  0  0
  7  8  1  0  0  0  0
  8  9  2  0  0  0  0
  9 16  1  0  0  0  0
 10 15  2  0  0  0  0
 11 13  2  0  0  0  0
 12  4  1  0  0  0  0
 12  7  1  0  0  0  0
 13  3  1  0  0  0  0
 14  9  1  0  0  0  0
 14 19  1  0  0  0  0
 15 20  1  0  0  0  0
 16  6  1  0  0  0  0
 17 14  2  0  0  0  0
 18 11  1  0  0  0  0
 20 25  1  0  0  0  0
 21 18  2  0  0  0  0
 22 20  2  0  0  0  0
 24 22  1  0  0  0  0
 25 21  1  0  0  0  0
 26 27  1  0  0  0  0
 27 30  1  0  0  0  0
 28 30  2  0  0  0  0
 30 29  1  0  0  0  0
M  END
>  <MODEL>
4

>  <REMARK>
 VINA RESULT:      -7.6      1.118      1.312
  Name = 
  3 active torsions:
  status: ('A' for Active; 'I' for Inactive)
    1  A    between atoms: N_3  and  N_27
    2  A    between atoms: C_26  and  N_27
    3  A    between atoms: C_26  and  C_30
                            x       y       z     vdW  Elec       q    Type
                         _______ _______ _______ _____ _____    ______ ____

>  <TORSDO>
F 3

$$$$
=
 OpenBabel11042412063D

 30 32  0  0  0  0  0  0  0  0999 V2000
  184.9080  178.6950  146.3410 C   0  0  0  0  0  3  0  0  0  0  0  0
  189.9870  175.7900  143.0360 C   0  0  0  0  0  3  0  0  0  0  0  0
  183.1600  177.9290  138.9050 N   0  0  0  0  0  2  0  0  0  0  0  0
  188.4920  177.9120  145.5710 C   0  0  0  0  0  2  0  0  0  0  0  0
  188.3940  176.6150  144.7770 C   0  0  0  0  0  2  0  0  0  0  0  0
  183.9260  178.3330  141.2490 C   0  0  0  0  0  0  0  0  0  0  0  0
  186.0810  178.4920  145.6110 C   0  0  0  0  0  0  0  0  0  0  0  0
  186.0300  178.6100  144.2200 C   0  0  0  0  0  3  0  0  0  0  0  0
  184.8340  178.8900  143.5710 C   0  0  0  0  0  0  0  0  0  0  0  0
  190.5480  175.8890  141.8010 N   0  0  0  0  0  0  0  0  0  0  0  0
  185.4420  178.3580  139.3300 N   0  0  0  0  0  0  0  0  0  0  0  0
  187.2720  178.1590  146.2690 O   0  0  0  0  0  0  0  0  0  0  0  0
  184.2330  178.2310  139.8040 C   0  0  0  0  0  0  0  0  0  0  0  0
  183.6790  179.1020  144.3420 C   0  0  0  0  0  0  0  0  0  0  0  0
  190.2170  176.9010  140.9570 C   0  0  0  0  0  3  0  0  0  0  0  0
  184.8520  178.9590  142.1430 N   0  0  0  0  0  2  0  0  0  0  0  0
  183.7460  179.0010  145.6990 N   0  0  0  0  0  0  0  0  0  0  0  0
  186.5630  178.6140  140.1310 N   0  0  0  0  0  0  0  0  0  0  0  0
  182.5080  179.4610  143.7610 F   0  0  0  0  0  0  0  0  0  0  0  0
  189.2820  177.8560  141.3610 C   0  0  0  0  0  0  0  0  0  0  0  0
  187.7420  178.6820  139.6080 C   0  0  0  0  0  3  0  0  0  0  0  0
  188.7160  177.7530  142.5950 N   0  0  0  0  0  0  0  0  0  0  0  0
  182.8600  177.8260  141.6890 O   0  0  0  0  0  0  0  0  0  0  0  0
  189.0580  176.7470  143.4460 C   0  0  0  0  0  0  0  0  0  0  0  0
  188.9300  178.9930  140.4590 C   0  0  0  0  0  2  0  0  0  0  0  0
  183.3680  177.7570  137.5280 N   0  0  0  0  0  2  0  0  0  0  0  0
  183.0300  176.3800  137.2080 C   0  0  0  0  0  2  0  0  0  0  0  0
  185.3350  175.9270  136.8280 O   0  0  0  0  0  0  0  0  0  0  0  0
  184.1690  174.2820  137.9180 O   0  0  0  0  0  1  0  0  0  0  0  0
  184.2450  175.5300  137.3150 C   0  0  0  0  0  0  0  0  0  0  0  0
  2 24  1  0  0  0  0
  3 13  1  0  0  0  0
  4 12  1  0  0  0  0
  5  4  1  0  0  0  0
  6 23  2  0  0  0  0
  6 16  1  0  0  0  0
  7 12  1  0  0  0  0
  7  1  2  0  0  0  0
  8  7  1  0  0  0  0
  9  8  2  0  0  0  0
  9 14  1  0  0  0  0
 10  2  2  0  0  0  0
 11 13  2  0  0  0  0
 11 18  1  0  0  0  0
 13  6  1  0  0  0  0
 14 17  2  0  0  0  0
 15 20  2  0  0  0  0
 15 10  1  0  0  0  0
 16  9  1  0  0  0  0
 17  1  1  0  0  0  0
 19 14  1  0  0  0  0
 20 22  1  0  0  0  0
 21 18  2  0  0  0  0
 21 25  1  0  0  0  0
 22 24  2  0  0  0  0
 24  5  1  0  0  0  0
 25 20  1  0  0  0  0
 26  3  1  0  0  0  0
 27 30  1  0  0  0  0
 27 26  1  0  0  0  0
 28 30  2  0  0  0  0
 30 29  1  0  0  0  0
M  END
>  <MODEL>
5

>  <REMARK>
 VINA RESULT:      -7.5      2.973      7.807
  Name = 
  3 active torsions:
  status: ('A' for Active; 'I' for Inactive)
    1  A    between atoms: N_3  and  N_27
    2  A    between atoms: C_26  and  N_27
    3  A    between atoms: C_26  and  C_30
                            x       y       z     vdW  Elec       q    Type
                         _______ _______ _______ _____ _____    ______ ____

>  <TORSDO>
F 3

$$$$
=
 OpenBabel11042412063D

 30 32  0  0  0  0  0  0  0  0999 V2000
  188.4270  177.5640  136.0950 C   0  0  0  0  0  3  0  0  0  0  0  0
  182.4520  175.4650  138.3420 C   0  0  0  0  0  3  0  0  0  0  0  0
  188.2790  177.6640  143.7700 N   0  0  0  0  0  2  0  0  0  0  0  0
  184.7040  177.1310  136.0360 C   0  0  0  0  0  2  0  0  0  0  0  0
  184.4850  175.9450  136.9690 C   0  0  0  0  0  2  0  0  0  0  0  0
  188.1340  177.8070  141.2790 C   0  0  0  0  0  0  0  0  0  0  0  0
  187.1010  177.5380  136.5310 C   0  0  0  0  0  0  0  0  0  0  0  0
  186.8320  177.8330  137.8690 C   0  0  0  0  0  3  0  0  0  0  0  0
  187.8600  178.1150  138.7580 C   0  0  0  0  0  0  0  0  0  0  0  0
  181.6270  175.7620  139.3810 N   0  0  0  0  0  0  0  0  0  0  0  0
  186.2150  178.1860  142.7490 N   0  0  0  0  0  0  0  0  0  0  0  0
  186.0740  177.2020  135.6400 O   0  0  0  0  0  0  0  0  0  0  0  0
  187.4840  177.9170  142.6060 C   0  0  0  0  0  0  0  0  0  0  0  0
  189.1810  178.1460  138.2790 C   0  0  0  0  0  0  0  0  0  0  0  0
  181.8440  176.8520  140.1640 C   0  0  0  0  0  3  0  0  0  0  0  0
  187.5110  178.3720  140.1200 N   0  0  0  0  0  2  0  0  0  0  0  0
  189.4280  177.8730  136.9670 N   0  0  0  0  0  0  0  0  0  0  0  0
  185.3470  178.4100  141.6720 N   0  0  0  0  0  0  0  0  0  0  0  0
  190.2100  178.4990  139.0870 F   0  0  0  0  0  0  0  0  0  0  0  0
  182.9370  177.6810  139.8990 C   0  0  0  0  0  0  0  0  0  0  0  0
  184.0890  178.6240  141.8760 C   0  0  0  0  0  3  0  0  0  0  0  0
  183.7670  177.3790  138.8640 N   0  0  0  0  0  0  0  0  0  0  0  0
  189.2190  177.1770  141.1760 O   0  0  0  0  0  0  0  0  0  0  0  0
  183.5410  176.2960  138.0710 C   0  0  0  0  0  0  0  0  0  0  0  0
  183.1730  178.9000  140.7290 C   0  0  0  0  0  2  0  0  0  0  0  0
  187.7340  177.6880  145.0630 N   0  0  0  0  0  2  0  0  0  0  0  0
  188.7720  177.2420  145.9780 C   0  0  0  0  0  2  0  0  0  0  0  0
  189.4300  177.8790  148.1750 O   0  0  0  0  0  1  0  0  0  0  0  0
  187.1950  178.0900  147.7100 O   0  0  0  0  0  0  0  0  0  0  0  0
  188.4930  177.7640  147.3420 C   0  0  0  0  0  0  0  0  0  0  0  0
  1  7  2  0  0  0  0
  1 17  1  0  0  0  0
  2 10  1  0  0  0  0
  3 26  1  0  0  0  0
  4  5  1  0  0  0  0
  5 24  1  0  0  0  0
  6 13  1  0  0  0  0
  7  8  1  0  0  0  0
  8  9  2  0  0  0  0
  9 16  1  0  0  0  0
 10 15  2  0  0  0  0
 12  4  1  0  0  0  0
 12  7  1  0  0  0  0
 13 11  2  0  0  0  0
 13  3  1  0  0  0  0
 14  9  1  0  0  0  0
 14 19  1  0  0  0  0
 16  6  1  0  0  0  0
 17 14  2  0  0  0  0
 18 21  2  0  0  0  0
 18 11  1  0  0  0  0
 20 15  1  0  0  0  0
 20 25  1  0  0  0  0
 22 20  2  0  0  0  0
 23  6  2  0  0  0  0
 24  2  2  0  0  0  0
 24 22  1  0  0  0  0
 25 21  1  0  0  0  0
 26 27  1  0  0  0  0
 27 30  1  0  0  0  0
 30 29  2  0  0  0  0
 30 28  1  0  0  0  0
M  END
>  <MODEL>
6

>  <REMARK>
 VINA RESULT:      -7.5      1.935      2.441
  Name = 
  3 active torsions:
  status: ('A' for Active; 'I' for Inactive)
    1  A    between atoms: N_3  and  N_27
    2  A    between atoms: C_26  and  N_27
    3  A    between atoms: C_26  and  C_30
                            x       y       z     vdW  Elec       q    Type
                         _______ _______ _______ _____ _____    ______ ____

>  <TORSDO>
F 3

$$$$
=
 OpenBabel11042412063D

 30 32  0  0  0  0  0  0  0  0999 V2000
  191.9130  177.1820  141.4330 C   0  0  0  0  0  3  0  0  0  0  0  0
  188.1840  174.9370  136.3130 C   0  0  0  0  0  3  0  0  0  0  0  0
  184.4670  178.4580  142.7970 N   0  0  0  0  0  2  0  0  0  0  0  0
  191.1190  176.4170  137.8510 C   0  0  0  0  0  2  0  0  0  0  0  0
  190.0120  175.3760  137.9620 C   0  0  0  0  0  2  0  0  0  0  0  0
  186.8660  178.1990  142.1450 C   0  0  0  0  0  0  0  0  0  0  0  0
  191.2060  177.1060  140.2320 C   0  0  0  0  0  0  0  0  0  0  0  0
  189.8930  177.5800  140.2000 C   0  0  0  0  0  3  0  0  0  0  0  0
  189.2890  178.0860  141.3430 C   0  0  0  0  0  0  0  0  0  0  0  0
  187.0430  175.3170  135.6810 N   0  0  0  0  0  0  0  0  0  0  0  0
  185.0850  178.6300  140.5240 N   0  0  0  0  0  0  0  0  0  0  0  0
  191.8040  176.5460  139.0960 O   0  0  0  0  0  0  0  0  0  0  0  0
  185.4580  178.4550  141.7620 C   0  0  0  0  0  0  0  0  0  0  0  0
  190.0380  178.1590  142.5290 C   0  0  0  0  0  0  0  0  0  0  0  0
  186.4770  176.5300  135.9170 C   0  0  0  0  0  3  0  0  0  0  0  0
  187.9300  178.5200  141.2430 N   0  0  0  0  0  2  0  0  0  0  0  0
  191.3240  177.7090  142.5430 N   0  0  0  0  0  0  0  0  0  0  0  0
  185.9720  178.6070  139.4400 N   0  0  0  0  0  0  0  0  0  0  0  0
  189.5220  178.7230  143.6490 F   0  0  0  0  0  0  0  0  0  0  0  0
  187.0770  177.4010  136.8300 C   0  0  0  0  0  0  0  0  0  0  0  0
  185.5350  178.7380  138.2310 C   0  0  0  0  0  3  0  0  0  0  0  0
  188.2160  177.0170  137.4680 N   0  0  0  0  0  0  0  0  0  0  0  0
  187.1130  177.6590  143.2550 O   0  0  0  0  0  0  0  0  0  0  0  0
  188.7900  175.8080  137.2200 C   0  0  0  0  0  0  0  0  0  0  0  0
  186.4870  178.7500  137.0800 C   0  0  0  0  0  2  0  0  0  0  0  0
  183.1020  178.6340  142.5200 N   0  0  0  0  0  2  0  0  0  0  0  0
  182.4510  178.9990  143.7670 C   0  0  0  0  0  2  0  0  0  0  0  0
  180.2260  178.1850  143.9900 O   0  0  0  0  0  1  0  0  0  0  0  0
  180.4490  180.1570  142.8430 O   0  0  0  0  0  0  0  0  0  0  0  0
  180.9830  179.0920  143.5550 C   0  0  0  0  0  0  0  0  0  0  0  0
  1 17  1  0  0  0  0
  2 24  1  0  0  0  0
  4  5  1  0  0  0  0
  4 12  1  0  0  0  0
  6 23  2  0  0  0  0
  7  1  2  0  0  0  0
  8  7  1  0  0  0  0
  8  9  2  0  0  0  0
  9 14  1  0  0  0  0
 10 15  1  0  0  0  0
 10  2  2  0  0  0  0
 11 13  2  0  0  0  0
 12  7  1  0  0  0  0
 13  6  1  0  0  0  0
 13  3  1  0  0  0  0
 14 17  2  0  0  0  0
 14 19  1  0  0  0  0
 15 20  2  0  0  0  0
 16  9  1  0  0  0  0
 16  6  1  0  0  0  0
 18 11  1  0  0  0  0
 20 25  1  0  0  0  0
 20 22  1  0  0  0  0
 21 18  2  0  0  0  0
 24 22  2  0  0  0  0
 24  5  1  0  0  0  0
 25 21  1  0  0  0  0
 26  3  1  0  0  0  0
 26 27  1  0  0  0  0
 29 30  2  0  0  0  0
 30 27  1  0  0  0  0
 30 28  1  0  0  0  0
M  END
>  <MODEL>
7

>  <REMARK>
 VINA RESULT:      -7.1      2.626      3.625
  Name = 
  3 active torsions:
  status: ('A' for Active; 'I' for Inactive)
    1  A    between atoms: N_3  and  N_27
    2  A    between atoms: C_26  and  N_27
    3  A    between atoms: C_26  and  C_30
                            x       y       z     vdW  Elec       q    Type
                         _______ _______ _______ _____ _____    ______ ____

>  <TORSDO>
F 3

$$$$
=
 OpenBabel11042412063D

 30 32  0  0  0  0  0  0  0  0999 V2000
  192.8690  176.3780  138.0920 C   0  0  0  0  0  3  0  0  0  0  0  0
  186.7760  174.7680  135.7610 C   0  0  0  0  0  3  0  0  0  0  0  0
  187.5080  177.8830  143.3770 N   0  0  0  0  0  2  0  0  0  0  0  0
  190.1900  175.9670  135.5020 C   0  0  0  0  0  2  0  0  0  0  0  0
  189.2360  174.9740  136.1550 C   0  0  0  0  0  2  0  0  0  0  0  0
  189.1330  177.5690  141.5050 C   0  0  0  0  0  0  0  0  0  0  0  0
  191.6180  176.4410  137.4740 C   0  0  0  0  0  0  0  0  0  0  0  0
  190.5470  176.9780  138.1910 C   0  0  0  0  0  3  0  0  0  0  0  0
  190.7090  177.4110  139.5000 C   0  0  0  0  0  0  0  0  0  0  0  0
  185.5120  175.2560  135.8770 N   0  0  0  0  0  0  0  0  0  0  0  0
  186.8030  178.2230  141.1500 N   0  0  0  0  0  0  0  0  0  0  0  0
  191.4510  175.9550  136.1720 O   0  0  0  0  0  0  0  0  0  0  0  0
  187.7730  177.9240  141.9700 C   0  0  0  0  0  0  0  0  0  0  0  0
  191.9860  177.3440  140.0820 C   0  0  0  0  0  0  0  0  0  0  0  0
  185.2750  176.4690  136.4420 C   0  0  0  0  0  3  0  0  0  0  0  0
  189.5580  177.9150  140.1820 N   0  0  0  0  0  2  0  0  0  0  0  0
  193.0270  176.8340  139.3660 N   0  0  0  0  0  0  0  0  0  0  0  0
  186.9510  178.2520  139.7570 N   0  0  0  0  0  0  0  0  0  0  0  0
  192.2140  177.8320  141.3260 F   0  0  0  0  0  0  0  0  0  0  0  0
  186.3480  177.2280  136.9160 C   0  0  0  0  0  0  0  0  0  0  0  0
  185.9410  178.5100  138.9940 C   0  0  0  0  0  3  0  0  0  0  0  0
  187.6120  176.7350  136.8050 N   0  0  0  0  0  0  0  0  0  0  0  0
  189.8960  176.9220  142.2700 O   0  0  0  0  0  0  0  0  0  0  0  0
  187.8510  175.5270  136.2260 C   0  0  0  0  0  0  0  0  0  0  0  0
  186.1100  178.5770  137.5120 C   0  0  0  0  0  2  0  0  0  0  0  0
  186.2340  178.1480  143.9030 N   0  0  0  0  0  2  0  0  0  0  0  0
  186.3490  178.1160  145.3520 C   0  0  0  0  0  2  0  0  0  0  0  0
  184.1520  179.0240  145.2310 O   0  0  0  0  0  0  0  0  0  0  0  0
  184.9450  178.6270  147.3450 O   0  0  0  0  0  1  0  0  0  0  0  0
  185.0840  178.6020  145.9640 C   0  0  0  0  0  0  0  0  0  0  0  0
  1 17  1  0  0  0  0
  2 10  2  0  0  0  0
  2 24  1  0  0  0  0
  3 26  1  0  0  0  0
  4  5  1  0  0  0  0
  4 12  1  0  0  0  0
  5 24  1  0  0  0  0
  6 13  1  0  0  0  0
  6 23  2  0  0  0  0
  7  1  2  0  0  0  0
  7  8  1  0  0  0  0
  8  9  2  0  0  0  0
  9 14  1  0  0  0  0
  9 16  1  0  0  0  0
 10 15  1  0  0  0  0
 11 13  2  0  0  0  0
 12  7  1  0  0  0  0
 13  3  1  0  0  0  0
 14 19  1  0  0  0  0
 15 20  2  0  0  0  0
 16  6  1  0  0  0  0
 17 14  2  0  0  0  0
 18 11  1  0  0  0  0
 20 25  1  0  0  0  0
 21 18  2  0  0  0  0
 22 20  1  0  0  0  0
 24 22  2  0  0  0  0
 25 21  1  0  0  0  0
 26 27  1  0  0  0  0
 27 30  1  0  0  0  0
 28 30  2  0  0  0  0
 30 29  1  0  0  0  0
M  END
>  <MODEL>
8

>  <REMARK>
 VINA RESULT:      -7.0      1.511      1.984
  Name = 
  3 active torsions:
  status: ('A' for Active; 'I' for Inactive)
    1  A    between atoms: N_3  and  N_27
    2  A    between atoms: C_26  and  N_27
    3  A    between atoms: C_26  and  C_30
                            x       y       z     vdW  Elec       q    Type
                         _______ _______ _______ _____ _____    ______ ____

>  <TORSDO>
F 3

$$$$
=
 OpenBabel11042412063D

 30 32  0  0  0  0  0  0  0  0999 V2000
  185.8480  177.8720  137.2970 C   0  0  0  0  0  3  0  0  0  0  0  0
  180.0680  176.0490  140.2010 C   0  0  0  0  0  3  0  0  0  0  0  0
  186.4770  178.2190  144.9400 N   0  0  0  0  0  2  0  0  0  0  0  0
  182.1270  177.5640  137.6250 C   0  0  0  0  0  2  0  0  0  0  0  0
  181.9660  176.4160  138.6150 C   0  0  0  0  0  2  0  0  0  0  0  0
  186.0860  178.2890  142.4730 C   0  0  0  0  0  0  0  0  0  0  0  0
  184.5720  177.9040  137.8630 C   0  0  0  0  0  0  0  0  0  0  0  0
  184.4480  178.2510  139.2100 C   0  0  0  0  0  3  0  0  0  0  0  0
  185.5700  178.5250  139.9820 C   0  0  0  0  0  0  0  0  0  0  0  0
  179.3610  176.4070  141.3050 N   0  0  0  0  0  0  0  0  0  0  0  0
  184.3380  178.7780  144.1120 N   0  0  0  0  0  0  0  0  0  0  0  0
  183.4510  177.5760  137.0910 O   0  0  0  0  0  0  0  0  0  0  0  0
  185.5770  178.4620  143.8530 C   0  0  0  0  0  0  0  0  0  0  0  0
  186.8350  178.4960  139.3730 C   0  0  0  0  0  0  0  0  0  0  0  0
  179.6890  177.5130  142.0240 C   0  0  0  0  0  3  0  0  0  0  0  0
  185.3670  178.8370  141.3630 N   0  0  0  0  0  2  0  0  0  0  0  0
  186.9400  178.1740  138.0530 N   0  0  0  0  0  0  0  0  0  0  0  0
  183.3730  178.9970  143.1200 N   0  0  0  0  0  0  0  0  0  0  0  0
  187.9510  178.8400  140.0620 F   0  0  0  0  0  0  0  0  0  0  0  0
  180.7750  178.2950  141.6230 C   0  0  0  0  0  0  0  0  0  0  0  0
  182.1490  179.2610  143.4410 C   0  0  0  0  0  3  0  0  0  0  0  0
  181.4870  177.9320  140.5210 N   0  0  0  0  0  0  0  0  0  0  0  0
  187.1350  177.6180  142.2840 O   0  0  0  0  0  0  0  0  0  0  0  0
  181.1490  176.8330  139.7930 C   0  0  0  0  0  0  0  0  0  0  0  0
  181.1310  179.5310  142.3820 C   0  0  0  0  0  2  0  0  0  0  0  0
  186.0670  178.3030  146.2800 N   0  0  0  0  0  2  0  0  0  0  0  0
  186.8110  177.3010  147.0240 C   0  0  0  0  0  2  0  0  0  0  0  0
  188.1060  178.6220  148.5210 O   0  0  0  0  0  1  0  0  0  0  0  0
  189.2680  177.6460  146.8030 O   0  0  0  0  0  0  0  0  0  0  0  0
  188.0920  177.8840  147.5020 C   0  0  0  0  0  0  0  0  0  0  0  0
  1  7  2  0  0  0  0
  1 17  1  0  0  0  0
  2 10  1  0  0  0  0
  3 26  1  0  0  0  0
  4  5  1  0  0  0  0
  5 24  1  0  0  0  0
  6 13  1  0  0  0  0
  7  8  1  0  0  0  0
  8  9  2  0  0  0  0
  9 16  1  0  0  0  0
 10 15  2  0  0  0  0
 12  4  1  0  0  0  0
 12  7  1  0  0  0  0
 13 11  2  0  0  0  0
 13  3  1  0  0  0  0
 14  9  1  0  0  0  0
 14 19  1  0  0  0  0
 16  6  1  0  0  0  0
 17 14  2  0  0  0  0
 18 21  2  0  0  0  0
 18 11  1  0  0  0  0
 20 15  1  0  0  0  0
 20 25  1  0  0  0  0
 22 20  2  0  0  0  0
 23  6  2  0  0  0  0
 24  2  2  0  0  0  0
 24 22  1  0  0  0  0
 25 21  1  0  0  0  0
 26 27  1  0  0  0  0
 27 30  1  0  0  0  0
 29 30  2  0  0  0  0
 30 28  1  0  0  0  0
M  END
>  <MODEL>
9

>  <REMARK>
 VINA RESULT:      -6.8      3.063      4.303
  Name = 
  3 active torsions:
  status: ('A' for Active; 'I' for Inactive)
    1  A    between atoms: N_3  and  N_27
    2  A    between atoms: C_26  and  N_27
    3  A    between atoms: C_26  and  C_30
                            x       y       z     vdW  Elec       q    Type
                         _______ _______ _______ _____ _____    ______ ____

>  <TORSDO>
F 3

$$$$
