=
 OpenBabel11042410033D

 38 44  0  0  1  0  0  0  0  0999 V2000
  189.2190  176.9620  142.8140 C   0  0  2  0  0  3  0  0  0  0  0  0
  187.8820  175.9150  143.4750 S   0  0  0  0  0  0  0  0  0  0  0  0
  188.4930  178.0520  144.9530 C   0  0  2  0  0  3  0  0  0  0  0  0
  187.3720  177.2590  144.4900 N   0  0  0  0  0  0  0  0  0  0  0  0
  189.4640  178.1430  143.7690 C   0  0  1  0  0  3  0  0  0  0  0  0
  186.0410  177.7960  144.4280 C   0  0  0  0  0  0  0  0  0  0  0  0
  184.0420  178.3470  143.1690 C   0  0  0  0  0  0  0  0  0  0  0  0
  181.3920  179.4850  143.1700 C   0  0  0  0  0  2  0  0  0  0  0  0
  185.3300  177.8150  143.2230 C   0  0  0  0  0  3  0  0  0  0  0  0
  183.4660  178.8700  144.3480 C   0  0  0  0  0  0  0  0  0  0  0  0
  182.0240  178.8990  141.9440 C   0  0  0  0  0  0  0  0  0  0  0  0
  185.4320  178.3280  145.5720 C   0  0  0  0  0  3  0  0  0  0  0  0
  181.3950  178.8880  140.8550 O   0  0  0  0  0  0  0  0  0  0  0  0
  182.2650  179.3790  144.3480 N   0  0  0  0  0  0  0  0  0  0  0  0
  183.3790  178.3470  142.0140 C   0  0  0  0  0  3  0  0  0  0  0  0
  184.1740  178.8420  145.5080 N   0  0  0  0  0  0  0  0  0  0  0  0
  191.4390  179.6450  143.9660 C   0  0  0  0  0  2  0  0  0  0  0  0
  191.7780  178.5610  142.9690 C   0  0  0  0  0  2  0  0  0  0  0  0
  190.9300  178.2320  144.1800 C   0  0  0  0  0  3  0  0  0  0  0  0
  189.0810  177.4140  146.0520 O   0  0  0  0  0  0  0  0  0  0  0  0
  189.5630  177.8160  148.3400 C   0  0  0  0  0  2  0  0  0  0  0  0
  188.1730  177.2340  148.2350 C   0  0  0  0  0  2  0  0  0  0  0  0
  188.6830  178.1670  147.1580 C   0  0  0  0  0  3  0  0  0  0  0  0
  188.8700  177.4210  141.3940 C   0  0  2  0  0  3  0  0  0  0  0  0
  189.8340  176.5510  139.3090 C   0  0  1  0  0  3  0  0  0  0  0  0
  190.5760  176.0720  140.4040 O   0  0  0  0  0  0  0  0  0  0  0  0
  190.0970  177.3910  140.4980 C   0  0  2  0  0  3  0  0  0  0  0  0
  190.7780  176.9360  138.1730 C   0  0  1  0  0  3  0  0  0  0  0  0
  191.5460  175.7040  137.6490 C   0  0  2  0  0  0  0  0  0  0  0  0
  190.7810  174.3910  137.5330 C   0  0  0  0  0  1  0  0  0  0  0  0
  193.0690  175.6660  137.8100 C   0  0  2  0  0  3  0  0  0  0  0  0
  192.4410  175.9720  136.4570 C   0  0  0  0  0  2  0  0  0  0  0  0
  193.6460  174.2590  137.7900 C   0  0  0  0  0  1  0  0  0  0  0  0
  190.0190  177.6950  137.0810 C   0  0  0  0  0  2  0  0  0  0  0  0
  188.6500  177.0840  136.8500 C   0  0  0  0  0  1  0  0  0  0  0  0
  188.2920  178.7590  141.3990 N   0  0  0  0  0  2  0  0  0  0  0  0
  187.0640  178.6590  139.4230 O   0  0  0  0  0  1  0  0  0  0  0  0
  186.9640  178.6620  140.8140 C   0  0  0  0  0  2  0  0  0  0  0  0
  1 24  1  6  0  0  0
  1  2  1  0  0  0  0
  1  5  1  0  0  0  0
  2  4  1  0  0  0  0
  3 20  1  1  0  0  0
  4  3  1  0  0  0  0
  5 19  1  1  0  0  0
  5  3  1  0  0  0  0
  6  4  1  0  0  0  0
  6 12  1  0  0  0  0
  7  9  1  0  0  0  0
  7 10  1  0  0  0  0
  8 14  1  0  0  0  0
  9  6  2  0  0  0  0
 10 16  1  0  0  0  0
 11 15  1  0  0  0  0
 11  8  1  0  0  0  0
 13 11  2  0  0  0  0
 14 10  2  0  0  0  0
 15  7  2  0  0  0  0
 16 12  2  0  0  0  0
 17 19  1  0  0  0  0
 18 17  1  0  0  0  0
 18 19  1  0  0  0  0
 20 23  1  0  0  0  0
 22 21  1  0  0  0  0
 23 22  1  0  0  0  0
 23 21  1  0  0  0  0
 24 36  1  1  0  0  0
 25 28  1  6  0  0  0
 25 26  1  0  0  0  0
 25 27  1  0  0  0  0
 26 27  1  0  0  0  0
 27 24  1  1  0  0  0
 28 34  1  6  0  0  0
 29 30  1  1  0  0  0
 29 31  1  0  0  0  0
 29 28  1  0  0  0  0
 31 33  1  6  0  0  0
 32 29  1  0  0  0  0
 32 31  1  0  0  0  0
 35 34  1  0  0  0  0
 37 38  1  0  0  0  0
 38 36  1  0  0  0  0
M  END
>  <MODEL>
1

>  <REMARK>
 VINA RESULT:      -7.6      0.000      0.000
  Name = 
  11 active torsions:
  status: ('A' for Active; 'I' for Inactive)
    1  A    between atoms: C_1  and  N_31
    2  A    between atoms: C_3  and  C_24
    3  A    between atoms: C_7  and  C_24
    4  A    between atoms: O_11  and  C_22
    5  A    between atoms: O_11  and  C_29
    6  A    between atoms: C_12  and  C_24
    7  A    between atoms: C_14  and  C_26
    8  A    between atoms: N_17  and  C_26
    9  A    between atoms: N_17  and  C_38
   10  A    between atoms: C_23  and  C_26
   11  A    between atoms: C_33  and  C_34
                            x       y       z     vdW  Elec       q    Type
                         _______ _______ _______ _____ _____    ______ ____

>  <TORSDO>
F 11

$$$$
=
 OpenBabel11042410033D

 38 44  0  0  1  0  0  0  0  0999 V2000
  189.4470  177.4680  139.4400 C   0  0  2  0  0  3  0  0  0  0  0  0
  188.6830  179.1090  139.6550 S   0  0  0  0  0  0  0  0  0  0  0  0
  187.3810  177.4510  138.0170 C   0  0  2  0  0  3  0  0  0  0  0  0
  187.1690  178.4500  139.0440 N   0  0  0  0  0  0  0  0  0  0  0  0
  188.5950  176.6300  138.4710 C   0  0  1  0  0  3  0  0  0  0  0  0
  185.9540  178.5030  139.8090 C   0  0  0  0  0  0  0  0  0  0  0  0
  184.8000  178.7950  141.9230 C   0  0  0  0  0  0  0  0  0  0  0  0
  182.2960  178.8370  143.3510 C   0  0  0  0  0  2  0  0  0  0  0  0
  185.9830  178.7570  141.1850 C   0  0  0  0  0  3  0  0  0  0  0  0
  183.5720  178.5710  141.2620 C   0  0  0  0  0  0  0  0  0  0  0  0
  183.6140  179.0950  144.0160 C   0  0  0  0  0  0  0  0  0  0  0  0
  184.7140  178.2830  139.1960 C   0  0  0  0  0  3  0  0  0  0  0  0
  183.6610  179.3450  145.2480 O   0  0  0  0  0  0  0  0  0  0  0  0
  182.4400  178.5960  141.9090 N   0  0  0  0  0  0  0  0  0  0  0  0
  184.8500  179.0470  143.2300 C   0  0  0  0  0  3  0  0  0  0  0  0
  183.5670  178.3250  139.9250 N   0  0  0  0  0  0  0  0  0  0  0  0
  189.1460  174.6090  137.1260 C   0  0  0  0  0  2  0  0  0  0  0  0
  190.4030  175.0450  137.8450 C   0  0  0  0  0  2  0  0  0  0  0  0
  189.4350  176.0860  137.3200 C   0  0  0  0  0  3  0  0  0  0  0  0
  187.6220  178.0930  136.7960 O   0  0  0  0  0  0  0  0  0  0  0  0
  186.8530  176.8050  134.9590 C   0  0  0  0  0  2  0  0  0  0  0  0
  186.7510  178.2690  134.5980 C   0  0  0  0  0  2  0  0  0  0  0  0
  186.4930  177.8230  136.0210 C   0  0  0  0  0  3  0  0  0  0  0  0
  189.6190  176.7890  140.8030 C   0  0  2  0  0  3  0  0  0  0  0  0
  189.2330  177.0110  143.2180 C   0  0  1  0  0  3  0  0  0  0  0  0
  188.0480  177.3180  142.5240 O   0  0  0  0  0  0  0  0  0  0  0  0
  189.2510  177.7390  141.9310 C   0  0  2  0  0  3  0  0  0  0  0  0
  189.4210  177.9860  144.3780 C   0  0  1  0  0  3  0  0  0  0  0  0
  188.5520  177.5830  145.5880 C   0  0  2  0  0  0  0  0  0  0  0  0
  187.1250  177.1260  145.3120 C   0  0  0  0  0  1  0  0  0  0  0  0
  188.8950  178.1640  146.9640 C   0  0  2  0  0  3  0  0  0  0  0  0
  189.2560  176.7250  146.6190 C   0  0  0  0  0  2  0  0  0  0  0  0
  187.7200  178.1700  147.9290 C   0  0  0  0  0  1  0  0  0  0  0  0
  190.9070  178.1380  144.7140 C   0  0  0  0  0  2  0  0  0  0  0  0
  191.4840  179.3820  144.0650 C   0  0  0  0  0  1  0  0  0  0  0  0
  190.9830  176.3080  140.9840 N   0  0  0  0  0  2  0  0  0  0  0  0
  192.8160  177.1950  139.8550 O   0  0  0  0  0  1  0  0  0  0  0  0
  191.8710  177.4510  140.8480 C   0  0  0  0  0  2  0  0  0  0  0  0
  1  2  1  0  0  0  0
  1 24  1  1  0  0  0
  3 20  1  6  0  0  0
  3  5  1  0  0  0  0
  3  4  1  0  0  0  0
  4  2  1  0  0  0  0
  4  6  1  0  0  0  0
  5 19  1  6  0  0  0
  5  1  1  0  0  0  0
  6  9  2  0  0  0  0
  7 15  2  0  0  0  0
  8 11  1  0  0  0  0
  9  7  1  0  0  0  0
 10 14  2  0  0  0  0
 10  7  1  0  0  0  0
 11 13  2  0  0  0  0
 12  6  1  0  0  0  0
 12 16  2  0  0  0  0
 14  8  1  0  0  0  0
 15 11  1  0  0  0  0
 16 10  1  0  0  0  0
 17 19  1  0  0  0  0
 17 18  1  0  0  0  0
 19 18  1  0  0  0  0
 21 23  1  0  0  0  0
 22 21  1  0  0  0  0
 22 23  1  0  0  0  0
 23 20  1  0  0  0  0
 24 36  1  1  0  0  0
 25 28  1  1  0  0  0
 26 25  1  0  0  0  0
 27 24  1  6  0  0  0
 27 26  1  0  0  0  0
 27 25  1  0  0  0  0
 28 34  1  1  0  0  0
 28 29  1  0  0  0  0
 29 30  1  6  0  0  0
 29 32  1  0  0  0  0
 29 31  1  0  0  0  0
 31 33  1  1  0  0  0
 32 31  1  0  0  0  0
 35 34  1  0  0  0  0
 37 38  1  0  0  0  0
 38 36  1  0  0  0  0
M  END
>  <MODEL>
2

>  <REMARK>
 VINA RESULT:      -6.6      2.259      7.024
  Name = 
  11 active torsions:
  status: ('A' for Active; 'I' for Inactive)
    1  A    between atoms: C_1  and  N_31
    2  A    between atoms: C_3  and  C_24
    3  A    between atoms: C_7  and  C_24
    4  A    between atoms: O_11  and  C_22
    5  A    between atoms: O_11  and  C_29
    6  A    between atoms: C_12  and  C_24
    7  A    between atoms: C_14  and  C_26
    8  A    between atoms: N_17  and  C_26
    9  A    between atoms: N_17  and  C_38
   10  A    between atoms: C_23  and  C_26
   11  A    between atoms: C_33  and  C_34
                            x       y       z     vdW  Elec       q    Type
                         _______ _______ _______ _____ _____    ______ ____

>  <TORSDO>
F 11

$$$$
=
 OpenBabel11042410033D

 38 44  0  0  1  0  0  0  0  0999 V2000
  189.4160  177.4060  142.9350 C   0  0  2  0  0  3  0  0  0  0  0  0
  188.0470  176.2190  143.1260 S   0  0  0  0  0  0  0  0  0  0  0  0
  188.2490  178.0460  145.0610 C   0  0  2  0  0  3  0  0  0  0  0  0
  187.2810  177.3300  144.2560 N   0  0  0  0  0  0  0  0  0  0  0  0
  189.4110  178.3880  144.1200 C   0  0  1  0  0  3  0  0  0  0  0  0
  185.9530  177.8340  144.0440 C   0  0  0  0  0  0  0  0  0  0  0  0
  184.0760  178.2890  142.5760 C   0  0  0  0  0  0  0  0  0  0  0  0
  181.4200  179.3700  142.2730 C   0  0  0  0  0  2  0  0  0  0  0  0
  185.3620  177.7880  142.7760 C   0  0  0  0  0  3  0  0  0  0  0  0
  183.3800  178.8480  143.6700 C   0  0  0  0  0  0  0  0  0  0  0  0
  182.1780  178.7470  141.1390 C   0  0  0  0  0  0  0  0  0  0  0  0
  185.2270  178.4000  145.0990 C   0  0  0  0  0  3  0  0  0  0  0  0
  181.6570  178.6770  139.9960 O   0  0  0  0  0  0  0  0  0  0  0  0
  182.1760  179.3310  143.5320 N   0  0  0  0  0  0  0  0  0  0  0  0
  183.5290  178.2280  141.3630 C   0  0  0  0  0  3  0  0  0  0  0  0
  183.9730  178.8840  144.8930 N   0  0  0  0  0  0  0  0  0  0  0  0
  191.6900  179.3880  144.0720 C   0  0  0  0  0  2  0  0  0  0  0  0
  191.8340  177.8960  143.8730 C   0  0  0  0  0  2  0  0  0  0  0  0
  190.7710  178.4330  144.8100 C   0  0  0  0  0  3  0  0  0  0  0  0
  188.6670  177.2240  146.1150 O   0  0  0  0  0  0  0  0  0  0  0  0
  188.3200  177.2860  148.4610 C   0  0  0  0  0  2  0  0  0  0  0  0
  187.3290  178.2180  147.8020 C   0  0  0  0  0  2  0  0  0  0  0  0
  188.7210  178.0660  147.2260 C   0  0  0  0  0  3  0  0  0  0  0  0
  189.3030  178.1210  141.5830 C   0  0  2  0  0  3  0  0  0  0  0  0
  188.3900  177.9380  139.3110 C   0  0  1  0  0  3  0  0  0  0  0  0
  187.3930  178.4200  140.1790 O   0  0  0  0  0  0  0  0  0  0  0  0
  188.2640  177.4480  140.7010 C   0  0  2  0  0  3  0  0  0  0  0  0
  187.7850  176.9270  138.3400 C   0  0  1  0  0  3  0  0  0  0  0  0
  186.6030  177.5450  137.5630 C   0  0  2  0  0  0  0  0  0  0  0  0
  186.8280  178.8910  136.8850 C   0  0  0  0  0  1  0  0  0  0  0  0
  185.1780  177.1340  137.9470 C   0  0  2  0  0  3  0  0  0  0  0  0
  185.8340  176.5690  136.6940 C   0  0  0  0  0  2  0  0  0  0  0  0
  184.1240  178.1550  137.5460 C   0  0  0  0  0  1  0  0  0  0  0  0
  188.8710  176.3370  137.4370 C   0  0  0  0  0  2  0  0  0  0  0  0
  189.9230  177.3780  137.1060 C   0  0  0  0  0  1  0  0  0  0  0  0
  190.5880  178.1590  140.8970 N   0  0  0  0  0  2  0  0  0  0  0  0
  191.9850  176.7560  139.6720 O   0  0  0  0  0  1  0  0  0  0  0  0
  190.9900  176.7830  140.6490 C   0  0  0  0  0  2  0  0  0  0  0  0
  1 24  1  6  0  0  0
  1  2  1  0  0  0  0
  1  5  1  0  0  0  0
  2  4  1  0  0  0  0
  3 20  1  1  0  0  0
  4  3  1  0  0  0  0
  5 19  1  1  0  0  0
  5  3  1  0  0  0  0
  6  4  1  0  0  0  0
  6 12  1  0  0  0  0
  7  9  1  0  0  0  0
  7 10  1  0  0  0  0
  8 14  1  0  0  0  0
  9  6  2  0  0  0  0
 10 16  1  0  0  0  0
 11 15  1  0  0  0  0
 11  8  1  0  0  0  0
 13 11  2  0  0  0  0
 14 10  2  0  0  0  0
 15  7  2  0  0  0  0
 16 12  2  0  0  0  0
 17 19  1  0  0  0  0
 18 17  1  0  0  0  0
 18 19  1  0  0  0  0
 20 23  1  0  0  0  0
 22 21  1  0  0  0  0
 23 22  1  0  0  0  0
 23 21  1  0  0  0  0
 24 36  1  6  0  0  0
 25 28  1  6  0  0  0
 25 26  1  0  0  0  0
 25 27  1  0  0  0  0
 26 27  1  0  0  0  0
 27 24  1  1  0  0  0
 28 34  1  6  0  0  0
 29 30  1  6  0  0  0
 29 31  1  0  0  0  0
 29 28  1  0  0  0  0
 31 33  1  6  0  0  0
 32 29  1  0  0  0  0
 32 31  1  0  0  0  0
 35 34  1  0  0  0  0
 37 38  1  0  0  0  0
 38 36  1  0  0  0  0
M  END
>  <MODEL>
3

>  <REMARK>
 VINA RESULT:      -6.4      1.522      3.170
  Name = 
  11 active torsions:
  status: ('A' for Active; 'I' for Inactive)
    1  A    between atoms: C_1  and  N_31
    2  A    between atoms: C_3  and  C_24
    3  A    between atoms: C_7  and  C_24
    4  A    between atoms: O_11  and  C_22
    5  A    between atoms: O_11  and  C_29
    6  A    between atoms: C_12  and  C_24
    7  A    between atoms: C_14  and  C_26
    8  A    between atoms: N_17  and  C_26
    9  A    between atoms: N_17  and  C_38
   10  A    between atoms: C_23  and  C_26
   11  A    between atoms: C_33  and  C_34
                            x       y       z     vdW  Elec       q    Type
                         _______ _______ _______ _____ _____    ______ ____

>  <TORSDO>
F 11

$$$$
=
 OpenBabel11042410033D

 38 44  0  0  1  0  0  0  0  0999 V2000
  182.9150  178.1370  138.4700 C   0  0  2  0  0  3  0  0  0  0  0  0
  183.8470  179.5790  139.0820 S   0  0  0  0  0  0  0  0  0  0  0  0
  182.5560  178.1800  140.9530 C   0  0  2  0  0  3  0  0  0  0  0  0
  183.7930  178.8900  140.7000 N   0  0  0  0  0  0  0  0  0  0  0  0
  182.2220  177.4370  139.6530 C   0  0  1  0  0  3  0  0  0  0  0  0
  184.9880  178.6170  141.4500 C   0  0  0  0  0  0  0  0  0  0  0  0
  186.0950  178.1060  143.5470 C   0  0  0  0  0  0  0  0  0  0  0  0
  188.5670  177.6100  144.9450 C   0  0  0  0  0  2  0  0  0  0  0  0
  184.9290  178.3600  142.8240 C   0  0  0  0  0  3  0  0  0  0  0  0
  187.3360  178.1160  142.8740 C   0  0  0  0  0  0  0  0  0  0  0  0
  187.2310  177.5820  145.6240 C   0  0  0  0  0  0  0  0  0  0  0  0
  186.2410  178.6200  140.8230 C   0  0  0  0  0  3  0  0  0  0  0  0
  187.1540  177.3330  146.8540 O   0  0  0  0  0  0  0  0  0  0  0  0
  188.4520  177.8850  143.5060 N   0  0  0  0  0  0  0  0  0  0  0  0
  186.0150  177.8540  144.8530 C   0  0  0  0  0  3  0  0  0  0  0  0
  187.3700  178.3690  141.5380 N   0  0  0  0  0  0  0  0  0  0  0  0
  180.1970  176.1000  140.2050 C   0  0  0  0  0  2  0  0  0  0  0  0
  180.4670  175.9440  138.7250 C   0  0  0  0  0  2  0  0  0  0  0  0
  180.7270  177.2740  139.4030 C   0  0  0  0  0  3  0  0  0  0  0  0
  181.5590  179.1040  141.2880 O   0  0  0  0  0  0  0  0  0  0  0  0
  179.9860  178.4540  142.9400 C   0  0  0  0  0  2  0  0  0  0  0  0
  180.3100  179.9180  143.1320 C   0  0  0  0  0  2  0  0  0  0  0  0
  181.3860  178.9610  142.6650 C   0  0  0  0  0  3  0  0  0  0  0  0
  183.8510  177.1980  137.7020 C   0  0  2  0  0  3  0  0  0  0  0  0
  184.0900  174.8920  136.8920 C   0  0  1  0  0  3  0  0  0  0  0  0
  182.7400  175.2780  136.8130 O   0  0  0  0  0  0  0  0  0  0  0  0
  183.4630  175.7460  137.9240 C   0  0  2  0  0  3  0  0  0  0  0  0
  184.1880  173.4510  137.3890 C   0  0  1  0  0  3  0  0  0  0  0  0
  183.4650  172.4840  136.4270 C   0  0  2  0  0  0  0  0  0  0  0  0
  183.6950  172.6700  134.9320 C   0  0  0  0  0  1  0  0  0  0  0  0
  182.1780  171.8020  136.9020 C   0  0  2  0  0  3  0  0  0  0  0  0
  183.4890  171.0290  136.8510 C   0  0  0  0  0  2  0  0  0  0  0  0
  181.2790  171.3430  135.7650 C   0  0  0  0  0  1  0  0  0  0  0  0
  185.6470  173.0740  137.6550 C   0  0  0  0  0  2  0  0  0  0  0  0
  186.5900  174.0500  136.9750 C   0  0  0  0  0  1  0  0  0  0  0  0
  185.2410  177.4060  138.0890 N   0  0  0  0  0  2  0  0  0  0  0  0
  186.9060  178.7800  137.2160 O   0  0  0  0  0  1  0  0  0  0  0  0
  185.9730  177.7940  136.8930 C   0  0  0  0  0  2  0  0  0  0  0  0
  1 24  1  1  0  0  0
  1  2  1  0  0  0  0
  1  5  1  0  0  0  0
  2  4  1  0  0  0  0
  3 20  1  6  0  0  0
  4  3  1  0  0  0  0
  4  6  1  0  0  0  0
  5 19  1  6  0  0  0
  5  3  1  0  0  0  0
  6  9  2  0  0  0  0
  7 15  2  0  0  0  0
  8 11  1  0  0  0  0
  9  7  1  0  0  0  0
 10 14  2  0  0  0  0
 10  7  1  0  0  0  0
 11 13  2  0  0  0  0
 12  6  1  0  0  0  0
 12 16  2  0  0  0  0
 14  8  1  0  0  0  0
 15 11  1  0  0  0  0
 16 10  1  0  0  0  0
 18 19  1  0  0  0  0
 18 17  1  0  0  0  0
 19 17  1  0  0  0  0
 20 23  1  0  0  0  0
 21 22  1  0  0  0  0
 23 21  1  0  0  0  0
 23 22  1  0  0  0  0
 24 36  1  1  0  0  0
 25 28  1  1  0  0  0
 25 27  1  0  0  0  0
 26 25  1  0  0  0  0
 26 27  1  0  0  0  0
 27 24  1  6  0  0  0
 28 34  1  6  0  0  0
 29 30  1  6  0  0  0
 29 32  1  0  0  0  0
 29 31  1  0  0  0  0
 29 28  1  0  0  0  0
 31 33  1  6  0  0  0
 32 31  1  0  0  0  0
 35 34  1  0  0  0  0
 38 37  1  0  0  0  0
 38 36  1  0  0  0  0
M  END
>  <MODEL>
4

>  <REMARK>
 VINA RESULT:      -6.2      4.241      7.751
  Name = 
  11 active torsions:
  status: ('A' for Active; 'I' for Inactive)
    1  A    between atoms: C_1  and  N_31
    2  A    between atoms: C_3  and  C_24
    3  A    between atoms: C_7  and  C_24
    4  A    between atoms: O_11  and  C_22
    5  A    between atoms: O_11  and  C_29
    6  A    between atoms: C_12  and  C_24
    7  A    between atoms: C_14  and  C_26
    8  A    between atoms: N_17  and  C_26
    9  A    between atoms: N_17  and  C_38
   10  A    between atoms: C_23  and  C_26
   11  A    between atoms: C_33  and  C_34
                            x       y       z     vdW  Elec       q    Type
                         _______ _______ _______ _____ _____    ______ ____

>  <TORSDO>
F 11

$$$$
=
 OpenBabel11042410033D

 38 44  0  0  1  0  0  0  0  0999 V2000
  189.7870  177.1240  138.3120 C   0  0  2  0  0  3  0  0  0  0  0  0
  189.1200  178.8100  138.4950 S   0  0  0  0  0  0  0  0  0  0  0  0
  187.3640  176.9720  137.6810 C   0  0  2  0  0  3  0  0  0  0  0  0
  187.4970  178.1310  138.5400 N   0  0  0  0  0  0  0  0  0  0  0  0
  188.6700  176.1810  137.8340 C   0  0  1  0  0  3  0  0  0  0  0  0
  186.6080  178.3580  139.6460 C   0  0  0  0  0  0  0  0  0  0  0  0
  184.3650  178.4890  140.5600 C   0  0  0  0  0  0  0  0  0  0  0  0
  182.6870  179.0060  142.8470 C   0  0  0  0  0  2  0  0  0  0  0  0
  185.2220  178.2570  139.4840 C   0  0  0  0  0  3  0  0  0  0  0  0
  184.9160  178.8320  141.8140 C   0  0  0  0  0  0  0  0  0  0  0  0
  182.1370  178.6160  141.5080 C   0  0  0  0  0  0  0  0  0  0  0  0
  187.1100  178.7030  140.9070 C   0  0  0  0  0  3  0  0  0  0  0  0
  180.8960  178.4990  141.3470 O   0  0  0  0  0  0  0  0  0  0  0  0
  184.1560  179.0590  142.8490 N   0  0  0  0  0  0  0  0  0  0  0  0
  183.0490  178.3790  140.3860 C   0  0  0  0  0  3  0  0  0  0  0  0
  186.2660  178.9260  141.9490 N   0  0  0  0  0  0  0  0  0  0  0  0
  188.4310  174.0530  136.5650 C   0  0  0  0  0  2  0  0  0  0  0  0
  189.8830  174.1970  136.9610 C   0  0  0  0  0  2  0  0  0  0  0  0
  189.0820  175.4230  136.5760 C   0  0  0  0  0  3  0  0  0  0  0  0
  187.1740  177.4000  136.3610 O   0  0  0  0  0  0  0  0  0  0  0  0
  185.7130  176.0580  135.0610 C   0  0  0  0  0  2  0  0  0  0  0  0
  185.5330  177.5020  134.6520 C   0  0  0  0  0  2  0  0  0  0  0  0
  185.8260  177.1570  136.0970 C   0  0  0  0  0  3  0  0  0  0  0  0
  190.4150  176.6640  139.6330 C   0  0  2  0  0  3  0  0  0  0  0  0
  190.1650  176.7400  142.0750 C   0  0  1  0  0  3  0  0  0  0  0  0
  188.8990  176.5930  141.4790 O   0  0  0  0  0  0  0  0  0  0  0  0
  189.8170  177.4200  140.8080 C   0  0  2  0  0  3  0  0  0  0  0  0
  190.0770  177.7220  143.2410 C   0  0  1  0  0  3  0  0  0  0  0  0
  189.0440  177.2490  144.2860 C   0  0  2  0  0  0  0  0  0  0  0  0
  187.8970  176.3710  143.8000 C   0  0  0  0  0  1  0  0  0  0  0  0
  188.8570  178.0790  145.5600 C   0  0  2  0  0  3  0  0  0  0  0  0
  189.6370  176.7720  145.5960 C   0  0  0  0  0  2  0  0  0  0  0  0
  187.5040  177.8750  146.2240 C   0  0  0  0  0  1  0  0  0  0  0  0
  191.4660  177.9830  143.8270 C   0  0  0  0  0  2  0  0  0  0  0  0
  191.6610  179.4590  144.1190 C   0  0  0  0  0  1  0  0  0  0  0  0
  191.8620  176.8350  139.6170 N   0  0  0  0  0  2  0  0  0  0  0  0
  193.4680  177.1190  137.9550 O   0  0  0  0  0  1  0  0  0  0  0  0
  192.3400  176.3840  138.3190 C   0  0  0  0  0  2  0  0  0  0  0  0
  1  2  1  0  0  0  0
  1 24  1  1  0  0  0
  2  4  1  0  0  0  0
  3 20  1  6  0  0  0
  3  5  1  0  0  0  0
  3  4  1  0  0  0  0
  4  6  1  0  0  0  0
  5 19  1  6  0  0  0
  5  1  1  0  0  0  0
  6 12  1  0  0  0  0
  7 10  1  0  0  0  0
  8 14  1  0  0  0  0
  9  6  2  0  0  0  0
  9  7  1  0  0  0  0
 10 16  1  0  0  0  0
 10 14  2  0  0  0  0
 11  8  1  0  0  0  0
 12 16  2  0  0  0  0
 13 11  2  0  0  0  0
 15  7  2  0  0  0  0
 15 11  1  0  0  0  0
 17 19  1  0  0  0  0
 17 18  1  0  0  0  0
 19 18  1  0  0  0  0
 21 23  1  0  0  0  0
 22 21  1  0  0  0  0
 22 23  1  0  0  0  0
 23 20  1  0  0  0  0
 24 36  1  6  0  0  0
 25 28  1  1  0  0  0
 26 25  1  0  0  0  0
 27 24  1  6  0  0  0
 27 26  1  0  0  0  0
 27 25  1  0  0  0  0
 28 34  1  1  0  0  0
 28 29  1  0  0  0  0
 29 30  1  6  0  0  0
 29 31  1  0  0  0  0
 29 32  1  0  0  0  0
 31 32  1  0  0  0  0
 31 33  1  1  0  0  0
 34 35  1  0  0  0  0
 37 38  1  0  0  0  0
 38 36  1  0  0  0  0
M  END
>  <MODEL>
5

>  <REMARK>
 VINA RESULT:      -5.9      2.232      6.879
  Name = 
  11 active torsions:
  status: ('A' for Active; 'I' for Inactive)
    1  A    between atoms: C_1  and  N_31
    2  A    between atoms: C_3  and  C_24
    3  A    between atoms: C_7  and  C_24
    4  A    between atoms: O_11  and  C_22
    5  A    between atoms: O_11  and  C_29
    6  A    between atoms: C_12  and  C_24
    7  A    between atoms: C_14  and  C_26
    8  A    between atoms: N_17  and  C_26
    9  A    between atoms: N_17  and  C_38
   10  A    between atoms: C_23  and  C_26
   11  A    between atoms: C_33  and  C_34
                            x       y       z     vdW  Elec       q    Type
                         _______ _______ _______ _____ _____    ______ ____

>  <TORSDO>
F 11

$$$$
=
 OpenBabel11042410033D

 38 44  0  0  1  0  0  0  0  0999 V2000
  182.3540  177.9350  138.6650 C   0  0  2  0  0  3  0  0  0  0  0  0
  183.3230  179.4160  139.1010 S   0  0  0  0  0  0  0  0  0  0  0  0
  182.1230  178.1960  141.1490 C   0  0  2  0  0  3  0  0  0  0  0  0
  183.3490  178.8700  140.7730 N   0  0  0  0  0  0  0  0  0  0  0  0
  181.7200  177.3460  139.9370 C   0  0  1  0  0  3  0  0  0  0  0  0
  184.5800  178.6520  141.4830 C   0  0  0  0  0  0  0  0  0  0  0  0
  185.7780  178.1930  143.5410 C   0  0  0  0  0  0  0  0  0  0  0  0
  188.3160  177.8110  144.8560 C   0  0  0  0  0  2  0  0  0  0  0  0
  184.5780  178.3930  142.8580 C   0  0  0  0  0  3  0  0  0  0  0  0
  186.9940  178.2590  142.8270 C   0  0  0  0  0  0  0  0  0  0  0  0
  187.0050  177.7230  145.5790 C   0  0  0  0  0  0  0  0  0  0  0  0
  185.8090  178.7110  140.8150 C   0  0  0  0  0  3  0  0  0  0  0  0
  186.9810  177.4710  146.8100 O   0  0  0  0  0  0  0  0  0  0  0  0
  188.1400  178.0800  143.4220 N   0  0  0  0  0  0  0  0  0  0  0  0
  185.7530  177.9390  144.8490 C   0  0  0  0  0  3  0  0  0  0  0  0
  186.9720  178.5130  141.4910 N   0  0  0  0  0  0  0  0  0  0  0  0
  179.7530  175.9420  140.5330 C   0  0  0  0  0  2  0  0  0  0  0  0
  179.9230  175.8900  139.0310 C   0  0  0  0  0  2  0  0  0  0  0  0
  180.2130  177.1750  139.7790 C   0  0  0  0  0  3  0  0  0  0  0  0
  181.1490  179.1540  141.4530 O   0  0  0  0  0  0  0  0  0  0  0  0
  179.6630  178.6440  143.2300 C   0  0  0  0  0  2  0  0  0  0  0  0
  179.9840  180.1200  143.2790 C   0  0  0  0  0  2  0  0  0  0  0  0
  181.0440  179.1300  142.8440 C   0  0  0  0  0  3  0  0  0  0  0  0
  183.2450  176.9250  137.9340 C   0  0  2  0  0  3  0  0  0  0  0  0
  185.4920  176.5600  137.0120 C   0  0  1  0  0  3  0  0  0  0  0  0
  185.5950  177.2250  138.2480 O   0  0  0  0  0  0  0  0  0  0  0  0
  184.5140  177.5890  137.4260 C   0  0  2  0  0  3  0  0  0  0  0  0
  186.4910  177.1520  136.0210 C   0  0  1  0  0  3  0  0  0  0  0  0
  187.9420  176.8270  136.4380 C   0  0  2  0  0  0  0  0  0  0  0  0
  188.2460  175.4040  136.8910 C   0  0  0  0  0  1  0  0  0  0  0  0
  188.8390  177.9700  136.9240 C   0  0  2  0  0  3  0  0  0  0  0  0
  189.0090  177.3950  135.5240 C   0  0  0  0  0  2  0  0  0  0  0  0
  189.9920  177.5060  137.8010 C   0  0  0  0  0  1  0  0  0  0  0  0
  186.1520  176.7170  134.5940 C   0  0  0  0  0  2  0  0  0  0  0  0
  185.4190  175.3880  134.5940 C   0  0  0  0  0  1  0  0  0  0  0  0
  182.5340  176.2990  136.8260 N   0  0  0  0  0  2  0  0  0  0  0  0
  182.3580  177.6200  134.9170 O   0  0  0  0  0  1  0  0  0  0  0  0
  181.7750  177.3400  136.1520 C   0  0  0  0  0  2  0  0  0  0  0  0
  1 24  1  1  0  0  0
  1  2  1  0  0  0  0
  1  5  1  0  0  0  0
  2  4  1  0  0  0  0
  3 20  1  6  0  0  0
  4  3  1  0  0  0  0
  4  6  1  0  0  0  0
  5 19  1  6  0  0  0
  5  3  1  0  0  0  0
  6  9  2  0  0  0  0
  7 15  2  0  0  0  0
  8 11  1  0  0  0  0
  9  7  1  0  0  0  0
 10 14  2  0  0  0  0
 10  7  1  0  0  0  0
 11 13  2  0  0  0  0
 12  6  1  0  0  0  0
 12 16  2  0  0  0  0
 14  8  1  0  0  0  0
 15 11  1  0  0  0  0
 16 10  1  0  0  0  0
 18 19  1  0  0  0  0
 18 17  1  0  0  0  0
 19 17  1  0  0  0  0
 20 23  1  0  0  0  0
 21 22  1  0  0  0  0
 23 21  1  0  0  0  0
 23 22  1  0  0  0  0
 24 36  1  6  0  0  0
 25 28  1  6  0  0  0
 25 27  1  0  0  0  0
 25 26  1  0  0  0  0
 27 24  1  1  0  0  0
 27 26  1  0  0  0  0
 28 34  1  6  0  0  0
 28 29  1  0  0  0  0
 29 30  1  1  0  0  0
 29 31  1  0  0  0  0
 31 33  1  1  0  0  0
 32 29  1  0  0  0  0
 32 31  1  0  0  0  0
 35 34  1  0  0  0  0
 37 38  1  0  0  0  0
 38 36  1  0  0  0  0
M  END
>  <MODEL>
6

>  <REMARK>
 VINA RESULT:      -5.9      3.200      7.004
  Name = 
  11 active torsions:
  status: ('A' for Active; 'I' for Inactive)
    1  A    between atoms: C_1  and  N_31
    2  A    between atoms: C_3  and  C_24
    3  A    between atoms: C_7  and  C_24
    4  A    between atoms: O_11  and  C_22
    5  A    between atoms: O_11  and  C_29
    6  A    between atoms: C_12  and  C_24
    7  A    between atoms: C_14  and  C_26
    8  A    between atoms: N_17  and  C_26
    9  A    between atoms: N_17  and  C_38
   10  A    between atoms: C_23  and  C_26
   11  A    between atoms: C_33  and  C_34
                            x       y       z     vdW  Elec       q    Type
                         _______ _______ _______ _____ _____    ______ ____

>  <TORSDO>
F 11

$$$$
=
 OpenBabel11042410033D

 38 44  0  0  1  0  0  0  0  0999 V2000
  184.2060  177.8490  141.3490 C   0  0  2  0  0  3  0  0  0  0  0  0
  183.0040  177.0880  140.2090 S   0  0  0  0  0  0  0  0  0  0  0  0
  182.0520  179.0880  141.6980 C   0  0  2  0  0  3  0  0  0  0  0  0
  181.9930  178.5190  140.3670 N   0  0  0  0  0  0  0  0  0  0  0  0
  183.5170  178.9750  142.1400 C   0  0  1  0  0  3  0  0  0  0  0  0
  181.5970  179.3000  139.2280 C   0  0  0  0  0  0  0  0  0  0  0  0
  181.3820  181.4410  138.1070 C   0  0  0  0  0  0  0  0  0  0  0  0
  180.5120  182.9000  135.7770 C   0  0  0  0  0  2  0  0  0  0  0  0
  181.7780  180.6880  139.2130 C   0  0  0  0  0  3  0  0  0  0  0  0
  180.7930  180.7840  137.0050 C   0  0  0  0  0  0  0  0  0  0  0  0
  181.1640  183.5620  136.9540 C   0  0  0  0  0  0  0  0  0  0  0  0
  181.0060  178.6910  138.1150 C   0  0  0  0  0  3  0  0  0  0  0  0
  181.3550  184.8050  136.9510 O   0  0  0  0  0  0  0  0  0  0  0  0
  180.4060  181.4440  135.9500 N   0  0  0  0  0  0  0  0  0  0  0  0
  181.5720  182.7590  138.1090 C   0  0  0  0  0  3  0  0  0  0  0  0
  180.6250  179.4350  137.0420 N   0  0  0  0  0  0  0  0  0  0  0  0
  183.6050  180.1290  144.3440 C   0  0  0  0  0  2  0  0  0  0  0  0
  184.9540  179.4920  144.0990 C   0  0  0  0  0  2  0  0  0  0  0  0
  183.6940  178.7860  143.6430 C   0  0  0  0  0  3  0  0  0  0  0  0
  181.2030  178.3650  142.5440 O   0  0  0  0  0  0  0  0  0  0  0  0
  179.6790  178.7200  144.3270 C   0  0  0  0  0  2  0  0  0  0  0  0
  178.9340  178.8650  143.0200 C   0  0  0  0  0  2  0  0  0  0  0  0
  180.3730  179.3250  143.1240 C   0  0  0  0  0  3  0  0  0  0  0  0
  185.4260  178.3470  140.5660 C   0  0  2  0  0  3  0  0  0  0  0  0
  187.6270  177.5840  141.3440 C   0  0  1  0  0  3  0  0  0  0  0  0
  186.7190  177.5720  142.4190 O   0  0  0  0  0  0  0  0  0  0  0  0
  186.5900  178.6290  141.5010 C   0  0  2  0  0  3  0  0  0  0  0  0
  188.9800  178.1110  141.8150 C   0  0  1  0  0  3  0  0  0  0  0  0
  189.3910  177.4630  143.1540 C   0  0  2  0  0  0  0  0  0  0  0  0
  189.4450  175.9420  143.2160 C   0  0  0  0  0  1  0  0  0  0  0  0
  189.1730  178.2530  144.4490 C   0  0  2  0  0  3  0  0  0  0  0  0
  190.5660  178.1240  143.8460 C   0  0  0  0  0  2  0  0  0  0  0  0
  189.0770  177.3750  145.6870 C   0  0  0  0  0  1  0  0  0  0  0  0
  190.0290  177.9550  140.7110 C   0  0  0  0  0  2  0  0  0  0  0  0
  189.4240  178.2350  139.3480 C   0  0  0  0  0  1  0  0  0  0  0  0
  185.1060  179.5420  139.7960 N   0  0  0  0  0  2  0  0  0  0  0  0
  186.1210  178.2500  138.1460 O   0  0  0  0  0  1  0  0  0  0  0  0
  185.0980  179.1660  138.3910 C   0  0  0  0  0  2  0  0  0  0  0  0
  1 24  1  6  0  0  0
  1  5  1  0  0  0  0
  2  4  1  0  0  0  0
  2  1  1  0  0  0  0
  3  5  1  0  0  0  0
  3 20  1  1  0  0  0
  4  3  1  0  0  0  0
  5 19  1  1  0  0  0
  6  4  1  0  0  0  0
  7 15  2  0  0  0  0
  7  9  1  0  0  0  0
  8 14  1  0  0  0  0
  8 11  1  0  0  0  0
  9  6  2  0  0  0  0
 10 16  1  0  0  0  0
 10  7  1  0  0  0  0
 11 15  1  0  0  0  0
 12  6  1  0  0  0  0
 13 11  2  0  0  0  0
 14 10  2  0  0  0  0
 16 12  2  0  0  0  0
 18 17  1  0  0  0  0
 19 18  1  0  0  0  0
 19 17  1  0  0  0  0
 20 23  1  0  0  0  0
 22 23  1  0  0  0  0
 22 21  1  0  0  0  0
 23 21  1  0  0  0  0
 24 36  1  1  0  0  0
 25 27  1  0  0  0  0
 25 28  1  1  0  0  0
 25 26  1  0  0  0  0
 27 24  1  6  0  0  0
 27 26  1  0  0  0  0
 28 34  1  6  0  0  0
 28 29  1  0  0  0  0
 29 30  1  1  0  0  0
 29 32  1  0  0  0  0
 29 31  1  0  0  0  0
 31 33  1  1  0  0  0
 32 31  1  0  0  0  0
 35 34  1  0  0  0  0
 37 38  1  0  0  0  0
 38 36  1  0  0  0  0
M  END
>  <MODEL>
7

>  <REMARK>
 VINA RESULT:      -5.9      3.720      6.907
  Name = 
  11 active torsions:
  status: ('A' for Active; 'I' for Inactive)
    1  A    between atoms: C_1  and  N_31
    2  A    between atoms: C_3  and  C_24
    3  A    between atoms: C_7  and  C_24
    4  A    between atoms: O_11  and  C_22
    5  A    between atoms: O_11  and  C_29
    6  A    between atoms: C_12  and  C_24
    7  A    between atoms: C_14  and  C_26
    8  A    between atoms: N_17  and  C_26
    9  A    between atoms: N_17  and  C_38
   10  A    between atoms: C_23  and  C_26
   11  A    between atoms: C_33  and  C_34
                            x       y       z     vdW  Elec       q    Type
                         _______ _______ _______ _____ _____    ______ ____

>  <TORSDO>
F 11

$$$$
=
 OpenBabel11042410033D

 38 44  0  0  1  0  0  0  0  0999 V2000
  181.9200  178.3340  140.2860 C   0  0  2  0  0  3  0  0  0  0  0  0
  182.6760  176.7490  139.7980 S   0  0  0  0  0  0  0  0  0  0  0  0
  182.2990  178.4920  137.8110 C   0  0  2  0  0  3  0  0  0  0  0  0
  183.2380  177.5090  138.3130 N   0  0  0  0  0  0  0  0  0  0  0  0
  181.7600  179.2280  139.0440 C   0  0  1  0  0  3  0  0  0  0  0  0
  184.6290  177.5390  137.9540 C   0  0  0  0  0  0  0  0  0  0  0  0
  186.5570  176.5250  136.8870 C   0  0  0  0  0  0  0  0  0  0  0  0
  189.3670  176.6870  136.2620 C   0  0  0  0  0  2  0  0  0  0  0  0
  185.2040  176.4930  137.2230 C   0  0  0  0  0  3  0  0  0  0  0  0
  187.3400  177.6260  137.2980 C   0  0  0  0  0  0  0  0  0  0  0  0
  188.5020  175.5450  135.8200 C   0  0  0  0  0  0  0  0  0  0  0  0
  185.4440  178.6100  138.3430 C   0  0  0  0  0  3  0  0  0  0  0  0
  188.9940  174.6060  135.1460 O   0  0  0  0  0  0  0  0  0  0  0  0
  188.6100  177.7000  137.0090 N   0  0  0  0  0  0  0  0  0  0  0  0
  187.0820  175.5230  136.1840 C   0  0  0  0  0  3  0  0  0  0  0  0
  186.7620  178.6310  138.0080 N   0  0  0  0  0  0  0  0  0  0  0  0
  180.3110  181.0920  138.2560 C   0  0  0  0  0  2  0  0  0  0  0  0
  180.1080  180.9450  139.7470 C   0  0  0  0  0  2  0  0  0  0  0  0
  180.3220  179.7140  138.8910 C   0  0  0  0  0  3  0  0  0  0  0  0
  181.2770  177.8350  137.1160 O   0  0  0  0  0  0  0  0  0  0  0  0
  180.4810  177.4140  134.9220 C   0  0  0  0  0  2  0  0  0  0  0  0
  181.8670  176.8270  135.0530 C   0  0  0  0  0  2  0  0  0  0  0  0
  181.5220  178.1140  135.7710 C   0  0  0  0  0  3  0  0  0  0  0  0
  182.7620  179.0000  141.3800 C   0  0  2  0  0  3  0  0  0  0  0  0
  184.8720  178.7850  142.6190 C   0  0  1  0  0  3  0  0  0  0  0  0
  185.0420  178.2890  141.3140 O   0  0  0  0  0  0  0  0  0  0  0  0
  183.8020  178.0350  141.9250 C   0  0  2  0  0  3  0  0  0  0  0  0
  185.5890  177.8770  143.6150 C   0  0  1  0  0  3  0  0  0  0  0  0
  187.0840  177.7350  143.2570 C   0  0  2  0  0  0  0  0  0  0  0  0
  187.6250  178.5990  142.1250 C   0  0  0  0  0  1  0  0  0  0  0  0
  187.7990  176.4230  143.6000 C   0  0  2  0  0  3  0  0  0  0  0  0
  188.0200  177.6690  144.4480 C   0  0  0  0  0  2  0  0  0  0  0  0
  189.0350  176.1670  142.7510 C   0  0  0  0  0  1  0  0  0  0  0  0
  185.3450  178.3560  145.0480 C   0  0  0  0  0  2  0  0  0  0  0  0
  183.9800  179.0070  145.1750 C   0  0  0  0  0  1  0  0  0  0  0  0
  181.9230  179.4910  142.4660 N   0  0  0  0  0  2  0  0  0  0  0  0
  180.4440  178.4000  143.8960 O   0  0  0  0  0  1  0  0  0  0  0  0
  180.7680  178.6120  142.5560 C   0  0  0  0  0  2  0  0  0  0  0  0
  1 24  1  1  0  0  0
  2  1  1  0  0  0  0
  3 20  1  1  0  0  0
  3  4  1  0  0  0  0
  3  5  1  0  0  0  0
  4  2  1  0  0  0  0
  5 19  1  6  0  0  0
  5  1  1  0  0  0  0
  6  4  1  0  0  0  0
  6 12  1  0  0  0  0
  7  9  1  0  0  0  0
  7 10  1  0  0  0  0
  8 14  1  0  0  0  0
  9  6  2  0  0  0  0
 10 16  1  0  0  0  0
 11 15  1  0  0  0  0
 11  8  1  0  0  0  0
 13 11  2  0  0  0  0
 14 10  2  0  0  0  0
 15  7  2  0  0  0  0
 16 12  2  0  0  0  0
 17 19  1  0  0  0  0
 17 18  1  0  0  0  0
 19 18  1  0  0  0  0
 21 22  1  0  0  0  0
 21 23  1  0  0  0  0
 22 23  1  0  0  0  0
 23 20  1  0  0  0  0
 24 36  1  1  0  0  0
 25 28  1  1  0  0  0
 26 27  1  0  0  0  0
 26 25  1  0  0  0  0
 27 24  1  6  0  0  0
 27 25  1  0  0  0  0
 28 34  1  1  0  0  0
 29 30  1  6  0  0  0
 29 31  1  0  0  0  0
 29 28  1  0  0  0  0
 29 32  1  0  0  0  0
 31 33  1  6  0  0  0
 31 32  1  0  0  0  0
 34 35  1  0  0  0  0
 36 38  1  0  0  0  0
 38 37  1  0  0  0  0
M  END
>  <MODEL>
8

>  <REMARK>
 VINA RESULT:      -5.8      3.503      9.194
  Name = 
  11 active torsions:
  status: ('A' for Active; 'I' for Inactive)
    1  A    between atoms: C_1  and  N_31
    2  A    between atoms: C_3  and  C_24
    3  A    between atoms: C_7  and  C_24
    4  A    between atoms: O_11  and  C_22
    5  A    between atoms: O_11  and  C_29
    6  A    between atoms: C_12  and  C_24
    7  A    between atoms: C_14  and  C_26
    8  A    between atoms: N_17  and  C_26
    9  A    between atoms: N_17  and  C_38
   10  A    between atoms: C_23  and  C_26
   11  A    between atoms: C_33  and  C_34
                            x       y       z     vdW  Elec       q    Type
                         _______ _______ _______ _____ _____    ______ ____

>  <TORSDO>
F 11

$$$$
=
 OpenBabel11042410033D

 38 44  0  0  1  0  0  0  0  0999 V2000
  182.6520  178.2780  138.7780 C   0  0  2  0  0  3  0  0  0  0  0  0
  183.6500  179.6490  139.4480 S   0  0  0  0  0  0  0  0  0  0  0  0
  182.1370  178.3630  141.2320 C   0  0  2  0  0  3  0  0  0  0  0  0
  183.4390  178.9750  141.0600 N   0  0  0  0  0  0  0  0  0  0  0  0
  181.8320  177.6400  139.9140 C   0  0  1  0  0  3  0  0  0  0  0  0
  184.5580  178.6160  141.8860 C   0  0  0  0  0  0  0  0  0  0  0  0
  186.9370  178.2380  142.1710 C   0  0  0  0  0  0  0  0  0  0  0  0
  189.0930  177.4640  143.9220 C   0  0  0  0  0  2  0  0  0  0  0  0
  185.8570  178.5970  141.3650 C   0  0  0  0  0  3  0  0  0  0  0  0
  186.7020  177.8900  143.5190 C   0  0  0  0  0  0  0  0  0  0  0  0
  189.3110  177.8620  142.4940 C   0  0  0  0  0  0  0  0  0  0  0  0
  184.3710  178.2620  143.2280 C   0  0  0  0  0  3  0  0  0  0  0  0
  190.4720  177.8710  142.0120 O   0  0  0  0  0  0  0  0  0  0  0  0
  187.6790  177.5460  144.3110 N   0  0  0  0  0  0  0  0  0  0  0  0
  188.1660  178.2340  141.6580 C   0  0  0  0  0  3  0  0  0  0  0  0
  185.4320  177.9150  144.0050 N   0  0  0  0  0  0  0  0  0  0  0  0
  179.6940  176.4190  140.2780 C   0  0  0  0  0  2  0  0  0  0  0  0
  180.0460  176.3120  138.8120 C   0  0  0  0  0  2  0  0  0  0  0  0
  180.3480  177.5900  139.5680 C   0  0  0  0  0  3  0  0  0  0  0  0
  181.1930  179.3620  141.5000 O   0  0  0  0  0  0  0  0  0  0  0  0
  179.8150  178.6160  143.2810 C   0  0  0  0  0  2  0  0  0  0  0  0
  179.8120  180.1280  143.2690 C   0  0  0  0  0  2  0  0  0  0  0  0
  181.0680  179.3720  142.8900 C   0  0  0  0  0  3  0  0  0  0  0  0
  183.5610  177.2660  138.0730 C   0  0  2  0  0  3  0  0  0  0  0  0
  185.8090  176.8560  137.1720 C   0  0  1  0  0  3  0  0  0  0  0  0
  185.9050  177.2040  138.5320 O   0  0  0  0  0  0  0  0  0  0  0  0
  184.9230  177.8730  137.7810 C   0  0  2  0  0  3  0  0  0  0  0  0
  186.9260  177.5360  136.3840 C   0  0  1  0  0  3  0  0  0  0  0  0
  188.3130  177.0670  136.8740 C   0  0  2  0  0  0  0  0  0  0  0  0
  188.5210  175.5720  137.0830 C   0  0  0  0  0  1  0  0  0  0  0  0
  189.1900  178.0560  137.6490 C   0  0  2  0  0  3  0  0  0  0  0  0
  189.4880  177.7360  136.1910 C   0  0  0  0  0  2  0  0  0  0  0  0
  190.2270  177.3820  138.5340 C   0  0  0  0  0  1  0  0  0  0  0  0
  186.7110  177.3480  134.8810 C   0  0  0  0  0  2  0  0  0  0  0  0
  185.8740  176.1130  134.6040 C   0  0  0  0  0  1  0  0  0  0  0  0
  182.9560  176.7850  136.8370 N   0  0  0  0  0  2  0  0  0  0  0  0
  183.2600  174.9280  138.2100 O   0  0  0  0  0  1  0  0  0  0  0  0
  182.8140  175.3420  136.9550 C   0  0  0  0  0  2  0  0  0  0  0  0
  1 24  1  1  0  0  0
  1  2  1  0  0  0  0
  1  5  1  0  0  0  0
  2  4  1  0  0  0  0
  3 20  1  6  0  0  0
  4  3  1  0  0  0  0
  4  6  1  0  0  0  0
  5 19  1  6  0  0  0
  5  3  1  0  0  0  0
  6 12  1  0  0  0  0
  7 10  1  0  0  0  0
  8 14  1  0  0  0  0
  9  6  2  0  0  0  0
  9  7  1  0  0  0  0
 10 16  1  0  0  0  0
 10 14  2  0  0  0  0
 11  8  1  0  0  0  0
 12 16  2  0  0  0  0
 13 11  2  0  0  0  0
 15  7  2  0  0  0  0
 15 11  1  0  0  0  0
 18 19  1  0  0  0  0
 18 17  1  0  0  0  0
 19 17  1  0  0  0  0
 20 23  1  0  0  0  0
 22 21  1  0  0  0  0
 23 22  1  0  0  0  0
 23 21  1  0  0  0  0
 24 36  1  6  0  0  0
 25 28  1  6  0  0  0
 25 27  1  0  0  0  0
 25 26  1  0  0  0  0
 27 24  1  1  0  0  0
 27 26  1  0  0  0  0
 28 34  1  6  0  0  0
 28 29  1  0  0  0  0
 29 30  1  1  0  0  0
 29 31  1  0  0  0  0
 31 33  1  1  0  0  0
 32 29  1  0  0  0  0
 32 31  1  0  0  0  0
 35 34  1  0  0  0  0
 36 38  1  0  0  0  0
 38 37  1  0  0  0  0
M  END
>  <MODEL>
9

>  <REMARK>
 VINA RESULT:      -5.8      2.978      6.856
  Name = 
  11 active torsions:
  status: ('A' for Active; 'I' for Inactive)
    1  A    between atoms: C_1  and  N_31
    2  A    between atoms: C_3  and  C_24
    3  A    between atoms: C_7  and  C_24
    4  A    between atoms: O_11  and  C_22
    5  A    between atoms: O_11  and  C_29
    6  A    between atoms: C_12  and  C_24
    7  A    between atoms: C_14  and  C_26
    8  A    between atoms: N_17  and  C_26
    9  A    between atoms: N_17  and  C_38
   10  A    between atoms: C_23  and  C_26
   11  A    between atoms: C_33  and  C_34
                            x       y       z     vdW  Elec       q    Type
                         _______ _______ _______ _____ _____    ______ ____

>  <TORSDO>
F 11

$$$$
