=
 OpenBabel11042413203D

 40 43  0  0  1  0  0  0  0  0999 V2000
  188.4740  177.4670  139.6070 C   0  0  0  0  0  0  0  0  0  0  0  0
  186.7890  178.1110  142.4510 N   0  0  0  0  0  2  0  0  0  0  0  0
  188.3940  177.9470  140.7080 C   0  0  0  0  0  0  0  0  0  0  0  0
  185.0720  177.1740  136.9730 C   0  0  0  0  0  0  0  0  0  0  0  0
  183.1320  178.7090  141.4040 C   0  0  1  0  0  3  0  0  0  0  0  0
  184.3630  177.8850  141.7950 C   0  0  0  0  0  2  0  0  0  0  0  0
  186.0420  177.6040  137.9680 C   0  0  0  0  0  0  0  0  0  0  0  0
  183.6570  175.9950  134.8970 C   0  0  0  0  0  3  0  0  0  0  0  0
  185.0220  175.7080  135.0500 C   0  0  0  0  0  3  0  0  0  0  0  0
  183.7090  177.4840  136.8470 C   0  0  0  0  0  0  0  0  0  0  0  0
  183.0880  177.9740  139.1720 N   0  0  0  0  0  2  0  0  0  0  0  0
  185.6300  178.6860  141.8430 C   0  0  0  0  0  0  0  0  0  0  0  0
  183.1670  179.1130  139.9950 N   0  0  0  0  0  2  0  0  0  0  0  0
  188.1400  178.4870  142.0490 C   0  0  2  0  0  3  0  0  0  0  0  0
  188.4050  176.8520  138.3070 C   0  0  0  0  0  3  0  0  0  0  0  0
  185.7040  179.8160  141.2860 O   0  0  0  0  0  0  0  0  0  0  0  0
  185.7090  176.3140  136.1000 C   0  0  0  0  0  0  0  0  0  0  0  0
  187.2810  176.9060  137.5860 C   0  0  0  0  0  0  0  0  0  0  0  0
  183.0400  178.4560  137.7960 C   0  0  2  0  0  3  0  0  0  0  0  0
  186.0340  178.7920  138.4770 N   0  0  0  0  0  1  0  0  0  0  0  0
  187.0860  176.1200  136.4090 N   0  0  0  0  0  0  0  0  0  0  0  0
  183.0070  176.8720  135.7850 C   0  0  0  0  0  3  0  0  0  0  0  0
  189.6470  177.1810  145.2680 C   0  0  0  0  0  3  0  0  0  0  0  0
  189.1410  177.9610  143.0290 C   0  0  0  0  0  0  0  0  0  0  0  0
  188.7280  177.6660  144.3320 C   0  0  0  0  0  3  0  0  0  0  0  0
  190.9850  176.9880  144.9120 C   0  0  0  0  0  0  0  0  0  0  0  0
  190.4840  177.7710  142.6680 C   0  0  0  0  0  3  0  0  0  0  0  0
  191.4010  177.2870  143.6050 C   0  0  0  0  0  3  0  0  0  0  0  0
  191.5630  176.4480  147.2560 C   0  0  0  0  0  1  0  0  0  0  0  0
  191.8780  176.5010  145.8710 O   0  0  0  0  0  0  0  0  0  0  0  0
  181.6380  178.8230  137.4090 C   0  0  0  0  0  0  0  0  0  0  0  0
  180.6680  178.1100  137.7900 O   0  0  0  0  0  0  0  0  0  0  0  0
  181.4270  179.9390  136.6000 O   0  0  0  0  0  0  0  0  0  0  0  0
  181.2200  181.6480  138.2650 C   0  0  0  0  0  1  0  0  0  0  0  0
  180.6200  181.0270  137.0220 C   0  0  0  0  0  2  0  0  0  0  0  0
  181.8370  177.9710  141.7340 C   0  0  0  0  0  2  0  0  0  0  0  0
  180.8650  178.8750  142.4750 C   0  0  1  0  0  3  0  0  0  0  0  0
  181.5740  179.8230  143.2150 O   0  0  0  0  0  1  0  0  0  0  0  0
  179.9710  179.5750  141.4690 C   0  0  0  0  0  2  0  0  0  0  0  0
  179.6910  180.9280  141.9170 N   0  0  0  0  0  1  0  0  0  0  0  0
  1  3  3  0  0  0  0
  3 14  1  0  0  0  0
  4  7  2  0  0  0  0
  5 36  1  6  0  0  0
  5  6  1  0  0  0  0
  6 12  1  0  0  0  0
  7 20  1  0  0  0  0
  8  9  2  0  0  0  0
  8 22  1  0  0  0  0
  9 17  1  0  0  0  0
 10  4  1  0  0  0  0
 10 19  1  0  0  0  0
 11 13  1  0  0  0  0
 12  2  1  0  0  0  0
 13  5  1  0  0  0  0
 14  2  1  0  0  0  0
 14 24  1  1  0  0  0
 15  1  1  0  0  0  0
 16 12  2  0  0  0  0
 17 21  2  0  0  0  0
 17  4  1  0  0  0  0
 18  7  1  0  0  0  0
 18 15  2  0  0  0  0
 19 31  1  6  0  0  0
 19 11  1  0  0  0  0
 21 18  1  0  0  0  0
 22 10  2  0  0  0  0
 24 25  1  0  0  0  0
 25 23  2  0  0  0  0
 26 23  1  0  0  0  0
 26 30  1  0  0  0  0
 27 24  2  0  0  0  0
 27 28  1  0  0  0  0
 28 26  2  0  0  0  0
 30 29  1  0  0  0  0
 31 32  2  0  0  0  0
 33 35  1  0  0  0  0
 33 31  1  0  0  0  0
 35 34  1  0  0  0  0
 36 37  1  0  0  0  0
 37 38  1  6  0  0  0
 39 40  1  0  0  0  0
 39 37  1  0  0  0  0
M  END
>  <MODEL>
1

>  <REMARK>
 VINA RESULT:      -8.0      0.000      0.000
  Name = 
  8 active torsions:
  status: ('A' for Active; 'I' for Inactive)
    1  A    between atoms: C_1  and  O_28
    2  A    between atoms: C_1  and  C_33
    3  A    between atoms: C_4  and  C_7
    4  A    between atoms: C_4  and  C_10
    5  A    between atoms: C_7  and  C_19
    6  A    between atoms: C_16  and  C_25
    7  A    between atoms: C_23  and  O_34
    8  A    between atoms: C_27  and  O_28
                            x       y       z     vdW  Elec       q    Type
                         _______ _______ _______ _____ _____    ______ ____

>  <TORSDO>
F 8

$$$$
=
 OpenBabel11042413203D

 40 43  0  0  1  0  0  0  0  0999 V2000
  186.0810  177.5420  137.9010 C   0  0  0  0  0  0  0  0  0  0  0  0
  187.9140  177.9740  140.6920 N   0  0  0  0  0  2  0  0  0  0  0  0
  187.0700  177.9200  138.4730 C   0  0  0  0  0  0  0  0  0  0  0  0
  182.1860  177.6080  139.7500 C   0  0  0  0  0  0  0  0  0  0  0  0
  185.4010  178.7870  143.4950 C   0  0  1  0  0  3  0  0  0  0  0  0
  186.2210  177.8900  142.5620 C   0  0  0  0  0  2  0  0  0  0  0  0
  183.5480  177.9120  139.3370 C   0  0  0  0  0  0  0  0  0  0  0  0
  179.5920  176.6750  140.0650 C   0  0  0  0  0  3  0  0  0  0  0  0
  180.3120  176.3300  138.9110 C   0  0  0  0  0  2  0  0  0  0  0  0
  181.4930  177.9730  140.9150 C   0  0  0  0  0  0  0  0  0  0  0  0
  183.3270  178.2650  142.5210 N   0  0  0  0  0  2  0  0  0  0  0  0
  186.9100  178.6400  141.4610 C   0  0  0  0  0  0  0  0  0  0  0  0
  184.2060  179.3190  142.8350 N   0  0  0  0  0  2  0  0  0  0  0  0
  188.2010  178.3410  139.3100 C   0  0  2  0  0  3  0  0  0  0  0  0
  184.8350  177.0530  137.3700 C   0  0  0  0  0  2  0  0  0  0  0  0
  186.5600  179.8140  141.1580 O   0  0  0  0  0  0  0  0  0  0  0  0
  181.6120  176.8120  138.7770 C   0  0  0  0  0  0  0  0  0  0  0  0
  183.6960  177.2110  138.0500 C   0  0  0  0  0  0  0  0  0  0  0  0
  182.1310  178.8750  141.9500 C   0  0  2  0  0  3  0  0  0  0  0  0
  184.1120  179.0460  139.5880 N   0  0  0  0  0  1  0  0  0  0  0  0
  182.4860  176.5450  137.6850 N   0  0  0  0  0  0  0  0  0  0  0  0
  180.1750  177.4870  141.0560 C   0  0  0  0  0  3  0  0  0  0  0  0
  191.6860  176.8630  139.3710 C   0  0  0  0  0  3  0  0  0  0  0  0
  189.4680  177.6930  138.8500 C   0  0  0  0  0  0  0  0  0  0  0  0
  190.4890  177.4600  139.7770 C   0  0  0  0  0  3  0  0  0  0  0  0
  191.8760  176.4960  138.0350 C   0  0  0  0  0  0  0  0  0  0  0  0
  189.6550  177.3280  137.5080 C   0  0  0  0  0  3  0  0  0  0  0  0
  190.8530  176.7320  137.1020 C   0  0  0  0  0  3  0  0  0  0  0  0
  193.7600  176.2270  136.4530 C   0  0  0  0  0  1  0  0  0  0  0  0
  193.0840  175.9010  137.6610 O   0  0  0  0  0  0  0  0  0  0  0  0
  181.1930  179.3220  143.0330 C   0  0  0  0  0  0  0  0  0  0  0  0
  181.0200  178.6050  144.0580 O   0  0  0  0  0  0  0  0  0  0  0  0
  180.4970  180.5200  142.8770 O   0  0  0  0  0  0  0  0  0  0  0  0
  179.2560  181.1300  140.9210 C   0  0  0  0  0  1  0  0  0  0  0  0
  179.1920  180.5600  142.3220 C   0  0  0  0  0  2  0  0  0  0  0  0
  185.0410  178.0650  144.7900 C   0  0  0  0  0  2  0  0  0  0  0  0
  185.8040  178.6430  145.9710 C   0  0  1  0  0  3  0  0  0  0  0  0
  184.9130  178.9620  146.9980 O   0  0  0  0  0  1  0  0  0  0  0  0
  186.8080  177.6190  146.4660 C   0  0  0  0  0  2  0  0  0  0  0  0
  188.0180  177.6880  145.6670 N   0  0  0  0  0  1  0  0  0  0  0  0
  1  3  3  0  0  0  0
  2 12  1  0  0  0  0
  3 14  1  0  0  0  0
  4 10  2  0  0  0  0
  5 36  1  1  0  0  0
  6  5  1  0  0  0  0
  7 20  1  0  0  0  0
  7  4  1  0  0  0  0
  8 22  2  0  0  0  0
  9  8  1  0  0  0  0
 10 22  1  0  0  0  0
 10 19  1  0  0  0  0
 11 13  1  0  0  0  0
 12  6  1  0  0  0  0
 13  5  1  0  0  0  0
 14 24  1  6  0  0  0
 14  2  1  0  0  0  0
 15  1  1  0  0  0  0
 15 18  1  0  0  0  0
 16 12  2  0  0  0  0
 17  9  1  0  0  0  0
 17  4  1  0  0  0  0
 18  7  2  0  0  0  0
 19 11  1  0  0  0  0
 19 31  1  1  0  0  0
 21 18  1  0  0  0  0
 21 17  2  0  0  0  0
 23 25  1  0  0  0  0
 24 25  2  0  0  0  0
 26 23  2  0  0  0  0
 27 24  1  0  0  0  0
 28 27  2  0  0  0  0
 28 26  1  0  0  0  0
 29 30  1  0  0  0  0
 30 26  1  0  0  0  0
 31 32  2  0  0  0  0
 33 31  1  0  0  0  0
 34 35  1  0  0  0  0
 35 33  1  0  0  0  0
 36 37  1  0  0  0  0
 37 39  1  0  0  0  0
 37 38  1  1  0  0  0
 40 39  1  0  0  0  0
M  END
>  <MODEL>
2

>  <REMARK>
 VINA RESULT:      -7.9      3.013      5.293
  Name = 
  8 active torsions:
  status: ('A' for Active; 'I' for Inactive)
    1  A    between atoms: C_1  and  O_28
    2  A    between atoms: C_1  and  C_33
    3  A    between atoms: C_4  and  C_7
    4  A    between atoms: C_4  and  C_10
    5  A    between atoms: C_7  and  C_19
    6  A    between atoms: C_16  and  C_25
    7  A    between atoms: C_23  and  O_34
    8  A    between atoms: C_27  and  O_28
                            x       y       z     vdW  Elec       q    Type
                         _______ _______ _______ _____ _____    ______ ____

>  <TORSDO>
F 8

$$$$
=
 OpenBabel11042413203D

 40 43  0  0  1  0  0  0  0  0999 V2000
  184.0240  178.3580  140.5210 C   0  0  0  0  0  0  0  0  0  0  0  0
  185.8560  177.3650  137.8750 N   0  0  0  0  0  2  0  0  0  0  0  0
  184.2680  178.3490  139.3420 C   0  0  0  0  0  0  0  0  0  0  0  0
  187.1130  178.0460  143.5140 C   0  0  2  0  0  3  0  0  0  0  0  0
  189.4950  177.1730  139.1190 C   0  0  1  0  0  3  0  0  0  0  0  0
  188.0660  176.6760  138.8790 C   0  0  0  0  0  2  0  0  0  0  0  0
  186.3490  178.3490  142.3130 C   0  0  0  0  0  0  0  0  0  0  0  0
  188.0400  177.3490  146.0340 C   0  0  0  0  0  3  0  0  0  0  0  0
  186.6580  177.4530  145.8130 C   0  0  0  0  0  3  0  0  0  0  0  0
  188.5010  177.9530  143.7010 C   0  0  0  0  0  0  0  0  0  0  0  0
  189.2730  177.3380  141.4520 N   0  0  0  0  0  2  0  0  0  0  0  0
  187.1330  177.7450  138.3930 C   0  0  0  0  0  0  0  0  0  0  0  0
  189.5800  178.0590  140.2830 N   0  0  0  0  0  2  0  0  0  0  0  0
  184.6990  178.2520  137.9420 C   0  0  2  0  0  3  0  0  0  0  0  0
  183.8730  178.2770  141.9500 C   0  0  0  0  0  2  0  0  0  0  0  0
  187.4290  178.9660  138.5090 O   0  0  0  0  0  0  0  0  0  0  0  0
  186.2190  177.8050  144.5390 C   0  0  0  0  0  0  0  0  0  0  0  0
  184.9450  178.2510  142.7480 C   0  0  0  0  0  0  0  0  0  0  0  0
  189.4620  178.2560  142.5700 C   0  0  2  0  0  3  0  0  0  0  0  0
  186.7520  179.2030  141.4310 N   0  0  0  0  0  1  0  0  0  0  0  0
  184.8590  177.9360  144.1390 N   0  0  0  0  0  0  0  0  0  0  0  0
  188.9510  177.5960  144.9900 C   0  0  0  0  0  3  0  0  0  0  0  0
  182.8670  176.2850  135.2750 C   0  0  0  0  0  3  0  0  0  0  0  0
  183.5920  177.7300  137.0830 C   0  0  0  0  0  0  0  0  0  0  0  0
  183.8830  176.7820  136.0960 C   0  0  0  0  0  3  0  0  0  0  0  0
  181.5500  176.7310  135.4310 C   0  0  0  0  0  0  0  0  0  0  0  0
  182.2730  178.1820  137.2400 C   0  0  0  0  0  3  0  0  0  0  0  0
  181.2570  177.6850  136.4190 C   0  0  0  0  0  3  0  0  0  0  0  0
  180.0330  174.9010  134.7430 C   0  0  0  0  0  1  0  0  0  0  0  0
  180.5570  176.2140  134.5940 O   0  0  0  0  0  0  0  0  0  0  0  0
  190.9030  178.2980  142.9870 C   0  0  0  0  0  0  0  0  0  0  0  0
  191.3770  179.3360  143.5260 O   0  0  0  0  0  0  0  0  0  0  0  0
  191.7130  177.1890  142.7410 O   0  0  0  0  0  0  0  0  0  0  0  0
  191.8980  175.9540  144.7840 C   0  0  0  0  0  1  0  0  0  0  0  0
  191.4550  175.9270  143.3370 C   0  0  0  0  0  2  0  0  0  0  0  0
  190.4790  176.0120  139.2360 C   0  0  0  0  0  2  0  0  0  0  0  0
  191.4220  175.9700  138.0440 C   0  0  1  0  0  3  0  0  0  0  0  0
  192.6460  176.5470  138.3910 O   0  0  0  0  0  1  0  0  0  0  0  0
  191.6370  174.5260  137.6300 C   0  0  0  0  0  2  0  0  0  0  0  0
  190.3560  173.8670  137.4530 N   0  0  0  0  0  1  0  0  0  0  0  0
  1 15  1  0  0  0  0
  2 14  1  0  0  0  0
  2 12  1  0  0  0  0
  3  1  3  0  0  0  0
  4  7  1  6  0  0  0
  4 10  1  0  0  0  0
  4 17  1  0  0  0  0
  5 36  1  1  0  0  0
  5 13  1  0  0  0  0
  6  5  1  0  0  0  0
  7 18  2  0  0  0  0
  9  8  2  0  0  0  0
 10 22  2  0  0  0  0
 11 19  1  0  0  0  0
 12 16  2  0  0  0  0
 12  6  1  0  0  0  0
 13 11  1  0  0  0  0
 14 24  1  6  0  0  0
 14  3  1  0  0  0  0
 15 18  1  0  0  0  0
 17  9  1  0  0  0  0
 18 21  1  0  0  0  0
 19 31  1  1  0  0  0
 19 10  1  0  0  0  0
 20  7  1  0  0  0  0
 21 17  2  0  0  0  0
 22  8  1  0  0  0  0
 23 26  2  0  0  0  0
 23 25  1  0  0  0  0
 24 27  1  0  0  0  0
 25 24  2  0  0  0  0
 26 28  1  0  0  0  0
 28 27  2  0  0  0  0
 30 29  1  0  0  0  0
 30 26  1  0  0  0  0
 31 32  2  0  0  0  0
 33 31  1  0  0  0  0
 33 35  1  0  0  0  0
 35 34  1  0  0  0  0
 37 38  1  1  0  0  0
 37 36  1  0  0  0  0
 39 37  1  0  0  0  0
 40 39  1  0  0  0  0
M  END
>  <MODEL>
3

>  <REMARK>
 VINA RESULT:      -7.2      2.649      9.873
  Name = 
  8 active torsions:
  status: ('A' for Active; 'I' for Inactive)
    1  A    between atoms: C_1  and  O_28
    2  A    between atoms: C_1  and  C_33
    3  A    between atoms: C_4  and  C_7
    4  A    between atoms: C_4  and  C_10
    5  A    between atoms: C_7  and  C_19
    6  A    between atoms: C_16  and  C_25
    7  A    between atoms: C_23  and  O_34
    8  A    between atoms: C_27  and  O_28
                            x       y       z     vdW  Elec       q    Type
                         _______ _______ _______ _____ _____    ______ ____

>  <TORSDO>
F 8

$$$$
=
 OpenBabel11042413203D

 40 43  0  0  1  0  0  0  0  0999 V2000
  185.4280  178.9130  140.9390 C   0  0  0  0  0  0  0  0  0  0  0  0
  183.0910  177.2380  139.1850 N   0  0  0  0  0  2  0  0  0  0  0  0
  184.3140  178.7950  140.4970 C   0  0  0  0  0  0  0  0  0  0  0  0
  188.8970  177.4000  138.8710 C   0  0  0  0  0  0  0  0  0  0  0  0
  184.9500  175.5960  136.2400 C   0  0  1  0  0  3  0  0  0  0  0  0
  184.4240  175.7200  137.6740 C   0  0  0  0  0  2  0  0  0  0  0  0
  187.6030  177.9770  139.2040 C   0  0  0  0  0  0  0  0  0  0  0  0
  191.4880  176.4100  138.8030 C   0  0  0  0  0  3  0  0  0  0  0  0
  191.0300  177.0640  139.9580 C   0  0  0  0  0  3  0  0  0  0  0  0
  189.3230  176.7540  137.7000 C   0  0  0  0  0  0  0  0  0  0  0  0
  187.2110  175.8580  136.8220 N   0  0  0  0  0  2  0  0  0  0  0  0
  183.8540  177.0710  137.9890 C   0  0  0  0  0  0  0  0  0  0  0  0
  186.1700  176.3820  136.0330 N   0  0  0  0  0  2  0  0  0  0  0  0
  183.0110  178.5190  139.8800 C   0  0  2  0  0  3  0  0  0  0  0  0
  186.7970  178.9130  141.3810 C   0  0  0  0  0  3  0  0  0  0  0  0
  184.1070  178.0680  137.2580 O   0  0  0  0  0  0  0  0  0  0  0  0
  189.7260  177.5520  139.9650 C   0  0  0  0  0  0  0  0  0  0  0  0
  187.7710  178.4610  140.5850 C   0  0  0  0  0  0  0  0  0  0  0  0
  188.4070  176.6300  136.5010 C   0  0  2  0  0  3  0  0  0  0  0  0
  186.8690  178.5850  138.3310 N   0  0  0  0  0  1  0  0  0  0  0  0
  189.0980  178.2210  141.0550 N   0  0  0  0  0  0  0  0  0  0  0  0
  190.6440  176.2570  137.6870 C   0  0  0  0  0  3  0  0  0  0  0  0
  181.2180  178.9320  143.1900 C   0  0  0  0  0  3  0  0  0  0  0  0
  181.9320  178.4830  140.9160 C   0  0  0  0  0  0  0  0  0  0  0  0
  182.2070  178.9620  142.2010 C   0  0  0  0  0  3  0  0  0  0  0  0
  179.9480  178.4230  142.9040 C   0  0  0  0  0  0  0  0  0  0  0  0
  180.6600  177.9690  140.6260 C   0  0  0  0  0  3  0  0  0  0  0  0
  179.6720  177.9390  141.6150 C   0  0  0  0  0  3  0  0  0  0  0  0
  178.9310  179.3860  144.9430 C   0  0  0  0  0  1  0  0  0  0  0  0
  178.9820  178.4070  143.9140 O   0  0  0  0  0  0  0  0  0  0  0  0
  189.0770  176.0870  135.2730 C   0  0  0  0  0  0  0  0  0  0  0  0
  189.8600  176.8160  134.6030 O   0  0  0  0  0  0  0  0  0  0  0  0
  188.7970  174.7820  134.8680 O   0  0  0  0  0  0  0  0  0  0  0  0
  189.0170  172.7940  136.1850 C   0  0  0  0  0  1  0  0  0  0  0  0
  189.6690  173.7030  135.1660 C   0  0  0  0  0  2  0  0  0  0  0  0
  185.1600  174.1370  135.8460 C   0  0  0  0  0  2  0  0  0  0  0  0
  183.9200  173.3070  136.1330 C   0  0  1  0  0  3  0  0  0  0  0  0
  182.9910  173.4760  135.1040 O   0  0  0  0  0  1  0  0  0  0  0  0
  184.3100  171.8450  136.2330 C   0  0  0  0  0  2  0  0  0  0  0  0
  185.4820  171.5890  135.4150 N   0  0  0  0  0  1  0  0  0  0  0  0
  1 15  1  0  0  0  0
  2 14  1  0  0  0  0
  3  1  3  0  0  0  0
  4  7  2  0  0  0  0
  4 17  1  0  0  0  0
  5 36  1  1  0  0  0
  5  6  1  0  0  0  0
  6 12  1  0  0  0  0
  7 18  1  0  0  0  0
  8  9  2  0  0  0  0
  9 17  1  0  0  0  0
 10  4  1  0  0  0  0
 12  2  1  0  0  0  0
 13  5  1  0  0  0  0
 13 11  1  0  0  0  0
 14  3  1  0  0  0  0
 14 24  1  1  0  0  0
 16 12  2  0  0  0  0
 17 21  2  0  0  0  0
 18 21  1  0  0  0  0
 18 15  2  0  0  0  0
 19 31  1  6  0  0  0
 19 11  1  0  0  0  0
 19 10  1  0  0  0  0
 20  7  1  0  0  0  0
 22 10  2  0  0  0  0
 22  8  1  0  0  0  0
 24 25  1  0  0  0  0
 25 23  2  0  0  0  0
 26 23  1  0  0  0  0
 26 30  1  0  0  0  0
 27 24  2  0  0  0  0
 27 28  1  0  0  0  0
 28 26  2  0  0  0  0
 30 29  1  0  0  0  0
 32 31  2  0  0  0  0
 33 35  1  0  0  0  0
 33 31  1  0  0  0  0
 35 34  1  0  0  0  0
 36 37  1  0  0  0  0
 37 38  1  6  0  0  0
 37 39  1  0  0  0  0
 40 39  1  0  0  0  0
M  END
>  <MODEL>
4

>  <REMARK>
 VINA RESULT:      -6.5      3.399      8.033
  Name = 
  8 active torsions:
  status: ('A' for Active; 'I' for Inactive)
    1  A    between atoms: C_1  and  O_28
    2  A    between atoms: C_1  and  C_33
    3  A    between atoms: C_4  and  C_7
    4  A    between atoms: C_4  and  C_10
    5  A    between atoms: C_7  and  C_19
    6  A    between atoms: C_16  and  C_25
    7  A    between atoms: C_23  and  O_34
    8  A    between atoms: C_27  and  O_28
                            x       y       z     vdW  Elec       q    Type
                         _______ _______ _______ _____ _____    ______ ____

>  <TORSDO>
F 8

$$$$
=
 OpenBabel11042413203D

 40 43  0  0  1  0  0  0  0  0999 V2000
  184.3910  178.6300  140.7530 C   0  0  0  0  0  0  0  0  0  0  0  0
  185.3460  177.4780  137.7350 N   0  0  0  0  0  2  0  0  0  0  0  0
  184.3350  178.6300  139.5500 C   0  0  0  0  0  0  0  0  0  0  0  0
  188.0340  177.7520  142.8870 C   0  0  2  0  0  3  0  0  0  0  0  0
  189.1060  176.7030  138.0390 C   0  0  1  0  0  3  0  0  0  0  0  0
  187.6030  176.4320  138.1600 C   0  0  0  0  0  2  0  0  0  0  0  0
  187.0540  178.2110  141.9130 C   0  0  0  0  0  0  0  0  0  0  0  0
  189.4330  176.8320  145.0990 C   0  0  0  0  0  3  0  0  0  0  0  0
  188.0710  177.1470  145.2270 C   0  0  0  0  0  3  0  0  0  0  0  0
  189.3950  177.4480  142.7240 C   0  0  0  0  0  0  0  0  0  0  0  0
  189.4890  176.8110  140.3540 N   0  0  0  0  0  2  0  0  0  0  0  0
  186.7530  177.6450  137.9200 C   0  0  0  0  0  0  0  0  0  0  0  0
  189.6070  177.5220  139.1450 N   0  0  0  0  0  2  0  0  0  0  0  0
  184.3900  178.5230  138.0860 C   0  0  2  0  0  3  0  0  0  0  0  0
  184.5840  178.5190  142.1740 C   0  0  0  0  0  2  0  0  0  0  0  0
  187.2520  178.8040  137.9600 O   0  0  0  0  0  0  0  0  0  0  0  0
  187.3930  177.6070  144.1010 C   0  0  0  0  0  0  0  0  0  0  0  0
  185.8020  178.3040  142.6820 C   0  0  0  0  0  0  0  0  0  0  0  0
  190.0840  177.6480  141.3910 C   0  0  2  0  0  3  0  0  0  0  0  0
  187.3550  179.0280  140.9580 N   0  0  0  0  0  1  0  0  0  0  0  0
  186.0120  177.9540  144.0510 N   0  0  0  0  0  0  0  0  0  0  0  0
  190.0870  176.9800  143.8620 C   0  0  0  0  0  3  0  0  0  0  0  0
  180.6270  178.3800  137.6940 C   0  0  0  0  0  3  0  0  0  0  0  0
  183.0400  178.2040  137.5290 C   0  0  0  0  0  0  0  0  0  0  0  0
  181.9010  178.6730  138.1910 C   0  0  0  0  0  3  0  0  0  0  0  0
  180.4790  177.6150  136.5320 C   0  0  0  0  0  0  0  0  0  0  0  0
  182.8960  177.4330  136.3640 C   0  0  0  0  0  3  0  0  0  0  0  0
  181.6220  177.1410  135.8690 C   0  0  0  0  0  3  0  0  0  0  0  0
  178.9310  176.9550  134.7190 C   0  0  0  0  0  1  0  0  0  0  0  0
  179.1920  177.3410  136.0620 O   0  0  0  0  0  0  0  0  0  0  0  0
  191.5720  177.4600  141.4370 C   0  0  0  0  0  0  0  0  0  0  0  0
  192.1210  177.0030  142.4780 O   0  0  0  0  0  0  0  0  0  0  0  0
  192.3370  177.8260  140.3300 O   0  0  0  0  0  0  0  0  0  0  0  0
  193.3770  176.6100  138.5480 C   0  0  0  0  0  1  0  0  0  0  0  0
  193.5130  177.1200  139.9670 C   0  0  0  0  0  2  0  0  0  0  0  0
  189.8990  175.4060  137.9080 C   0  0  0  0  0  2  0  0  0  0  0  0
  190.0280  174.9860  136.4530 C   0  0  1  0  0  3  0  0  0  0  0  0
  190.8200  175.9080  135.7650 O   0  0  0  0  0  1  0  0  0  0  0  0
  190.6690  173.6130  136.3860 C   0  0  0  0  0  2  0  0  0  0  0  0
  192.0530  173.6920  136.8180 N   0  0  0  0  0  1  0  0  0  0  0  0
  1 15  1  0  0  0  0
  2 12  1  0  0  0  0
  2 14  1  0  0  0  0
  3  1  3  0  0  0  0
  4  7  1  6  0  0  0
  4 17  1  0  0  0  0
  5 36  1  1  0  0  0
  5  6  1  0  0  0  0
  5 13  1  0  0  0  0
  7 18  2  0  0  0  0
  8  9  2  0  0  0  0
 10  4  1  0  0  0  0
 10 22  2  0  0  0  0
 11 19  1  0  0  0  0
 12 16  2  0  0  0  0
 12  6  1  0  0  0  0
 13 11  1  0  0  0  0
 14 24  1  1  0  0  0
 14  3  1  0  0  0  0
 15 18  1  0  0  0  0
 17  9  1  0  0  0  0
 18 21  1  0  0  0  0
 19 31  1  1  0  0  0
 19 10  1  0  0  0  0
 20  7  1  0  0  0  0
 21 17  2  0  0  0  0
 22  8  1  0  0  0  0
 23 25  1  0  0  0  0
 24 25  2  0  0  0  0
 26 23  2  0  0  0  0
 27 24  1  0  0  0  0
 28 27  2  0  0  0  0
 28 26  1  0  0  0  0
 29 30  1  0  0  0  0
 30 26  1  0  0  0  0
 31 32  2  0  0  0  0
 33 31  1  0  0  0  0
 34 35  1  0  0  0  0
 35 33  1  0  0  0  0
 37 38  1  6  0  0  0
 37 36  1  0  0  0  0
 39 37  1  0  0  0  0
 39 40  1  0  0  0  0
M  END
>  <MODEL>
5

>  <REMARK>
 VINA RESULT:      -6.2      2.875      9.887
  Name = 
  8 active torsions:
  status: ('A' for Active; 'I' for Inactive)
    1  A    between atoms: C_1  and  O_28
    2  A    between atoms: C_1  and  C_33
    3  A    between atoms: C_4  and  C_7
    4  A    between atoms: C_4  and  C_10
    5  A    between atoms: C_7  and  C_19
    6  A    between atoms: C_16  and  C_25
    7  A    between atoms: C_23  and  O_34
    8  A    between atoms: C_27  and  O_28
                            x       y       z     vdW  Elec       q    Type
                         _______ _______ _______ _____ _____    ______ ____

>  <TORSDO>
F 8

$$$$
=
 OpenBabel11042413203D

 40 43  0  0  1  0  0  0  0  0999 V2000
  187.1210  177.3360  137.1130 C   0  0  0  0  0  0  0  0  0  0  0  0
  189.5760  177.0850  139.4040 N   0  0  0  0  0  2  0  0  0  0  0  0
  188.2670  177.4600  137.4580 C   0  0  0  0  0  0  0  0  0  0  0  0
  183.8260  177.8410  139.8490 C   0  0  0  0  0  0  0  0  0  0  0  0
  187.9610  177.9590  142.7880 C   0  0  1  0  0  3  0  0  0  0  0  0
  188.3580  177.0590  141.6140 C   0  0  0  0  0  2  0  0  0  0  0  0
  185.0950  177.9540  139.1450 C   0  0  0  0  0  0  0  0  0  0  0  0
  181.2350  177.3410  140.7040 C   0  0  0  0  0  3  0  0  0  0  0  0
  181.5970  177.0250  139.3850 C   0  0  0  0  0  2  0  0  0  0  0  0
  183.4960  178.1710  141.1720 C   0  0  0  0  0  0  0  0  0  0  0  0
  185.6610  177.9330  142.3060 N   0  0  0  0  0  2  0  0  0  0  0  0
  188.9210  177.8130  140.4450 C   0  0  0  0  0  0  0  0  0  0  0  0
  186.7790  178.7700  142.4830 N   0  0  0  0  0  2  0  0  0  0  0  0
  189.6160  177.5690  138.0280 C   0  0  2  0  0  3  0  0  0  0  0  0
  185.7170  177.1420  136.8600 C   0  0  0  0  0  2  0  0  0  0  0  0
  188.7530  179.0580  140.3340 O   0  0  0  0  0  0  0  0  0  0  0  0
  182.9050  177.2870  138.9810 C   0  0  0  0  0  0  0  0  0  0  0  0
  184.8110  177.4080  137.8060 C   0  0  0  0  0  0  0  0  0  0  0  0
  184.5140  178.8090  142.0940 C   0  0  2  0  0  3  0  0  0  0  0  0
  185.9150  178.9320  139.3450 N   0  0  0  0  0  1  0  0  0  0  0  0
  183.4430  177.0140  137.6910 N   0  0  0  0  0  0  0  0  0  0  0  0
  182.1720  177.9060  141.5880 C   0  0  0  0  0  3  0  0  0  0  0  0
  191.1900  175.7210  135.1220 C   0  0  0  0  0  3  0  0  0  0  0  0
  190.5960  176.7750  137.2230 C   0  0  0  0  0  0  0  0  0  0  0  0
  190.2950  176.4690  135.8920 C   0  0  0  0  0  3  0  0  0  0  0  0
  192.3930  175.2700  135.6750 C   0  0  0  0  0  0  0  0  0  0  0  0
  191.8000  176.3220  137.7830 C   0  0  0  0  0  3  0  0  0  0  0  0
  192.6950  175.5740  137.0130 C   0  0  0  0  0  3  0  0  0  0  0  0
  194.5210  174.0510  135.3490 C   0  0  0  0  0  1  0  0  0  0  0  0
  193.2670  174.5240  134.8780 O   0  0  0  0  0  0  0  0  0  0  0  0
  183.9480  179.2710  143.4050 C   0  0  0  0  0  0  0  0  0  0  0  0
  183.7500  180.5000  143.6120 O   0  0  0  0  0  0  0  0  0  0  0  0
  183.6760  178.3280  144.3960 O   0  0  0  0  0  0  0  0  0  0  0  0
  185.2920  179.4020  145.7990 C   0  0  0  0  0  1  0  0  0  0  0  0
  184.5560  178.1170  145.4890 C   0  0  0  0  0  2  0  0  0  0  0  0
  187.7610  177.1520  144.0680 C   0  0  0  0  0  2  0  0  0  0  0  0
  188.4250  177.8330  145.2540 C   0  0  1  0  0  3  0  0  0  0  0  0
  187.9660  177.2610  146.4430 O   0  0  0  0  0  1  0  0  0  0  0  0
  189.9280  177.6590  145.1520 C   0  0  0  0  0  2  0  0  0  0  0  0
  190.3770  176.6630  146.1090 N   0  0  0  0  0  1  0  0  0  0  0  0
  1  3  3  0  0  0  0
  2 12  1  0  0  0  0
  3 14  1  0  0  0  0
  4 10  2  0  0  0  0
  5 36  1  1  0  0  0
  6  5  1  0  0  0  0
  7 20  1  0  0  0  0
  7  4  1  0  0  0  0
  8 22  2  0  0  0  0
  9  8  1  0  0  0  0
 10 22  1  0  0  0  0
 10 19  1  0  0  0  0
 11 13  1  0  0  0  0
 12  6  1  0  0  0  0
 13  5  1  0  0  0  0
 14 24  1  6  0  0  0
 14  2  1  0  0  0  0
 15  1  1  0  0  0  0
 15 18  1  0  0  0  0
 16 12  2  0  0  0  0
 17  9  1  0  0  0  0
 17  4  1  0  0  0  0
 18  7  2  0  0  0  0
 19 11  1  0  0  0  0
 19 31  1  1  0  0  0
 21 18  1  0  0  0  0
 21 17  2  0  0  0  0
 23 26  2  0  0  0  0
 23 25  1  0  0  0  0
 24 27  1  0  0  0  0
 25 24  2  0  0  0  0
 26 28  1  0  0  0  0
 28 27  2  0  0  0  0
 30 29  1  0  0  0  0
 30 26  1  0  0  0  0
 31 32  2  0  0  0  0
 31 33  1  0  0  0  0
 33 35  1  0  0  0  0
 35 34  1  0  0  0  0
 36 37  1  0  0  0  0
 37 38  1  1  0  0  0
 39 37  1  0  0  0  0
 39 40  1  0  0  0  0
M  END
>  <MODEL>
6

>  <REMARK>
 VINA RESULT:      -6.0      3.273      6.714
  Name = 
  8 active torsions:
  status: ('A' for Active; 'I' for Inactive)
    1  A    between atoms: C_1  and  O_28
    2  A    between atoms: C_1  and  C_33
    3  A    between atoms: C_4  and  C_7
    4  A    between atoms: C_4  and  C_10
    5  A    between atoms: C_7  and  C_19
    6  A    between atoms: C_16  and  C_25
    7  A    between atoms: C_23  and  O_34
    8  A    between atoms: C_27  and  O_28
                            x       y       z     vdW  Elec       q    Type
                         _______ _______ _______ _____ _____    ______ ____

>  <TORSDO>
F 8

$$$$
=
 OpenBabel11042413203D

 40 43  0  0  1  0  0  0  0  0999 V2000
  188.0820  177.8380  138.5750 C   0  0  0  0  0  0  0  0  0  0  0  0
  190.5170  176.7340  140.6230 N   0  0  0  0  0  2  0  0  0  0  0  0
  189.2420  177.6730  138.8520 C   0  0  0  0  0  0  0  0  0  0  0  0
  185.0740  178.5480  141.5820 C   0  0  0  0  0  0  0  0  0  0  0  0
  189.2520  177.3580  144.2050 C   0  0  1  0  0  3  0  0  0  0  0  0
  189.4060  176.5980  142.8840 C   0  0  0  0  0  2  0  0  0  0  0  0
  186.3110  178.5160  140.8140 C   0  0  0  0  0  0  0  0  0  0  0  0
  182.4700  178.4480  142.5340 C   0  0  0  0  0  3  0  0  0  0  0  0
  182.7080  178.2820  141.1610 C   0  0  0  0  0  2  0  0  0  0  0  0
  184.8710  178.7200  142.9600 C   0  0  0  0  0  0  0  0  0  0  0  0
  186.9810  177.8730  143.8890 N   0  0  0  0  0  2  0  0  0  0  0  0
  190.0690  177.4010  141.8050 C   0  0  0  0  0  0  0  0  0  0  0  0
  188.2550  178.4280  144.1100 N   0  0  0  0  0  2  0  0  0  0  0  0
  190.6050  177.4150  139.3350 C   0  0  2  0  0  3  0  0  0  0  0  0
  186.6610  177.9740  138.3960 C   0  0  0  0  0  2  0  0  0  0  0  0
  190.1620  178.6560  141.8940 O   0  0  0  0  0  0  0  0  0  0  0  0
  184.0250  178.3380  140.7090 C   0  0  0  0  0  0  0  0  0  0  0  0
  185.8680  178.2600  139.4330 C   0  0  0  0  0  0  0  0  0  0  0  0
  186.0350  178.9830  143.8920 C   0  0  2  0  0  3  0  0  0  0  0  0
  187.3240  179.2640  141.1000 N   0  0  0  0  0  1  0  0  0  0  0  0
  184.4440  178.1730  139.3580 N   0  0  0  0  0  0  0  0  0  0  0  0
  183.5390  178.6640  143.4240 C   0  0  0  0  0  3  0  0  0  0  0  0
  191.3560  174.8790  136.6260 C   0  0  0  0  0  3  0  0  0  0  0  0
  191.3640  176.5800  138.3540 C   0  0  0  0  0  0  0  0  0  0  0  0
  190.6680  175.6760  137.5460 C   0  0  0  0  0  3  0  0  0  0  0  0
  192.7460  174.9760  136.5070 C   0  0  0  0  0  0  0  0  0  0  0  0
  192.7600  176.6790  138.2390 C   0  0  0  0  0  3  0  0  0  0  0  0
  193.4470  175.8810  137.3210 C   0  0  0  0  0  3  0  0  0  0  0  0
  194.4900  173.3170  135.9310 C   0  0  0  0  0  1  0  0  0  0  0  0
  193.4040  174.1640  135.5790 O   0  0  0  0  0  0  0  0  0  0  0  0
  185.6290  179.3320  145.2940 C   0  0  0  0  0  0  0  0  0  0  0  0
  185.0360  180.4210  145.5300 O   0  0  0  0  0  0  0  0  0  0  0  0
  185.9450  178.4540  146.3300 O   0  0  0  0  0  0  0  0  0  0  0  0
  187.5500  178.6620  148.0960 C   0  0  0  0  0  1  0  0  0  0  0  0
  186.1190  178.9040  147.6650 C   0  0  0  0  0  2  0  0  0  0  0  0
  188.9370  176.4120  145.3610 C   0  0  0  0  0  2  0  0  0  0  0  0
  189.7660  176.7520  146.5890 C   0  0  1  0  0  3  0  0  0  0  0  0
  189.5260  175.8120  147.5940 O   0  0  0  0  0  1  0  0  0  0  0  0
  191.2370  176.7370  146.2170 C   0  0  0  0  0  2  0  0  0  0  0  0
  192.0390  176.4390  147.3900 N   0  0  0  0  0  1  0  0  0  0  0  0
  1  3  3  0  0  0  0
  2 12  1  0  0  0  0
  3 14  1  0  0  0  0
  4 10  2  0  0  0  0
  5 36  1  1  0  0  0
  6  5  1  0  0  0  0
  7 20  1  0  0  0  0
  7  4  1  0  0  0  0
  8 22  2  0  0  0  0
  9  8  1  0  0  0  0
 10 22  1  0  0  0  0
 10 19  1  0  0  0  0
 11 19  1  0  0  0  0
 11 13  1  0  0  0  0
 12 16  2  0  0  0  0
 12  6  1  0  0  0  0
 13  5  1  0  0  0  0
 14 24  1  6  0  0  0
 14  2  1  0  0  0  0
 15  1  1  0  0  0  0
 15 18  1  0  0  0  0
 17  9  1  0  0  0  0
 17  4  1  0  0  0  0
 18  7  2  0  0  0  0
 19 31  1  1  0  0  0
 21 18  1  0  0  0  0
 21 17  2  0  0  0  0
 23 25  1  0  0  0  0
 25 24  2  0  0  0  0
 26 23  2  0  0  0  0
 26 28  1  0  0  0  0
 27 24  1  0  0  0  0
 28 27  2  0  0  0  0
 30 29  1  0  0  0  0
 30 26  1  0  0  0  0
 31 32  2  0  0  0  0
 31 33  1  0  0  0  0
 33 35  1  0  0  0  0
 35 34  1  0  0  0  0
 36 37  1  0  0  0  0
 37 38  1  1  0  0  0
 39 37  1  0  0  0  0
 39 40  1  0  0  0  0
M  END
>  <MODEL>
7

>  <REMARK>
 VINA RESULT:      -5.6      3.584      7.708
  Name = 
  8 active torsions:
  status: ('A' for Active; 'I' for Inactive)
    1  A    between atoms: C_1  and  O_28
    2  A    between atoms: C_1  and  C_33
    3  A    between atoms: C_4  and  C_7
    4  A    between atoms: C_4  and  C_10
    5  A    between atoms: C_7  and  C_19
    6  A    between atoms: C_16  and  C_25
    7  A    between atoms: C_23  and  O_34
    8  A    between atoms: C_27  and  O_28
                            x       y       z     vdW  Elec       q    Type
                         _______ _______ _______ _____ _____    ______ ____

>  <TORSDO>
F 8

$$$$
=
 OpenBabel11042413203D

 40 43  0  0  1  0  0  0  0  0999 V2000
  188.4940  177.6370  141.3290 C   0  0  0  0  0  0  0  0  0  0  0  0
  185.4040  178.0030  142.6160 N   0  0  0  0  0  2  0  0  0  0  0  0
  187.7240  178.1170  142.1200 C   0  0  0  0  0  0  0  0  0  0  0  0
  187.3280  176.6270  137.3020 C   0  0  0  0  0  0  0  0  0  0  0  0
  182.9850  177.8520  139.6240 C   0  0  1  0  0  3  0  0  0  0  0  0
  183.8680  177.2930  140.7450 C   0  0  0  0  0  2  0  0  0  0  0  0
  187.4680  177.2610  138.6050 C   0  0  0  0  0  0  0  0  0  0  0  0
  187.5640  175.1490  134.9660 C   0  0  0  0  0  3  0  0  0  0  0  0
  188.6140  175.1370  135.8970 C   0  0  0  0  0  3  0  0  0  0  0  0
  186.2600  176.6620  136.3910 C   0  0  0  0  0  0  0  0  0  0  0  0
  184.3460  177.0740  137.8740 N   0  0  0  0  0  2  0  0  0  0  0  0
  184.7400  178.3270  141.3920 C   0  0  0  0  0  0  0  0  0  0  0  0
  183.7680  178.2240  138.4420 N   0  0  0  0  0  2  0  0  0  0  0  0
  186.6660  178.6270  143.0010 C   0  0  2  0  0  3  0  0  0  0  0  0
  189.2800  176.9920  140.3100 C   0  0  0  0  0  3  0  0  0  0  0  0
  184.9560  179.4370  140.8330 O   0  0  0  0  0  0  0  0  0  0  0  0
  188.4700  175.8890  137.0610 C   0  0  0  0  0  0  0  0  0  0  0  0
  188.7870  176.8090  139.0820 C   0  0  0  0  0  0  0  0  0  0  0  0
  185.0330  177.5060  136.6620 C   0  0  2  0  0  3  0  0  0  0  0  0
  186.9940  178.4350  138.8600 N   0  0  0  0  0  1  0  0  0  0  0  0
  189.4250  175.9740  138.1140 N   0  0  0  0  0  0  0  0  0  0  0  0
  186.4000  175.9020  135.2100 C   0  0  0  0  0  3  0  0  0  0  0  0
  186.3150  178.3870  146.7630 C   0  0  0  0  0  3  0  0  0  0  0  0
  186.9800  178.3280  144.4320 C   0  0  0  0  0  0  0  0  0  0  0  0
  186.0410  178.6490  145.4180 C   0  0  0  0  0  3  0  0  0  0  0  0
  187.5300  177.8040  147.1380 C   0  0  0  0  0  0  0  0  0  0  0  0
  188.2020  177.7460  144.8040 C   0  0  0  0  0  3  0  0  0  0  0  0
  188.4760  177.4850  146.1490 C   0  0  0  0  0  3  0  0  0  0  0  0
  188.5890  178.3990  149.2930 C   0  0  0  0  0  1  0  0  0  0  0  0
  187.7730  177.5560  148.4910 O   0  0  0  0  0  0  0  0  0  0  0  0
  184.0770  177.5840  135.5080 C   0  0  0  0  0  0  0  0  0  0  0  0
  184.2520  178.4380  134.5950 O   0  0  0  0  0  0  0  0  0  0  0  0
  182.9800  176.7230  135.4770 O   0  0  0  0  0  0  0  0  0  0  0  0
  181.2300  178.3390  135.7240 C   0  0  0  0  0  1  0  0  0  0  0  0
  181.7230  177.1300  134.9580 C   0  0  0  0  0  2  0  0  0  0  0  0
  181.8630  176.8840  139.2600 C   0  0  0  0  0  2  0  0  0  0  0  0
  180.6020  177.1810  140.0570 C   0  0  1  0  0  3  0  0  0  0  0  0
  179.9540  178.2930  139.5140 O   0  0  0  0  0  1  0  0  0  0  0  0
  179.6830  175.9760  140.0020 C   0  0  0  0  0  2  0  0  0  0  0  0
  179.2620  175.7380  138.6330 N   0  0  0  0  0  1  0  0  0  0  0  0
  1  3  3  0  0  0  0
  2 14  1  0  0  0  0
  3 14  1  0  0  0  0
  4  7  2  0  0  0  0
  5 36  1  6  0  0  0
  5  6  1  0  0  0  0
  6 12  1  0  0  0  0
  7 20  1  0  0  0  0
  7 18  1  0  0  0  0
  8 22  1  0  0  0  0
  8  9  2  0  0  0  0
  9 17  1  0  0  0  0
 10 19  1  0  0  0  0
 10  4  1  0  0  0  0
 11 13  1  0  0  0  0
 12  2  1  0  0  0  0
 13  5  1  0  0  0  0
 14 24  1  1  0  0  0
 15  1  1  0  0  0  0
 16 12  2  0  0  0  0
 17  4  1  0  0  0  0
 17 21  2  0  0  0  0
 18 15  2  0  0  0  0
 19 31  1  6  0  0  0
 19 11  1  0  0  0  0
 21 18  1  0  0  0  0
 22 10  2  0  0  0  0
 23 26  1  0  0  0  0
 24 27  2  0  0  0  0
 24 25  1  0  0  0  0
 25 23  2  0  0  0  0
 26 30  1  0  0  0  0
 27 28  1  0  0  0  0
 28 26  2  0  0  0  0
 30 29  1  0  0  0  0
 32 31  2  0  0  0  0
 33 31  1  0  0  0  0
 35 33  1  0  0  0  0
 35 34  1  0  0  0  0
 36 37  1  0  0  0  0
 37 38  1  6  0  0  0
 39 37  1  0  0  0  0
 40 39  1  0  0  0  0
M  END
>  <MODEL>
8

>  <REMARK>
 VINA RESULT:      -5.5      2.395      3.189
  Name = 
  8 active torsions:
  status: ('A' for Active; 'I' for Inactive)
    1  A    between atoms: C_1  and  O_28
    2  A    between atoms: C_1  and  C_33
    3  A    between atoms: C_4  and  C_7
    4  A    between atoms: C_4  and  C_10
    5  A    between atoms: C_7  and  C_19
    6  A    between atoms: C_16  and  C_25
    7  A    between atoms: C_23  and  O_34
    8  A    between atoms: C_27  and  O_28
                            x       y       z     vdW  Elec       q    Type
                         _______ _______ _______ _____ _____    ______ ____

>  <TORSDO>
F 8

$$$$
=
 OpenBabel11042413203D

 40 43  0  0  1  0  0  0  0  0999 V2000
  185.4950  178.6410  137.6040 C   0  0  0  0  0  0  0  0  0  0  0  0
  183.6530  179.5260  140.2810 N   0  0  0  0  0  2  0  0  0  0  0  0
  184.4400  178.7870  138.1660 C   0  0  0  0  0  0  0  0  0  0  0  0
  189.0930  177.5460  139.7140 C   0  0  0  0  0  0  0  0  0  0  0  0
  185.6970  178.4700  143.3690 C   0  0  1  0  0  3  0  0  0  0  0  0
  185.2670  179.3820  142.2160 C   0  0  0  0  0  2  0  0  0  0  0  0
  187.7140  177.6830  139.2700 C   0  0  0  0  0  0  0  0  0  0  0  0
  191.8490  177.5020  140.0260 C   0  0  0  0  0  3  0  0  0  0  0  0
  191.3040  177.8310  138.7760 C   0  0  0  0  0  2  0  0  0  0  0  0
  189.6060  177.2110  140.9770 C   0  0  0  0  0  0  0  0  0  0  0  0
  187.8080  177.9690  142.4680 N   0  0  0  0  0  2  0  0  0  0  0  0
  184.3390  178.7200  141.2410 C   0  0  0  0  0  0  0  0  0  0  0  0
  186.6000  177.4060  142.9220 N   0  0  0  0  0  2  0  0  0  0  0  0
  183.2400  179.0020  138.9840 C   0  0  2  0  0  3  0  0  0  0  0  0
  186.8290  178.5100  137.0800 C   0  0  0  0  0  2  0  0  0  0  0  0
  184.2200  177.4640  141.2100 O   0  0  0  0  0  0  0  0  0  0  0  0
  189.9170  177.8450  138.6460 C   0  0  0  0  0  0  0  0  0  0  0  0
  187.8300  178.0940  137.8600 C   0  0  0  0  0  0  0  0  0  0  0  0
  188.6840  176.8540  142.1230 C   0  0  2  0  0  3  0  0  0  0  0  0
  186.7660  176.9190  139.7030 N   0  0  0  0  0  1  0  0  0  0  0  0
  189.1990  178.1720  137.4600 N   0  0  0  0  0  0  0  0  0  0  0  0
  191.0110  177.1960  141.1140 C   0  0  0  0  0  3  0  0  0  0  0  0
  181.4140  182.2020  138.1090 C   0  0  0  0  0  3  0  0  0  0  0  0
  182.3050  179.9560  138.3100 C   0  0  0  0  0  0  0  0  0  0  0  0
  182.2850  181.2930  138.7180 C   0  0  0  0  0  3  0  0  0  0  0  0
  180.5550  181.7830  137.0880 C   0  0  0  0  0  0  0  0  0  0  0  0
  181.4420  179.5300  137.2880 C   0  0  0  0  0  3  0  0  0  0  0  0
  180.5720  180.4390  136.6800 C   0  0  0  0  0  3  0  0  0  0  0  0
  180.0880  183.5390  135.4090 C   0  0  0  0  0  1  0  0  0  0  0  0
  179.6970  182.7160  136.5000 O   0  0  0  0  0  0  0  0  0  0  0  0
  189.3920  176.3380  143.3410 C   0  0  0  0  0  0  0  0  0  0  0  0
  189.9340  175.1980  143.3230 O   0  0  0  0  0  0  0  0  0  0  0  0
  189.4150  177.1200  144.4950 O   0  0  0  0  0  0  0  0  0  0  0  0
  190.9060  178.9770  144.2400 C   0  0  0  0  0  1  0  0  0  0  0  0
  190.6160  177.6930  144.9880 C   0  0  0  0  0  2  0  0  0  0  0  0
  186.3110  179.2700  144.5150 C   0  0  0  0  0  2  0  0  0  0  0  0
  185.5830  179.0020  145.8220 C   0  0  1  0  0  3  0  0  0  0  0  0
  184.2080  178.9260  145.5890 O   0  0  0  0  0  1  0  0  0  0  0  0
  186.0750  177.6920  146.4070 C   0  0  0  0  0  2  0  0  0  0  0  0
  187.3430  177.8980  147.0840 N   0  0  0  0  0  1  0  0  0  0  0  0
  1  3  3  0  0  0  0
  2 12  1  0  0  0  0
  3 14  1  0  0  0  0
  4 10  2  0  0  0  0
  5 36  1  1  0  0  0
  6  5  1  0  0  0  0
  7 20  1  0  0  0  0
  7  4  1  0  0  0  0
  8 22  2  0  0  0  0
  9  8  1  0  0  0  0
 10 22  1  0  0  0  0
 10 19  1  0  0  0  0
 11 13  1  0  0  0  0
 12  6  1  0  0  0  0
 13  5  1  0  0  0  0
 14 24  1  6  0  0  0
 14  2  1  0  0  0  0
 15  1  1  0  0  0  0
 15 18  1  0  0  0  0
 16 12  2  0  0  0  0
 17  9  1  0  0  0  0
 17  4  1  0  0  0  0
 18  7  2  0  0  0  0
 19 11  1  0  0  0  0
 19 31  1  1  0  0  0
 21 18  1  0  0  0  0
 21 17  2  0  0  0  0
 23 25  1  0  0  0  0
 24 25  2  0  0  0  0
 26 23  2  0  0  0  0
 27 24  1  0  0  0  0
 28 26  1  0  0  0  0
 28 27  2  0  0  0  0
 29 30  1  0  0  0  0
 30 26  1  0  0  0  0
 31 33  1  0  0  0  0
 32 31  2  0  0  0  0
 33 35  1  0  0  0  0
 34 35  1  0  0  0  0
 36 37  1  0  0  0  0
 37 38  1  6  0  0  0
 37 39  1  0  0  0  0
 39 40  1  0  0  0  0
M  END
>  <MODEL>
9

>  <REMARK>
 VINA RESULT:      -5.0      2.432      8.496
  Name = 
  8 active torsions:
  status: ('A' for Active; 'I' for Inactive)
    1  A    between atoms: C_1  and  O_28
    2  A    between atoms: C_1  and  C_33
    3  A    between atoms: C_4  and  C_7
    4  A    between atoms: C_4  and  C_10
    5  A    between atoms: C_7  and  C_19
    6  A    between atoms: C_16  and  C_25
    7  A    between atoms: C_23  and  O_34
    8  A    between atoms: C_27  and  O_28
                            x       y       z     vdW  Elec       q    Type
                         _______ _______ _______ _____ _____    ______ ____

>  <TORSDO>
F 8

$$$$
