=
 OpenBabel11042411173D

 48 56  0  0  1  0  0  0  0  0999 V2000
  192.0740  177.6820  141.6540 F   0  0  0  0  0  0  0  0  0  0  0  0
  190.5040  176.6860  137.9410 C   0  0  0  0  0  3  0  0  0  0  0  0
  189.6590  177.1440  138.9520 C   0  0  0  0  0  3  0  0  0  0  0  0
  192.4070  176.9020  139.4260 C   0  0  0  0  0  0  0  0  0  0  0  0
  193.7180  176.6980  139.7040 F   0  0  0  0  0  0  0  0  0  0  0  0
  191.5590  177.3680  140.4390 C   0  0  0  0  0  0  0  0  0  0  0  0
  191.8830  176.5810  138.1590 C   0  0  0  0  0  0  0  0  0  0  0  0
  190.1820  177.5000  140.1980 C   0  0  0  0  0  0  0  0  0  0  0  0
  196.8360  176.2760  135.8750 O   0  0  0  0  0  0  0  0  0  0  0  0
  195.9530  174.1060  135.4610 N   0  0  0  0  0  0  0  0  0  0  0  0
  192.6660  174.8450  136.4470 C   0  0  0  0  0  0  0  0  0  0  0  0
  193.9100  176.6990  136.7410 N   0  0  0  0  0  0  0  0  0  0  0  0
  193.7630  174.7350  135.6730 N   0  0  0  0  0  0  0  0  0  0  0  0
  194.4570  175.8470  135.8530 C   0  0  0  0  0  0  0  0  0  0  0  0
  194.7170  173.6840  135.4470 C   0  0  0  0  0  0  0  0  0  0  0  0
  195.8540  175.5070  135.7180 C   0  0  0  0  0  0  0  0  0  0  0  0
  192.7390  176.0960  137.0640 C   0  0  0  0  0  0  0  0  0  0  0  0
  194.3490  172.2470  135.2390 C   0  0  0  0  0  3  0  0  0  0  0  0
  195.5940  171.3930  135.4020 C   0  0  0  0  0  2  0  0  0  0  0  0
  194.5660  171.4400  136.5090 C   0  0  0  0  0  2  0  0  0  0  0  0
  191.7880  173.7060  136.8740 C   0  0  2  0  0  3  0  0  0  0  0  0
  191.3680  172.9650  135.7540 O   0  0  0  0  0  0  0  0  0  0  0  0
  190.4390  173.8620  136.2900 C   0  0  1  0  0  3  0  0  0  0  0  0
  189.4630  173.1330  137.0800 N   0  0  0  0  0  2  0  0  0  0  0  0
  188.2990  170.9090  136.1710 F   0  0  0  0  0  0  0  0  0  0  0  0
  185.0480  172.4970  136.3780 C   0  0  0  0  0  3  0  0  0  0  0  0
  185.1470  173.4430  137.5230 C   0  0  0  0  0  2  0  0  0  0  0  0
  188.0590  173.1360  136.7900 C   0  0  0  0  0  0  0  0  0  0  0  0
  186.1010  171.8440  135.8850 C   0  0  0  0  0  3  0  0  0  0  0  0
  187.3330  174.4260  136.8950 C   0  0  0  0  0  3  0  0  0  0  0  0
  186.0430  174.5820  137.1880 C   0  0  0  0  0  3  0  0  0  0  0  0
  187.5030  171.9920  136.3330 C   0  0  0  0  0  0  0  0  0  0  0  0
  189.2600  177.9890  141.2670 C   0  0  0  0  0  2  0  0  0  0  0  0
  185.0520  178.0290  145.7160 C   0  0  1  0  0  3  0  0  0  0  0  0
  186.6550  178.5020  141.4620 C   0  0  0  0  0  0  0  0  0  0  0  0
  185.6560  178.7880  140.4910 N   0  0  0  0  0  0  0  0  0  0  0  0
  187.4660  178.1790  143.8020 C   0  0  2  0  0  3  0  0  0  0  0  0
  184.6500  178.6390  146.9720 N   0  0  0  0  0  1  0  0  0  0  0  0
  187.8840  178.2040  140.7250 C   0  0  0  0  0  0  0  0  0  0  0  0
  187.6510  178.3040  139.4620 N   0  0  0  0  0  0  0  0  0  0  0  0
  185.6150  178.8390  138.1130 N   0  0  0  0  0  1  0  0  0  0  0  0
  188.2240  176.8670  143.9120 C   0  0  0  0  0  2  0  0  0  0  0  0
  186.8320  176.9690  144.4620 C   0  0  1  0  0  3  0  0  0  0  0  0
  186.4260  178.5050  142.7870 C   0  0  0  0  0  0  0  0  0  0  0  0
  184.6240  178.9160  144.5460 C   0  0  0  0  0  3  0  0  0  0  0  0
  185.1520  179.0680  143.3100 C   0  0  0  0  0  3  0  0  0  0  0  0
  186.5120  177.5700  145.7960 C   0  0  0  0  0  2  0  0  0  0  0  0
  186.2690  178.6460  139.3630 C   0  0  0  0  0  0  0  0  0  0  0  0
  2  7  2  0  0  0  0
  2  3  1  0  0  0  0
  3  8  2  0  0  0  0
  4  5  1  0  0  0  0
  4  6  2  0  0  0  0
  6  1  1  0  0  0  0
  7  4  1  0  0  0  0
  8  6  1  0  0  0  0
  8 33  1  0  0  0  0
 10 16  1  0  0  0  0
 11 17  2  0  0  0  0
 12 17  1  0  0  0  0
 13 14  1  0  0  0  0
 13 11  1  0  0  0  0
 14 12  2  0  0  0  0
 15 10  2  0  0  0  0
 15 13  1  0  0  0  0
 16 14  1  0  0  0  0
 16  9  2  0  0  0  0
 17  7  1  0  0  0  0
 18 19  1  0  0  0  0
 18 15  1  0  0  0  0
 18 20  1  0  0  0  0
 19 20  1  0  0  0  0
 21 11  1  6  0  0  0
 22 23  1  0  0  0  0
 22 21  1  0  0  0  0
 23 21  1  0  0  0  0
 23 24  1  1  0  0  0
 25 32  1  0  0  0  0
 26 27  1  0  0  0  0
 28 30  1  0  0  0  0
 28 24  1  0  0  0  0
 29 32  1  0  0  0  0
 29 26  2  0  0  0  0
 30 31  2  0  0  0  0
 31 27  1  0  0  0  0
 32 28  2  0  0  0  0
 34 47  1  0  0  0  0
 34 38  1  1  0  0  0
 35 44  2  0  0  0  0
 36 35  1  0  0  0  0
 37 42  1  6  0  0  0
 37 43  1  0  0  0  0
 39 33  1  0  0  0  0
 39 35  1  0  0  0  0
 40 39  2  0  0  0  0
 41 48  1  0  0  0  0
 43 42  1  1  0  0  0
 43 47  1  0  0  0  0
 44 46  1  0  0  0  0
 44 37  1  0  0  0  0
 45 34  1  0  0  0  0
 46 45  2  0  0  0  0
 48 40  1  0  0  0  0
 48 36  2  0  0  0  0
M  END
>  <MODEL>
1

>  <REMARK>
 VINA RESULT:     -10.1      0.000      0.000
  Name = 
  7 active torsions:
  status: ('A' for Active; 'I' for Inactive)
    1  A    between atoms: C_8  and  C_36
    2  A    between atoms: C_11  and  C_17
    3  A    between atoms: C_15  and  C_16
    4  A    between atoms: C_15  and  C_30
    5  A    between atoms: C_22  and  N_32
    6  A    between atoms: C_26  and  C_48
    7  A    between atoms: N_32  and  C_47
                            x       y       z     vdW  Elec       q    Type
                         _______ _______ _______ _____ _____    ______ ____

>  <TORSDO>
F 7

$$$$
=
 OpenBabel11042411173D

 48 56  0  0  1  0  0  0  0  0999 V2000
  184.6300  179.5290  138.6530 F   0  0  0  0  0  0  0  0  0  0  0  0
  182.5720  176.0040  139.4180 C   0  0  0  0  0  3  0  0  0  0  0  0
  182.6600  176.9850  140.4050 C   0  0  0  0  0  3  0  0  0  0  0  0
  183.8660  177.3950  137.9130 C   0  0  0  0  0  0  0  0  0  0  0  0
  184.5390  177.5690  136.7490 F   0  0  0  0  0  0  0  0  0  0  0  0
  183.9470  178.3830  138.9030 C   0  0  0  0  0  0  0  0  0  0  0  0
  183.1540  176.2060  138.1600 C   0  0  0  0  0  0  0  0  0  0  0  0
  183.3330  178.1830  140.1490 C   0  0  0  0  0  0  0  0  0  0  0  0
  184.0920  171.0350  136.6710 O   0  0  0  0  0  0  0  0  0  0  0  0
  181.9360  171.4430  135.7520 N   0  0  0  0  0  0  0  0  0  0  0  0
  181.9380  174.9070  136.3180 C   0  0  0  0  0  0  0  0  0  0  0  0
  183.8690  174.0740  137.1230 N   0  0  0  0  0  0  0  0  0  0  0  0
  182.1580  173.7200  135.7200 N   0  0  0  0  0  0  0  0  0  0  0  0
  183.3080  173.2710  136.1990 C   0  0  0  0  0  0  0  0  0  0  0  0
  181.3370  172.5690  135.4690 C   0  0  0  0  0  0  0  0  0  0  0  0
  183.2250  171.8310  136.2290 C   0  0  0  0  0  0  0  0  0  0  0  0
  183.0370  175.1450  137.1470 C   0  0  0  0  0  0  0  0  0  0  0  0
  179.9300  172.6360  134.9590 C   0  0  0  0  0  3  0  0  0  0  0  0
  179.2690  171.2840  135.1630 C   0  0  0  0  0  2  0  0  0  0  0  0
  178.9310  172.4310  136.0860 C   0  0  0  0  0  2  0  0  0  0  0  0
  180.6130  175.6060  136.3950 C   0  0  2  0  0  3  0  0  0  0  0  0
  180.1540  175.9320  135.1060 O   0  0  0  0  0  0  0  0  0  0  0  0
  180.7300  176.9730  135.8420 C   0  0  1  0  0  3  0  0  0  0  0  0
  179.6820  177.8220  136.3780 N   0  0  0  0  0  2  0  0  0  0  0  0
  179.6340  177.6540  139.0430 F   0  0  0  0  0  0  0  0  0  0  0  0
  180.8040  181.0750  139.3040 C   0  0  0  0  0  3  0  0  0  0  0  0
  181.6660  181.2860  138.1080 C   0  0  0  0  0  2  0  0  0  0  0  0
  179.9460  178.9900  137.1670 C   0  0  0  0  0  0  0  0  0  0  0  0
  180.0570  179.9830  139.4740 C   0  0  0  0  0  3  0  0  0  0  0  0
  180.1170  180.2820  136.4560 C   0  0  0  0  0  3  0  0  0  0  0  0
  180.8460  181.3180  136.8680 C   0  0  0  0  0  3  0  0  0  0  0  0
  179.9150  178.8670  138.5130 C   0  0  0  0  0  0  0  0  0  0  0  0
  183.4140  179.2220  141.2200 C   0  0  0  0  0  2  0  0  0  0  0  0
  186.6260  177.8180  146.2410 C   0  0  1  0  0  3  0  0  0  0  0  0
  182.8800  178.7050  143.7770 C   0  0  0  0  0  0  0  0  0  0  0  0
  181.6610  178.5500  144.4920 N   0  0  0  0  0  0  0  0  0  0  0  0
  185.3700  178.8070  143.6030 C   0  0  2  0  0  3  0  0  0  0  0  0
  187.6420  178.2750  147.1730 N   0  0  0  0  0  1  0  0  0  0  0  0
  182.5210  178.8720  142.3670 C   0  0  0  0  0  0  0  0  0  0  0  0
  181.2400  178.8280  142.2520 N   0  0  0  0  0  0  0  0  0  0  0  0
  179.3650  178.4890  143.8720 N   0  0  0  0  0  1  0  0  0  0  0  0
  185.8510  177.8900  142.4920 C   0  0  0  0  0  2  0  0  0  0  0  0
  186.0180  177.4730  143.9230 C   0  0  1  0  0  3  0  0  0  0  0  0
  184.0920  178.6710  144.3570 C   0  0  0  0  0  0  0  0  0  0  0  0
  185.2720  178.4280  146.6070 C   0  0  0  0  0  3  0  0  0  0  0  0
  184.1960  178.7230  145.8410 C   0  0  0  0  0  3  0  0  0  0  0  0
  187.1300  177.9560  144.8010 C   0  0  0  0  0  2  0  0  0  0  0  0
  180.7530  178.6100  143.5760 C   0  0  0  0  0  0  0  0  0  0  0  0
  1  6  1  0  0  0  0
  2  3  1  0  0  0  0
  4  7  1  0  0  0  0
  4  6  2  0  0  0  0
  5  4  1  0  0  0  0
  6  8  1  0  0  0  0
  7  2  2  0  0  0  0
  8  3  2  0  0  0  0
  8 33  1  0  0  0  0
 10 16  1  0  0  0  0
 11 17  2  0  0  0  0
 12 17  1  0  0  0  0
 13 14  1  0  0  0  0
 13 11  1  0  0  0  0
 14 16  1  0  0  0  0
 14 12  2  0  0  0  0
 15 13  1  0  0  0  0
 15 10  2  0  0  0  0
 16  9  2  0  0  0  0
 17  7  1  0  0  0  0
 18 19  1  0  0  0  0
 18 15  1  0  0  0  0
 18 20  1  0  0  0  0
 19 20  1  0  0  0  0
 21 11  1  6  0  0  0
 22 23  1  0  0  0  0
 22 21  1  0  0  0  0
 23 24  1  1  0  0  0
 23 21  1  0  0  0  0
 24 28  1  0  0  0  0
 26 29  2  0  0  0  0
 27 26  1  0  0  0  0
 28 32  2  0  0  0  0
 30 31  2  0  0  0  0
 30 28  1  0  0  0  0
 31 27  1  0  0  0  0
 32 25  1  0  0  0  0
 32 29  1  0  0  0  0
 33 39  1  0  0  0  0
 34 45  1  0  0  0  0
 34 38  1  1  0  0  0
 35 44  2  0  0  0  0
 35 36  1  0  0  0  0
 37 42  1  6  0  0  0
 37 43  1  0  0  0  0
 37 44  1  0  0  0  0
 39 35  1  0  0  0  0
 40 39  2  0  0  0  0
 40 48  1  0  0  0  0
 43 42  1  6  0  0  0
 43 47  1  0  0  0  0
 44 46  1  0  0  0  0
 46 45  2  0  0  0  0
 47 34  1  0  0  0  0
 48 41  1  0  0  0  0
 48 36  2  0  0  0  0
M  END
>  <MODEL>
2

>  <REMARK>
 VINA RESULT:      -9.9      7.093      9.357
  Name = 
  7 active torsions:
  status: ('A' for Active; 'I' for Inactive)
    1  A    between atoms: C_8  and  C_36
    2  A    between atoms: C_11  and  C_17
    3  A    between atoms: C_15  and  C_16
    4  A    between atoms: C_15  and  C_30
    5  A    between atoms: C_22  and  N_32
    6  A    between atoms: C_26  and  C_48
    7  A    between atoms: N_32  and  C_47
                            x       y       z     vdW  Elec       q    Type
                         _______ _______ _______ _____ _____    ______ ____

>  <TORSDO>
F 7

$$$$
=
 OpenBabel11042411173D

 48 56  0  0  1  0  0  0  0  0999 V2000
  191.2980  177.4900  139.3610 F   0  0  0  0  0  0  0  0  0  0  0  0
  188.0410  177.7520  141.9220 C   0  0  0  0  0  3  0  0  0  0  0  0
  187.8950  178.0890  140.5760 C   0  0  0  0  0  3  0  0  0  0  0  0
  190.3780  177.2340  141.5450 C   0  0  0  0  0  0  0  0  0  0  0  0
  191.6090  176.9170  142.0160 F   0  0  0  0  0  0  0  0  0  0  0  0
  190.2290  177.5660  140.1920 C   0  0  0  0  0  0  0  0  0  0  0  0
  189.2720  177.3030  142.4140 C   0  0  0  0  0  0  0  0  0  0  0  0
  188.9810  177.9840  139.7040 C   0  0  0  0  0  0  0  0  0  0  0  0
  192.4300  176.2820  146.7520 O   0  0  0  0  0  0  0  0  0  0  0  0
  190.6300  177.5030  147.7140 N   0  0  0  0  0  0  0  0  0  0  0  0
  188.5680  177.4280  144.8740 C   0  0  0  0  0  0  0  0  0  0  0  0
  190.4930  176.3770  144.3600 N   0  0  0  0  0  0  0  0  0  0  0  0
  189.1530  177.0480  146.0260 N   0  0  0  0  0  0  0  0  0  0  0  0
  190.2660  176.4160  145.6860 C   0  0  0  0  0  0  0  0  0  0  0  0
  189.4190  177.7140  147.2700 C   0  0  0  0  0  0  0  0  0  0  0  0
  191.2320  176.6630  146.7300 C   0  0  0  0  0  0  0  0  0  0  0  0
  189.3810  176.9560  143.8400 C   0  0  0  0  0  0  0  0  0  0  0  0
  188.4300  178.5830  147.9850 C   0  0  0  0  0  3  0  0  0  0  0  0
  187.3170  177.7090  148.5370 C   0  0  0  0  0  2  0  0  0  0  0  0
  188.3800  178.2460  149.4670 C   0  0  0  0  0  2  0  0  0  0  0  0
  187.5110  178.4850  144.7450 C   0  0  2  0  0  3  0  0  0  0  0  0
  186.4330  178.2060  145.6040 O   0  0  0  0  0  0  0  0  0  0  0  0
  186.2520  177.8830  144.2560 C   0  0  1  0  0  3  0  0  0  0  0  0
  185.4260  178.8940  143.6230 N   0  0  0  0  0  2  0  0  0  0  0  0
  183.4670  179.3460  145.3800 F   0  0  0  0  0  0  0  0  0  0  0  0
  180.9860  178.7030  142.8180 C   0  0  0  0  0  3  0  0  0  0  0  0
  181.6130  179.1530  141.5450 C   0  0  0  0  0  2  0  0  0  0  0  0
  184.0630  178.6660  143.2390 C   0  0  0  0  0  0  0  0  0  0  0  0
  181.6570  178.6280  143.9680 C   0  0  0  0  0  3  0  0  0  0  0  0
  183.8100  178.0660  141.9060 C   0  0  0  0  0  3  0  0  0  0  0  0
  182.7240  178.2440  141.1560 C   0  0  0  0  0  3  0  0  0  0  0  0
  183.0980  178.9080  144.1550 C   0  0  0  0  0  0  0  0  0  0  0  0
  188.8040  178.3500  138.2660 C   0  0  0  0  0  2  0  0  0  0  0  0
  189.5980  173.2510  134.9690 C   0  0  1  0  0  3  0  0  0  0  0  0
  187.2420  176.5280  137.1140 C   0  0  0  0  0  0  0  0  0  0  0  0
  185.8320  176.4350  136.9480 N   0  0  0  0  0  0  0  0  0  0  0  0
  189.5780  175.6790  136.8710 C   0  0  2  0  0  3  0  0  0  0  0  0
  190.1420  171.9040  134.9680 N   0  0  0  0  0  1  0  0  0  0  0  0
  187.5070  177.8240  137.7400 C   0  0  0  0  0  0  0  0  0  0  0  0
  186.3900  178.4340  137.9320 N   0  0  0  0  0  0  0  0  0  0  0  0
  184.0040  177.8780  137.4320 N   0  0  0  0  0  1  0  0  0  0  0  0
  190.4590  176.7530  136.2560 C   0  0  0  0  0  2  0  0  0  0  0  0
  190.0050  175.5950  135.4170 C   0  0  1  0  0  3  0  0  0  0  0  0
  188.1000  175.5700  136.7220 C   0  0  0  0  0  0  0  0  0  0  0  0
  188.2280  173.2580  135.6490 C   0  0  0  0  0  3  0  0  0  0  0  0
  187.5770  174.2360  136.3200 C   0  0  0  0  0  3  0  0  0  0  0  0
  190.6600  174.2480  135.4420 C   0  0  0  0  0  2  0  0  0  0  0  0
  185.3910  177.5550  137.4160 C   0  0  0  0  0  0  0  0  0  0  0  0
  1  6  1  0  0  0  0
  2  7  1  0  0  0  0
  3  2  2  0  0  0  0
  4  5  1  0  0  0  0
  4  7  2  0  0  0  0
  6  4  1  0  0  0  0
  7 17  1  0  0  0  0
  8  6  2  0  0  0  0
  8  3  1  0  0  0  0
 11 13  1  0  0  0  0
 12 14  2  0  0  0  0
 13 15  1  0  0  0  0
 14 13  1  0  0  0  0
 14 16  1  0  0  0  0
 15 10  2  0  0  0  0
 15 18  1  0  0  0  0
 16  9  2  0  0  0  0
 16 10  1  0  0  0  0
 17 12  1  0  0  0  0
 17 11  2  0  0  0  0
 18 19  1  0  0  0  0
 18 20  1  0  0  0  0
 19 20  1  0  0  0  0
 21 11  1  1  0  0  0
 21 22  1  0  0  0  0
 23 24  1  6  0  0  0
 23 21  1  0  0  0  0
 23 22  1  0  0  0  0
 26 29  2  0  0  0  0
 27 26  1  0  0  0  0
 28 24  1  0  0  0  0
 28 32  2  0  0  0  0
 29 32  1  0  0  0  0
 30 28  1  0  0  0  0
 31 27  1  0  0  0  0
 31 30  2  0  0  0  0
 32 25  1  0  0  0  0
 33  8  1  0  0  0  0
 34 38  1  1  0  0  0
 34 47  1  0  0  0  0
 34 45  1  0  0  0  0
 35 39  1  0  0  0  0
 36 35  1  0  0  0  0
 36 48  2  0  0  0  0
 37 42  1  6  0  0  0
 39 40  2  0  0  0  0
 39 33  1  0  0  0  0
 43 47  1  1  0  0  0
 43 42  1  0  0  0  0
 43 37  1  0  0  0  0
 44 37  1  0  0  0  0
 44 35  2  0  0  0  0
 45 46  2  0  0  0  0
 46 44  1  0  0  0  0
 48 41  1  0  0  0  0
 48 40  1  0  0  0  0
M  END
>  <MODEL>
3

>  <REMARK>
 VINA RESULT:      -9.8      3.816      9.412
  Name = 
  7 active torsions:
  status: ('A' for Active; 'I' for Inactive)
    1  A    between atoms: C_8  and  C_36
    2  A    between atoms: C_11  and  C_17
    3  A    between atoms: C_15  and  C_16
    4  A    between atoms: C_15  and  C_30
    5  A    between atoms: C_22  and  N_32
    6  A    between atoms: C_26  and  C_48
    7  A    between atoms: N_32  and  C_47
                            x       y       z     vdW  Elec       q    Type
                         _______ _______ _______ _____ _____    ______ ____

>  <TORSDO>
F 7

$$$$
=
 OpenBabel11042411173D

 48 56  0  0  1  0  0  0  0  0999 V2000
  181.6820  178.7050  144.6210 F   0  0  0  0  0  0  0  0  0  0  0  0
  185.4020  178.4470  142.7950 C   0  0  0  0  0  3  0  0  0  0  0  0
  184.2450  178.4460  142.0170 C   0  0  0  0  0  3  0  0  0  0  0  0
  184.0580  178.6270  144.8040 C   0  0  0  0  0  0  0  0  0  0  0  0
  183.9440  178.6150  146.1540 F   0  0  0  0  0  0  0  0  0  0  0  0
  182.8960  178.6320  144.0200 C   0  0  0  0  0  0  0  0  0  0  0  0
  185.3220  178.5580  144.1890 C   0  0  0  0  0  0  0  0  0  0  0  0
  182.9900  178.5530  142.6220 C   0  0  0  0  0  0  0  0  0  0  0  0
  187.7950  178.1950  149.0460 O   0  0  0  0  0  0  0  0  0  0  0  0
  189.2890  177.0050  147.6280 N   0  0  0  0  0  0  0  0  0  0  0  0
  187.7780  177.9610  144.6070 C   0  0  0  0  0  0  0  0  0  0  0  0
  186.5920  178.8710  146.2920 N   0  0  0  0  0  0  0  0  0  0  0  0
  188.5690  178.0000  145.6960 N   0  0  0  0  0  0  0  0  0  0  0  0
  187.8500  178.5580  146.6570 C   0  0  0  0  0  0  0  0  0  0  0  0
  189.4330  177.0420  146.3300 C   0  0  0  0  0  0  0  0  0  0  0  0
  188.2750  177.9710  147.9060 C   0  0  0  0  0  0  0  0  0  0  0  0
  186.5690  178.5580  144.9720 C   0  0  0  0  0  0  0  0  0  0  0  0
  190.3860  176.1540  145.5910 C   0  0  0  0  0  3  0  0  0  0  0  0
  191.6050  176.9680  145.1910 C   0  0  0  0  0  2  0  0  0  0  0  0
  191.6940  176.0050  146.3520 C   0  0  0  0  0  2  0  0  0  0  0  0
  187.9990  177.0910  143.4050 C   0  0  2  0  0  3  0  0  0  0  0  0
  189.3270  177.2050  142.9550 O   0  0  0  0  0  0  0  0  0  0  0  0
  188.3640  177.9240  142.2390 C   0  0  1  0  0  3  0  0  0  0  0  0
  188.0560  177.2220  141.0060 N   0  0  0  0  0  2  0  0  0  0  0  0
  190.2480  177.9340  139.6590 F   0  0  0  0  0  0  0  0  0  0  0  0
  188.2120  178.9670  136.8430 C   0  0  0  0  0  3  0  0  0  0  0  0
  187.0300  178.0620  136.8630 C   0  0  0  0  0  2  0  0  0  0  0  0
  187.9260  177.8820  139.7400 C   0  0  0  0  0  0  0  0  0  0  0  0
  189.1120  179.0030  137.8270 C   0  0  0  0  0  3  0  0  0  0  0  0
  186.5620  178.2530  139.2880 C   0  0  0  0  0  3  0  0  0  0  0  0
  186.1540  178.3670  138.0260 C   0  0  0  0  0  3  0  0  0  0  0  0
  189.0580  178.2260  139.0850 C   0  0  0  0  0  0  0  0  0  0  0  0
  181.7630  178.5500  141.7700 C   0  0  0  0  0  2  0  0  0  0  0  0
  179.5480  182.2130  137.3900 C   0  0  1  0  0  3  0  0  0  0  0  0
  181.9150  178.7040  139.1160 C   0  0  0  0  0  0  0  0  0  0  0  0
  182.4960  177.8540  138.1350 N   0  0  0  0  0  0  0  0  0  0  0  0
  180.7040  180.7610  139.8540 C   0  0  2  0  0  3  0  0  0  0  0  0
  179.5320  183.5660  136.8630 N   0  0  0  0  0  1  0  0  0  0  0  0
  182.0660  178.0240  140.4040 C   0  0  0  0  0  0  0  0  0  0  0  0
  182.6700  176.9020  140.2180 N   0  0  0  0  0  0  0  0  0  0  0  0
  183.5440  175.7190  138.1960 N   0  0  0  0  0  1  0  0  0  0  0  0
  179.5410  180.3830  140.7550 C   0  0  0  0  0  2  0  0  0  0  0  0
  179.2780  180.7980  139.3370 C   0  0  1  0  0  3  0  0  0  0  0  0
  181.3370  179.8830  138.8290 C   0  0  0  0  0  0  0  0  0  0  0  0
  180.8060  181.4840  136.9140 C   0  0  0  0  0  3  0  0  0  0  0  0
  181.5120  180.4760  137.4760 C   0  0  0  0  0  3  0  0  0  0  0  0
  179.2280  182.2260  138.8890 C   0  0  0  0  0  2  0  0  0  0  0  0
  182.8990  176.8300  138.8110 C   0  0  0  0  0  0  0  0  0  0  0  0
  2  7  1  0  0  0  0
  3  8  1  0  0  0  0
  3  2  2  0  0  0  0
  4  5  1  0  0  0  0
  6  1  1  0  0  0  0
  6  4  1  0  0  0  0
  7  4  2  0  0  0  0
  7 17  1  0  0  0  0
  8  6  2  0  0  0  0
 10 16  1  0  0  0  0
 11 17  2  0  0  0  0
 11 13  1  0  0  0  0
 12 14  2  0  0  0  0
 13 15  1  0  0  0  0
 13 14  1  0  0  0  0
 14 16  1  0  0  0  0
 15 10  2  0  0  0  0
 16  9  2  0  0  0  0
 17 12  1  0  0  0  0
 18 15  1  0  0  0  0
 18 20  1  0  0  0  0
 19 18  1  0  0  0  0
 19 20  1  0  0  0  0
 21 11  1  1  0  0  0
 22 21  1  0  0  0  0
 23 24  1  6  0  0  0
 23 22  1  0  0  0  0
 23 21  1  0  0  0  0
 26 27  1  0  0  0  0
 26 29  2  0  0  0  0
 27 31  1  0  0  0  0
 28 24  1  0  0  0  0
 29 32  1  0  0  0  0
 30 28  1  0  0  0  0
 31 30  2  0  0  0  0
 32 25  1  0  0  0  0
 32 28  2  0  0  0  0
 33  8  1  0  0  0  0
 34 38  1  1  0  0  0
 34 47  1  0  0  0  0
 35 39  1  0  0  0  0
 36 48  2  0  0  0  0
 36 35  1  0  0  0  0
 37 42  1  1  0  0  0
 39 33  1  0  0  0  0
 40 39  2  0  0  0  0
 41 48  1  0  0  0  0
 43 47  1  1  0  0  0
 43 37  1  0  0  0  0
 43 42  1  0  0  0  0
 44 35  2  0  0  0  0
 44 37  1  0  0  0  0
 45 34  1  0  0  0  0
 45 46  2  0  0  0  0
 46 44  1  0  0  0  0
 48 40  1  0  0  0  0
M  END
>  <MODEL>
4

>  <REMARK>
 VINA RESULT:      -9.8      5.279      9.308
  Name = 
  7 active torsions:
  status: ('A' for Active; 'I' for Inactive)
    1  A    between atoms: C_8  and  C_36
    2  A    between atoms: C_11  and  C_17
    3  A    between atoms: C_15  and  C_16
    4  A    between atoms: C_15  and  C_30
    5  A    between atoms: C_22  and  N_32
    6  A    between atoms: C_26  and  C_48
    7  A    between atoms: N_32  and  C_47
                            x       y       z     vdW  Elec       q    Type
                         _______ _______ _______ _____ _____    ______ ____

>  <TORSDO>
F 7

$$$$
=
 OpenBabel11042411173D

 48 56  0  0  1  0  0  0  0  0999 V2000
  185.4700  178.9540  137.9580 F   0  0  0  0  0  0  0  0  0  0  0  0
  183.7980  177.5820  141.5030 C   0  0  0  0  0  3  0  0  0  0  0  0
  183.1610  177.3250  140.2890 C   0  0  0  0  0  3  0  0  0  0  0  0
  185.5640  178.7600  140.3320 C   0  0  0  0  0  0  0  0  0  0  0  0
  186.6720  179.5400  140.3420 F   0  0  0  0  0  0  0  0  0  0  0  0
  184.9260  178.4950  139.1130 C   0  0  0  0  0  0  0  0  0  0  0  0
  185.0110  178.2810  141.5350 C   0  0  0  0  0  0  0  0  0  0  0  0
  183.7270  177.7660  139.0900 C   0  0  0  0  0  0  0  0  0  0  0  0
  184.5560  178.7350  146.9600 O   0  0  0  0  0  0  0  0  0  0  0  0
  186.6500  177.6340  146.7190 N   0  0  0  0  0  0  0  0  0  0  0  0
  186.9070  178.0750  143.2460 C   0  0  0  0  0  0  0  0  0  0  0  0
  184.9500  178.9680  143.9140 N   0  0  0  0  0  0  0  0  0  0  0  0
  186.9970  178.3280  144.5660 N   0  0  0  0  0  0  0  0  0  0  0  0
  185.8420  178.8700  144.9180 C   0  0  0  0  0  0  0  0  0  0  0  0
  187.4570  177.5650  145.6930 C   0  0  0  0  0  0  0  0  0  0  0  0
  185.5800  178.4710  146.2810 C   0  0  0  0  0  0  0  0  0  0  0  0
  185.6510  178.5300  142.8380 C   0  0  0  0  0  0  0  0  0  0  0  0
  188.7150  176.7520  145.6990 C   0  0  0  0  0  3  0  0  0  0  0  0
  189.8990  177.6820  145.8920 C   0  0  0  0  0  2  0  0  0  0  0  0
  189.4130  176.8380  147.0470 C   0  0  0  0  0  2  0  0  0  0  0  0
  187.7890  177.1320  142.4820 C   0  0  2  0  0  3  0  0  0  0  0  0
  189.1430  177.4540  142.6860 O   0  0  0  0  0  0  0  0  0  0  0  0
  188.5790  177.8800  141.4800 C   0  0  1  0  0  3  0  0  0  0  0  0
  189.0000  176.9940  140.4100 N   0  0  0  0  0  2  0  0  0  0  0  0
  189.8320  175.2530  138.5640 F   0  0  0  0  0  0  0  0  0  0  0  0
  189.4270  177.7620  135.9800 C   0  0  0  0  0  3  0  0  0  0  0  0
  188.2920  178.6120  136.4340 C   0  0  0  0  0  2  0  0  0  0  0  0
  189.2030  177.4350  139.0610 C   0  0  0  0  0  0  0  0  0  0  0  0
  189.9830  176.8250  136.7500 C   0  0  0  0  0  3  0  0  0  0  0  0
  189.0550  178.8840  138.7750 C   0  0  0  0  0  3  0  0  0  0  0  0
  188.6840  179.4250  137.6160 C   0  0  0  0  0  3  0  0  0  0  0  0
  189.6220  176.5250  138.1530 C   0  0  0  0  0  0  0  0  0  0  0  0
  183.0290  177.4790  137.8000 C   0  0  0  0  0  2  0  0  0  0  0  0
  187.0150  173.1900  136.0050 C   0  0  1  0  0  3  0  0  0  0  0  0
  183.0880  174.8190  137.6840 C   0  0  0  0  0  0  0  0  0  0  0  0
  182.1060  173.8230  137.9420 N   0  0  0  0  0  0  0  0  0  0  0  0
  185.3850  175.5830  137.0670 C   0  0  2  0  0  3  0  0  0  0  0  0
  188.3240  172.6060  136.2390 N   0  0  0  0  0  1  0  0  0  0  0  0
  182.4190  176.1140  137.8190 C   0  0  0  0  0  0  0  0  0  0  0  0
  181.1830  175.9180  138.1260 N   0  0  0  0  0  0  0  0  0  0  0  0
  179.7880  173.8720  138.4730 N   0  0  0  0  0  1  0  0  0  0  0  0
  185.3070  176.6180  135.9580 C   0  0  0  0  0  2  0  0  0  0  0  0
  185.7420  175.2180  135.6390 C   0  0  1  0  0  3  0  0  0  0  0  0
  184.3630  174.5400  137.3630 C   0  0  0  0  0  0  0  0  0  0  0  0
  186.0040  172.6190  137.0000 C   0  0  0  0  0  3  0  0  0  0  0  0
  184.8710  173.1500  137.5160 C   0  0  0  0  0  3  0  0  0  0  0  0
  187.1330  174.7110  135.8670 C   0  0  0  0  0  2  0  0  0  0  0  0
  181.0310  174.5000  138.1730 C   0  0  0  0  0  0  0  0  0  0  0  0
  1  6  1  0  0  0  0
  2  7  1  0  0  0  0
  3  2  2  0  0  0  0
  4  5  1  0  0  0  0
  4  7  2  0  0  0  0
  6  4  1  0  0  0  0
  7 17  1  0  0  0  0
  8  6  2  0  0  0  0
  8  3  1  0  0  0  0
 11 13  1  0  0  0  0
 12 14  2  0  0  0  0
 13 14  1  0  0  0  0
 13 15  1  0  0  0  0
 14 16  1  0  0  0  0
 15 18  1  0  0  0  0
 15 10  2  0  0  0  0
 16 10  1  0  0  0  0
 16  9  2  0  0  0  0
 17 11  2  0  0  0  0
 17 12  1  0  0  0  0
 18 19  1  0  0  0  0
 18 20  1  0  0  0  0
 19 20  1  0  0  0  0
 21 22  1  0  0  0  0
 21 11  1  1  0  0  0
 23 24  1  6  0  0  0
 23 21  1  0  0  0  0
 23 22  1  0  0  0  0
 26 27  1  0  0  0  0
 26 29  2  0  0  0  0
 27 31  1  0  0  0  0
 28 24  1  0  0  0  0
 29 32  1  0  0  0  0
 30 28  1  0  0  0  0
 31 30  2  0  0  0  0
 32 25  1  0  0  0  0
 32 28  2  0  0  0  0
 33 39  1  0  0  0  0
 33  8  1  0  0  0  0
 34 38  1  1  0  0  0
 34 45  1  0  0  0  0
 35 39  1  0  0  0  0
 35 36  1  0  0  0  0
 36 48  2  0  0  0  0
 37 42  1  6  0  0  0
 37 44  1  0  0  0  0
 39 40  2  0  0  0  0
 40 48  1  0  0  0  0
 43 47  1  1  0  0  0
 43 42  1  0  0  0  0
 43 37  1  0  0  0  0
 44 46  1  0  0  0  0
 44 35  2  0  0  0  0
 45 46  2  0  0  0  0
 47 34  1  0  0  0  0
 48 41  1  0  0  0  0
M  END
>  <MODEL>
5

>  <REMARK>
 VINA RESULT:      -9.7      3.989      9.216
  Name = 
  7 active torsions:
  status: ('A' for Active; 'I' for Inactive)
    1  A    between atoms: C_8  and  C_36
    2  A    between atoms: C_11  and  C_17
    3  A    between atoms: C_15  and  C_16
    4  A    between atoms: C_15  and  C_30
    5  A    between atoms: C_22  and  N_32
    6  A    between atoms: C_26  and  C_48
    7  A    between atoms: N_32  and  C_47
                            x       y       z     vdW  Elec       q    Type
                         _______ _______ _______ _____ _____    ______ ____

>  <TORSDO>
F 7

$$$$
=
 OpenBabel11042411173D

 48 56  0  0  1  0  0  0  0  0999 V2000
  183.6630  178.6390  144.8810 F   0  0  0  0  0  0  0  0  0  0  0  0
  183.5280  178.6370  140.7300 C   0  0  0  0  0  3  0  0  0  0  0  0
  184.7020  178.2690  141.3870 C   0  0  0  0  0  3  0  0  0  0  0  0
  182.4420  179.0030  142.8660 C   0  0  0  0  0  0  0  0  0  0  0  0
  181.3910  179.4500  143.5960 F   0  0  0  0  0  0  0  0  0  0  0  0
  183.6200  178.6260  143.5250 C   0  0  0  0  0  0  0  0  0  0  0  0
  182.3850  178.9870  141.4590 C   0  0  0  0  0  0  0  0  0  0  0  0
  184.7500  178.2470  142.7840 C   0  0  0  0  0  0  0  0  0  0  0  0
  178.9350  182.8950  139.8280 O   0  0  0  0  0  0  0  0  0  0  0  0
  179.0150  181.4660  137.9280 N   0  0  0  0  0  0  0  0  0  0  0  0
  180.7350  178.8440  139.5050 C   0  0  0  0  0  0  0  0  0  0  0  0
  180.4820  180.5050  141.0040 N   0  0  0  0  0  0  0  0  0  0  0  0
  179.7190  179.6240  139.0900 N   0  0  0  0  0  0  0  0  0  0  0  0
  179.5850  180.5740  140.0030 C   0  0  0  0  0  0  0  0  0  0  0  0
  179.3730  180.2130  137.8270 C   0  0  0  0  0  0  0  0  0  0  0  0
  179.1290  181.7620  139.3200 C   0  0  0  0  0  0  0  0  0  0  0  0
  181.1660  179.3670  140.7260 C   0  0  0  0  0  0  0  0  0  0  0  0
  179.4320  179.4880  136.5180 C   0  0  0  0  0  3  0  0  0  0  0  0
  179.1860  180.4790  135.3940 C   0  0  0  0  0  2  0  0  0  0  0  0
  180.5890  179.9890  135.6680 C   0  0  0  0  0  2  0  0  0  0  0  0
  181.5030  177.8880  138.6410 C   0  0  2  0  0  3  0  0  0  0  0  0
  180.6210  177.1120  137.8660 O   0  0  0  0  0  0  0  0  0  0  0  0
  181.1590  176.4950  139.0000 C   0  0  1  0  0  3  0  0  0  0  0  0
  182.2270  175.5960  138.6000 N   0  0  0  0  0  2  0  0  0  0  0  0
  183.9640  175.3400  136.5900 F   0  0  0  0  0  0  0  0  0  0  0  0
  182.3480  172.2660  135.5520 C   0  0  0  0  0  3  0  0  0  0  0  0
  181.8330  171.6530  136.8070 C   0  0  0  0  0  2  0  0  0  0  0  0
  182.0500  174.5460  137.6410 C   0  0  0  0  0  0  0  0  0  0  0  0
  182.8640  173.4950  135.5060 C   0  0  0  0  0  3  0  0  0  0  0  0
  180.8250  173.7130  137.7420 C   0  0  0  0  0  3  0  0  0  0  0  0
  180.6990  172.4460  137.3530 C   0  0  0  0  0  3  0  0  0  0  0  0
  182.9500  174.4450  136.6370 C   0  0  0  0  0  0  0  0  0  0  0  0
  186.0170  177.8490  143.4680 C   0  0  0  0  0  2  0  0  0  0  0  0
  191.2990  176.7520  146.3660 C   0  0  1  0  0  3  0  0  0  0  0  0
  188.5900  177.6880  142.8050 C   0  0  0  0  0  0  0  0  0  0  0  0
  189.2890  177.9390  141.5920 N   0  0  0  0  0  0  0  0  0  0  0  0
  188.4540  176.9830  145.1970 C   0  0  2  0  0  3  0  0  0  0  0  0
  192.0590  175.7800  147.1320 N   0  0  0  0  0  1  0  0  0  0  0  0
  187.1940  178.0580  142.5700 C   0  0  0  0  0  0  0  0  0  0  0  0
  187.0680  178.4760  141.3590 N   0  0  0  0  0  0  0  0  0  0  0  0
  188.6650  178.7950  139.4620 N   0  0  0  0  0  1  0  0  0  0  0  0
  187.7070  178.0300  146.0050 C   0  0  0  0  0  2  0  0  0  0  0  0
  189.2000  177.9330  146.1150 C   0  0  1  0  0  3  0  0  0  0  0  0
  189.1810  177.2200  143.9180 C   0  0  0  0  0  0  0  0  0  0  0  0
  191.4170  176.4450  144.8720 C   0  0  0  0  0  3  0  0  0  0  0  0
  190.5710  176.6940  143.8460 C   0  0  0  0  0  3  0  0  0  0  0  0
  189.9030  176.9270  146.9730 C   0  0  0  0  0  2  0  0  0  0  0  0
  188.3800  178.4040  140.8010 C   0  0  0  0  0  0  0  0  0  0  0  0
  2  3  2  0  0  0  0
  2  7  1  0  0  0  0
  3  8  1  0  0  0  0
  4  6  1  0  0  0  0
  4  5  1  0  0  0  0
  6  1  1  0  0  0  0
  7  4  2  0  0  0  0
  8 33  1  0  0  0  0
  8  6  2  0  0  0  0
 10 16  1  0  0  0  0
 11 17  2  0  0  0  0
 13 11  1  0  0  0  0
 13 14  1  0  0  0  0
 14 12  2  0  0  0  0
 15 10  2  0  0  0  0
 15 13  1  0  0  0  0
 16  9  2  0  0  0  0
 16 14  1  0  0  0  0
 17 12  1  0  0  0  0
 17  7  1  0  0  0  0
 18 15  1  0  0  0  0
 19 20  1  0  0  0  0
 19 18  1  0  0  0  0
 20 18  1  0  0  0  0
 21 23  1  0  0  0  0
 21 11  1  1  0  0  0
 22 21  1  0  0  0  0
 22 23  1  0  0  0  0
 23 24  1  6  0  0  0
 25 32  1  0  0  0  0
 26 27  1  0  0  0  0
 27 31  1  0  0  0  0
 28 30  1  0  0  0  0
 28 24  1  0  0  0  0
 29 26  2  0  0  0  0
 29 32  1  0  0  0  0
 31 30  2  0  0  0  0
 32 28  2  0  0  0  0
 34 47  1  0  0  0  0
 34 38  1  1  0  0  0
 35 44  2  0  0  0  0
 36 35  1  0  0  0  0
 37 42  1  6  0  0  0
 37 43  1  0  0  0  0
 39 35  1  0  0  0  0
 39 33  1  0  0  0  0
 40 39  2  0  0  0  0
 41 48  1  0  0  0  0
 43 42  1  1  0  0  0
 43 47  1  0  0  0  0
 44 37  1  0  0  0  0
 45 34  1  0  0  0  0
 46 44  1  0  0  0  0
 46 45  2  0  0  0  0
 48 40  1  0  0  0  0
 48 36  2  0  0  0  0
M  END
>  <MODEL>
6

>  <REMARK>
 VINA RESULT:      -9.7      6.265     10.097
  Name = 
  7 active torsions:
  status: ('A' for Active; 'I' for Inactive)
    1  A    between atoms: C_8  and  C_36
    2  A    between atoms: C_11  and  C_17
    3  A    between atoms: C_15  and  C_16
    4  A    between atoms: C_15  and  C_30
    5  A    between atoms: C_22  and  N_32
    6  A    between atoms: C_26  and  C_48
    7  A    between atoms: N_32  and  C_47
                            x       y       z     vdW  Elec       q    Type
                         _______ _______ _______ _____ _____    ______ ____

>  <TORSDO>
F 7

$$$$
=
 OpenBabel11042411173D

 48 56  0  0  1  0  0  0  0  0999 V2000
  192.9180  177.9230  139.9610 F   0  0  0  0  0  0  0  0  0  0  0  0
  189.3160  176.6050  141.5510 C   0  0  0  0  0  3  0  0  0  0  0  0
  189.4250  176.8420  140.1810 C   0  0  0  0  0  3  0  0  0  0  0  0
  191.6330  177.2500  141.8530 C   0  0  0  0  0  0  0  0  0  0  0  0
  192.6810  177.5480  142.6590 F   0  0  0  0  0  0  0  0  0  0  0  0
  191.7430  177.4820  140.4750 C   0  0  0  0  0  0  0  0  0  0  0  0
  190.4190  176.7850  142.3950 C   0  0  0  0  0  0  0  0  0  0  0  0
  190.6400  177.2660  139.6350 C   0  0  0  0  0  0  0  0  0  0  0  0
  192.7160  176.0140  147.2900 O   0  0  0  0  0  0  0  0  0  0  0  0
  190.7850  177.2910  147.8340 N   0  0  0  0  0  0  0  0  0  0  0  0
  189.2780  177.0550  144.6720 C   0  0  0  0  0  0  0  0  0  0  0  0
  191.2510  175.9720  144.5810 N   0  0  0  0  0  0  0  0  0  0  0  0
  189.6370  176.7410  145.9320 N   0  0  0  0  0  0  0  0  0  0  0  0
  190.7860  176.0890  145.8390 C   0  0  0  0  0  0  0  0  0  0  0  0
  189.6790  177.4780  147.1640 C   0  0  0  0  0  0  0  0  0  0  0  0
  191.5480  176.3940  147.0260 C   0  0  0  0  0  0  0  0  0  0  0  0
  190.2610  176.5220  143.8340 C   0  0  0  0  0  0  0  0  0  0  0  0
  188.5860  178.3880  147.6350 C   0  0  0  0  0  3  0  0  0  0  0  0
  187.4340  177.5460  148.1540 C   0  0  0  0  0  2  0  0  0  0  0  0
  188.3570  178.2380  149.1300 C   0  0  0  0  0  2  0  0  0  0  0  0
  188.2760  178.1040  144.2920 C   0  0  2  0  0  3  0  0  0  0  0  0
  187.0460  177.8600  144.9300 O   0  0  0  0  0  0  0  0  0  0  0  0
  187.1350  177.4800  143.5870 C   0  0  1  0  0  3  0  0  0  0  0  0
  186.4590  178.4630  142.7610 N   0  0  0  0  0  2  0  0  0  0  0  0
  184.8020  177.9860  140.7220 F   0  0  0  0  0  0  0  0  0  0  0  0
  181.9630  178.8950  142.7830 C   0  0  0  0  0  3  0  0  0  0  0  0
  182.3420  178.5000  144.1680 C   0  0  0  0  0  2  0  0  0  0  0  0
  185.0650  178.7730  142.8930 C   0  0  0  0  0  0  0  0  0  0  0  0
  182.8210  178.8690  141.7620 C   0  0  0  0  0  3  0  0  0  0  0  0
  184.6230  179.4670  144.1280 C   0  0  0  0  0  3  0  0  0  0  0  0
  183.4190  179.3840  144.6900 C   0  0  0  0  0  3  0  0  0  0  0  0
  184.2560  178.5160  141.8410 C   0  0  0  0  0  0  0  0  0  0  0  0
  190.7360  177.5140  138.1650 C   0  0  0  0  0  2  0  0  0  0  0  0
  194.2640  173.0830  135.8390 C   0  0  1  0  0  3  0  0  0  0  0  0
  190.3560  175.2030  136.8990 C   0  0  0  0  0  0  0  0  0  0  0  0
  189.1900  174.5590  136.4010 N   0  0  0  0  0  0  0  0  0  0  0  0
  192.8080  175.3400  137.3540 C   0  0  2  0  0  3  0  0  0  0  0  0
  195.2500  172.0600  136.1430 N   0  0  0  0  0  1  0  0  0  0  0  0
  189.9320  176.5100  137.4030 C   0  0  0  0  0  0  0  0  0  0  0  0
  188.6610  176.6330  137.2330 N   0  0  0  0  0  0  0  0  0  0  0  0
  186.8980  175.1720  136.2290 N   0  0  0  0  0  1  0  0  0  0  0  0
  193.3570  176.6630  136.8480 C   0  0  0  0  0  2  0  0  0  0  0  0
  193.6220  175.4050  136.0750 C   0  0  1  0  0  3  0  0  0  0  0  0
  191.5830  174.6540  136.8570 C   0  0  0  0  0  0  0  0  0  0  0  0
  192.8600  172.5610  136.1500 C   0  0  0  0  0  3  0  0  0  0  0  0
  191.7310  173.2150  136.5090 C   0  0  0  0  0  3  0  0  0  0  0  0
  194.6980  174.4270  136.4320 C   0  0  0  0  0  2  0  0  0  0  0  0
  188.2500  175.4220  136.5990 C   0  0  0  0  0  0  0  0  0  0  0  0
  1  6  1  0  0  0  0
  2  7  1  0  0  0  0
  3  2  2  0  0  0  0
  4  7  2  0  0  0  0
  4  5  1  0  0  0  0
  6  4  1  0  0  0  0
  7 17  1  0  0  0  0
  8  3  1  0  0  0  0
  8  6  2  0  0  0  0
 11 13  1  0  0  0  0
 12 14  2  0  0  0  0
 13 15  1  0  0  0  0
 14 13  1  0  0  0  0
 14 16  1  0  0  0  0
 15 18  1  0  0  0  0
 15 10  2  0  0  0  0
 16  9  2  0  0  0  0
 16 10  1  0  0  0  0
 17 12  1  0  0  0  0
 17 11  2  0  0  0  0
 18 19  1  0  0  0  0
 18 20  1  0  0  0  0
 19 20  1  0  0  0  0
 21 11  1  1  0  0  0
 21 22  1  0  0  0  0
 23 24  1  6  0  0  0
 23 21  1  0  0  0  0
 23 22  1  0  0  0  0
 24 28  1  0  0  0  0
 25 32  1  0  0  0  0
 26 27  1  0  0  0  0
 27 31  1  0  0  0  0
 28 30  1  0  0  0  0
 29 32  1  0  0  0  0
 29 26  2  0  0  0  0
 30 31  2  0  0  0  0
 32 28  2  0  0  0  0
 33  8  1  0  0  0  0
 34 38  1  1  0  0  0
 34 45  1  0  0  0  0
 34 47  1  0  0  0  0
 35 39  1  0  0  0  0
 36 48  2  0  0  0  0
 36 35  1  0  0  0  0
 37 42  1  6  0  0  0
 39 33  1  0  0  0  0
 40 39  2  0  0  0  0
 41 48  1  0  0  0  0
 43 47  1  1  0  0  0
 43 42  1  0  0  0  0
 43 37  1  0  0  0  0
 44 35  2  0  0  0  0
 44 37  1  0  0  0  0
 45 46  2  0  0  0  0
 46 44  1  0  0  0  0
 48 40  1  0  0  0  0
M  END
>  <MODEL>
7

>  <REMARK>
 VINA RESULT:      -9.7      3.568      9.584
  Name = 
  7 active torsions:
  status: ('A' for Active; 'I' for Inactive)
    1  A    between atoms: C_8  and  C_36
    2  A    between atoms: C_11  and  C_17
    3  A    between atoms: C_15  and  C_16
    4  A    between atoms: C_15  and  C_30
    5  A    between atoms: C_22  and  N_32
    6  A    between atoms: C_26  and  C_48
    7  A    between atoms: N_32  and  C_47
                            x       y       z     vdW  Elec       q    Type
                         _______ _______ _______ _____ _____    ______ ____

>  <TORSDO>
F 7

$$$$
=
 OpenBabel11042411173D

 48 56  0  0  1  0  0  0  0  0999 V2000
  193.0310  178.2400  140.0930 F   0  0  0  0  0  0  0  0  0  0  0  0
  189.6690  176.2110  141.4430 C   0  0  0  0  0  3  0  0  0  0  0  0
  189.8680  176.3930  140.0740 C   0  0  0  0  0  3  0  0  0  0  0  0
  191.7350  177.3910  141.9050 C   0  0  0  0  0  0  0  0  0  0  0  0
  192.5970  177.9660  142.7780 F   0  0  0  0  0  0  0  0  0  0  0  0
  191.9370  177.5670  140.5300 C   0  0  0  0  0  0  0  0  0  0  0  0
  190.6060  176.6880  142.3670 C   0  0  0  0  0  0  0  0  0  0  0  0
  191.0070  177.0570  139.6110 C   0  0  0  0  0  0  0  0  0  0  0  0
  192.5970  175.8950  147.3920 O   0  0  0  0  0  0  0  0  0  0  0  0
  190.7300  177.3100  147.8050 N   0  0  0  0  0  0  0  0  0  0  0  0
  189.3720  177.0900  144.5750 C   0  0  0  0  0  0  0  0  0  0  0  0
  191.2710  175.8790  144.6120 N   0  0  0  0  0  0  0  0  0  0  0  0
  189.6450  176.7860  145.8590 N   0  0  0  0  0  0  0  0  0  0  0  0
  190.7510  176.0590  145.8410 C   0  0  0  0  0  0  0  0  0  0  0  0
  189.6740  177.5510  147.0750 C   0  0  0  0  0  0  0  0  0  0  0  0
  191.4710  176.3440  147.0590 C   0  0  0  0  0  0  0  0  0  0  0  0
  190.3580  176.4730  143.8020 C   0  0  0  0  0  0  0  0  0  0  0  0
  188.6220  178.5430  147.4670 C   0  0  0  0  0  3  0  0  0  0  0  0
  187.2930  177.8210  147.6050 C   0  0  0  0  0  2  0  0  0  0  0  0
  188.0590  178.2250  148.8430 C   0  0  0  0  0  2  0  0  0  0  0  0
  188.4620  178.1920  144.1200 C   0  0  2  0  0  3  0  0  0  0  0  0
  187.1230  177.8740  144.4090 O   0  0  0  0  0  0  0  0  0  0  0  0
  187.5340  177.6860  143.0860 C   0  0  1  0  0  3  0  0  0  0  0  0
  187.0470  178.7820  142.2690 N   0  0  0  0  0  2  0  0  0  0  0  0
  187.1800  178.4540  139.6220 F   0  0  0  0  0  0  0  0  0  0  0  0
  183.5750  178.1230  139.4570 C   0  0  0  0  0  3  0  0  0  0  0  0
  183.1800  177.4950  140.7480 C   0  0  0  0  0  2  0  0  0  0  0  0
  185.8380  178.7120  141.5020 C   0  0  0  0  0  0  0  0  0  0  0  0
  184.8120  178.5560  139.2120 C   0  0  0  0  0  3  0  0  0  0  0  0
  184.5540  178.9500  142.2080 C   0  0  0  0  0  3  0  0  0  0  0  0
  183.3670  178.4480  141.8750 C   0  0  0  0  0  3  0  0  0  0  0  0
  185.9440  178.5430  140.1650 C   0  0  0  0  0  0  0  0  0  0  0  0
  191.2010  177.2410  138.1410 C   0  0  0  0  0  2  0  0  0  0  0  0
  189.1360  172.4210  134.9780 C   0  0  1  0  0  3  0  0  0  0  0  0
  188.9810  176.6030  136.8160 C   0  0  0  0  0  0  0  0  0  0  0  0
  187.8130  177.3420  136.4840 N   0  0  0  0  0  0  0  0  0  0  0  0
  190.3750  174.5300  136.8560 C   0  0  2  0  0  3  0  0  0  0  0  0
  188.7770  171.0150  135.0450 N   0  0  0  0  0  1  0  0  0  0  0  0
  189.9010  177.5380  137.4660 C   0  0  0  0  0  0  0  0  0  0  0  0
  189.3480  178.7000  137.5220 N   0  0  0  0  0  0  0  0  0  0  0  0
  187.1550  179.6140  136.7430 N   0  0  0  0  0  1  0  0  0  0  0  0
  191.7740  174.8350  136.3470 C   0  0  0  0  0  2  0  0  0  0  0  0
  190.8050  174.1060  135.4640 C   0  0  1  0  0  3  0  0  0  0  0  0
  189.1400  175.2980  136.5320 C   0  0  0  0  0  0  0  0  0  0  0  0
  187.9780  173.2790  135.4890 C   0  0  0  0  0  3  0  0  0  0  0  0
  187.9710  174.4990  136.0750 C   0  0  0  0  0  3  0  0  0  0  0  0
  190.5320  172.6380  135.5710 C   0  0  0  0  0  2  0  0  0  0  0  0
  188.0770  178.5390  136.8930 C   0  0  0  0  0  0  0  0  0  0  0  0
  1  6  1  0  0  0  0
  2  7  1  0  0  0  0
  3  2  2  0  0  0  0
  4  7  2  0  0  0  0
  4  5  1  0  0  0  0
  6  4  1  0  0  0  0
  7 17  1  0  0  0  0
  8  3  1  0  0  0  0
  8  6  2  0  0  0  0
 11 13  1  0  0  0  0
 12 14  2  0  0  0  0
 13 15  1  0  0  0  0
 14 13  1  0  0  0  0
 14 16  1  0  0  0  0
 15 18  1  0  0  0  0
 15 10  2  0  0  0  0
 16  9  2  0  0  0  0
 16 10  1  0  0  0  0
 17 11  2  0  0  0  0
 17 12  1  0  0  0  0
 18 19  1  0  0  0  0
 18 20  1  0  0  0  0
 19 20  1  0  0  0  0
 21 22  1  0  0  0  0
 21 11  1  1  0  0  0
 23 24  1  6  0  0  0
 23 21  1  0  0  0  0
 23 22  1  0  0  0  0
 25 32  1  0  0  0  0
 26 27  1  0  0  0  0
 27 31  1  0  0  0  0
 28 30  1  0  0  0  0
 28 24  1  0  0  0  0
 29 26  2  0  0  0  0
 29 32  1  0  0  0  0
 31 30  2  0  0  0  0
 32 28  2  0  0  0  0
 33  8  1  0  0  0  0
 34 38  1  1  0  0  0
 34 45  1  0  0  0  0
 34 47  1  0  0  0  0
 35 39  1  0  0  0  0
 36 35  1  0  0  0  0
 36 48  2  0  0  0  0
 37 42  1  6  0  0  0
 39 40  2  0  0  0  0
 39 33  1  0  0  0  0
 41 48  1  0  0  0  0
 43 47  1  1  0  0  0
 43 42  1  0  0  0  0
 43 37  1  0  0  0  0
 44 35  2  0  0  0  0
 44 37  1  0  0  0  0
 45 46  2  0  0  0  0
 46 44  1  0  0  0  0
 48 40  1  0  0  0  0
M  END
>  <MODEL>
8

>  <REMARK>
 VINA RESULT:      -9.6      3.833      8.878
  Name = 
  7 active torsions:
  status: ('A' for Active; 'I' for Inactive)
    1  A    between atoms: C_8  and  C_36
    2  A    between atoms: C_11  and  C_17
    3  A    between atoms: C_15  and  C_16
    4  A    between atoms: C_15  and  C_30
    5  A    between atoms: C_22  and  N_32
    6  A    between atoms: C_26  and  C_48
    7  A    between atoms: N_32  and  C_47
                            x       y       z     vdW  Elec       q    Type
                         _______ _______ _______ _____ _____    ______ ____

>  <TORSDO>
F 7

$$$$
=
 OpenBabel11042411173D

 48 56  0  0  1  0  0  0  0  0999 V2000
  188.1450  177.7780  137.6670 F   0  0  0  0  0  0  0  0  0  0  0  0
  191.8110  176.2760  138.9090 C   0  0  0  0  0  3  0  0  0  0  0  0
  190.8510  176.6340  139.8550 C   0  0  0  0  0  3  0  0  0  0  0  0
  190.3030  176.9240  137.1250 C   0  0  0  0  0  0  0  0  0  0  0  0
  190.0580  177.1640  135.8140 F   0  0  0  0  0  0  0  0  0  0  0  0
  189.3370  177.2780  138.0770 C   0  0  0  0  0  0  0  0  0  0  0  0
  191.5410  176.3970  137.5400 C   0  0  0  0  0  0  0  0  0  0  0  0
  189.6070  177.1220  139.4450 C   0  0  0  0  0  0  0  0  0  0  0  0
  196.8080  176.3770  136.0930 O   0  0  0  0  0  0  0  0  0  0  0  0
  196.0900  174.2130  135.4160 N   0  0  0  0  0  0  0  0  0  0  0  0
  192.6600  174.7940  135.8850 C   0  0  0  0  0  0  0  0  0  0  0  0
  193.7670  176.6610  136.4860 N   0  0  0  0  0  0  0  0  0  0  0  0
  193.8720  174.7650  135.2980 N   0  0  0  0  0  0  0  0  0  0  0  0
  194.4840  175.8830  135.6540 C   0  0  0  0  0  0  0  0  0  0  0  0
  194.8890  173.7580  135.1740 C   0  0  0  0  0  0  0  0  0  0  0  0
  195.8960  175.5920  135.7330 C   0  0  0  0  0  0  0  0  0  0  0  0
  192.5820  176.0060  136.5760 C   0  0  0  0  0  0  0  0  0  0  0  0
  194.6170  172.3270  134.8260 C   0  0  0  0  0  3  0  0  0  0  0  0
  195.9020  171.5320  134.9740 C   0  0  0  0  0  2  0  0  0  0  0  0
  194.8270  171.4240  136.0300 C   0  0  0  0  0  2  0  0  0  0  0  0
  191.7690  173.6060  136.0940 C   0  0  2  0  0  3  0  0  0  0  0  0
  191.4420  173.0150  134.8600 O   0  0  0  0  0  0  0  0  0  0  0  0
  190.4640  173.8310  135.4360 C   0  0  1  0  0  3  0  0  0  0  0  0
  189.4430  173.0020  136.0510 N   0  0  0  0  0  2  0  0  0  0  0  0
  187.8980  171.8070  137.8720 F   0  0  0  0  0  0  0  0  0  0  0  0
  185.2440  174.1880  137.2180 C   0  0  0  0  0  3  0  0  0  0  0  0
  185.9360  175.4510  136.8430 C   0  0  0  0  0  2  0  0  0  0  0  0
  188.0820  173.4240  136.2130 C   0  0  0  0  0  0  0  0  0  0  0  0
  185.8870  173.0290  137.3730 C   0  0  0  0  0  3  0  0  0  0  0  0
  187.5530  174.4360  135.2650 C   0  0  0  0  0  3  0  0  0  0  0  0
  186.5870  175.3190  135.5120 C   0  0  0  0  0  3  0  0  0  0  0  0
  187.3300  172.7980  137.1460 C   0  0  0  0  0  0  0  0  0  0  0  0
  188.5920  177.4990  140.4750 C   0  0  0  0  0  2  0  0  0  0  0  0
  184.4970  179.0190  144.7660 C   0  0  1  0  0  3  0  0  0  0  0  0
  188.6010  177.8760  143.1100 C   0  0  0  0  0  0  0  0  0  0  0  0
  189.6450  177.8950  144.0760 N   0  0  0  0  0  0  0  0  0  0  0  0
  186.2080  178.0090  142.4070 C   0  0  2  0  0  3  0  0  0  0  0  0
  183.2690  178.6250  145.4360 N   0  0  0  0  0  1  0  0  0  0  0  0
  189.2410  177.7250  141.8020 C   0  0  0  0  0  0  0  0  0  0  0  0
  190.5170  177.6560  141.9640 N   0  0  0  0  0  0  0  0  0  0  0  0
  192.0180  177.7650  143.9610 N   0  0  0  0  0  1  0  0  0  0  0  0
  186.0560  179.0040  141.2690 C   0  0  0  0  0  2  0  0  0  0  0  0
  185.6180  179.3860  142.6520 C   0  0  1  0  0  3  0  0  0  0  0  0
  187.2990  178.0020  143.4210 C   0  0  0  0  0  0  0  0  0  0  0  0
  185.6850  178.2750  145.3790 C   0  0  0  0  0  3  0  0  0  0  0  0
  186.8730  177.9090  144.8440 C   0  0  0  0  0  3  0  0  0  0  0  0
  184.3060  178.9760  143.2470 C   0  0  0  0  0  2  0  0  0  0  0  0
  190.7220  177.7830  143.3710 C   0  0  0  0  0  0  0  0  0  0  0  0
  1  6  1  0  0  0  0
  2  3  1  0  0  0  0
  4  7  1  0  0  0  0
  4  6  2  0  0  0  0
  5  4  1  0  0  0  0
  6  8  1  0  0  0  0
  7  2  2  0  0  0  0
  8  3  2  0  0  0  0
  8 33  1  0  0  0  0
 10 16  1  0  0  0  0
 11 17  2  0  0  0  0
 12 17  1  0  0  0  0
 13 14  1  0  0  0  0
 13 11  1  0  0  0  0
 14 16  1  0  0  0  0
 14 12  2  0  0  0  0
 15 13  1  0  0  0  0
 15 10  2  0  0  0  0
 16  9  2  0  0  0  0
 17  7  1  0  0  0  0
 18 19  1  0  0  0  0
 18 15  1  0  0  0  0
 18 20  1  0  0  0  0
 19 20  1  0  0  0  0
 21 11  1  6  0  0  0
 22 23  1  0  0  0  0
 22 21  1  0  0  0  0
 23 24  1  1  0  0  0
 23 21  1  0  0  0  0
 24 28  1  0  0  0  0
 26 29  2  0  0  0  0
 27 26  1  0  0  0  0
 28 32  2  0  0  0  0
 30 31  2  0  0  0  0
 30 28  1  0  0  0  0
 31 27  1  0  0  0  0
 32 29  1  0  0  0  0
 32 25  1  0  0  0  0
 33 39  1  0  0  0  0
 34 45  1  0  0  0  0
 34 38  1  1  0  0  0
 35 44  2  0  0  0  0
 35 36  1  0  0  0  0
 37 42  1  6  0  0  0
 37 43  1  0  0  0  0
 37 44  1  0  0  0  0
 39 40  2  0  0  0  0
 39 35  1  0  0  0  0
 40 48  1  0  0  0  0
 43 42  1  6  0  0  0
 43 47  1  0  0  0  0
 44 46  1  0  0  0  0
 46 45  2  0  0  0  0
 47 34  1  0  0  0  0
 48 41  1  0  0  0  0
 48 36  2  0  0  0  0
M  END
>  <MODEL>
9

>  <REMARK>
 VINA RESULT:      -9.6      1.954      2.685
  Name = 
  7 active torsions:
  status: ('A' for Active; 'I' for Inactive)
    1  A    between atoms: C_8  and  C_36
    2  A    between atoms: C_11  and  C_17
    3  A    between atoms: C_15  and  C_16
    4  A    between atoms: C_15  and  C_30
    5  A    between atoms: C_22  and  N_32
    6  A    between atoms: C_26  and  C_48
    7  A    between atoms: N_32  and  C_47
                            x       y       z     vdW  Elec       q    Type
                         _______ _______ _______ _____ _____    ______ ____

>  <TORSDO>
F 7

$$$$
