=
 OpenBabel11042410043D

 38 40  0  0  1  0  0  0  0  0999 V2000
  190.5960  175.9090  142.8960 C   0  0  0  0  0  3  0  0  0  0  0  0
  188.6530  177.2430  142.0440 C   0  0  1  0  0  3  0  0  0  0  0  0
  189.2720  176.1120  142.8200 C   0  0  0  0  0  3  0  0  0  0  0  0
  190.2900  176.7160  140.2520 O   0  0  0  0  0  0  0  0  0  0  0  0
  188.9820  177.1880  140.5340 C   0  0  2  0  0  3  0  0  0  0  0  0
  191.2110  177.4960  140.9740 C   0  0  0  0  0  2  0  0  0  0  0  0
  191.6520  176.7830  142.2570 C   0  0  0  0  0  2  0  0  0  0  0  0
  187.2130  177.3610  142.3070 N   0  0  0  0  0  2  0  0  0  0  0  0
  186.9360  177.3980  143.7440 C   0  0  1  0  0  3  0  0  0  0  0  0
  187.8290  178.4220  144.4410 C   0  0  0  0  0  2  0  0  0  0  0  0
  188.5090  177.9800  148.9430 O   0  0  0  0  0  1  0  0  0  0  0  0
  187.6640  177.5850  146.7750 C   0  0  0  0  0  3  0  0  0  0  0  0
  188.5640  177.1000  147.8620 C   0  0  1  0  0  3  0  0  0  0  0  0
  188.3920  177.8820  145.7110 C   0  0  0  0  0  0  0  0  0  0  0  0
  189.8050  177.6480  145.9560 C   0  0  0  0  0  3  0  0  0  0  0  0
  189.8980  177.1990  147.2000 C   0  0  0  0  0  0  0  0  0  0  0  0
  191.0930  176.8530  147.8340 O   0  0  0  0  0  0  0  0  0  0  0  0
  192.0310  175.9560  147.2540 C   0  0  0  0  0  1  0  0  0  0  0  0
  185.4640  177.7250  143.9910 C   0  0  0  0  0  2  0  0  0  0  0  0
  185.1470  179.1930  143.7170 C   0  0  0  0  0  2  0  0  0  0  0  0
  183.7630  179.5420  144.2310 C   0  0  0  0  0  2  0  0  0  0  0  0
  183.6010  179.0610  145.5910 N   0  0  0  0  0  1  0  0  0  0  0  0
  188.7390  178.4840  139.9060 N   0  0  0  0  0  2  0  0  0  0  0  0
  188.2450  178.2480  138.5560 C   0  0  2  0  0  3  0  0  0  0  0  0
  186.1780  177.3760  137.7390 O   0  0  0  0  0  0  0  0  0  0  0  0
  186.0130  178.8570  139.5550 N   0  0  0  0  0  2  0  0  0  0  0  0
  186.7570  178.1190  138.5770 C   0  0  0  0  0  0  0  0  0  0  0  0
  180.3260  178.9780  140.1920 C   0  0  0  0  0  1  0  0  0  0  0  0
  182.5760  178.0510  140.7490 C   0  0  0  0  0  3  0  0  0  0  0  0
  183.8020  179.8110  138.9590 C   0  0  0  0  0  3  0  0  0  0  0  0
  181.8010  178.9540  140.0170 C   0  0  0  0  0  0  0  0  0  0  0  0
  182.4140  179.8350  139.1220 C   0  0  0  0  0  3  0  0  0  0  0  0
  184.5870  178.9060  139.6890 C   0  0  0  0  0  0  0  0  0  0  0  0
  183.9650  178.0300  140.5850 C   0  0  0  0  0  3  0  0  0  0  0  0
  188.8970  177.0010  137.9700 C   0  0  0  0  0  2  0  0  0  0  0  0
  189.5170  177.2910  136.6120 C   0  0  0  0  0  2  0  0  0  0  0  0
  189.7300  176.1010  135.9160 O   0  0  0  0  0  0  0  0  0  0  0  0
  188.4580  175.6980  135.5120 C   0  0  0  0  0  1  0  0  0  0  0  0
  2  8  1  6  0  0  0
  2  3  1  0  0  0  0
  3  1  2  0  0  0  0
  4  5  1  0  0  0  0
  4  6  1  0  0  0  0
  5 23  1  1  0  0  0
  5  2  1  0  0  0  0
  6  7  1  0  0  0  0
  7  1  1  0  0  0  0
  8  9  1  0  0  0  0
  9 19  1  6  0  0  0
  9 10  1  0  0  0  0
 10 14  1  0  0  0  0
 12 13  1  0  0  0  0
 13 11  1  1  0  0  0
 14 15  1  0  0  0  0
 14 12  2  0  0  0  0
 15 16  2  0  0  0  0
 16 17  1  0  0  0  0
 16 13  1  0  0  0  0
 18 17  1  0  0  0  0
 20 19  1  0  0  0  0
 20 21  1  0  0  0  0
 21 22  1  0  0  0  0
 24 35  1  1  0  0  0
 24 27  1  0  0  0  0
 24 23  1  0  0  0  0
 25 27  2  0  0  0  0
 26 33  1  0  0  0  0
 27 26  1  0  0  0  0
 30 32  2  0  0  0  0
 30 33  1  0  0  0  0
 31 28  1  0  0  0  0
 31 29  2  0  0  0  0
 32 31  1  0  0  0  0
 33 34  2  0  0  0  0
 34 29  1  0  0  0  0
 36 35  1  0  0  0  0
 37 36  1  0  0  0  0
 38 37  1  0  0  0  0
M  END
>  <MODEL>
1

>  <REMARK>
 VINA RESULT:      -7.4      0.000      0.000
  Name = 
  15 active torsions:
  status: ('A' for Active; 'I' for Inactive)
    1  A    between atoms: O_5  and  C_12
    2  A    between atoms: C_6  and  N_14
    3  A    between atoms: C_9  and  C_13
    4  A    between atoms: C_9  and  C_23
    5  A    between atoms: C_10  and  C_16
    6  A    between atoms: C_10  and  N_30
    7  A    between atoms: C_10  and  C_38
    8  A    between atoms: C_12  and  C_16
    9  A    between atoms: N_14  and  C_28
   10  A    between atoms: C_15  and  C_24
   11  A    between atoms: C_15  and  C_28
   12  A    between atoms: O_22  and  C_36
   13  A    between atoms: C_23  and  C_28
   14  A    between atoms: C_25  and  N_30
   15  A    between atoms: N_27  and  C_29
                            x       y       z     vdW  Elec       q    Type
                         _______ _______ _______ _____ _____    ______ ____

>  <TORSDO>
F 15

$$$$
=
 OpenBabel11042410043D

 38 40  0  0  1  0  0  0  0  0999 V2000
  182.6890  178.7270  143.8540 C   0  0  0  0  0  3  0  0  0  0  0  0
  184.2950  179.1970  141.9880 C   0  0  1  0  0  3  0  0  0  0  0  0
  182.9540  178.7960  142.5400 C   0  0  0  0  0  3  0  0  0  0  0  0
  185.2880  177.7440  143.7410 O   0  0  0  0  0  0  0  0  0  0  0  0
  185.4340  178.2430  142.4210 C   0  0  2  0  0  3  0  0  0  0  0  0
  185.1370  178.8330  144.6170 C   0  0  0  0  0  2  0  0  0  0  0  0
  183.6630  179.0670  144.9600 C   0  0  0  0  0  2  0  0  0  0  0  0
  184.2480  179.4000  140.5340 N   0  0  0  0  0  2  0  0  0  0  0  0
  183.6760  178.2380  139.8520 C   0  0  1  0  0  3  0  0  0  0  0  0
  182.3850  178.6170  139.1290 C   0  0  0  0  0  2  0  0  0  0  0  0
  179.2080  177.0100  142.0010 O   0  0  0  0  0  1  0  0  0  0  0  0
  180.2140  178.2890  140.2920 C   0  0  0  0  0  3  0  0  0  0  0  0
  179.2690  177.1810  140.6190 C   0  0  1  0  0  3  0  0  0  0  0  0
  181.2330  177.8000  139.6040 C   0  0  0  0  0  0  0  0  0  0  0  0
  181.0980  176.3670  139.4070 C   0  0  0  0  0  3  0  0  0  0  0  0
  179.9630  176.0150  139.9970 C   0  0  0  0  0  0  0  0  0  0  0  0
  179.4590  174.7140  140.0410 O   0  0  0  0  0  0  0  0  0  0  0  0
  179.5730  173.8900  141.1950 C   0  0  0  0  0  1  0  0  0  0  0  0
  184.6840  177.6550  138.8630 C   0  0  0  0  0  2  0  0  0  0  0  0
  184.0870  177.4790  137.4700 C   0  0  0  0  0  2  0  0  0  0  0  0
  185.0000  176.6310  136.6050 C   0  0  0  0  0  2  0  0  0  0  0  0
  186.0260  177.4620  136.0010 N   0  0  0  0  0  1  0  0  0  0  0  0
  186.7360  178.8780  142.2350 N   0  0  0  0  0  2  0  0  0  0  0  0
  187.6330  177.9030  141.6300 C   0  0  2  0  0  3  0  0  0  0  0  0
  188.1350  175.9390  142.8910 O   0  0  0  0  0  0  0  0  0  0  0  0
  189.3260  177.8700  143.4970 N   0  0  0  0  0  2  0  0  0  0  0  0
  188.3680  177.1630  142.6990 C   0  0  0  0  0  0  0  0  0  0  0  0
  192.2350  175.8070  147.9740 C   0  0  0  0  0  1  0  0  0  0  0  0
  190.3160  177.0730  147.0000 C   0  0  0  0  0  3  0  0  0  0  0  0
  191.2560  176.6070  144.4110 C   0  0  0  0  0  3  0  0  0  0  0  0
  191.4900  176.3400  146.8050 C   0  0  0  0  0  0  0  0  0  0  0  0
  191.9590  176.1060  145.5100 C   0  0  0  0  0  3  0  0  0  0  0  0
  190.0780  177.3460  144.5990 C   0  0  0  0  0  0  0  0  0  0  0  0
  189.6140  177.5740  145.8990 C   0  0  0  0  0  3  0  0  0  0  0  0
  188.5990  178.5990  140.6790 C   0  0  0  0  0  2  0  0  0  0  0  0
  188.5430  177.9830  139.2900 C   0  0  0  0  0  2  0  0  0  0  0  0
  188.6060  178.9810  138.3180 O   0  0  0  0  0  0  0  0  0  0  0  0
  189.2310  178.3740  137.2300 C   0  0  0  0  0  1  0  0  0  0  0  0
  1  7  1  0  0  0  0
  2  8  1  6  0  0  0
  2  5  1  0  0  0  0
  2  3  1  0  0  0  0
  3  1  2  0  0  0  0
  4  6  1  0  0  0  0
  5 23  1  1  0  0  0
  5  4  1  0  0  0  0
  6  7  1  0  0  0  0
  9 19  1  6  0  0  0
  9  8  1  0  0  0  0
 10 14  1  0  0  0  0
 10  9  1  0  0  0  0
 12 13  1  0  0  0  0
 13 11  1  1  0  0  0
 14 12  2  0  0  0  0
 15 14  1  0  0  0  0
 15 16  2  0  0  0  0
 16 17  1  0  0  0  0
 16 13  1  0  0  0  0
 17 18  1  0  0  0  0
 20 19  1  0  0  0  0
 21 20  1  0  0  0  0
 22 21  1  0  0  0  0
 24 35  1  6  0  0  0
 24 23  1  0  0  0  0
 24 27  1  0  0  0  0
 26 33  1  0  0  0  0
 27 25  2  0  0  0  0
 27 26  1  0  0  0  0
 30 33  2  0  0  0  0
 30 32  1  0  0  0  0
 31 29  1  0  0  0  0
 31 28  1  0  0  0  0
 32 31  2  0  0  0  0
 33 34  1  0  0  0  0
 34 29  2  0  0  0  0
 36 35  1  0  0  0  0
 37 36  1  0  0  0  0
 38 37  1  0  0  0  0
M  END
>  <MODEL>
2

>  <REMARK>
 VINA RESULT:      -7.2      2.855      8.517
  Name = 
  15 active torsions:
  status: ('A' for Active; 'I' for Inactive)
    1  A    between atoms: O_5  and  C_12
    2  A    between atoms: C_6  and  N_14
    3  A    between atoms: C_9  and  C_13
    4  A    between atoms: C_9  and  C_23
    5  A    between atoms: C_10  and  C_16
    6  A    between atoms: C_10  and  N_30
    7  A    between atoms: C_10  and  C_38
    8  A    between atoms: C_12  and  C_16
    9  A    between atoms: N_14  and  C_28
   10  A    between atoms: C_15  and  C_24
   11  A    between atoms: C_15  and  C_28
   12  A    between atoms: O_22  and  C_36
   13  A    between atoms: C_23  and  C_28
   14  A    between atoms: C_25  and  N_30
   15  A    between atoms: N_27  and  C_29
                            x       y       z     vdW  Elec       q    Type
                         _______ _______ _______ _____ _____    ______ ____

>  <TORSDO>
F 15

$$$$
=
 OpenBabel11042410043D

 38 40  0  0  1  0  0  0  0  0999 V2000
  190.5100  176.6460  139.6440 C   0  0  0  0  0  3  0  0  0  0  0  0
  188.4170  177.9650  140.0430 C   0  0  1  0  0  3  0  0  0  0  0  0
  189.4700  176.9630  140.4310 C   0  0  0  0  0  3  0  0  0  0  0  0
  188.4520  176.9140  137.7930 O   0  0  0  0  0  0  0  0  0  0  0  0
  187.6460  177.5640  138.7630 C   0  0  2  0  0  3  0  0  0  0  0  0
  189.5640  177.7280  137.5170 C   0  0  0  0  0  2  0  0  0  0  0  0
  190.7990  177.2570  138.2910 C   0  0  0  0  0  2  0  0  0  0  0  0
  187.5250  178.2810  141.1660 N   0  0  0  0  0  2  0  0  0  0  0  0
  187.9940  177.6640  142.4090 C   0  0  1  0  0  3  0  0  0  0  0  0
  188.8730  178.6340  143.1950 C   0  0  0  0  0  2  0  0  0  0  0  0
  191.8970  175.4180  144.3940 O   0  0  0  0  0  1  0  0  0  0  0  0
  191.0270  177.4620  143.5970 C   0  0  0  0  0  3  0  0  0  0  0  0
  191.7390  176.7670  144.7100 C   0  0  1  0  0  3  0  0  0  0  0  0
  189.8640  177.9100  144.0410 C   0  0  0  0  0  0  0  0  0  0  0  0
  189.6680  177.5740  145.4400 C   0  0  0  0  0  3  0  0  0  0  0  0
  190.7520  176.9120  145.8210 C   0  0  0  0  0  0  0  0  0  0  0  0
  190.9660  176.4040  147.1030 O   0  0  0  0  0  0  0  0  0  0  0  0
  192.2050  175.8300  147.4990 C   0  0  0  0  0  1  0  0  0  0  0  0
  186.8060  177.2180  143.2600 C   0  0  0  0  0  2  0  0  0  0  0  0
  186.1340  178.3900  143.9680 C   0  0  0  0  0  2  0  0  0  0  0  0
  185.9700  178.0930  145.4470 C   0  0  0  0  0  2  0  0  0  0  0  0
  185.0710  179.0590  146.0520 N   0  0  0  0  0  1  0  0  0  0  0  0
  186.9580  178.7190  138.1930 N   0  0  0  0  0  2  0  0  0  0  0  0
  185.6020  178.3140  137.8470 C   0  0  2  0  0  3  0  0  0  0  0  0
  184.5870  180.0390  139.1500 O   0  0  0  0  0  0  0  0  0  0  0  0
  183.8200  177.8590  139.5710 N   0  0  0  0  0  2  0  0  0  0  0  0
  184.6480  178.8070  138.8850 C   0  0  0  0  0  0  0  0  0  0  0  0
  180.2200  179.0130  143.8680 C   0  0  0  0  0  1  0  0  0  0  0  0
  182.5260  178.8300  142.9270 C   0  0  0  0  0  3  0  0  0  0  0  0
  181.5080  178.0180  140.4560 C   0  0  0  0  0  3  0  0  0  0  0  0
  181.1450  178.7080  142.7470 C   0  0  0  0  0  0  0  0  0  0  0  0
  180.6360  178.3030  141.5100 C   0  0  0  0  0  3  0  0  0  0  0  0
  182.8950  178.1350  140.6300 C   0  0  0  0  0  0  0  0  0  0  0  0
  183.3960  178.5440  141.8710 C   0  0  0  0  0  3  0  0  0  0  0  0
  185.5280  176.7980  137.7070 C   0  0  0  0  0  2  0  0  0  0  0  0
  185.2430  176.3920  136.2700 C   0  0  0  0  0  2  0  0  0  0  0  0
  184.1880  175.4820  136.2270 O   0  0  0  0  0  0  0  0  0  0  0  0
  184.1580  174.9180  137.5010 C   0  0  0  0  0  1  0  0  0  0  0  0
  1  3  2  0  0  0  0
  2  3  1  0  0  0  0
  2  8  1  1  0  0  0
  4  5  1  0  0  0  0
  5 23  1  6  0  0  0
  5  2  1  0  0  0  0
  6  4  1  0  0  0  0
  6  7  1  0  0  0  0
  7  1  1  0  0  0  0
  8  9  1  0  0  0  0
  9 10  1  1  0  0  0
  9 19  1  0  0  0  0
 10 14  1  0  0  0  0
 12 14  2  0  0  0  0
 12 13  1  0  0  0  0
 13 11  1  6  0  0  0
 13 16  1  0  0  0  0
 14 15  1  0  0  0  0
 15 16  2  0  0  0  0
 16 17  1  0  0  0  0
 17 18  1  0  0  0  0
 19 20  1  0  0  0  0
 20 21  1  0  0  0  0
 21 22  1  0  0  0  0
 24 35  1  1  0  0  0
 24 23  1  0  0  0  0
 24 27  1  0  0  0  0
 26 33  1  0  0  0  0
 27 25  2  0  0  0  0
 27 26  1  0  0  0  0
 30 33  2  0  0  0  0
 30 32  1  0  0  0  0
 31 29  1  0  0  0  0
 31 28  1  0  0  0  0
 32 31  2  0  0  0  0
 33 34  1  0  0  0  0
 34 29  2  0  0  0  0
 36 35  1  0  0  0  0
 37 36  1  0  0  0  0
 37 38  1  0  0  0  0
M  END
>  <MODEL>
3

>  <REMARK>
 VINA RESULT:      -7.1      1.989      3.063
  Name = 
  15 active torsions:
  status: ('A' for Active; 'I' for Inactive)
    1  A    between atoms: O_5  and  C_12
    2  A    between atoms: C_6  and  N_14
    3  A    between atoms: C_9  and  C_13
    4  A    between atoms: C_9  and  C_23
    5  A    between atoms: C_10  and  C_16
    6  A    between atoms: C_10  and  N_30
    7  A    between atoms: C_10  and  C_38
    8  A    between atoms: C_12  and  C_16
    9  A    between atoms: N_14  and  C_28
   10  A    between atoms: C_15  and  C_24
   11  A    between atoms: C_15  and  C_28
   12  A    between atoms: O_22  and  C_36
   13  A    between atoms: C_23  and  C_28
   14  A    between atoms: C_25  and  N_30
   15  A    between atoms: N_27  and  C_29
                            x       y       z     vdW  Elec       q    Type
                         _______ _______ _______ _____ _____    ______ ____

>  <TORSDO>
F 15

$$$$
=
 OpenBabel11042410043D

 38 40  0  0  1  0  0  0  0  0999 V2000
  184.1600  179.5900  144.4070 C   0  0  0  0  0  3  0  0  0  0  0  0
  185.0790  178.4890  142.3520 C   0  0  1  0  0  3  0  0  0  0  0  0
  185.1570  179.4300  143.5230 C   0  0  0  0  0  3  0  0  0  0  0  0
  182.7680  179.3340  142.0120 O   0  0  0  0  0  0  0  0  0  0  0  0
  183.9340  178.8400  141.3720 C   0  0  2  0  0  3  0  0  0  0  0  0
  182.3710  178.4100  142.9940 C   0  0  0  0  0  2  0  0  0  0  0  0
  182.8450  178.8420  144.3850 C   0  0  0  0  0  2  0  0  0  0  0  0
  186.3760  178.3460  141.6790 N   0  0  0  0  0  2  0  0  0  0  0  0
  187.4630  178.1880  142.6470 C   0  0  1  0  0  3  0  0  0  0  0  0
  187.2950  176.8960  143.4420 C   0  0  0  0  0  2  0  0  0  0  0  0
  187.2920  178.7370  147.6300 O   0  0  0  0  0  1  0  0  0  0  0  0
  186.7860  177.2800  145.8450 C   0  0  0  0  0  3  0  0  0  0  0  0
  187.5160  177.4530  147.1350 C   0  0  1  0  0  3  0  0  0  0  0  0
  187.6640  177.0830  144.8740 C   0  0  0  0  0  0  0  0  0  0  0  0
  189.0260  177.1100  145.3800 C   0  0  0  0  0  3  0  0  0  0  0  0
  188.9340  177.3270  146.6860 C   0  0  0  0  0  0  0  0  0  0  0  0
  190.0220  177.4260  147.5550 O   0  0  0  0  0  0  0  0  0  0  0  0
  191.2240  176.6920  147.3590 C   0  0  0  0  0  1  0  0  0  0  0  0
  188.8140  178.1970  141.9330 C   0  0  0  0  0  2  0  0  0  0  0  0
  188.6980  177.7560  140.4770 C   0  0  0  0  0  2  0  0  0  0  0  0
  190.0710  177.6650  139.8390 C   0  0  0  0  0  2  0  0  0  0  0  0
  190.4430  176.2730  139.6580 N   0  0  0  0  0  1  0  0  0  0  0  0
  183.6240  177.7000  140.5130 N   0  0  0  0  0  2  0  0  0  0  0  0
  183.5130  178.1830  139.1430 C   0  0  2  0  0  3  0  0  0  0  0  0
  184.3060  176.4620  137.6910 O   0  0  0  0  0  0  0  0  0  0  0  0
  185.8460  178.1640  138.1900 N   0  0  0  0  0  2  0  0  0  0  0  0
  184.5600  177.5400  138.2940 C   0  0  0  0  0  0  0  0  0  0  0  0
  190.4410  176.2940  135.3350 C   0  0  0  0  0  1  0  0  0  0  0  0
  188.9900  178.1370  136.1900 C   0  0  0  0  0  3  0  0  0  0  0  0
  187.2480  176.2930  137.3590 C   0  0  0  0  0  3  0  0  0  0  0  0
  189.2440  176.7680  136.0760 C   0  0  0  0  0  0  0  0  0  0  0  0
  188.3730  175.8450  136.6620 C   0  0  0  0  0  3  0  0  0  0  0  0
  186.9850  177.6670  137.4760 C   0  0  0  0  0  0  0  0  0  0  0  0
  187.8640  178.5830  136.8880 C   0  0  0  0  0  3  0  0  0  0  0  0
  183.6350  179.7020  139.1110 C   0  0  0  0  0  2  0  0  0  0  0  0
  182.3270  180.3510  138.6880 C   0  0  0  0  0  2  0  0  0  0  0  0
  182.4580  181.7390  138.6820 O   0  0  0  0  0  0  0  0  0  0  0  0
  181.3230  182.1970  138.0150 C   0  0  0  0  0  1  0  0  0  0  0  0
  2  8  1  6  0  0  0
  2  3  1  0  0  0  0
  3  1  2  0  0  0  0
  4  6  1  0  0  0  0
  5 23  1  1  0  0  0
  5  4  1  0  0  0  0
  5  2  1  0  0  0  0
  6  7  1  0  0  0  0
  7  1  1  0  0  0  0
  8  9  1  0  0  0  0
  9 19  1  6  0  0  0
  9 10  1  0  0  0  0
 10 14  1  0  0  0  0
 12 13  1  0  0  0  0
 13 11  1  6  0  0  0
 14 15  1  0  0  0  0
 14 12  2  0  0  0  0
 15 16  2  0  0  0  0
 16 13  1  0  0  0  0
 16 17  1  0  0  0  0
 18 17  1  0  0  0  0
 20 19  1  0  0  0  0
 21 20  1  0  0  0  0
 22 21  1  0  0  0  0
 24 35  1  1  0  0  0
 24 23  1  0  0  0  0
 25 27  2  0  0  0  0
 26 27  1  0  0  0  0
 27 24  1  0  0  0  0
 28 31  1  0  0  0  0
 29 34  1  0  0  0  0
 30 33  1  0  0  0  0
 31 29  2  0  0  0  0
 31 32  1  0  0  0  0
 32 30  2  0  0  0  0
 33 26  1  0  0  0  0
 34 33  2  0  0  0  0
 36 35  1  0  0  0  0
 37 36  1  0  0  0  0
 38 37  1  0  0  0  0
M  END
>  <MODEL>
4

>  <REMARK>
 VINA RESULT:      -7.1      2.230      5.920
  Name = 
  15 active torsions:
  status: ('A' for Active; 'I' for Inactive)
    1  A    between atoms: O_5  and  C_12
    2  A    between atoms: C_6  and  N_14
    3  A    between atoms: C_9  and  C_13
    4  A    between atoms: C_9  and  C_23
    5  A    between atoms: C_10  and  C_16
    6  A    between atoms: C_10  and  N_30
    7  A    between atoms: C_10  and  C_38
    8  A    between atoms: C_12  and  C_16
    9  A    between atoms: N_14  and  C_28
   10  A    between atoms: C_15  and  C_24
   11  A    between atoms: C_15  and  C_28
   12  A    between atoms: O_22  and  C_36
   13  A    between atoms: C_23  and  C_28
   14  A    between atoms: C_25  and  N_30
   15  A    between atoms: N_27  and  C_29
                            x       y       z     vdW  Elec       q    Type
                         _______ _______ _______ _____ _____    ______ ____

>  <TORSDO>
F 15

$$$$
=
 OpenBabel11042410043D

 38 40  0  0  1  0  0  0  0  0999 V2000
  188.6800  176.4100  136.2380 C   0  0  0  0  0  3  0  0  0  0  0  0
  187.9770  177.3680  138.4440 C   0  0  1  0  0  3  0  0  0  0  0  0
  188.5480  176.2860  137.5670 C   0  0  0  0  0  3  0  0  0  0  0  0
  186.2440  177.6740  136.6910 O   0  0  0  0  0  0  0  0  0  0  0  0
  186.5170  177.7290  138.0820 C   0  0  2  0  0  3  0  0  0  0  0  0
  187.1800  178.4810  136.0200 C   0  0  0  0  0  2  0  0  0  0  0  0
  188.3180  177.6390  135.4350 C   0  0  0  0  0  2  0  0  0  0  0  0
  188.1480  177.0610  139.8700 N   0  0  0  0  0  2  0  0  0  0  0  0
  189.4320  177.5550  140.3700 C   0  0  1  0  0  3  0  0  0  0  0  0
  190.0530  176.5560  141.3440 C   0  0  0  0  0  2  0  0  0  0  0  0
  191.4560  179.7230  144.3320 O   0  0  0  0  0  1  0  0  0  0  0  0
  190.0220  178.4330  142.9730 C   0  0  0  0  0  3  0  0  0  0  0  0
  190.4830  178.7240  144.3620 C   0  0  1  0  0  3  0  0  0  0  0  0
  190.3380  177.1850  142.6650 C   0  0  0  0  0  0  0  0  0  0  0  0
  191.0260  176.5290  143.7630 C   0  0  0  0  0  3  0  0  0  0  0  0
  191.1090  177.4230  144.7390 C   0  0  0  0  0  0  0  0  0  0  0  0
  191.7050  177.1930  145.9800 O   0  0  0  0  0  0  0  0  0  0  0  0
  192.0570  175.8910  146.4280 C   0  0  0  0  0  1  0  0  0  0  0  0
  190.3870  177.8220  139.2070 C   0  0  0  0  0  2  0  0  0  0  0  0
  191.7580  177.1920  139.4330 C   0  0  0  0  0  2  0  0  0  0  0  0
  192.1590  176.3510  138.2360 C   0  0  0  0  0  2  0  0  0  0  0  0
  193.4710  176.7540  137.7620 N   0  0  0  0  0  1  0  0  0  0  0  0
  186.1540  179.0280  138.6420 N   0  0  0  0  0  2  0  0  0  0  0  0
  185.0990  178.8180  139.6250 C   0  0  2  0  0  3  0  0  0  0  0  0
  186.6250  179.7720  141.1950 O   0  0  0  0  0  0  0  0  0  0  0  0
  185.0570  178.2650  142.0840 N   0  0  0  0  0  2  0  0  0  0  0  0
  185.6500  178.9960  141.0020 C   0  0  0  0  0  0  0  0  0  0  0  0
  186.8710  178.1880  147.5120 C   0  0  0  0  0  1  0  0  0  0  0  0
  187.0590  177.4750  145.1260 C   0  0  0  0  0  3  0  0  0  0  0  0
  184.8200  179.0000  144.4410 C   0  0  0  0  0  3  0  0  0  0  0  0
  186.3900  178.2130  146.1070 C   0  0  0  0  0  0  0  0  0  0  0  0
  185.2710  178.9770  145.7640 C   0  0  0  0  0  3  0  0  0  0  0  0
  185.4850  178.2600  143.4520 C   0  0  0  0  0  0  0  0  0  0  0  0
  186.6060  177.5000  143.8040 C   0  0  0  0  0  3  0  0  0  0  0  0
  184.4880  177.4330  139.4510 C   0  0  0  0  0  2  0  0  0  0  0  0
  182.9740  177.5100  139.3420 C   0  0  0  0  0  2  0  0  0  0  0  0
  182.5180  178.7360  139.8260 O   0  0  0  0  0  0  0  0  0  0  0  0
  181.5390  178.4030  140.7610 C   0  0  0  0  0  1  0  0  0  0  0  0
  1  3  2  0  0  0  0
  2  8  1  1  0  0  0
  3  2  1  0  0  0  0
  4  5  1  0  0  0  0
  5  2  1  0  0  0  0
  5 23  1  6  0  0  0
  6  4  1  0  0  0  0
  7  6  1  0  0  0  0
  7  1  1  0  0  0  0
  8  9  1  0  0  0  0
  9 19  1  6  0  0  0
  9 10  1  0  0  0  0
 10 14  1  0  0  0  0
 12 13  1  0  0  0  0
 13 11  1  6  0  0  0
 13 16  1  0  0  0  0
 14 12  2  0  0  0  0
 14 15  1  0  0  0  0
 15 16  2  0  0  0  0
 16 17  1  0  0  0  0
 17 18  1  0  0  0  0
 19 20  1  0  0  0  0
 21 20  1  0  0  0  0
 22 21  1  0  0  0  0
 23 24  1  0  0  0  0
 24 35  1  1  0  0  0
 24 27  1  0  0  0  0
 26 33  1  0  0  0  0
 27 25  2  0  0  0  0
 27 26  1  0  0  0  0
 29 31  1  0  0  0  0
 30 32  1  0  0  0  0
 31 28  1  0  0  0  0
 32 31  2  0  0  0  0
 33 34  1  0  0  0  0
 33 30  2  0  0  0  0
 34 29  2  0  0  0  0
 36 35  1  0  0  0  0
 36 37  1  0  0  0  0
 37 38  1  0  0  0  0
M  END
>  <MODEL>
5

>  <REMARK>
 VINA RESULT:      -7.0      2.110      6.004
  Name = 
  15 active torsions:
  status: ('A' for Active; 'I' for Inactive)
    1  A    between atoms: O_5  and  C_12
    2  A    between atoms: C_6  and  N_14
    3  A    between atoms: C_9  and  C_13
    4  A    between atoms: C_9  and  C_23
    5  A    between atoms: C_10  and  C_16
    6  A    between atoms: C_10  and  N_30
    7  A    between atoms: C_10  and  C_38
    8  A    between atoms: C_12  and  C_16
    9  A    between atoms: N_14  and  C_28
   10  A    between atoms: C_15  and  C_24
   11  A    between atoms: C_15  and  C_28
   12  A    between atoms: O_22  and  C_36
   13  A    between atoms: C_23  and  C_28
   14  A    between atoms: C_25  and  N_30
   15  A    between atoms: N_27  and  C_29
                            x       y       z     vdW  Elec       q    Type
                         _______ _______ _______ _____ _____    ______ ____

>  <TORSDO>
F 15

$$$$
=
 OpenBabel11042410043D

 38 40  0  0  1  0  0  0  0  0999 V2000
  185.4430  179.1490  145.5490 C   0  0  0  0  0  3  0  0  0  0  0  0
  185.5170  178.0360  143.3050 C   0  0  1  0  0  3  0  0  0  0  0  0
  186.1450  178.7200  144.4890 C   0  0  0  0  0  3  0  0  0  0  0  0
  183.7280  179.7540  143.4450 O   0  0  0  0  0  0  0  0  0  0  0  0
  184.4820  178.9240  142.5750 C   0  0  2  0  0  3  0  0  0  0  0  0
  183.1400  178.9460  144.4340 C   0  0  0  0  0  2  0  0  0  0  0  0
  183.9510  178.9850  145.7330 C   0  0  0  0  0  2  0  0  0  0  0  0
  186.5270  177.4790  142.3970 N   0  0  0  0  0  2  0  0  0  0  0  0
  187.8830  177.8070  142.8440 C   0  0  1  0  0  3  0  0  0  0  0  0
  188.5970  176.5600  143.3600 C   0  0  0  0  0  2  0  0  0  0  0  0
  191.7440  176.0190  146.6360 O   0  0  0  0  0  1  0  0  0  0  0  0
  190.6840  176.8180  144.6850 C   0  0  0  0  0  3  0  0  0  0  0  0
  191.0960  177.1250  146.0860 C   0  0  1  0  0  3  0  0  0  0  0  0
  189.3630  176.8460  144.6060 C   0  0  0  0  0  0  0  0  0  0  0  0
  188.7640  177.1520  145.8930 C   0  0  0  0  0  3  0  0  0  0  0  0
  189.7690  177.3100  146.7450 C   0  0  0  0  0  0  0  0  0  0  0  0
  189.6250  177.6160  148.0990 O   0  0  0  0  0  0  0  0  0  0  0  0
  188.4440  178.2060  148.6260 C   0  0  0  0  0  1  0  0  0  0  0  0
  188.6790  178.4390  141.7030 C   0  0  0  0  0  2  0  0  0  0  0  0
  189.7820  177.5170  141.1930 C   0  0  0  0  0  2  0  0  0  0  0  0
  189.5020  177.0950  139.7630 C   0  0  0  0  0  2  0  0  0  0  0  0
  190.6890  177.2790  138.9480 N   0  0  0  0  0  1  0  0  0  0  0  0
  183.6100  178.1120  141.7300 N   0  0  0  0  0  2  0  0  0  0  0  0
  183.2650  178.8940  140.5510 C   0  0  2  0  0  3  0  0  0  0  0  0
  181.7770  178.6380  138.7010 O   0  0  0  0  0  0  0  0  0  0  0  0
  182.3220  176.6630  139.8510 N   0  0  0  0  0  2  0  0  0  0  0  0
  182.4110  178.0780  139.6360 C   0  0  0  0  0  0  0  0  0  0  0  0
  179.1910  172.9180  136.8630 C   0  0  0  0  0  1  0  0  0  0  0  0
  181.3000  174.1960  137.2520 C   0  0  0  0  0  3  0  0  0  0  0  0
  180.2010  175.4230  139.5080 C   0  0  0  0  0  3  0  0  0  0  0  0
  179.9940  173.8930  137.6440 C   0  0  0  0  0  0  0  0  0  0  0  0
  179.4440  174.5060  138.7730 C   0  0  0  0  0  3  0  0  0  0  0  0
  181.5130  175.7340  139.1190 C   0  0  0  0  0  0  0  0  0  0  0  0
  182.0560  175.1140  137.9880 C   0  0  0  0  0  3  0  0  0  0  0  0
  184.5300  179.3670  139.8460 C   0  0  0  0  0  2  0  0  0  0  0  0
  185.1370  178.2590  139.0010 C   0  0  0  0  0  2  0  0  0  0  0  0
  186.4940  178.5020  138.7910 O   0  0  0  0  0  0  0  0  0  0  0  0
  186.6860  178.2690  137.4300 C   0  0  0  0  0  1  0  0  0  0  0  0
  1  7  1  0  0  0  0
  2  8  1  6  0  0  0
  2  3  1  0  0  0  0
  3  1  2  0  0  0  0
  4  6  1  0  0  0  0
  5 23  1  1  0  0  0
  5  2  1  0  0  0  0
  5  4  1  0  0  0  0
  6  7  1  0  0  0  0
  8  9  1  0  0  0  0
  9 19  1  6  0  0  0
  9 10  1  0  0  0  0
 10 14  1  0  0  0  0
 12 13  1  0  0  0  0
 13 11  1  1  0  0  0
 13 16  1  0  0  0  0
 14 12  2  0  0  0  0
 14 15  1  0  0  0  0
 15 16  2  0  0  0  0
 16 17  1  0  0  0  0
 17 18  1  0  0  0  0
 20 19  1  0  0  0  0
 21 20  1  0  0  0  0
 22 21  1  0  0  0  0
 24 35  1  6  0  0  0
 24 23  1  0  0  0  0
 25 27  2  0  0  0  0
 27 26  1  0  0  0  0
 27 24  1  0  0  0  0
 28 31  1  0  0  0  0
 29 31  2  0  0  0  0
 29 34  1  0  0  0  0
 31 32  1  0  0  0  0
 32 30  2  0  0  0  0
 33 30  1  0  0  0  0
 33 26  1  0  0  0  0
 34 33  2  0  0  0  0
 36 35  1  0  0  0  0
 37 36  1  0  0  0  0
 38 37  1  0  0  0  0
M  END
>  <MODEL>
6

>  <REMARK>
 VINA RESULT:      -6.9      2.875      5.218
  Name = 
  15 active torsions:
  status: ('A' for Active; 'I' for Inactive)
    1  A    between atoms: O_5  and  C_12
    2  A    between atoms: C_6  and  N_14
    3  A    between atoms: C_9  and  C_13
    4  A    between atoms: C_9  and  C_23
    5  A    between atoms: C_10  and  C_16
    6  A    between atoms: C_10  and  N_30
    7  A    between atoms: C_10  and  C_38
    8  A    between atoms: C_12  and  C_16
    9  A    between atoms: N_14  and  C_28
   10  A    between atoms: C_15  and  C_24
   11  A    between atoms: C_15  and  C_28
   12  A    between atoms: O_22  and  C_36
   13  A    between atoms: C_23  and  C_28
   14  A    between atoms: C_25  and  N_30
   15  A    between atoms: N_27  and  C_29
                            x       y       z     vdW  Elec       q    Type
                         _______ _______ _______ _____ _____    ______ ____

>  <TORSDO>
F 15

$$$$
=
 OpenBabel11042410043D

 38 40  0  0  1  0  0  0  0  0999 V2000
  186.9350  176.1460  136.4060 C   0  0  0  0  0  3  0  0  0  0  0  0
  187.0210  177.9380  138.1560 C   0  0  1  0  0  3  0  0  0  0  0  0
  187.5280  176.6950  137.4770 C   0  0  0  0  0  3  0  0  0  0  0  0
  184.7480  176.9650  137.9170 O   0  0  0  0  0  0  0  0  0  0  0  0
  185.5910  177.7730  138.7230 C   0  0  2  0  0  3  0  0  0  0  0  0
  184.7510  177.4800  136.6090 C   0  0  0  0  0  2  0  0  0  0  0  0
  185.7110  176.6960  135.7080 C   0  0  0  0  0  2  0  0  0  0  0  0
  187.9720  178.4410  139.1550 N   0  0  0  0  0  2  0  0  0  0  0  0
  188.8950  177.3900  139.5880 C   0  0  1  0  0  3  0  0  0  0  0  0
  190.3380  177.7750  139.2730 C   0  0  0  0  0  2  0  0  0  0  0  0
  193.3300  175.6980  136.5050 O   0  0  0  0  0  1  0  0  0  0  0  0
  192.3850  176.6240  138.4590 C   0  0  0  0  0  3  0  0  0  0  0  0
  192.7590  175.3730  137.7360 C   0  0  1  0  0  3  0  0  0  0  0  0
  191.0710  176.6570  138.6140 C   0  0  0  0  0  0  0  0  0  0  0  0
  190.4410  175.4870  138.0280 C   0  0  0  0  0  3  0  0  0  0  0  0
  191.4200  174.7500  137.5200 C   0  0  0  0  0  0  0  0  0  0  0  0
  191.2410  173.5330  136.8610 O   0  0  0  0  0  0  0  0  0  0  0  0
  191.0860  173.4450  135.4510 C   0  0  0  0  0  1  0  0  0  0  0  0
  188.7330  177.1260  141.0840 C   0  0  0  0  0  2  0  0  0  0  0  0
  190.0500  177.2710  141.8390 C   0  0  0  0  0  2  0  0  0  0  0  0
  190.2040  176.1580  142.8580 C   0  0  0  0  0  2  0  0  0  0  0  0
  191.5150  176.2260  143.4770 N   0  0  0  0  0  1  0  0  0  0  0  0
  184.9860  179.0770  138.9810 N   0  0  0  0  0  2  0  0  0  0  0  0
  184.1350  178.9570  140.1570 C   0  0  2  0  0  3  0  0  0  0  0  0
  185.9960  179.7850  141.4020 O   0  0  0  0  0  0  0  0  0  0  0  0
  184.5740  178.3130  142.5540 N   0  0  0  0  0  2  0  0  0  0  0  0
  184.9660  179.0590  141.3940 C   0  0  0  0  0  0  0  0  0  0  0  0
  187.4680  177.9720  147.4790 C   0  0  0  0  0  1  0  0  0  0  0  0
  187.2130  177.4730  145.0460 C   0  0  0  0  0  3  0  0  0  0  0  0
  184.7730  178.8320  144.9720 C   0  0  0  0  0  3  0  0  0  0  0  0
  186.7080  178.0640  146.2070 C   0  0  0  0  0  0  0  0  0  0  0  0
  185.4880  178.7450  146.1700 C   0  0  0  0  0  3  0  0  0  0  0  0
  185.2740  178.2390  143.8020 C   0  0  0  0  0  0  0  0  0  0  0  0
  186.4970  177.5620  143.8490 C   0  0  0  0  0  3  0  0  0  0  0  0
  183.3670  177.6410  140.1160 C   0  0  0  0  0  2  0  0  0  0  0  0
  181.8950  177.8720  139.8130 C   0  0  0  0  0  2  0  0  0  0  0  0
  181.1650  177.9420  140.9980 O   0  0  0  0  0  0  0  0  0  0  0  0
  179.9190  177.4050  140.6760 C   0  0  0  0  0  1  0  0  0  0  0  0
  1  3  2  0  0  0  0
  2  5  1  0  0  0  0
  2  8  1  1  0  0  0
  3  2  1  0  0  0  0
  4  5  1  0  0  0  0
  5 23  1  6  0  0  0
  6  4  1  0  0  0  0
  7  1  1  0  0  0  0
  7  6  1  0  0  0  0
  8  9  1  0  0  0  0
  9 10  1  1  0  0  0
  9 19  1  0  0  0  0
 12 14  2  0  0  0  0
 13 11  1  6  0  0  0
 13 12  1  0  0  0  0
 14 10  1  0  0  0  0
 15 14  1  0  0  0  0
 16 13  1  0  0  0  0
 16 15  2  0  0  0  0
 17 16  1  0  0  0  0
 18 17  1  0  0  0  0
 19 20  1  0  0  0  0
 20 21  1  0  0  0  0
 21 22  1  0  0  0  0
 23 24  1  0  0  0  0
 24 35  1  6  0  0  0
 24 27  1  0  0  0  0
 26 33  1  0  0  0  0
 27 25  2  0  0  0  0
 27 26  1  0  0  0  0
 29 31  1  0  0  0  0
 30 32  1  0  0  0  0
 31 28  1  0  0  0  0
 32 31  2  0  0  0  0
 33 34  1  0  0  0  0
 33 30  2  0  0  0  0
 34 29  2  0  0  0  0
 36 35  1  0  0  0  0
 36 37  1  0  0  0  0
 38 37  1  0  0  0  0
M  END
>  <MODEL>
7

>  <REMARK>
 VINA RESULT:      -6.9      2.707      7.571
  Name = 
  15 active torsions:
  status: ('A' for Active; 'I' for Inactive)
    1  A    between atoms: O_5  and  C_12
    2  A    between atoms: C_6  and  N_14
    3  A    between atoms: C_9  and  C_13
    4  A    between atoms: C_9  and  C_23
    5  A    between atoms: C_10  and  C_16
    6  A    between atoms: C_10  and  N_30
    7  A    between atoms: C_10  and  C_38
    8  A    between atoms: C_12  and  C_16
    9  A    between atoms: N_14  and  C_28
   10  A    between atoms: C_15  and  C_24
   11  A    between atoms: C_15  and  C_28
   12  A    between atoms: O_22  and  C_36
   13  A    between atoms: C_23  and  C_28
   14  A    between atoms: C_25  and  N_30
   15  A    between atoms: N_27  and  C_29
                            x       y       z     vdW  Elec       q    Type
                         _______ _______ _______ _____ _____    ______ ____

>  <TORSDO>
F 15

$$$$
=
 OpenBabel11042410043D

 38 40  0  0  1  0  0  0  0  0999 V2000
  182.7280  178.8320  143.2040 C   0  0  0  0  0  3  0  0  0  0  0  0
  184.7080  179.2140  141.7160 C   0  0  1  0  0  3  0  0  0  0  0  0
  183.2630  178.8830  141.9750 C   0  0  0  0  0  3  0  0  0  0  0  0
  185.2420  177.7190  143.6260 O   0  0  0  0  0  0  0  0  0  0  0  0
  185.6830  178.2060  142.3690 C   0  0  2  0  0  3  0  0  0  0  0  0
  184.9670  178.8170  144.4600 C   0  0  0  0  0  2  0  0  0  0  0  0
  183.4670  179.1260  144.4910 C   0  0  0  0  0  2  0  0  0  0  0  0
  184.9740  179.4150  140.2860 N   0  0  0  0  0  2  0  0  0  0  0  0
  183.8720  178.9140  139.4630 C   0  0  1  0  0  3  0  0  0  0  0  0
  183.1910  180.0570  138.7160 C   0  0  0  0  0  2  0  0  0  0  0  0
  179.1510  177.9400  139.0570 O   0  0  0  0  0  1  0  0  0  0  0  0
  180.8540  179.5400  139.3840 C   0  0  0  0  0  3  0  0  0  0  0  0
  179.5410  179.2410  138.7420 C   0  0  1  0  0  3  0  0  0  0  0  0
  181.7580  179.7550  138.4410 C   0  0  0  0  0  0  0  0  0  0  0  0
  181.1790  179.6210  137.1150 C   0  0  0  0  0  3  0  0  0  0  0  0
  179.9000  179.3220  137.2950 C   0  0  0  0  0  0  0  0  0  0  0  0
  178.9800  179.1070  136.2670 O   0  0  0  0  0  0  0  0  0  0  0  0
  179.2110  178.1720  135.2210 C   0  0  0  0  0  1  0  0  0  0  0  0
  184.3820  177.8650  138.4760 C   0  0  0  0  0  2  0  0  0  0  0  0
  183.4450  176.6650  138.3760 C   0  0  0  0  0  2  0  0  0  0  0  0
  183.6560  175.9350  137.0640 C   0  0  0  0  0  2  0  0  0  0  0  0
  183.7130  176.8850  135.9680 N   0  0  0  0  0  1  0  0  0  0  0  0
  187.0250  178.7740  142.4620 N   0  0  0  0  0  2  0  0  0  0  0  0
  187.9540  177.8480  141.8270 C   0  0  2  0  0  3  0  0  0  0  0  0
  188.4840  175.8230  142.9750 O   0  0  0  0  0  0  0  0  0  0  0  0
  189.5840  177.7500  143.7460 N   0  0  0  0  0  2  0  0  0  0  0  0
  188.6790  177.0640  142.8710 C   0  0  0  0  0  0  0  0  0  0  0  0
  192.4200  175.5080  148.1830 C   0  0  0  0  0  1  0  0  0  0  0  0
  190.5550  176.8690  147.2350 C   0  0  0  0  0  3  0  0  0  0  0  0
  191.4600  176.3920  144.6350 C   0  0  0  0  0  3  0  0  0  0  0  0
  191.6940  176.0870  147.0250 C   0  0  0  0  0  0  0  0  0  0  0  0
  192.1460  175.8470  145.7250 C   0  0  0  0  0  3  0  0  0  0  0  0
  190.3170  177.1800  144.8380 C   0  0  0  0  0  0  0  0  0  0  0  0
  189.8700  177.4130  146.1430 C   0  0  0  0  0  3  0  0  0  0  0  0
  188.9270  178.6110  140.9360 C   0  0  0  0  0  2  0  0  0  0  0  0
  189.1370  177.8960  139.6110 C   0  0  0  0  0  2  0  0  0  0  0  0
  187.9100  177.5050  139.0760 O   0  0  0  0  0  0  0  0  0  0  0  0
  188.2400  176.7930  137.9230 C   0  0  0  0  0  1  0  0  0  0  0  0
  1  7  1  0  0  0  0
  2  8  1  6  0  0  0
  2  3  1  0  0  0  0
  2  5  1  0  0  0  0
  3  1  2  0  0  0  0
  4  6  1  0  0  0  0
  5 23  1  1  0  0  0
  5  4  1  0  0  0  0
  6  7  1  0  0  0  0
  9 19  1  6  0  0  0
  9  8  1  0  0  0  0
 10  9  1  0  0  0  0
 13 11  1  1  0  0  0
 13 12  1  0  0  0  0
 14 10  1  0  0  0  0
 14 12  2  0  0  0  0
 15 16  2  0  0  0  0
 15 14  1  0  0  0  0
 16 13  1  0  0  0  0
 17 16  1  0  0  0  0
 18 17  1  0  0  0  0
 20 19  1  0  0  0  0
 21 20  1  0  0  0  0
 22 21  1  0  0  0  0
 24 35  1  1  0  0  0
 24 23  1  0  0  0  0
 24 27  1  0  0  0  0
 26 33  1  0  0  0  0
 27 25  2  0  0  0  0
 27 26  1  0  0  0  0
 30 33  2  0  0  0  0
 30 32  1  0  0  0  0
 31 29  1  0  0  0  0
 31 28  1  0  0  0  0
 32 31  2  0  0  0  0
 33 34  1  0  0  0  0
 34 29  2  0  0  0  0
 36 35  1  0  0  0  0
 37 36  1  0  0  0  0
 38 37  1  0  0  0  0
M  END
>  <MODEL>
8

>  <REMARK>
 VINA RESULT:      -6.7      2.789      9.164
  Name = 
  15 active torsions:
  status: ('A' for Active; 'I' for Inactive)
    1  A    between atoms: O_5  and  C_12
    2  A    between atoms: C_6  and  N_14
    3  A    between atoms: C_9  and  C_13
    4  A    between atoms: C_9  and  C_23
    5  A    between atoms: C_10  and  C_16
    6  A    between atoms: C_10  and  N_30
    7  A    between atoms: C_10  and  C_38
    8  A    between atoms: C_12  and  C_16
    9  A    between atoms: N_14  and  C_28
   10  A    between atoms: C_15  and  C_24
   11  A    between atoms: C_15  and  C_28
   12  A    between atoms: O_22  and  C_36
   13  A    between atoms: C_23  and  C_28
   14  A    between atoms: C_25  and  N_30
   15  A    between atoms: N_27  and  C_29
                            x       y       z     vdW  Elec       q    Type
                         _______ _______ _______ _____ _____    ______ ____

>  <TORSDO>
F 15

$$$$
=
 OpenBabel11042410043D

 38 40  0  0  1  0  0  0  0  0999 V2000
  190.2440  177.1280  145.3650 C   0  0  0  0  0  3  0  0  0  0  0  0
  188.6330  177.6640  143.5210 C   0  0  1  0  0  3  0  0  0  0  0  0
  188.9990  177.0960  144.8650 C   0  0  0  0  0  3  0  0  0  0  0  0
  190.7200  176.6160  142.6730 O   0  0  0  0  0  0  0  0  0  0  0  0
  189.3870  176.9830  142.3540 C   0  0  2  0  0  3  0  0  0  0  0  0
  191.3930  177.7530  143.1560 C   0  0  0  0  0  2  0  0  0  0  0  0
  191.4400  177.7570  144.6870 C   0  0  0  0  0  2  0  0  0  0  0  0
  187.1800  177.6930  143.3170 N   0  0  0  0  0  2  0  0  0  0  0  0
  186.5090  178.4530  144.3740 C   0  0  1  0  0  3  0  0  0  0  0  0
  185.5190  179.4500  143.7760 C   0  0  0  0  0  2  0  0  0  0  0  0
  184.5430  179.7550  139.3180 O   0  0  0  0  0  1  0  0  0  0  0  0
  185.7160  179.2650  141.3060 C   0  0  0  0  0  3  0  0  0  0  0  0
  184.9430  178.7130  140.1550 C   0  0  1  0  0  3  0  0  0  0  0  0
  185.0560  179.0200  142.4270 C   0  0  0  0  0  0  0  0  0  0  0  0
  183.8140  178.3130  142.1640 C   0  0  0  0  0  3  0  0  0  0  0  0
  183.7530  178.1410  140.8510 C   0  0  0  0  0  0  0  0  0  0  0  0
  182.7090  177.5020  140.1790 O   0  0  0  0  0  0  0  0  0  0  0  0
  182.9310  176.4440  139.2560 C   0  0  0  0  0  1  0  0  0  0  0  0
  185.7910  177.5060  145.3340 C   0  0  0  0  0  2  0  0  0  0  0  0
  185.1320  178.2520  146.4900 C   0  0  0  0  0  2  0  0  0  0  0  0
  186.1780  178.9500  147.3380 C   0  0  0  0  0  2  0  0  0  0  0  0
  187.1820  177.9970  147.7740 N   0  0  0  0  0  1  0  0  0  0  0  0
  189.3380  177.8140  141.1540 N   0  0  0  0  0  2  0  0  0  0  0  0
  189.2100  176.9360  139.9990 C   0  0  2  0  0  3  0  0  0  0  0  0
  191.5170  177.4810  139.7050 O   0  0  0  0  0  0  0  0  0  0  0  0
  190.6810  175.7950  138.3000 N   0  0  0  0  0  2  0  0  0  0  0  0
  190.5420  176.7680  139.3430 C   0  0  0  0  0  0  0  0  0  0  0  0
  195.3930  174.6580  135.2570 C   0  0  0  0  0  1  0  0  0  0  0  0
  193.9120  174.2790  137.2310 C   0  0  0  0  0  3  0  0  0  0  0  0
  192.1180  176.2170  136.3220 C   0  0  0  0  0  3  0  0  0  0  0  0
  194.1690  174.9630  136.0390 C   0  0  0  0  0  0  0  0  0  0  0  0
  193.2700  175.9320  135.5840 C   0  0  0  0  0  3  0  0  0  0  0  0
  191.8550  175.5350  137.5200 C   0  0  0  0  0  0  0  0  0  0  0  0
  192.7590  174.5650  137.9670 C   0  0  0  0  0  3  0  0  0  0  0  0
  188.1840  177.4990  139.0240 C   0  0  0  0  0  2  0  0  0  0  0  0
  188.7630  178.6510  138.2190 C   0  0  0  0  0  2  0  0  0  0  0  0
  188.3270  178.5820  136.8960 O   0  0  0  0  0  0  0  0  0  0  0  0
  186.9750  178.2540  136.9880 C   0  0  0  0  0  1  0  0  0  0  0  0
  2  8  1  6  0  0  0
  2  3  1  0  0  0  0
  3  1  2  0  0  0  0
  4  6  1  0  0  0  0
  5 23  1  6  0  0  0
  5  4  1  0  0  0  0
  5  2  1  0  0  0  0
  6  7  1  0  0  0  0
  7  1  1  0  0  0  0
  8  9  1  0  0  0  0
  9 10  1  6  0  0  0
  9 19  1  0  0  0  0
 12 14  2  0  0  0  0
 13 11  1  6  0  0  0
 13 16  1  0  0  0  0
 13 12  1  0  0  0  0
 14 10  1  0  0  0  0
 15 14  1  0  0  0  0
 16 15  2  0  0  0  0
 17 16  1  0  0  0  0
 18 17  1  0  0  0  0
 19 20  1  0  0  0  0
 20 21  1  0  0  0  0
 21 22  1  0  0  0  0
 24 35  1  6  0  0  0
 24 23  1  0  0  0  0
 26 27  1  0  0  0  0
 27 25  2  0  0  0  0
 27 24  1  0  0  0  0
 28 31  1  0  0  0  0
 29 34  1  0  0  0  0
 30 33  1  0  0  0  0
 31 29  2  0  0  0  0
 32 31  1  0  0  0  0
 32 30  2  0  0  0  0
 33 34  2  0  0  0  0
 33 26  1  0  0  0  0
 36 35  1  0  0  0  0
 37 38  1  0  0  0  0
 37 36  1  0  0  0  0
M  END
>  <MODEL>
9

>  <REMARK>
 VINA RESULT:      -6.7      2.722      7.013
  Name = 
  15 active torsions:
  status: ('A' for Active; 'I' for Inactive)
    1  A    between atoms: O_5  and  C_12
    2  A    between atoms: C_6  and  N_14
    3  A    between atoms: C_9  and  C_13
    4  A    between atoms: C_9  and  C_23
    5  A    between atoms: C_10  and  C_16
    6  A    between atoms: C_10  and  N_30
    7  A    between atoms: C_10  and  C_38
    8  A    between atoms: C_12  and  C_16
    9  A    between atoms: N_14  and  C_28
   10  A    between atoms: C_15  and  C_24
   11  A    between atoms: C_15  and  C_28
   12  A    between atoms: O_22  and  C_36
   13  A    between atoms: C_23  and  C_28
   14  A    between atoms: C_25  and  N_30
   15  A    between atoms: N_27  and  C_29
                            x       y       z     vdW  Elec       q    Type
                         _______ _______ _______ _____ _____    ______ ____

>  <TORSDO>
F 15

$$$$
