=
 OpenBabel11032419183D

 25 28  0  0  1  0  0  0  0  0999 V2000
  185.4550  178.4450  146.2880 C   0  0  1  0  0  0  0  0  0  0  0  0
  186.4240  179.4110  146.6340 O   0  0  0  0  0  0  0  0  0  0  0  0
  189.3050  177.9000  147.4340 N   0  0  0  0  0  1  0  0  0  0  0  0
  187.3530  176.9270  146.2050 C   0  0  1  0  0  3  0  0  0  0  0  0
  184.1420  178.6820  146.6920 O   0  0  0  0  0  1  0  0  0  0  0  0
  185.5350  178.0800  144.8490 N   0  0  0  0  0  0  0  0  0  0  0  0
  187.8730  177.6460  147.4760 C   0  0  2  0  0  3  0  0  0  0  0  0
  185.8330  177.1400  145.9900 C   0  0  2  0  0  3  0  0  0  0  0  0
  187.0980  178.9360  147.7750 C   0  0  0  0  0  2  0  0  0  0  0  0
  185.4380  178.3920  143.4630 C   0  0  0  0  0  0  0  0  0  0  0  0
  184.1760  178.3890  141.3970 C   0  0  0  0  0  3  0  0  0  0  0  0
  184.2810  178.0580  142.7520 C   0  0  0  0  0  3  0  0  0  0  0  0
  186.4870  179.0570  142.8210 C   0  0  0  0  0  3  0  0  0  0  0  0
  186.3800  179.3880  141.4670 C   0  0  0  0  0  3  0  0  0  0  0  0
  185.2260  179.0560  140.7510 C   0  0  0  0  0  0  0  0  0  0  0  0
  185.1310  179.4020  139.3700 N   0  0  0  0  0  2  0  0  0  0  0  0
  184.3070  180.3900  138.9450 O   0  0  0  0  0  1  0  0  0  0  0  0
  187.9400  176.2570  143.8620 C   0  0  0  0  0  3  0  0  0  0  0  0
  189.6540  177.4010  142.5900 C   0  0  0  0  0  3  0  0  0  0  0  0
  188.1920  177.0850  144.9610 C   0  0  0  0  0  0  0  0  0  0  0  0
  188.6710  176.4100  142.6800 C   0  0  0  0  0  3  0  0  0  0  0  0
  189.9020  178.2410  143.6800 C   0  0  0  0  0  0  0  0  0  0  0  0
  189.1780  178.0800  144.8640 C   0  0  0  0  0  3  0  0  0  0  0  0
  192.0520  178.9050  144.3450 F   0  0  0  0  0  0  0  0  0  0  0  0
  190.9590  179.2840  143.5900 C   0  0  0  0  0  2  0  0  0  0  0  0
  1  2  1  0  0  0  0
  1  5  1  1  0  0  0
  2  9  1  0  0  0  0
  4 20  1  6  0  0  0
  4  7  1  0  0  0  0
  6  1  1  0  0  0  0
  7  3  1  6  0  0  0
  7  9  1  0  0  0  0
  8  6  1  6  0  0  0
  8  4  1  0  0  0  0
  8  1  1  0  0  0  0
 10  6  1  0  0  0  0
 11 12  1  0  0  0  0
 12 10  2  0  0  0  0
 13 10  1  0  0  0  0
 14 13  2  0  0  0  0
 15 11  2  0  0  0  0
 15 14  1  0  0  0  0
 16 15  1  0  0  0  0
 17 16  1  0  0  0  0
 18 20  1  0  0  0  0
 19 21  1  0  0  0  0
 19 22  2  0  0  0  0
 21 18  2  0  0  0  0
 22 23  1  0  0  0  0
 23 20  2  0  0  0  0
 25 22  1  0  0  0  0
 25 24  1  0  0  0  0
M  END
>  <MODEL>
1

>  <REMARK>
 VINA RESULT:      -7.7      0.000      0.000
  Name = 
  4 active torsions:
  status: ('A' for Active; 'I' for Inactive)
    1  A    between atoms: C_2  and  N_18
    2  A    between atoms: N_3  and  C_21
    3  A    between atoms: C_8  and  C_10
    4  A    between atoms: C_16  and  C_24
                            x       y       z     vdW  Elec       q    Type
                         _______ _______ _______ _____ _____    ______ ____

>  <TORSDO>
F 4

$$$$
=
 OpenBabel11032419183D

 25 28  0  0  1  0  0  0  0  0999 V2000
  185.8630  178.0440  144.9170 C   0  0  1  0  0  0  0  0  0  0  0  0
  186.2590  179.3150  145.3890 O   0  0  0  0  0  0  0  0  0  0  0  0
  187.8410  178.9980  148.3260 N   0  0  0  0  0  1  0  0  0  0  0  0
  187.3610  177.2090  146.6410 C   0  0  1  0  0  3  0  0  0  0  0  0
  184.6310  177.9570  144.2710 O   0  0  0  0  0  1  0  0  0  0  0  0
  186.9460  177.3880  144.1370 N   0  0  0  0  0  0  0  0  0  0  0  0
  186.8050  178.3350  147.5500 C   0  0  2  0  0  3  0  0  0  0  0  0
  186.4140  176.8870  145.4570 C   0  0  2  0  0  3  0  0  0  0  0  0
  185.9690  179.3570  146.7660 C   0  0  0  0  0  2  0  0  0  0  0  0
  187.8270  177.3130  143.0210 C   0  0  0  0  0  0  0  0  0  0  0  0
  188.6520  178.2260  140.9370 C   0  0  0  0  0  3  0  0  0  0  0  0
  187.7680  178.2850  142.0180 C   0  0  0  0  0  3  0  0  0  0  0  0
  188.7690  176.2840  142.9430 C   0  0  0  0  0  3  0  0  0  0  0  0
  189.6540  176.2260  141.8620 C   0  0  0  0  0  3  0  0  0  0  0  0
  189.5990  177.1960  140.8560 C   0  0  0  0  0  0  0  0  0  0  0  0
  190.5080  177.1240  139.7600 N   0  0  0  0  0  2  0  0  0  0  0  0
  190.7960  175.9450  139.1580 O   0  0  0  0  0  1  0  0  0  0  0  0
  189.7240  176.3900  146.8040 C   0  0  0  0  0  3  0  0  0  0  0  0
  191.5240  177.4010  145.5370 C   0  0  0  0  0  3  0  0  0  0  0  0
  188.8200  177.3140  146.2690 C   0  0  0  0  0  0  0  0  0  0  0  0
  191.0740  176.4350  146.4430 C   0  0  0  0  0  3  0  0  0  0  0  0
  190.6230  178.3190  144.9880 C   0  0  0  0  0  0  0  0  0  0  0  0
  189.2760  178.2800  145.3580 C   0  0  0  0  0  3  0  0  0  0  0  0
  191.6330  178.7490  142.9150 F   0  0  0  0  0  0  0  0  0  0  0  0
  191.1030  179.3560  144.0370 C   0  0  0  0  0  2  0  0  0  0  0  0
  1  5  1  6  0  0  0
  1  2  1  0  0  0  0
  1  8  1  0  0  0  0
  2  9  1  0  0  0  0
  4 20  1  6  0  0  0
  4  7  1  0  0  0  0
  6  1  1  0  0  0  0
  7  3  1  6  0  0  0
  8  6  1  6  0  0  0
  8  4  1  0  0  0  0
  9  7  1  0  0  0  0
 10  6  1  0  0  0  0
 11 12  1  0  0  0  0
 12 10  2  0  0  0  0
 13 10  1  0  0  0  0
 14 13  2  0  0  0  0
 15 11  2  0  0  0  0
 15 14  1  0  0  0  0
 16 15  1  0  0  0  0
 17 16  1  0  0  0  0
 19 21  2  0  0  0  0
 20 18  2  0  0  0  0
 21 18  1  0  0  0  0
 22 23  2  0  0  0  0
 22 19  1  0  0  0  0
 23 20  1  0  0  0  0
 24 25  1  0  0  0  0
 25 22  1  0  0  0  0
M  END
>  <MODEL>
2

>  <REMARK>
 VINA RESULT:      -7.5      2.512      3.264
  Name = 
  4 active torsions:
  status: ('A' for Active; 'I' for Inactive)
    1  A    between atoms: C_2  and  N_18
    2  A    between atoms: N_3  and  C_21
    3  A    between atoms: C_8  and  C_10
    4  A    between atoms: C_16  and  C_24
                            x       y       z     vdW  Elec       q    Type
                         _______ _______ _______ _____ _____    ______ ____

>  <TORSDO>
F 4

$$$$
=
 OpenBabel11032419183D

 25 28  0  0  1  0  0  0  0  0999 V2000
  185.8460  178.0260  144.9910 C   0  0  1  0  0  0  0  0  0  0  0  0
  186.2510  179.2960  145.4530 O   0  0  0  0  0  0  0  0  0  0  0  0
  187.9240  178.9790  148.3400 N   0  0  0  0  0  1  0  0  0  0  0  0
  187.3990  177.1920  146.6650 C   0  0  1  0  0  3  0  0  0  0  0  0
  184.5950  177.9350  144.3820 O   0  0  0  0  0  1  0  0  0  0  0  0
  186.9070  177.3760  144.1760 N   0  0  0  0  0  0  0  0  0  0  0  0
  186.8670  178.3130  147.5940 C   0  0  2  0  0  3  0  0  0  0  0  0
  186.4180  176.8690  145.5100 C   0  0  2  0  0  3  0  0  0  0  0  0
  186.0040  179.3340  146.8390 C   0  0  0  0  0  2  0  0  0  0  0  0
  187.7540  177.3070  143.0330 C   0  0  0  0  0  0  0  0  0  0  0  0
  188.4760  178.2010  140.9030 C   0  0  0  0  0  3  0  0  0  0  0  0
  187.6250  178.2520  142.0110 C   0  0  0  0  0  3  0  0  0  0  0  0
  188.7320  176.3120  142.9480 C   0  0  0  0  0  3  0  0  0  0  0  0
  189.5830  176.2620  141.8390 C   0  0  0  0  0  3  0  0  0  0  0  0
  189.4580  177.2050  140.8150 C   0  0  0  0  0  0  0  0  0  0  0  0
  190.3340  177.1410  139.6910 N   0  0  0  0  0  2  0  0  0  0  0  0
  190.6930  175.9560  139.1420 O   0  0  0  0  0  1  0  0  0  0  0  0
  189.2360  178.3680  145.4300 C   0  0  0  0  0  3  0  0  0  0  0  0
  191.5360  177.6160  145.5280 C   0  0  0  0  0  3  0  0  0  0  0  0
  188.8450  177.3040  146.2500 C   0  0  0  0  0  0  0  0  0  0  0  0
  190.5770  178.5230  145.0660 C   0  0  0  0  0  3  0  0  0  0  0  0
  191.1550  176.5570  146.3580 C   0  0  0  0  0  0  0  0  0  0  0  0
  189.8130  176.3980  146.7130 C   0  0  0  0  0  3  0  0  0  0  0  0
  192.5630  175.9120  148.1210 F   0  0  0  0  0  0  0  0  0  0  0  0
  192.1720  175.5840  146.8360 C   0  0  0  0  0  2  0  0  0  0  0  0
  1  5  1  6  0  0  0
  1  2  1  0  0  0  0
  1  8  1  0  0  0  0
  2  9  1  0  0  0  0
  4 20  1  6  0  0  0
  4  7  1  0  0  0  0
  6  1  1  0  0  0  0
  7  3  1  6  0  0  0
  8  6  1  6  0  0  0
  8  4  1  0  0  0  0
  9  7  1  0  0  0  0
 10  6  1  0  0  0  0
 11 12  1  0  0  0  0
 12 10  2  0  0  0  0
 13 10  1  0  0  0  0
 14 13  2  0  0  0  0
 15 11  2  0  0  0  0
 15 14  1  0  0  0  0
 16 15  1  0  0  0  0
 17 16  1  0  0  0  0
 18 20  1  0  0  0  0
 19 22  2  0  0  0  0
 20 23  2  0  0  0  0
 21 18  2  0  0  0  0
 21 19  1  0  0  0  0
 22 23  1  0  0  0  0
 22 25  1  0  0  0  0
 25 24  1  0  0  0  0
M  END
>  <MODEL>
3

>  <REMARK>
 VINA RESULT:      -7.3      2.783      3.517
  Name = 
  4 active torsions:
  status: ('A' for Active; 'I' for Inactive)
    1  A    between atoms: C_2  and  N_18
    2  A    between atoms: N_3  and  C_21
    3  A    between atoms: C_8  and  C_10
    4  A    between atoms: C_16  and  C_24
                            x       y       z     vdW  Elec       q    Type
                         _______ _______ _______ _____ _____    ______ ____

>  <TORSDO>
F 4

$$$$
=
 OpenBabel11032419183D

 25 28  0  0  1  0  0  0  0  0999 V2000
  186.0220  178.0600  145.9880 C   0  0  1  0  0  0  0  0  0  0  0  0
  186.6030  179.2370  146.5080 O   0  0  0  0  0  0  0  0  0  0  0  0
  189.2830  178.4590  148.3630 N   0  0  0  0  0  1  0  0  0  0  0  0
  188.0970  177.0120  146.6980 C   0  0  1  0  0  3  0  0  0  0  0  0
  184.6300  178.0110  145.9180 O   0  0  0  0  0  1  0  0  0  0  0  0
  186.6550  177.6580  144.7040 N   0  0  0  0  0  0  0  0  0  0  0  0
  188.0030  177.8870  147.9730 C   0  0  2  0  0  3  0  0  0  0  0  0
  186.7300  176.8630  145.9840 C   0  0  2  0  0  3  0  0  0  0  0  0
  186.9310  178.9800  147.8530 C   0  0  0  0  0  2  0  0  0  0  0  0
  186.9730  177.8750  143.3330 C   0  0  0  0  0  0  0  0  0  0  0  0
  188.3410  177.3890  141.3960 C   0  0  0  0  0  3  0  0  0  0  0  0
  188.0470  177.1970  142.7490 C   0  0  0  0  0  3  0  0  0  0  0  0
  186.1930  178.7450  142.5650 C   0  0  0  0  0  3  0  0  0  0  0  0
  186.4870  178.9370  141.2110 C   0  0  0  0  0  3  0  0  0  0  0  0
  187.5610  178.2600  140.6230 C   0  0  0  0  0  0  0  0  0  0  0  0
  187.8480  178.4650  139.2410 N   0  0  0  0  0  2  0  0  0  0  0  0
  189.0230  179.0030  138.8360 O   0  0  0  0  0  1  0  0  0  0  0  0
  189.5510  178.6280  145.4480 C   0  0  0  0  0  3  0  0  0  0  0  0
  191.4640  177.8980  144.1550 C   0  0  0  0  0  3  0  0  0  0  0  0
  189.2590  177.3000  145.7790 C   0  0  0  0  0  0  0  0  0  0  0  0
  190.6480  178.9270  144.6350 C   0  0  0  0  0  3  0  0  0  0  0  0
  191.1860  176.5700  144.4920 C   0  0  0  0  0  0  0  0  0  0  0  0
  190.0830  176.2710  145.2960 C   0  0  0  0  0  3  0  0  0  0  0  0
  192.4300  174.6480  145.0060 F   0  0  0  0  0  0  0  0  0  0  0  0
  192.0440  175.4740  143.9680 C   0  0  0  0  0  2  0  0  0  0  0  0
  1  5  1  1  0  0  0
  1  2  1  0  0  0  0
  2  9  1  0  0  0  0
  4 20  1  6  0  0  0
  4  7  1  0  0  0  0
  6  1  1  0  0  0  0
  7  3  1  6  0  0  0
  8  6  1  6  0  0  0
  8  1  1  0  0  0  0
  8  4  1  0  0  0  0
  9  7  1  0  0  0  0
 10  6  1  0  0  0  0
 11 12  2  0  0  0  0
 12 10  1  0  0  0  0
 13 10  2  0  0  0  0
 14 13  1  0  0  0  0
 15 14  2  0  0  0  0
 15 11  1  0  0  0  0
 16 15  1  0  0  0  0
 17 16  1  0  0  0  0
 18 20  1  0  0  0  0
 19 22  2  0  0  0  0
 19 21  1  0  0  0  0
 21 18  2  0  0  0  0
 22 23  1  0  0  0  0
 23 20  2  0  0  0  0
 25 22  1  0  0  0  0
 25 24  1  0  0  0  0
M  END
>  <MODEL>
4

>  <REMARK>
 VINA RESULT:      -7.2      1.935      2.515
  Name = 
  4 active torsions:
  status: ('A' for Active; 'I' for Inactive)
    1  A    between atoms: C_2  and  N_18
    2  A    between atoms: N_3  and  C_21
    3  A    between atoms: C_8  and  C_10
    4  A    between atoms: C_16  and  C_24
                            x       y       z     vdW  Elec       q    Type
                         _______ _______ _______ _____ _____    ______ ____

>  <TORSDO>
F 4

$$$$
=
 OpenBabel11032419183D

 25 28  0  0  1  0  0  0  0  0999 V2000
  191.3520  177.4940  142.8310 C   0  0  1  0  0  0  0  0  0  0  0  0
  191.1940  176.1420  143.2040 O   0  0  0  0  0  0  0  0  0  0  0  0
  190.5260  175.9340  146.4810 N   0  0  0  0  0  1  0  0  0  0  0  0
  190.3750  177.9550  145.0100 C   0  0  1  0  0  3  0  0  0  0  0  0
  192.3320  177.7870  141.8840 O   0  0  0  0  0  1  0  0  0  0  0  0
  190.0480  178.1240  142.4920 N   0  0  0  0  0  0  0  0  0  0  0  0
  191.2440  176.7910  145.5500 C   0  0  2  0  0  3  0  0  0  0  0  0
  190.9100  178.5140  143.6670 C   0  0  2  0  0  3  0  0  0  0  0  0
  191.8770  175.9630  144.4220 C   0  0  0  0  0  2  0  0  0  0  0  0
  188.8760  178.2430  141.6930 C   0  0  0  0  0  0  0  0  0  0  0  0
  186.6160  179.0570  141.3940 C   0  0  0  0  0  3  0  0  0  0  0  0
  187.7570  178.9170  142.1900 C   0  0  0  0  0  3  0  0  0  0  0  0
  188.8540  177.7090  140.4010 C   0  0  0  0  0  3  0  0  0  0  0  0
  187.7140  177.8500  139.6050 C   0  0  0  0  0  3  0  0  0  0  0  0
  186.5920  178.5240  140.0980 C   0  0  0  0  0  0  0  0  0  0  0  0
  185.4360  178.6600  139.2740 N   0  0  0  0  0  2  0  0  0  0  0  0
  184.6920  179.7920  139.2830 O   0  0  0  0  0  1  0  0  0  0  0  0
  188.3170  176.7220  144.2830 C   0  0  0  0  0  3  0  0  0  0  0  0
  186.1260  177.2460  145.1700 C   0  0  0  0  0  3  0  0  0  0  0  0
  188.8810  177.7450  145.0530 C   0  0  0  0  0  0  0  0  0  0  0  0
  186.9420  176.4750  144.3380 C   0  0  0  0  0  3  0  0  0  0  0  0
  186.6850  178.2620  145.9520 C   0  0  0  0  0  0  0  0  0  0  0  0
  188.0570  178.5150  145.8890 C   0  0  0  0  0  3  0  0  0  0  0  0
  184.6930  178.3710  147.1890 F   0  0  0  0  0  0  0  0  0  0  0  0
  185.8140  179.0930  146.8260 C   0  0  0  0  0  2  0  0  0  0  0  0
  1  5  1  6  0  0  0
  1  2  1  0  0  0  0
  1  8  1  0  0  0  0
  2  9  1  0  0  0  0
  4 20  1  6  0  0  0
  4  7  1  0  0  0  0
  6  1  1  0  0  0  0
  7  3  1  6  0  0  0
  8  6  1  6  0  0  0
  8  4  1  0  0  0  0
  9  7  1  0  0  0  0
 10 12  1  0  0  0  0
 10  6  1  0  0  0  0
 11 12  2  0  0  0  0
 13 10  2  0  0  0  0
 14 15  2  0  0  0  0
 14 13  1  0  0  0  0
 15 11  1  0  0  0  0
 16 17  1  0  0  0  0
 16 15  1  0  0  0  0
 18 21  2  0  0  0  0
 18 20  1  0  0  0  0
 19 22  2  0  0  0  0
 20 23  2  0  0  0  0
 21 19  1  0  0  0  0
 22 25  1  0  0  0  0
 23 22  1  0  0  0  0
 25 24  1  0  0  0  0
M  END
>  <MODEL>
5

>  <REMARK>
 VINA RESULT:      -6.8      3.158      4.572
  Name = 
  4 active torsions:
  status: ('A' for Active; 'I' for Inactive)
    1  A    between atoms: C_2  and  N_18
    2  A    between atoms: N_3  and  C_21
    3  A    between atoms: C_8  and  C_10
    4  A    between atoms: C_16  and  C_24
                            x       y       z     vdW  Elec       q    Type
                         _______ _______ _______ _____ _____    ______ ____

>  <TORSDO>
F 4

$$$$
=
 OpenBabel11032419183D

 25 28  0  0  1  0  0  0  0  0999 V2000
  187.7810  177.8950  139.0780 C   0  0  1  0  0  0  0  0  0  0  0  0
  187.9710  176.5010  138.9640 O   0  0  0  0  0  0  0  0  0  0  0  0
  191.2400  175.7800  139.1180 N   0  0  0  0  0  1  0  0  0  0  0  0
  190.1040  177.9060  139.7960 C   0  0  1  0  0  3  0  0  0  0  0  0
  186.7760  178.4700  138.3020 O   0  0  0  0  0  1  0  0  0  0  0  0
  187.6950  178.3210  140.5000 N   0  0  0  0  0  0  0  0  0  0  0  0
  190.3630  176.8580  138.6850 C   0  0  2  0  0  3  0  0  0  0  0  0
  188.8020  178.7110  139.5530 C   0  0  2  0  0  3  0  0  0  0  0  0
  189.0610  176.2990  138.0950 C   0  0  0  0  0  2  0  0  0  0  0  0
  187.0660  178.3260  141.7780 C   0  0  0  0  0  0  0  0  0  0  0  0
  185.3400  179.1490  143.2620 C   0  0  0  0  0  3  0  0  0  0  0  0
  185.9740  179.1650  142.0150 C   0  0  0  0  0  3  0  0  0  0  0  0
  187.5250  177.4720  142.7850 C   0  0  0  0  0  3  0  0  0  0  0  0
  186.8910  177.4560  144.0310 C   0  0  0  0  0  3  0  0  0  0  0  0
  185.7970  178.2930  144.2730 C   0  0  0  0  0  0  0  0  0  0  0  0
  185.1600  178.2640  145.5490 N   0  0  0  0  0  2  0  0  0  0  0  0
  184.0520  179.0030  145.8010 O   0  0  0  0  0  1  0  0  0  0  0  0
  189.9720  176.1090  141.5380 C   0  0  0  0  0  3  0  0  0  0  0  0
  190.7210  176.4680  143.8130 C   0  0  0  0  0  3  0  0  0  0  0  0
  190.2950  177.4320  141.2160 C   0  0  0  0  0  0  0  0  0  0  0  0
  190.1810  175.6280  142.8340 C   0  0  0  0  0  3  0  0  0  0  0  0
  191.0580  177.7870  143.4950 C   0  0  0  0  0  0  0  0  0  0  0  0
  190.8400  178.2700  142.2020 C   0  0  0  0  0  3  0  0  0  0  0  0
  191.3040  179.9980  144.2420 F   0  0  0  0  0  0  0  0  0  0  0  0
  191.6170  178.6850  144.5390 C   0  0  0  0  0  2  0  0  0  0  0  0
  1  5  1  6  0  0  0
  1  8  1  0  0  0  0
  1  6  1  0  0  0  0
  2  1  1  0  0  0  0
  4 20  1  1  0  0  0
  6 10  1  0  0  0  0
  7  3  1  1  0  0  0
  7  4  1  0  0  0  0
  8  4  1  0  0  0  0
  8  6  1  1  0  0  0
  9  7  1  0  0  0  0
  9  2  1  0  0  0  0
 10 12  2  0  0  0  0
 10 13  1  0  0  0  0
 11 15  2  0  0  0  0
 12 11  1  0  0  0  0
 13 14  2  0  0  0  0
 14 15  1  0  0  0  0
 15 16  1  0  0  0  0
 16 17  1  0  0  0  0
 18 21  1  0  0  0  0
 20 18  2  0  0  0  0
 20 23  1  0  0  0  0
 21 19  2  0  0  0  0
 22 19  1  0  0  0  0
 22 25  1  0  0  0  0
 23 22  2  0  0  0  0
 24 25  1  0  0  0  0
M  END
>  <MODEL>
6

>  <REMARK>
 VINA RESULT:      -6.7      2.777      5.577
  Name = 
  4 active torsions:
  status: ('A' for Active; 'I' for Inactive)
    1  A    between atoms: C_2  and  N_18
    2  A    between atoms: N_3  and  C_21
    3  A    between atoms: C_8  and  C_10
    4  A    between atoms: C_16  and  C_24
                            x       y       z     vdW  Elec       q    Type
                         _______ _______ _______ _____ _____    ______ ____

>  <TORSDO>
F 4

$$$$
=
 OpenBabel11032419183D

 25 28  0  0  1  0  0  0  0  0999 V2000
  186.2450  177.9710  146.9260 C   0  0  1  0  0  0  0  0  0  0  0  0
  187.0100  179.0710  147.3710 O   0  0  0  0  0  0  0  0  0  0  0  0
  190.1440  178.0860  148.0300 N   0  0  0  0  0  1  0  0  0  0  0  0
  188.4020  176.8730  146.7010 C   0  0  1  0  0  3  0  0  0  0  0  0
  184.9170  177.9040  147.3450 O   0  0  0  0  0  1  0  0  0  0  0  0
  186.3730  177.7730  145.4580 N   0  0  0  0  0  0  0  0  0  0  0  0
  188.7910  177.5520  148.0390 C   0  0  2  0  0  3  0  0  0  0  0  0
  186.8670  176.8020  146.5020 C   0  0  2  0  0  3  0  0  0  0  0  0
  187.7810  178.6280  148.4620 C   0  0  0  0  0  2  0  0  0  0  0  0
  186.1950  178.1930  144.1090 C   0  0  0  0  0  0  0  0  0  0  0  0
  186.9200  178.1910  141.8000 C   0  0  0  0  0  3  0  0  0  0  0  0
  187.1110  177.8000  143.1290 C   0  0  0  0  0  3  0  0  0  0  0  0
  185.0890  178.9750  143.7610 C   0  0  0  0  0  3  0  0  0  0  0  0
  184.8990  179.3640  142.4320 C   0  0  0  0  0  3  0  0  0  0  0  0
  185.8120  178.9740  141.4480 C   0  0  0  0  0  0  0  0  0  0  0  0
  185.6040  179.3780  140.0960 N   0  0  0  0  0  2  0  0  0  0  0  0
  186.0550  178.6320  139.0590 O   0  0  0  0  0  1  0  0  0  0  0  0
  189.6910  178.6150  145.4400 C   0  0  0  0  0  3  0  0  0  0  0  0
  190.7020  178.1570  143.2880 C   0  0  0  0  0  3  0  0  0  0  0  0
  189.1750  177.3150  145.4820 C   0  0  0  0  0  0  0  0  0  0  0  0
  190.4490  179.0370  144.3440 C   0  0  0  0  0  3  0  0  0  0  0  0
  190.2000  176.8520  143.3290 C   0  0  0  0  0  0  0  0  0  0  0  0
  189.4340  176.4340  144.4200 C   0  0  0  0  0  3  0  0  0  0  0  0
  190.1960  176.5600  141.0010 F   0  0  0  0  0  0  0  0  0  0  0  0
  190.4550  175.9210  142.1980 C   0  0  0  0  0  2  0  0  0  0  0  0
  1  5  1  1  0  0  0
  1  2  1  0  0  0  0
  2  9  1  0  0  0  0
  4 20  1  6  0  0  0
  4  7  1  0  0  0  0
  6  1  1  0  0  0  0
  7  3  1  6  0  0  0
  7  9  1  0  0  0  0
  8  6  1  6  0  0  0
  8  4  1  0  0  0  0
  8  1  1  0  0  0  0
 10  6  1  0  0  0  0
 11 12  1  0  0  0  0
 12 10  2  0  0  0  0
 13 10  1  0  0  0  0
 14 13  2  0  0  0  0
 15 11  2  0  0  0  0
 15 14  1  0  0  0  0
 16 15  1  0  0  0  0
 17 16  1  0  0  0  0
 18 20  1  0  0  0  0
 19 22  2  0  0  0  0
 19 21  1  0  0  0  0
 21 18  2  0  0  0  0
 22 23  1  0  0  0  0
 23 20  2  0  0  0  0
 24 25  1  0  0  0  0
 25 22  1  0  0  0  0
M  END
>  <MODEL>
7

>  <REMARK>
 VINA RESULT:      -6.6      1.501      2.078
  Name = 
  4 active torsions:
  status: ('A' for Active; 'I' for Inactive)
    1  A    between atoms: C_2  and  N_18
    2  A    between atoms: N_3  and  C_21
    3  A    between atoms: C_8  and  C_10
    4  A    between atoms: C_16  and  C_24
                            x       y       z     vdW  Elec       q    Type
                         _______ _______ _______ _____ _____    ______ ____

>  <TORSDO>
F 4

$$$$
=
 OpenBabel11032419183D

 25 28  0  0  1  0  0  0  0  0999 V2000
  185.1710  178.9430  143.8280 C   0  0  1  0  0  0  0  0  0  0  0  0
  185.9490  179.7920  144.6450 O   0  0  0  0  0  0  0  0  0  0  0  0
  187.4420  178.0010  147.0520 N   0  0  0  0  0  1  0  0  0  0  0  0
  186.3910  177.1590  144.9410 C   0  0  1  0  0  3  0  0  0  0  0  0
  183.9530  179.4400  143.3660 O   0  0  0  0  0  1  0  0  0  0  0  0
  185.9790  178.3490  142.7310 N   0  0  0  0  0  0  0  0  0  0  0  0
  186.2310  177.9800  146.2460 C   0  0  2  0  0  3  0  0  0  0  0  0
  185.3580  177.5660  143.8600 C   0  0  2  0  0  3  0  0  0  0  0  0
  185.7260  179.4050  145.9800 C   0  0  0  0  0  2  0  0  0  0  0  0
  186.7630  178.4500  141.5460 C   0  0  0  0  0  0  0  0  0  0  0  0
  188.9010  178.8160  140.4720 C   0  0  0  0  0  3  0  0  0  0  0  0
  188.1270  178.7450  141.6340 C   0  0  0  0  0  3  0  0  0  0  0  0
  186.1750  178.2240  140.2980 C   0  0  0  0  0  3  0  0  0  0  0  0
  186.9500  178.2940  139.1360 C   0  0  0  0  0  3  0  0  0  0  0  0
  188.3150  178.5900  139.2200 C   0  0  0  0  0  0  0  0  0  0  0  0
  189.0930  178.6570  138.0260 N   0  0  0  0  0  2  0  0  0  0  0  0
  189.0510  179.7420  137.2160 O   0  0  0  0  0  1  0  0  0  0  0  0
  188.0710  175.9710  143.5100 C   0  0  0  0  0  3  0  0  0  0  0  0
  190.3800  176.6880  143.3770 C   0  0  0  0  0  3  0  0  0  0  0  0
  187.8010  176.9880  144.4310 C   0  0  0  0  0  0  0  0  0  0  0  0
  189.3580  175.8170  142.9860 C   0  0  0  0  0  3  0  0  0  0  0  0
  190.1140  177.7150  144.2880 C   0  0  0  0  0  0  0  0  0  0  0  0
  188.8310  177.8610  144.8180 C   0  0  0  0  0  3  0  0  0  0  0  0
  191.5960  179.4190  143.6500 F   0  0  0  0  0  0  0  0  0  0  0  0
  191.2050  178.6310  144.7160 C   0  0  0  0  0  2  0  0  0  0  0  0
  1  5  1  6  0  0  0
  1  8  1  0  0  0  0
  1  2  1  0  0  0  0
  2  9  1  0  0  0  0
  4 20  1  6  0  0  0
  4  7  1  0  0  0  0
  6  1  1  0  0  0  0
  7  3  1  6  0  0  0
  8  6  1  6  0  0  0
  8  4  1  0  0  0  0
  9  7  1  0  0  0  0
 10 12  1  0  0  0  0
 10  6  1  0  0  0  0
 11 12  2  0  0  0  0
 13 10  2  0  0  0  0
 14 15  2  0  0  0  0
 14 13  1  0  0  0  0
 15 11  1  0  0  0  0
 16 15  1  0  0  0  0
 17 16  1  0  0  0  0
 18 20  1  0  0  0  0
 19 22  2  0  0  0  0
 20 23  2  0  0  0  0
 21 19  1  0  0  0  0
 21 18  2  0  0  0  0
 22 25  1  0  0  0  0
 22 23  1  0  0  0  0
 24 25  1  0  0  0  0
M  END
>  <MODEL>
8

>  <REMARK>
 VINA RESULT:      -6.4      2.086      2.609
  Name = 
  4 active torsions:
  status: ('A' for Active; 'I' for Inactive)
    1  A    between atoms: C_2  and  N_18
    2  A    between atoms: N_3  and  C_21
    3  A    between atoms: C_8  and  C_10
    4  A    between atoms: C_16  and  C_24
                            x       y       z     vdW  Elec       q    Type
                         _______ _______ _______ _____ _____    ______ ____

>  <TORSDO>
F 4

$$$$
=
 OpenBabel11032419183D

 25 28  0  0  1  0  0  0  0  0999 V2000
  188.6100  178.3500  140.6140 C   0  0  1  0  0  0  0  0  0  0  0  0
  188.7490  176.9450  140.6390 O   0  0  0  0  0  0  0  0  0  0  0  0
  190.7700  176.0450  143.1560 N   0  0  0  0  0  1  0  0  0  0  0  0
  189.6200  178.2450  142.8230 C   0  0  1  0  0  3  0  0  0  0  0  0
  188.5500  178.9640  139.3640 O   0  0  0  0  0  1  0  0  0  0  0  0
  187.5150  178.8080  141.5100 N   0  0  0  0  0  0  0  0  0  0  0  0
  190.5660  177.1610  142.2450 C   0  0  2  0  0  3  0  0  0  0  0  0
  188.9780  179.1160  141.7140 C   0  0  2  0  0  3  0  0  0  0  0  0
  190.1090  176.6650  140.8660 C   0  0  0  0  0  2  0  0  0  0  0  0
  186.1450  178.8740  141.8940 C   0  0  0  0  0  0  0  0  0  0  0  0
  183.8280  178.2940  141.5030 C   0  0  0  0  0  3  0  0  0  0  0  0
  185.1690  178.2530  141.1100 C   0  0  0  0  0  3  0  0  0  0  0  0
  185.7810  179.5350  143.0710 C   0  0  0  0  0  3  0  0  0  0  0  0
  184.4400  179.5760  143.4640 C   0  0  0  0  0  3  0  0  0  0  0  0
  183.4600  178.9560  142.6830 C   0  0  0  0  0  0  0  0  0  0  0  0
  182.0960  179.0050  143.0970 N   0  0  0  0  0  2  0  0  0  0  0  0
  181.7240  178.6270  144.3440 O   0  0  0  0  0  1  0  0  0  0  0  0
  187.6760  176.8530  143.5750 C   0  0  0  0  0  3  0  0  0  0  0  0
  186.9260  176.8320  145.8770 C   0  0  0  0  0  3  0  0  0  0  0  0
  188.6640  177.7890  143.8980 C   0  0  0  0  0  0  0  0  0  0  0  0
  186.8050  176.3780  144.5600 C   0  0  0  0  0  3  0  0  0  0  0  0
  187.9190  177.7580  146.2100 C   0  0  0  0  0  0  0  0  0  0  0  0
  188.7820  178.2390  145.2230 C   0  0  0  0  0  3  0  0  0  0  0  0
  188.3420  177.2020  148.4500 F   0  0  0  0  0  0  0  0  0  0  0  0
  188.0370  178.2530  147.6070 C   0  0  0  0  0  2  0  0  0  0  0  0
  1  5  1  6  0  0  0
  1  2  1  0  0  0  0
  1  6  1  0  0  0  0
  1  8  1  0  0  0  0
  2  9  1  0  0  0  0
  4 20  1  6  0  0  0
  6 10  1  0  0  0  0
  7  4  1  0  0  0  0
  7  3  1  1  0  0  0
  8  6  1  1  0  0  0
  8  4  1  0  0  0  0
  9  7  1  0  0  0  0
 10 13  1  0  0  0  0
 11 15  2  0  0  0  0
 12 11  1  0  0  0  0
 12 10  2  0  0  0  0
 13 14  2  0  0  0  0
 15 16  1  0  0  0  0
 15 14  1  0  0  0  0
 16 17  1  0  0  0  0
 18 20  2  0  0  0  0
 18 21  1  0  0  0  0
 19 22  1  0  0  0  0
 20 23  1  0  0  0  0
 21 19  2  0  0  0  0
 22 25  1  0  0  0  0
 23 22  2  0  0  0  0
 25 24  1  0  0  0  0
M  END
>  <MODEL>
9

>  <REMARK>
 VINA RESULT:      -6.4      2.661      4.613
  Name = 
  4 active torsions:
  status: ('A' for Active; 'I' for Inactive)
    1  A    between atoms: C_2  and  N_18
    2  A    between atoms: N_3  and  C_21
    3  A    between atoms: C_8  and  C_10
    4  A    between atoms: C_16  and  C_24
                            x       y       z     vdW  Elec       q    Type
                         _______ _______ _______ _____ _____    ______ ____

>  <TORSDO>
F 4

$$$$
