=
 OpenBabel11042411113D

 33 37  0  0  1  0  0  0  0  0999 V2000
  185.3710  178.0740  143.2380 C   0  0  0  0  0  0  0  0  0  0  0  0
  187.4350  178.2540  147.6600 N   0  0  0  0  0  0  0  0  0  0  0  0
  187.7620  177.1210  143.5350 C   0  0  2  0  0  0  0  0  0  0  0  0
  186.6470  177.6100  142.8760 N   0  0  0  0  0  0  0  0  0  0  0  0
  188.0890  177.9960  142.5210 C   0  0  0  0  0  0  0  0  0  0  0  0
  183.9910  178.8030  145.0760 C   0  0  0  0  0  3  0  0  0  0  0  0
  187.9490  175.7640  143.2710 O   0  0  0  0  0  1  0  0  0  0  0  0
  184.3350  178.2880  142.3320 C   0  0  0  0  0  3  0  0  0  0  0  0
  188.7230  177.3860  145.8440 C   0  0  0  0  0  3  0  0  0  0  0  0
  187.6360  177.5540  144.9860 C   0  0  0  0  0  0  0  0  0  0  0  0
  188.6030  177.7460  147.1870 C   0  0  0  0  0  3  0  0  0  0  0  0
  182.9370  179.0190  144.1780 C   0  0  0  0  0  3  0  0  0  0  0  0
  185.2220  178.3260  144.6050 C   0  0  0  0  0  0  0  0  0  0  0  0
  188.9200  178.6790  141.8690 O   0  0  0  0  0  0  0  0  0  0  0  0
  183.1050  178.7700  142.8080 C   0  0  0  0  0  0  0  0  0  0  0  0
  186.3520  178.4330  146.8570 C   0  0  0  0  0  3  0  0  0  0  0  0
  186.4090  178.0930  145.5000 C   0  0  0  0  0  0  0  0  0  0  0  0
  181.9590  179.0140  141.8710 C   0  0  1  0  0  3  0  0  0  0  0  0
  182.2090  179.1590  139.3090 C   0  0  0  0  0  0  0  0  0  0  0  0
  182.2470  178.4470  140.5590 N   0  0  0  0  0  2  0  0  0  0  0  0
  181.4270  180.1790  139.1040 N   0  0  0  0  0  0  0  0  0  0  0  0
  183.0300  178.7110  138.2310 N   0  0  0  0  0  2  0  0  0  0  0  0
  179.6460  181.7940  139.3820 C   0  0  0  0  0  2  0  0  0  0  0  0
  180.4770  180.7250  140.0620 C   0  0  0  0  0  3  0  0  0  0  0  0
  179.0690  180.4130  139.5960 C   0  0  0  0  0  2  0  0  0  0  0  0
  183.9330  177.5810  138.3690 C   0  0  0  0  0  2  0  0  0  0  0  0
  185.8480  178.7590  139.0520 O   0  0  0  0  0  0  0  0  0  0  0  0
  185.3410  178.0410  138.2050 C   0  0  0  0  0  0  0  0  0  0  0  0
  186.1280  177.6150  137.0100 C   0  0  0  0  0  2  0  0  0  0  0  0
  187.2510  178.5970  136.7410 C   0  0  0  0  0  1  0  0  0  0  0  0
  180.6730  178.4090  142.4120 C   0  0  0  0  0  2  0  0  0  0  0  0
  179.2280  178.8700  144.3670 C   0  0  0  0  0  1  0  0  0  0  0  0
  179.8440  179.4640  143.1190 C   0  0  0  0  0  2  0  0  0  0  0  0
  1 13  1  0  0  0  0
  3  7  1  6  0  0  0
  3 10  1  0  0  0  0
  4  1  1  0  0  0  0
  4  3  1  0  0  0  0
  5  4  1  0  0  0  0
  5  3  1  0  0  0  0
  8 15  1  0  0  0  0
  8  1  2  0  0  0  0
  9 11  2  0  0  0  0
 10 17  2  0  0  0  0
 10  9  1  0  0  0  0
 11  2  1  0  0  0  0
 12  6  1  0  0  0  0
 13  6  2  0  0  0  0
 13 17  1  0  0  0  0
 14  5  2  0  0  0  0
 15 12  2  0  0  0  0
 16  2  2  0  0  0  0
 17 16  1  0  0  0  0
 18 31  1  1  0  0  0
 18 15  1  0  0  0  0
 19 20  1  0  0  0  0
 20 18  1  0  0  0  0
 21 19  2  0  0  0  0
 21 24  1  0  0  0  0
 22 26  1  0  0  0  0
 22 19  1  0  0  0  0
 23 25  1  0  0  0  0
 23 24  1  0  0  0  0
 25 24  1  0  0  0  0
 28 26  1  0  0  0  0
 28 27  2  0  0  0  0
 29 28  1  0  0  0  0
 30 29  1  0  0  0  0
 31 33  1  0  0  0  0
 33 32  1  0  0  0  0
M  END
>  <MODEL>
1

>  <REMARK>
 VINA RESULT:      -8.8      0.000      0.000
  Name = 
  8 active torsions:
  status: ('A' for Active; 'I' for Inactive)
    1  A    between atoms: C_2  and  C_10
    2  A    between atoms: C_2  and  C_30
    3  A    between atoms: N_5  and  C_30
    4  A    between atoms: N_8  and  C_20
    5  A    between atoms: N_13  and  C_14
    6  A    between atoms: C_14  and  C_19
    7  A    between atoms: C_19  and  C_27
    8  A    between atoms: C_29  and  C_30
                            x       y       z     vdW  Elec       q    Type
                         _______ _______ _______ _____ _____    ______ ____

>  <TORSDO>
F 8

$$$$
=
 OpenBabel11042411113D

 33 37  0  0  1  0  0  0  0  0999 V2000
  187.0120  177.9430  143.4800 C   0  0  0  0  0  0  0  0  0  0  0  0
  187.6970  178.0160  148.3140 N   0  0  0  0  0  0  0  0  0  0  0  0
  189.3360  177.2860  144.4180 C   0  0  2  0  0  0  0  0  0  0  0  0
  188.3930  177.6800  143.4850 N   0  0  0  0  0  0  0  0  0  0  0  0
  189.8020  178.2780  143.5810 C   0  0  0  0  0  0  0  0  0  0  0  0
  185.0780  178.3300  144.8680 C   0  0  0  0  0  3  0  0  0  0  0  0
  189.7890  175.9910  144.1610 O   0  0  0  0  0  1  0  0  0  0  0  0
  186.2530  178.0970  142.3220 C   0  0  0  0  0  3  0  0  0  0  0  0
  189.5580  177.4770  146.9150 C   0  0  0  0  0  3  0  0  0  0  0  0
  188.7440  177.5750  145.7860 C   0  0  0  0  0  0  0  0  0  0  0  0
  189.0120  177.7050  148.1790 C   0  0  0  0  0  3  0  0  0  0  0  0
  184.2990  178.4830  143.7120 C   0  0  0  0  0  3  0  0  0  0  0  0
  186.4480  178.0580  144.7550 C   0  0  0  0  0  0  0  0  0  0  0  0
  190.6720  179.1160  143.2290 O   0  0  0  0  0  0  0  0  0  0  0  0
  184.8810  178.3730  142.4400 C   0  0  0  0  0  0  0  0  0  0  0  0
  186.8700  178.1200  147.2400 C   0  0  0  0  0  3  0  0  0  0  0  0
  187.3560  177.9060  145.9450 C   0  0  0  0  0  0  0  0  0  0  0  0
  184.0220  178.5460  141.2230 C   0  0  1  0  0  3  0  0  0  0  0  0
  184.9890  179.0780  138.8920 C   0  0  0  0  0  0  0  0  0  0  0  0
  184.7750  178.2100  140.0200 N   0  0  0  0  0  2  0  0  0  0  0  0
  184.1440  180.0060  138.5490 N   0  0  0  0  0  0  0  0  0  0  0  0
  186.1550  178.8950  138.0890 N   0  0  0  0  0  2  0  0  0  0  0  0
  182.1570  181.3830  138.4530 C   0  0  0  0  0  2  0  0  0  0  0  0
  182.8770  180.2840  139.2080 C   0  0  0  0  0  3  0  0  0  0  0  0
  181.7430  179.9420  138.2640 C   0  0  0  0  0  2  0  0  0  0  0  0
  187.1520  177.8840  138.3970 C   0  0  0  0  0  2  0  0  0  0  0  0
  188.9560  179.2870  137.8470 O   0  0  0  0  0  0  0  0  0  0  0  0
  188.4610  178.5390  138.6750 C   0  0  0  0  0  0  0  0  0  0  0  0
  189.1590  178.2840  139.9700 C   0  0  0  0  0  2  0  0  0  0  0  0
  189.8980  176.9610  139.9200 C   0  0  0  0  0  1  0  0  0  0  0  0
  182.7800  177.6710  141.3030 C   0  0  0  0  0  2  0  0  0  0  0  0
  181.2810  176.4930  139.7260 C   0  0  0  0  0  1  0  0  0  0  0  0
  182.7240  176.7180  140.1250 C   0  0  0  0  0  2  0  0  0  0  0  0
  1  4  1  0  0  0  0
  1 13  1  0  0  0  0
  3  7  1  6  0  0  0
  3 10  1  0  0  0  0
  4  5  1  0  0  0  0
  4  3  1  0  0  0  0
  5  3  1  0  0  0  0
  8 15  1  0  0  0  0
  8  1  2  0  0  0  0
  9 11  2  0  0  0  0
 10 17  2  0  0  0  0
 10  9  1  0  0  0  0
 11  2  1  0  0  0  0
 12  6  1  0  0  0  0
 13  6  2  0  0  0  0
 13 17  1  0  0  0  0
 14  5  2  0  0  0  0
 15 12  2  0  0  0  0
 16  2  2  0  0  0  0
 17 16  1  0  0  0  0
 18 31  1  1  0  0  0
 18 15  1  0  0  0  0
 19 20  1  0  0  0  0
 20 18  1  0  0  0  0
 21 19  2  0  0  0  0
 21 24  1  0  0  0  0
 22 26  1  0  0  0  0
 22 19  1  0  0  0  0
 23 24  1  0  0  0  0
 25 23  1  0  0  0  0
 25 24  1  0  0  0  0
 26 28  1  0  0  0  0
 27 28  2  0  0  0  0
 28 29  1  0  0  0  0
 30 29  1  0  0  0  0
 32 33  1  0  0  0  0
 33 31  1  0  0  0  0
M  END
>  <MODEL>
2

>  <REMARK>
 VINA RESULT:      -8.6      2.054      2.671
  Name = 
  8 active torsions:
  status: ('A' for Active; 'I' for Inactive)
    1  A    between atoms: C_2  and  C_10
    2  A    between atoms: C_2  and  C_30
    3  A    between atoms: N_5  and  C_30
    4  A    between atoms: N_8  and  C_20
    5  A    between atoms: N_13  and  C_14
    6  A    between atoms: C_14  and  C_19
    7  A    between atoms: C_19  and  C_27
    8  A    between atoms: C_29  and  C_30
                            x       y       z     vdW  Elec       q    Type
                         _______ _______ _______ _____ _____    ______ ____

>  <TORSDO>
F 8

$$$$
=
 OpenBabel11042411113D

 33 37  0  0  1  0  0  0  0  0999 V2000
  185.3940  178.1770  143.1840 C   0  0  0  0  0  0  0  0  0  0  0  0
  187.4530  178.0940  147.6110 N   0  0  0  0  0  0  0  0  0  0  0  0
  187.7420  177.1110  143.4460 C   0  0  2  0  0  0  0  0  0  0  0  0
  186.6500  177.6730  142.8050 N   0  0  0  0  0  0  0  0  0  0  0  0
  188.1070  178.0110  142.4670 C   0  0  0  0  0  0  0  0  0  0  0  0
  184.0420  178.8910  145.0490 C   0  0  0  0  0  3  0  0  0  0  0  0
  187.8710  175.7590  143.1280 O   0  0  0  0  0  1  0  0  0  0  0  0
  184.3710  178.4700  142.2860 C   0  0  0  0  0  3  0  0  0  0  0  0
  188.7070  177.2440  145.7630 C   0  0  0  0  0  3  0  0  0  0  0  0
  187.6300  177.4920  144.9120 C   0  0  0  0  0  0  0  0  0  0  0  0
  188.5990  177.5560  147.1190 C   0  0  0  0  0  3  0  0  0  0  0  0
  183.0000  179.1870  144.1590 C   0  0  0  0  0  3  0  0  0  0  0  0
  185.2530  178.3810  144.5600 C   0  0  0  0  0  0  0  0  0  0  0  0
  188.9690  178.6830  141.8430 O   0  0  0  0  0  0  0  0  0  0  0  0
  183.1610  178.9850  142.7800 C   0  0  0  0  0  0  0  0  0  0  0  0
  186.3810  178.3510  146.8150 C   0  0  0  0  0  3  0  0  0  0  0  0
  186.4260  178.0630  145.4460 C   0  0  0  0  0  0  0  0  0  0  0  0
  182.0280  179.3150  141.8530 C   0  0  1  0  0  3  0  0  0  0  0  0
  182.1370  178.3630  139.4590 C   0  0  0  0  0  0  0  0  0  0  0  0
  181.8560  178.2550  140.8660 N   0  0  0  0  0  2  0  0  0  0  0  0
  182.0510  179.4870  138.8090 N   0  0  0  0  0  0  0  0  0  0  0  0
  182.4870  177.1870  138.7300 N   0  0  0  0  0  2  0  0  0  0  0  0
  181.5250  181.7850  138.2600 C   0  0  0  0  0  2  0  0  0  0  0  0
  181.6410  180.7640  139.3740 C   0  0  0  0  0  3  0  0  0  0  0  0
  180.2800  181.1360  138.8220 C   0  0  0  0  0  2  0  0  0  0  0  0
  182.6060  175.8890  139.3740 C   0  0  0  0  0  2  0  0  0  0  0  0
  181.2170  174.4660  138.1200 O   0  0  0  0  0  0  0  0  0  0  0  0
  181.3600  175.1020  139.1530 C   0  0  0  0  0  0  0  0  0  0  0  0
  180.2960  175.0890  140.1990 C   0  0  0  0  0  2  0  0  0  0  0  0
  179.0390  175.7610  139.6810 C   0  0  0  0  0  1  0  0  0  0  0  0
  180.7300  179.5060  142.6230 C   0  0  0  0  0  2  0  0  0  0  0  0
  179.7760  177.8020  144.1420 C   0  0  0  0  0  1  0  0  0  0  0  0
  179.9580  178.2030  142.6940 C   0  0  0  0  0  2  0  0  0  0  0  0
  1 13  1  0  0  0  0
  3  7  1  6  0  0  0
  3 10  1  0  0  0  0
  4  1  1  0  0  0  0
  4  3  1  0  0  0  0
  5  4  1  0  0  0  0
  5  3  1  0  0  0  0
  8 15  1  0  0  0  0
  8  1  2  0  0  0  0
  9 11  2  0  0  0  0
 10 17  2  0  0  0  0
 10  9  1  0  0  0  0
 11  2  1  0  0  0  0
 12  6  1  0  0  0  0
 13  6  2  0  0  0  0
 13 17  1  0  0  0  0
 14  5  2  0  0  0  0
 15 12  2  0  0  0  0
 16  2  2  0  0  0  0
 17 16  1  0  0  0  0
 18 31  1  1  0  0  0
 18 15  1  0  0  0  0
 19 20  1  0  0  0  0
 20 18  1  0  0  0  0
 21 24  1  0  0  0  0
 21 19  2  0  0  0  0
 22 26  1  0  0  0  0
 22 19  1  0  0  0  0
 23 25  1  0  0  0  0
 23 24  1  0  0  0  0
 25 24  1  0  0  0  0
 27 28  2  0  0  0  0
 28 26  1  0  0  0  0
 28 29  1  0  0  0  0
 30 29  1  0  0  0  0
 31 33  1  0  0  0  0
 33 32  1  0  0  0  0
M  END
>  <MODEL>
3

>  <REMARK>
 VINA RESULT:      -8.3      1.818      2.613
  Name = 
  8 active torsions:
  status: ('A' for Active; 'I' for Inactive)
    1  A    between atoms: C_2  and  C_10
    2  A    between atoms: C_2  and  C_30
    3  A    between atoms: N_5  and  C_30
    4  A    between atoms: N_8  and  C_20
    5  A    between atoms: N_13  and  C_14
    6  A    between atoms: C_14  and  C_19
    7  A    between atoms: C_19  and  C_27
    8  A    between atoms: C_29  and  C_30
                            x       y       z     vdW  Elec       q    Type
                         _______ _______ _______ _____ _____    ______ ____

>  <TORSDO>
F 8

$$$$
=
 OpenBabel11042411113D

 33 37  0  0  1  0  0  0  0  0999 V2000
  185.4360  178.0260  142.9350 C   0  0  0  0  0  0  0  0  0  0  0  0
  186.9470  178.3240  147.5690 N   0  0  0  0  0  0  0  0  0  0  0  0
  187.7780  177.0980  143.5430 C   0  0  2  0  0  0  0  0  0  0  0  0
  186.7490  177.5630  142.7420 N   0  0  0  0  0  0  0  0  0  0  0  0
  188.2210  177.9520  142.5550 C   0  0  0  0  0  0  0  0  0  0  0  0
  183.8400  178.7870  144.5750 C   0  0  0  0  0  3  0  0  0  0  0  0
  188.0010  175.7370  143.3360 O   0  0  0  0  0  1  0  0  0  0  0  0
  184.5170  178.2110  141.9060 C   0  0  0  0  0  3  0  0  0  0  0  0
  188.4500  177.4240  145.9440 C   0  0  0  0  0  3  0  0  0  0  0  0
  187.4740  177.5640  144.9560 C   0  0  0  0  0  0  0  0  0  0  0  0
  188.1660  177.8140  147.2530 C   0  0  0  0  0  3  0  0  0  0  0  0
  182.9010  178.9740  143.5510 C   0  0  0  0  0  3  0  0  0  0  0  0
  185.1210  178.3090  144.2680 C   0  0  0  0  0  0  0  0  0  0  0  0
  189.1220  178.6260  141.9920 O   0  0  0  0  0  0  0  0  0  0  0  0
  183.2350  178.6940  142.2170 C   0  0  0  0  0  0  0  0  0  0  0  0
  185.9690  178.4770  146.6370 C   0  0  0  0  0  3  0  0  0  0  0  0
  186.1920  178.1060  145.3050 C   0  0  0  0  0  0  0  0  0  0  0  0
  182.2100  178.9090  141.1430 C   0  0  1  0  0  3  0  0  0  0  0  0
  182.8870  178.9250  138.6550 C   0  0  0  0  0  0  0  0  0  0  0  0
  182.6300  178.2610  139.9060 N   0  0  0  0  0  2  0  0  0  0  0  0
  182.2880  180.0270  138.3080 N   0  0  0  0  0  0  0  0  0  0  0  0
  183.8060  178.3370  137.7340 N   0  0  0  0  0  2  0  0  0  0  0  0
  180.6630  181.8190  138.2380 C   0  0  0  0  0  2  0  0  0  0  0  0
  181.2750  180.7230  139.0870 C   0  0  0  0  0  3  0  0  0  0  0  0
  179.9220  180.5160  138.4380 C   0  0  0  0  0  2  0  0  0  0  0  0
  184.5210  177.1080  138.0380 C   0  0  0  0  0  2  0  0  0  0  0  0
  183.8200  176.1350  136.0170 O   0  0  0  0  0  0  0  0  0  0  0  0
  183.9690  175.9920  137.2200 C   0  0  0  0  0  0  0  0  0  0  0  0
  183.6080  174.6990  137.8740 C   0  0  0  0  0  2  0  0  0  0  0  0
  184.6700  173.6530  137.5960 C   0  0  0  0  0  1  0  0  0  0  0  0
  180.8550  178.3620  141.5650 C   0  0  0  0  0  2  0  0  0  0  0  0
  178.9490  176.9790  140.8070 C   0  0  0  0  0  1  0  0  0  0  0  0
  180.4360  177.2220  140.6590 C   0  0  0  0  0  2  0  0  0  0  0  0
  1 13  1  0  0  0  0
  3  7  1  6  0  0  0
  3 10  1  0  0  0  0
  4  1  1  0  0  0  0
  4  3  1  0  0  0  0
  5  4  1  0  0  0  0
  5  3  1  0  0  0  0
  8 15  1  0  0  0  0
  8  1  2  0  0  0  0
  9 11  2  0  0  0  0
 10 17  2  0  0  0  0
 10  9  1  0  0  0  0
 11  2  1  0  0  0  0
 12  6  1  0  0  0  0
 13  6  2  0  0  0  0
 13 17  1  0  0  0  0
 14  5  2  0  0  0  0
 15 12  2  0  0  0  0
 16  2  2  0  0  0  0
 17 16  1  0  0  0  0
 18 31  1  1  0  0  0
 18 15  1  0  0  0  0
 19 20  1  0  0  0  0
 20 18  1  0  0  0  0
 21 19  2  0  0  0  0
 21 24  1  0  0  0  0
 22 26  1  0  0  0  0
 22 19  1  0  0  0  0
 23 25  1  0  0  0  0
 23 24  1  0  0  0  0
 25 24  1  0  0  0  0
 27 28  2  0  0  0  0
 28 29  1  0  0  0  0
 28 26  1  0  0  0  0
 30 29  1  0  0  0  0
 33 32  1  0  0  0  0
 33 31  1  0  0  0  0
M  END
>  <MODEL>
4

>  <REMARK>
 VINA RESULT:      -8.0      1.516      1.882
  Name = 
  8 active torsions:
  status: ('A' for Active; 'I' for Inactive)
    1  A    between atoms: C_2  and  C_10
    2  A    between atoms: C_2  and  C_30
    3  A    between atoms: N_5  and  C_30
    4  A    between atoms: N_8  and  C_20
    5  A    between atoms: N_13  and  C_14
    6  A    between atoms: C_14  and  C_19
    7  A    between atoms: C_19  and  C_27
    8  A    between atoms: C_29  and  C_30
                            x       y       z     vdW  Elec       q    Type
                         _______ _______ _______ _____ _____    ______ ____

>  <TORSDO>
F 8

$$$$
=
 OpenBabel11042411113D

 33 37  0  0  1  0  0  0  0  0999 V2000
  189.2770  177.6990  142.7720 C   0  0  0  0  0  0  0  0  0  0  0  0
  187.2950  177.7500  147.2350 N   0  0  0  0  0  0  0  0  0  0  0  0
  190.8110  177.2890  144.8210 C   0  0  2  0  0  0  0  0  0  0  0  0
  190.4660  177.5930  143.5140 N   0  0  0  0  0  0  0  0  0  0  0  0
  191.5390  178.3440  144.3130 C   0  0  0  0  0  0  0  0  0  0  0  0
  186.8740  177.8370  142.9160 C   0  0  0  0  0  3  0  0  0  0  0  0
  191.4650  176.0590  144.8950 O   0  0  0  0  0  1  0  0  0  0  0  0
  189.2330  177.7890  141.3830 C   0  0  0  0  0  3  0  0  0  0  0  0
  189.6590  177.4540  147.0500 C   0  0  0  0  0  3  0  0  0  0  0  0
  189.5590  177.4820  145.6580 C   0  0  0  0  0  0  0  0  0  0  0  0
  188.5080  177.5930  147.8260 C   0  0  0  0  0  3  0  0  0  0  0  0
  186.8120  177.9250  141.5180 C   0  0  0  0  0  3  0  0  0  0  0  0
  188.1170  177.7230  143.5530 C   0  0  0  0  0  0  0  0  0  0  0  0
  192.3690  179.2810  144.4370 O   0  0  0  0  0  0  0  0  0  0  0  0
  187.9850  177.9070  140.7500 C   0  0  0  0  0  0  0  0  0  0  0  0
  187.1540  177.7830  145.8830 C   0  0  0  0  0  3  0  0  0  0  0  0
  188.2710  177.6510  145.0480 C   0  0  0  0  0  0  0  0  0  0  0  0
  187.8850  178.0060  139.2560 C   0  0  1  0  0  3  0  0  0  0  0  0
  185.5370  177.9450  138.1920 C   0  0  0  0  0  0  0  0  0  0  0  0
  186.6160  178.6130  138.8720 N   0  0  0  0  0  2  0  0  0  0  0  0
  185.7290  176.9480  137.3790 N   0  0  0  0  0  0  0  0  0  0  0  0
  184.2030  178.4160  138.3830 N   0  0  0  0  0  2  0  0  0  0  0  0
  186.9480  174.8770  137.0990 C   0  0  0  0  0  2  0  0  0  0  0  0
  187.0210  176.3880  137.0140 C   0  0  0  0  0  3  0  0  0  0  0  0
  186.8640  175.5620  135.7540 C   0  0  0  0  0  2  0  0  0  0  0  0
  183.8950  179.5230  139.2720 C   0  0  0  0  0  2  0  0  0  0  0  0
  181.5960  180.0100  139.3000 O   0  0  0  0  0  0  0  0  0  0  0  0
  182.5100  179.3730  139.8000 C   0  0  0  0  0  0  0  0  0  0  0  0
  182.2440  178.4380  140.9330 C   0  0  0  0  0  2  0  0  0  0  0  0
  183.2890  178.6140  142.0180 C   0  0  0  0  0  1  0  0  0  0  0  0
  189.0320  178.8280  138.6860 C   0  0  0  0  0  2  0  0  0  0  0  0
  190.5440  176.9880  138.0150 C   0  0  0  0  0  1  0  0  0  0  0  0
  189.6650  178.1120  137.5090 C   0  0  0  0  0  2  0  0  0  0  0  0
  1  4  1  0  0  0  0
  1 13  1  0  0  0  0
  2 11  1  0  0  0  0
  3  7  1  1  0  0  0
  3 10  1  0  0  0  0
  4  5  1  0  0  0  0
  4  3  1  0  0  0  0
  5 14  2  0  0  0  0
  5  3  1  0  0  0  0
  6 13  2  0  0  0  0
  8  1  2  0  0  0  0
  9 11  2  0  0  0  0
 10  9  1  0  0  0  0
 12  6  1  0  0  0  0
 13 17  1  0  0  0  0
 15  8  1  0  0  0  0
 15 12  2  0  0  0  0
 16  2  2  0  0  0  0
 17 10  2  0  0  0  0
 17 16  1  0  0  0  0
 18 31  1  1  0  0  0
 18 15  1  0  0  0  0
 19 22  1  0  0  0  0
 19 20  1  0  0  0  0
 20 18  1  0  0  0  0
 21 19  2  0  0  0  0
 22 26  1  0  0  0  0
 24 23  1  0  0  0  0
 24 21  1  0  0  0  0
 25 24  1  0  0  0  0
 25 23  1  0  0  0  0
 26 28  1  0  0  0  0
 27 28  2  0  0  0  0
 28 29  1  0  0  0  0
 29 30  1  0  0  0  0
 33 32  1  0  0  0  0
 33 31  1  0  0  0  0
M  END
>  <MODEL>
5

>  <REMARK>
 VINA RESULT:      -8.0      2.482      5.748
  Name = 
  8 active torsions:
  status: ('A' for Active; 'I' for Inactive)
    1  A    between atoms: C_2  and  C_10
    2  A    between atoms: C_2  and  C_30
    3  A    between atoms: N_5  and  C_30
    4  A    between atoms: N_8  and  C_20
    5  A    between atoms: N_13  and  C_14
    6  A    between atoms: C_14  and  C_19
    7  A    between atoms: C_19  and  C_27
    8  A    between atoms: C_29  and  C_30
                            x       y       z     vdW  Elec       q    Type
                         _______ _______ _______ _____ _____    ______ ____

>  <TORSDO>
F 8

$$$$
=
 OpenBabel11042411113D

 33 37  0  0  1  0  0  0  0  0999 V2000
  184.5450  178.1620  142.0220 C   0  0  0  0  0  0  0  0  0  0  0  0
  180.1280  179.1190  143.8690 N   0  0  0  0  0  0  0  0  0  0  0  0
  182.5750  178.5710  140.3890 C   0  0  2  0  0  0  0  0  0  0  0  0
  183.8230  178.1520  140.8150 N   0  0  0  0  0  0  0  0  0  0  0  0
  182.9220  177.3380  139.8790 C   0  0  0  0  0  0  0  0  0  0  0  0
  184.3890  178.4930  144.4050 C   0  0  0  0  0  3  0  0  0  0  0  0
  182.6780  179.6560  139.5180 O   0  0  0  0  0  1  0  0  0  0  0  0
  185.9060  177.8830  142.1160 C   0  0  0  0  0  3  0  0  0  0  0  0
  180.3480  178.9440  141.4960 C   0  0  0  0  0  3  0  0  0  0  0  0
  181.7210  178.7350  141.6340 C   0  0  0  0  0  0  0  0  0  0  0  0
  179.5630  179.1330  142.6340 C   0  0  0  0  0  3  0  0  0  0  0  0
  185.7590  178.2180  144.5170 C   0  0  0  0  0  3  0  0  0  0  0  0
  183.7720  178.4650  143.1470 C   0  0  0  0  0  0  0  0  0  0  0  0
  182.6600  176.2910  139.2320 O   0  0  0  0  0  0  0  0  0  0  0  0
  186.5190  177.9080  143.3790 C   0  0  0  0  0  0  0  0  0  0  0  0
  181.4610  178.9190  144.0470 C   0  0  0  0  0  3  0  0  0  0  0  0
  182.3030  178.7210  142.9460 C   0  0  0  0  0  0  0  0  0  0  0  0
  187.9830  177.6160  143.5320 C   0  0  1  0  0  3  0  0  0  0  0  0
  189.6920  177.3210  141.6240 C   0  0  0  0  0  0  0  0  0  0  0  0
  188.7170  178.0810  142.3610 N   0  0  0  0  0  2  0  0  0  0  0  0
  190.4240  176.3960  142.1730 N   0  0  0  0  0  0  0  0  0  0  0  0
  189.8980  177.6140  140.2420 N   0  0  0  0  0  2  0  0  0  0  0  0
  191.6720  175.2680  143.9120 C   0  0  0  0  0  2  0  0  0  0  0  0
  190.3980  176.0170  143.5770 C   0  0  0  0  0  3  0  0  0  0  0  0
  191.5270  176.7210  144.3010 C   0  0  0  0  0  2  0  0  0  0  0  0
  189.1260  178.6300  139.5460 C   0  0  0  0  0  2  0  0  0  0  0  0
  186.8970  178.4660  138.8180 O   0  0  0  0  0  0  0  0  0  0  0  0
  188.0190  177.9860  138.7850 C   0  0  0  0  0  0  0  0  0  0  0  0
  188.2890  176.7600  137.9770 C   0  0  0  0  0  2  0  0  0  0  0  0
  188.9150  177.1320  136.6470 C   0  0  0  0  0  1  0  0  0  0  0  0
  188.5450  178.2810  144.7790 C   0  0  0  0  0  2  0  0  0  0  0  0
  189.2700  177.8110  147.0970 C   0  0  0  0  0  1  0  0  0  0  0  0
  188.3090  177.4110  145.9980 C   0  0  0  0  0  2  0  0  0  0  0  0
  1  8  2  0  0  0  0
  1 13  1  0  0  0  0
  2 16  1  0  0  0  0
  3  7  1  6  0  0  0
  3  4  1  0  0  0  0
  3 10  1  0  0  0  0
  4  1  1  0  0  0  0
  5  3  1  0  0  0  0
  5  4  1  0  0  0  0
  6 12  1  0  0  0  0
  8 15  1  0  0  0  0
  9 10  2  0  0  0  0
  9 11  1  0  0  0  0
 10 17  1  0  0  0  0
 11  2  2  0  0  0  0
 13  6  2  0  0  0  0
 14  5  2  0  0  0  0
 15 18  1  0  0  0  0
 15 12  2  0  0  0  0
 17 13  1  0  0  0  0
 17 16  2  0  0  0  0
 18 31  1  1  0  0  0
 19 21  2  0  0  0  0
 19 20  1  0  0  0  0
 20 18  1  0  0  0  0
 21 24  1  0  0  0  0
 22 19  1  0  0  0  0
 23 25  1  0  0  0  0
 24 23  1  0  0  0  0
 24 25  1  0  0  0  0
 26 22  1  0  0  0  0
 28 27  2  0  0  0  0
 28 26  1  0  0  0  0
 29 28  1  0  0  0  0
 30 29  1  0  0  0  0
 31 33  1  0  0  0  0
 33 32  1  0  0  0  0
M  END
>  <MODEL>
6

>  <REMARK>
 VINA RESULT:      -7.7      2.275      7.269
  Name = 
  8 active torsions:
  status: ('A' for Active; 'I' for Inactive)
    1  A    between atoms: C_2  and  C_10
    2  A    between atoms: C_2  and  C_30
    3  A    between atoms: N_5  and  C_30
    4  A    between atoms: N_8  and  C_20
    5  A    between atoms: N_13  and  C_14
    6  A    between atoms: C_14  and  C_19
    7  A    between atoms: C_19  and  C_27
    8  A    between atoms: C_29  and  C_30
                            x       y       z     vdW  Elec       q    Type
                         _______ _______ _______ _____ _____    ______ ____

>  <TORSDO>
F 8

$$$$
=
 OpenBabel11042411113D

 33 37  0  0  1  0  0  0  0  0999 V2000
  187.4750  178.1520  141.1920 C   0  0  0  0  0  0  0  0  0  0  0  0
  187.7160  177.1240  145.9600 N   0  0  0  0  0  0  0  0  0  0  0  0
  185.5510  178.9470  142.7360 C   0  0  2  0  0  0  0  0  0  0  0  0
  186.2020  178.6240  141.5570 N   0  0  0  0  0  0  0  0  0  0  0  0
  184.7450  178.2500  141.8600 C   0  0  0  0  0  0  0  0  0  0  0  0
  189.5170  177.1670  142.0120 C   0  0  0  0  0  3  0  0  0  0  0  0
  185.3290  180.3210  142.8280 O   0  0  0  0  0  1  0  0  0  0  0  0
  187.9540  178.1400  139.8850 C   0  0  0  0  0  3  0  0  0  0  0  0
  185.7710  178.2460  145.1410 C   0  0  0  0  0  3  0  0  0  0  0  0
  186.3200  178.2720  143.8580 C   0  0  0  0  0  0  0  0  0  0  0  0
  186.4880  177.6620  146.1850 C   0  0  0  0  0  3  0  0  0  0  0  0
  190.0160  177.1510  140.7020 C   0  0  0  0  0  3  0  0  0  0  0  0
  188.2340  177.6710  142.2640 C   0  0  0  0  0  0  0  0  0  0  0  0
  183.6730  177.6600  141.5680 O   0  0  0  0  0  0  0  0  0  0  0  0
  189.2380  177.6290  139.6370 C   0  0  0  0  0  0  0  0  0  0  0  0
  188.2860  177.1290  144.7260 C   0  0  0  0  0  3  0  0  0  0  0  0
  187.6170  177.6980  143.6350 C   0  0  0  0  0  0  0  0  0  0  0  0
  189.7990  177.5960  138.2450 C   0  0  1  0  0  3  0  0  0  0  0  0
  190.0720  175.1150  137.5970 C   0  0  0  0  0  0  0  0  0  0  0  0
  189.3820  176.3770  137.5610 N   0  0  0  0  0  2  0  0  0  0  0  0
  191.3600  175.0220  137.7600 N   0  0  0  0  0  0  0  0  0  0  0  0
  189.3270  173.9130  137.4070 N   0  0  0  0  0  2  0  0  0  0  0  0
  193.6980  175.6110  137.9720 C   0  0  0  0  0  2  0  0  0  0  0  0
  192.2800  176.1410  137.8970 C   0  0  0  0  0  3  0  0  0  0  0  0
  193.1780  176.1950  136.6780 C   0  0  0  0  0  2  0  0  0  0  0  0
  187.8860  173.9210  137.2170 C   0  0  0  0  0  2  0  0  0  0  0  0
  188.2970  171.9040  136.0820 O   0  0  0  0  0  0  0  0  0  0  0  0
  187.4600  172.6550  136.5570 C   0  0  0  0  0  0  0  0  0  0  0  0
  186.0100  172.3060  136.4860 C   0  0  0  0  0  2  0  0  0  0  0  0
  185.2450  173.0020  137.5950 C   0  0  0  0  0  1  0  0  0  0  0  0
  189.3450  178.8070  137.4450 C   0  0  0  0  0  2  0  0  0  0  0  0
  187.1590  178.6340  136.2980 C   0  0  0  0  0  1  0  0  0  0  0  0
  188.6440  178.3710  136.1730 C   0  0  0  0  0  2  0  0  0  0  0  0
  1  4  1  0  0  0  0
  1 13  1  0  0  0  0
  2 11  1  0  0  0  0
  3  7  1  1  0  0  0
  3 10  1  0  0  0  0
  4  5  1  0  0  0  0
  4  3  1  0  0  0  0
  5  3  1  0  0  0  0
  6 13  2  0  0  0  0
  8  1  2  0  0  0  0
  9 11  2  0  0  0  0
 10  9  1  0  0  0  0
 12  6  1  0  0  0  0
 13 17  1  0  0  0  0
 14  5  2  0  0  0  0
 15  8  1  0  0  0  0
 15 12  2  0  0  0  0
 16  2  2  0  0  0  0
 17 10  2  0  0  0  0
 17 16  1  0  0  0  0
 18 31  1  6  0  0  0
 18 15  1  0  0  0  0
 19 21  2  0  0  0  0
 20 19  1  0  0  0  0
 20 18  1  0  0  0  0
 21 24  1  0  0  0  0
 22 19  1  0  0  0  0
 24 23  1  0  0  0  0
 25 24  1  0  0  0  0
 25 23  1  0  0  0  0
 26 22  1  0  0  0  0
 27 28  2  0  0  0  0
 28 26  1  0  0  0  0
 29 28  1  0  0  0  0
 29 30  1  0  0  0  0
 33 32  1  0  0  0  0
 33 31  1  0  0  0  0
M  END
>  <MODEL>
7

>  <REMARK>
 VINA RESULT:      -7.1      4.021      7.601
  Name = 
  8 active torsions:
  status: ('A' for Active; 'I' for Inactive)
    1  A    between atoms: C_2  and  C_10
    2  A    between atoms: C_2  and  C_30
    3  A    between atoms: N_5  and  C_30
    4  A    between atoms: N_8  and  C_20
    5  A    between atoms: N_13  and  C_14
    6  A    between atoms: C_14  and  C_19
    7  A    between atoms: C_19  and  C_27
    8  A    between atoms: C_29  and  C_30
                            x       y       z     vdW  Elec       q    Type
                         _______ _______ _______ _____ _____    ______ ____

>  <TORSDO>
F 8

$$$$
=
 OpenBabel11042411113D

 33 37  0  0  1  0  0  0  0  0999 V2000
  189.1860  177.2820  140.1970 C   0  0  0  0  0  0  0  0  0  0  0  0
  193.6830  176.5700  138.4330 N   0  0  0  0  0  0  0  0  0  0  0  0
  189.4700  176.8050  137.6650 C   0  0  2  0  0  0  0  0  0  0  0  0
  188.8530  177.2230  138.8320 N   0  0  0  0  0  0  0  0  0  0  0  0
  188.7820  177.9900  137.5060 C   0  0  0  0  0  0  0  0  0  0  0  0
  190.9900  177.1270  141.7900 C   0  0  0  0  0  3  0  0  0  0  0  0
  188.8600  175.6580  137.1570 O   0  0  0  0  0  1  0  0  0  0  0  0
  188.2670  177.5330  141.2120 C   0  0  0  0  0  3  0  0  0  0  0  0
  191.8520  176.5680  136.8970 C   0  0  0  0  0  3  0  0  0  0  0  0
  190.9600  176.7520  137.9540 C   0  0  0  0  0  0  0  0  0  0  0  0
  193.2200  176.4810  137.1590 C   0  0  0  0  0  3  0  0  0  0  0  0
  190.0770  177.3750  142.8240 C   0  0  0  0  0  3  0  0  0  0  0  0
  190.5450  177.0800  140.4620 C   0  0  0  0  0  0  0  0  0  0  0  0
  188.4420  178.9930  136.8280 O   0  0  0  0  0  0  0  0  0  0  0  0
  188.7190  177.5840  142.5410 C   0  0  0  0  0  0  0  0  0  0  0  0
  192.8480  176.7490  139.4900 C   0  0  0  0  0  3  0  0  0  0  0  0
  191.4650  176.8460  139.2950 C   0  0  0  0  0  0  0  0  0  0  0  0
  187.7660  177.8500  143.6690 C   0  0  1  0  0  3  0  0  0  0  0  0
  185.2580  178.4460  143.6380 C   0  0  0  0  0  0  0  0  0  0  0  0
  186.3900  177.6590  143.2260 N   0  0  0  0  0  2  0  0  0  0  0  0
  185.1920  179.0290  144.7990 N   0  0  0  0  0  0  0  0  0  0  0  0
  184.1400  178.5640  142.7590 N   0  0  0  0  0  2  0  0  0  0  0  0
  185.6800  179.6410  147.0890 C   0  0  0  0  0  2  0  0  0  0  0  0
  186.2030  178.9560  145.8430 C   0  0  0  0  0  3  0  0  0  0  0  0
  185.6660  178.1320  146.9950 C   0  0  0  0  0  2  0  0  0  0  0  0
  184.1250  177.9470  141.4430 C   0  0  0  0  0  2  0  0  0  0  0  0
  184.9250  179.7530  140.1680 O   0  0  0  0  0  0  0  0  0  0  0  0
  183.9920  178.9990  140.3960 C   0  0  0  0  0  0  0  0  0  0  0  0
  182.7190  179.1210  139.6240 C   0  0  0  0  0  2  0  0  0  0  0  0
  182.7680  180.3350  138.7180 C   0  0  0  0  0  1  0  0  0  0  0  0
  188.0490  176.9340  144.8500 C   0  0  0  0  0  2  0  0  0  0  0  0
  189.1700  176.7940  147.0510 C   0  0  0  0  0  1  0  0  0  0  0  0
  189.1520  177.5090  145.7170 C   0  0  0  0  0  2  0  0  0  0  0  0
  1 13  2  0  0  0  0
  1  8  1  0  0  0  0
  2 16  1  0  0  0  0
  3  7  1  6  0  0  0
  3 10  1  0  0  0  0
  3  4  1  0  0  0  0
  4  1  1  0  0  0  0
  5  3  1  0  0  0  0
  5  4  1  0  0  0  0
  6 12  2  0  0  0  0
  8 15  2  0  0  0  0
  9 11  1  0  0  0  0
  9 10  2  0  0  0  0
 10 17  1  0  0  0  0
 11  2  2  0  0  0  0
 13  6  1  0  0  0  0
 14  5  2  0  0  0  0
 15 12  1  0  0  0  0
 15 18  1  0  0  0  0
 17 16  2  0  0  0  0
 17 13  1  0  0  0  0
 18 31  1  1  0  0  0
 19 21  2  0  0  0  0
 20 19  1  0  0  0  0
 20 18  1  0  0  0  0
 21 24  1  0  0  0  0
 22 19  1  0  0  0  0
 24 25  1  0  0  0  0
 24 23  1  0  0  0  0
 25 23  1  0  0  0  0
 26 22  1  0  0  0  0
 27 28  2  0  0  0  0
 28 26  1  0  0  0  0
 29 28  1  0  0  0  0
 30 29  1  0  0  0  0
 31 33  1  0  0  0  0
 33 32  1  0  0  0  0
M  END
>  <MODEL>
8

>  <REMARK>
 VINA RESULT:      -7.1      3.238      7.237
  Name = 
  8 active torsions:
  status: ('A' for Active; 'I' for Inactive)
    1  A    between atoms: C_2  and  C_10
    2  A    between atoms: C_2  and  C_30
    3  A    between atoms: N_5  and  C_30
    4  A    between atoms: N_8  and  C_20
    5  A    between atoms: N_13  and  C_14
    6  A    between atoms: C_14  and  C_19
    7  A    between atoms: C_19  and  C_27
    8  A    between atoms: C_29  and  C_30
                            x       y       z     vdW  Elec       q    Type
                         _______ _______ _______ _____ _____    ______ ____

>  <TORSDO>
F 8

$$$$
=
 OpenBabel11042411113D

 33 37  0  0  1  0  0  0  0  0999 V2000
  186.5190  178.2150  142.1380 C   0  0  0  0  0  0  0  0  0  0  0  0
  185.8110  178.2500  146.9690 N   0  0  0  0  0  0  0  0  0  0  0  0
  188.4020  177.3220  143.6790 C   0  0  2  0  0  0  0  0  0  0  0  0
  187.8080  177.8070  142.5260 N   0  0  0  0  0  0  0  0  0  0  0  0
  189.1860  178.2540  143.0300 C   0  0  0  0  0  0  0  0  0  0  0  0
  184.3230  178.8140  142.9320 C   0  0  0  0  0  3  0  0  0  0  0  0
  188.7730  175.9860  143.5300 O   0  0  0  0  0  1  0  0  0  0  0  0
  186.1400  178.4390  140.8170 C   0  0  0  0  0  3  0  0  0  0  0  0
  187.9270  177.5080  146.1410 C   0  0  0  0  0  3  0  0  0  0  0  0
  187.4800  177.6830  144.8300 C   0  0  0  0  0  0  0  0  0  0  0  0
  187.0720  177.8010  147.2040 C   0  0  0  0  0  3  0  0  0  0  0  0
  183.9230  179.0400  141.6070 C   0  0  0  0  0  3  0  0  0  0  0  0
  185.6330  178.3980  143.2040 C   0  0  0  0  0  0  0  0  0  0  0  0
  190.2020  178.9920  142.9580 O   0  0  0  0  0  0  0  0  0  0  0  0
  184.8270  178.8600  140.5500 C   0  0  0  0  0  0  0  0  0  0  0  0
  185.3380  178.4340  145.7080 C   0  0  0  0  0  3  0  0  0  0  0  0
  186.1460  178.1600  144.5980 C   0  0  0  0  0  0  0  0  0  0  0  0
  184.3710  179.1140  139.1430 C   0  0  1  0  0  3  0  0  0  0  0  0
  184.4360  176.8300  137.9460 C   0  0  0  0  0  0  0  0  0  0  0  0
  183.7460  177.9170  138.5900 N   0  0  0  0  0  2  0  0  0  0  0  0
  185.5560  176.9910  137.3040 N   0  0  0  0  0  0  0  0  0  0  0  0
  183.8550  175.5270  137.9760 N   0  0  0  0  0  2  0  0  0  0  0  0
  187.7330  178.0460  137.3450 C   0  0  0  0  0  2  0  0  0  0  0  0
  186.2500  178.2550  137.1130 C   0  0  0  0  0  3  0  0  0  0  0  0
  187.1950  178.1280  135.9350 C   0  0  0  0  0  2  0  0  0  0  0  0
  182.6060  175.2560  138.6700 C   0  0  0  0  0  2  0  0  0  0  0  0
  180.6990  175.4620  137.3120 O   0  0  0  0  0  0  0  0  0  0  0  0
  181.5990  174.7350  137.7040 C   0  0  0  0  0  0  0  0  0  0  0  0
  181.6980  173.3290  137.2120 C   0  0  0  0  0  2  0  0  0  0  0  0
  180.3980  172.5900  137.4610 C   0  0  0  0  0  1  0  0  0  0  0  0
  183.3840  180.2710  139.0890 C   0  0  0  0  0  2  0  0  0  0  0  0
  180.9440  180.0720  139.4460 C   0  0  0  0  0  1  0  0  0  0  0  0
  182.0740  179.8240  138.4700 C   0  0  0  0  0  2  0  0  0  0  0  0
  1  4  1  0  0  0  0
  1 13  1  0  0  0  0
  2 11  1  0  0  0  0
  3  7  1  6  0  0  0
  3 10  1  0  0  0  0
  4  5  1  0  0  0  0
  4  3  1  0  0  0  0
  5  3  1  0  0  0  0
  6 13  2  0  0  0  0
  8  1  2  0  0  0  0
  9 11  2  0  0  0  0
 10  9  1  0  0  0  0
 12  6  1  0  0  0  0
 13 17  1  0  0  0  0
 14  5  2  0  0  0  0
 15  8  1  0  0  0  0
 15 12  2  0  0  0  0
 16  2  2  0  0  0  0
 17 10  2  0  0  0  0
 17 16  1  0  0  0  0
 18 31  1  1  0  0  0
 18 15  1  0  0  0  0
 19 22  1  0  0  0  0
 19 20  1  0  0  0  0
 20 18  1  0  0  0  0
 21 19  2  0  0  0  0
 22 26  1  0  0  0  0
 24 21  1  0  0  0  0
 24 23  1  0  0  0  0
 25 24  1  0  0  0  0
 25 23  1  0  0  0  0
 27 28  2  0  0  0  0
 28 26  1  0  0  0  0
 29 30  1  0  0  0  0
 29 28  1  0  0  0  0
 33 31  1  0  0  0  0
 33 32  1  0  0  0  0
M  END
>  <MODEL>
9

>  <REMARK>
 VINA RESULT:      -7.1      2.374      4.295
  Name = 
  8 active torsions:
  status: ('A' for Active; 'I' for Inactive)
    1  A    between atoms: C_2  and  C_10
    2  A    between atoms: C_2  and  C_30
    3  A    between atoms: N_5  and  C_30
    4  A    between atoms: N_8  and  C_20
    5  A    between atoms: N_13  and  C_14
    6  A    between atoms: C_14  and  C_19
    7  A    between atoms: C_19  and  C_27
    8  A    between atoms: C_29  and  C_30
                            x       y       z     vdW  Elec       q    Type
                         _______ _______ _______ _____ _____    ______ ____

>  <TORSDO>
F 8

$$$$
