=
 OpenBabel11042413303D

 41 46  0  0  1  0  0  0  0  0999 V2000
  190.5660  177.3090  144.3300 C   0  0  0  0  0  3  0  0  0  0  0  0
  188.4720  177.4390  145.5530 C   0  0  0  0  0  0  0  0  0  0  0  0
  188.4560  177.6600  143.1270 C   0  0  0  0  0  0  0  0  0  0  0  0
  186.4130  177.7610  144.4210 C   0  0  0  0  0  3  0  0  0  0  0  0
  187.1240  177.5880  145.5630 N   0  0  0  0  0  0  0  0  0  0  0  0
  191.2330  177.0960  145.5350 C   0  0  0  0  0  3  0  0  0  0  0  0
  189.1850  177.2280  146.7500 C   0  0  0  0  0  0  0  0  0  0  0  0
  190.5390  177.0600  146.7030 N   0  0  0  0  0  0  0  0  0  0  0  0
  189.1730  177.4760  144.3260 C   0  0  0  0  0  0  0  0  0  0  0  0
  187.0560  177.7950  143.1820 C   0  0  0  0  0  0  0  0  0  0  0  0
  190.9220  176.7960  140.3410 C   0  0  0  0  0  2  0  0  0  0  0  0
  188.9470  177.0170  138.8110 C   0  0  0  0  0  3  0  0  0  0  0  0
  189.1650  177.6570  141.8330 C   0  0  0  0  0  0  0  0  0  0  0  0
  188.8120  178.6570  140.7810 C   0  0  0  0  0  2  0  0  0  0  0  0
  190.1320  176.7720  141.6120 C   0  0  0  0  0  3  0  0  0  0  0  0
  188.1000  177.9580  139.6330 C   0  0  0  0  0  2  0  0  0  0  0  0
  190.1240  176.4460  139.1120 C   0  0  0  0  0  0  0  0  0  0  0  0
  191.9270  175.7060  137.4410 C   0  0  0  0  0  0  0  0  0  0  0  0
  190.6780  175.5580  138.1310 N   0  0  0  0  0  2  0  0  0  0  0  0
  192.6700  176.7050  137.6330 O   0  0  0  0  0  0  0  0  0  0  0  0
  192.3270  174.6930  136.4300 C   0  0  0  0  0  2  0  0  0  0  0  0
  193.7680  174.9320  136.0140 C   0  0  0  0  0  2  0  0  0  0  0  0
  195.4260  174.4580  137.9070 C   0  0  0  0  0  2  0  0  0  0  0  0
  194.1360  172.6780  136.8630 O   0  0  0  0  0  1  0  0  0  0  0  0
  194.7160  173.9360  136.6650 C   0  0  0  0  0  0  0  0  0  0  0  0
  196.7450  174.3410  137.1680 C   0  0  0  0  0  0  0  0  0  0  0  0
  197.6070  173.3980  137.7300 O   0  0  0  0  0  1  0  0  0  0  0  0
  197.3680  175.5710  136.9600 O   0  0  0  0  0  1  0  0  0  0  0  0
  196.0380  173.8300  135.9300 C   0  0  0  0  0  2  0  0  0  0  0  0
  187.7810  178.5280  148.3500 C   0  0  0  0  0  2  0  0  0  0  0  0
  189.1110  178.2370  149.0080 C   0  0  0  0  0  2  0  0  0  0  0  0
  188.4870  177.2060  148.0820 C   0  0  0  0  0  3  0  0  0  0  0  0
  186.2270  177.9910  141.9520 C   0  0  0  0  0  2  0  0  0  0  0  0
  185.0990  178.9740  142.2130 C   0  0  0  0  0  2  0  0  0  0  0  0
  183.7460  178.3150  142.0120 C   0  0  0  0  0  2  0  0  0  0  0  0
  182.7520  178.7780  143.0260 C   0  0  0  0  0  0  0  0  0  0  0  0
  183.4970  179.2100  145.4130 O   0  0  0  0  0  0  0  0  0  0  0  0
  183.1380  178.9960  144.2540 C   0  0  0  0  0  0  0  0  0  0  0  0
  181.4260  179.3010  142.5660 C   0  0  1  0  0  3  0  0  0  0  0  0
  180.8420  178.3790  141.6720 O   0  0  0  0  0  0  0  0  0  0  0  0
  180.3210  178.4060  142.9730 C   0  0  0  0  0  2  0  0  0  0  0  0
  1  6  1  0  0  0  0
  2  5  1  0  0  0  0
  2  7  2  0  0  0  0
  3 10  2  0  0  0  0
  3  9  1  0  0  0  0
  4  5  2  0  0  0  0
  6  8  2  0  0  0  0
  7 32  1  0  0  0  0
  8  7  1  0  0  0  0
  9  1  2  0  0  0  0
  9  2  1  0  0  0  0
 10  4  1  0  0  0  0
 11 15  1  0  0  0  0
 12 17  2  0  0  0  0
 12 16  1  0  0  0  0
 13  3  1  0  0  0  0
 14 13  1  0  0  0  0
 15 13  2  0  0  0  0
 16 14  1  0  0  0  0
 17 11  1  0  0  0  0
 18 20  2  0  0  0  0
 18 19  1  0  0  0  0
 19 17  1  0  0  0  0
 21 18  1  0  0  0  0
 22 21  1  0  0  0  0
 22 25  1  0  0  0  0
 25 24  1  0  0  0  0
 25 23  1  0  0  0  0
 26 27  1  0  0  0  0
 26 23  1  0  0  0  0
 28 26  1  0  0  0  0
 29 25  1  0  0  0  0
 29 26  1  0  0  0  0
 30 31  1  0  0  0  0
 32 30  1  0  0  0  0
 32 31  1  0  0  0  0
 33 34  1  0  0  0  0
 33 10  1  0  0  0  0
 35 34  1  0  0  0  0
 35 36  1  0  0  0  0
 36 38  2  0  0  0  0
 38 37  2  0  0  0  0
 39 41  1  0  0  0  0
 39 36  1  1  0  0  0
 40 39  1  0  0  0  0
 40 41  1  0  0  0  0
M  END
>  <MODEL>
1

>  <REMARK>
 VINA RESULT:      -9.2      0.000      0.000
  Name = 
  11 active torsions:
  status: ('A' for Active; 'I' for Inactive)
    1  A    between atoms: C_1  and  C_27
    2  A    between atoms: C_2  and  C_6
    3  A    between atoms: C_2  and  C_39
    4  A    between atoms: C_4  and  C_33
    5  A    between atoms: C_6  and  C_8
    6  A    between atoms: N_7  and  C_38
    7  A    between atoms: C_8  and  C_27
    8  A    between atoms: C_10  and  C_31
    9  A    between atoms: C_15  and  C_17
   10  A    between atoms: C_22  and  C_30
   11  A    between atoms: C_31  and  C_33
                            x       y       z     vdW  Elec       q    Type
                         _______ _______ _______ _____ _____    ______ ____

>  <TORSDO>
F 11

$$$$
=
 OpenBabel11042413303D

 41 46  0  0  1  0  0  0  0  0999 V2000
  185.8910  178.4080  142.0470 C   0  0  0  0  0  3  0  0  0  0  0  0
  184.6260  178.4540  144.1190 C   0  0  0  0  0  0  0  0  0  0  0  0
  186.9510  177.7260  144.1520 C   0  0  0  0  0  0  0  0  0  0  0  0
  185.6240  177.8170  146.1750 C   0  0  0  0  0  3  0  0  0  0  0  0
  184.5580  178.2550  145.4600 N   0  0  0  0  0  0  0  0  0  0  0  0
  184.7720  178.8970  141.3760 C   0  0  0  0  0  3  0  0  0  0  0  0
  183.5150  178.9410  143.4030 C   0  0  0  0  0  0  0  0  0  0  0  0
  183.6240  179.1510  142.0590 N   0  0  0  0  0  0  0  0  0  0  0  0
  185.8330  178.1880  143.4310 C   0  0  0  0  0  0  0  0  0  0  0  0
  186.8410  177.5490  145.5450 C   0  0  0  0  0  0  0  0  0  0  0  0
  189.8330  175.9800  142.3540 C   0  0  0  0  0  2  0  0  0  0  0  0
  189.8720  178.0130  140.8860 C   0  0  0  0  0  3  0  0  0  0  0  0
  188.2310  177.4850  143.4590 C   0  0  0  0  0  0  0  0  0  0  0  0
  189.2190  178.5950  143.3000 C   0  0  0  0  0  2  0  0  0  0  0  0
  188.5110  176.2730  142.9910 C   0  0  0  0  0  3  0  0  0  0  0  0
  189.2760  179.0190  141.8400 C   0  0  0  0  0  2  0  0  0  0  0  0
  190.0610  176.6940  141.0460 C   0  0  0  0  0  0  0  0  0  0  0  0
  190.1220  175.9400  138.5930 C   0  0  0  0  0  0  0  0  0  0  0  0
  190.6260  175.9840  139.9360 N   0  0  0  0  0  2  0  0  0  0  0  0
  189.0600  176.5370  138.2700 O   0  0  0  0  0  0  0  0  0  0  0  0
  190.8300  175.1230  137.5740 C   0  0  0  0  0  2  0  0  0  0  0  0
  192.3310  175.2680  137.7610 C   0  0  0  0  0  2  0  0  0  0  0  0
  194.3320  173.6740  137.6520 C   0  0  0  0  0  2  0  0  0  0  0  0
  192.2820  173.2370  136.4160 O   0  0  0  0  0  1  0  0  0  0  0  0
  193.1020  174.2360  136.9510 C   0  0  0  0  0  0  0  0  0  0  0  0
  195.1970  174.3050  136.5780 C   0  0  0  0  0  0  0  0  0  0  0  0
  195.8770  173.3660  135.8000 O   0  0  0  0  0  1  0  0  0  0  0  0
  196.0430  175.2990  137.0690 O   0  0  0  0  0  1  0  0  0  0  0  0
  193.9750  174.8710  135.8860 C   0  0  0  0  0  2  0  0  0  0  0  0
  181.1760  178.1470  143.7430 C   0  0  0  0  0  2  0  0  0  0  0  0
  181.1280  179.4890  143.0490 C   0  0  0  0  0  2  0  0  0  0  0  0
  182.2040  179.2150  144.0870 C   0  0  0  0  0  3  0  0  0  0  0  0
  187.9850  177.0640  146.3770 C   0  0  0  0  0  2  0  0  0  0  0  0
  188.7790  178.2330  146.9360 C   0  0  0  0  0  2  0  0  0  0  0  0
  189.9920  177.7460  147.7080 C   0  0  0  0  0  2  0  0  0  0  0  0
  190.8450  176.8420  146.8810 C   0  0  0  0  0  0  0  0  0  0  0  0
  191.8850  177.7070  144.7340 O   0  0  0  0  0  0  0  0  0  0  0  0
  191.3760  177.2900  145.7750 C   0  0  0  0  0  0  0  0  0  0  0  0
  191.3520  175.5650  147.4790 C   0  0  1  0  0  3  0  0  0  0  0  0
  192.5460  175.1840  146.8300 O   0  0  0  0  0  0  0  0  0  0  0  0
  192.6800  175.7510  148.1050 C   0  0  0  0  0  2  0  0  0  0  0  0
  1  9  1  0  0  0  0
  2  5  1  0  0  0  0
  3 10  2  0  0  0  0
  5  4  2  0  0  0  0
  6  1  2  0  0  0  0
  6  8  1  0  0  0  0
  7 32  1  0  0  0  0
  7  2  1  0  0  0  0
  8  7  2  0  0  0  0
  9  2  2  0  0  0  0
  9  3  1  0  0  0  0
 10  4  1  0  0  0  0
 10 33  1  0  0  0  0
 11 15  1  0  0  0  0
 12 17  2  0  0  0  0
 12 16  1  0  0  0  0
 13  3  1  0  0  0  0
 14 13  1  0  0  0  0
 15 13  2  0  0  0  0
 16 14  1  0  0  0  0
 17 11  1  0  0  0  0
 18 19  1  0  0  0  0
 19 17  1  0  0  0  0
 20 18  2  0  0  0  0
 21 22  1  0  0  0  0
 21 18  1  0  0  0  0
 24 25  1  0  0  0  0
 25 23  1  0  0  0  0
 25 22  1  0  0  0  0
 26 28  1  0  0  0  0
 26 23  1  0  0  0  0
 27 26  1  0  0  0  0
 29 26  1  0  0  0  0
 29 25  1  0  0  0  0
 30 32  1  0  0  0  0
 31 30  1  0  0  0  0
 31 32  1  0  0  0  0
 33 34  1  0  0  0  0
 34 35  1  0  0  0  0
 36 35  1  0  0  0  0
 37 38  2  0  0  0  0
 38 36  2  0  0  0  0
 39 36  1  6  0  0  0
 39 41  1  0  0  0  0
 40 39  1  0  0  0  0
 40 41  1  0  0  0  0
M  END
>  <MODEL>
2

>  <REMARK>
 VINA RESULT:      -9.2      2.584      5.923
  Name = 
  11 active torsions:
  status: ('A' for Active; 'I' for Inactive)
    1  A    between atoms: C_1  and  C_27
    2  A    between atoms: C_2  and  C_6
    3  A    between atoms: C_2  and  C_39
    4  A    between atoms: C_4  and  C_33
    5  A    between atoms: C_6  and  C_8
    6  A    between atoms: N_7  and  C_38
    7  A    between atoms: C_8  and  C_27
    8  A    between atoms: C_10  and  C_31
    9  A    between atoms: C_15  and  C_17
   10  A    between atoms: C_22  and  C_30
   11  A    between atoms: C_31  and  C_33
                            x       y       z     vdW  Elec       q    Type
                         _______ _______ _______ _____ _____    ______ ____

>  <TORSDO>
F 11

$$$$
=
 OpenBabel11042413303D

 41 46  0  0  1  0  0  0  0  0999 V2000
  190.3790  177.3070  144.3880 C   0  0  0  0  0  3  0  0  0  0  0  0
  188.2500  177.4480  145.5470 C   0  0  0  0  0  0  0  0  0  0  0  0
  188.3070  177.6500  143.1200 C   0  0  0  0  0  0  0  0  0  0  0  0
  186.2260  177.7630  144.3510 C   0  0  0  0  0  3  0  0  0  0  0  0
  186.9020  177.5990  145.5150 N   0  0  0  0  0  0  0  0  0  0  0  0
  191.0100  177.1030  145.6140 C   0  0  0  0  0  3  0  0  0  0  0  0
  188.9260  177.2460  146.7660 C   0  0  0  0  0  0  0  0  0  0  0  0
  190.2800  177.0760  146.7610 N   0  0  0  0  0  0  0  0  0  0  0  0
  188.9870  177.4750  144.3400 C   0  0  0  0  0  0  0  0  0  0  0  0
  186.9060  177.7870  143.1320 C   0  0  0  0  0  0  0  0  0  0  0  0
  190.7750  176.6820  140.3700 C   0  0  0  0  0  2  0  0  0  0  0  0
  188.8780  177.1420  138.7950 C   0  0  0  0  0  3  0  0  0  0  0  0
  189.0540  177.6360  141.8480 C   0  0  0  0  0  0  0  0  0  0  0  0
  188.8260  178.7070  140.8300 C   0  0  0  0  0  2  0  0  0  0  0  0
  189.9450  176.6770  141.6160 C   0  0  0  0  0  3  0  0  0  0  0  0
  188.0920  178.1220  139.6330 C   0  0  0  0  0  2  0  0  0  0  0  0
  189.9890  176.4560  139.1040 C   0  0  0  0  0  0  0  0  0  0  0  0
  191.7200  175.6920  137.3680 C   0  0  0  0  0  0  0  0  0  0  0  0
  190.4930  175.5620  138.1020 N   0  0  0  0  0  2  0  0  0  0  0  0
  192.4860  176.6780  137.5380 O   0  0  0  0  0  0  0  0  0  0  0  0
  192.0670  174.6760  136.3410 C   0  0  0  0  0  2  0  0  0  0  0  0
  193.4610  174.9520  135.8050 C   0  0  0  0  0  2  0  0  0  0  0  0
  194.1770  173.5000  137.7890 C   0  0  0  0  0  2  0  0  0  0  0  0
  194.8100  172.9450  135.5050 O   0  0  0  0  0  1  0  0  0  0  0  0
  194.4880  173.9890  136.3810 C   0  0  0  0  0  0  0  0  0  0  0  0
  195.4260  174.2070  138.2800 C   0  0  0  0  0  0  0  0  0  0  0  0
  196.3950  173.3290  138.7710 O   0  0  0  0  0  1  0  0  0  0  0  0
  195.1550  175.2480  139.1670 O   0  0  0  0  0  1  0  0  0  0  0  0
  195.7310  174.6990  136.8810 C   0  0  0  0  0  2  0  0  0  0  0  0
  187.5430  178.5860  148.3500 C   0  0  0  0  0  2  0  0  0  0  0  0
  188.8360  178.2160  149.0410 C   0  0  0  0  0  2  0  0  0  0  0  0
  188.1890  177.2350  148.0770 C   0  0  0  0  0  3  0  0  0  0  0  0
  186.1140  177.9740  141.8760 C   0  0  0  0  0  2  0  0  0  0  0  0
  184.7640  178.6010  142.1770 C   0  0  0  0  0  2  0  0  0  0  0  0
  183.6550  177.8950  141.4190 C   0  0  0  0  0  2  0  0  0  0  0  0
  183.0190  178.7940  140.4100 C   0  0  0  0  0  0  0  0  0  0  0  0
  184.4750  180.2320  138.9100 O   0  0  0  0  0  0  0  0  0  0  0  0
  183.7710  179.5350  139.6420 C   0  0  0  0  0  0  0  0  0  0  0  0
  181.5750  178.5970  140.0610 C   0  0  1  0  0  3  0  0  0  0  0  0
  180.9130  177.9720  141.1380 O   0  0  0  0  0  0  0  0  0  0  0  0
  180.6900  179.3470  140.9790 C   0  0  0  0  0  2  0  0  0  0  0  0
  1  6  1  0  0  0  0
  2  7  2  0  0  0  0
  3 10  2  0  0  0  0
  3  9  1  0  0  0  0
  4  5  2  0  0  0  0
  5  2  1  0  0  0  0
  6  8  2  0  0  0  0
  7 32  1  0  0  0  0
  8  7  1  0  0  0  0
  9  1  2  0  0  0  0
  9  2  1  0  0  0  0
 10  4  1  0  0  0  0
 11 15  1  0  0  0  0
 12 17  2  0  0  0  0
 12 16  1  0  0  0  0
 13  3  1  0  0  0  0
 14 13  1  0  0  0  0
 15 13  2  0  0  0  0
 16 14  1  0  0  0  0
 17 11  1  0  0  0  0
 18 20  2  0  0  0  0
 18 19  1  0  0  0  0
 19 17  1  0  0  0  0
 21 18  1  0  0  0  0
 22 21  1  0  0  0  0
 22 25  1  0  0  0  0
 23 26  1  0  0  0  0
 24 25  1  0  0  0  0
 25 29  1  0  0  0  0
 25 23  1  0  0  0  0
 26 27  1  0  0  0  0
 26 28  1  0  0  0  0
 29 26  1  0  0  0  0
 30 31  1  0  0  0  0
 32 30  1  0  0  0  0
 32 31  1  0  0  0  0
 33 34  1  0  0  0  0
 33 10  1  0  0  0  0
 35 34  1  0  0  0  0
 36 35  1  0  0  0  0
 37 38  2  0  0  0  0
 38 36  2  0  0  0  0
 39 36  1  1  0  0  0
 39 41  1  0  0  0  0
 39 40  1  0  0  0  0
 41 40  1  0  0  0  0
M  END
>  <MODEL>
3

>  <REMARK>
 VINA RESULT:      -9.0      1.267      1.635
  Name = 
  11 active torsions:
  status: ('A' for Active; 'I' for Inactive)
    1  A    between atoms: C_1  and  C_27
    2  A    between atoms: C_2  and  C_6
    3  A    between atoms: C_2  and  C_39
    4  A    between atoms: C_4  and  C_33
    5  A    between atoms: C_6  and  C_8
    6  A    between atoms: N_7  and  C_38
    7  A    between atoms: C_8  and  C_27
    8  A    between atoms: C_10  and  C_31
    9  A    between atoms: C_15  and  C_17
   10  A    between atoms: C_22  and  C_30
   11  A    between atoms: C_31  and  C_33
                            x       y       z     vdW  Elec       q    Type
                         _______ _______ _______ _____ _____    ______ ____

>  <TORSDO>
F 11

$$$$
=
 OpenBabel11042413303D

 41 46  0  0  1  0  0  0  0  0999 V2000
  186.4670  177.8840  138.0530 C   0  0  0  0  0  3  0  0  0  0  0  0
  185.1170  178.5040  139.9740 C   0  0  0  0  0  0  0  0  0  0  0  0
  187.5130  178.1610  140.2560 C   0  0  0  0  0  0  0  0  0  0  0  0
  186.0980  178.7970  142.1140 C   0  0  0  0  0  3  0  0  0  0  0  0
  185.0170  178.7970  141.2950 N   0  0  0  0  0  0  0  0  0  0  0  0
  185.3240  177.9400  137.2570 C   0  0  0  0  0  3  0  0  0  0  0  0
  183.9840  178.5430  139.1360 C   0  0  0  0  0  0  0  0  0  0  0  0
  184.1240  178.2640  137.8080 N   0  0  0  0  0  0  0  0  0  0  0  0
  186.3770  178.1730  139.4220 C   0  0  0  0  0  0  0  0  0  0  0  0
  187.3650  178.4880  141.6170 C   0  0  0  0  0  0  0  0  0  0  0  0
  190.9470  176.5870  139.6870 C   0  0  0  0  0  2  0  0  0  0  0  0
  190.3750  176.7280  137.2490 C   0  0  0  0  0  3  0  0  0  0  0  0
  188.8420  177.8630  139.6890 C   0  0  0  0  0  0  0  0  0  0  0  0
  189.3860  178.6930  138.5720 C   0  0  0  0  0  2  0  0  0  0  0  0
  189.5630  176.8630  140.1870 C   0  0  0  0  0  3  0  0  0  0  0  0
  189.3960  177.8760  137.2900 C   0  0  0  0  0  2  0  0  0  0  0  0
  191.0030  176.1070  138.2600 C   0  0  0  0  0  0  0  0  0  0  0  0
  193.2840  175.0500  137.7390 C   0  0  0  0  0  0  0  0  0  0  0  0
  191.8590  175.0120  137.9100 N   0  0  0  0  0  2  0  0  0  0  0  0
  193.9320  176.1240  137.8640 O   0  0  0  0  0  0  0  0  0  0  0  0
  194.0060  173.8130  137.3450 C   0  0  0  0  0  2  0  0  0  0  0  0
  195.1390  173.5530  138.3220 C   0  0  0  0  0  2  0  0  0  0  0  0
  197.5980  174.1880  137.9930 C   0  0  0  0  0  2  0  0  0  0  0  0
  196.8060  171.9140  137.6370 O   0  0  0  0  0  1  0  0  0  0  0  0
  196.4490  173.2660  137.6040 C   0  0  0  0  0  0  0  0  0  0  0  0
  197.6130  174.7220  136.5740 C   0  0  0  0  0  0  0  0  0  0  0  0
  198.7930  174.4270  135.8890 O   0  0  0  0  0  1  0  0  0  0  0  0
  197.2760  176.0730  136.4920 O   0  0  0  0  0  1  0  0  0  0  0  0
  196.4650  173.8120  136.1890 C   0  0  0  0  0  2  0  0  0  0  0  0
  181.8220  177.5940  139.9380 C   0  0  0  0  0  2  0  0  0  0  0  0
  181.5530  178.4150  138.6980 C   0  0  0  0  0  2  0  0  0  0  0  0
  182.6210  178.8640  139.6820 C   0  0  0  0  0  3  0  0  0  0  0  0
  188.5250  178.4980  142.5620 C   0  0  0  0  0  2  0  0  0  0  0  0
  188.3350  177.4660  143.6600 C   0  0  0  0  0  2  0  0  0  0  0  0
  188.9910  177.9200  144.9520 C   0  0  0  0  0  2  0  0  0  0  0  0
  188.0620  177.7970  146.1140 C   0  0  0  0  0  0  0  0  0  0  0  0
  185.5720  178.1570  145.7790 O   0  0  0  0  0  0  0  0  0  0  0  0
  186.7820  177.9860  145.9380 C   0  0  0  0  0  0  0  0  0  0  0  0
  188.5450  177.1430  147.3720 C   0  0  1  0  0  3  0  0  0  0  0  0
  189.9100  177.4450  147.5640 O   0  0  0  0  0  0  0  0  0  0  0  0
  188.9950  178.1450  148.3640 C   0  0  0  0  0  2  0  0  0  0  0  0
  1  9  1  0  0  0  0
  2  5  1  0  0  0  0
  3 10  2  0  0  0  0
  5  4  2  0  0  0  0
  6  8  1  0  0  0  0
  6  1  2  0  0  0  0
  7 32  1  0  0  0  0
  7  2  1  0  0  0  0
  8  7  2  0  0  0  0
  9  2  2  0  0  0  0
  9  3  1  0  0  0  0
 10  4  1  0  0  0  0
 10 33  1  0  0  0  0
 11 15  1  0  0  0  0
 12 16  1  0  0  0  0
 12 17  2  0  0  0  0
 13 15  2  0  0  0  0
 13  3  1  0  0  0  0
 14 13  1  0  0  0  0
 16 14  1  0  0  0  0
 17 11  1  0  0  0  0
 18 20  2  0  0  0  0
 18 19  1  0  0  0  0
 19 17  1  0  0  0  0
 21 18  1  0  0  0  0
 21 22  1  0  0  0  0
 25 24  1  0  0  0  0
 25 23  1  0  0  0  0
 25 22  1  0  0  0  0
 26 23  1  0  0  0  0
 27 26  1  0  0  0  0
 28 26  1  0  0  0  0
 29 26  1  0  0  0  0
 29 25  1  0  0  0  0
 31 32  1  0  0  0  0
 31 30  1  0  0  0  0
 32 30  1  0  0  0  0
 33 34  1  0  0  0  0
 34 35  1  0  0  0  0
 35 36  1  0  0  0  0
 37 38  2  0  0  0  0
 38 36  2  0  0  0  0
 39 36  1  6  0  0  0
 39 40  1  0  0  0  0
 39 41  1  0  0  0  0
 40 41  1  0  0  0  0
M  END
>  <MODEL>
4

>  <REMARK>
 VINA RESULT:      -8.8      2.421      5.752
  Name = 
  11 active torsions:
  status: ('A' for Active; 'I' for Inactive)
    1  A    between atoms: C_1  and  C_27
    2  A    between atoms: C_2  and  C_6
    3  A    between atoms: C_2  and  C_39
    4  A    between atoms: C_4  and  C_33
    5  A    between atoms: C_6  and  C_8
    6  A    between atoms: N_7  and  C_38
    7  A    between atoms: C_8  and  C_27
    8  A    between atoms: C_10  and  C_31
    9  A    between atoms: C_15  and  C_17
   10  A    between atoms: C_22  and  C_30
   11  A    between atoms: C_31  and  C_33
                            x       y       z     vdW  Elec       q    Type
                         _______ _______ _______ _____ _____    ______ ____

>  <TORSDO>
F 11

$$$$
=
 OpenBabel11042413303D

 41 46  0  0  1  0  0  0  0  0999 V2000
  186.4180  177.6140  137.5840 C   0  0  0  0  0  3  0  0  0  0  0  0
  184.8980  178.3870  139.3130 C   0  0  0  0  0  0  0  0  0  0  0  0
  187.2710  178.1640  139.8180 C   0  0  0  0  0  0  0  0  0  0  0  0
  185.6910  178.9430  141.4780 C   0  0  0  0  0  3  0  0  0  0  0  0
  184.6810  178.8150  140.5820 N   0  0  0  0  0  0  0  0  0  0  0  0
  185.3430  177.5430  136.7000 C   0  0  0  0  0  3  0  0  0  0  0  0
  183.8380  178.2940  138.3900 C   0  0  0  0  0  0  0  0  0  0  0  0
  184.0940  177.8800  137.1150 N   0  0  0  0  0  0  0  0  0  0  0  0
  186.2080  178.0450  138.9020 C   0  0  0  0  0  0  0  0  0  0  0  0
  187.0030  178.6280  141.1200 C   0  0  0  0  0  0  0  0  0  0  0  0
  190.7190  176.5360  139.5850 C   0  0  0  0  0  2  0  0  0  0  0  0
  190.4280  176.7660  137.1040 C   0  0  0  0  0  3  0  0  0  0  0  0
  188.6500  177.8550  139.3940 C   0  0  0  0  0  0  0  0  0  0  0  0
  189.3310  178.7090  138.3740 C   0  0  0  0  0  2  0  0  0  0  0  0
  189.2930  176.8250  139.9360 C   0  0  0  0  0  3  0  0  0  0  0  0
  189.4700  177.9320  137.0740 C   0  0  0  0  0  2  0  0  0  0  0  0
  190.9270  176.1000  138.1570 C   0  0  0  0  0  0  0  0  0  0  0  0
  193.2260  175.0410  137.7270 C   0  0  0  0  0  0  0  0  0  0  0  0
  191.7980  174.9980  137.8680 N   0  0  0  0  0  2  0  0  0  0  0  0
  193.8640  176.1230  137.8240 O   0  0  0  0  0  0  0  0  0  0  0  0
  193.9640  173.7940  137.3960 C   0  0  0  0  0  2  0  0  0  0  0  0
  195.0990  173.5990  138.3870 C   0  0  0  0  0  2  0  0  0  0  0  0
  197.5670  174.1940  138.0500 C   0  0  0  0  0  2  0  0  0  0  0  0
  196.7510  171.9190  137.7670 O   0  0  0  0  0  1  0  0  0  0  0  0
  196.4100  173.2740  137.6860 C   0  0  0  0  0  0  0  0  0  0  0  0
  197.5950  174.6790  136.6130 C   0  0  0  0  0  0  0  0  0  0  0  0
  198.7760  174.3480  135.9450 O   0  0  0  0  0  1  0  0  0  0  0  0
  197.2740  176.0310  136.4840 O   0  0  0  0  0  1  0  0  0  0  0  0
  196.4390  173.7700  136.2530 C   0  0  0  0  0  2  0  0  0  0  0  0
  181.6380  179.1680  137.6040 C   0  0  0  0  0  2  0  0  0  0  0  0
  182.1840  180.1160  138.6480 C   0  0  0  0  0  2  0  0  0  0  0  0
  182.4250  178.6220  138.7880 C   0  0  0  0  0  3  0  0  0  0  0  0
  188.0810  178.7820  142.1460 C   0  0  0  0  0  2  0  0  0  0  0  0
  187.8470  177.8460  143.3190 C   0  0  0  0  0  2  0  0  0  0  0  0
  189.0410  176.9320  143.5330 C   0  0  0  0  0  2  0  0  0  0  0  0
  189.8200  177.3200  144.7460 C   0  0  0  0  0  0  0  0  0  0  0  0
  188.8100  176.9880  147.0500 O   0  0  0  0  0  0  0  0  0  0  0  0
  189.2960  177.1510  145.9300 C   0  0  0  0  0  0  0  0  0  0  0  0
  191.2900  177.5790  144.6200 C   0  0  1  0  0  3  0  0  0  0  0  0
  191.6240  177.7420  143.2590 O   0  0  0  0  0  0  0  0  0  0  0  0
  191.5560  178.9100  144.0310 C   0  0  0  0  0  2  0  0  0  0  0  0
  1  9  1  0  0  0  0
  2  5  1  0  0  0  0
  3 10  2  0  0  0  0
  5  4  2  0  0  0  0
  6  8  1  0  0  0  0
  6  1  2  0  0  0  0
  7 32  1  0  0  0  0
  7  2  1  0  0  0  0
  8  7  2  0  0  0  0
  9  2  2  0  0  0  0
  9  3  1  0  0  0  0
 10  4  1  0  0  0  0
 10 33  1  0  0  0  0
 11 15  1  0  0  0  0
 12 17  2  0  0  0  0
 13  3  1  0  0  0  0
 13 15  2  0  0  0  0
 14 13  1  0  0  0  0
 16 12  1  0  0  0  0
 16 14  1  0  0  0  0
 17 11  1  0  0  0  0
 18 20  2  0  0  0  0
 18 19  1  0  0  0  0
 19 17  1  0  0  0  0
 21 18  1  0  0  0  0
 21 22  1  0  0  0  0
 25 24  1  0  0  0  0
 25 23  1  0  0  0  0
 25 22  1  0  0  0  0
 26 23  1  0  0  0  0
 27 26  1  0  0  0  0
 28 26  1  0  0  0  0
 29 26  1  0  0  0  0
 29 25  1  0  0  0  0
 30 31  1  0  0  0  0
 30 32  1  0  0  0  0
 31 32  1  0  0  0  0
 33 34  1  0  0  0  0
 34 35  1  0  0  0  0
 35 36  1  0  0  0  0
 36 38  2  0  0  0  0
 38 37  2  0  0  0  0
 39 36  1  6  0  0  0
 40 41  1  0  0  0  0
 40 39  1  0  0  0  0
 41 39  1  0  0  0  0
M  END
>  <MODEL>
5

>  <REMARK>
 VINA RESULT:      -8.8      3.040      6.261
  Name = 
  11 active torsions:
  status: ('A' for Active; 'I' for Inactive)
    1  A    between atoms: C_1  and  C_27
    2  A    between atoms: C_2  and  C_6
    3  A    between atoms: C_2  and  C_39
    4  A    between atoms: C_4  and  C_33
    5  A    between atoms: C_6  and  C_8
    6  A    between atoms: N_7  and  C_38
    7  A    between atoms: C_8  and  C_27
    8  A    between atoms: C_10  and  C_31
    9  A    between atoms: C_15  and  C_17
   10  A    between atoms: C_22  and  C_30
   11  A    between atoms: C_31  and  C_33
                            x       y       z     vdW  Elec       q    Type
                         _______ _______ _______ _____ _____    ______ ____

>  <TORSDO>
F 11

$$$$
=
 OpenBabel11042413303D

 41 46  0  0  1  0  0  0  0  0999 V2000
  186.3680  176.9370  136.8310 C   0  0  0  0  0  3  0  0  0  0  0  0
  186.2670  178.1440  138.9360 C   0  0  0  0  0  0  0  0  0  0  0  0
  188.3830  177.1750  138.2120 C   0  0  0  0  0  0  0  0  0  0  0  0
  188.1990  178.4070  140.2870 C   0  0  0  0  0  3  0  0  0  0  0  0
  186.8790  178.6120  140.0530 N   0  0  0  0  0  0  0  0  0  0  0  0
  185.0170  177.2160  136.6300 C   0  0  0  0  0  3  0  0  0  0  0  0
  184.9020  178.3980  138.6980 C   0  0  0  0  0  0  0  0  0  0  0  0
  184.3230  177.9310  137.5540 N   0  0  0  0  0  0  0  0  0  0  0  0
  187.0110  177.4060  137.9860 C   0  0  0  0  0  0  0  0  0  0  0  0
  188.9800  177.6940  139.3760 C   0  0  0  0  0  0  0  0  0  0  0  0
  190.6430  176.4110  135.2290 C   0  0  0  0  0  2  0  0  0  0  0  0
  191.7090  174.7160  136.7390 C   0  0  0  0  0  3  0  0  0  0  0  0
  189.1850  176.4460  137.2110 C   0  0  0  0  0  0  0  0  0  0  0  0
  189.1950  174.9520  137.2010 C   0  0  0  0  0  2  0  0  0  0  0  0
  189.8840  177.1220  136.3050 C   0  0  0  0  0  3  0  0  0  0  0  0
  190.5520  174.4500  137.6710 C   0  0  0  0  0  2  0  0  0  0  0  0
  191.8070  175.5950  135.7300 C   0  0  0  0  0  0  0  0  0  0  0  0
  194.2640  176.2950  135.4730 C   0  0  0  0  0  0  0  0  0  0  0  0
  193.0620  175.6440  135.0370 N   0  0  0  0  0  2  0  0  0  0  0  0
  194.3070  176.9400  136.5550 O   0  0  0  0  0  0  0  0  0  0  0  0
  195.4680  176.2640  134.6030 C   0  0  0  0  0  2  0  0  0  0  0  0
  196.7090  176.4990  135.4460 C   0  0  0  0  0  2  0  0  0  0  0  0
  196.8620  173.9730  135.0560 C   0  0  0  0  0  2  0  0  0  0  0  0
  198.8540  175.3570  135.2570 O   0  0  0  0  0  1  0  0  0  0  0  0
  197.5130  175.2210  135.6360 C   0  0  0  0  0  0  0  0  0  0  0  0
  196.7450  173.4150  136.4610 C   0  0  0  0  0  0  0  0  0  0  0  0
  197.5130  172.2660  136.6610 O   0  0  0  0  0  1  0  0  0  0  0  0
  195.4240  173.2490  136.8770 O   0  0  0  0  0  1  0  0  0  0  0  0
  197.3850  174.6600  137.0390 C   0  0  0  0  0  2  0  0  0  0  0  0
  183.2680  178.2040  140.5720 C   0  0  0  0  0  2  0  0  0  0  0  0
  182.5900  178.9070  139.4180 C   0  0  0  0  0  2  0  0  0  0  0  0
  184.0640  179.1560  139.6910 C   0  0  0  0  0  3  0  0  0  0  0  0
  190.4300  177.4910  139.6830 C   0  0  0  0  0  2  0  0  0  0  0  0
  190.6050  176.5900  140.8930 C   0  0  0  0  0  2  0  0  0  0  0  0
  191.5380  177.2210  141.9110 C   0  0  0  0  0  2  0  0  0  0  0  0
  191.1510  176.8640  143.3080 C   0  0  0  0  0  0  0  0  0  0  0  0
  192.1500  174.8050  144.4050 O   0  0  0  0  0  0  0  0  0  0  0  0
  191.6640  175.8020  143.8690 C   0  0  0  0  0  0  0  0  0  0  0  0
  190.4550  177.8830  144.1580 C   0  0  1  0  0  3  0  0  0  0  0  0
  189.6940  178.7400  143.3360 O   0  0  0  0  0  0  0  0  0  0  0  0
  188.9850  177.7640  144.0510 C   0  0  0  0  0  2  0  0  0  0  0  0
  1  9  1  0  0  0  0
  2  5  1  0  0  0  0
  3 10  2  0  0  0  0
  5  4  2  0  0  0  0
  6  1  2  0  0  0  0
  6  8  1  0  0  0  0
  7  2  1  0  0  0  0
  7 32  1  0  0  0  0
  8  7  2  0  0  0  0
  9  3  1  0  0  0  0
  9  2  2  0  0  0  0
 10 33  1  0  0  0  0
 10  4  1  0  0  0  0
 11 17  1  0  0  0  0
 11 15  1  0  0  0  0
 12 16  1  0  0  0  0
 13  3  1  0  0  0  0
 14 13  1  0  0  0  0
 14 16  1  0  0  0  0
 15 13  2  0  0  0  0
 17 12  2  0  0  0  0
 18 20  2  0  0  0  0
 19 18  1  0  0  0  0
 19 17  1  0  0  0  0
 21 22  1  0  0  0  0
 21 18  1  0  0  0  0
 22 25  1  0  0  0  0
 23 25  1  0  0  0  0
 23 26  1  0  0  0  0
 24 25  1  0  0  0  0
 25 29  1  0  0  0  0
 26 27  1  0  0  0  0
 26 28  1  0  0  0  0
 26 29  1  0  0  0  0
 31 32  1  0  0  0  0
 31 30  1  0  0  0  0
 32 30  1  0  0  0  0
 33 34  1  0  0  0  0
 34 35  1  0  0  0  0
 35 36  1  0  0  0  0
 36 38  2  0  0  0  0
 38 37  2  0  0  0  0
 39 36  1  6  0  0  0
 40 41  1  0  0  0  0
 40 39  1  0  0  0  0
 41 39  1  0  0  0  0
M  END
>  <MODEL>
6

>  <REMARK>
 VINA RESULT:      -8.3      3.186      6.629
  Name = 
  11 active torsions:
  status: ('A' for Active; 'I' for Inactive)
    1  A    between atoms: C_1  and  C_27
    2  A    between atoms: C_2  and  C_6
    3  A    between atoms: C_2  and  C_39
    4  A    between atoms: C_4  and  C_33
    5  A    between atoms: C_6  and  C_8
    6  A    between atoms: N_7  and  C_38
    7  A    between atoms: C_8  and  C_27
    8  A    between atoms: C_10  and  C_31
    9  A    between atoms: C_15  and  C_17
   10  A    between atoms: C_22  and  C_30
   11  A    between atoms: C_31  and  C_33
                            x       y       z     vdW  Elec       q    Type
                         _______ _______ _______ _____ _____    ______ ____

>  <TORSDO>
F 11

$$$$
=
 OpenBabel11042413303D

 41 46  0  0  1  0  0  0  0  0999 V2000
  188.8980  177.7400  142.4990 C   0  0  0  0  0  3  0  0  0  0  0  0
  186.5240  178.1640  142.7860 C   0  0  0  0  0  0  0  0  0  0  0  0
  187.4800  178.1840  140.5450 C   0  0  0  0  0  0  0  0  0  0  0  0
  185.1220  178.5800  140.9180 C   0  0  0  0  0  3  0  0  0  0  0  0
  185.3060  178.4380  142.2550 N   0  0  0  0  0  0  0  0  0  0  0  0
  189.0130  177.5670  143.8770 C   0  0  0  0  0  3  0  0  0  0  0  0
  186.6840  177.9880  144.1750 C   0  0  0  0  0  0  0  0  0  0  0  0
  187.9190  177.6920  144.6740 N   0  0  0  0  0  0  0  0  0  0  0  0
  187.6470  178.0340  141.9360 C   0  0  0  0  0  0  0  0  0  0  0  0
  186.1960  178.4510  140.0360 C   0  0  0  0  0  0  0  0  0  0  0  0
  190.5560  176.7060  138.8290 C   0  0  0  0  0  2  0  0  0  0  0  0
  189.5200  177.5520  136.7080 C   0  0  0  0  0  3  0  0  0  0  0  0
  188.6310  178.0070  139.6400 C   0  0  0  0  0  0  0  0  0  0  0  0
  189.0180  179.0990  138.6950 C   0  0  0  0  0  2  0  0  0  0  0  0
  189.3370  176.8810  139.6790 C   0  0  0  0  0  3  0  0  0  0  0  0
  188.6870  178.6780  137.2710 C   0  0  0  0  0  2  0  0  0  0  0  0
  190.2750  176.6470  137.3500 C   0  0  0  0  0  0  0  0  0  0  0  0
  190.8470  174.2370  136.6720 C   0  0  0  0  0  0  0  0  0  0  0  0
  190.9310  175.6640  136.5380 N   0  0  0  0  0  2  0  0  0  0  0  0
  190.1680  173.7030  137.5900 O   0  0  0  0  0  0  0  0  0  0  0  0
  191.6250  173.3700  135.7510 C   0  0  0  0  0  2  0  0  0  0  0  0
  192.8300  172.8050  136.4830 C   0  0  0  0  0  2  0  0  0  0  0  0
  195.3720  173.0540  136.6800 C   0  0  0  0  0  2  0  0  0  0  0  0
  194.0620  174.4560  135.1810 O   0  0  0  0  0  1  0  0  0  0  0  0
  194.0390  173.7240  136.3740 C   0  0  0  0  0  0  0  0  0  0  0  0
  195.5210  173.9660  137.8830 C   0  0  0  0  0  0  0  0  0  0  0  0
  196.6010  174.8440  137.7740 O   0  0  0  0  0  1  0  0  0  0  0  0
  195.5160  173.2780  139.0960 O   0  0  0  0  0  1  0  0  0  0  0  0
  194.1920  174.6260  137.5830 C   0  0  0  0  0  2  0  0  0  0  0  0
  185.6830  179.3870  145.9800 C   0  0  0  0  0  2  0  0  0  0  0  0
  186.0120  178.0280  146.5560 C   0  0  0  0  0  2  0  0  0  0  0  0
  185.5250  178.1410  145.1210 C   0  0  0  0  0  3  0  0  0  0  0  0
  185.9410  178.6210  138.5710 C   0  0  0  0  0  2  0  0  0  0  0  0
  184.6510  177.9300  138.1650 C   0  0  0  0  0  2  0  0  0  0  0  0
  184.9370  176.6750  137.3590 C   0  0  0  0  0  2  0  0  0  0  0  0
  184.0600  175.5410  137.7790 C   0  0  0  0  0  0  0  0  0  0  0  0
  182.0700  175.9800  139.2900 O   0  0  0  0  0  0  0  0  0  0  0  0
  183.0390  175.7700  138.5590 C   0  0  0  0  0  0  0  0  0  0  0  0
  184.1540  174.2360  137.0500 C   0  0  1  0  0  3  0  0  0  0  0  0
  185.1150  174.3390  136.0210 O   0  0  0  0  0  0  0  0  0  0  0  0
  185.5030  173.6420  137.1740 C   0  0  0  0  0  2  0  0  0  0  0  0
  1  6  1  0  0  0  0
  2  7  2  0  0  0  0
  3  9  1  0  0  0  0
  4  5  2  0  0  0  0
  5  2  1  0  0  0  0
  6  8  2  0  0  0  0
  7  8  1  0  0  0  0
  7 32  1  0  0  0  0
  9  1  2  0  0  0  0
  9  2  1  0  0  0  0
 10  3  2  0  0  0  0
 10  4  1  0  0  0  0
 11 15  1  0  0  0  0
 12 16  1  0  0  0  0
 12 17  2  0  0  0  0
 13 15  2  0  0  0  0
 13  3  1  0  0  0  0
 14 13  1  0  0  0  0
 16 14  1  0  0  0  0
 17 11  1  0  0  0  0
 18 20  2  0  0  0  0
 19 18  1  0  0  0  0
 19 17  1  0  0  0  0
 21 22  1  0  0  0  0
 21 18  1  0  0  0  0
 23 26  1  0  0  0  0
 24 25  1  0  0  0  0
 25 22  1  0  0  0  0
 25 23  1  0  0  0  0
 25 29  1  0  0  0  0
 26 28  1  0  0  0  0
 27 26  1  0  0  0  0
 29 26  1  0  0  0  0
 30 31  1  0  0  0  0
 32 30  1  0  0  0  0
 32 31  1  0  0  0  0
 33 10  1  0  0  0  0
 34 33  1  0  0  0  0
 35 36  1  0  0  0  0
 35 34  1  0  0  0  0
 36 38  2  0  0  0  0
 38 37  2  0  0  0  0
 39 41  1  0  0  0  0
 39 36  1  1  0  0  0
 40 39  1  0  0  0  0
 40 41  1  0  0  0  0
M  END
>  <MODEL>
7

>  <REMARK>
 VINA RESULT:      -8.1      2.797      3.984
  Name = 
  11 active torsions:
  status: ('A' for Active; 'I' for Inactive)
    1  A    between atoms: C_1  and  C_27
    2  A    between atoms: C_2  and  C_6
    3  A    between atoms: C_2  and  C_39
    4  A    between atoms: C_4  and  C_33
    5  A    between atoms: C_6  and  C_8
    6  A    between atoms: N_7  and  C_38
    7  A    between atoms: C_8  and  C_27
    8  A    between atoms: C_10  and  C_31
    9  A    between atoms: C_15  and  C_17
   10  A    between atoms: C_22  and  C_30
   11  A    between atoms: C_31  and  C_33
                            x       y       z     vdW  Elec       q    Type
                         _______ _______ _______ _____ _____    ______ ____

>  <TORSDO>
F 11

$$$$
=
 OpenBabel11042413303D

 41 46  0  0  1  0  0  0  0  0999 V2000
  180.9810  181.0740  138.5940 C   0  0  0  0  0  3  0  0  0  0  0  0
  180.6070  181.1880  136.1980 C   0  0  0  0  0  0  0  0  0  0  0  0
  181.5270  179.1520  137.1700 C   0  0  0  0  0  0  0  0  0  0  0  0
  181.1070  179.3430  134.7930 C   0  0  0  0  0  3  0  0  0  0  0  0
  180.6570  180.6100  134.9710 N   0  0  0  0  0  0  0  0  0  0  0  0
  180.4700  182.3650  138.7150 C   0  0  0  0  0  3  0  0  0  0  0  0
  180.1040  182.4940  136.3620 C   0  0  0  0  0  0  0  0  0  0  0  0
  180.0480  183.0380  137.6120 N   0  0  0  0  0  0  0  0  0  0  0  0
  181.0480  180.4670  137.3320 C   0  0  0  0  0  0  0  0  0  0  0  0
  181.5450  178.5850  135.8810 C   0  0  0  0  0  0  0  0  0  0  0  0
  183.7040  177.4080  139.7790 C   0  0  0  0  0  2  0  0  0  0  0  0
  182.0320  178.2630  141.4400 C   0  0  0  0  0  3  0  0  0  0  0  0
  181.9490  178.3690  138.3460 C   0  0  0  0  0  0  0  0  0  0  0  0
  180.9300  177.6810  139.1960 C   0  0  0  0  0  2  0  0  0  0  0  0
  183.2410  178.2610  138.6390 C   0  0  0  0  0  3  0  0  0  0  0  0
  180.8280  178.3880  140.5390 C   0  0  0  0  0  2  0  0  0  0  0  0
  183.2920  177.9150  141.1370 C   0  0  0  0  0  0  0  0  0  0  0  0
  185.5500  178.5010  142.2080 C   0  0  0  0  0  0  0  0  0  0  0  0
  184.2380  177.9190  142.2140 N   0  0  0  0  0  2  0  0  0  0  0  0
  186.0140  179.0660  141.1810 O   0  0  0  0  0  0  0  0  0  0  0  0
  186.4070  178.3810  143.4160 C   0  0  0  0  0  2  0  0  0  0  0  0
  187.2480  177.1200  143.3180 C   0  0  0  0  0  2  0  0  0  0  0  0
  189.4000  178.2510  142.5130 C   0  0  0  0  0  2  0  0  0  0  0  0
  188.9670  177.8640  144.8760 O   0  0  0  0  0  1  0  0  0  0  0  0
  188.7210  177.4020  143.5790 C   0  0  0  0  0  0  0  0  0  0  0  0
  190.2870  177.0690  142.1760 C   0  0  0  0  0  0  0  0  0  0  0  0
  191.6370  177.3000  142.4520 O   0  0  0  0  0  1  0  0  0  0  0  0
  190.0860  176.5820  140.8850 O   0  0  0  0  0  1  0  0  0  0  0  0
  189.6060  176.2210  143.2300 C   0  0  0  0  0  2  0  0  0  0  0  0
  180.5440  184.5210  134.9770 C   0  0  0  0  0  2  0  0  0  0  0  0
  179.2000  184.6840  135.6490 C   0  0  0  0  0  2  0  0  0  0  0  0
  179.6470  183.3090  135.1830 C   0  0  0  0  0  3  0  0  0  0  0  0
  182.0370  177.1940  135.6320 C   0  0  0  0  0  2  0  0  0  0  0  0
  183.5090  177.2020  135.2590 C   0  0  0  0  0  2  0  0  0  0  0  0
  184.0640  175.7900  135.2100 C   0  0  0  0  0  2  0  0  0  0  0  0
  184.7570  175.4270  136.4820 C   0  0  0  0  0  0  0  0  0  0  0  0
  186.7900  176.7490  137.2300 O   0  0  0  0  0  0  0  0  0  0  0  0
  185.8050  176.1080  136.8630 C   0  0  0  0  0  0  0  0  0  0  0  0
  184.0660  174.5280  137.4620 C   0  0  1  0  0  3  0  0  0  0  0  0
  183.6320  173.3590  136.8010 O   0  0  0  0  0  0  0  0  0  0  0  0
  184.7750  173.2370  137.6040 C   0  0  0  0  0  2  0  0  0  0  0  0
  1  6  1  0  0  0  0
  2  7  2  0  0  0  0
  2  9  1  0  0  0  0
  3  9  1  0  0  0  0
  3 13  1  0  0  0  0
  4  5  2  0  0  0  0
  4 10  1  0  0  0  0
  5  2  1  0  0  0  0
  7  8  1  0  0  0  0
  8  6  2  0  0  0  0
  9  1  2  0  0  0  0
 10  3  2  0  0  0  0
 11 17  1  0  0  0  0
 13 15  2  0  0  0  0
 13 14  1  0  0  0  0
 14 16  1  0  0  0  0
 15 11  1  0  0  0  0
 16 12  1  0  0  0  0
 17 12  2  0  0  0  0
 17 19  1  0  0  0  0
 18 19  1  0  0  0  0
 18 21  1  0  0  0  0
 20 18  2  0  0  0  0
 22 21  1  0  0  0  0
 22 25  1  0  0  0  0
 23 25  1  0  0  0  0
 25 24  1  0  0  0  0
 26 27  1  0  0  0  0
 26 23  1  0  0  0  0
 26 29  1  0  0  0  0
 28 26  1  0  0  0  0
 29 25  1  0  0  0  0
 30 32  1  0  0  0  0
 30 31  1  0  0  0  0
 32 31  1  0  0  0  0
 32  7  1  0  0  0  0
 33 10  1  0  0  0  0
 34 33  1  0  0  0  0
 35 34  1  0  0  0  0
 35 36  1  0  0  0  0
 36 38  2  0  0  0  0
 38 37  2  0  0  0  0
 39 36  1  6  0  0  0
 39 41  1  0  0  0  0
 40 39  1  0  0  0  0
 40 41  1  0  0  0  0
M  END
>  <MODEL>
8

>  <REMARK>
 VINA RESULT:      -8.1      5.679     10.306
  Name = 
  11 active torsions:
  status: ('A' for Active; 'I' for Inactive)
    1  A    between atoms: C_1  and  C_27
    2  A    between atoms: C_2  and  C_6
    3  A    between atoms: C_2  and  C_39
    4  A    between atoms: C_4  and  C_33
    5  A    between atoms: C_6  and  C_8
    6  A    between atoms: N_7  and  C_38
    7  A    between atoms: C_8  and  C_27
    8  A    between atoms: C_10  and  C_31
    9  A    between atoms: C_15  and  C_17
   10  A    between atoms: C_22  and  C_30
   11  A    between atoms: C_31  and  C_33
                            x       y       z     vdW  Elec       q    Type
                         _______ _______ _______ _____ _____    ______ ____

>  <TORSDO>
F 11

$$$$
=
 OpenBabel11042413303D

 41 46  0  0  1  0  0  0  0  0999 V2000
  181.3290  174.0080  137.5900 C   0  0  0  0  0  3  0  0  0  0  0  0
  183.1900  173.4280  136.1420 C   0  0  0  0  0  0  0  0  0  0  0  0
  183.2440  175.5270  137.3770 C   0  0  0  0  0  0  0  0  0  0  0  0
  185.0640  174.8660  135.9260 C   0  0  0  0  0  3  0  0  0  0  0  0
  184.4030  173.7250  135.6110 N   0  0  0  0  0  0  0  0  0  0  0  0
  180.7190  172.8000  137.2560 C   0  0  0  0  0  3  0  0  0  0  0  0
  182.5370  172.2200  135.8250 C   0  0  0  0  0  0  0  0  0  0  0  0
  181.3280  171.9440  136.3930 N   0  0  0  0  0  0  0  0  0  0  0  0
  182.5780  174.3330  137.0410 C   0  0  0  0  0  0  0  0  0  0  0  0
  184.5080  175.7870  136.8160 C   0  0  0  0  0  0  0  0  0  0  0  0
  181.9160  177.0260  140.6300 C   0  0  0  0  0  2  0  0  0  0  0  0
  182.9800  179.1540  139.8390 C   0  0  0  0  0  3  0  0  0  0  0  0
  182.6410  176.4610  138.3480 C   0  0  0  0  0  0  0  0  0  0  0  0
  182.0700  177.7620  137.8830 C   0  0  0  0  0  2  0  0  0  0  0  0
  182.5910  176.1350  139.6350 C   0  0  0  0  0  3  0  0  0  0  0  0
  182.9600  178.9030  138.3510 C   0  0  0  0  0  2  0  0  0  0  0  0
  182.6070  178.3480  140.8440 C   0  0  0  0  0  0  0  0  0  0  0  0
  183.8900  178.6320  143.0500 C   0  0  0  0  0  0  0  0  0  0  0  0
  182.7750  178.8570  142.1740 N   0  0  0  0  0  2  0  0  0  0  0  0
  184.8570  177.9010  142.7070 O   0  0  0  0  0  0  0  0  0  0  0  0
  183.8770  179.2210  144.4140 C   0  0  0  0  0  2  0  0  0  0  0  0
  185.3040  179.4100  144.8980 C   0  0  0  0  0  2  0  0  0  0  0  0
  186.7100  179.1200  147.0190 C   0  0  0  0  0  2  0  0  0  0  0  0
  184.4430  178.2500  146.8600 O   0  0  0  0  0  1  0  0  0  0  0  0
  185.5960  178.5750  146.1360 C   0  0  0  0  0  0  0  0  0  0  0  0
  187.5260  177.8810  146.7060 C   0  0  0  0  0  0  0  0  0  0  0  0
  187.7630  177.0830  147.8270 O   0  0  0  0  0  1  0  0  0  0  0  0
  188.6940  178.1570  145.9960 O   0  0  0  0  0  1  0  0  0  0  0  0
  186.4210  177.3420  145.8220 C   0  0  0  0  0  2  0  0  0  0  0  0
  182.6100  169.8340  135.1060 C   0  0  0  0  0  2  0  0  0  0  0  0
  183.9820  170.2240  135.6050 C   0  0  0  0  0  2  0  0  0  0  0  0
  183.1360  171.2400  134.8550 C   0  0  0  0  0  3  0  0  0  0  0  0
  185.2760  177.0320  137.1280 C   0  0  0  0  0  2  0  0  0  0  0  0
  186.7710  176.7710  137.0760 C   0  0  0  0  0  2  0  0  0  0  0  0
  187.5550  178.0540  137.2890 C   0  0  0  0  0  2  0  0  0  0  0  0
  188.7870  177.8180  138.0990 C   0  0  0  0  0  0  0  0  0  0  0  0
  190.7680  176.6220  137.0580 O   0  0  0  0  0  0  0  0  0  0  0  0
  189.8040  177.1990  137.5610 C   0  0  0  0  0  0  0  0  0  0  0  0
  188.9750  178.5700  139.3810 C   0  0  1  0  0  3  0  0  0  0  0  0
  187.7490  178.6290  140.0760 O   0  0  0  0  0  0  0  0  0  0  0  0
  188.6970  177.7150  140.5550 C   0  0  0  0  0  2  0  0  0  0  0  0
  2  9  1  0  0  0  0
  3 13  1  0  0  0  0
  4 10  1  0  0  0  0
  5  4  2  0  0  0  0
  5  2  1  0  0  0  0
  6  1  1  0  0  0  0
  7  2  2  0  0  0  0
  7  8  1  0  0  0  0
  8  6  2  0  0  0  0
  9  3  1  0  0  0  0
  9  1  2  0  0  0  0
 10 33  1  0  0  0  0
 10  3  2  0  0  0  0
 11 17  1  0  0  0  0
 12 17  2  0  0  0  0
 13 15  2  0  0  0  0
 14 13  1  0  0  0  0
 14 16  1  0  0  0  0
 15 11  1  0  0  0  0
 16 12  1  0  0  0  0
 17 19  1  0  0  0  0
 18 21  1  0  0  0  0
 19 18  1  0  0  0  0
 20 18  2  0  0  0  0
 21 22  1  0  0  0  0
 22 25  1  0  0  0  0
 25 24  1  0  0  0  0
 25 23  1  0  0  0  0
 26 23  1  0  0  0  0
 26 27  1  0  0  0  0
 28 26  1  0  0  0  0
 29 25  1  0  0  0  0
 29 26  1  0  0  0  0
 30 31  1  0  0  0  0
 32 30  1  0  0  0  0
 32 31  1  0  0  0  0
 32  7  1  0  0  0  0
 34 33  1  0  0  0  0
 34 35  1  0  0  0  0
 35 36  1  0  0  0  0
 37 38  2  0  0  0  0
 38 36  2  0  0  0  0
 39 36  1  6  0  0  0
 39 40  1  0  0  0  0
 39 41  1  0  0  0  0
 40 41  1  0  0  0  0
M  END
>  <MODEL>
9

>  <REMARK>
 VINA RESULT:      -8.1      5.067     11.073
  Name = 
  11 active torsions:
  status: ('A' for Active; 'I' for Inactive)
    1  A    between atoms: C_1  and  C_27
    2  A    between atoms: C_2  and  C_6
    3  A    between atoms: C_2  and  C_39
    4  A    between atoms: C_4  and  C_33
    5  A    between atoms: C_6  and  C_8
    6  A    between atoms: N_7  and  C_38
    7  A    between atoms: C_8  and  C_27
    8  A    between atoms: C_10  and  C_31
    9  A    between atoms: C_15  and  C_17
   10  A    between atoms: C_22  and  C_30
   11  A    between atoms: C_31  and  C_33
                            x       y       z     vdW  Elec       q    Type
                         _______ _______ _______ _____ _____    ______ ____

>  <TORSDO>
F 11

$$$$
