=
 OpenBabel11042412123D

 37 39  0  0  1  0  0  0  0  0999 V2000
  185.5260  179.0450  141.4420 C   0  0  0  0  0  0  0  0  0  0  0  0
  189.2340  177.7080  142.9960 C   0  0  1  0  0  3  0  0  0  0  0  0
  185.4520  179.6730  140.3500 O   0  0  0  0  0  0  0  0  0  0  0  0
  187.8830  177.5930  143.7000 C   0  0  0  0  0  2  0  0  0  0  0  0
  189.2020  178.9280  142.0760 C   0  0  0  0  0  2  0  0  0  0  0  0
  186.7890  178.4810  141.8440 N   0  0  0  0  0  0  0  0  0  0  0  0
  186.8270  177.3720  142.7140 N   0  0  0  0  0  2  0  0  0  0  0  0
  188.0080  178.8680  141.1230 C   0  0  2  0  0  3  0  0  0  0  0  0
  188.5010  176.5990  137.1540 C   0  0  0  0  0  0  0  0  0  0  0  0
  187.3630  177.9340  138.9380 C   0  0  0  0  0  3  0  0  0  0  0  0
  187.4020  177.0840  137.7320 C   0  0  0  0  0  3  0  0  0  0  0  0
  188.2690  177.9900  139.9300 C   0  0  0  0  0  0  0  0  0  0  0  0
  188.3310  175.5780  135.7430 Cl  0  0  0  0  0  0  0  0  0  0  0  0
  190.1320  176.6010  139.0050 C   0  0  0  0  0  3  0  0  0  0  0  0
  189.8730  176.9930  137.5900 C   0  0  0  0  0  2  0  0  0  0  0  0
  189.4320  177.0820  140.0320 C   0  0  0  0  0  3  0  0  0  0  0  0
  183.0650  178.6870  141.6740 C   0  0  0  0  0  3  0  0  0  0  0  0
  183.1820  178.9860  144.4260 C   0  0  0  0  0  3  0  0  0  0  0  0
  181.9700  178.7400  143.7800 C   0  0  0  0  0  3  0  0  0  0  0  0
  181.9360  178.5980  142.4290 N   0  0  0  0  0  0  0  0  0  0  0  0
  184.3080  178.9240  142.2780 C   0  0  0  0  0  0  0  0  0  0  0  0
  184.3510  179.0790  143.6690 C   0  0  0  0  0  3  0  0  0  0  0  0
  190.3750  177.8050  144.0160 C   0  0  2  0  0  3  0  0  0  0  0  0
  191.7470  179.5450  144.2200 C   0  0  0  0  0  1  0  0  0  0  0  0
  191.4960  178.4170  143.4360 O   0  0  0  0  0  0  0  0  0  0  0  0
  191.1230  175.5140  143.4360 N   0  0  0  0  0  1  0  0  0  0  0  0
  190.7420  176.4020  144.5250 C   0  0  1  0  0  3  0  0  0  0  0  0
  191.7860  176.3960  145.6440 C   0  0  0  0  0  2  0  0  0  0  0  0
  191.9950  176.7640  147.9950 O   0  0  0  0  0  0  0  0  0  0  0  0
  191.2200  176.6690  147.0080 C   0  0  0  0  0  0  0  0  0  0  0  0
  189.8440  176.7930  147.2110 O   0  0  0  0  0  0  0  0  0  0  0  0
  189.2240  178.0180  147.5880 C   0  0  2  0  0  3  0  0  0  0  0  0
  189.8320  178.5390  148.7170 F   0  0  0  0  0  0  0  0  0  0  0  0
  187.7710  177.7890  147.8570 C   0  0  0  0  0  0  0  0  0  0  0  0
  187.4120  177.3030  148.9170 O   0  0  0  0  0  0  0  0  0  0  0  0
  186.7550  178.1310  146.8200 C   0  0  0  0  0  2  0  0  0  0  0  0
  185.8120  179.0140  147.3500 O   0  0  0  0  0  1  0  0  0  0  0  0
  1  6  1  0  0  0  0
  1 21  1  0  0  0  0
  2  4  1  0  0  0  0
  2 23  1  1  0  0  0
  3  1  2  0  0  0  0
  5  2  1  0  0  0  0
  6  7  1  0  0  0  0
  7  4  1  0  0  0  0
  8 12  1  6  0  0  0
  8  6  1  0  0  0  0
  8  5  1  0  0  0  0
  9 15  1  0  0  0  0
  9 11  2  0  0  0  0
 10 12  2  0  0  0  0
 11 10  1  0  0  0  0
 12 16  1  0  0  0  0
 13  9  1  0  0  0  0
 14 16  2  0  0  0  0
 15 14  1  0  0  0  0
 17 21  2  0  0  0  0
 17 20  1  0  0  0  0
 19 18  1  0  0  0  0
 20 19  2  0  0  0  0
 21 22  1  0  0  0  0
 22 18  2  0  0  0  0
 23 25  1  6  0  0  0
 23 27  1  0  0  0  0
 25 24  1  0  0  0  0
 27 26  1  6  0  0  0
 27 28  1  0  0  0  0
 28 30  1  0  0  0  0
 30 31  1  0  0  0  0
 30 29  2  0  0  0  0
 31 32  1  0  0  0  0
 32 34  1  0  0  0  0
 32 33  1  1  0  0  0
 34 35  2  0  0  0  0
 36 37  1  0  0  0  0
 36 34  1  0  0  0  0
M  END
>  <MODEL>
1

>  <REMARK>
 VINA RESULT:      -8.3      0.000      0.000
  Name = 
  11 active torsions:
  status: ('A' for Active; 'I' for Inactive)
    1  A    between atoms: C_5  and  C_30
    2  A    between atoms: C_8  and  C_31
    3  A    between atoms: C_8  and  C_36
    4  A    between atoms: O_10  and  C_32
    5  A    between atoms: C_11  and  O_13
    6  A    between atoms: C_11  and  C_30
    7  A    between atoms: C_12  and  C_14
    8  A    between atoms: O_13  and  C_31
    9  A    between atoms: C_16  and  C_35
   10  A    between atoms: C_18  and  C_32
   11  A    between atoms: C_32  and  C_36
                            x       y       z     vdW  Elec       q    Type
                         _______ _______ _______ _____ _____    ______ ____

>  <TORSDO>
F 11

$$$$
=
 OpenBabel11042412123D

 37 39  0  0  1  0  0  0  0  0999 V2000
  185.3770  178.0680  138.3960 C   0  0  0  0  0  0  0  0  0  0  0  0
  184.2020  178.8170  142.3970 C   0  0  1  0  0  3  0  0  0  0  0  0
  184.5590  177.6500  137.5300 O   0  0  0  0  0  0  0  0  0  0  0  0
  185.6290  178.9110  141.8570 C   0  0  0  0  0  2  0  0  0  0  0  0
  183.4350  177.7850  141.5700 C   0  0  0  0  0  2  0  0  0  0  0  0
  184.8910  178.4520  139.6950 N   0  0  0  0  0  0  0  0  0  0  0  0
  185.6070  179.3830  140.4750 N   0  0  0  0  0  2  0  0  0  0  0  0
  183.5160  178.1060  140.0770 C   0  0  2  0  0  3  0  0  0  0  0  0
  180.8300  181.3930  138.3090 C   0  0  0  0  0  0  0  0  0  0  0  0
  182.9450  180.2180  138.9490 C   0  0  0  0  0  3  0  0  0  0  0  0
  182.1480  181.3830  138.5150 C   0  0  0  0  0  3  0  0  0  0  0  0
  182.5250  179.1570  139.6610 C   0  0  0  0  0  0  0  0  0  0  0  0
  180.0650  182.8910  137.8270 Cl  0  0  0  0  0  0  0  0  0  0  0  0
  180.0500  179.5120  139.7020 C   0  0  0  0  0  3  0  0  0  0  0  0
  180.0040  180.1510  138.3550 C   0  0  0  0  0  2  0  0  0  0  0  0
  181.1730  179.0460  140.2480 C   0  0  0  0  0  3  0  0  0  0  0  0
  187.2080  178.6570  136.8020 C   0  0  0  0  0  3  0  0  0  0  0  0
  189.1520  177.6990  138.5290 C   0  0  0  0  0  3  0  0  0  0  0  0
  189.4940  178.2360  137.2870 C   0  0  0  0  0  3  0  0  0  0  0  0
  188.5240  178.7000  136.4560 N   0  0  0  0  0  0  0  0  0  0  0  0
  186.8150  178.1340  138.0420 C   0  0  0  0  0  0  0  0  0  0  0  0
  187.8080  177.6470  138.9020 C   0  0  0  0  0  3  0  0  0  0  0  0
  184.2030  178.4540  143.8860 C   0  0  2  0  0  3  0  0  0  0  0  0
  182.0320  178.8710  144.1440 C   0  0  0  0  0  1  0  0  0  0  0  0
  183.2970  179.2650  144.5860 O   0  0  0  0  0  0  0  0  0  0  0  0
  185.6120  179.3950  145.6950 N   0  0  0  0  0  1  0  0  0  0  0  0
  185.6170  178.6190  144.4630 C   0  0  1  0  0  3  0  0  0  0  0  0
  186.3810  177.3040  144.6340 C   0  0  0  0  0  2  0  0  0  0  0  0
  188.4040  177.2500  145.9050 O   0  0  0  0  0  0  0  0  0  0  0  0
  187.8650  177.4760  144.7900 C   0  0  0  0  0  0  0  0  0  0  0  0
  188.6610  177.9110  143.7280 O   0  0  0  0  0  0  0  0  0  0  0  0
  189.0590  177.0580  142.6600 C   0  0  2  0  0  3  0  0  0  0  0  0
  188.7560  175.7400  142.9550 F   0  0  0  0  0  0  0  0  0  0  0  0
  190.5280  177.1970  142.4210 C   0  0  0  0  0  0  0  0  0  0  0  0
  191.0070  176.8930  141.3410 O   0  0  0  0  0  0  0  0  0  0  0  0
  191.4220  177.6850  143.5110 C   0  0  0  0  0  2  0  0  0  0  0  0
  191.6540  176.6610  144.4310 O   0  0  0  0  0  1  0  0  0  0  0  0
  1  6  1  0  0  0  0
  2 23  1  1  0  0  0
  3  1  2  0  0  0  0
  4  2  1  0  0  0  0
  5  2  1  0  0  0  0
  6  8  1  0  0  0  0
  6  7  1  0  0  0  0
  7  4  1  0  0  0  0
  8 12  1  1  0  0  0
  8  5  1  0  0  0  0
  9 15  1  0  0  0  0
  9 11  2  0  0  0  0
 10 12  2  0  0  0  0
 11 10  1  0  0  0  0
 12 16  1  0  0  0  0
 13  9  1  0  0  0  0
 14 16  2  0  0  0  0
 15 14  1  0  0  0  0
 17 21  1  0  0  0  0
 18 22  1  0  0  0  0
 19 18  2  0  0  0  0
 20 17  2  0  0  0  0
 20 19  1  0  0  0  0
 21  1  1  0  0  0  0
 21 22  2  0  0  0  0
 23 27  1  0  0  0  0
 23 25  1  1  0  0  0
 24 25  1  0  0  0  0
 27 28  1  0  0  0  0
 27 26  1  1  0  0  0
 28 30  1  0  0  0  0
 30 29  2  0  0  0  0
 31 30  1  0  0  0  0
 32 33  1  1  0  0  0
 32 31  1  0  0  0  0
 34 32  1  0  0  0  0
 34 36  1  0  0  0  0
 35 34  2  0  0  0  0
 36 37  1  0  0  0  0
M  END
>  <MODEL>
2

>  <REMARK>
 VINA RESULT:      -7.8      3.305      6.809
  Name = 
  11 active torsions:
  status: ('A' for Active; 'I' for Inactive)
    1  A    between atoms: C_5  and  C_30
    2  A    between atoms: C_8  and  C_31
    3  A    between atoms: C_8  and  C_36
    4  A    between atoms: O_10  and  C_32
    5  A    between atoms: C_11  and  O_13
    6  A    between atoms: C_11  and  C_30
    7  A    between atoms: C_12  and  C_14
    8  A    between atoms: O_13  and  C_31
    9  A    between atoms: C_16  and  C_35
   10  A    between atoms: C_18  and  C_32
   11  A    between atoms: C_32  and  C_36
                            x       y       z     vdW  Elec       q    Type
                         _______ _______ _______ _____ _____    ______ ____

>  <TORSDO>
F 11

$$$$
=
 OpenBabel11042412123D

 37 39  0  0  1  0  0  0  0  0999 V2000
  192.9180  176.5420  138.5720 C   0  0  0  0  0  0  0  0  0  0  0  0
  188.6880  176.4770  138.3320 C   0  0  1  0  0  3  0  0  0  0  0  0
  193.5300  177.3890  139.2800 O   0  0  0  0  0  0  0  0  0  0  0  0
  189.6380  175.5890  137.5290 C   0  0  0  0  0  2  0  0  0  0  0  0
  189.4020  177.7910  138.6490 C   0  0  0  0  0  2  0  0  0  0  0  0
  191.4820  176.4680  138.6490 N   0  0  0  0  0  0  0  0  0  0  0  0
  190.8150  175.2670  138.3320 N   0  0  0  0  0  2  0  0  0  0  0  0
  190.7450  177.5370  139.3340 C   0  0  2  0  0  3  0  0  0  0  0  0
  190.7230  177.1610  143.9170 C   0  0  0  0  0  0  0  0  0  0  0  0
  191.6680  177.3970  141.6130 C   0  0  0  0  0  3  0  0  0  0  0  0
  191.7430  177.1130  143.0600 C   0  0  0  0  0  3  0  0  0  0  0  0
  190.5970  177.2760  140.8080 C   0  0  0  0  0  0  0  0  0  0  0  0
  191.0130  176.7540  145.5940 Cl  0  0  0  0  0  0  0  0  0  0  0  0
  188.7660  176.8300  142.4520 C   0  0  0  0  0  3  0  0  0  0  0  0
  189.3730  177.6650  143.5270 C   0  0  0  0  0  2  0  0  0  0  0  0
  189.3070  176.6990  141.2410 C   0  0  0  0  0  3  0  0  0  0  0  0
  193.6810  175.8750  136.2890 C   0  0  0  0  0  3  0  0  0  0  0  0
  195.1630  173.7620  137.2950 C   0  0  0  0  0  3  0  0  0  0  0  0
  195.1140  174.0180  135.9250 C   0  0  0  0  0  3  0  0  0  0  0  0
  194.3800  175.0610  135.4530 N   0  0  0  0  0  0  0  0  0  0  0  0
  193.7050  175.6630  137.6750 C   0  0  0  0  0  0  0  0  0  0  0  0
  194.4530  174.5870  138.1680 C   0  0  0  0  0  3  0  0  0  0  0  0
  187.3840  176.7190  137.5630 C   0  0  2  0  0  3  0  0  0  0  0  0
  186.5320  175.8820  135.6850 C   0  0  0  0  0  1  0  0  0  0  0  0
  187.6080  176.6200  136.1820 O   0  0  0  0  0  0  0  0  0  0  0  0
  187.1930  179.1040  136.9190 N   0  0  0  0  0  1  0  0  0  0  0  0
  186.8220  178.1060  137.9100 C   0  0  1  0  0  3  0  0  0  0  0  0
  185.3160  178.1200  138.1820 C   0  0  0  0  0  2  0  0  0  0  0  0
  184.4920  180.1100  139.2180 O   0  0  0  0  0  0  0  0  0  0  0  0
  184.9190  178.9370  139.3790 C   0  0  0  0  0  0  0  0  0  0  0  0
  185.0410  178.4300  140.6750 O   0  0  0  0  0  0  0  0  0  0  0  0
  185.3620  179.2440  141.7970 C   0  0  2  0  0  3  0  0  0  0  0  0
  186.7260  179.4740  141.8520 F   0  0  0  0  0  0  0  0  0  0  0  0
  184.9120  178.5730  143.0550 C   0  0  0  0  0  0  0  0  0  0  0  0
  185.6450  177.7830  143.6260 O   0  0  0  0  0  0  0  0  0  0  0  0
  183.5530  178.8480  143.6050 C   0  0  0  0  0  2  0  0  0  0  0  0
  182.6150  178.8650  142.5710 O   0  0  0  0  0  1  0  0  0  0  0  0
  1  6  1  0  0  0  0
  1  3  2  0  0  0  0
  2 23  1  6  0  0  0
  2  5  1  0  0  0  0
  4  2  1  0  0  0  0
  4  7  1  0  0  0  0
  5  8  1  0  0  0  0
  6  8  1  0  0  0  0
  7  6  1  0  0  0  0
  8 12  1  1  0  0  0
  9 13  1  0  0  0  0
 10 11  1  0  0  0  0
 11  9  2  0  0  0  0
 12 16  1  0  0  0  0
 12 10  2  0  0  0  0
 14 15  1  0  0  0  0
 15  9  1  0  0  0  0
 16 14  2  0  0  0  0
 17 21  1  0  0  0  0
 18 22  1  0  0  0  0
 19 18  2  0  0  0  0
 20 19  1  0  0  0  0
 20 17  2  0  0  0  0
 21 22  2  0  0  0  0
 21  1  1  0  0  0  0
 23 25  1  6  0  0  0
 23 27  1  0  0  0  0
 24 25  1  0  0  0  0
 27 26  1  6  0  0  0
 27 28  1  0  0  0  0
 28 30  1  0  0  0  0
 29 30  2  0  0  0  0
 30 31  1  0  0  0  0
 31 32  1  0  0  0  0
 32 33  1  1  0  0  0
 32 34  1  0  0  0  0
 34 36  1  0  0  0  0
 34 35  2  0  0  0  0
 37 36  1  0  0  0  0
M  END
>  <MODEL>
3

>  <REMARK>
 VINA RESULT:      -7.8      3.964      8.583
  Name = 
  11 active torsions:
  status: ('A' for Active; 'I' for Inactive)
    1  A    between atoms: C_5  and  C_30
    2  A    between atoms: C_8  and  C_31
    3  A    between atoms: C_8  and  C_36
    4  A    between atoms: O_10  and  C_32
    5  A    between atoms: C_11  and  O_13
    6  A    between atoms: C_11  and  C_30
    7  A    between atoms: C_12  and  C_14
    8  A    between atoms: O_13  and  C_31
    9  A    between atoms: C_16  and  C_35
   10  A    between atoms: C_18  and  C_32
   11  A    between atoms: C_32  and  C_36
                            x       y       z     vdW  Elec       q    Type
                         _______ _______ _______ _____ _____    ______ ____

>  <TORSDO>
F 11

$$$$
=
 OpenBabel11042412123D

 37 39  0  0  1  0  0  0  0  0999 V2000
  185.3360  177.8460  137.8790 C   0  0  0  0  0  0  0  0  0  0  0  0
  183.9970  178.8200  141.7780 C   0  0  1  0  0  3  0  0  0  0  0  0
  184.5640  177.3350  137.0200 O   0  0  0  0  0  0  0  0  0  0  0  0
  185.4360  178.9360  141.2780 C   0  0  0  0  0  2  0  0  0  0  0  0
  183.3000  177.7020  141.0030 C   0  0  0  0  0  2  0  0  0  0  0  0
  184.7910  178.2980  139.1320 N   0  0  0  0  0  0  0  0  0  0  0  0
  185.4420  179.3100  139.8660 N   0  0  0  0  0  2  0  0  0  0  0  0
  183.4190  177.9210  139.4950 C   0  0  2  0  0  3  0  0  0  0  0  0
  180.7750  181.1950  137.6410 C   0  0  0  0  0  0  0  0  0  0  0  0
  182.7480  180.1870  138.8040 C   0  0  0  0  0  3  0  0  0  0  0  0
  181.8790  181.3040  138.3800 C   0  0  0  0  0  3  0  0  0  0  0  0
  182.4010  178.8990  138.9750 C   0  0  0  0  0  0  0  0  0  0  0  0
  179.8620  182.6420  137.2730 Cl  0  0  0  0  0  0  0  0  0  0  0  0
  180.0810  178.8620  138.0430 C   0  0  0  0  0  3  0  0  0  0  0  0
  180.3550  179.9070  137.0150 C   0  0  0  0  0  2  0  0  0  0  0  0
  181.0120  178.4030  138.8790 C   0  0  0  0  0  3  0  0  0  0  0  0
  187.7320  177.7510  138.5770 C   0  0  0  0  0  3  0  0  0  0  0  0
  188.6020  178.3890  136.0250 C   0  0  0  0  0  3  0  0  0  0  0  0
  189.5100  178.1770  137.0630 C   0  0  0  0  0  3  0  0  0  0  0  0
  189.0610  177.8660  138.3070 N   0  0  0  0  0  0  0  0  0  0  0  0
  186.7810  177.9470  137.5660 C   0  0  0  0  0  0  0  0  0  0  0  0
  187.2350  178.2750  136.2820 C   0  0  0  0  0  3  0  0  0  0  0  0
  183.9630  178.5600  143.2890 C   0  0  2  0  0  3  0  0  0  0  0  0
  181.8880  178.8090  144.0560 C   0  0  0  0  0  1  0  0  0  0  0  0
  183.1070  179.4760  143.9200 O   0  0  0  0  0  0  0  0  0  0  0  0
  185.3930  179.4060  145.1270 N   0  0  0  0  0  1  0  0  0  0  0  0
  185.3800  178.6710  143.8710 C   0  0  1  0  0  3  0  0  0  0  0  0
  186.1110  177.3330  143.9980 C   0  0  0  0  0  2  0  0  0  0  0  0
  188.2020  177.9000  142.9910 O   0  0  0  0  0  0  0  0  0  0  0  0
  187.6080  177.4530  144.0060 C   0  0  0  0  0  0  0  0  0  0  0  0
  188.3620  177.0510  145.1120 O   0  0  0  0  0  0  0  0  0  0  0  0
  189.1790  177.9450  145.8580 C   0  0  2  0  0  3  0  0  0  0  0  0
  190.3870  178.1480  145.2120 F   0  0  0  0  0  0  0  0  0  0  0  0
  189.4240  177.3880  147.2240 C   0  0  0  0  0  0  0  0  0  0  0  0
  190.2450  176.5010  147.3870 O   0  0  0  0  0  0  0  0  0  0  0  0
  188.6470  177.8970  148.3910 C   0  0  0  0  0  2  0  0  0  0  0  0
  187.4220  178.4100  147.9600 O   0  0  0  0  0  1  0  0  0  0  0  0
  1  6  1  0  0  0  0
  2 23  1  1  0  0  0
  3  1  2  0  0  0  0
  4  2  1  0  0  0  0
  5  2  1  0  0  0  0
  6  8  1  0  0  0  0
  6  7  1  0  0  0  0
  7  4  1  0  0  0  0
  8 12  1  1  0  0  0
  8  5  1  0  0  0  0
  9 11  2  0  0  0  0
 10 12  2  0  0  0  0
 11 10  1  0  0  0  0
 13  9  1  0  0  0  0
 14 16  2  0  0  0  0
 15  9  1  0  0  0  0
 15 14  1  0  0  0  0
 16 12  1  0  0  0  0
 18 22  2  0  0  0  0
 18 19  1  0  0  0  0
 19 20  2  0  0  0  0
 20 17  1  0  0  0  0
 21  1  1  0  0  0  0
 21 17  2  0  0  0  0
 22 21  1  0  0  0  0
 23 27  1  0  0  0  0
 23 25  1  1  0  0  0
 25 24  1  0  0  0  0
 27 28  1  0  0  0  0
 27 26  1  1  0  0  0
 28 30  1  0  0  0  0
 29 30  2  0  0  0  0
 30 31  1  0  0  0  0
 31 32  1  0  0  0  0
 32 33  1  6  0  0  0
 32 34  1  0  0  0  0
 34 35  2  0  0  0  0
 34 36  1  0  0  0  0
 37 36  1  0  0  0  0
M  END
>  <MODEL>
4

>  <REMARK>
 VINA RESULT:      -7.5      3.305      6.571
  Name = 
  11 active torsions:
  status: ('A' for Active; 'I' for Inactive)
    1  A    between atoms: C_5  and  C_30
    2  A    between atoms: C_8  and  C_31
    3  A    between atoms: C_8  and  C_36
    4  A    between atoms: O_10  and  C_32
    5  A    between atoms: C_11  and  O_13
    6  A    between atoms: C_11  and  C_30
    7  A    between atoms: C_12  and  C_14
    8  A    between atoms: O_13  and  C_31
    9  A    between atoms: C_16  and  C_35
   10  A    between atoms: C_18  and  C_32
   11  A    between atoms: C_32  and  C_36
                            x       y       z     vdW  Elec       q    Type
                         _______ _______ _______ _____ _____    ______ ____

>  <TORSDO>
F 11

$$$$
=
 OpenBabel11042412123D

 37 39  0  0  1  0  0  0  0  0999 V2000
  185.3700  179.0910  140.9760 C   0  0  0  0  0  0  0  0  0  0  0  0
  189.2380  177.4260  141.4440 C   0  0  1  0  0  3  0  0  0  0  0  0
  185.0380  179.7150  139.9300 O   0  0  0  0  0  0  0  0  0  0  0  0
  188.1430  177.4420  142.5100 C   0  0  0  0  0  2  0  0  0  0  0  0
  189.0470  178.6370  140.5310 C   0  0  0  0  0  2  0  0  0  0  0  0
  186.6410  178.4150  141.0170 N   0  0  0  0  0  0  0  0  0  0  0  0
  186.8320  177.3140  141.8760 N   0  0  0  0  0  2  0  0  0  0  0  0
  187.6280  178.6810  139.9640 C   0  0  2  0  0  3  0  0  0  0  0  0
  187.3980  175.4900  136.6610 C   0  0  0  0  0  0  0  0  0  0  0  0
  188.4000  176.8560  138.5020 C   0  0  0  0  0  3  0  0  0  0  0  0
  188.4490  175.9330  137.3510 C   0  0  0  0  0  3  0  0  0  0  0  0
  187.4560  177.7740  138.7770 C   0  0  0  0  0  0  0  0  0  0  0  0
  187.6710  174.4240  135.3010 Cl  0  0  0  0  0  0  0  0  0  0  0  0
  185.7020  177.2330  137.0780 C   0  0  0  0  0  3  0  0  0  0  0  0
  185.9920  175.7700  137.0780 C   0  0  0  0  0  2  0  0  0  0  0  0
  186.3390  178.1000  137.8660 C   0  0  0  0  0  3  0  0  0  0  0  0
  184.8960  179.4780  143.3980 C   0  0  0  0  0  3  0  0  0  0  0  0
  182.2650  178.6560  143.1140 C   0  0  0  0  0  3  0  0  0  0  0  0
  182.7630  179.0590  144.3530 C   0  0  0  0  0  3  0  0  0  0  0  0
  184.0570  179.4580  144.4690 N   0  0  0  0  0  0  0  0  0  0  0  0
  184.4400  179.0900  142.1300 C   0  0  0  0  0  0  0  0  0  0  0  0
  183.1100  178.6700  142.0030 C   0  0  0  0  0  3  0  0  0  0  0  0
  190.6290  177.4240  142.0900 C   0  0  2  0  0  3  0  0  0  0  0  0
  192.3880  177.6480  140.7450 C   0  0  0  0  0  1  0  0  0  0  0  0
  191.5310  176.6960  141.2990 O   0  0  0  0  0  0  0  0  0  0  0  0
  191.3900  175.6350  143.6270 N   0  0  0  0  0  1  0  0  0  0  0  0
  190.5500  176.8170  143.4990 C   0  0  1  0  0  3  0  0  0  0  0  0
  190.8150  177.8170  144.6270 C   0  0  0  0  0  2  0  0  0  0  0  0
  191.4970  177.0820  146.7960 O   0  0  0  0  0  0  0  0  0  0  0  0
  190.5410  177.2760  146.0000 C   0  0  0  0  0  0  0  0  0  0  0  0
  189.2430  176.9550  146.4070 O   0  0  0  0  0  0  0  0  0  0  0  0
  188.3700  177.8950  147.0230 C   0  0  2  0  0  3  0  0  0  0  0  0
  188.3540  177.7120  148.3960 F   0  0  0  0  0  0  0  0  0  0  0  0
  186.9880  177.7360  146.4770 C   0  0  0  0  0  0  0  0  0  0  0  0
  186.8090  177.1680  145.4120 O   0  0  0  0  0  0  0  0  0  0  0  0
  185.8200  178.2950  147.2190 C   0  0  0  0  0  2  0  0  0  0  0  0
  185.9230  179.6850  147.2900 O   0  0  0  0  0  1  0  0  0  0  0  0
  1  6  1  0  0  0  0
  1 21  1  0  0  0  0
  2 23  1  1  0  0  0
  2  4  1  0  0  0  0
  3  1  2  0  0  0  0
  5  2  1  0  0  0  0
  6  7  1  0  0  0  0
  7  4  1  0  0  0  0
  8 12  1  6  0  0  0
  8  5  1  0  0  0  0
  8  6  1  0  0  0  0
  9 15  1  0  0  0  0
  9 11  2  0  0  0  0
 10 12  2  0  0  0  0
 11 10  1  0  0  0  0
 13  9  1  0  0  0  0
 14 15  1  0  0  0  0
 14 16  2  0  0  0  0
 16 12  1  0  0  0  0
 17 20  1  0  0  0  0
 18 19  1  0  0  0  0
 19 20  2  0  0  0  0
 21 17  2  0  0  0  0
 22 21  1  0  0  0  0
 22 18  2  0  0  0  0
 23 25  1  6  0  0  0
 23 27  1  0  0  0  0
 24 25  1  0  0  0  0
 27 26  1  6  0  0  0
 27 28  1  0  0  0  0
 28 30  1  0  0  0  0
 30 31  1  0  0  0  0
 30 29  2  0  0  0  0
 31 32  1  0  0  0  0
 32 33  1  1  0  0  0
 34 32  1  0  0  0  0
 34 36  1  0  0  0  0
 35 34  2  0  0  0  0
 36 37  1  0  0  0  0
M  END
>  <MODEL>
5

>  <REMARK>
 VINA RESULT:      -7.5      1.429      2.083
  Name = 
  11 active torsions:
  status: ('A' for Active; 'I' for Inactive)
    1  A    between atoms: C_5  and  C_30
    2  A    between atoms: C_8  and  C_31
    3  A    between atoms: C_8  and  C_36
    4  A    between atoms: O_10  and  C_32
    5  A    between atoms: C_11  and  O_13
    6  A    between atoms: C_11  and  C_30
    7  A    between atoms: C_12  and  C_14
    8  A    between atoms: O_13  and  C_31
    9  A    between atoms: C_16  and  C_35
   10  A    between atoms: C_18  and  C_32
   11  A    between atoms: C_32  and  C_36
                            x       y       z     vdW  Elec       q    Type
                         _______ _______ _______ _____ _____    ______ ____

>  <TORSDO>
F 11

$$$$
=
 OpenBabel11042412123D

 37 39  0  0  1  0  0  0  0  0999 V2000
  181.5810  179.6610  139.4160 C   0  0  0  0  0  0  0  0  0  0  0  0
  185.6520  178.5590  139.0040 C   0  0  1  0  0  3  0  0  0  0  0  0
  180.7870  179.0060  140.1460 O   0  0  0  0  0  0  0  0  0  0  0  0
  184.9550  179.6860  138.2430 C   0  0  0  0  0  2  0  0  0  0  0  0
  184.6150  177.4890  139.3460 C   0  0  0  0  0  2  0  0  0  0  0  0
  182.9840  179.3350  139.4350 N   0  0  0  0  0  0  0  0  0  0  0  0
  183.9440  180.3090  139.0940 N   0  0  0  0  0  2  0  0  0  0  0  0
  183.4220  178.0940  140.0860 C   0  0  2  0  0  3  0  0  0  0  0  0
  184.7860  178.9020  144.4030 C   0  0  0  0  0  0  0  0  0  0  0  0
  184.9510  178.1760  142.0140 C   0  0  0  0  0  3  0  0  0  0  0  0
  185.4060  178.2520  143.4170 C   0  0  0  0  0  3  0  0  0  0  0  0
  183.6930  178.2840  141.5530 C   0  0  0  0  0  0  0  0  0  0  0  0
  185.4720  178.8430  146.0110 Cl  0  0  0  0  0  0  0  0  0  0  0  0
  182.4550  179.0030  143.6030 C   0  0  0  0  0  3  0  0  0  0  0  0
  183.6000  179.7760  144.1620 C   0  0  0  0  0  2  0  0  0  0  0  0
  182.5040  178.3780  142.4270 C   0  0  0  0  0  3  0  0  0  0  0  0
  180.3730  181.8290  139.1320 C   0  0  0  0  0  3  0  0  0  0  0  0
  180.5740  181.6900  136.3720 C   0  0  0  0  0  3  0  0  0  0  0  0
  179.9320  182.7620  136.9940 C   0  0  0  0  0  3  0  0  0  0  0  0
  179.8460  182.8090  138.3500 N   0  0  0  0  0  0  0  0  0  0  0  0
  181.0340  180.7350  138.5540 C   0  0  0  0  0  0  0  0  0  0  0  0
  181.1220  180.6760  137.1570 C   0  0  0  0  0  3  0  0  0  0  0  0
  186.8080  177.9770  138.1820 C   0  0  2  0  0  3  0  0  0  0  0  0
  186.6280  176.6020  136.4420 C   0  0  0  0  0  1  0  0  0  0  0  0
  186.5360  176.6460  137.8340 O   0  0  0  0  0  0  0  0  0  0  0  0
  189.0520  179.0050  138.4010 N   0  0  0  0  0  1  0  0  0  0  0  0
  188.1140  178.0590  138.9860 C   0  0  1  0  0  3  0  0  0  0  0  0
  187.9130  178.3210  140.4800 C   0  0  0  0  0  2  0  0  0  0  0  0
  189.7070  176.8260  140.9870 O   0  0  0  0  0  0  0  0  0  0  0  0
  189.0410  177.8330  141.3440 C   0  0  0  0  0  0  0  0  0  0  0  0
  189.3510  178.4580  142.5540 O   0  0  0  0  0  0  0  0  0  0  0  0
  189.5210  177.7430  143.7730 C   0  0  2  0  0  3  0  0  0  0  0  0
  188.6810  178.2470  144.7500 F   0  0  0  0  0  0  0  0  0  0  0  0
  190.9420  177.8470  144.2260 C   0  0  0  0  0  0  0  0  0  0  0  0
  191.5740  178.8730  144.0390 O   0  0  0  0  0  0  0  0  0  0  0  0
  191.6040  176.6850  144.8880 C   0  0  0  0  0  2  0  0  0  0  0  0
  191.9450  177.0160  146.2010 O   0  0  0  0  0  1  0  0  0  0  0  0
  1  6  1  0  0  0  0
  1  3  2  0  0  0  0
  2 23  1  6  0  0  0
  2  5  1  0  0  0  0
  4  2  1  0  0  0  0
  4  7  1  0  0  0  0
  5  8  1  0  0  0  0
  6  8  1  0  0  0  0
  7  6  1  0  0  0  0
  8 12  1  1  0  0  0
  9 13  1  0  0  0  0
 10 11  1  0  0  0  0
 11  9  2  0  0  0  0
 12 10  2  0  0  0  0
 12 16  1  0  0  0  0
 14 15  1  0  0  0  0
 15  9  1  0  0  0  0
 16 14  2  0  0  0  0
 18 19  2  0  0  0  0
 18 22  1  0  0  0  0
 19 20  1  0  0  0  0
 20 17  2  0  0  0  0
 21 17  1  0  0  0  0
 21  1  1  0  0  0  0
 22 21  2  0  0  0  0
 23 25  1  1  0  0  0
 23 27  1  0  0  0  0
 24 25  1  0  0  0  0
 27 26  1  6  0  0  0
 27 28  1  0  0  0  0
 28 30  1  0  0  0  0
 29 30  2  0  0  0  0
 30 31  1  0  0  0  0
 31 32  1  0  0  0  0
 32 34  1  0  0  0  0
 32 33  1  1  0  0  0
 34 36  1  0  0  0  0
 35 34  2  0  0  0  0
 36 37  1  0  0  0  0
M  END
>  <MODEL>
6

>  <REMARK>
 VINA RESULT:      -7.4      3.652      6.639
  Name = 
  11 active torsions:
  status: ('A' for Active; 'I' for Inactive)
    1  A    between atoms: C_5  and  C_30
    2  A    between atoms: C_8  and  C_31
    3  A    between atoms: C_8  and  C_36
    4  A    between atoms: O_10  and  C_32
    5  A    between atoms: C_11  and  O_13
    6  A    between atoms: C_11  and  C_30
    7  A    between atoms: C_12  and  C_14
    8  A    between atoms: O_13  and  C_31
    9  A    between atoms: C_16  and  C_35
   10  A    between atoms: C_18  and  C_32
   11  A    between atoms: C_32  and  C_36
                            x       y       z     vdW  Elec       q    Type
                         _______ _______ _______ _____ _____    ______ ____

>  <TORSDO>
F 11

$$$$
=
 OpenBabel11042412123D

 37 39  0  0  1  0  0  0  0  0999 V2000
  184.0990  179.4060  139.3010 C   0  0  0  0  0  0  0  0  0  0  0  0
  184.6960  178.2280  143.3270 C   0  0  1  0  0  3  0  0  0  0  0  0
  184.9680  180.0650  138.6660 O   0  0  0  0  0  0  0  0  0  0  0  0
  183.4160  178.0140  142.5190 C   0  0  0  0  0  2  0  0  0  0  0  0
  185.4040  179.4740  142.7960 C   0  0  0  0  0  2  0  0  0  0  0  0
  184.4180  178.9010  140.6110 N   0  0  0  0  0  0  0  0  0  0  0  0
  183.7500  177.7680  141.1180 N   0  0  0  0  0  2  0  0  0  0  0  0
  185.6300  179.3790  141.2870 C   0  0  2  0  0  3  0  0  0  0  0  0
  189.3770  177.2170  139.7270 C   0  0  0  0  0  0  0  0  0  0  0  0
  187.1370  178.3300  139.6470 C   0  0  0  0  0  3  0  0  0  0  0  0
  188.2280  177.4930  139.1080 C   0  0  0  0  0  3  0  0  0  0  0  0
  186.8410  178.5580  140.9390 C   0  0  0  0  0  0  0  0  0  0  0  0
  190.5330  176.1730  138.9300 Cl  0  0  0  0  0  0  0  0  0  0  0  0
  188.8000  177.5310  142.1050 C   0  0  0  0  0  3  0  0  0  0  0  0
  189.7650  177.8600  141.0170 C   0  0  0  0  0  2  0  0  0  0  0  0
  187.5150  177.8810  142.0670 C   0  0  0  0  0  3  0  0  0  0  0  0
  182.6150  178.2010  137.6930 C   0  0  0  0  0  3  0  0  0  0  0  0
  180.4340  179.7650  138.3820 C   0  0  0  0  0  3  0  0  0  0  0  0
  180.3250  178.7630  137.4160 C   0  0  0  0  0  3  0  0  0  0  0  0
  181.4080  178.0090  137.0940 N   0  0  0  0  0  0  0  0  0  0  0  0
  182.7730  179.1890  138.6750 C   0  0  0  0  0  0  0  0  0  0  0  0
  181.6630  179.9760  139.0080 C   0  0  0  0  0  3  0  0  0  0  0  0
  184.3830  178.3540  144.8230 C   0  0  2  0  0  3  0  0  0  0  0  0
  182.2320  178.9200  144.7460 C   0  0  0  0  0  1  0  0  0  0  0  0
  183.5000  179.4220  145.0460 O   0  0  0  0  0  0  0  0  0  0  0  0
  185.4670  179.3790  146.8010 N   0  0  0  0  0  1  0  0  0  0  0  0
  185.6830  178.5670  145.6120 C   0  0  1  0  0  3  0  0  0  0  0  0
  186.4320  177.2750  145.9450 C   0  0  0  0  0  2  0  0  0  0  0  0
  188.0870  177.9350  147.5370 O   0  0  0  0  0  0  0  0  0  0  0  0
  187.8520  177.4880  146.3850 C   0  0  0  0  0  0  0  0  0  0  0  0
  188.9240  177.2250  145.5270 O   0  0  0  0  0  0  0  0  0  0  0  0
  190.2020  177.8310  145.6780 C   0  0  2  0  0  3  0  0  0  0  0  0
  190.4830  178.6430  144.5930 F   0  0  0  0  0  0  0  0  0  0  0  0
  191.2520  176.7740  145.8030 C   0  0  0  0  0  0  0  0  0  0  0  0
  191.7440  176.2760  144.8030 O   0  0  0  0  0  0  0  0  0  0  0  0
  191.6860  176.3040  147.1500 C   0  0  0  0  0  2  0  0  0  0  0  0
  192.6360  175.2890  147.0170 O   0  0  0  0  0  1  0  0  0  0  0  0
  1  6  1  0  0  0  0
  2 23  1  1  0  0  0
  3  1  2  0  0  0  0
  4  2  1  0  0  0  0
  5  2  1  0  0  0  0
  6  7  1  0  0  0  0
  6  8  1  0  0  0  0
  7  4  1  0  0  0  0
  8 12  1  1  0  0  0
  8  5  1  0  0  0  0
  9 15  1  0  0  0  0
 10 12  2  0  0  0  0
 11 10  1  0  0  0  0
 11  9  2  0  0  0  0
 12 16  1  0  0  0  0
 13  9  1  0  0  0  0
 15 14  1  0  0  0  0
 16 14  2  0  0  0  0
 17 21  1  0  0  0  0
 18 22  1  0  0  0  0
 19 18  2  0  0  0  0
 20 19  1  0  0  0  0
 20 17  2  0  0  0  0
 21 22  2  0  0  0  0
 21  1  1  0  0  0  0
 23 25  1  6  0  0  0
 23 27  1  0  0  0  0
 24 25  1  0  0  0  0
 27 28  1  0  0  0  0
 27 26  1  1  0  0  0
 28 30  1  0  0  0  0
 30 29  2  0  0  0  0
 31 32  1  0  0  0  0
 31 30  1  0  0  0  0
 32 33  1  6  0  0  0
 32 34  1  0  0  0  0
 34 36  1  0  0  0  0
 35 34  2  0  0  0  0
 37 36  1  0  0  0  0
M  END
>  <MODEL>
7

>  <REMARK>
 VINA RESULT:      -7.2      2.551      4.785
  Name = 
  11 active torsions:
  status: ('A' for Active; 'I' for Inactive)
    1  A    between atoms: C_5  and  C_30
    2  A    between atoms: C_8  and  C_31
    3  A    between atoms: C_8  and  C_36
    4  A    between atoms: O_10  and  C_32
    5  A    between atoms: C_11  and  O_13
    6  A    between atoms: C_11  and  C_30
    7  A    between atoms: C_12  and  C_14
    8  A    between atoms: O_13  and  C_31
    9  A    between atoms: C_16  and  C_35
   10  A    between atoms: C_18  and  C_32
   11  A    between atoms: C_32  and  C_36
                            x       y       z     vdW  Elec       q    Type
                         _______ _______ _______ _____ _____    ______ ____

>  <TORSDO>
F 11

$$$$
=
 OpenBabel11042412123D

 37 39  0  0  1  0  0  0  0  0999 V2000
  192.5100  176.5690  138.7810 C   0  0  0  0  0  0  0  0  0  0  0  0
  188.3530  177.3190  139.1030 C   0  0  1  0  0  3  0  0  0  0  0  0
  193.3540  177.1910  139.4850 O   0  0  0  0  0  0  0  0  0  0  0  0
  189.0110  176.3800  138.0930 C   0  0  0  0  0  2  0  0  0  0  0  0
  189.3450  178.4270  139.4560 C   0  0  0  0  0  2  0  0  0  0  0  0
  191.1060  176.7530  139.0410 N   0  0  0  0  0  0  0  0  0  0  0  0
  190.1820  175.7460  138.6930 N   0  0  0  0  0  2  0  0  0  0  0  0
  190.6780  177.8430  139.9260 C   0  0  2  0  0  3  0  0  0  0  0  0
  190.8210  177.1170  144.4640 C   0  0  0  0  0  0  0  0  0  0  0  0
  191.5980  177.8730  142.2090 C   0  0  0  0  0  3  0  0  0  0  0  0
  191.7810  177.5210  143.6310 C   0  0  0  0  0  3  0  0  0  0  0  0
  190.6460  177.4280  141.3710 C   0  0  0  0  0  0  0  0  0  0  0  0
  191.2510  176.7140  146.1120 Cl  0  0  0  0  0  0  0  0  0  0  0  0
  189.1210  176.2020  142.9290 C   0  0  0  0  0  3  0  0  0  0  0  0
  189.3790  177.1140  144.0800 C   0  0  0  0  0  2  0  0  0  0  0  0
  189.6650  176.3800  141.7250 C   0  0  0  0  0  3  0  0  0  0  0  0
  192.6250  175.9220  136.3700 C   0  0  0  0  0  3  0  0  0  0  0  0
  194.2360  173.7390  136.9330 C   0  0  0  0  0  3  0  0  0  0  0  0
  193.8410  174.0240  135.6250 C   0  0  0  0  0  3  0  0  0  0  0  0
  193.0510  175.1010  135.3730 N   0  0  0  0  0  0  0  0  0  0  0  0
  193.0020  175.6820  137.7000 C   0  0  0  0  0  0  0  0  0  0  0  0
  193.8100  174.5710  137.9700 C   0  0  0  0  0  3  0  0  0  0  0  0
  187.0450  177.8940  138.5450 C   0  0  2  0  0  3  0  0  0  0  0  0
  186.8520  178.1200  136.3390 C   0  0  0  0  0  1  0  0  0  0  0  0
  187.3140  178.7720  137.4840 O   0  0  0  0  0  0  0  0  0  0  0  0
  184.9310  178.9820  139.2410 N   0  0  0  0  0  1  0  0  0  0  0  0
  186.2790  178.6250  139.6570 C   0  0  1  0  0  3  0  0  0  0  0  0
  186.2740  177.8910  141.0000 C   0  0  0  0  0  2  0  0  0  0  0  0
  185.7460  179.9980  141.9960 O   0  0  0  0  0  0  0  0  0  0  0  0
  185.9820  178.7750  142.1790 C   0  0  0  0  0  0  0  0  0  0  0  0
  185.9940  178.2730  143.4820 O   0  0  0  0  0  0  0  0  0  0  0  0
  184.8560  178.3110  144.3360 C   0  0  2  0  0  3  0  0  0  0  0  0
  184.1020  179.4440  144.0860 F   0  0  0  0  0  0  0  0  0  0  0  0
  185.2950  178.3020  145.7660 C   0  0  0  0  0  0  0  0  0  0  0  0
  184.7260  179.0010  146.5870 O   0  0  0  0  0  0  0  0  0  0  0  0
  186.4490  177.4570  146.1900 C   0  0  0  0  0  2  0  0  0  0  0  0
  187.4110  178.2470  146.8230 O   0  0  0  0  0  1  0  0  0  0  0  0
  1  6  1  0  0  0  0
  1  3  2  0  0  0  0
  2 23  1  6  0  0  0
  2  5  1  0  0  0  0
  4  7  1  0  0  0  0
  4  2  1  0  0  0  0
  5  8  1  0  0  0  0
  6  8  1  0  0  0  0
  7  6  1  0  0  0  0
  8 12  1  1  0  0  0
  9 13  1  0  0  0  0
 10 11  1  0  0  0  0
 11  9  2  0  0  0  0
 12 16  1  0  0  0  0
 12 10  2  0  0  0  0
 14 15  1  0  0  0  0
 15  9  1  0  0  0  0
 16 14  2  0  0  0  0
 17 21  1  0  0  0  0
 18 22  1  0  0  0  0
 19 18  2  0  0  0  0
 20 19  1  0  0  0  0
 20 17  2  0  0  0  0
 21 22  2  0  0  0  0
 21  1  1  0  0  0  0
 23 25  1  6  0  0  0
 23 27  1  0  0  0  0
 24 25  1  0  0  0  0
 27 26  1  6  0  0  0
 27 28  1  0  0  0  0
 28 30  1  0  0  0  0
 29 30  2  0  0  0  0
 30 31  1  0  0  0  0
 31 32  1  0  0  0  0
 32 33  1  6  0  0  0
 32 34  1  0  0  0  0
 34 36  1  0  0  0  0
 34 35  2  0  0  0  0
 36 37  1  0  0  0  0
M  END
>  <MODEL>
8

>  <REMARK>
 VINA RESULT:      -7.1      3.642      7.755
  Name = 
  11 active torsions:
  status: ('A' for Active; 'I' for Inactive)
    1  A    between atoms: C_5  and  C_30
    2  A    between atoms: C_8  and  C_31
    3  A    between atoms: C_8  and  C_36
    4  A    between atoms: O_10  and  C_32
    5  A    between atoms: C_11  and  O_13
    6  A    between atoms: C_11  and  C_30
    7  A    between atoms: C_12  and  C_14
    8  A    between atoms: O_13  and  C_31
    9  A    between atoms: C_16  and  C_35
   10  A    between atoms: C_18  and  C_32
   11  A    between atoms: C_32  and  C_36
                            x       y       z     vdW  Elec       q    Type
                         _______ _______ _______ _____ _____    ______ ____

>  <TORSDO>
F 11

$$$$
=
 OpenBabel11042412123D

 37 39  0  0  1  0  0  0  0  0999 V2000
  193.0010  176.3420  138.3960 C   0  0  0  0  0  0  0  0  0  0  0  0
  188.8010  176.1000  137.8930 C   0  0  1  0  0  3  0  0  0  0  0  0
  193.5400  177.2890  139.0330 O   0  0  0  0  0  0  0  0  0  0  0  0
  189.8270  175.1550  137.2670 C   0  0  0  0  0  2  0  0  0  0  0  0
  189.4560  177.4670  138.0920 C   0  0  0  0  0  2  0  0  0  0  0  0
  191.5660  176.2270  138.3890 N   0  0  0  0  0  0  0  0  0  0  0  0
  190.9550  174.9740  138.1790 N   0  0  0  0  0  2  0  0  0  0  0  0
  190.7550  177.3440  138.8880 C   0  0  2  0  0  3  0  0  0  0  0  0
  189.5510  176.7150  143.2820 C   0  0  0  0  0  0  0  0  0  0  0  0
  189.2580  177.1200  140.8300 C   0  0  0  0  0  3  0  0  0  0  0  0
  188.8130  177.0920  142.2380 C   0  0  0  0  0  3  0  0  0  0  0  0
  190.5140  177.2570  140.3700 C   0  0  0  0  0  0  0  0  0  0  0  0
  188.8470  176.7870  144.8810 Cl  0  0  0  0  0  0  0  0  0  0  0  0
  191.8550  177.0700  142.4730 C   0  0  0  0  0  3  0  0  0  0  0  0
  190.9110  176.1180  143.1250 C   0  0  0  0  0  2  0  0  0  0  0  0
  191.6790  177.5360  141.2370 C   0  0  0  0  0  3  0  0  0  0  0  0
  194.7050  174.5160  138.3770 C   0  0  0  0  0  3  0  0  0  0  0  0
  194.7670  174.4690  135.6070 C   0  0  0  0  0  3  0  0  0  0  0  0
  195.5730  173.6130  136.3600 C   0  0  0  0  0  3  0  0  0  0  0  0
  195.5260  173.6540  137.7170 N   0  0  0  0  0  0  0  0  0  0  0  0
  193.8710  175.3900  137.6650 C   0  0  0  0  0  0  0  0  0  0  0  0
  193.9190  175.3600  136.2660 C   0  0  0  0  0  3  0  0  0  0  0  0
  187.5460  176.2010  137.0170 C   0  0  2  0  0  3  0  0  0  0  0  0
  186.8660  174.8220  135.4080 C   0  0  0  0  0  1  0  0  0  0  0  0
  187.8320  175.7850  135.7080 O   0  0  0  0  0  0  0  0  0  0  0  0
  187.0940  178.2410  135.6850 N   0  0  0  0  0  1  0  0  0  0  0  0
  187.0280  177.6470  137.0120 C   0  0  1  0  0  3  0  0  0  0  0  0
  185.6400  177.8160  137.6330 C   0  0  0  0  0  2  0  0  0  0  0  0
  186.4660  178.6290  139.7220 O   0  0  0  0  0  0  0  0  0  0  0  0
  185.6070  178.7480  138.8110 C   0  0  0  0  0  0  0  0  0  0  0  0
  184.6210  179.7310  138.9310 O   0  0  0  0  0  0  0  0  0  0  0  0
  183.2360  179.4270  139.0520 C   0  0  2  0  0  3  0  0  0  0  0  0
  182.4910  180.5910  139.1230 F   0  0  0  0  0  0  0  0  0  0  0  0
  183.0030  178.6030  140.2780 C   0  0  0  0  0  0  0  0  0  0  0  0
  183.4470  178.9660  141.3550 O   0  0  0  0  0  0  0  0  0  0  0  0
  182.2500  177.3190  140.1860 C   0  0  0  0  0  2  0  0  0  0  0  0
  181.0690  177.5110  139.4660 O   0  0  0  0  0  1  0  0  0  0  0  0
  1  3  2  0  0  0  0
  2 23  1  6  0  0  0
  2  5  1  0  0  0  0
  4  2  1  0  0  0  0
  4  7  1  0  0  0  0
  5  8  1  0  0  0  0
  6  1  1  0  0  0  0
  6  8  1  0  0  0  0
  7  6  1  0  0  0  0
  8 12  1  1  0  0  0
  9 13  1  0  0  0  0
 10 11  1  0  0  0  0
 11  9  2  0  0  0  0
 12 10  2  0  0  0  0
 12 16  1  0  0  0  0
 14 15  1  0  0  0  0
 15  9  1  0  0  0  0
 16 14  2  0  0  0  0
 18 22  2  0  0  0  0
 18 19  1  0  0  0  0
 19 20  2  0  0  0  0
 20 17  1  0  0  0  0
 21 17  2  0  0  0  0
 21  1  1  0  0  0  0
 22 21  1  0  0  0  0
 23 25  1  6  0  0  0
 24 25  1  0  0  0  0
 27 26  1  6  0  0  0
 27 23  1  0  0  0  0
 27 28  1  0  0  0  0
 28 30  1  0  0  0  0
 30 31  1  0  0  0  0
 30 29  2  0  0  0  0
 31 32  1  0  0  0  0
 32 33  1  1  0  0  0
 32 34  1  0  0  0  0
 34 35  2  0  0  0  0
 36 34  1  0  0  0  0
 37 36  1  0  0  0  0
M  END
>  <MODEL>
9

>  <REMARK>
 VINA RESULT:      -7.0      4.930      9.208
  Name = 
  11 active torsions:
  status: ('A' for Active; 'I' for Inactive)
    1  A    between atoms: C_5  and  C_30
    2  A    between atoms: C_8  and  C_31
    3  A    between atoms: C_8  and  C_36
    4  A    between atoms: O_10  and  C_32
    5  A    between atoms: C_11  and  O_13
    6  A    between atoms: C_11  and  C_30
    7  A    between atoms: C_12  and  C_14
    8  A    between atoms: O_13  and  C_31
    9  A    between atoms: C_16  and  C_35
   10  A    between atoms: C_18  and  C_32
   11  A    between atoms: C_32  and  C_36
                            x       y       z     vdW  Elec       q    Type
                         _______ _______ _______ _____ _____    ______ ____

>  <TORSDO>
F 11

$$$$
