=
 OpenBabel11032420353D

 69 73  0  0  1  0  0  0  0  0999 V2000
  188.2320  177.7970  145.4130 C   0  0  0  0  0  0  0  0  0  0  0  0
  187.9270  177.6420  144.0470 C   0  0  0  0  0  3  0  0  0  0  0  0
  186.2150  179.1400  145.6730 C   0  0  0  0  0  3  0  0  0  0  0  0
  187.3630  178.5470  146.2270 C   0  0  0  0  0  3  0  0  0  0  0  0
  185.9240  178.9980  144.3230 C   0  0  0  0  0  0  0  0  0  0  0  0
  186.7880  178.2460  143.5050 C   0  0  0  0  0  0  0  0  0  0  0  0
  186.4900  178.0040  142.0440 C   0  0  0  0  0  1  0  0  0  0  0  0
  189.6530  177.5200  147.3280 O   0  0  0  0  0  1  0  0  0  0  0  0
  189.3270  176.9820  146.0770 C   0  0  2  0  0  3  0  0  0  0  0  0
  191.7180  176.5390  145.8630 C   0  0  0  0  0  2  0  0  0  0  0  0
  190.5730  176.7910  145.2510 C   0  0  0  0  0  0  0  0  0  0  0  0
  190.6480  177.3920  143.9520 N   0  0  0  0  0  2  0  0  0  0  0  0
  191.0400  176.6600  140.4150 N   0  0  0  0  0  0  0  0  0  0  0  0
  190.8160  176.5380  142.7600 C   0  0  1  0  0  3  0  0  0  0  0  0
  189.7650  175.9810  140.7080 C   0  0  0  0  0  2  0  0  0  0  0  0
  189.4610  176.2060  142.1680 C   0  0  0  0  0  2  0  0  0  0  0  0
  191.5210  177.2670  141.6480 C   0  0  0  0  0  2  0  0  0  0  0  0
  190.8790  177.7360  139.4260 C   0  0  2  0  0  3  0  0  0  0  0  0
  189.5570  178.2520  139.4140 O   0  0  0  0  0  0  0  0  0  0  0  0
  189.2580  178.7110  138.1100 C   0  0  0  0  0  2  0  0  0  0  0  0
  187.5290  176.9420  137.8640 C   0  0  0  0  0  1  0  0  0  0  0  0
  187.7920  178.4280  137.7770 C   0  0  2  0  0  3  0  0  0  0  0  0
  187.7370  177.8890  135.3390 C   0  0  0  0  0  1  0  0  0  0  0  0
  187.4260  178.9530  136.3840 C   0  0  0  0  0  2  0  0  0  0  0  0
  191.3950  177.2510  138.0590 C   0  0  0  0  0  2  0  0  0  0  0  0
  191.3380  174.9040  137.4650 C   0  0  0  0  0  0  0  0  0  0  0  0
  192.8250  174.7960  137.5650 C   0  0  0  0  0  1  0  0  0  0  0  0
  190.7130  176.0200  137.6920 N   0  0  0  0  0  0  0  0  0  0  0  0
  190.5420  173.6880  137.1200 C   0  0  0  0  0  2  0  0  0  0  0  0
  189.2120  174.0770  136.6810 N   0  0  0  0  0  0  0  0  0  0  0  0
  186.8530  173.3170  136.6510 C   0  0  0  0  0  2  0  0  0  0  0  0
  187.8630  174.3690  134.5940 C   0  0  0  0  0  2  0  0  0  0  0  0
  189.2630  174.1680  135.2260 C   0  0  0  0  0  2  0  0  0  0  0  0
  188.2970  172.9960  137.0760 C   0  0  0  0  0  2  0  0  0  0  0  0
  186.7720  174.4910  135.6680 C   0  0  0  0  0  2  0  0  0  0  0  0
  184.3730  180.8360  144.1890 O   0  0  0  0  0  1  0  0  0  0  0  0
  184.6270  179.5360  143.7650 C   0  0  2  0  0  3  0  0  0  0  0  0
  183.3040  178.0090  145.0000 O   0  0  0  0  0  0  0  0  0  0  0  0
  183.4450  178.6260  143.9530 C   0  0  0  0  0  0  0  0  0  0  0  0
  182.6610  178.2080  142.7570 C   0  0  0  0  0  2  0  0  0  0  0  0
  183.5420  178.3360  141.5180 C   0  0  0  0  0  2  0  0  0  0  0  0
  182.8140  178.6680  140.2140 C   0  0  0  0  0  2  0  0  0  0  0  0
  183.0020  177.7570  138.9950 C   0  0  2  0  0  0  0  0  0  0  0  0
  182.6260  176.3180  139.3090 C   0  0  0  0  0  1  0  0  0  0  0  0
  184.3560  177.8260  138.6110 O   0  0  0  0  0  1  0  0  0  0  0  0
  182.0990  178.2490  137.9260 N   0  0  0  0  0  2  0  0  0  0  0  0
  180.7980  178.7180  138.4280 C   0  0  1  0  0  3  0  0  0  0  0  0
  180.9190  180.0570  138.8690 O   0  0  0  0  0  0  0  0  0  0  0  0
  180.2840  180.9200  137.9400 C   0  0  1  0  0  3  0  0  0  0  0  0
  180.5170  182.4180  138.2630 C   0  0  0  0  0  2  0  0  0  0  0  0
  180.5880  180.5170  136.4750 C   0  0  0  0  0  2  0  0  0  0  0  0
  181.1220  184.5310  137.4280 C   0  0  0  0  0  1  0  0  0  0  0  0
  181.0260  183.1260  137.0870 N   0  0  0  0  0  0  0  0  0  0  0  0
  180.0300  182.9690  136.0430 C   0  0  0  0  0  2  0  0  0  0  0  0
  180.0580  181.5500  135.4680 C   0  0  0  0  0  2  0  0  0  0  0  0
  179.7840  178.6530  137.2840 C   0  0  0  0  0  2  0  0  0  0  0  0
  179.1660  177.3880  135.3120 O   0  0  0  0  0  1  0  0  0  0  0  0
  179.8230  177.2830  136.5610 C   0  0  2  0  0  3  0  0  0  0  0  0
  179.2550  176.2720  137.3770 O   0  0  0  0  0  0  0  0  0  0  0  0
  179.7900  175.0280  136.9940 C   0  0  2  0  0  3  0  0  0  0  0  0
  179.0840  173.3630  138.5430 C   0  0  0  0  0  2  0  0  0  0  0  0
  180.1930  174.2920  138.2140 N   0  0  0  0  0  0  0  0  0  0  0  0
  179.2100  174.6280  139.2590 C   0  0  0  0  0  2  0  0  0  0  0  0
  180.9750  175.1790  136.0230 C   0  0  0  0  0  2  0  0  0  0  0  0
  180.7930  172.9820  135.1030 O   0  0  0  0  0  0  0  0  0  0  0  0
  181.5170  173.8550  135.5530 C   0  0  0  0  0  0  0  0  0  0  0  0
  183.3110  172.3790  135.1370 O   0  0  0  0  0  1  0  0  0  0  0  0
  182.9950  173.6430  135.6520 C   0  0  2  0  0  3  0  0  0  0  0  0
  183.4360  173.7470  137.0390 N   0  0  0  0  0  1  0  0  0  0  0  0
  1  9  1  0  0  0  0
  1  4  1  0  0  0  0
  2  1  2  0  0  0  0
  3  4  2  0  0  0  0
  5  3  1  0  0  0  0
  6  2  1  0  0  0  0
  6  5  2  0  0  0  0
  7  6  1  0  0  0  0
  9  8  1  1  0  0  0
 11 10  2  0  0  0  0
 11  9  1  0  0  0  0
 12 11  1  0  0  0  0
 13 15  1  0  0  0  0
 13 17  1  0  0  0  0
 14 12  1  1  0  0  0
 15 16  1  0  0  0  0
 16 14  1  0  0  0  0
 17 14  1  0  0  0  0
 18 25  1  6  0  0  0
 18 13  1  0  0  0  0
 19 18  1  0  0  0  0
 20 19  1  0  0  0  0
 22 21  1  6  0  0  0
 22 20  1  0  0  0  0
 23 24  1  0  0  0  0
 24 22  1  0  0  0  0
 26 27  1  0  0  0  0
 26 28  2  0  0  0  0
 28 25  1  0  0  0  0
 29 26  1  0  0  0  0
 30 34  1  0  0  0  0
 30 29  1  0  0  0  0
 31 34  1  0  0  0  0
 32 33  1  0  0  0  0
 32 35  1  0  0  0  0
 33 30  1  0  0  0  0
 35 31  1  0  0  0  0
 37 39  1  0  0  0  0
 37 36  1  1  0  0  0
 37  5  1  0  0  0  0
 39 38  2  0  0  0  0
 40 39  1  0  0  0  0
 41 40  1  0  0  0  0
 42 41  1  0  0  0  0
 43 44  1  1  0  0  0
 43 42  1  0  0  0  0
 45 43  1  0  0  0  0
 46 47  1  0  0  0  0
 46 43  1  0  0  0  0
 47 56  1  6  0  0  0
 47 48  1  0  0  0  0
 49 50  1  0  0  0  0
 49 48  1  1  0  0  0
 51 49  1  0  0  0  0
 53 52  1  0  0  0  0
 53 50  1  0  0  0  0
 54 53  1  0  0  0  0
 55 54  1  0  0  0  0
 55 51  1  0  0  0  0
 58 57  1  6  0  0  0
 58 56  1  0  0  0  0
 58 59  1  0  0  0  0
 60 64  1  6  0  0  0
 60 59  1  0  0  0  0
 60 62  1  0  0  0  0
 61 63  1  0  0  0  0
 62 61  1  0  0  0  0
 62 63  1  0  0  0  0
 65 66  2  0  0  0  0
 66 68  1  0  0  0  0
 66 64  1  0  0  0  0
 68 67  1  1  0  0  0
 68 69  1  0  0  0  0
M  END
>  <MODEL>
1

>  <REMARK>
 VINA RESULT:      -4.5      0.000      0.000
  Name = 
  31 active torsions:
  status: ('A' for Active; 'I' for Inactive)
    1  A    between atoms: C_2  and  C_11
    2  A    between atoms: C_2  and  C_42
    3  A    between atoms: N_3  and  C_30
    4  A    between atoms: C_5  and  C_39
    5  A    between atoms: C_5  and  C_48
    6  A    between atoms: C_6  and  C_29
    7  A    between atoms: C_6  and  N_60
    8  A    between atoms: C_7  and  O_19
    9  A    between atoms: N_9  and  C_29
   10  A    between atoms: C_11  and  C_55
   11  A    between atoms: O_12  and  C_48
   12  A    between atoms: O_12  and  C_54
   13  A    between atoms: C_14  and  N_15
   14  A    between atoms: N_15  and  C_31
   15  A    between atoms: N_17  and  C_20
   16  A    between atoms: N_17  and  C_39
   17  A    between atoms: C_18  and  C_40
   18  A    between atoms: O_19  and  C_39
   19  A    between atoms: C_20  and  C_55
   20  A    between atoms: C_21  and  C_37
   21  A    between atoms: C_21  and  C_42
   22  A    between atoms: C_27  and  C_54
   23  A    between atoms: C_27  and  C_68
   24  A    between atoms: C_29  and  O_57
   25  A    between atoms: C_30  and  C_41
   26  A    between atoms: C_31  and  C_40
   27  A    between atoms: C_34  and  C_68
   28  A    between atoms: N_38  and  C_54
   29  A    between atoms: C_43  and  C_56
   30  A    between atoms: C_56  and  C_69
   31  A    between atoms: O_57  and  C_69
                            x       y       z     vdW  Elec       q    Type
                         _______ _______ _______ _____ _____    ______ ____

>  <TORSDO>
F 31

$$$$
=
 OpenBabel11032420353D

 69 73  0  0  1  0  0  0  0  0999 V2000
  188.3080  177.8700  145.3830 C   0  0  0  0  0  0  0  0  0  0  0  0
  187.9640  177.7440  144.0230 C   0  0  0  0  0  3  0  0  0  0  0  0
  186.2950  179.2010  145.7290 C   0  0  0  0  0  3  0  0  0  0  0  0
  187.4600  178.6000  146.2370 C   0  0  0  0  0  3  0  0  0  0  0  0
  185.9670  179.0880  144.3860 C   0  0  0  0  0  0  0  0  0  0  0  0
  186.8090  178.3560  143.5270 C   0  0  0  0  0  0  0  0  0  0  0  0
  186.4690  178.1450  142.0710 C   0  0  0  0  0  1  0  0  0  0  0  0
  189.7950  177.5660  147.2420 O   0  0  0  0  0  1  0  0  0  0  0  0
  189.4230  177.0440  145.9980 C   0  0  2  0  0  3  0  0  0  0  0  0
  191.8070  176.6140  145.6930 C   0  0  0  0  0  2  0  0  0  0  0  0
  190.6380  176.8590  145.1250 C   0  0  0  0  0  0  0  0  0  0  0  0
  190.6600  177.4590  143.8230 N   0  0  0  0  0  2  0  0  0  0  0  0
  190.8380  176.7200  140.2710 N   0  0  0  0  0  0  0  0  0  0  0  0
  190.7750  176.6030  142.6260 C   0  0  1  0  0  3  0  0  0  0  0  0
  189.6070  176.0030  140.6510 C   0  0  0  0  0  2  0  0  0  0  0  0
  189.3950  176.2270  142.1270 C   0  0  0  0  0  2  0  0  0  0  0  0
  191.3810  177.3480  141.4670 C   0  0  0  0  0  2  0  0  0  0  0  0
  190.5780  177.7840  139.2910 C   0  0  2  0  0  3  0  0  0  0  0  0
  189.2080  177.8500  138.9310 O   0  0  0  0  0  0  0  0  0  0  0  0
  189.1120  178.1230  137.5460 C   0  0  0  0  0  2  0  0  0  0  0  0
  187.9320  175.9390  137.6850 C   0  0  0  0  0  1  0  0  0  0  0  0
  188.0470  177.2310  136.9080 C   0  0  2  0  0  3  0  0  0  0  0  0
  189.6050  177.7320  135.0210 C   0  0  0  0  0  1  0  0  0  0  0  0
  188.3730  176.9400  135.4370 C   0  0  0  0  0  2  0  0  0  0  0  0
  191.5510  177.6340  138.1070 C   0  0  0  0  0  2  0  0  0  0  0  0
  192.6870  175.7760  137.0460 C   0  0  0  0  0  0  0  0  0  0  0  0
  193.6900  176.6890  136.4190 C   0  0  0  0  0  1  0  0  0  0  0  0
  191.7300  176.2220  137.8030 N   0  0  0  0  0  0  0  0  0  0  0  0
  192.8000  174.3040  136.8170 C   0  0  0  0  0  2  0  0  0  0  0  0
  194.1100  173.8390  137.2400 N   0  0  0  0  0  0  0  0  0  0  0  0
  196.5000  173.8390  136.5840 C   0  0  0  0  0  2  0  0  0  0  0  0
  195.4400  171.7330  137.4770 C   0  0  0  0  0  2  0  0  0  0  0  0
  194.0520  172.3820  137.2500 C   0  0  0  0  0  2  0  0  0  0  0  0
  195.0730  174.2870  136.2230 C   0  0  0  0  0  2  0  0  0  0  0  0
  196.5270  172.7940  137.7050 C   0  0  0  0  0  2  0  0  0  0  0  0
  184.3660  180.8870  144.4060 O   0  0  0  0  0  1  0  0  0  0  0  0
  184.6520  179.6330  143.8760 C   0  0  2  0  0  3  0  0  0  0  0  0
  183.3710  177.9850  144.9930 O   0  0  0  0  0  0  0  0  0  0  0  0
  183.4960  178.6790  143.9930 C   0  0  0  0  0  0  0  0  0  0  0  0
  182.7270  178.3270  142.7670 C   0  0  0  0  0  2  0  0  0  0  0  0
  183.6760  178.3230  141.5720 C   0  0  0  0  0  2  0  0  0  0  0  0
  183.0600  178.7310  140.2320 C   0  0  0  0  0  2  0  0  0  0  0  0
  183.2230  177.8070  139.0180 C   0  0  2  0  0  0  0  0  0  0  0  0
  182.9150  176.3610  139.3710 C   0  0  0  0  0  1  0  0  0  0  0  0
  184.5540  177.9180  138.5680 O   0  0  0  0  0  1  0  0  0  0  0  0
  182.2530  178.2480  137.9870 N   0  0  0  0  0  2  0  0  0  0  0  0
  180.9560  178.6630  138.5430 C   0  0  1  0  0  3  0  0  0  0  0  0
  181.0600  179.9810  139.0490 O   0  0  0  0  0  0  0  0  0  0  0  0
  180.3200  180.8650  138.2230 C   0  0  1  0  0  3  0  0  0  0  0  0
  179.5210  181.9140  139.0380 C   0  0  0  0  0  2  0  0  0  0  0  0
  181.1900  181.4540  137.0840 C   0  0  0  0  0  2  0  0  0  0  0  0
  178.9560  184.1820  139.2920 C   0  0  0  0  0  1  0  0  0  0  0  0
  179.8090  183.2670  138.5590 N   0  0  0  0  0  0  0  0  0  0  0  0
  179.4310  183.3010  137.1580 C   0  0  0  0  0  2  0  0  0  0  0  0
  180.4500  182.5490  136.2970 C   0  0  0  0  0  2  0  0  0  0  0  0
  179.9150  178.6350  137.4210 C   0  0  0  0  0  2  0  0  0  0  0  0
  179.0780  177.3780  135.5260 O   0  0  0  0  0  1  0  0  0  0  0  0
  179.9720  177.3090  136.6210 C   0  0  2  0  0  3  0  0  0  0  0  0
  179.6920  176.2040  137.4660 O   0  0  0  0  0  0  0  0  0  0  0  0
  180.3330  175.0650  136.9470 C   0  0  2  0  0  3  0  0  0  0  0  0
  179.1950  173.6220  138.4620 C   0  0  0  0  0  2  0  0  0  0  0  0
  180.5390  174.0960  138.0490 N   0  0  0  0  0  0  0  0  0  0  0  0
  179.8730  174.6560  139.2380 C   0  0  0  0  0  2  0  0  0  0  0  0
  181.6660  175.4090  136.2590 C   0  0  0  0  0  2  0  0  0  0  0  0
  182.0450  173.7310  134.6020 O   0  0  0  0  0  0  0  0  0  0  0  0
  182.3570  174.2010  135.6840 C   0  0  0  0  0  0  0  0  0  0  0  0
  184.6710  173.7570  135.8110 O   0  0  0  0  0  1  0  0  0  0  0  0
  183.4580  173.5900  136.4920 C   0  0  2  0  0  3  0  0  0  0  0  0
  183.2000  172.1730  136.7210 N   0  0  0  0  0  1  0  0  0  0  0  0
  1  9  1  0  0  0  0
  1  4  1  0  0  0  0
  2  1  2  0  0  0  0
  3  4  2  0  0  0  0
  5  3  1  0  0  0  0
  6  2  1  0  0  0  0
  6  5  2  0  0  0  0
  7  6  1  0  0  0  0
  9  8  1  1  0  0  0
 11 10  2  0  0  0  0
 11  9  1  0  0  0  0
 12 11  1  0  0  0  0
 13 15  1  0  0  0  0
 13 17  1  0  0  0  0
 14 12  1  1  0  0  0
 15 16  1  0  0  0  0
 16 14  1  0  0  0  0
 17 14  1  0  0  0  0
 18 25  1  6  0  0  0
 18 13  1  0  0  0  0
 19 18  1  0  0  0  0
 20 19  1  0  0  0  0
 22 20  1  0  0  0  0
 22 21  1  1  0  0  0
 23 24  1  0  0  0  0
 24 22  1  0  0  0  0
 26 28  2  0  0  0  0
 27 26  1  0  0  0  0
 28 25  1  0  0  0  0
 29 26  1  0  0  0  0
 29 30  1  0  0  0  0
 30 33  1  0  0  0  0
 31 35  1  0  0  0  0
 32 35  1  0  0  0  0
 33 32  1  0  0  0  0
 34 31  1  0  0  0  0
 34 30  1  0  0  0  0
 37 39  1  0  0  0  0
 37  5  1  0  0  0  0
 37 36  1  1  0  0  0
 39 38  2  0  0  0  0
 40 39  1  0  0  0  0
 41 40  1  0  0  0  0
 42 41  1  0  0  0  0
 43 44  1  1  0  0  0
 43 42  1  0  0  0  0
 45 43  1  0  0  0  0
 46 47  1  0  0  0  0
 46 43  1  0  0  0  0
 47 56  1  6  0  0  0
 47 48  1  0  0  0  0
 49 50  1  0  0  0  0
 49 48  1  1  0  0  0
 51 49  1  0  0  0  0
 53 50  1  0  0  0  0
 53 52  1  0  0  0  0
 54 53  1  0  0  0  0
 55 51  1  0  0  0  0
 55 54  1  0  0  0  0
 58 57  1  6  0  0  0
 58 56  1  0  0  0  0
 58 59  1  0  0  0  0
 60 64  1  1  0  0  0
 60 59  1  0  0  0  0
 60 62  1  0  0  0  0
 61 63  1  0  0  0  0
 62 61  1  0  0  0  0
 62 63  1  0  0  0  0
 65 66  2  0  0  0  0
 66 64  1  0  0  0  0
 66 68  1  0  0  0  0
 68 67  1  6  0  0  0
 68 69  1  0  0  0  0
M  END
>  <MODEL>
2

>  <REMARK>
 VINA RESULT:      -3.9      1.360      2.506
  Name = 
  31 active torsions:
  status: ('A' for Active; 'I' for Inactive)
    1  A    between atoms: C_2  and  C_11
    2  A    between atoms: C_2  and  C_42
    3  A    between atoms: N_3  and  C_30
    4  A    between atoms: C_5  and  C_39
    5  A    between atoms: C_5  and  C_48
    6  A    between atoms: C_6  and  C_29
    7  A    between atoms: C_6  and  N_60
    8  A    between atoms: C_7  and  O_19
    9  A    between atoms: N_9  and  C_29
   10  A    between atoms: C_11  and  C_55
   11  A    between atoms: O_12  and  C_48
   12  A    between atoms: O_12  and  C_54
   13  A    between atoms: C_14  and  N_15
   14  A    between atoms: N_15  and  C_31
   15  A    between atoms: N_17  and  C_20
   16  A    between atoms: N_17  and  C_39
   17  A    between atoms: C_18  and  C_40
   18  A    between atoms: O_19  and  C_39
   19  A    between atoms: C_20  and  C_55
   20  A    between atoms: C_21  and  C_37
   21  A    between atoms: C_21  and  C_42
   22  A    between atoms: C_27  and  C_54
   23  A    between atoms: C_27  and  C_68
   24  A    between atoms: C_29  and  O_57
   25  A    between atoms: C_30  and  C_41
   26  A    between atoms: C_31  and  C_40
   27  A    between atoms: C_34  and  C_68
   28  A    between atoms: N_38  and  C_54
   29  A    between atoms: C_43  and  C_56
   30  A    between atoms: C_56  and  C_69
   31  A    between atoms: O_57  and  C_69
                            x       y       z     vdW  Elec       q    Type
                         _______ _______ _______ _____ _____    ______ ____

>  <TORSDO>
F 31

$$$$
=
 OpenBabel11032420353D

 69 73  0  0  1  0  0  0  0  0999 V2000
  187.7730  173.2870  136.8060 C   0  0  0  0  0  0  0  0  0  0  0  0
  187.0430  173.9530  135.8030 C   0  0  0  0  0  3  0  0  0  0  0  0
  185.6880  172.3340  137.6370 C   0  0  0  0  0  3  0  0  0  0  0  0
  187.0850  172.4690  137.7220 C   0  0  0  0  0  3  0  0  0  0  0  0
  184.9690  173.0050  136.6560 C   0  0  0  0  0  0  0  0  0  0  0  0
  185.6530  173.8210  135.7350 C   0  0  0  0  0  0  0  0  0  0  0  0
  184.9320  174.5230  134.6080 C   0  0  0  0  0  1  0  0  0  0  0  0
  189.8350  174.1380  137.6910 O   0  0  0  0  0  1  0  0  0  0  0  0
  189.2900  173.2290  136.7770 C   0  0  2  0  0  3  0  0  0  0  0  0
  191.1100  172.9130  135.1810 C   0  0  0  0  0  2  0  0  0  0  0  0
  189.9100  173.4190  135.4170 C   0  0  0  0  0  0  0  0  0  0  0  0
  189.5060  174.5360  134.6140 N   0  0  0  0  0  2  0  0  0  0  0  0
  191.5560  176.9960  136.3280 N   0  0  0  0  0  0  0  0  0  0  0  0
  190.0310  175.8810  134.9160 C   0  0  1  0  0  3  0  0  0  0  0  0
  190.2010  177.4590  136.6780 C   0  0  0  0  0  2  0  0  0  0  0  0
  189.2220  176.5130  136.0300 C   0  0  0  0  0  2  0  0  0  0  0  0
  191.4260  175.8200  135.4790 C   0  0  0  0  0  2  0  0  0  0  0  0
  192.3290  176.6010  137.5150 C   0  0  2  0  0  3  0  0  0  0  0  0
  193.5510  175.9700  137.1660 O   0  0  0  0  0  0  0  0  0  0  0  0
  193.3950  174.5700  137.2990 C   0  0  0  0  0  2  0  0  0  0  0  0
  194.4930  172.3630  136.9720 C   0  0  0  0  0  1  0  0  0  0  0  0
  194.6170  173.8490  136.7260 C   0  0  2  0  0  3  0  0  0  0  0  0
  195.8020  174.3870  138.8580 C   0  0  0  0  0  1  0  0  0  0  0  0
  195.9170  174.3840  137.3400 C   0  0  0  0  0  2  0  0  0  0  0  0
  191.4280  175.7860  138.4610 C   0  0  0  0  0  2  0  0  0  0  0  0
  191.0190  177.1320  140.4320 C   0  0  0  0  0  0  0  0  0  0  0  0
  192.3290  176.7340  141.0310 C   0  0  0  0  0  1  0  0  0  0  0  0
  190.6310  176.6930  139.2730 N   0  0  0  0  0  0  0  0  0  0  0  0
  190.1380  178.0820  141.1760 C   0  0  0  0  0  2  0  0  0  0  0  0
  189.8950  177.5800  142.5180 N   0  0  0  0  0  0  0  0  0  0  0  0
  188.0890  176.7850  144.0200 C   0  0  0  0  0  2  0  0  0  0  0  0
  189.8670  178.3400  144.9020 C   0  0  0  0  0  2  0  0  0  0  0  0
  190.2700  178.6480  143.4380 C   0  0  0  0  0  2  0  0  0  0  0  0
  188.4500  177.3230  142.6240 C   0  0  0  0  0  2  0  0  0  0  0  0
  189.2310  176.9490  145.0300 C   0  0  0  0  0  2  0  0  0  0  0  0
  183.1820  172.1760  135.2720 O   0  0  0  0  0  1  0  0  0  0  0  0
  183.4870  172.7580  136.4980 C   0  0  2  0  0  3  0  0  0  0  0  0
  181.9480  173.9730  137.8250 O   0  0  0  0  0  0  0  0  0  0  0  0
  182.6220  173.9480  136.8040 C   0  0  0  0  0  0  0  0  0  0  0  0
  182.3150  174.9140  135.7120 C   0  0  0  0  0  2  0  0  0  0  0  0
  180.8030  175.1030  135.6300 C   0  0  0  0  0  2  0  0  0  0  0  0
  180.2220  176.2130  136.5080 C   0  0  0  0  0  2  0  0  0  0  0  0
  180.6310  177.6680  136.2490 C   0  0  2  0  0  0  0  0  0  0  0  0
  179.4260  178.5940  136.2360 C   0  0  0  0  0  1  0  0  0  0  0  0
  181.2860  177.7160  135.0030 O   0  0  0  0  0  1  0  0  0  0  0  0
  181.5230  178.0860  137.3580 N   0  0  0  0  0  2  0  0  0  0  0  0
  181.3710  177.2690  138.5720 C   0  0  1  0  0  3  0  0  0  0  0  0
  182.6220  177.1570  139.2240 O   0  0  0  0  0  0  0  0  0  0  0  0
  183.6220  177.7880  138.4390 C   0  0  1  0  0  3  0  0  0  0  0  0
  184.7160  178.4680  139.3010 C   0  0  0  0  0  2  0  0  0  0  0  0
  184.1610  176.8500  137.3290 C   0  0  0  0  0  2  0  0  0  0  0  0
  187.0190  178.7760  139.6600 C   0  0  0  0  0  1  0  0  0  0  0  0
  186.0490  178.0270  138.8870 N   0  0  0  0  0  0  0  0  0  0  0  0
  186.1900  178.3890  137.4880 C   0  0  0  0  0  2  0  0  0  0  0  0
  185.3680  177.4560  136.5940 C   0  0  0  0  0  2  0  0  0  0  0  0
  180.3770  177.9630  139.5050 C   0  0  0  0  0  2  0  0  0  0  0  0
  180.0230  177.2520  141.7940 O   0  0  0  0  0  1  0  0  0  0  0  0
  180.8930  178.0010  140.9660 C   0  0  2  0  0  3  0  0  0  0  0  0
  181.0300  179.3400  141.4120 O   0  0  0  0  0  0  0  0  0  0  0  0
  181.2990  179.3310  142.7920 C   0  0  2  0  0  3  0  0  0  0  0  0
  178.9720  179.6160  143.2130 C   0  0  0  0  0  2  0  0  0  0  0  0
  180.3110  180.2010  143.4710 N   0  0  0  0  0  0  0  0  0  0  0  0
  179.4360  180.7510  142.4210 C   0  0  0  0  0  2  0  0  0  0  0  0
  182.7370  179.7780  143.1080 C   0  0  0  0  0  2  0  0  0  0  0  0
  182.8190  179.0570  145.3840 O   0  0  0  0  0  0  0  0  0  0  0  0
  183.3350  179.0420  144.2780 C   0  0  0  0  0  0  0  0  0  0  0  0
  185.6890  179.0510  144.4400 O   0  0  0  0  0  1  0  0  0  0  0  0
  184.5960  178.2740  144.0350 C   0  0  2  0  0  3  0  0  0  0  0  0
  184.7200  177.9260  142.6240 N   0  0  0  0  0  1  0  0  0  0  0  0
  1  4  1  0  0  0  0
  2  1  2  0  0  0  0
  3  4  2  0  0  0  0
  5  3  1  0  0  0  0
  6  2  1  0  0  0  0
  6  5  2  0  0  0  0
  7  6  1  0  0  0  0
  9  1  1  0  0  0  0
  9  8  1  1  0  0  0
 10 11  2  0  0  0  0
 11  9  1  0  0  0  0
 12 11  1  0  0  0  0
 13 15  1  0  0  0  0
 13 18  1  0  0  0  0
 14 12  1  1  0  0  0
 14 17  1  0  0  0  0
 14 16  1  0  0  0  0
 16 15  1  0  0  0  0
 17 13  1  0  0  0  0
 18 25  1  1  0  0  0
 19 20  1  0  0  0  0
 19 18  1  0  0  0  0
 22 21  1  1  0  0  0
 22 20  1  0  0  0  0
 22 24  1  0  0  0  0
 24 23  1  0  0  0  0
 25 28  1  0  0  0  0
 26 27  1  0  0  0  0
 26 29  1  0  0  0  0
 28 26  2  0  0  0  0
 29 30  1  0  0  0  0
 30 34  1  0  0  0  0
 30 33  1  0  0  0  0
 31 35  1  0  0  0  0
 32 35  1  0  0  0  0
 33 32  1  0  0  0  0
 34 31  1  0  0  0  0
 37 36  1  6  0  0  0
 37  5  1  0  0  0  0
 37 39  1  0  0  0  0
 39 38  2  0  0  0  0
 40 39  1  0  0  0  0
 41 40  1  0  0  0  0
 41 42  1  0  0  0  0
 43 44  1  6  0  0  0
 43 42  1  0  0  0  0
 43 46  1  0  0  0  0
 45 43  1  0  0  0  0
 46 47  1  0  0  0  0
 47 48  1  0  0  0  0
 47 56  1  1  0  0  0
 49 48  1  1  0  0  0
 49 50  1  0  0  0  0
 51 49  1  0  0  0  0
 53 50  1  0  0  0  0
 53 52  1  0  0  0  0
 54 53  1  0  0  0  0
 55 51  1  0  0  0  0
 55 54  1  0  0  0  0
 56 58  1  0  0  0  0
 58 59  1  0  0  0  0
 58 57  1  1  0  0  0
 59 60  1  0  0  0  0
 60 64  1  6  0  0  0
 60 62  1  0  0  0  0
 61 62  1  0  0  0  0
 63 61  1  0  0  0  0
 63 62  1  0  0  0  0
 64 66  1  0  0  0  0
 66 65  2  0  0  0  0
 68 69  1  6  0  0  0
 68 66  1  0  0  0  0
 68 67  1  0  0  0  0
M  END
>  <MODEL>
3

>  <REMARK>
 VINA RESULT:      -3.5      2.406      7.767
  Name = 
  31 active torsions:
  status: ('A' for Active; 'I' for Inactive)
    1  A    between atoms: C_2  and  C_11
    2  A    between atoms: C_2  and  C_42
    3  A    between atoms: N_3  and  C_30
    4  A    between atoms: C_5  and  C_39
    5  A    between atoms: C_5  and  C_48
    6  A    between atoms: C_6  and  C_29
    7  A    between atoms: C_6  and  N_60
    8  A    between atoms: C_7  and  O_19
    9  A    between atoms: N_9  and  C_29
   10  A    between atoms: C_11  and  C_55
   11  A    between atoms: O_12  and  C_48
   12  A    between atoms: O_12  and  C_54
   13  A    between atoms: C_14  and  N_15
   14  A    between atoms: N_15  and  C_31
   15  A    between atoms: N_17  and  C_20
   16  A    between atoms: N_17  and  C_39
   17  A    between atoms: C_18  and  C_40
   18  A    between atoms: O_19  and  C_39
   19  A    between atoms: C_20  and  C_55
   20  A    between atoms: C_21  and  C_37
   21  A    between atoms: C_21  and  C_42
   22  A    between atoms: C_27  and  C_54
   23  A    between atoms: C_27  and  C_68
   24  A    between atoms: C_29  and  O_57
   25  A    between atoms: C_30  and  C_41
   26  A    between atoms: C_31  and  C_40
   27  A    between atoms: C_34  and  C_68
   28  A    between atoms: N_38  and  C_54
   29  A    between atoms: C_43  and  C_56
   30  A    between atoms: C_56  and  C_69
   31  A    between atoms: O_57  and  C_69
                            x       y       z     vdW  Elec       q    Type
                         _______ _______ _______ _____ _____    ______ ____

>  <TORSDO>
F 31

$$$$
=
 OpenBabel11032420353D

 69 73  0  0  1  0  0  0  0  0999 V2000
  191.1420  175.7670  138.0020 C   0  0  0  0  0  0  0  0  0  0  0  0
  191.1810  175.3690  136.6510 C   0  0  0  0  0  3  0  0  0  0  0  0
  188.7960  175.1080  138.0880 C   0  0  0  0  0  3  0  0  0  0  0  0
  189.9390  175.6270  138.7200 C   0  0  0  0  0  3  0  0  0  0  0  0
  188.8340  174.7320  136.7520 C   0  0  0  0  0  0  0  0  0  0  0  0
  190.0340  174.8660  136.0290 C   0  0  0  0  0  0  0  0  0  0  0  0
  190.1520  174.4130  134.5940 C   0  0  0  0  0  1  0  0  0  0  0  0
  192.7990  175.0340  139.5760 O   0  0  0  0  0  1  0  0  0  0  0  0
  192.4100  176.1070  138.7650 C   0  0  2  0  0  3  0  0  0  0  0  0
  193.4510  178.0910  139.7320 C   0  0  0  0  0  2  0  0  0  0  0  0
  192.3480  177.3770  139.5720 C   0  0  0  0  0  0  0  0  0  0  0  0
  191.3280  177.5240  140.5690 N   0  0  0  0  0  2  0  0  0  0  0  0
  190.3450  176.5010  143.9130 N   0  0  0  0  0  0  0  0  0  0  0  0
  191.4640  176.8270  141.8620 C   0  0  1  0  0  3  0  0  0  0  0  0
  191.5900  177.2410  144.1940 C   0  0  0  0  0  2  0  0  0  0  0  0
  192.1220  177.7420  142.8750 C   0  0  0  0  0  2  0  0  0  0  0  0
  190.1230  176.5240  142.4740 C   0  0  0  0  0  2  0  0  0  0  0  0
  189.1760  177.1230  144.5510 C   0  0  2  0  0  3  0  0  0  0  0  0
  189.0730  176.7760  145.9230 O   0  0  0  0  0  0  0  0  0  0  0  0
  189.1130  177.9590  146.6980 C   0  0  0  0  0  2  0  0  0  0  0  0
  187.8720  176.6640  148.4190 C   0  0  0  0  0  1  0  0  0  0  0  0
  187.9430  177.9820  147.6820 C   0  0  2  0  0  3  0  0  0  0  0  0
  186.0530  179.5960  147.4340 C   0  0  0  0  0  1  0  0  0  0  0  0
  186.6170  178.2620  146.9640 C   0  0  0  0  0  2  0  0  0  0  0  0
  187.9200  176.8230  143.7130 C   0  0  0  0  0  2  0  0  0  0  0  0
  186.3950  178.5430  142.9490 C   0  0  0  0  0  0  0  0  0  0  0  0
  186.7470  178.2840  141.5200 C   0  0  0  0  0  1  0  0  0  0  0  0
  186.9350  177.8740  143.9220 N   0  0  0  0  0  0  0  0  0  0  0  0
  185.3720  179.5840  143.2680 C   0  0  0  0  0  2  0  0  0  0  0  0
  184.1460  179.3110  142.5370 N   0  0  0  0  0  0  0  0  0  0  0  0
  181.8100  178.5380  142.8400 C   0  0  0  0  0  2  0  0  0  0  0  0
  183.1800  177.6810  140.9050 C   0  0  0  0  0  2  0  0  0  0  0  0
  184.4460  178.2280  141.6080 C   0  0  0  0  0  2  0  0  0  0  0  0
  183.1530  178.8550  143.5220 C   0  0  0  0  0  2  0  0  0  0  0  0
  181.9240  178.4660  141.3130 C   0  0  0  0  0  2  0  0  0  0  0  0
  187.5200  174.3720  134.7660 O   0  0  0  0  0  1  0  0  0  0  0  0
  187.6360  174.0630  136.1180 C   0  0  2  0  0  3  0  0  0  0  0  0
  186.3570  174.7190  137.9990 O   0  0  0  0  0  0  0  0  0  0  0  0
  186.3470  174.2550  136.8670 C   0  0  0  0  0  0  0  0  0  0  0  0
  185.1220  173.5610  136.3810 C   0  0  0  0  0  2  0  0  0  0  0  0
  183.8990  174.2110  137.0210 C   0  0  0  0  0  2  0  0  0  0  0  0
  183.9080  175.7400  137.0740 C   0  0  0  0  0  2  0  0  0  0  0  0
  183.4630  176.5370  135.8410 C   0  0  2  0  0  0  0  0  0  0  0  0
  182.8050  175.6420  134.8040 C   0  0  0  0  0  1  0  0  0  0  0  0
  184.6050  177.1500  135.2890 O   0  0  0  0  0  1  0  0  0  0  0  0
  182.4630  177.5350  136.2920 N   0  0  0  0  0  2  0  0  0  0  0  0
  181.2900  176.9360  136.9460 C   0  0  1  0  0  3  0  0  0  0  0  0
  181.7200  176.0630  137.9740 O   0  0  0  0  0  0  0  0  0  0  0  0
  180.6030  175.3630  138.4990 C   0  0  1  0  0  3  0  0  0  0  0  0
  180.0320  174.3200  137.5050 C   0  0  0  0  0  2  0  0  0  0  0  0
  180.8790  174.8190  139.9230 C   0  0  0  0  0  2  0  0  0  0  0  0
  179.2870  172.1110  137.1950 C   0  0  0  0  0  1  0  0  0  0  0  0
  179.9190  173.0070  138.1430 N   0  0  0  0  0  0  0  0  0  0  0  0
  179.0360  173.1750  139.2830 C   0  0  0  0  0  2  0  0  0  0  0  0
  179.7470  173.9070  140.4250 C   0  0  0  0  0  2  0  0  0  0  0  0
  180.4480  178.0570  137.5570 C   0  0  0  0  0  2  0  0  0  0  0  0
  182.1480  179.7540  137.8830 O   0  0  0  0  0  1  0  0  0  0  0  0
  180.9750  179.4570  137.1480 C   0  0  2  0  0  3  0  0  0  0  0  0
  179.9700  180.4410  137.3290 O   0  0  0  0  0  0  0  0  0  0  0  0
  180.4910  181.4770  138.1260 C   0  0  2  0  0  3  0  0  0  0  0  0
  178.9350  180.5630  139.6800 C   0  0  0  0  0  2  0  0  0  0  0  0
  180.3060  181.1160  139.5500 N   0  0  0  0  0  0  0  0  0  0  0  0
  179.2020  181.9470  140.0600 C   0  0  0  0  0  2  0  0  0  0  0  0
  179.8400  182.8360  137.8110 C   0  0  0  0  0  2  0  0  0  0  0  0
  181.1790  182.8920  135.8350 O   0  0  0  0  0  0  0  0  0  0  0  0
  180.3000  183.4160  136.5000 C   0  0  0  0  0  0  0  0  0  0  0  0
  179.5680  184.6550  134.6300 O   0  0  0  0  0  1  0  0  0  0  0  0
  179.6310  184.6680  136.0300 C   0  0  2  0  0  3  0  0  0  0  0  0
  180.3630  185.8430  136.4900 N   0  0  0  0  0  1  0  0  0  0  0  0
  1  4  1  0  0  0  0
  1  9  1  0  0  0  0
  2  1  2  0  0  0  0
  3  4  2  0  0  0  0
  5  3  1  0  0  0  0
  6  2  1  0  0  0  0
  6  5  2  0  0  0  0
  7  6  1  0  0  0  0
  9 11  1  0  0  0  0
  9  8  1  1  0  0  0
 11 10  2  0  0  0  0
 11 12  1  0  0  0  0
 13 15  1  0  0  0  0
 13 18  1  0  0  0  0
 14 12  1  6  0  0  0
 14 17  1  0  0  0  0
 14 16  1  0  0  0  0
 16 15  1  0  0  0  0
 17 13  1  0  0  0  0
 18 25  1  6  0  0  0
 18 19  1  0  0  0  0
 19 20  1  0  0  0  0
 20 22  1  0  0  0  0
 22 21  1  6  0  0  0
 24 23  1  0  0  0  0
 24 22  1  0  0  0  0
 25 28  1  0  0  0  0
 26 29  1  0  0  0  0
 26 28  2  0  0  0  0
 27 26  1  0  0  0  0
 30 29  1  0  0  0  0
 30 34  1  0  0  0  0
 31 34  1  0  0  0  0
 32 35  1  0  0  0  0
 32 33  1  0  0  0  0
 33 30  1  0  0  0  0
 35 31  1  0  0  0  0
 37 36  1  6  0  0  0
 37  5  1  0  0  0  0
 37 39  1  0  0  0  0
 39 38  2  0  0  0  0
 40 39  1  0  0  0  0
 40 41  1  0  0  0  0
 41 42  1  0  0  0  0
 43 44  1  6  0  0  0
 43 46  1  0  0  0  0
 43 42  1  0  0  0  0
 45 43  1  0  0  0  0
 46 47  1  0  0  0  0
 47 56  1  1  0  0  0
 47 48  1  0  0  0  0
 49 48  1  6  0  0  0
 49 51  1  0  0  0  0
 50 53  1  0  0  0  0
 50 49  1  0  0  0  0
 51 55  1  0  0  0  0
 52 53  1  0  0  0  0
 53 54  1  0  0  0  0
 54 55  1  0  0  0  0
 58 59  1  0  0  0  0
 58 56  1  0  0  0  0
 58 57  1  1  0  0  0
 59 60  1  0  0  0  0
 60 64  1  6  0  0  0
 60 62  1  0  0  0  0
 61 63  1  0  0  0  0
 62 61  1  0  0  0  0
 62 63  1  0  0  0  0
 65 66  2  0  0  0  0
 66 64  1  0  0  0  0
 68 67  1  6  0  0  0
 68 69  1  0  0  0  0
 68 66  1  0  0  0  0
M  END
>  <MODEL>
4

>  <REMARK>
 VINA RESULT:      -1.9      2.379      7.986
  Name = 
  31 active torsions:
  status: ('A' for Active; 'I' for Inactive)
    1  A    between atoms: C_2  and  C_11
    2  A    between atoms: C_2  and  C_42
    3  A    between atoms: N_3  and  C_30
    4  A    between atoms: C_5  and  C_39
    5  A    between atoms: C_5  and  C_48
    6  A    between atoms: C_6  and  C_29
    7  A    between atoms: C_6  and  N_60
    8  A    between atoms: C_7  and  O_19
    9  A    between atoms: N_9  and  C_29
   10  A    between atoms: C_11  and  C_55
   11  A    between atoms: O_12  and  C_48
   12  A    between atoms: O_12  and  C_54
   13  A    between atoms: C_14  and  N_15
   14  A    between atoms: N_15  and  C_31
   15  A    between atoms: N_17  and  C_20
   16  A    between atoms: N_17  and  C_39
   17  A    between atoms: C_18  and  C_40
   18  A    between atoms: O_19  and  C_39
   19  A    between atoms: C_20  and  C_55
   20  A    between atoms: C_21  and  C_37
   21  A    between atoms: C_21  and  C_42
   22  A    between atoms: C_27  and  C_54
   23  A    between atoms: C_27  and  C_68
   24  A    between atoms: C_29  and  O_57
   25  A    between atoms: C_30  and  C_41
   26  A    between atoms: C_31  and  C_40
   27  A    between atoms: C_34  and  C_68
   28  A    between atoms: N_38  and  C_54
   29  A    between atoms: C_43  and  C_56
   30  A    between atoms: C_56  and  C_69
   31  A    between atoms: O_57  and  C_69
                            x       y       z     vdW  Elec       q    Type
                         _______ _______ _______ _____ _____    ______ ____

>  <TORSDO>
F 31

$$$$
