=
 OpenBabel11042410113D

 32 35  0  0  1  0  0  0  0  0999 V2000
  189.9280  177.6710  144.3200 N   0  0  0  0  0  0  0  0  0  0  0  0
  191.6400  176.3000  143.4920 C   0  0  0  0  0  2  0  0  0  0  0  0
  192.0790  176.4630  138.2210 C   0  0  0  0  0  0  0  0  0  0  0  0
  189.5360  176.7490  137.9910 C   0  0  0  0  0  0  0  0  0  0  0  0
  189.6920  178.1790  140.3760 N   0  0  0  0  0  0  0  0  0  0  0  0
  191.0090  177.0330  144.6240 C   0  0  0  0  0  0  0  0  0  0  0  0
  189.2870  176.2290  136.7940 C   0  0  0  0  0  3  0  0  0  0  0  0
  190.7220  177.2560  140.0980 C   0  0  1  0  0  3  0  0  0  0  0  0
  189.6430  177.5220  142.9020 C   0  0  1  0  0  3  0  0  0  0  0  0
  191.1330  176.4780  141.0630 N   0  0  0  0  0  2  0  0  0  0  0  0
  188.5370  178.0330  139.8340 C   0  0  0  0  0  0  0  0  0  0  0  0
  193.2210  176.6630  139.0540 N   0  0  0  0  0  1  0  0  0  0  0  0
  191.4910  175.4910  135.8650 C   0  0  0  0  0  3  0  0  0  0  0  0
  192.3420  175.9390  136.9170 N   0  0  0  0  0  0  0  0  0  0  0  0
  188.4120  177.2800  138.6570 O   0  0  0  0  0  0  0  0  0  0  0  0
  190.1760  175.6090  135.8200 C   0  0  0  0  0  3  0  0  0  0  0  0
  190.5610  176.3790  142.4270 C   0  0  1  0  0  3  0  0  0  0  0  0
  188.2170  177.2600  142.5830 N   0  0  0  0  0  0  0  0  0  0  0  0
  187.5920  178.5110  142.1250 C   0  0  0  0  0  2  0  0  0  0  0  0
  190.8580  176.7950  138.6980 C   0  0  1  0  0  3  0  0  0  0  0  0
  187.3440  178.5250  140.5910 C   0  0  0  0  0  2  0  0  0  0  0  0
  192.6140  176.0890  147.9050 C   0  0  0  0  0  1  0  0  0  0  0  0
  191.5600  177.0050  145.9470 N   0  0  0  0  0  0  0  0  0  0  0  0
  192.1510  174.7630  145.8980 F   0  0  0  0  0  0  0  0  0  0  0  0
  192.0810  175.9650  146.5240 C   0  0  0  0  0  0  0  0  0  0  0  0
  187.4580  176.7770  143.7340 C   0  0  0  0  0  2  0  0  0  0  0  0
  186.1860  177.5890  143.8890 C   0  0  0  0  0  2  0  0  0  0  0  0
  186.1090  178.3160  145.5520 S   0  0  0  0  0  0  0  0  0  0  0  0
  188.8340  176.4850  147.8210 N   0  0  0  0  0  2  0  0  0  0  0  0
  187.2920  177.1640  146.1830 N   0  0  0  0  0  2  0  0  0  0  0  0
  187.7040  178.5550  148.2700 C   0  0  0  0  0  1  0  0  0  0  0  0
  187.9720  177.3590  147.4240 C   0  0  0  0  0  0  0  0  0  0  0  0
  1  6  2  0  0  0  0
  2  6  1  0  0  0  0
  3 20  1  0  0  0  0
  3 12  1  0  0  0  0
  4 15  1  0  0  0  0
  6 23  1  0  0  0  0
  7  4  2  0  0  0  0
  8  5  1  1  0  0  0
  8 10  1  0  0  0  0
  9  1  1  1  0  0  0
 10 17  1  0  0  0  0
 11  5  2  0  0  0  0
 11 21  1  0  0  0  0
 13 14  1  0  0  0  0
 14  3  2  0  0  0  0
 15 11  1  0  0  0  0
 16 13  2  0  0  0  0
 16  7  1  0  0  0  0
 17  9  1  0  0  0  0
 17  2  1  1  0  0  0
 18  9  1  0  0  0  0
 18 26  1  0  0  0  0
 19 18  1  0  0  0  0
 20  4  1  1  0  0  0
 20  8  1  0  0  0  0
 21 19  1  0  0  0  0
 23 25  2  0  0  0  0
 24 25  1  0  0  0  0
 25 22  1  0  0  0  0
 26 27  1  0  0  0  0
 27 28  1  0  0  0  0
 28 30  1  0  0  0  0
 30 32  1  0  0  0  0
 32 29  2  0  0  0  0
 32 31  1  0  0  0  0
M  END
>  <MODEL>
1

>  <REMARK>
 VINA RESULT:      -8.4      0.000      0.000
  Name = 
  5 active torsions:
  status: ('A' for Active; 'I' for Inactive)
    1  A    between atoms: S_5  and  N_15
    2  A    between atoms: S_5  and  C_18
    3  A    between atoms: C_9  and  N_10
    4  A    between atoms: C_13  and  C_18
    5  A    between atoms: C_13  and  N_29
                            x       y       z     vdW  Elec       q    Type
                         _______ _______ _______ _____ _____    ______ ____

>  <TORSDO>
F 5

$$$$
=
 OpenBabel11042410113D

 32 35  0  0  1  0  0  0  0  0999 V2000
  187.3200  178.8020  140.2680 N   0  0  0  0  0  0  0  0  0  0  0  0
  186.3300  178.3070  142.3350 C   0  0  0  0  0  2  0  0  0  0  0  0
  189.8550  177.4800  146.1940 C   0  0  0  0  0  0  0  0  0  0  0  0
  191.4830  176.4160  144.5150 C   0  0  0  0  0  0  0  0  0  0  0  0
  190.4430  178.2290  142.6740 N   0  0  0  0  0  0  0  0  0  0  0  0
  186.2310  178.8660  140.9580 C   0  0  0  0  0  0  0  0  0  0  0  0
  192.1920  175.5880  145.2750 C   0  0  0  0  0  3  0  0  0  0  0  0
  189.6450  177.8990  143.7910 C   0  0  1  0  0  3  0  0  0  0  0  0
  188.3850  178.2180  141.0700 C   0  0  1  0  0  3  0  0  0  0  0  0
  188.3750  177.6630  143.5960 N   0  0  0  0  0  2  0  0  0  0  0  0
  191.3520  177.4150  142.2740 C   0  0  0  0  0  0  0  0  0  0  0  0
  188.7770  178.3980  146.3760 N   0  0  0  0  0  1  0  0  0  0  0  0
  191.3260  175.8460  147.6100 C   0  0  0  0  0  3  0  0  0  0  0  0
  190.3690  176.8770  147.3840 N   0  0  0  0  0  2  0  0  0  0  0  0
  191.8670  176.4570  143.1590 O   0  0  0  0  0  0  0  0  0  0  0  0
  192.1020  175.2860  146.6980 C   0  0  0  0  0  3  0  0  0  0  0  0
  187.6750  177.6030  142.2910 C   0  0  1  0  0  3  0  0  0  0  0  0
  189.2220  177.2240  140.3530 N   0  0  0  0  0  0  0  0  0  0  0  0
  190.4830  177.8640  139.9470 C   0  0  0  0  0  2  0  0  0  0  0  0
  190.3230  177.2650  144.9440 C   0  0  0  0  0  0  0  0  0  0  0  0
  191.6890  177.4100  140.8160 C   0  0  0  0  0  2  0  0  0  0  0  0
  183.1140  179.6520  138.9830 C   0  0  0  0  0  1  0  0  0  0  0  0
  185.0070  179.4110  140.4460 N   0  0  0  0  0  0  0  0  0  0  0  0
  184.8410  177.9450  138.6560 F   0  0  0  0  0  0  0  0  0  0  0  0
  184.3770  178.9860  139.3940 C   0  0  0  0  0  0  0  0  0  0  0  0
  188.5790  176.7010  139.1500 C   0  0  0  0  0  2  0  0  0  0  0  0
  189.5490  176.7510  137.9850 C   0  0  0  0  0  2  0  0  0  0  0  0
  189.7320  175.0970  137.2550 S   0  0  0  0  0  0  0  0  0  0  0  0
  193.6600  175.0060  137.9550 N   0  0  0  0  0  2  0  0  0  0  0  0
  191.3150  174.8670  138.0080 N   0  0  0  0  0  2  0  0  0  0  0  0
  192.5400  175.8050  135.9870 C   0  0  0  0  0  1  0  0  0  0  0  0
  192.5370  175.2120  137.3540 C   0  0  0  0  0  0  0  0  0  0  0  0
  1  6  2  0  0  0  0
  3 12  1  0  0  0  0
  3 14  1  0  0  0  0
  4 20  1  0  0  0  0
  4  7  2  0  0  0  0
  6  2  1  0  0  0  0
  7 16  1  0  0  0  0
  8  5  1  6  0  0  0
  8 20  1  0  0  0  0
  9  1  1  6  0  0  0
  9 17  1  0  0  0  0
 10  8  1  0  0  0  0
 11  5  2  0  0  0  0
 11 15  1  0  0  0  0
 14 13  1  0  0  0  0
 15  4  1  0  0  0  0
 16 13  2  0  0  0  0
 17  2  1  1  0  0  0
 17 10  1  0  0  0  0
 18  9  1  0  0  0  0
 19 18  1  0  0  0  0
 19 21  1  0  0  0  0
 20  3  2  0  0  0  0
 21 11  1  0  0  0  0
 22 25  1  0  0  0  0
 23  6  1  0  0  0  0
 24 25  1  0  0  0  0
 25 23  2  0  0  0  0
 26 18  1  0  0  0  0
 27 26  1  0  0  0  0
 28 27  1  0  0  0  0
 28 30  1  0  0  0  0
 31 32  1  0  0  0  0
 32 29  2  0  0  0  0
 32 30  1  0  0  0  0
M  END
>  <MODEL>
2

>  <REMARK>
 VINA RESULT:      -8.3      3.275      8.104
  Name = 
  5 active torsions:
  status: ('A' for Active; 'I' for Inactive)
    1  A    between atoms: S_5  and  N_15
    2  A    between atoms: S_5  and  C_18
    3  A    between atoms: C_9  and  N_10
    4  A    between atoms: C_13  and  C_18
    5  A    between atoms: C_13  and  N_29
                            x       y       z     vdW  Elec       q    Type
                         _______ _______ _______ _____ _____    ______ ____

>  <TORSDO>
F 5

$$$$
=
 OpenBabel11042410113D

 32 35  0  0  1  0  0  0  0  0999 V2000
  187.2680  178.7790  140.2940 N   0  0  0  0  0  0  0  0  0  0  0  0
  186.2790  178.2670  142.3560 C   0  0  0  0  0  2  0  0  0  0  0  0
  189.8020  177.4970  146.2290 C   0  0  0  0  0  0  0  0  0  0  0  0
  191.4550  176.4630  144.5560 C   0  0  0  0  0  0  0  0  0  0  0  0
  190.3900  178.2590  142.7120 N   0  0  0  0  0  0  0  0  0  0  0  0
  186.1750  178.8240  140.9800 C   0  0  0  0  0  0  0  0  0  0  0  0
  192.1750  175.6460  145.3170 C   0  0  0  0  0  3  0  0  0  0  0  0
  189.5940  177.9140  143.8250 C   0  0  1  0  0  3  0  0  0  0  0  0
  188.3390  178.2140  141.0990 C   0  0  1  0  0  3  0  0  0  0  0  0
  188.3290  177.6570  143.6250 N   0  0  0  0  0  2  0  0  0  0  0  0
  191.3150  177.4610  142.3140 C   0  0  0  0  0  0  0  0  0  0  0  0
  188.7080  178.3970  146.4070 N   0  0  0  0  0  1  0  0  0  0  0  0
  191.2950  175.8880  147.6490 C   0  0  0  0  0  3  0  0  0  0  0  0
  190.3220  176.9020  147.4200 N   0  0  0  0  0  2  0  0  0  0  0  0
  191.8430  176.5110  143.2000 O   0  0  0  0  0  0  0  0  0  0  0  0
  192.0850  175.3420  146.7400 C   0  0  0  0  0  3  0  0  0  0  0  0
  187.6350  177.5860  142.3170 C   0  0  1  0  0  3  0  0  0  0  0  0
  189.1960  177.2340  140.3850 N   0  0  0  0  0  0  0  0  0  0  0  0
  190.4470  177.8960  139.9840 C   0  0  0  0  0  2  0  0  0  0  0  0
  190.2780  177.2910  144.9800 C   0  0  0  0  0  0  0  0  0  0  0  0
  191.6570  177.4620  140.8570 C   0  0  0  0  0  2  0  0  0  0  0  0
  182.6410  179.3590  139.7720 C   0  0  0  0  0  1  0  0  0  0  0  0
  184.9440  179.3490  140.4640 N   0  0  0  0  0  0  0  0  0  0  0  0
  183.7550  177.3680  140.6650 F   0  0  0  0  0  0  0  0  0  0  0  0
  183.8410  178.6780  140.3220 C   0  0  0  0  0  0  0  0  0  0  0  0
  188.5670  176.7010  139.1800 C   0  0  0  0  0  2  0  0  0  0  0  0
  189.4190  177.0260  137.9670 C   0  0  0  0  0  2  0  0  0  0  0  0
  188.4930  178.0870  136.8200 S   0  0  0  0  0  0  0  0  0  0  0  0
  185.6070  175.4840  135.9130 N   0  0  0  0  0  2  0  0  0  0  0  0
  187.5940  176.7120  136.1680 N   0  0  0  0  0  2  0  0  0  0  0  0
  185.4160  177.4870  137.2240 C   0  0  0  0  0  1  0  0  0  0  0  0
  186.2000  176.5180  136.4090 C   0  0  0  0  0  0  0  0  0  0  0  0
  1  6  2  0  0  0  0
  3 12  1  0  0  0  0
  3 14  1  0  0  0  0
  4 20  1  0  0  0  0
  4  7  2  0  0  0  0
  6  2  1  0  0  0  0
  7 16  1  0  0  0  0
  8  5  1  6  0  0  0
  8 20  1  0  0  0  0
  9  1  1  6  0  0  0
  9 17  1  0  0  0  0
 10  8  1  0  0  0  0
 11  5  2  0  0  0  0
 11 15  1  0  0  0  0
 14 13  1  0  0  0  0
 15  4  1  0  0  0  0
 16 13  2  0  0  0  0
 17  2  1  1  0  0  0
 17 10  1  0  0  0  0
 18  9  1  0  0  0  0
 19 18  1  0  0  0  0
 19 21  1  0  0  0  0
 20  3  2  0  0  0  0
 21 11  1  0  0  0  0
 22 25  1  0  0  0  0
 23  6  1  0  0  0  0
 25 23  2  0  0  0  0
 25 24  1  0  0  0  0
 26 18  1  0  0  0  0
 27 26  1  0  0  0  0
 28 27  1  0  0  0  0
 29 32  2  0  0  0  0
 30 32  1  0  0  0  0
 30 28  1  0  0  0  0
 32 31  1  0  0  0  0
M  END
>  <MODEL>
3

>  <REMARK>
 VINA RESULT:      -8.0      3.573      8.026
  Name = 
  5 active torsions:
  status: ('A' for Active; 'I' for Inactive)
    1  A    between atoms: S_5  and  N_15
    2  A    between atoms: S_5  and  C_18
    3  A    between atoms: C_9  and  N_10
    4  A    between atoms: C_13  and  C_18
    5  A    between atoms: C_13  and  N_29
                            x       y       z     vdW  Elec       q    Type
                         _______ _______ _______ _____ _____    ______ ____

>  <TORSDO>
F 5

$$$$
=
 OpenBabel11042410113D

 32 35  0  0  1  0  0  0  0  0999 V2000
  189.9370  177.5110  144.3780 N   0  0  0  0  0  0  0  0  0  0  0  0
  191.7590  176.2570  143.5990 C   0  0  0  0  0  2  0  0  0  0  0  0
  192.4070  176.5520  138.3560 C   0  0  0  0  0  0  0  0  0  0  0  0
  189.8640  176.6970  138.0230 C   0  0  0  0  0  0  0  0  0  0  0  0
  189.8360  178.0850  140.4370 N   0  0  0  0  0  0  0  0  0  0  0  0
  191.0400  176.9290  144.7160 C   0  0  0  0  0  0  0  0  0  0  0  0
  189.6950  176.1880  136.8070 C   0  0  0  0  0  3  0  0  0  0  0  0
  190.9290  177.2280  140.1870 C   0  0  1  0  0  3  0  0  0  0  0  0
  189.7210  177.3750  142.9460 C   0  0  1  0  0  3  0  0  0  0  0  0
  191.3440  176.4550  141.1550 N   0  0  0  0  0  2  0  0  0  0  0  0
  188.7160  177.8830  139.8430 C   0  0  0  0  0  0  0  0  0  0  0  0
  193.5000  176.8000  139.2400 N   0  0  0  0  0  1  0  0  0  0  0  0
  191.9750  175.5960  135.9600 C   0  0  0  0  0  3  0  0  0  0  0  0
  192.7540  176.0700  137.0550 N   0  0  0  0  0  0  0  0  0  0  0  0
  188.6840  177.1490  138.6490 O   0  0  0  0  0  0  0  0  0  0  0  0
  190.6580  175.6390  135.8600 C   0  0  0  0  0  3  0  0  0  0  0  0
  190.7220  176.2960  142.4910 C   0  0  1  0  0  3  0  0  0  0  0  0
  188.3270  177.0380  142.5620 N   0  0  0  0  0  0  0  0  0  0  0  0
  187.6500  178.2590  142.1000 C   0  0  0  0  0  2  0  0  0  0  0  0
  191.1500  176.8040  138.7860 C   0  0  1  0  0  3  0  0  0  0  0  0
  187.4650  178.2900  140.5570 C   0  0  0  0  0  2  0  0  0  0  0  0
  192.5280  176.0030  148.0560 C   0  0  0  0  0  1  0  0  0  0  0  0
  191.5350  176.9060  146.0610 N   0  0  0  0  0  0  0  0  0  0  0  0
  192.1790  174.6790  146.0250 F   0  0  0  0  0  0  0  0  0  0  0  0
  192.0550  175.8750  146.6540 C   0  0  0  0  0  0  0  0  0  0  0  0
  187.5490  176.4890  143.6700 C   0  0  0  0  0  2  0  0  0  0  0  0
  186.3630  177.3880  143.9620 C   0  0  0  0  0  2  0  0  0  0  0  0
  186.5190  178.1050  145.6240 S   0  0  0  0  0  0  0  0  0  0  0  0
  182.6920  179.1060  145.0940 N   0  0  0  0  0  2  0  0  0  0  0  0
  184.7660  178.2530  145.7970 N   0  0  0  0  0  2  0  0  0  0  0  0
  184.5760  179.7530  143.7530 C   0  0  0  0  0  1  0  0  0  0  0  0
  183.9660  179.0290  144.9030 C   0  0  0  0  0  0  0  0  0  0  0  0
  1  6  2  0  0  0  0
  2  6  1  0  0  0  0
  3 20  1  0  0  0  0
  3 12  1  0  0  0  0
  4 15  1  0  0  0  0
  6 23  1  0  0  0  0
  7  4  2  0  0  0  0
  8  5  1  1  0  0  0
  8 10  1  0  0  0  0
  9  1  1  1  0  0  0
 10 17  1  0  0  0  0
 11  5  2  0  0  0  0
 11 21  1  0  0  0  0
 13 14  1  0  0  0  0
 14  3  2  0  0  0  0
 15 11  1  0  0  0  0
 16 13  2  0  0  0  0
 16  7  1  0  0  0  0
 17  9  1  0  0  0  0
 17  2  1  1  0  0  0
 18  9  1  0  0  0  0
 18 26  1  0  0  0  0
 19 18  1  0  0  0  0
 20  4  1  1  0  0  0
 20  8  1  0  0  0  0
 21 19  1  0  0  0  0
 23 25  2  0  0  0  0
 24 25  1  0  0  0  0
 25 22  1  0  0  0  0
 26 27  1  0  0  0  0
 27 28  1  0  0  0  0
 28 30  1  0  0  0  0
 31 32  1  0  0  0  0
 32 29  2  0  0  0  0
 32 30  1  0  0  0  0
M  END
>  <MODEL>
4

>  <REMARK>
 VINA RESULT:      -7.7      1.335      1.928
  Name = 
  5 active torsions:
  status: ('A' for Active; 'I' for Inactive)
    1  A    between atoms: S_5  and  N_15
    2  A    between atoms: S_5  and  C_18
    3  A    between atoms: C_9  and  N_10
    4  A    between atoms: C_13  and  C_18
    5  A    between atoms: C_13  and  N_29
                            x       y       z     vdW  Elec       q    Type
                         _______ _______ _______ _____ _____    ______ ____

>  <TORSDO>
F 5

$$$$
=
 OpenBabel11042410113D

 32 35  0  0  1  0  0  0  0  0999 V2000
  187.9950  177.3290  140.4730 N   0  0  0  0  0  0  0  0  0  0  0  0
  190.2600  177.4810  141.0610 C   0  0  0  0  0  2  0  0  0  0  0  0
  191.1380  176.6770  146.2170 C   0  0  0  0  0  0  0  0  0  0  0  0
  188.9000  177.7960  146.8000 C   0  0  0  0  0  0  0  0  0  0  0  0
  187.9720  176.7100  144.4090 N   0  0  0  0  0  0  0  0  0  0  0  0
  189.2060  177.3030  140.0250 C   0  0  0  0  0  0  0  0  0  0  0  0
  189.1150  178.2680  148.0230 C   0  0  0  0  0  3  0  0  0  0  0  0
  189.3640  176.9020  144.5450 C   0  0  1  0  0  3  0  0  0  0  0  0
  188.0030  177.4920  141.9190 C   0  0  1  0  0  3  0  0  0  0  0  0
  190.0200  177.4090  143.5350 N   0  0  0  0  0  2  0  0  0  0  0  0
  187.1580  177.4140  145.1090 C   0  0  0  0  0  0  0  0  0  0  0  0
  191.8790  175.9590  145.2300 N   0  0  0  0  0  1  0  0  0  0  0  0
  191.4530  177.6160  148.6370 C   0  0  0  0  0  3  0  0  0  0  0  0
  191.7920  176.8670  147.4740 N   0  0  0  0  0  2  0  0  0  0  0  0
  187.6010  178.0150  146.2960 O   0  0  0  0  0  0  0  0  0  0  0  0
  190.3030  178.2260  148.8670 C   0  0  0  0  0  3  0  0  0  0  0  0
  189.4440  177.9130  142.2660 C   0  0  1  0  0  3  0  0  0  0  0  0
  187.0010  178.4580  142.4360 N   0  0  0  0  0  0  0  0  0  0  0  0
  185.8510  177.7130  142.9710 C   0  0  0  0  0  2  0  0  0  0  0  0
  189.8900  177.0990  145.9140 C   0  0  0  0  0  0  0  0  0  0  0  0
  185.8130  177.7100  144.5240 C   0  0  0  0  0  2  0  0  0  0  0  0
  189.7700  177.7250  136.3180 C   0  0  0  0  0  1  0  0  0  0  0  0
  189.5260  177.1360  138.6370 N   0  0  0  0  0  0  0  0  0  0  0  0
  188.9230  179.2850  138.0070 F   0  0  0  0  0  0  0  0  0  0  0  0
  189.3950  178.0450  137.7200 C   0  0  0  0  0  0  0  0  0  0  0  0
  186.5050  179.3670  141.4070 C   0  0  0  0  0  2  0  0  0  0  0  0
  185.0550  179.0490  141.0940 C   0  0  0  0  0  2  0  0  0  0  0  0
  184.8610  178.7020  139.3210 S   0  0  0  0  0  0  0  0  0  0  0  0
  182.0660  181.4340  138.5150 N   0  0  0  0  0  2  0  0  0  0  0  0
  184.0110  180.2270  139.0470 N   0  0  0  0  0  2  0  0  0  0  0  0
  181.8050  179.0490  138.5950 C   0  0  0  0  0  1  0  0  0  0  0  0
  182.6230  180.2870  138.7150 C   0  0  0  0  0  0  0  0  0  0  0  0
  3 14  1  0  0  0  0
  4  7  2  0  0  0  0
  5  8  1  0  0  0  0
  5 11  2  0  0  0  0
  6  1  2  0  0  0  0
  6  2  1  0  0  0  0
  7 16  1  0  0  0  0
  8 10  1  6  0  0  0
  8 20  1  0  0  0  0
  9  1  1  6  0  0  0
  9 17  1  0  0  0  0
  9 18  1  0  0  0  0
 11 15  1  0  0  0  0
 12  3  1  0  0  0  0
 13 16  2  0  0  0  0
 14 13  1  0  0  0  0
 15  4  1  0  0  0  0
 17  2  1  6  0  0  0
 17 10  1  0  0  0  0
 18 19  1  0  0  0  0
 19 21  1  0  0  0  0
 20  3  2  0  0  0  0
 20  4  1  0  0  0  0
 21 11  1  0  0  0  0
 22 25  1  0  0  0  0
 23  6  1  0  0  0  0
 25 24  1  0  0  0  0
 25 23  2  0  0  0  0
 26 18  1  0  0  0  0
 27 26  1  0  0  0  0
 28 27  1  0  0  0  0
 29 32  2  0  0  0  0
 30 28  1  0  0  0  0
 31 32  1  0  0  0  0
 32 30  1  0  0  0  0
M  END
>  <MODEL>
5

>  <REMARK>
 VINA RESULT:      -7.5      3.660      7.848
  Name = 
  5 active torsions:
  status: ('A' for Active; 'I' for Inactive)
    1  A    between atoms: S_5  and  N_15
    2  A    between atoms: S_5  and  C_18
    3  A    between atoms: C_9  and  N_10
    4  A    between atoms: C_13  and  C_18
    5  A    between atoms: C_13  and  N_29
                            x       y       z     vdW  Elec       q    Type
                         _______ _______ _______ _____ _____    ______ ____

>  <TORSDO>
F 5

$$$$
=
 OpenBabel11042410113D

 32 35  0  0  1  0  0  0  0  0999 V2000
  183.3640  178.9470  138.1010 N   0  0  0  0  0  0  0  0  0  0  0  0
  182.0750  178.6500  140.0370 C   0  0  0  0  0  2  0  0  0  0  0  0
  184.9000  178.9830  144.4990 C   0  0  0  0  0  0  0  0  0  0  0  0
  186.9230  177.9150  143.3290 C   0  0  0  0  0  0  0  0  0  0  0  0
  186.0340  179.2350  141.0430 N   0  0  0  0  0  0  0  0  0  0  0  0
  182.1650  178.9590  138.5830 C   0  0  0  0  0  0  0  0  0  0  0  0
  187.5720  177.3330  144.3320 C   0  0  0  0  0  3  0  0  0  0  0  0
  185.0890  178.9740  142.0580 C   0  0  1  0  0  3  0  0  0  0  0  0
  184.3230  178.6630  139.1570 C   0  0  1  0  0  3  0  0  0  0  0  0
  183.9130  178.5260  141.7070 N   0  0  0  0  0  2  0  0  0  0  0  0
  187.0900  178.5100  140.9500 C   0  0  0  0  0  0  0  0  0  0  0  0
  183.7070  179.7490  144.3330 N   0  0  0  0  0  1  0  0  0  0  0  0
  186.2660  177.8320  146.4090 C   0  0  0  0  0  3  0  0  0  0  0  0
  185.2530  178.6610  145.8460 N   0  0  0  0  0  2  0  0  0  0  0  0
  187.5420  177.7940  142.0670 O   0  0  0  0  0  0  0  0  0  0  0  0
  187.2570  177.2540  145.7530 C   0  0  0  0  0  3  0  0  0  0  0  0
  183.4770  178.1540  140.3400 C   0  0  1  0  0  3  0  0  0  0  0  0
  185.3890  177.7010  138.7800 N   0  0  0  0  0  0  0  0  0  0  0  0
  186.6190  178.4470  138.4720 C   0  0  0  0  0  2  0  0  0  0  0  0
  185.6120  178.6410  143.4010 C   0  0  0  0  0  0  0  0  0  0  0  0
  187.6890  178.3210  139.5910 C   0  0  0  0  0  2  0  0  0  0  0  0
  179.4280  180.5150  136.5060 C   0  0  0  0  0  1  0  0  0  0  0  0
  181.0020  179.2280  137.7900 N   0  0  0  0  0  0  0  0  0  0  0  0
  181.4210  181.4960  137.5390 F   0  0  0  0  0  0  0  0  0  0  0  0
  180.6670  180.3900  137.3150 C   0  0  0  0  0  0  0  0  0  0  0  0
  185.0440  176.9030  137.6070 C   0  0  0  0  0  2  0  0  0  0  0  0
  186.0600  177.1400  136.5050 C   0  0  0  0  0  2  0  0  0  0  0  0
  186.6600  175.5530  135.8570 S   0  0  0  0  0  0  0  0  0  0  0  0
  189.8740  175.6300  138.2210 N   0  0  0  0  0  2  0  0  0  0  0  0
  187.7690  175.3410  137.2160 N   0  0  0  0  0  2  0  0  0  0  0  0
  189.6480  176.5680  136.0220 C   0  0  0  0  0  1  0  0  0  0  0  0
  189.1120  175.8300  137.1990 C   0  0  0  0  0  0  0  0  0  0  0  0
  1  6  2  0  0  0  0
  3 14  1  0  0  0  0
  4 20  1  0  0  0  0
  4  7  2  0  0  0  0
  6  2  1  0  0  0  0
  7 16  1  0  0  0  0
  8  5  1  6  0  0  0
  8 20  1  0  0  0  0
  9  1  1  6  0  0  0
  9 17  1  0  0  0  0
 10  8  1  0  0  0  0
 11  5  2  0  0  0  0
 11 15  1  0  0  0  0
 12  3  1  0  0  0  0
 14 13  1  0  0  0  0
 15  4  1  0  0  0  0
 16 13  2  0  0  0  0
 17  2  1  6  0  0  0
 17 10  1  0  0  0  0
 18  9  1  0  0  0  0
 19 18  1  0  0  0  0
 19 21  1  0  0  0  0
 20  3  2  0  0  0  0
 21 11  1  0  0  0  0
 22 25  1  0  0  0  0
 23  6  1  0  0  0  0
 25 24  1  0  0  0  0
 25 23  2  0  0  0  0
 26 18  1  0  0  0  0
 27 26  1  0  0  0  0
 28 27  1  0  0  0  0
 28 30  1  0  0  0  0
 31 32  1  0  0  0  0
 32 30  1  0  0  0  0
 32 29  2  0  0  0  0
M  END
>  <MODEL>
6

>  <REMARK>
 VINA RESULT:      -7.1      5.201      9.616
  Name = 
  5 active torsions:
  status: ('A' for Active; 'I' for Inactive)
    1  A    between atoms: S_5  and  N_15
    2  A    between atoms: S_5  and  C_18
    3  A    between atoms: C_9  and  N_10
    4  A    between atoms: C_13  and  C_18
    5  A    between atoms: C_13  and  N_29
                            x       y       z     vdW  Elec       q    Type
                         _______ _______ _______ _____ _____    ______ ____

>  <TORSDO>
F 5

$$$$
=
 OpenBabel11042410113D

 32 35  0  0  1  0  0  0  0  0999 V2000
  190.5400  177.4730  139.3930 N   0  0  0  0  0  0  0  0  0  0  0  0
  189.7860  176.2610  137.5330 C   0  0  0  0  0  2  0  0  0  0  0  0
  184.7680  177.3300  136.2360 C   0  0  0  0  0  0  0  0  0  0  0  0
  184.1710  177.6590  138.7130 C   0  0  0  0  0  0  0  0  0  0  0  0
  186.7570  178.6550  138.9900 N   0  0  0  0  0  0  0  0  0  0  0  0
  190.9060  176.7890  138.3600 C   0  0  0  0  0  0  0  0  0  0  0  0
  182.8780  177.3540  138.7490 C   0  0  0  0  0  3  0  0  0  0  0  0
  186.5010  177.7910  137.9040 C   0  0  1  0  0  3  0  0  0  0  0  0
  189.0890  177.5720  139.4360 C   0  0  1  0  0  3  0  0  0  0  0  0
  187.3740  176.8570  137.6370 N   0  0  0  0  0  2  0  0  0  0  0  0
  186.0120  178.6070  140.0350 C   0  0  0  0  0  0  0  0  0  0  0  0
  185.8020  177.3810  135.2530 N   0  0  0  0  0  1  0  0  0  0  0  0
  182.2170  176.7810  136.4030 C   0  0  0  0  0  3  0  0  0  0  0  0
  183.4570  177.0380  135.7490 N   0  0  0  0  0  0  0  0  0  0  0  0
  184.7210  178.0700  139.9460 O   0  0  0  0  0  0  0  0  0  0  0  0
  181.9730  176.9090  137.6960 C   0  0  0  0  0  3  0  0  0  0  0  0
  188.5860  176.5250  138.4230 C   0  0  1  0  0  3  0  0  0  0  0  0
  188.4980  177.3730  140.7830 N   0  0  0  0  0  0  0  0  0  0  0  0
  188.1610  178.6850  141.3570 C   0  0  0  0  0  2  0  0  0  0  0  0
  185.0850  177.5780  137.5270 C   0  0  1  0  0  3  0  0  0  0  0  0
  186.6330  178.9640  141.3500 C   0  0  0  0  0  2  0  0  0  0  0  0
  194.2370  175.2490  137.4870 C   0  0  0  0  0  1  0  0  0  0  0  0
  192.2780  176.5320  138.0340 N   0  0  0  0  0  0  0  0  0  0  0  0
  192.0450  174.2290  137.8820 F   0  0  0  0  0  0  0  0  0  0  0  0
  192.7930  175.3600  137.8160 C   0  0  0  0  0  0  0  0  0  0  0  0
  189.4060  176.7000  141.7090 C   0  0  0  0  0  2  0  0  0  0  0  0
  188.6620  176.3220  142.9760 C   0  0  0  0  0  2  0  0  0  0  0  0
  189.4950  177.0360  144.4240 S   0  0  0  0  0  0  0  0  0  0  0  0
  186.5330  178.1740  146.8440 N   0  0  0  0  0  2  0  0  0  0  0  0
  187.9790  177.6890  145.0560 N   0  0  0  0  0  2  0  0  0  0  0  0
  188.6170  177.1510  147.4580 C   0  0  0  0  0  1  0  0  0  0  0  0
  187.6630  177.6930  146.4500 C   0  0  0  0  0  0  0  0  0  0  0  0
  2  6  1  0  0  0  0
  4  7  2  0  0  0  0
  4 15  1  0  0  0  0
  5 11  2  0  0  0  0
  6  1  2  0  0  0  0
  8 10  1  1  0  0  0
  8  5  1  0  0  0  0
  9  1  1  1  0  0  0
  9 18  1  0  0  0  0
 10 17  1  0  0  0  0
 11 21  1  0  0  0  0
 12  3  1  0  0  0  0
 13 16  2  0  0  0  0
 14  3  2  0  0  0  0
 14 13  1  0  0  0  0
 15 11  1  0  0  0  0
 16  7  1  0  0  0  0
 17  2  1  6  0  0  0
 17  9  1  0  0  0  0
 18 19  1  0  0  0  0
 18 26  1  0  0  0  0
 20  3  1  1  0  0  0
 20  8  1  0  0  0  0
 20  4  1  0  0  0  0
 21 19  1  0  0  0  0
 22 25  1  0  0  0  0
 23  6  1  0  0  0  0
 25 24  1  0  0  0  0
 25 23  2  0  0  0  0
 26 27  1  0  0  0  0
 27 28  1  0  0  0  0
 28 30  1  0  0  0  0
 30 32  1  0  0  0  0
 32 29  2  0  0  0  0
 32 31  1  0  0  0  0
M  END
>  <MODEL>
7

>  <REMARK>
 VINA RESULT:      -7.1      3.649      5.777
  Name = 
  5 active torsions:
  status: ('A' for Active; 'I' for Inactive)
    1  A    between atoms: S_5  and  N_15
    2  A    between atoms: S_5  and  C_18
    3  A    between atoms: C_9  and  N_10
    4  A    between atoms: C_13  and  C_18
    5  A    between atoms: C_13  and  N_29
                            x       y       z     vdW  Elec       q    Type
                         _______ _______ _______ _____ _____    ______ ____

>  <TORSDO>
F 5

$$$$
=
 OpenBabel11042410113D

 32 35  0  0  1  0  0  0  0  0999 V2000
  188.7470  178.2680  143.8100 N   0  0  0  0  0  0  0  0  0  0  0  0
  187.8620  177.5290  141.7690 C   0  0  0  0  0  2  0  0  0  0  0  0
  182.8140  178.9440  141.0460 C   0  0  0  0  0  0  0  0  0  0  0  0
  182.3590  178.7020  143.5630 C   0  0  0  0  0  0  0  0  0  0  0  0
  184.9830  179.5690  143.9100 N   0  0  0  0  0  0  0  0  0  0  0  0
  189.0380  177.8340  142.6290 C   0  0  0  0  0  0  0  0  0  0  0  0
  181.0610  178.4170  143.6030 C   0  0  0  0  0  3  0  0  0  0  0  0
  184.6450  178.9820  142.6710 C   0  0  1  0  0  3  0  0  0  0  0  0
  187.3040  178.3760  143.9590 C   0  0  1  0  0  3  0  0  0  0  0  0
  185.4760  178.1210  142.1480 N   0  0  0  0  0  2  0  0  0  0  0  0
  184.2940  179.2930  144.9580 C   0  0  0  0  0  0  0  0  0  0  0  0
  183.7950  179.2040  140.0420 N   0  0  0  0  0  1  0  0  0  0  0  0
  180.2610  178.4100  141.2310 C   0  0  0  0  0  3  0  0  0  0  0  0
  181.4710  178.7920  140.5830 N   0  0  0  0  0  0  0  0  0  0  0  0
  182.9850  178.8100  144.8230 O   0  0  0  0  0  0  0  0  0  0  0  0
  180.0900  178.2400  142.5300 C   0  0  0  0  0  3  0  0  0  0  0  0
  186.7180  177.5990  142.7650 C   0  0  1  0  0  3  0  0  0  0  0  0
  186.7800  177.8810  145.2570 N   0  0  0  0  0  0  0  0  0  0  0  0
  186.5110  179.0310  146.1350 C   0  0  0  0  0  2  0  0  0  0  0  0
  183.2060  178.8830  142.3390 C   0  0  1  0  0  3  0  0  0  0  0  0
  184.9930  179.3280  146.2810 C   0  0  0  0  0  2  0  0  0  0  0  0
  192.1800  177.2860  140.6150 C   0  0  0  0  0  1  0  0  0  0  0  0
  190.3830  177.6380  142.1730 N   0  0  0  0  0  0  0  0  0  0  0  0
  189.8380  177.4820  139.9240 F   0  0  0  0  0  0  0  0  0  0  0  0
  190.7420  177.4780  140.9360 C   0  0  0  0  0  0  0  0  0  0  0  0
  187.7160  177.0000  145.9490 C   0  0  0  0  0  2  0  0  0  0  0  0
  187.7640  177.3550  147.4240 C   0  0  0  0  0  2  0  0  0  0  0  0
  189.4850  177.5980  147.9510 S   0  0  0  0  0  0  0  0  0  0  0  0
  191.7210  176.2540  144.9310 N   0  0  0  0  0  2  0  0  0  0  0  0
  190.1030  177.2120  146.3410 N   0  0  0  0  0  2  0  0  0  0  0  0
  192.1360  176.0110  147.2840 C   0  0  0  0  0  1  0  0  0  0  0  0
  191.3200  176.4920  146.1340 C   0  0  0  0  0  0  0  0  0  0  0  0
  2  6  1  0  0  0  0
  4  7  2  0  0  0  0
  4 15  1  0  0  0  0
  5 11  2  0  0  0  0
  6  1  2  0  0  0  0
  8 10  1  1  0  0  0
  8  5  1  0  0  0  0
  9  1  1  1  0  0  0
  9 18  1  0  0  0  0
 10 17  1  0  0  0  0
 11 21  1  0  0  0  0
 12  3  1  0  0  0  0
 13 16  2  0  0  0  0
 14  3  2  0  0  0  0
 14 13  1  0  0  0  0
 15 11  1  0  0  0  0
 16  7  1  0  0  0  0
 17  2  1  6  0  0  0
 17  9  1  0  0  0  0
 18 26  1  0  0  0  0
 18 19  1  0  0  0  0
 19 21  1  0  0  0  0
 20  3  1  6  0  0  0
 20  8  1  0  0  0  0
 20  4  1  0  0  0  0
 22 25  1  0  0  0  0
 23  6  1  0  0  0  0
 24 25  1  0  0  0  0
 25 23  2  0  0  0  0
 26 27  1  0  0  0  0
 27 28  1  0  0  0  0
 29 32  2  0  0  0  0
 30 28  1  0  0  0  0
 32 30  1  0  0  0  0
 32 31  1  0  0  0  0
M  END
>  <MODEL>
8

>  <REMARK>
 VINA RESULT:      -7.0      3.768      6.950
  Name = 
  5 active torsions:
  status: ('A' for Active; 'I' for Inactive)
    1  A    between atoms: S_5  and  N_15
    2  A    between atoms: S_5  and  C_18
    3  A    between atoms: C_9  and  N_10
    4  A    between atoms: C_13  and  C_18
    5  A    between atoms: C_13  and  N_29
                            x       y       z     vdW  Elec       q    Type
                         _______ _______ _______ _____ _____    ______ ____

>  <TORSDO>
F 5

$$$$
=
 OpenBabel11042410113D

 32 35  0  0  1  0  0  0  0  0999 V2000
  187.1910  177.2940  142.8710 N   0  0  0  0  0  0  0  0  0  0  0  0
  185.5090  178.2690  144.1800 C   0  0  0  0  0  2  0  0  0  0  0  0
  181.1150  179.3780  141.4490 C   0  0  0  0  0  0  0  0  0  0  0  0
  182.5160  179.9230  139.3650 C   0  0  0  0  0  0  0  0  0  0  0  0
  184.2470  177.9350  140.2650 N   0  0  0  0  0  0  0  0  0  0  0  0
  186.7690  177.4830  144.0760 C   0  0  0  0  0  0  0  0  0  0  0  0
  181.7490  180.7900  138.7110 C   0  0  0  0  0  3  0  0  0  0  0  0
  183.4080  178.5540  141.2170 C   0  0  1  0  0  3  0  0  0  0  0  0
  186.2650  177.8880  141.9190 C   0  0  1  0  0  3  0  0  0  0  0  0
  183.9240  178.8940  142.3680 N   0  0  0  0  0  2  0  0  0  0  0  0
  184.5470  178.5530  139.1800 C   0  0  0  0  0  0  0  0  0  0  0  0
  181.0480  178.6390  142.6680 N   0  0  0  0  0  1  0  0  0  0  0  0
  179.6650  181.0640  140.0720 C   0  0  0  0  0  3  0  0  0  0  0  0
  179.9450  180.1250  141.1060 N   0  0  0  0  0  2  0  0  0  0  0  0
  183.7250  179.5900  138.7190 O   0  0  0  0  0  0  0  0  0  0  0  0
  180.4480  181.3550  139.0470 C   0  0  0  0  0  3  0  0  0  0  0  0
  185.3490  178.7940  142.7650 C   0  0  1  0  0  3  0  0  0  0  0  0
  186.9130  178.6320  140.8100 N   0  0  0  0  0  0  0  0  0  0  0  0
  186.9150  177.7880  139.6050 C   0  0  0  0  0  2  0  0  0  0  0  0
  182.2410  179.3060  140.7040 C   0  0  0  0  0  0  0  0  0  0  0  0
  185.8720  178.2520  138.5510 C   0  0  0  0  0  2  0  0  0  0  0  0
  189.1340  176.9100  146.9590 C   0  0  0  0  0  1  0  0  0  0  0  0
  187.4590  176.9980  145.2350 N   0  0  0  0  0  0  0  0  0  0  0  0
  189.1090  178.6280  145.2130 F   0  0  0  0  0  0  0  0  0  0  0  0
  188.5280  177.5260  145.7500 C   0  0  0  0  0  0  0  0  0  0  0  0
  188.2970  178.9970  141.1020 C   0  0  0  0  0  2  0  0  0  0  0  0
  189.2230  178.3620  140.0820 C   0  0  0  0  0  2  0  0  0  0  0  0
  190.0920  176.9500  140.8240 S   0  0  0  0  0  0  0  0  0  0  0  0
  191.9190  178.2730  144.1160 N   0  0  0  0  0  2  0  0  0  0  0  0
  190.8660  177.9770  142.0360 N   0  0  0  0  0  2  0  0  0  0  0  0
  191.2940  176.0140  143.5930 C   0  0  0  0  0  1  0  0  0  0  0  0
  191.3770  177.4650  143.2680 C   0  0  0  0  0  0  0  0  0  0  0  0
  1  6  2  0  0  0  0
  3 12  1  0  0  0  0
  4 20  1  0  0  0  0
  6  2  1  0  0  0  0
  6 23  1  0  0  0  0
  7 16  1  0  0  0  0
  7  4  2  0  0  0  0
  8  5  1  6  0  0  0
  8 10  1  0  0  0  0
  9 17  1  0  0  0  0
  9  1  1  1  0  0  0
 10 17  1  0  0  0  0
 11  5  2  0  0  0  0
 13 14  1  0  0  0  0
 14  3  1  0  0  0  0
 15 11  1  0  0  0  0
 15  4  1  0  0  0  0
 16 13  2  0  0  0  0
 17  2  1  1  0  0  0
 18 26  1  0  0  0  0
 18  9  1  0  0  0  0
 19 18  1  0  0  0  0
 20  8  1  0  0  0  0
 20  3  2  0  0  0  0
 21 11  1  0  0  0  0
 21 19  1  0  0  0  0
 23 25  2  0  0  0  0
 24 25  1  0  0  0  0
 25 22  1  0  0  0  0
 27 28  1  0  0  0  0
 27 26  1  0  0  0  0
 28 30  1  0  0  0  0
 30 32  1  0  0  0  0
 32 31  1  0  0  0  0
 32 29  2  0  0  0  0
M  END
>  <MODEL>
9

>  <REMARK>
 VINA RESULT:      -6.9      4.274      7.177
  Name = 
  5 active torsions:
  status: ('A' for Active; 'I' for Inactive)
    1  A    between atoms: S_5  and  N_15
    2  A    between atoms: S_5  and  C_18
    3  A    between atoms: C_9  and  N_10
    4  A    between atoms: C_13  and  C_18
    5  A    between atoms: C_13  and  N_29
                            x       y       z     vdW  Elec       q    Type
                         _______ _______ _______ _____ _____    ______ ____

>  <TORSDO>
F 5

$$$$
