=
 OpenBabel11042410053D

 29 32  0  0  1  0  0  0  0  0999 V2000
  188.1840  177.2130  141.6920 C   0  0  0  0  0  2  0  0  0  0  0  0
  186.8790  175.8650  135.2720 S   0  0  0  0  0  0  0  0  0  0  0  0
  188.8820  178.1460  136.5880 S   0  0  0  0  0  0  0  0  0  0  0  0
  186.5630  176.6810  136.8260 C   0  0  0  0  0  0  0  0  0  0  0  0
  187.0440  178.3640  138.9290 S   0  0  0  0  0  0  0  0  0  0  0  0
  184.6970  175.2020  136.7560 C   0  0  0  0  0  2  0  0  0  0  0  0
  190.8230  177.1230  138.3250 C   0  0  0  0  0  3  0  0  0  0  0  0
  189.1050  177.2540  140.5140 C   0  0  0  0  0  0  0  0  0  0  0  0
  190.3890  176.7080  140.6270 C   0  0  0  0  0  3  0  0  0  0  0  0
  185.3910  176.2420  137.4890 N   0  0  0  0  0  2  0  0  0  0  0  0
  185.1440  175.3000  135.3000 C   0  0  0  0  0  2  0  0  0  0  0  0
  191.2140  176.6600  139.5430 N   0  0  0  0  0  0  0  0  0  0  0  0
  189.5640  177.7050  138.1800 C   0  0  0  0  0  0  0  0  0  0  0  0
  187.3000  177.6940  137.2930 C   0  0  0  0  0  0  0  0  0  0  0  0
  188.7050  177.7810  139.2770 C   0  0  0  0  0  0  0  0  0  0  0  0
  189.0500  176.7540  145.4190 C   0  0  0  0  0  2  0  0  0  0  0  0
  189.7420  177.9180  145.7860 O   0  0  0  0  0  0  0  0  0  0  0  0
  190.9480  177.8600  145.0760 C   0  0  0  0  0  2  0  0  0  0  0  0
  190.9120  178.7810  143.8520 C   0  0  1  0  0  3  0  0  0  0  0  0
  189.5700  178.7930  143.1130 C   0  0  0  0  0  2  0  0  0  0  0  0
  191.2410  180.0820  144.2330 O   0  0  0  0  0  1  0  0  0  0  0  0
  188.1190  177.0180  144.2280 C   0  0  2  0  0  3  0  0  0  0  0  0
  188.9590  177.3940  142.9930 C   0  0  1  0  0  3  0  0  0  0  0  0
  186.1250  178.1900  143.5310 O   0  0  0  0  0  1  0  0  0  0  0  0
  187.0300  178.0460  144.5860 C   0  0  1  0  0  3  0  0  0  0  0  0
  186.2720  177.6160  145.8350 C   0  0  0  0  0  2  0  0  0  0  0  0
  185.8790  179.6120  147.0750 O   0  0  0  0  0  1  0  0  0  0  0  0
  185.4020  178.7220  146.3250 C   0  0  0  0  0  0  0  0  0  0  0  0
  184.0740  178.7890  145.9280 O   0  0  0  0  0  0  0  0  0  0  0  0
  2 11  1  0  0  0  0
  2  4  1  0  0  0  0
  3 14  1  0  0  0  0
  3 13  1  0  0  0  0
  4 14  2  0  0  0  0
  4 10  1  0  0  0  0
  5 15  1  0  0  0  0
  6 10  1  0  0  0  0
  7 12  1  0  0  0  0
  8  9  1  0  0  0  0
  8  1  1  0  0  0  0
 11  6  1  0  0  0  0
 12  9  2  0  0  0  0
 13  7  2  0  0  0  0
 13 15  1  0  0  0  0
 14  5  1  0  0  0  0
 15  8  2  0  0  0  0
 16 17  1  0  0  0  0
 18 17  1  0  0  0  0
 19 21  1  1  0  0  0
 19 18  1  0  0  0  0
 20 19  1  0  0  0  0
 22 25  1  1  0  0  0
 22 16  1  0  0  0  0
 23  1  1  6  0  0  0
 23 20  1  0  0  0  0
 23 22  1  0  0  0  0
 25 24  1  6  0  0  0
 25 26  1  0  0  0  0
 26 28  1  0  0  0  0
 28 27  1  0  0  0  0
 29 28  2  0  0  0  0
M  END
>  <MODEL>
1

>  <REMARK>
 VINA RESULT:      -7.2      0.000      0.000
  Name = 
  5 active torsions:
  status: ('A' for Active; 'I' for Inactive)
    1  A    between atoms: C_4  and  C_23
    2  A    between atoms: C_10  and  C_15
    3  A    between atoms: C_15  and  C_28
    4  A    between atoms: C_23  and  C_24
    5  A    between atoms: C_24  and  C_26
                            x       y       z     vdW  Elec       q    Type
                         _______ _______ _______ _____ _____    ______ ____

>  <TORSDO>
F 5

$$$$
=
 OpenBabel11042410053D

 29 32  0  0  1  0  0  0  0  0999 V2000
  188.0620  178.3220  140.4580 C   0  0  0  0  0  2  0  0  0  0  0  0
  185.7110  173.9450  135.9810 S   0  0  0  0  0  0  0  0  0  0  0  0
  188.2710  176.0280  135.7570 S   0  0  0  0  0  0  0  0  0  0  0  0
  185.7620  175.5400  136.7760 C   0  0  0  0  0  0  0  0  0  0  0  0
  186.8260  177.9460  137.5270 S   0  0  0  0  0  0  0  0  0  0  0  0
  183.6500  174.7620  137.5570 C   0  0  0  0  0  2  0  0  0  0  0  0
  190.1810  175.7420  137.7810 C   0  0  0  0  0  3  0  0  0  0  0  0
  188.8150  177.4780  139.4800 C   0  0  0  0  0  0  0  0  0  0  0  0
  189.9720  176.8090  139.8970 C   0  0  0  0  0  3  0  0  0  0  0  0
  184.6210  175.8370  137.5610 N   0  0  0  0  0  2  0  0  0  0  0  0
  183.9170  173.9160  136.3150 C   0  0  0  0  0  2  0  0  0  0  0  0
  190.6270  175.9690  139.0470 N   0  0  0  0  0  0  0  0  0  0  0  0
  189.0520  176.4150  137.3170 C   0  0  0  0  0  0  0  0  0  0  0  0
  186.7350  176.4350  136.5790 C   0  0  0  0  0  0  0  0  0  0  0  0
  188.3720  177.2930  138.1610 C   0  0  0  0  0  0  0  0  0  0  0  0
  187.2160  176.5750  143.7870 C   0  0  0  0  0  2  0  0  0  0  0  0
  188.0000  177.2190  144.7550 O   0  0  0  0  0  0  0  0  0  0  0  0
  189.3200  176.8770  144.4380 C   0  0  0  0  0  2  0  0  0  0  0  0
  190.0300  178.0260  143.7150 C   0  0  1  0  0  3  0  0  0  0  0  0
  189.1520  178.7720  142.7050 C   0  0  0  0  0  2  0  0  0  0  0  0
  190.5290  178.9320  144.6500 O   0  0  0  0  0  1  0  0  0  0  0  0
  186.9470  177.4980  142.5910 C   0  0  2  0  0  3  0  0  0  0  0  0
  188.2750  177.8220  141.8830 C   0  0  1  0  0  3  0  0  0  0  0  0
  185.8360  179.5290  141.9000 O   0  0  0  0  0  1  0  0  0  0  0  0
  186.1390  178.7390  143.0120 C   0  0  1  0  0  3  0  0  0  0  0  0
  184.8410  178.3300  143.6970 C   0  0  0  0  0  2  0  0  0  0  0  0
  185.7520  179.4210  145.6100 O   0  0  0  0  0  0  0  0  0  0  0  0
  184.7230  178.9870  145.0290 C   0  0  0  0  0  0  0  0  0  0  0  0
  183.4750  179.1520  145.6140 O   0  0  0  0  0  1  0  0  0  0  0  0
  2 11  1  0  0  0  0
  2  4  1  0  0  0  0
  3 14  1  0  0  0  0
  3 13  1  0  0  0  0
  4 10  1  0  0  0  0
  5 15  1  0  0  0  0
  6 10  1  0  0  0  0
  7 12  1  0  0  0  0
  8  9  1  0  0  0  0
  8  1  1  0  0  0  0
 11  6  1  0  0  0  0
 12  9  2  0  0  0  0
 13  7  2  0  0  0  0
 13 15  1  0  0  0  0
 14  4  2  0  0  0  0
 14  5  1  0  0  0  0
 15  8  2  0  0  0  0
 16 17  1  0  0  0  0
 18 17  1  0  0  0  0
 19 18  1  0  0  0  0
 19 21  1  1  0  0  0
 20 19  1  0  0  0  0
 22 25  1  1  0  0  0
 22 16  1  0  0  0  0
 23  1  1  6  0  0  0
 23 22  1  0  0  0  0
 23 20  1  0  0  0  0
 25 24  1  6  0  0  0
 25 26  1  0  0  0  0
 26 28  1  0  0  0  0
 28 27  2  0  0  0  0
 28 29  1  0  0  0  0
M  END
>  <MODEL>
2

>  <REMARK>
 VINA RESULT:      -7.2      1.433      1.686
  Name = 
  5 active torsions:
  status: ('A' for Active; 'I' for Inactive)
    1  A    between atoms: C_4  and  C_23
    2  A    between atoms: C_10  and  C_15
    3  A    between atoms: C_15  and  C_28
    4  A    between atoms: C_23  and  C_24
    5  A    between atoms: C_24  and  C_26
                            x       y       z     vdW  Elec       q    Type
                         _______ _______ _______ _____ _____    ______ ____

>  <TORSDO>
F 5

$$$$
=
 OpenBabel11042410053D

 29 32  0  0  1  0  0  0  0  0999 V2000
  187.7110  178.5460  140.7100 C   0  0  0  0  0  2  0  0  0  0  0  0
  183.2450  175.1410  137.0780 S   0  0  0  0  0  0  0  0  0  0  0  0
  185.6870  177.1430  136.0910 S   0  0  0  0  0  0  0  0  0  0  0  0
  183.7960  176.5610  138.0050 C   0  0  0  0  0  0  0  0  0  0  0  0
  185.3300  178.7530  138.5780 S   0  0  0  0  0  0  0  0  0  0  0  0
  182.1330  175.7240  139.4910 C   0  0  0  0  0  2  0  0  0  0  0  0
  188.2250  176.4290  137.0270 C   0  0  0  0  0  3  0  0  0  0  0  0
  187.8900  177.8700  139.3890 C   0  0  0  0  0  0  0  0  0  0  0  0
  189.0360  177.0980  139.1610 C   0  0  0  0  0  3  0  0  0  0  0  0
  183.1270  176.7480  139.2390 N   0  0  0  0  0  2  0  0  0  0  0  0
  181.7640  175.1110  138.1430 C   0  0  0  0  0  2  0  0  0  0  0  0
  189.1800  176.4060  137.9960 N   0  0  0  0  0  0  0  0  0  0  0  0
  187.0850  177.2130  137.2020 C   0  0  0  0  0  0  0  0  0  0  0  0
  184.6880  177.4440  137.5450 C   0  0  0  0  0  0  0  0  0  0  0  0
  186.9190  177.9440  138.3780 C   0  0  0  0  0  0  0  0  0  0  0  0
  188.2560  176.0310  143.5800 C   0  0  0  0  0  2  0  0  0  0  0  0
  189.2900  176.5730  144.3570 O   0  0  0  0  0  0  0  0  0  0  0  0
  190.4260  176.5140  143.5410 C   0  0  0  0  0  2  0  0  0  0  0  0
  190.7420  177.8850  142.9340 C   0  0  1  0  0  3  0  0  0  0  0  0
  189.5060  178.6800  142.4990 C   0  0  0  0  0  2  0  0  0  0  0  0
  191.4800  178.6430  143.8440 O   0  0  0  0  0  1  0  0  0  0  0  0
  187.5070  177.1310  142.8150 C   0  0  2  0  0  3  0  0  0  0  0  0
  188.4620  177.7990  141.8080 C   0  0  1  0  0  3  0  0  0  0  0  0
  185.7400  178.7420  143.1550 O   0  0  0  0  0  1  0  0  0  0  0  0
  186.8200  178.1150  143.7800 C   0  0  1  0  0  3  0  0  0  0  0  0
  186.3210  177.3910  145.0230 C   0  0  0  0  0  2  0  0  0  0  0  0
  187.5050  178.1350  146.9530 O   0  0  0  0  0  1  0  0  0  0  0  0
  186.4830  178.2510  146.2290 C   0  0  0  0  0  0  0  0  0  0  0  0
  185.5220  179.2050  146.5350 O   0  0  0  0  0  0  0  0  0  0  0  0
  2  4  1  0  0  0  0
  2 11  1  0  0  0  0
  3 13  1  0  0  0  0
  3 14  1  0  0  0  0
  4 10  1  0  0  0  0
  7 13  2  0  0  0  0
  7 12  1  0  0  0  0
  8  1  1  0  0  0  0
  9  8  1  0  0  0  0
 10  6  1  0  0  0  0
 11  6  1  0  0  0  0
 12  9  2  0  0  0  0
 13 15  1  0  0  0  0
 14  4  2  0  0  0  0
 14  5  1  0  0  0  0
 15  5  1  0  0  0  0
 15  8  2  0  0  0  0
 16 17  1  0  0  0  0
 18 17  1  0  0  0  0
 19 18  1  0  0  0  0
 19 21  1  1  0  0  0
 20 19  1  0  0  0  0
 22 16  1  0  0  0  0
 22 25  1  1  0  0  0
 23  1  1  6  0  0  0
 23 20  1  0  0  0  0
 23 22  1  0  0  0  0
 25 24  1  6  0  0  0
 25 26  1  0  0  0  0
 26 28  1  0  0  0  0
 28 29  2  0  0  0  0
 28 27  1  0  0  0  0
M  END
>  <MODEL>
3

>  <REMARK>
 VINA RESULT:      -7.0      1.897      2.346
  Name = 
  5 active torsions:
  status: ('A' for Active; 'I' for Inactive)
    1  A    between atoms: C_4  and  C_23
    2  A    between atoms: C_10  and  C_15
    3  A    between atoms: C_15  and  C_28
    4  A    between atoms: C_23  and  C_24
    5  A    between atoms: C_24  and  C_26
                            x       y       z     vdW  Elec       q    Type
                         _______ _______ _______ _____ _____    ______ ____

>  <TORSDO>
F 5

$$$$
=
 OpenBabel11042410053D

 29 32  0  0  1  0  0  0  0  0999 V2000
  192.3640  174.5050  137.6220 C   0  0  0  0  0  2  0  0  0  0  0  0
  187.9560  177.5840  141.6000 S   0  0  0  0  0  0  0  0  0  0  0  0
  189.2200  178.5500  138.6990 S   0  0  0  0  0  0  0  0  0  0  0  0
  189.6080  177.1860  141.0580 C   0  0  0  0  0  0  0  0  0  0  0  0
  191.7560  177.1240  139.3630 S   0  0  0  0  0  0  0  0  0  0  0  0
  189.5710  176.0280  143.1390 C   0  0  0  0  0  2  0  0  0  0  0  0
  188.8520  176.7290  136.6070 C   0  0  0  0  0  3  0  0  0  0  0  0
  191.1800  175.3380  137.2490 C   0  0  0  0  0  0  0  0  0  0  0  0
  190.3290  174.9030  136.2250 C   0  0  0  0  0  3  0  0  0  0  0  0
  190.3380  176.3730  141.9590 N   0  0  0  0  0  2  0  0  0  0  0  0
  188.4590  177.0640  143.2750 C   0  0  0  0  0  2  0  0  0  0  0  0
  189.1990  175.6030  135.9250 N   0  0  0  0  0  0  0  0  0  0  0  0
  189.6900  177.2120  137.6120 C   0  0  0  0  0  0  0  0  0  0  0  0
  190.1640  177.6850  139.9490 C   0  0  0  0  0  0  0  0  0  0  0  0
  190.8610  176.5240  137.9280 C   0  0  0  0  0  0  0  0  0  0  0  0
  195.5240  173.7090  135.5630 C   0  0  0  0  0  2  0  0  0  0  0  0
  196.1880  174.9350  135.4140 O   0  0  0  0  0  0  0  0  0  0  0  0
  195.3510  175.7030  134.5960 C   0  0  0  0  0  2  0  0  0  0  0  0
  194.5570  176.7220  135.4200 C   0  0  1  0  0  3  0  0  0  0  0  0
  194.0600  176.1890  136.7680 C   0  0  0  0  0  2  0  0  0  0  0  0
  195.3320  177.8610  135.6320 O   0  0  0  0  0  1  0  0  0  0  0  0
  194.6440  173.7090  136.8210 C   0  0  2  0  0  3  0  0  0  0  0  0
  193.5270  174.7570  136.6670 C   0  0  1  0  0  3  0  0  0  0  0  0
  195.0510  173.0000  139.0950 O   0  0  0  0  0  1  0  0  0  0  0  0
  195.4910  173.8740  138.0960 C   0  0  1  0  0  3  0  0  0  0  0  0
  196.9610  173.5960  137.8080 C   0  0  0  0  0  2  0  0  0  0  0  0
  198.9400  174.9130  137.9720 O   0  0  0  0  0  0  0  0  0  0  0  0
  197.8250  174.6120  138.4720 C   0  0  0  0  0  0  0  0  0  0  0  0
  197.3860  175.2510  139.6230 O   0  0  0  0  0  1  0  0  0  0  0  0
  2 11  1  0  0  0  0
  3 14  1  0  0  0  0
  4  2  1  0  0  0  0
  4 10  1  0  0  0  0
  5 14  1  0  0  0  0
  6 11  1  0  0  0  0
  7 13  1  0  0  0  0
  8  1  1  0  0  0  0
  8 15  1  0  0  0  0
  9  8  2  0  0  0  0
 10  6  1  0  0  0  0
 12  9  1  0  0  0  0
 12  7  2  0  0  0  0
 13 15  2  0  0  0  0
 13  3  1  0  0  0  0
 14  4  2  0  0  0  0
 15  5  1  0  0  0  0
 16 22  1  0  0  0  0
 17 16  1  0  0  0  0
 18 17  1  0  0  0  0
 18 19  1  0  0  0  0
 19 21  1  1  0  0  0
 19 20  1  0  0  0  0
 22 25  1  1  0  0  0
 23 20  1  0  0  0  0
 23 22  1  0  0  0  0
 23  1  1  1  0  0  0
 25 24  1  1  0  0  0
 26 25  1  0  0  0  0
 26 28  1  0  0  0  0
 27 28  2  0  0  0  0
 28 29  1  0  0  0  0
M  END
>  <MODEL>
4

>  <REMARK>
 VINA RESULT:      -6.2      5.593      9.243
  Name = 
  5 active torsions:
  status: ('A' for Active; 'I' for Inactive)
    1  A    between atoms: C_4  and  C_23
    2  A    between atoms: C_10  and  C_15
    3  A    between atoms: C_15  and  C_28
    4  A    between atoms: C_23  and  C_24
    5  A    between atoms: C_24  and  C_26
                            x       y       z     vdW  Elec       q    Type
                         _______ _______ _______ _____ _____    ______ ____

>  <TORSDO>
F 5

$$$$
=
 OpenBabel11042410053D

 29 32  0  0  1  0  0  0  0  0999 V2000
  189.5110  178.3400  140.0200 C   0  0  0  0  0  2  0  0  0  0  0  0
  192.5870  175.3070  134.9140 S   0  0  0  0  0  0  0  0  0  0  0  0
  190.1360  174.2190  136.8520 S   0  0  0  0  0  0  0  0  0  0  0  0
  192.4110  175.7530  136.6320 C   0  0  0  0  0  0  0  0  0  0  0  0
  191.2570  175.8130  139.1120 S   0  0  0  0  0  0  0  0  0  0  0  0
  194.3350  177.0410  136.0710 C   0  0  0  0  0  2  0  0  0  0  0  0
  187.8850  175.8800  136.9200 C   0  0  0  0  0  3  0  0  0  0  0  0
  188.9390  177.4260  138.9840 C   0  0  0  0  0  0  0  0  0  0  0  0
  187.7170  177.7480  138.3820 C   0  0  0  0  0  3  0  0  0  0  0  0
  193.3930  176.6590  137.1030 N   0  0  0  0  0  2  0  0  0  0  0  0
  194.2890  175.9610  134.9940 C   0  0  0  0  0  2  0  0  0  0  0  0
  187.2190  176.9740  137.3780 N   0  0  0  0  0  0  0  0  0  0  0  0
  189.0890  175.5060  137.5170 C   0  0  0  0  0  0  0  0  0  0  0  0
  191.5010  175.2110  137.4480 C   0  0  0  0  0  0  0  0  0  0  0  0
  189.6140  176.2710  138.5570 C   0  0  0  0  0  0  0  0  0  0  0  0
  188.8770  175.8950  142.9320 C   0  0  0  0  0  2  0  0  0  0  0  0
  189.6250  176.3960  144.0070 O   0  0  0  0  0  0  0  0  0  0  0  0
  190.9620  176.2370  143.6240 C   0  0  0  0  0  2  0  0  0  0  0  0
  191.5610  177.5640  143.1450 C   0  0  1  0  0  3  0  0  0  0  0  0
  190.6030  178.4200  142.3090 C   0  0  0  0  0  2  0  0  0  0  0  0
  192.0020  178.3030  144.2420 O   0  0  0  0  0  1  0  0  0  0  0  0
  188.5090  177.0130  141.9470 C   0  0  2  0  0  3  0  0  0  0  0  0
  189.7920  177.5840  141.3150 C   0  0  1  0  0  3  0  0  0  0  0  0
  186.9340  178.8200  141.6450 O   0  0  0  0  0  1  0  0  0  0  0  0
  187.6100  178.0710  142.6120 C   0  0  1  0  0  3  0  0  0  0  0  0
  186.5900  177.4120  143.5300 C   0  0  0  0  0  2  0  0  0  0  0  0
  187.3190  178.0260  145.7140 O   0  0  0  0  0  1  0  0  0  0  0  0
  186.4630  178.1740  144.8040 C   0  0  0  0  0  0  0  0  0  0  0  0
  185.4190  179.0720  144.9750 O   0  0  0  0  0  0  0  0  0  0  0  0
  2 11  1  0  0  0  0
  2  4  1  0  0  0  0
  3 14  1  0  0  0  0
  3 13  1  0  0  0  0
  4 10  1  0  0  0  0
  4 14  2  0  0  0  0
  6 10  1  0  0  0  0
  7 12  2  0  0  0  0
  7 13  1  0  0  0  0
  8  1  1  0  0  0  0
  9  8  2  0  0  0  0
 11  6  1  0  0  0  0
 12  9  1  0  0  0  0
 13 15  2  0  0  0  0
 14  5  1  0  0  0  0
 15  8  1  0  0  0  0
 15  5  1  0  0  0  0
 16 17  1  0  0  0  0
 18 17  1  0  0  0  0
 19 18  1  0  0  0  0
 19 21  1  1  0  0  0
 20 19  1  0  0  0  0
 22 25  1  1  0  0  0
 22 16  1  0  0  0  0
 23  1  1  6  0  0  0
 23 22  1  0  0  0  0
 23 20  1  0  0  0  0
 25 24  1  6  0  0  0
 25 26  1  0  0  0  0
 26 28  1  0  0  0  0
 28 29  2  0  0  0  0
 28 27  1  0  0  0  0
M  END
>  <MODEL>
5

>  <REMARK>
 VINA RESULT:      -5.7      2.484      4.167
  Name = 
  5 active torsions:
  status: ('A' for Active; 'I' for Inactive)
    1  A    between atoms: C_4  and  C_23
    2  A    between atoms: C_10  and  C_15
    3  A    between atoms: C_15  and  C_28
    4  A    between atoms: C_23  and  C_24
    5  A    between atoms: C_24  and  C_26
                            x       y       z     vdW  Elec       q    Type
                         _______ _______ _______ _____ _____    ______ ____

>  <TORSDO>
F 5

$$$$
=
 OpenBabel11042410053D

 29 32  0  0  1  0  0  0  0  0999 V2000
  185.5050  179.0760  141.3070 C   0  0  0  0  0  2  0  0  0  0  0  0
  179.1090  181.0060  140.9870 S   0  0  0  0  0  0  0  0  0  0  0  0
  180.4580  178.4050  142.5250 S   0  0  0  0  0  0  0  0  0  0  0  0
  180.5430  180.1340  140.3850 C   0  0  0  0  0  0  0  0  0  0  0  0
  182.5430  178.2670  140.3950 S   0  0  0  0  0  0  0  0  0  0  0  0
  180.3780  181.8410  138.7310 C   0  0  0  0  0  2  0  0  0  0  0  0
  182.4860  179.0530  144.3400 C   0  0  0  0  0  3  0  0  0  0  0  0
  184.4430  178.9970  142.3570 C   0  0  0  0  0  0  0  0  0  0  0  0
  184.7480  179.3660  143.6720 C   0  0  0  0  0  3  0  0  0  0  0  0
  181.0990  180.6740  139.1990 N   0  0  0  0  0  2  0  0  0  0  0  0
  178.9810  181.7840  139.3420 C   0  0  0  0  0  2  0  0  0  0  0  0
  183.7760  179.3810  144.6270 N   0  0  0  0  0  0  0  0  0  0  0  0
  182.1490  178.6480  143.0490 C   0  0  0  0  0  0  0  0  0  0  0  0
  181.0080  179.0060  140.9320 C   0  0  0  0  0  0  0  0  0  0  0  0
  183.1280  178.6090  142.0560 C   0  0  0  0  0  0  0  0  0  0  0  0
  189.3370  178.9790  141.7050 C   0  0  0  0  0  2  0  0  0  0  0  0
  189.6280  177.6930  142.1850 O   0  0  0  0  0  0  0  0  0  0  0  0
  189.0820  177.6570  143.4740 C   0  0  0  0  0  2  0  0  0  0  0  0
  187.7520  176.8960  143.4890 C   0  0  1  0  0  3  0  0  0  0  0  0
  186.8620  177.1610  142.2700 C   0  0  0  0  0  2  0  0  0  0  0  0
  187.9950  175.5270  143.5930 O   0  0  0  0  0  1  0  0  0  0  0  0
  188.0180  178.9880  140.9200 C   0  0  2  0  0  3  0  0  0  0  0  0
  186.8540  178.6380  141.8660 C   0  0  1  0  0  3  0  0  0  0  0  0
  187.1310  178.4610  138.7360 O   0  0  0  0  0  1  0  0  0  0  0  0
  188.1030  178.0940  139.6700 C   0  0  1  0  0  3  0  0  0  0  0  0
  189.4780  178.2020  139.0220 C   0  0  0  0  0  2  0  0  0  0  0  0
  189.8280  176.5240  137.3680 O   0  0  0  0  0  0  0  0  0  0  0  0
  189.9520  176.8630  138.5730 C   0  0  0  0  0  0  0  0  0  0  0  0
  190.5600  176.0030  139.4770 O   0  0  0  0  0  1  0  0  0  0  0  0
  1  8  1  0  0  0  0
  3 13  1  0  0  0  0
  4 14  2  0  0  0  0
  4  2  1  0  0  0  0
  5 14  1  0  0  0  0
  5 15  1  0  0  0  0
  6 10  1  0  0  0  0
  6 11  1  0  0  0  0
  7 12  1  0  0  0  0
  8  9  1  0  0  0  0
  9 12  2  0  0  0  0
 10  4  1  0  0  0  0
 11  2  1  0  0  0  0
 13  7  2  0  0  0  0
 14  3  1  0  0  0  0
 15  8  2  0  0  0  0
 15 13  1  0  0  0  0
 16 17  1  0  0  0  0
 17 18  1  0  0  0  0
 18 19  1  0  0  0  0
 19 21  1  6  0  0  0
 20 19  1  0  0  0  0
 22 25  1  6  0  0  0
 22 16  1  0  0  0  0
 22 23  1  0  0  0  0
 23  1  1  6  0  0  0
 23 20  1  0  0  0  0
 25 24  1  6  0  0  0
 26 25  1  0  0  0  0
 27 28  2  0  0  0  0
 28 26  1  0  0  0  0
 28 29  1  0  0  0  0
M  END
>  <MODEL>
6

>  <REMARK>
 VINA RESULT:      -5.6      5.087      7.166
  Name = 
  5 active torsions:
  status: ('A' for Active; 'I' for Inactive)
    1  A    between atoms: C_4  and  C_23
    2  A    between atoms: C_10  and  C_15
    3  A    between atoms: C_15  and  C_28
    4  A    between atoms: C_23  and  C_24
    5  A    between atoms: C_24  and  C_26
                            x       y       z     vdW  Elec       q    Type
                         _______ _______ _______ _____ _____    ______ ____

>  <TORSDO>
F 5

$$$$
=
 OpenBabel11042410053D

 29 32  0  0  1  0  0  0  0  0999 V2000
  188.6960  177.8880  140.8870 C   0  0  0  0  0  2  0  0  0  0  0  0
  188.0040  178.4400  147.5160 S   0  0  0  0  0  0  0  0  0  0  0  0
  189.8970  176.3770  145.7530 S   0  0  0  0  0  0  0  0  0  0  0  0
  187.5490  177.8050  145.9130 C   0  0  0  0  0  0  0  0  0  0  0  0
  187.8440  176.3930  143.5880 S   0  0  0  0  0  0  0  0  0  0  0  0
  185.6810  179.2230  146.3360 C   0  0  0  0  0  2  0  0  0  0  0  0
  191.6480  177.6410  143.9750 C   0  0  0  0  0  3  0  0  0  0  0  0
  189.7270  177.7290  141.9580 C   0  0  0  0  0  0  0  0  0  0  0  0
  190.9880  178.3140  141.7910 C   0  0  0  0  0  3  0  0  0  0  0  0
  186.3130  178.2930  145.4220 N   0  0  0  0  0  2  0  0  0  0  0  0
  186.2680  178.9650  147.7200 C   0  0  0  0  0  2  0  0  0  0  0  0
  191.9140  178.2540  142.7890 N   0  0  0  0  0  0  0  0  0  0  0  0
  190.4160  177.0180  144.1680 C   0  0  0  0  0  0  0  0  0  0  0  0
  188.2490  176.8710  145.2610 C   0  0  0  0  0  0  0  0  0  0  0  0
  189.4560  177.0510  143.1570 C   0  0  0  0  0  0  0  0  0  0  0  0
  189.4860  178.5100  137.1660 C   0  0  0  0  0  2  0  0  0  0  0  0
  189.7250  177.2400  136.6200 O   0  0  0  0  0  0  0  0  0  0  0  0
  190.9120  176.8050  137.2220 C   0  0  0  0  0  2  0  0  0  0  0  0
  190.6260  175.7980  138.3410 C   0  0  1  0  0  3  0  0  0  0  0  0
  189.3960  176.1350  139.1900 C   0  0  0  0  0  2  0  0  0  0  0  0
  190.4770  174.5220  137.7990 O   0  0  0  0  0  1  0  0  0  0  0  0
  188.5790  178.4170  138.4010 C   0  0  2  0  0  3  0  0  0  0  0  0
  189.3010  177.6290  139.5100 C   0  0  1  0  0  3  0  0  0  0  0  0
  186.1980  178.4680  138.8090 O   0  0  0  0  0  1  0  0  0  0  0  0
  187.1910  177.8600  138.0350 C   0  0  1  0  0  3  0  0  0  0  0  0
  186.8850  178.0980  136.5620 C   0  0  0  0  0  2  0  0  0  0  0  0
  185.5510  177.0020  134.9200 O   0  0  0  0  0  0  0  0  0  0  0  0
  186.2560  176.8920  135.9560 C   0  0  0  0  0  0  0  0  0  0  0  0
  186.4750  175.6400  136.5150 O   0  0  0  0  0  1  0  0  0  0  0  0
  1  8  1  0  0  0  0
  2 11  1  0  0  0  0
  4  2  1  0  0  0  0
  5 14  1  0  0  0  0
  6 11  1  0  0  0  0
  7 13  1  0  0  0  0
  8 15  1  0  0  0  0
  9  8  2  0  0  0  0
  9 12  1  0  0  0  0
 10  4  1  0  0  0  0
 10  6  1  0  0  0  0
 12  7  2  0  0  0  0
 13  3  1  0  0  0  0
 14  3  1  0  0  0  0
 14  4  2  0  0  0  0
 15  5  1  0  0  0  0
 15 13  2  0  0  0  0
 16 22  1  0  0  0  0
 17 16  1  0  0  0  0
 17 18  1  0  0  0  0
 18 19  1  0  0  0  0
 19 21  1  6  0  0  0
 19 20  1  0  0  0  0
 20 23  1  0  0  0  0
 22 25  1  6  0  0  0
 22 23  1  0  0  0  0
 23  1  1  1  0  0  0
 25 24  1  1  0  0  0
 26 25  1  0  0  0  0
 27 28  2  0  0  0  0
 28 29  1  0  0  0  0
 28 26  1  0  0  0  0
M  END
>  <MODEL>
7

>  <REMARK>
 VINA RESULT:      -5.5      4.328      7.879
  Name = 
  5 active torsions:
  status: ('A' for Active; 'I' for Inactive)
    1  A    between atoms: C_4  and  C_23
    2  A    between atoms: C_10  and  C_15
    3  A    between atoms: C_15  and  C_28
    4  A    between atoms: C_23  and  C_24
    5  A    between atoms: C_24  and  C_26
                            x       y       z     vdW  Elec       q    Type
                         _______ _______ _______ _____ _____    ______ ____

>  <TORSDO>
F 5

$$$$
=
 OpenBabel11042410053D

 29 32  0  0  1  0  0  0  0  0999 V2000
  186.7160  178.7730  140.2680 C   0  0  0  0  0  2  0  0  0  0  0  0
  190.6680  174.3440  137.1870 S   0  0  0  0  0  0  0  0  0  0  0  0
  191.4490  176.7460  139.3250 S   0  0  0  0  0  0  0  0  0  0  0  0
  189.7930  175.8930  137.2980 C   0  0  0  0  0  0  0  0  0  0  0  0
  189.1860  178.3790  138.2680 S   0  0  0  0  0  0  0  0  0  0  0  0
  188.5030  174.8160  135.6090 C   0  0  0  0  0  2  0  0  0  0  0  0
  190.0910  176.6130  141.7670 C   0  0  0  0  0  3  0  0  0  0  0  0
  187.9350  178.0790  140.7850 C   0  0  0  0  0  0  0  0  0  0  0  0
  187.9250  177.5450  142.0790 C   0  0  0  0  0  3  0  0  0  0  0  0
  188.6910  176.0050  136.4150 N   0  0  0  0  0  2  0  0  0  0  0  0
  189.8340  174.0700  135.5880 C   0  0  0  0  0  2  0  0  0  0  0  0
  188.9940  176.8370  142.5400 N   0  0  0  0  0  0  0  0  0  0  0  0
  190.1540  177.1570  140.4850 C   0  0  0  0  0  0  0  0  0  0  0  0
  190.1880  176.9140  138.0650 C   0  0  0  0  0  0  0  0  0  0  0  0
  189.0800  177.9000  139.9940 C   0  0  0  0  0  0  0  0  0  0  0  0
  183.2020  177.7170  141.4470 C   0  0  0  0  0  2  0  0  0  0  0  0
  182.8810  178.5950  142.4940 O   0  0  0  0  0  0  0  0  0  0  0  0
  183.7720  178.2710  143.5230 C   0  0  0  0  0  2  0  0  0  0  0  0
  184.9210  179.2820  143.5980 C   0  0  1  0  0  3  0  0  0  0  0  0
  185.4390  179.7480  142.2330 C   0  0  0  0  0  2  0  0  0  0  0  0
  184.5230  180.3920  144.3430 O   0  0  0  0  0  1  0  0  0  0  0  0
  184.2160  178.3520  140.4860 C   0  0  2  0  0  3  0  0  0  0  0  0
  185.5430  178.5970  141.2280 C   0  0  1  0  0  3  0  0  0  0  0  0
  184.5460  180.1340  138.8880 O   0  0  0  0  0  1  0  0  0  0  0  0
  183.6340  179.6040  139.8050 C   0  0  1  0  0  3  0  0  0  0  0  0
  182.3380  179.2700  139.0780 C   0  0  0  0  0  2  0  0  0  0  0  0
  180.5920  180.0610  140.4940 O   0  0  0  0  0  1  0  0  0  0  0  0
  181.2670  180.2380  139.4470 C   0  0  0  0  0  0  0  0  0  0  0  0
  181.0360  181.3540  138.6540 O   0  0  0  0  0  0  0  0  0  0  0  0
  1  8  1  0  0  0  0
  2  4  1  0  0  0  0
  3 13  1  0  0  0  0
  4 14  2  0  0  0  0
  5 15  1  0  0  0  0
  6 10  1  0  0  0  0
  7 12  1  0  0  0  0
  8  9  1  0  0  0  0
  9 12  2  0  0  0  0
 10  4  1  0  0  0  0
 11  6  1  0  0  0  0
 11  2  1  0  0  0  0
 13  7  2  0  0  0  0
 14  5  1  0  0  0  0
 14  3  1  0  0  0  0
 15 13  1  0  0  0  0
 15  8  2  0  0  0  0
 16 17  1  0  0  0  0
 17 18  1  0  0  0  0
 18 19  1  0  0  0  0
 19 21  1  1  0  0  0
 20 19  1  0  0  0  0
 22 25  1  1  0  0  0
 22 23  1  0  0  0  0
 22 16  1  0  0  0  0
 23  1  1  6  0  0  0
 23 20  1  0  0  0  0
 25 24  1  6  0  0  0
 26 28  1  0  0  0  0
 26 25  1  0  0  0  0
 28 27  1  0  0  0  0
 29 28  2  0  0  0  0
M  END
>  <MODEL>
8

>  <REMARK>
 VINA RESULT:      -5.5      3.841      5.288
  Name = 
  5 active torsions:
  status: ('A' for Active; 'I' for Inactive)
    1  A    between atoms: C_4  and  C_23
    2  A    between atoms: C_10  and  C_15
    3  A    between atoms: C_15  and  C_28
    4  A    between atoms: C_23  and  C_24
    5  A    between atoms: C_24  and  C_26
                            x       y       z     vdW  Elec       q    Type
                         _______ _______ _______ _____ _____    ______ ____

>  <TORSDO>
F 5

$$$$
=
 OpenBabel11042410053D

 29 32  0  0  1  0  0  0  0  0999 V2000
  187.4510  176.7520  143.2270 C   0  0  0  0  0  2  0  0  0  0  0  0
  190.9570  175.6630  137.6360 S   0  0  0  0  0  0  0  0  0  0  0  0
  191.6120  177.6680  140.1840 S   0  0  0  0  0  0  0  0  0  0  0  0
  189.7000  176.4880  138.5940 C   0  0  0  0  0  0  0  0  0  0  0  0
  188.6820  178.0710  140.5800 S   0  0  0  0  0  0  0  0  0  0  0  0
  188.3230  175.2440  137.1000 C   0  0  0  0  0  2  0  0  0  0  0  0
  191.6800  176.3960  142.6750 C   0  0  0  0  0  3  0  0  0  0  0  0
  188.9340  176.6990  143.0390 C   0  0  0  0  0  0  0  0  0  0  0  0
  189.7190  176.0030  143.9650 C   0  0  0  0  0  3  0  0  0  0  0  0
  188.3730  176.1830  138.2030 N   0  0  0  0  0  2  0  0  0  0  0  0
  189.6710  175.3090  136.3900 C   0  0  0  0  0  2  0  0  0  0  0  0
  191.0620  175.8720  143.7690 N   0  0  0  0  0  0  0  0  0  0  0  0
  190.9370  177.1260  141.7480 C   0  0  0  0  0  0  0  0  0  0  0  0
  189.9660  177.3990  139.5350 C   0  0  0  0  0  0  0  0  0  0  0  0
  189.5640  177.2890  141.9320 C   0  0  0  0  0  0  0  0  0  0  0  0
  185.2120  177.8590  146.1620 C   0  0  0  0  0  2  0  0  0  0  0  0
  186.0380  178.6380  146.9860 O   0  0  0  0  0  0  0  0  0  0  0  0
  186.9790  177.7410  147.5060 C   0  0  0  0  0  2  0  0  0  0  0  0
  188.3200  177.8620  146.7740 C   0  0  1  0  0  3  0  0  0  0  0  0
  188.1940  178.0740  145.2610 C   0  0  0  0  0  2  0  0  0  0  0  0
  189.0640  178.9050  147.3250 O   0  0  0  0  0  1  0  0  0  0  0  0
  185.7130  177.8690  144.7110 C   0  0  2  0  0  3  0  0  0  0  0  0
  187.0990  177.2010  144.6410 C   0  0  1  0  0  3  0  0  0  0  0  0
  185.9500  179.2540  142.7450 O   0  0  0  0  0  1  0  0  0  0  0  0
  185.6670  179.2880  144.1130 C   0  0  1  0  0  3  0  0  0  0  0  0
  184.2950  179.9150  144.3200 C   0  0  0  0  0  2  0  0  0  0  0  0
  182.2900  178.6280  144.3430 O   0  0  0  0  0  1  0  0  0  0  0  0
  183.2400  179.0950  143.6620 C   0  0  0  0  0  0  0  0  0  0  0  0
  183.2850  178.8730  142.2930 O   0  0  0  0  0  0  0  0  0  0  0  0
  2  4  1  0  0  0  0
  3 13  1  0  0  0  0
  4 14  2  0  0  0  0
  5 15  1  0  0  0  0
  6 10  1  0  0  0  0
  7 12  1  0  0  0  0
  8  1  1  0  0  0  0
  8  9  1  0  0  0  0
 10  4  1  0  0  0  0
 11  6  1  0  0  0  0
 11  2  1  0  0  0  0
 12  9  2  0  0  0  0
 13 15  1  0  0  0  0
 13  7  2  0  0  0  0
 14  3  1  0  0  0  0
 14  5  1  0  0  0  0
 15  8  2  0  0  0  0
 16 17  1  0  0  0  0
 17 18  1  0  0  0  0
 19 21  1  1  0  0  0
 19 18  1  0  0  0  0
 20 19  1  0  0  0  0
 22 25  1  1  0  0  0
 22 16  1  0  0  0  0
 23  1  1  6  0  0  0
 23 22  1  0  0  0  0
 23 20  1  0  0  0  0
 25 24  1  6  0  0  0
 25 26  1  0  0  0  0
 28 26  1  0  0  0  0
 28 27  1  0  0  0  0
 29 28  2  0  0  0  0
M  END
>  <MODEL>
9

>  <REMARK>
 VINA RESULT:      -5.5      2.347      3.577
  Name = 
  5 active torsions:
  status: ('A' for Active; 'I' for Inactive)
    1  A    between atoms: C_4  and  C_23
    2  A    between atoms: C_10  and  C_15
    3  A    between atoms: C_15  and  C_28
    4  A    between atoms: C_23  and  C_24
    5  A    between atoms: C_24  and  C_26
                            x       y       z     vdW  Elec       q    Type
                         _______ _______ _______ _____ _____    ______ ____

>  <TORSDO>
F 5

$$$$
