=
 OpenBabel11042410243D

 29 31  0  0  1  0  0  0  0  0999 V2000
  186.7530  178.7630  140.8380 C   0  0  0  0  0  3  0  0  0  0  0  0
  186.5630  177.7830  144.4650 C   0  0  0  0  0  3  0  0  0  0  0  0
  185.1340  179.2560  142.6150 N   0  0  0  0  0  2  0  0  0  0  0  0
  184.6690  179.1660  143.8900 C   0  0  0  0  0  0  0  0  0  0  0  0
  185.3790  178.4180  144.8430 C   0  0  0  0  0  0  0  0  0  0  0  0
  188.2390  177.2480  142.7180 N   0  0  0  0  0  0  0  0  0  0  0  0
  186.2820  178.6380  142.2250 C   0  0  0  0  0  0  0  0  0  0  0  0
  187.8840  178.1720  140.4460 C   0  0  0  0  0  0  0  0  0  0  0  0
  188.6560  177.4030  141.3820 N   0  0  0  0  0  2  0  0  0  0  0  0
  187.0240  177.8850  143.1480 C   0  0  0  0  0  0  0  0  0  0  0  0
  183.6020  179.7580  144.2030 O   0  0  0  0  0  0  0  0  0  0  0  0
  189.3930  177.1650  144.9140 C   0  0  0  0  0  2  0  0  0  0  0  0
  191.3760  176.7370  142.7170 C   0  0  0  0  0  2  0  0  0  0  0  0
  191.3420  177.9260  143.5850 N   0  0  0  0  0  2  0  0  0  0  0  0
  189.0100  176.4080  143.6360 C   0  0  2  0  0  3  0  0  0  0  0  0
  190.2090  175.7640  142.9410 C   0  0  0  0  0  2  0  0  0  0  0  0
  190.8520  177.6320  144.9370 C   0  0  2  0  0  3  0  0  0  0  0  0
  191.7440  176.6350  145.6750 C   0  0  0  0  0  2  0  0  0  0  0  0
  191.3220  176.4930  147.1290 C   0  0  0  0  0  2  0  0  0  0  0  0
  192.3960  175.7820  147.9330 C   0  0  0  0  0  1  0  0  0  0  0  0
  184.9200  178.3250  146.2600 C   0  0  0  0  0  2  0  0  0  0  0  0
  185.5970  179.3270  147.0630 N   0  0  0  0  0  1  0  0  0  0  0  0
  189.7990  177.9220  138.8920 C   0  0  0  0  0  1  0  0  0  0  0  0
  188.3400  178.3210  139.0310 C   0  0  1  0  0  3  0  0  0  0  0  0
  187.4790  177.5340  138.0980 C   0  0  0  0  0  0  0  0  0  0  0  0
  187.8060  176.3510  137.8080 O   0  0  0  0  0  0  0  0  0  0  0  0
  186.3450  178.1190  137.5290 O   0  0  0  0  0  0  0  0  0  0  0  0
  185.1000  177.4390  137.4770 C   0  0  0  0  0  2  0  0  0  0  0  0
  184.0810  178.1910  138.3070 C   0  0  0  0  0  1  0  0  0  0  0  0
  1  7  1  0  0  0  0
  2  5  2  0  0  0  0
  3  4  1  0  0  0  0
  4 11  2  0  0  0  0
  4  5  1  0  0  0  0
  5 21  1  0  0  0  0
  6 10  1  0  0  0  0
  7  3  1  0  0  0  0
  7 10  2  0  0  0  0
  8  1  2  0  0  0  0
  8  9  1  0  0  0  0
  9  6  1  0  0  0  0
 10  2  1  0  0  0  0
 12 17  1  0  0  0  0
 13 16  1  0  0  0  0
 13 14  1  0  0  0  0
 14 17  1  0  0  0  0
 15  6  1  6  0  0  0
 15 12  1  0  0  0  0
 16 15  1  0  0  0  0
 17 18  1  6  0  0  0
 18 19  1  0  0  0  0
 19 20  1  0  0  0  0
 21 22  1  0  0  0  0
 24 23  1  1  0  0  0
 24  8  1  0  0  0  0
 25 24  1  0  0  0  0
 26 25  2  0  0  0  0
 27 25  1  0  0  0  0
 28 27  1  0  0  0  0
 28 29  1  0  0  0  0
M  END
>  <MODEL>
1

>  <REMARK>
 VINA RESULT:      -8.6      0.000      0.000
  Name = 
  8 active torsions:
  status: ('A' for Active; 'I' for Inactive)
    1  A    between atoms: C_1  and  C_5
    2  A    between atoms: C_1  and  C_25
    3  A    between atoms: C_6  and  C_15
    4  A    between atoms: O_9  and  C_10
    5  A    between atoms: O_9  and  C_16
    6  A    between atoms: C_10  and  C_18
    7  A    between atoms: C_14  and  N_19
    8  A    between atoms: C_18  and  C_21
                            x       y       z     vdW  Elec       q    Type
                         _______ _______ _______ _____ _____    ______ ____

>  <TORSDO>
F 8

$$$$
=
 OpenBabel11042410243D

 29 31  0  0  1  0  0  0  0  0999 V2000
  186.3000  178.4620  140.7270 C   0  0  0  0  0  3  0  0  0  0  0  0
  186.3440  177.9380  144.4520 C   0  0  0  0  0  3  0  0  0  0  0  0
  184.7560  179.1130  142.5200 N   0  0  0  0  0  2  0  0  0  0  0  0
  184.3630  179.1670  143.8220 C   0  0  0  0  0  0  0  0  0  0  0  0
  185.1540  178.5710  144.8170 C   0  0  0  0  0  0  0  0  0  0  0  0
  187.9480  177.2510  142.6900 N   0  0  0  0  0  0  0  0  0  0  0  0
  185.9080  178.4940  142.1440 C   0  0  0  0  0  0  0  0  0  0  0  0
  187.4340  177.8690  140.3470 C   0  0  0  0  0  0  0  0  0  0  0  0
  188.2860  177.2530  141.3230 N   0  0  0  0  0  2  0  0  0  0  0  0
  186.7300  177.8910  143.1080 C   0  0  0  0  0  0  0  0  0  0  0  0
  183.2890  179.7530  144.1210 O   0  0  0  0  0  0  0  0  0  0  0  0
  189.2410  177.4940  144.7940 C   0  0  0  0  0  2  0  0  0  0  0  0
  191.0930  176.8170  142.5460 C   0  0  0  0  0  2  0  0  0  0  0  0
  191.0770  178.1120  143.2470 N   0  0  0  0  0  2  0  0  0  0  0  0
  188.8020  176.5620  143.6590 C   0  0  2  0  0  3  0  0  0  0  0  0
  189.9740  175.8570  142.9770 C   0  0  0  0  0  2  0  0  0  0  0  0
  190.6830  177.9940  144.6560 C   0  0  2  0  0  3  0  0  0  0  0  0
  191.6520  177.1280  145.4590 C   0  0  0  0  0  2  0  0  0  0  0  0
  191.0450  176.7160  146.7920 C   0  0  0  0  0  2  0  0  0  0  0  0
  191.9480  175.7310  147.5120 C   0  0  0  0  0  1  0  0  0  0  0  0
  184.7750  178.6380  146.2590 C   0  0  0  0  0  2  0  0  0  0  0  0
  185.7710  179.3980  146.9930 N   0  0  0  0  0  1  0  0  0  0  0  0
  186.6870  178.4320  138.0500 C   0  0  0  0  0  1  0  0  0  0  0  0
  187.8080  177.8570  138.8990 C   0  0  1  0  0  3  0  0  0  0  0  0
  189.0870  178.5920  138.6640 C   0  0  0  0  0  0  0  0  0  0  0  0
  189.0640  179.6820  138.0320 O   0  0  0  0  0  0  0  0  0  0  0  0
  190.2960  178.0540  139.1120 O   0  0  0  0  0  0  0  0  0  0  0  0
  190.7030  176.7400  138.7610 C   0  0  0  0  0  2  0  0  0  0  0  0
  190.9040  176.6570  137.2630 C   0  0  0  0  0  1  0  0  0  0  0  0
  1  7  1  0  0  0  0
  2  5  2  0  0  0  0
  3  4  1  0  0  0  0
  4 11  2  0  0  0  0
  4  5  1  0  0  0  0
  5 21  1  0  0  0  0
  6 10  1  0  0  0  0
  7  3  1  0  0  0  0
  7 10  2  0  0  0  0
  8  1  2  0  0  0  0
  8  9  1  0  0  0  0
  9  6  1  0  0  0  0
 10  2  1  0  0  0  0
 13 16  1  0  0  0  0
 13 14  1  0  0  0  0
 14 17  1  0  0  0  0
 15  6  1  6  0  0  0
 15 12  1  0  0  0  0
 16 15  1  0  0  0  0
 17 12  1  0  0  0  0
 17 18  1  1  0  0  0
 18 19  1  0  0  0  0
 19 20  1  0  0  0  0
 21 22  1  0  0  0  0
 24 23  1  6  0  0  0
 24  8  1  0  0  0  0
 25 24  1  0  0  0  0
 25 27  1  0  0  0  0
 26 25  2  0  0  0  0
 28 27  1  0  0  0  0
 29 28  1  0  0  0  0
M  END
>  <MODEL>
2

>  <REMARK>
 VINA RESULT:      -8.2      1.138      2.143
  Name = 
  8 active torsions:
  status: ('A' for Active; 'I' for Inactive)
    1  A    between atoms: C_1  and  C_5
    2  A    between atoms: C_1  and  C_25
    3  A    between atoms: C_6  and  C_15
    4  A    between atoms: O_9  and  C_10
    5  A    between atoms: O_9  and  C_16
    6  A    between atoms: C_10  and  C_18
    7  A    between atoms: C_14  and  N_19
    8  A    between atoms: C_18  and  C_21
                            x       y       z     vdW  Elec       q    Type
                         _______ _______ _______ _____ _____    ______ ____

>  <TORSDO>
F 8

$$$$
=
 OpenBabel11042410243D

 29 31  0  0  1  0  0  0  0  0999 V2000
  187.5920  178.3840  139.8290 C   0  0  0  0  0  3  0  0  0  0  0  0
  190.8870  176.5900  139.5490 C   0  0  0  0  0  3  0  0  0  0  0  0
  188.9690  177.7170  137.9100 N   0  0  0  0  0  2  0  0  0  0  0  0
  190.0650  177.1400  137.3460 C   0  0  0  0  0  0  0  0  0  0  0  0
  191.0530  176.5660  138.1630 C   0  0  0  0  0  0  0  0  0  0  0  0
  189.5440  177.2320  141.5320 N   0  0  0  0  0  0  0  0  0  0  0  0
  188.7930  177.7560  139.2590 C   0  0  0  0  0  0  0  0  0  0  0  0
  187.4020  178.4170  141.1500 C   0  0  0  0  0  0  0  0  0  0  0  0
  188.3750  177.8370  142.0320 N   0  0  0  0  0  2  0  0  0  0  0  0
  189.7540  177.1890  140.1100 C   0  0  0  0  0  0  0  0  0  0  0  0
  190.1820  177.1270  136.0920 O   0  0  0  0  0  0  0  0  0  0  0  0
  189.9210  176.2110  143.7630 C   0  0  0  0  0  2  0  0  0  0  0  0
  191.3170  178.8520  143.6150 C   0  0  0  0  0  2  0  0  0  0  0  0
  190.1560  178.5740  144.4760 N   0  0  0  0  0  2  0  0  0  0  0  0
  190.5500  176.7020  142.4540 C   0  0  2  0  0  3  0  0  0  0  0  0
  191.6910  177.6950  142.6750 C   0  0  0  0  0  2  0  0  0  0  0  0
  190.1060  177.1800  144.9360 C   0  0  2  0  0  3  0  0  0  0  0  0
  191.3200  176.8030  145.7830 C   0  0  0  0  0  2  0  0  0  0  0  0
  190.9540  176.7090  147.2550 C   0  0  0  0  0  2  0  0  0  0  0  0
  189.4530  176.8240  147.4450 C   0  0  0  0  0  1  0  0  0  0  0  0
  192.2520  175.8940  137.5820 C   0  0  0  0  0  2  0  0  0  0  0  0
  193.4570  176.5660  138.0330 N   0  0  0  0  0  1  0  0  0  0  0  0
  185.0580  179.0620  140.6630 C   0  0  0  0  0  1  0  0  0  0  0  0
  186.1690  179.0590  141.6990 C   0  0  1  0  0  3  0  0  0  0  0  0
  185.7240  178.3880  142.9580 C   0  0  0  0  0  0  0  0  0  0  0  0
  184.5730  177.8760  143.0080 O   0  0  0  0  0  0  0  0  0  0  0  0
  186.5640  178.3640  144.0730 O   0  0  0  0  0  0  0  0  0  0  0  0
  186.3800  177.4310  145.1270 C   0  0  0  0  0  2  0  0  0  0  0  0
  186.0900  178.1740  146.4130 C   0  0  0  0  0  1  0  0  0  0  0  0
  1  8  2  0  0  0  0
  2 10  1  0  0  0  0
  3  7  1  0  0  0  0
  4  3  1  0  0  0  0
  4  5  1  0  0  0  0
  5  2  2  0  0  0  0
  6  9  1  0  0  0  0
  7  1  1  0  0  0  0
  7 10  2  0  0  0  0
  8 24  1  0  0  0  0
  8  9  1  0  0  0  0
 10  6  1  0  0  0  0
 11  4  2  0  0  0  0
 12 17  1  0  0  0  0
 13 14  1  0  0  0  0
 14 17  1  0  0  0  0
 15  6  1  6  0  0  0
 15 16  1  0  0  0  0
 15 12  1  0  0  0  0
 16 13  1  0  0  0  0
 17 18  1  6  0  0  0
 18 19  1  0  0  0  0
 19 20  1  0  0  0  0
 21 22  1  0  0  0  0
 21  5  1  0  0  0  0
 24 23  1  6  0  0  0
 24 25  1  0  0  0  0
 25 26  2  0  0  0  0
 25 27  1  0  0  0  0
 27 28  1  0  0  0  0
 28 29  1  0  0  0  0
M  END
>  <MODEL>
3

>  <REMARK>
 VINA RESULT:      -8.0      2.039      5.849
  Name = 
  8 active torsions:
  status: ('A' for Active; 'I' for Inactive)
    1  A    between atoms: C_1  and  C_5
    2  A    between atoms: C_1  and  C_25
    3  A    between atoms: C_6  and  C_15
    4  A    between atoms: O_9  and  C_10
    5  A    between atoms: O_9  and  C_16
    6  A    between atoms: C_10  and  C_18
    7  A    between atoms: C_14  and  N_19
    8  A    between atoms: C_18  and  C_21
                            x       y       z     vdW  Elec       q    Type
                         _______ _______ _______ _____ _____    ______ ____

>  <TORSDO>
F 8

$$$$
=
 OpenBabel11042410243D

 29 31  0  0  1  0  0  0  0  0999 V2000
  189.0300  177.9140  139.4930 C   0  0  0  0  0  3  0  0  0  0  0  0
  187.1100  177.7170  142.7220 C   0  0  0  0  0  3  0  0  0  0  0  0
  186.8120  178.7200  140.1650 N   0  0  0  0  0  2  0  0  0  0  0  0
  185.8030  178.8870  141.0630 C   0  0  0  0  0  0  0  0  0  0  0  0
  185.9350  178.3810  142.3660 C   0  0  0  0  0  0  0  0  0  0  0  0
  189.3620  176.8780  142.1110 N   0  0  0  0  0  0  0  0  0  0  0  0
  187.9620  178.0700  140.4910 C   0  0  0  0  0  0  0  0  0  0  0  0
  190.1680  177.2900  139.8050 C   0  0  0  0  0  0  0  0  0  0  0  0
  190.3610  176.7600  141.1260 N   0  0  0  0  0  2  0  0  0  0  0  0
  188.1350  177.5530  141.7840 C   0  0  0  0  0  0  0  0  0  0  0  0
  184.7580  179.4980  140.7140 O   0  0  0  0  0  0  0  0  0  0  0  0
  188.6890  176.9540  144.4990 C   0  0  0  0  0  2  0  0  0  0  0  0
  191.6040  177.5740  144.2540 C   0  0  0  0  0  2  0  0  0  0  0  0
  190.5810  178.5460  144.6760 N   0  0  0  0  0  2  0  0  0  0  0  0
  189.5560  176.2760  143.4310 C   0  0  2  0  0  3  0  0  0  0  0  0
  191.0360  176.2170  143.8120 C   0  0  0  0  0  2  0  0  0  0  0  0
  189.4650  177.9230  145.3980 C   0  0  2  0  0  3  0  0  0  0  0  0
  189.9150  177.2440  146.6900 C   0  0  0  0  0  2  0  0  0  0  0  0
  188.7280  176.9260  147.5860 C   0  0  0  0  0  2  0  0  0  0  0  0
  187.9460  178.1860  147.9080 C   0  0  0  0  0  1  0  0  0  0  0  0
  184.8650  178.5740  143.3890 C   0  0  0  0  0  2  0  0  0  0  0  0
  185.4330  178.4580  144.7200 N   0  0  0  0  0  1  0  0  0  0  0  0
  192.5990  176.9830  139.4240 C   0  0  0  0  0  1  0  0  0  0  0  0
  191.2380  177.1510  138.7700 C   0  0  1  0  0  3  0  0  0  0  0  0
  190.9480  176.0190  137.8400 C   0  0  0  0  0  0  0  0  0  0  0  0
  190.8870  174.8460  138.2980 O   0  0  0  0  0  0  0  0  0  0  0  0
  190.7850  176.2600  136.4730 O   0  0  0  0  0  0  0  0  0  0  0  0
  189.6740  176.9870  135.9720 C   0  0  0  0  0  2  0  0  0  0  0  0
  188.4050  176.1970  136.2100 C   0  0  0  0  0  1  0  0  0  0  0  0
  1  8  2  0  0  0  0
  1  7  1  0  0  0  0
  3  7  1  0  0  0  0
  3  4  1  0  0  0  0
  4  5  1  0  0  0  0
  5  2  2  0  0  0  0
  5 21  1  0  0  0  0
  7 10  2  0  0  0  0
  8  9  1  0  0  0  0
  9  6  1  0  0  0  0
 10  6  1  0  0  0  0
 10  2  1  0  0  0  0
 11  4  2  0  0  0  0
 12 17  1  0  0  0  0
 13 14  1  0  0  0  0
 14 17  1  0  0  0  0
 15  6  1  6  0  0  0
 15 16  1  0  0  0  0
 15 12  1  0  0  0  0
 16 13  1  0  0  0  0
 17 18  1  1  0  0  0
 18 19  1  0  0  0  0
 19 20  1  0  0  0  0
 21 22  1  0  0  0  0
 24 23  1  1  0  0  0
 24  8  1  0  0  0  0
 25 26  2  0  0  0  0
 25 24  1  0  0  0  0
 27 25  1  0  0  0  0
 28 29  1  0  0  0  0
 28 27  1  0  0  0  0
M  END
>  <MODEL>
4

>  <REMARK>
 VINA RESULT:      -7.9      2.060      2.952
  Name = 
  8 active torsions:
  status: ('A' for Active; 'I' for Inactive)
    1  A    between atoms: C_1  and  C_5
    2  A    between atoms: C_1  and  C_25
    3  A    between atoms: C_6  and  C_15
    4  A    between atoms: O_9  and  C_10
    5  A    between atoms: O_9  and  C_16
    6  A    between atoms: C_10  and  C_18
    7  A    between atoms: C_14  and  N_19
    8  A    between atoms: C_18  and  C_21
                            x       y       z     vdW  Elec       q    Type
                         _______ _______ _______ _____ _____    ______ ____

>  <TORSDO>
F 8

$$$$
=
 OpenBabel11042410243D

 29 31  0  0  1  0  0  0  0  0999 V2000
  187.0290  178.6270  140.5470 C   0  0  0  0  0  3  0  0  0  0  0  0
  190.3560  177.0820  139.7170 C   0  0  0  0  0  3  0  0  0  0  0  0
  188.2120  178.2550  138.4300 N   0  0  0  0  0  2  0  0  0  0  0  0
  189.2650  177.8110  137.6910 C   0  0  0  0  0  0  0  0  0  0  0  0
  190.3660  177.2170  138.3280 C   0  0  0  0  0  0  0  0  0  0  0  0
  189.2150  177.4240  141.8920 N   0  0  0  0  0  0  0  0  0  0  0  0
  188.1880  178.1390  139.7850 C   0  0  0  0  0  0  0  0  0  0  0  0
  186.9870  178.5070  141.8760 C   0  0  0  0  0  0  0  0  0  0  0  0
  188.0810  177.8980  142.5780 N   0  0  0  0  0  2  0  0  0  0  0  0
  189.2650  177.5460  140.4600 C   0  0  0  0  0  0  0  0  0  0  0  0
  189.2400  177.9400  136.4380 O   0  0  0  0  0  0  0  0  0  0  0  0
  189.9030  176.2650  143.9760 C   0  0  0  0  0  2  0  0  0  0  0  0
  191.2110  178.9500  143.8390 C   0  0  0  0  0  2  0  0  0  0  0  0
  190.1790  178.5790  144.8210 N   0  0  0  0  0  2  0  0  0  0  0  0
  190.3450  176.8630  142.6350 C   0  0  2  0  0  3  0  0  0  0  0  0
  191.4840  177.8730  142.7780 C   0  0  0  0  0  2  0  0  0  0  0  0
  190.2190  177.1560  145.1820 C   0  0  2  0  0  3  0  0  0  0  0  0
  191.5410  176.7590  145.8350 C   0  0  0  0  0  2  0  0  0  0  0  0
  191.3590  176.4840  147.3200 C   0  0  0  0  0  2  0  0  0  0  0  0
  192.4950  175.6280  147.8510 C   0  0  0  0  0  1  0  0  0  0  0  0
  191.5240  176.6870  137.5490 C   0  0  0  0  0  2  0  0  0  0  0  0
  192.7150  176.6900  138.3790 N   0  0  0  0  0  1  0  0  0  0  0  0
  184.5230  178.7720  141.8240 C   0  0  0  0  0  1  0  0  0  0  0  0
  185.7930  179.0090  142.6230 C   0  0  1  0  0  3  0  0  0  0  0  0
  185.6990  178.3830  143.9760 C   0  0  0  0  0  0  0  0  0  0  0  0
  185.7110  177.1270  144.0760 O   0  0  0  0  0  0  0  0  0  0  0  0
  185.5620  179.1860  145.1110 O   0  0  0  0  0  0  0  0  0  0  0  0
  185.4200  178.6280  146.4080 C   0  0  0  0  0  2  0  0  0  0  0  0
  186.7870  178.3070  146.9720 C   0  0  0  0  0  1  0  0  0  0  0  0
  1  8  2  0  0  0  0
  2 10  1  0  0  0  0
  3  7  1  0  0  0  0
  4  5  1  0  0  0  0
  4  3  1  0  0  0  0
  5  2  2  0  0  0  0
  6  9  1  0  0  0  0
  7 10  2  0  0  0  0
  7  1  1  0  0  0  0
  8  9  1  0  0  0  0
  8 24  1  0  0  0  0
 10  6  1  0  0  0  0
 11  4  2  0  0  0  0
 12 17  1  0  0  0  0
 13 14  1  0  0  0  0
 14 17  1  0  0  0  0
 15  6  1  1  0  0  0
 15 16  1  0  0  0  0
 15 12  1  0  0  0  0
 16 13  1  0  0  0  0
 17 18  1  6  0  0  0
 18 19  1  0  0  0  0
 19 20  1  0  0  0  0
 21  5  1  0  0  0  0
 21 22  1  0  0  0  0
 24 23  1  6  0  0  0
 24 25  1  0  0  0  0
 25 26  2  0  0  0  0
 25 27  1  0  0  0  0
 27 28  1  0  0  0  0
 28 29  1  0  0  0  0
M  END
>  <MODEL>
5

>  <REMARK>
 VINA RESULT:      -7.6      1.926      5.751
  Name = 
  8 active torsions:
  status: ('A' for Active; 'I' for Inactive)
    1  A    between atoms: C_1  and  C_5
    2  A    between atoms: C_1  and  C_25
    3  A    between atoms: C_6  and  C_15
    4  A    between atoms: O_9  and  C_10
    5  A    between atoms: O_9  and  C_16
    6  A    between atoms: C_10  and  C_18
    7  A    between atoms: C_14  and  N_19
    8  A    between atoms: C_18  and  C_21
                            x       y       z     vdW  Elec       q    Type
                         _______ _______ _______ _____ _____    ______ ____

>  <TORSDO>
F 8

$$$$
=
 OpenBabel11042410243D

 29 31  0  0  1  0  0  0  0  0999 V2000
  186.6660  178.4160  146.4690 C   0  0  0  0  0  3  0  0  0  0  0  0
  185.2770  177.9150  143.0090 C   0  0  0  0  0  3  0  0  0  0  0  0
  184.4960  178.9440  145.4510 N   0  0  0  0  0  2  0  0  0  0  0  0
  183.6180  178.9690  144.4120 C   0  0  0  0  0  0  0  0  0  0  0  0
  183.9990  178.4550  143.1620 C   0  0  0  0  0  0  0  0  0  0  0  0
  187.4900  177.3510  143.9750 N   0  0  0  0  0  0  0  0  0  0  0  0
  185.7480  178.4290  145.3200 C   0  0  0  0  0  0  0  0  0  0  0  0
  187.8920  177.9010  146.3570 C   0  0  0  0  0  0  0  0  0  0  0  0
  188.3300  177.3520  145.1040 N   0  0  0  0  0  2  0  0  0  0  0  0
  186.1660  177.9000  144.0890 C   0  0  0  0  0  0  0  0  0  0  0  0
  182.4690  179.4560  144.5830 O   0  0  0  0  0  0  0  0  0  0  0  0
  189.3670  176.2000  142.8290 C   0  0  0  0  0  2  0  0  0  0  0  0
  189.0440  178.9560  141.7140 C   0  0  0  0  0  2  0  0  0  0  0  0
  190.2010  178.5130  142.5100 N   0  0  0  0  0  2  0  0  0  0  0  0
  187.9810  176.8430  142.6930 C   0  0  2  0  0  3  0  0  0  0  0  0
  187.9230  177.9120  141.6020 C   0  0  0  0  0  2  0  0  0  0  0  0
  190.5090  177.0890  142.3260 C   0  0  2  0  0  3  0  0  0  0  0  0
  190.8790  176.7560  140.8810 C   0  0  0  0  0  2  0  0  0  0  0  0
  192.1590  177.4630  140.4650 C   0  0  0  0  0  2  0  0  0  0  0  0
  192.6170  176.9870  139.0990 C   0  0  0  0  0  1  0  0  0  0  0  0
  183.0530  178.4340  142.0070 C   0  0  0  0  0  2  0  0  0  0  0  0
  183.8000  178.4490  140.7620 N   0  0  0  0  0  1  0  0  0  0  0  0
  187.9990  177.8170  148.8320 C   0  0  0  0  0  1  0  0  0  0  0  0
  188.8000  177.8980  147.5440 C   0  0  1  0  0  3  0  0  0  0  0  0
  189.7950  176.7860  147.4620 C   0  0  0  0  0  0  0  0  0  0  0  0
  189.4250  175.6090  147.7200 O   0  0  0  0  0  0  0  0  0  0  0  0
  191.1260  177.0600  147.1390 O   0  0  0  0  0  0  0  0  0  0  0  0
  192.0490  176.0250  146.8380 C   0  0  0  0  0  2  0  0  0  0  0  0
  192.8000  175.6370  148.0940 C   0  0  0  0  0  1  0  0  0  0  0  0
  2  5  2  0  0  0  0
  2 10  1  0  0  0  0
  4 11  2  0  0  0  0
  4  3  1  0  0  0  0
  5  4  1  0  0  0  0
  6 10  1  0  0  0  0
  6  9  1  0  0  0  0
  7  3  1  0  0  0  0
  7  1  1  0  0  0  0
  8  1  2  0  0  0  0
  8 24  1  0  0  0  0
  9  8  1  0  0  0  0
 10  7  2  0  0  0  0
 13 14  1  0  0  0  0
 15 16  1  6  0  0  0
 15 12  1  0  0  0  0
 15  6  1  0  0  0  0
 16 13  1  0  0  0  0
 17 18  1  6  0  0  0
 17 14  1  0  0  0  0
 17 12  1  0  0  0  0
 19 18  1  0  0  0  0
 20 19  1  0  0  0  0
 21  5  1  0  0  0  0
 22 21  1  0  0  0  0
 24 23  1  1  0  0  0
 25 24  1  0  0  0  0
 25 26  2  0  0  0  0
 27 25  1  0  0  0  0
 28 27  1  0  0  0  0
 28 29  1  0  0  0  0
M  END
>  <MODEL>
6

>  <REMARK>
 VINA RESULT:      -7.3      3.035      6.357
  Name = 
  8 active torsions:
  status: ('A' for Active; 'I' for Inactive)
    1  A    between atoms: C_1  and  C_5
    2  A    between atoms: C_1  and  C_25
    3  A    between atoms: C_6  and  C_15
    4  A    between atoms: O_9  and  C_10
    5  A    between atoms: O_9  and  C_16
    6  A    between atoms: C_10  and  C_18
    7  A    between atoms: C_14  and  N_19
    8  A    between atoms: C_18  and  C_21
                            x       y       z     vdW  Elec       q    Type
                         _______ _______ _______ _____ _____    ______ ____

>  <TORSDO>
F 8

$$$$
=
 OpenBabel11042410243D

 29 31  0  0  1  0  0  0  0  0999 V2000
  189.6800  178.0810  142.0210 C   0  0  0  0  0  3  0  0  0  0  0  0
  188.2890  177.2120  145.4060 C   0  0  0  0  0  3  0  0  0  0  0  0
  190.7320  177.6600  144.1980 N   0  0  0  0  0  2  0  0  0  0  0  0
  190.6960  177.3540  145.5230 C   0  0  0  0  0  0  0  0  0  0  0  0
  189.4630  177.1280  146.1560 C   0  0  0  0  0  0  0  0  0  0  0  0
  187.1610  177.6230  143.2360 N   0  0  0  0  0  0  0  0  0  0  0  0
  189.5980  177.7530  143.4520 C   0  0  0  0  0  0  0  0  0  0  0  0
  188.5760  178.1630  141.2760 C   0  0  0  0  0  0  0  0  0  0  0  0
  187.2890  177.9310  141.8690 N   0  0  0  0  0  2  0  0  0  0  0  0
  188.3460  177.5290  144.0450 C   0  0  0  0  0  0  0  0  0  0  0  0
  191.7740  177.2780  146.1710 O   0  0  0  0  0  0  0  0  0  0  0  0
  184.7180  177.8490  142.8570 C   0  0  0  0  0  2  0  0  0  0  0  0
  185.5690  179.6800  145.0630 C   0  0  0  0  0  2  0  0  0  0  0  0
  185.0910  180.1330  143.7460 N   0  0  0  0  0  2  0  0  0  0  0  0
  185.8340  177.4510  143.8310 C   0  0  2  0  0  3  0  0  0  0  0  0
  185.7260  178.1560  145.1830 C   0  0  0  0  0  2  0  0  0  0  0  0
  184.1050  179.2220  143.1520 C   0  0  2  0  0  3  0  0  0  0  0  0
  182.8430  179.0960  144.0030 C   0  0  0  0  0  2  0  0  0  0  0  0
  181.5970  179.0390  143.1330 C   0  0  0  0  0  2  0  0  0  0  0  0
  180.4100  178.5250  143.9270 C   0  0  0  0  0  1  0  0  0  0  0  0
  189.3840  176.7570  147.5990 C   0  0  0  0  0  2  0  0  0  0  0  0
  188.7980  177.8490  148.3550 N   0  0  0  0  0  1  0  0  0  0  0  0
  189.9070  177.8150  139.2140 C   0  0  0  0  0  1  0  0  0  0  0  0
  188.6920  178.4930  139.8230 C   0  0  1  0  0  3  0  0  0  0  0  0
  187.4470  178.1260  139.0830 C   0  0  0  0  0  0  0  0  0  0  0  0
  187.4920  177.2060  138.2220 O   0  0  0  0  0  0  0  0  0  0  0  0
  186.2600  178.8220  139.3210 O   0  0  0  0  0  0  0  0  0  0  0  0
  185.0340  178.4330  138.7220 C   0  0  0  0  0  2  0  0  0  0  0  0
  183.9220  179.3330  139.2180 C   0  0  0  0  0  1  0  0  0  0  0  0
  1  7  1  0  0  0  0
  2  5  2  0  0  0  0
  3  4  1  0  0  0  0
  4  5  1  0  0  0  0
  4 11  2  0  0  0  0
  5 21  1  0  0  0  0
  6 15  1  0  0  0  0
  6 10  1  0  0  0  0
  7 10  2  0  0  0  0
  7  3  1  0  0  0  0
  8  9  1  0  0  0  0
  8  1  2  0  0  0  0
  9  6  1  0  0  0  0
 10  2  1  0  0  0  0
 12 17  1  0  0  0  0
 13 16  1  0  0  0  0
 14 13  1  0  0  0  0
 15 12  1  6  0  0  0
 15 16  1  0  0  0  0
 17 14  1  0  0  0  0
 17 18  1  1  0  0  0
 19 20  1  0  0  0  0
 19 18  1  0  0  0  0
 21 22  1  0  0  0  0
 24 23  1  6  0  0  0
 24  8  1  0  0  0  0
 25 27  1  0  0  0  0
 25 24  1  0  0  0  0
 26 25  2  0  0  0  0
 28 29  1  0  0  0  0
 28 27  1  0  0  0  0
M  END
>  <MODEL>
7

>  <REMARK>
 VINA RESULT:      -7.3      2.376      5.399
  Name = 
  8 active torsions:
  status: ('A' for Active; 'I' for Inactive)
    1  A    between atoms: C_1  and  C_5
    2  A    between atoms: C_1  and  C_25
    3  A    between atoms: C_6  and  C_15
    4  A    between atoms: O_9  and  C_10
    5  A    between atoms: O_9  and  C_16
    6  A    between atoms: C_10  and  C_18
    7  A    between atoms: C_14  and  N_19
    8  A    between atoms: C_18  and  C_21
                            x       y       z     vdW  Elec       q    Type
                         _______ _______ _______ _____ _____    ______ ____

>  <TORSDO>
F 8

$$$$
=
 OpenBabel11042410243D

 29 31  0  0  1  0  0  0  0  0999 V2000
  188.7520  177.9720  141.0030 C   0  0  0  0  0  3  0  0  0  0  0  0
  185.8610  178.2080  143.3980 C   0  0  0  0  0  3  0  0  0  0  0  0
  188.5520  177.5850  143.4180 N   0  0  0  0  0  2  0  0  0  0  0  0
  187.8530  177.5350  144.5850 C   0  0  0  0  0  0  0  0  0  0  0  0
  186.4850  177.8530  144.5950 C   0  0  0  0  0  0  0  0  0  0  0  0
  185.9910  178.6130  140.9550 N   0  0  0  0  0  0  0  0  0  0  0  0
  187.9620  177.9350  142.2430 C   0  0  0  0  0  0  0  0  0  0  0  0
  188.1820  178.3020  139.8420 C   0  0  0  0  0  0  0  0  0  0  0  0
  186.7840  178.6270  139.7930 N   0  0  0  0  0  2  0  0  0  0  0  0
  186.5970  178.2550  142.2090 C   0  0  0  0  0  0  0  0  0  0  0  0
  188.4430  177.2030  145.6470 O   0  0  0  0  0  0  0  0  0  0  0  0
  183.6530  177.8810  141.3550 C   0  0  0  0  0  2  0  0  0  0  0  0
  184.0440  178.4620  138.4480 C   0  0  0  0  0  2  0  0  0  0  0  0
  183.8020  177.1180  139.0010 N   0  0  0  0  0  2  0  0  0  0  0  0
  184.5830  179.0080  140.8900 C   0  0  2  0  0  3  0  0  0  0  0  0
  184.2140  179.5570  139.5110 C   0  0  0  0  0  2  0  0  0  0  0  0
  182.9630  177.1390  140.2060 C   0  0  2  0  0  3  0  0  0  0  0  0
  181.5710  177.7060  139.9340 C   0  0  0  0  0  2  0  0  0  0  0  0
  180.9690  178.3120  141.1920 C   0  0  0  0  0  2  0  0  0  0  0  0
  180.4300  179.7030  140.9140 C   0  0  0  0  0  1  0  0  0  0  0  0
  185.6770  177.7780  145.8470 C   0  0  0  0  0  2  0  0  0  0  0  0
  184.9270  179.0090  146.0220 N   0  0  0  0  0  1  0  0  0  0  0  0
  190.0270  177.1980  138.6080 C   0  0  0  0  0  1  0  0  0  0  0  0
  189.0100  178.3250  138.5970 C   0  0  1  0  0  3  0  0  0  0  0  0
  188.1520  178.2610  137.3760 C   0  0  0  0  0  0  0  0  0  0  0  0
  187.6170  179.3170  136.9430 O   0  0  0  0  0  0  0  0  0  0  0  0
  187.9210  177.0360  136.7460 O   0  0  0  0  0  0  0  0  0  0  0  0
  186.7090  176.3200  136.9300 C   0  0  0  0  0  2  0  0  0  0  0  0
  185.7770  176.5990  135.7700 C   0  0  0  0  0  1  0  0  0  0  0  0
  1  7  1  0  0  0  0
  2  5  2  0  0  0  0
  3  4  1  0  0  0  0
  4  5  1  0  0  0  0
  4 11  2  0  0  0  0
  5 21  1  0  0  0  0
  6 10  1  0  0  0  0
  7  3  1  0  0  0  0
  8  1  2  0  0  0  0
  9  8  1  0  0  0  0
  9  6  1  0  0  0  0
 10  7  2  0  0  0  0
 10  2  1  0  0  0  0
 13 14  1  0  0  0  0
 13 16  1  0  0  0  0
 14 17  1  0  0  0  0
 15 16  1  6  0  0  0
 15  6  1  0  0  0  0
 15 12  1  0  0  0  0
 17 18  1  6  0  0  0
 17 12  1  0  0  0  0
 18 19  1  0  0  0  0
 20 19  1  0  0  0  0
 21 22  1  0  0  0  0
 24 23  1  1  0  0  0
 24  8  1  0  0  0  0
 25 24  1  0  0  0  0
 26 25  2  0  0  0  0
 27 28  1  0  0  0  0
 27 25  1  0  0  0  0
 29 28  1  0  0  0  0
M  END
>  <MODEL>
8

>  <REMARK>
 VINA RESULT:      -7.1      2.486      5.866
  Name = 
  8 active torsions:
  status: ('A' for Active; 'I' for Inactive)
    1  A    between atoms: C_1  and  C_5
    2  A    between atoms: C_1  and  C_25
    3  A    between atoms: C_6  and  C_15
    4  A    between atoms: O_9  and  C_10
    5  A    between atoms: O_9  and  C_16
    6  A    between atoms: C_10  and  C_18
    7  A    between atoms: C_14  and  N_19
    8  A    between atoms: C_18  and  C_21
                            x       y       z     vdW  Elec       q    Type
                         _______ _______ _______ _____ _____    ______ ____

>  <TORSDO>
F 8

$$$$
=
 OpenBabel11042410243D

 29 31  0  0  1  0  0  0  0  0999 V2000
  189.9110  175.8400  137.5480 C   0  0  0  0  0  3  0  0  0  0  0  0
  187.6070  177.9950  139.5980 C   0  0  0  0  0  3  0  0  0  0  0  0
  187.6430  176.6950  137.1600 N   0  0  0  0  0  2  0  0  0  0  0  0
  186.5360  177.4010  137.5170 C   0  0  0  0  0  0  0  0  0  0  0  0
  186.4980  178.0640  138.7540 C   0  0  0  0  0  0  0  0  0  0  0  0
  189.9000  177.1670  140.0530 N   0  0  0  0  0  0  0  0  0  0  0  0
  188.7320  176.6100  137.9720 C   0  0  0  0  0  0  0  0  0  0  0  0
  190.9890  175.7590  138.3300 C   0  0  0  0  0  0  0  0  0  0  0  0
  191.0090  176.4270  139.6010 N   0  0  0  0  0  2  0  0  0  0  0  0
  188.7360  177.2620  139.2140 C   0  0  0  0  0  0  0  0  0  0  0  0
  185.5540  177.4520  136.7300 O   0  0  0  0  0  0  0  0  0  0  0  0
  191.2970  177.6670  142.0430 C   0  0  0  0  0  2  0  0  0  0  0  0
  189.0430  175.8620  142.8210 C   0  0  0  0  0  2  0  0  0  0  0  0
  190.4610  175.4640  142.8150 N   0  0  0  0  0  2  0  0  0  0  0  0
  189.9200  177.7870  141.3790 C   0  0  2  0  0  3  0  0  0  0  0  0
  188.7840  177.2690  142.2610 C   0  0  0  0  0  2  0  0  0  0  0  0
  191.3680  176.5780  143.1190 C   0  0  2  0  0  3  0  0  0  0  0  0
  191.1310  177.1570  144.5120 C   0  0  0  0  0  2  0  0  0  0  0  0
  191.7180  176.2560  145.5880 C   0  0  0  0  0  2  0  0  0  0  0  0
  191.2770  176.7090  146.9680 C   0  0  0  0  0  1  0  0  0  0  0  0
  185.3150  178.8770  139.1660 C   0  0  0  0  0  2  0  0  0  0  0  0
  185.4800  179.3210  140.5390 N   0  0  0  0  0  1  0  0  0  0  0  0
  191.9370  174.4100  136.4790 C   0  0  0  0  0  1  0  0  0  0  0  0
  192.1750  174.9740  137.8690 C   0  0  1  0  0  3  0  0  0  0  0  0
  193.4190  175.7990  137.9050 C   0  0  0  0  0  0  0  0  0  0  0  0
  193.4260  176.9280  137.3440 O   0  0  0  0  0  0  0  0  0  0  0  0
  194.5700  175.3040  138.5250 O   0  0  0  0  0  0  0  0  0  0  0  0
  195.4630  174.4310  137.8510 C   0  0  0  0  0  2  0  0  0  0  0  0
  195.4280  173.0680  138.5090 C   0  0  0  0  0  1  0  0  0  0  0  0
  1  7  1  0  0  0  0
  1  8  2  0  0  0  0
  3  4  1  0  0  0  0
  3  7  1  0  0  0  0
  4  5  1  0  0  0  0
  5 21  1  0  0  0  0
  5  2  2  0  0  0  0
  7 10  2  0  0  0  0
  8  9  1  0  0  0  0
  9  6  1  0  0  0  0
 10  2  1  0  0  0  0
 10  6  1  0  0  0  0
 11  4  2  0  0  0  0
 12 17  1  0  0  0  0
 14 13  1  0  0  0  0
 14 17  1  0  0  0  0
 15  6  1  6  0  0  0
 15 12  1  0  0  0  0
 15 16  1  0  0  0  0
 16 13  1  0  0  0  0
 17 18  1  1  0  0  0
 18 19  1  0  0  0  0
 19 20  1  0  0  0  0
 21 22  1  0  0  0  0
 24 23  1  6  0  0  0
 24 25  1  0  0  0  0
 24  8  1  0  0  0  0
 25 27  1  0  0  0  0
 26 25  2  0  0  0  0
 28 29  1  0  0  0  0
 28 27  1  0  0  0  0
M  END
>  <MODEL>
9

>  <REMARK>
 VINA RESULT:      -7.0      3.263      5.713
  Name = 
  8 active torsions:
  status: ('A' for Active; 'I' for Inactive)
    1  A    between atoms: C_1  and  C_5
    2  A    between atoms: C_1  and  C_25
    3  A    between atoms: C_6  and  C_15
    4  A    between atoms: O_9  and  C_10
    5  A    between atoms: O_9  and  C_16
    6  A    between atoms: C_10  and  C_18
    7  A    between atoms: C_14  and  N_19
    8  A    between atoms: C_18  and  C_21
                            x       y       z     vdW  Elec       q    Type
                         _______ _______ _______ _____ _____    ______ ____

>  <TORSDO>
F 8

$$$$
