=
 OpenBabel11042409583D

 38 43  0  0  1  0  0  0  0  0999 V2000
  184.5550  179.1140  141.2560 N   0  0  0  0  0  0  0  0  0  0  0  0
  185.5450  179.4130  142.2730 C   0  0  0  0  0  2  0  0  0  0  0  0
  180.3890  178.2360  140.0720 N   0  0  0  0  0  0  0  0  0  0  0  0
  184.9670  179.2990  137.6450 N   0  0  0  0  0  0  0  0  0  0  0  0
  180.9490  178.9250  137.7070 S   0  0  0  0  0  0  0  0  0  0  0  0
  183.5030  178.6110  143.3170 C   0  0  0  0  0  2  0  0  0  0  0  0
  187.8930  177.5070  136.5770 C   0  0  0  0  0  0  0  0  0  0  0  0
  184.9670  178.9350  143.5880 C   0  0  1  0  0  3  0  0  0  0  0  0
  183.1630  177.0860  141.4150 C   0  0  0  0  0  1  0  0  0  0  0  0
  184.3160  179.5820  138.7230 C   0  0  0  0  0  0  0  0  0  0  0  0
  186.0530  178.5140  138.1250 C   0  0  0  0  0  0  0  0  0  0  0  0
  182.0960  179.4060  141.4660 C   0  0  0  0  0  2  0  0  0  0  0  0
  186.0350  178.3440  139.5370 N   0  0  0  0  0  0  0  0  0  0  0  0
  186.9740  178.0110  137.3520 C   0  0  0  0  0  0  0  0  0  0  0  0
  184.9650  178.9780  139.8870 C   0  0  0  0  0  0  0  0  0  0  0  0
  189.0050  178.2710  136.2390 O   0  0  0  0  0  1  0  0  0  0  0  0
  183.0940  180.4300  138.7310 C   0  0  0  0  0  2  0  0  0  0  0  0
  181.4520  179.0790  140.1530 C   0  0  0  0  0  0  0  0  0  0  0  0
  183.3250  178.5520  141.8100 C   0  0  2  0  0  0  0  0  0  0  0  0
  179.9960  178.0590  138.7890 C   0  0  0  0  0  0  0  0  0  0  0  0
  181.8960  179.5750  138.9340 C   0  0  0  0  0  0  0  0  0  0  0  0
  178.9310  177.2450  138.4080 O   0  0  0  0  0  0  0  0  0  0  0  0
  178.9600  175.8400  138.6080 C   0  0  0  0  0  1  0  0  0  0  0  0
  187.7420  176.1130  136.0610 C   0  0  2  0  0  3  0  0  0  0  0  0
  185.7290  174.6580  136.2960 C   0  0  0  0  0  1  0  0  0  0  0  0
  186.3090  175.8820  135.6120 C   0  0  0  0  0  2  0  0  0  0  0  0
  189.5080  175.1540  137.3600 O   0  0  0  0  0  1  0  0  0  0  0  0
  188.1320  175.1020  137.1320 C   0  0  0  0  0  2  0  0  0  0  0  0
  185.7110  177.6810  144.0280 C   0  0  0  0  0  2  0  0  0  0  0  0
  187.7270  177.5750  145.5450 C   0  0  0  0  0  0  0  0  0  0  0  0
  188.3350  177.7830  146.7520 C   0  0  0  0  0  0  0  0  0  0  0  0
  186.2940  178.6360  147.6740 C   0  0  0  0  0  3  0  0  0  0  0  0
  188.7290  177.0100  144.6020 C   0  0  0  0  0  3  0  0  0  0  0  0
  189.9360  176.9340  145.4300 N   0  0  0  0  0  0  0  0  0  0  0  0
  189.7140  177.3670  146.6340 C   0  0  0  0  0  3  0  0  0  0  0  0
  187.6510  178.3120  147.8440 C   0  0  0  0  0  2  0  0  0  0  0  0
  186.3780  177.8860  145.3500 C   0  0  0  0  0  0  0  0  0  0  0  0
  185.6610  178.4260  146.4320 C   0  0  0  0  0  3  0  0  0  0  0  0
  1 19  1  0  0  0  0
  1  2  1  0  0  0  0
  2  8  1  0  0  0  0
  3 18  1  0  0  0  0
  4 11  1  0  0  0  0
  4 10  2  0  0  0  0
  5 20  1  0  0  0  0
  5 21  1  0  0  0  0
  6  8  1  0  0  0  0
  7 14  2  0  0  0  0
  8 29  1  6  0  0  0
 10 17  1  0  0  0  0
 10 15  1  0  0  0  0
 11 13  1  0  0  0  0
 12 19  1  0  0  0  0
 13 15  2  0  0  0  0
 14 11  2  0  0  0  0
 15  1  1  0  0  0  0
 16  7  1  0  0  0  0
 17 21  1  0  0  0  0
 18 12  1  0  0  0  0
 19  9  1  6  0  0  0
 19  6  1  0  0  0  0
 20  3  2  0  0  0  0
 21 18  2  0  0  0  0
 22 23  1  0  0  0  0
 22 20  1  0  0  0  0
 24 26  1  1  0  0  0
 24  7  1  0  0  0  0
 24 28  1  0  0  0  0
 26 25  1  0  0  0  0
 28 27  1  0  0  0  0
 29 37  1  0  0  0  0
 30 31  1  0  0  0  0
 31 36  1  0  0  0  0
 32 36  1  0  0  0  0
 33 34  2  0  0  0  0
 33 30  1  0  0  0  0
 34 35  1  0  0  0  0
 35 31  2  0  0  0  0
 37 30  2  0  0  0  0
 37 38  1  0  0  0  0
 38 32  2  0  0  0  0
M  END
>  <MODEL>
1

>  <REMARK>
 VINA RESULT:      -7.0      0.000      0.000
  Name = 
  6 active torsions:
  status: ('A' for Active; 'I' for Inactive)
    1  A    between atoms: C_2  and  C_11
    2  A    between atoms: C_2  and  C_27
    3  A    between atoms: C_2  and  C_31
    4  A    between atoms: O_8  and  C_35
    5  A    between atoms: C_13  and  C_21
    6  A    between atoms: C_21  and  C_36
                            x       y       z     vdW  Elec       q    Type
                         _______ _______ _______ _____ _____    ______ ____

>  <TORSDO>
F 6

$$$$
=
 OpenBabel11042409583D

 38 43  0  0  1  0  0  0  0  0999 V2000
  184.8330  178.5320  138.3390 N   0  0  0  0  0  0  0  0  0  0  0  0
  184.0010  179.5470  138.9560 C   0  0  0  0  0  2  0  0  0  0  0  0
  185.4140  175.3000  135.3810 N   0  0  0  0  0  0  0  0  0  0  0  0
  188.4140  178.0500  138.7600 N   0  0  0  0  0  0  0  0  0  0  0  0
  187.9140  175.6000  135.5920 S   0  0  0  0  0  0  0  0  0  0  0  0
  182.6260  178.0470  137.6290 C   0  0  0  0  0  2  0  0  0  0  0  0
  189.3080  177.9220  142.2390 C   0  0  0  0  0  0  0  0  0  0  0  0
  182.5650  179.1600  138.6670 C   0  0  1  0  0  3  0  0  0  0  0  0
  184.0990  176.1800  138.2650 C   0  0  0  0  0  1  0  0  0  0  0  0
  187.3750  178.1830  138.0080 C   0  0  0  0  0  0  0  0  0  0  0  0
  187.8690  178.1120  140.0730 C   0  0  0  0  0  0  0  0  0  0  0  0
  184.4760  177.4950  136.1080 C   0  0  0  0  0  2  0  0  0  0  0  0
  186.4590  178.2990  140.0820 N   0  0  0  0  0  0  0  0  0  0  0  0
  188.5880  178.0180  141.1560 C   0  0  0  0  0  0  0  0  0  0  0  0
  186.1660  178.3190  138.8230 C   0  0  0  0  0  0  0  0  0  0  0  0
  189.9070  179.0570  142.7720 O   0  0  0  0  0  1  0  0  0  0  0  0
  187.4490  178.2140  136.5230 C   0  0  0  0  0  2  0  0  0  0  0  0
  185.6190  176.5740  135.8110 C   0  0  0  0  0  0  0  0  0  0  0  0
  184.0590  177.5470  137.5850 C   0  0  2  0  0  0  0  0  0  0  0  0
  186.5840  174.6420  135.2110 C   0  0  0  0  0  0  0  0  0  0  0  0
  186.9530  176.9250  135.9730 C   0  0  0  0  0  0  0  0  0  0  0  0
  186.6770  173.3200  134.7790 O   0  0  0  0  0  0  0  0  0  0  0  0
  186.2540  172.2400  135.5950 C   0  0  0  0  0  1  0  0  0  0  0  0
  189.4830  176.5900  142.8950 C   0  0  2  0  0  3  0  0  0  0  0  0
  187.7200  177.0790  144.5900 C   0  0  0  0  0  1  0  0  0  0  0  0
  188.1620  176.1320  143.4910 C   0  0  0  0  0  2  0  0  0  0  0  0
  191.6900  175.9590  143.5690 O   0  0  0  0  0  1  0  0  0  0  0  0
  190.5550  176.6640  143.9740 C   0  0  0  0  0  2  0  0  0  0  0  0
  181.9230  178.6500  139.9500 C   0  0  0  0  0  2  0  0  0  0  0  0
  180.3370  179.4870  141.7280 C   0  0  0  0  0  0  0  0  0  0  0  0
  179.3950  180.3700  142.1790 C   0  0  0  0  0  0  0  0  0  0  0  0
  179.4630  181.5600  140.1000 C   0  0  0  0  0  3  0  0  0  0  0  0
  180.6120  178.4980  142.8040 C   0  0  0  0  0  3  0  0  0  0  0  0
  179.7190  178.9420  143.8790 N   0  0  0  0  0  0  0  0  0  0  0  0
  179.0390  179.9910  143.5280 C   0  0  0  0  0  3  0  0  0  0  0  0
  178.9310  181.4230  141.3940 C   0  0  0  0  0  2  0  0  0  0  0  0
  180.8800  179.5990  140.4440 C   0  0  0  0  0  0  0  0  0  0  0  0
  180.4340  180.6540  139.6280 C   0  0  0  0  0  3  0  0  0  0  0  0
  1 15  1  0  0  0  0
  1  2  1  0  0  0  0
  3 18  1  0  0  0  0
  4 11  1  0  0  0  0
  5 21  1  0  0  0  0
  6  8  1  0  0  0  0
  7 16  1  0  0  0  0
  7 24  1  0  0  0  0
  8  2  1  0  0  0  0
  8 29  1  1  0  0  0
 10  4  2  0  0  0  0
 10 15  1  0  0  0  0
 11 13  1  0  0  0  0
 11 14  2  0  0  0  0
 12 19  1  0  0  0  0
 14  7  2  0  0  0  0
 15 13  2  0  0  0  0
 17 10  1  0  0  0  0
 18 21  2  0  0  0  0
 18 12  1  0  0  0  0
 19  6  1  0  0  0  0
 19  9  1  1  0  0  0
 19  1  1  0  0  0  0
 20  3  2  0  0  0  0
 20  5  1  0  0  0  0
 21 17  1  0  0  0  0
 22 20  1  0  0  0  0
 22 23  1  0  0  0  0
 24 26  1  1  0  0  0
 24 28  1  0  0  0  0
 26 25  1  0  0  0  0
 27 28  1  0  0  0  0
 29 37  1  0  0  0  0
 30 31  1  0  0  0  0
 30 33  1  0  0  0  0
 31 35  2  0  0  0  0
 32 36  1  0  0  0  0
 33 34  2  0  0  0  0
 35 34  1  0  0  0  0
 36 31  1  0  0  0  0
 37 30  2  0  0  0  0
 38 32  2  0  0  0  0
 38 37  1  0  0  0  0
M  END
>  <MODEL>
2

>  <REMARK>
 VINA RESULT:      -6.8      3.305      7.156
  Name = 
  6 active torsions:
  status: ('A' for Active; 'I' for Inactive)
    1  A    between atoms: C_2  and  C_11
    2  A    between atoms: C_2  and  C_27
    3  A    between atoms: C_2  and  C_31
    4  A    between atoms: O_8  and  C_35
    5  A    between atoms: C_13  and  C_21
    6  A    between atoms: C_21  and  C_36
                            x       y       z     vdW  Elec       q    Type
                         _______ _______ _______ _____ _____    ______ ____

>  <TORSDO>
F 6

$$$$
=
 OpenBabel11042409583D

 38 43  0  0  1  0  0  0  0  0999 V2000
  186.1480  177.9720  137.9900 N   0  0  0  0  0  0  0  0  0  0  0  0
  184.9440  178.6310  138.4610 C   0  0  0  0  0  2  0  0  0  0  0  0
  188.2550  175.4460  135.0390 N   0  0  0  0  0  0  0  0  0  0  0  0
  189.5440  178.4290  139.2120 N   0  0  0  0  0  0  0  0  0  0  0  0
  190.4540  176.3810  135.8550 S   0  0  0  0  0  0  0  0  0  0  0  0
  184.3790  177.0060  136.7470 C   0  0  0  0  0  2  0  0  0  0  0  0
  189.6960  178.0840  142.7860 C   0  0  0  0  0  0  0  0  0  0  0  0
  183.7790  177.9110  137.8150 C   0  0  1  0  0  3  0  0  0  0  0  0
  186.1720  175.5410  137.5830 C   0  0  0  0  0  1  0  0  0  0  0  0
  188.6900  178.3740  138.2460 C   0  0  0  0  0  0  0  0  0  0  0  0
  188.7450  178.1640  140.3600 C   0  0  0  0  0  0  0  0  0  0  0  0
  186.5820  177.1850  135.6730 C   0  0  0  0  0  2  0  0  0  0  0  0
  187.3730  177.9580  140.0480 N   0  0  0  0  0  0  0  0  0  0  0  0
  189.2200  178.1250  141.5740 C   0  0  0  0  0  0  0  0  0  0  0  0
  187.3540  178.0660  138.7600 C   0  0  0  0  0  0  0  0  0  0  0  0
  189.8100  179.2570  143.5230 O   0  0  0  0  0  1  0  0  0  0  0  0
  189.0580  178.6220  136.8270 C   0  0  0  0  0  2  0  0  0  0  0  0
  187.9810  176.6570  135.5910 C   0  0  0  0  0  0  0  0  0  0  0  0
  185.8720  176.9240  137.0090 C   0  0  2  0  0  0  0  0  0  0  0  0
  189.5750  175.1590  135.1060 C   0  0  0  0  0  0  0  0  0  0  0  0
  189.0880  177.3330  136.0880 C   0  0  0  0  0  0  0  0  0  0  0  0
  190.1410  173.9820  134.6180 O   0  0  0  0  0  0  0  0  0  0  0  0
  190.3390  172.8510  135.4520 C   0  0  0  0  0  1  0  0  0  0  0  0
  190.1160  176.7740  143.3720 C   0  0  2  0  0  3  0  0  0  0  0  0
  188.3430  177.1110  145.0940 C   0  0  0  0  0  1  0  0  0  0  0  0
  189.7970  176.7480  144.8570 C   0  0  0  0  0  2  0  0  0  0  0  0
  192.0560  175.5060  143.9640 O   0  0  0  0  0  1  0  0  0  0  0  0
  191.6040  176.5410  143.1440 C   0  0  0  0  0  2  0  0  0  0  0  0
  183.0650  177.0790  138.8710 C   0  0  0  0  0  2  0  0  0  0  0  0
  182.4730  178.2840  141.0100 C   0  0  0  0  0  0  0  0  0  0  0  0
  181.6410  179.0740  141.7540 C   0  0  0  0  0  0  0  0  0  0  0  0
  180.0930  179.2210  139.9300 C   0  0  0  0  0  3  0  0  0  0  0  0
  183.6620  177.9400  141.8360 C   0  0  0  0  0  3  0  0  0  0  0  0
  183.3790  178.6270  143.1000 N   0  0  0  0  0  0  0  0  0  0  0  0
  182.2470  179.2620  143.0520 C   0  0  0  0  0  3  0  0  0  0  0  0
  180.4380  179.5640  141.2490 C   0  0  0  0  0  2  0  0  0  0  0  0
  182.1520  177.9260  139.6970 C   0  0  0  0  0  0  0  0  0  0  0  0
  180.9470  178.4070  139.1570 C   0  0  0  0  0  3  0  0  0  0  0  0
  1  2  1  0  0  0  0
  1 15  1  0  0  0  0
  3 20  2  0  0  0  0
  3 18  1  0  0  0  0
  4 11  1  0  0  0  0
  5 21  1  0  0  0  0
  6 19  1  0  0  0  0
  6  8  1  0  0  0  0
  7 24  1  0  0  0  0
  7 16  1  0  0  0  0
  8  2  1  0  0  0  0
  8 29  1  1  0  0  0
 10 15  1  0  0  0  0
 10  4  2  0  0  0  0
 11 14  2  0  0  0  0
 12 19  1  0  0  0  0
 13 11  1  0  0  0  0
 14  7  2  0  0  0  0
 15 13  2  0  0  0  0
 17 10  1  0  0  0  0
 18 12  1  0  0  0  0
 18 21  2  0  0  0  0
 19  9  1  1  0  0  0
 19  1  1  0  0  0  0
 20  5  1  0  0  0  0
 21 17  1  0  0  0  0
 22 20  1  0  0  0  0
 22 23  1  0  0  0  0
 24 28  1  1  0  0  0
 24 26  1  0  0  0  0
 26 25  1  0  0  0  0
 28 27  1  0  0  0  0
 29 37  1  0  0  0  0
 30 31  1  0  0  0  0
 30 33  1  0  0  0  0
 31 35  2  0  0  0  0
 32 36  1  0  0  0  0
 33 34  2  0  0  0  0
 35 34  1  0  0  0  0
 36 31  1  0  0  0  0
 37 30  2  0  0  0  0
 38 37  1  0  0  0  0
 38 32  2  0  0  0  0
M  END
>  <MODEL>
3

>  <REMARK>
 VINA RESULT:      -6.7      3.466      7.578
  Name = 
  6 active torsions:
  status: ('A' for Active; 'I' for Inactive)
    1  A    between atoms: C_2  and  C_11
    2  A    between atoms: C_2  and  C_27
    3  A    between atoms: C_2  and  C_31
    4  A    between atoms: O_8  and  C_35
    5  A    between atoms: C_13  and  C_21
    6  A    between atoms: C_21  and  C_36
                            x       y       z     vdW  Elec       q    Type
                         _______ _______ _______ _____ _____    ______ ____

>  <TORSDO>
F 6

$$$$
=
 OpenBabel11042409583D

 38 43  0  0  1  0  0  0  0  0999 V2000
  186.6130  177.1030  136.4260 N   0  0  0  0  0  0  0  0  0  0  0  0
  185.3230  177.4390  135.8510 C   0  0  0  0  0  2  0  0  0  0  0  0
  190.4670  174.9490  136.2470 N   0  0  0  0  0  0  0  0  0  0  0  0
  188.2400  178.6680  139.2790 N   0  0  0  0  0  0  0  0  0  0  0  0
  191.4170  176.5730  137.9320 S   0  0  0  0  0  0  0  0  0  0  0  0
  186.2670  175.5210  134.6970 C   0  0  0  0  0  2  0  0  0  0  0  0
  186.0320  178.8250  142.1100 C   0  0  0  0  0  0  0  0  0  0  0  0
  184.9930  176.3400  134.8640 C   0  0  1  0  0  3  0  0  0  0  0  0
  187.2350  174.7520  136.8250 C   0  0  0  0  0  1  0  0  0  0  0  0
  188.2590  178.2500  138.0580 C   0  0  0  0  0  0  0  0  0  0  0  0
  186.9290  178.3270  139.7120 C   0  0  0  0  0  0  0  0  0  0  0  0
  188.5760  176.1960  135.2010 C   0  0  0  0  0  2  0  0  0  0  0  0
  186.1530  177.6970  138.7000 N   0  0  0  0  0  0  0  0  0  0  0  0
  186.4790  178.5770  140.9110 C   0  0  0  0  0  0  0  0  0  0  0  0
  186.9770  177.6360  137.7070 C   0  0  0  0  0  0  0  0  0  0  0  0
  185.4660  180.0620  142.3930 O   0  0  0  0  0  1  0  0  0  0  0  0
  189.4360  178.4170  137.1640 C   0  0  0  0  0  2  0  0  0  0  0  0
  189.7330  176.0890  136.1460 C   0  0  0  0  0  0  0  0  0  0  0  0
  187.2040  175.9070  135.8280 C   0  0  2  0  0  0  0  0  0  0  0  0
  191.4350  175.0660  137.1850 C   0  0  0  0  0  0  0  0  0  0  0  0
  190.1250  177.1110  137.0000 C   0  0  0  0  0  0  0  0  0  0  0  0
  192.3370  174.0520  137.5030 O   0  0  0  0  0  0  0  0  0  0  0  0
  193.7370  174.2820  137.5230 C   0  0  0  0  0  1  0  0  0  0  0  0
  186.1340  177.7750  143.1690 C   0  0  2  0  0  3  0  0  0  0  0  0
  186.3010  178.2190  145.6180 C   0  0  0  0  0  1  0  0  0  0  0  0
  185.3810  178.2210  144.4110 C   0  0  0  0  0  2  0  0  0  0  0  0
  187.9180  176.1810  143.1680 O   0  0  0  0  0  1  0  0  0  0  0  0
  187.5940  177.4960  143.5040 C   0  0  0  0  0  2  0  0  0  0  0  0
  183.8820  175.4740  135.4420 C   0  0  0  0  0  2  0  0  0  0  0  0
  182.4970  176.3170  137.3780 C   0  0  0  0  0  0  0  0  0  0  0  0
  181.5020  177.1020  137.8920 C   0  0  0  0  0  0  0  0  0  0  0  0
  180.9980  177.9540  135.7100 C   0  0  0  0  0  3  0  0  0  0  0  0
  183.1250  175.5590  138.4930 C   0  0  0  0  0  3  0  0  0  0  0  0
  182.3630  176.0190  139.6580 N   0  0  0  0  0  0  0  0  0  0  0  0
  181.4540  176.8830  139.3200 C   0  0  0  0  0  3  0  0  0  0  0  0
  180.7280  177.9360  137.0890 C   0  0  0  0  0  2  0  0  0  0  0  0
  182.7840  176.3140  136.0090 C   0  0  0  0  0  0  0  0  0  0  0  0
  182.0220  177.1480  135.1730 C   0  0  0  0  0  3  0  0  0  0  0  0
  1 15  1  0  0  0  0
  2  1  1  0  0  0  0
  3 20  2  0  0  0  0
  4 11  1  0  0  0  0
  6  8  1  0  0  0  0
  6 19  1  0  0  0  0
  7 16  1  0  0  0  0
  7 24  1  0  0  0  0
  8 29  1  1  0  0  0
  8  2  1  0  0  0  0
 10  4  2  0  0  0  0
 11 14  2  0  0  0  0
 12 19  1  0  0  0  0
 12 18  1  0  0  0  0
 13 11  1  0  0  0  0
 14  7  2  0  0  0  0
 15 10  1  0  0  0  0
 15 13  2  0  0  0  0
 17 10  1  0  0  0  0
 18  3  1  0  0  0  0
 18 21  2  0  0  0  0
 19  1  1  0  0  0  0
 19  9  1  1  0  0  0
 20 22  1  0  0  0  0
 20  5  1  0  0  0  0
 21 17  1  0  0  0  0
 21  5  1  0  0  0  0
 22 23  1  0  0  0  0
 24 28  1  1  0  0  0
 24 26  1  0  0  0  0
 26 25  1  0  0  0  0
 27 28  1  0  0  0  0
 29 37  1  0  0  0  0
 30 31  1  0  0  0  0
 30 33  1  0  0  0  0
 31 35  2  0  0  0  0
 32 36  1  0  0  0  0
 33 34  2  0  0  0  0
 35 34  1  0  0  0  0
 36 31  1  0  0  0  0
 37 30  2  0  0  0  0
 38 32  2  0  0  0  0
 38 37  1  0  0  0  0
M  END
>  <MODEL>
4

>  <REMARK>
 VINA RESULT:      -6.7      3.402      9.030
  Name = 
  6 active torsions:
  status: ('A' for Active; 'I' for Inactive)
    1  A    between atoms: C_2  and  C_11
    2  A    between atoms: C_2  and  C_27
    3  A    between atoms: C_2  and  C_31
    4  A    between atoms: O_8  and  C_35
    5  A    between atoms: C_13  and  C_21
    6  A    between atoms: C_21  and  C_36
                            x       y       z     vdW  Elec       q    Type
                         _______ _______ _______ _____ _____    ______ ____

>  <TORSDO>
F 6

$$$$
=
 OpenBabel11042409583D

 38 43  0  0  1  0  0  0  0  0999 V2000
  187.2960  177.0670  137.1870 N   0  0  0  0  0  0  0  0  0  0  0  0
  186.1400  177.9410  137.2670 C   0  0  0  0  0  2  0  0  0  0  0  0
  189.5130  173.7780  135.2390 N   0  0  0  0  0  0  0  0  0  0  0  0
  190.4260  177.3660  139.0180 N   0  0  0  0  0  0  0  0  0  0  0  0
  191.6340  174.5990  136.3380 S   0  0  0  0  0  0  0  0  0  0  0  0
  185.6690  176.0820  135.7760 C   0  0  0  0  0  2  0  0  0  0  0  0
  189.8400  177.7250  142.5450 C   0  0  0  0  0  0  0  0  0  0  0  0
  185.0230  177.2450  136.5180 C   0  0  1  0  0  3  0  0  0  0  0  0
  187.0240  174.6170  137.2180 C   0  0  0  0  0  1  0  0  0  0  0  0
  189.7740  177.2180  137.9140 C   0  0  0  0  0  0  0  0  0  0  0  0
  189.3930  177.4280  139.9940 C   0  0  0  0  0  0  0  0  0  0  0  0
  188.0380  175.7890  135.1890 C   0  0  0  0  0  2  0  0  0  0  0  0
  188.0900  177.3230  139.4330 N   0  0  0  0  0  0  0  0  0  0  0  0
  189.6160  177.5780  141.2690 C   0  0  0  0  0  0  0  0  0  0  0  0
  188.3340  177.1740  138.1720 C   0  0  0  0  0  0  0  0  0  0  0  0
  189.9900  179.0010  143.0760 O   0  0  0  0  0  1  0  0  0  0  0  0
  190.4390  177.1340  136.5860 C   0  0  0  0  0  2  0  0  0  0  0  0
  189.3290  175.0990  135.5030 C   0  0  0  0  0  0  0  0  0  0  0  0
  187.0550  175.8830  136.3650 C   0  0  2  0  0  0  0  0  0  0  0  0
  190.7370  173.3610  135.6380 C   0  0  0  0  0  0  0  0  0  0  0  0
  190.4110  175.7280  136.1040 C   0  0  0  0  0  0  0  0  0  0  0  0
  191.1980  172.0530  135.4920 O   0  0  0  0  0  0  0  0  0  0  0  0
  192.5800  171.7640  135.3530 C   0  0  0  0  0  1  0  0  0  0  0  0
  189.9350  176.5190  143.4230 C   0  0  2  0  0  3  0  0  0  0  0  0
  187.6730  176.8910  144.4080 C   0  0  0  0  0  1  0  0  0  0  0  0
  189.1550  176.7530  144.7060 C   0  0  0  0  0  2  0  0  0  0  0  0
  191.6810  176.5480  145.0590 O   0  0  0  0  0  1  0  0  0  0  0  0
  191.3910  176.2020  143.7380 C   0  0  0  0  0  2  0  0  0  0  0  0
  184.0020  176.7280  137.5220 C   0  0  0  0  0  2  0  0  0  0  0  0
  182.5440  178.1600  139.0060 C   0  0  0  0  0  0  0  0  0  0  0  0
  181.5470  179.0780  139.1850 C   0  0  0  0  0  0  0  0  0  0  0  0
  181.1800  179.1940  136.8200 C   0  0  0  0  0  3  0  0  0  0  0  0
  183.0940  177.7920  140.3380 C   0  0  0  0  0  3  0  0  0  0  0  0
  182.2860  178.6080  141.2500 N   0  0  0  0  0  0  0  0  0  0  0  0
  181.4210  179.3280  140.6030 C   0  0  0  0  0  3  0  0  0  0  0  0
  180.8390  179.6210  138.1150 C   0  0  0  0  0  2  0  0  0  0  0  0
  182.9010  177.7160  137.7280 C   0  0  0  0  0  0  0  0  0  0  0  0
  182.2070  178.2480  136.6270 C   0  0  0  0  0  3  0  0  0  0  0  0
  1  2  1  0  0  0  0
  1 15  1  0  0  0  0
  3 18  1  0  0  0  0
  3 20  2  0  0  0  0
  4 11  1  0  0  0  0
  6 19  1  0  0  0  0
  6  8  1  0  0  0  0
  7 16  1  0  0  0  0
  7 24  1  0  0  0  0
  8  2  1  0  0  0  0
  8 29  1  1  0  0  0
 10 15  1  0  0  0  0
 10  4  2  0  0  0  0
 11 14  2  0  0  0  0
 12 18  1  0  0  0  0
 12 19  1  0  0  0  0
 13 11  1  0  0  0  0
 14  7  2  0  0  0  0
 15 13  2  0  0  0  0
 17 10  1  0  0  0  0
 18 21  2  0  0  0  0
 19  1  1  0  0  0  0
 19  9  1  1  0  0  0
 20  5  1  0  0  0  0
 21  5  1  0  0  0  0
 21 17  1  0  0  0  0
 22 20  1  0  0  0  0
 23 22  1  0  0  0  0
 24 28  1  1  0  0  0
 24 26  1  0  0  0  0
 25 26  1  0  0  0  0
 28 27  1  0  0  0  0
 29 37  1  0  0  0  0
 30 31  1  0  0  0  0
 30 33  1  0  0  0  0
 31 35  2  0  0  0  0
 32 36  1  0  0  0  0
 33 34  2  0  0  0  0
 35 34  1  0  0  0  0
 36 31  1  0  0  0  0
 37 30  2  0  0  0  0
 38 32  2  0  0  0  0
 38 37  1  0  0  0  0
M  END
>  <MODEL>
5

>  <REMARK>
 VINA RESULT:      -6.6      3.820      8.762
  Name = 
  6 active torsions:
  status: ('A' for Active; 'I' for Inactive)
    1  A    between atoms: C_2  and  C_11
    2  A    between atoms: C_2  and  C_27
    3  A    between atoms: C_2  and  C_31
    4  A    between atoms: O_8  and  C_35
    5  A    between atoms: C_13  and  C_21
    6  A    between atoms: C_21  and  C_36
                            x       y       z     vdW  Elec       q    Type
                         _______ _______ _______ _____ _____    ______ ____

>  <TORSDO>
F 6

$$$$
=
 OpenBabel11042409583D

 38 43  0  0  1  0  0  0  0  0999 V2000
  187.6040  177.1970  137.2110 N   0  0  0  0  0  0  0  0  0  0  0  0
  186.4860  178.1210  137.2500 C   0  0  0  0  0  2  0  0  0  0  0  0
  189.7500  173.8210  135.3330 N   0  0  0  0  0  0  0  0  0  0  0  0
  190.6680  177.3480  139.1670 N   0  0  0  0  0  0  0  0  0  0  0  0
  191.8590  174.5420  136.5210 S   0  0  0  0  0  0  0  0  0  0  0  0
  185.9930  176.2910  135.7300 C   0  0  0  0  0  2  0  0  0  0  0  0
  189.9570  177.7190  142.6700 C   0  0  0  0  0  0  0  0  0  0  0  0
  185.3700  177.4790  136.4530 C   0  0  1  0  0  3  0  0  0  0  0  0
  187.2230  174.7620  137.2170 C   0  0  0  0  0  1  0  0  0  0  0  0
  190.0550  177.2340  138.0370 C   0  0  0  0  0  0  0  0  0  0  0  0
  189.6000  177.4530  140.1010 C   0  0  0  0  0  0  0  0  0  0  0  0
  188.3680  175.8960  135.2360 C   0  0  0  0  0  2  0  0  0  0  0  0
  188.3170  177.4080  139.4880 N   0  0  0  0  0  0  0  0  0  0  0  0
  189.7780  177.5870  141.3860 C   0  0  0  0  0  0  0  0  0  0  0  0
  188.6050  177.2540  138.2380 C   0  0  0  0  0  0  0  0  0  0  0  0
  190.1420  178.9840  143.2150 O   0  0  0  0  0  1  0  0  0  0  0  0
  190.7680  177.1270  136.7370 C   0  0  0  0  0  2  0  0  0  0  0  0
  189.6140  175.1480  135.5980 C   0  0  0  0  0  0  0  0  0  0  0  0
  187.3440  176.0290  136.3730 C   0  0  2  0  0  0  0  0  0  0  0  0
  190.9370  173.3480  135.7780 C   0  0  0  0  0  0  0  0  0  0  0  0
  190.6980  175.7260  136.2460 C   0  0  0  0  0  0  0  0  0  0  0  0
  191.3450  172.0210  135.6440 O   0  0  0  0  0  0  0  0  0  0  0  0
  192.6900  171.6850  135.3440 C   0  0  0  0  0  1  0  0  0  0  0  0
  189.9630  176.5060  143.5440 C   0  0  2  0  0  3  0  0  0  0  0  0
  187.6670  177.0050  144.3820 C   0  0  0  0  0  1  0  0  0  0  0  0
  189.1100  176.7550  144.7770 C   0  0  0  0  0  2  0  0  0  0  0  0
  191.5900  176.4400  145.2970 O   0  0  0  0  0  1  0  0  0  0  0  0
  191.3870  176.1470  143.9480 C   0  0  0  0  0  2  0  0  0  0  0  0
  184.2870  177.0040  137.4120 C   0  0  0  0  0  2  0  0  0  0  0  0
  182.1940  178.1930  136.6510 C   0  0  0  0  0  0  0  0  0  0  0  0
  181.2160  179.1330  136.8230 C   0  0  1  0  0  3  0  0  0  0  0  0
  182.2160  179.8480  138.8800 C   0  0  0  0  0  3  0  0  0  0  0  0
  181.9260  177.4580  135.3860 C   0  0  0  0  0  3  0  0  0  0  0  0
  180.7030  178.1030  134.8980 N   0  0  0  0  0  0  0  0  0  0  0  0
  180.3070  179.0400  135.7040 C   0  0  0  0  0  3  0  0  0  0  0  0
  181.1920  179.9830  137.9270 C   0  0  0  0  0  3  0  0  0  0  0  0
  183.2260  178.0410  137.5820 C   0  0  0  0  0  0  0  0  0  0  0  0
  183.2270  178.8810  138.7100 C   0  0  0  0  0  3  0  0  0  0  0  0
  1  2  1  0  0  0  0
  1 15  1  0  0  0  0
  3 18  1  0  0  0  0
  3 20  2  0  0  0  0
  4 11  1  0  0  0  0
  6 19  1  0  0  0  0
  6  8  1  0  0  0  0
  7 16  1  0  0  0  0
  7 24  1  0  0  0  0
  8  2  1  0  0  0  0
  8 29  1  1  0  0  0
 10 15  1  0  0  0  0
 10  4  2  0  0  0  0
 11 14  2  0  0  0  0
 12 18  1  0  0  0  0
 12 19  1  0  0  0  0
 13 11  1  0  0  0  0
 14  7  2  0  0  0  0
 15 13  2  0  0  0  0
 17 10  1  0  0  0  0
 18 21  2  0  0  0  0
 19  1  1  0  0  0  0
 19  9  1  1  0  0  0
 20  5  1  0  0  0  0
 21  5  1  0  0  0  0
 21 17  1  0  0  0  0
 22 20  1  0  0  0  0
 23 22  1  0  0  0  0
 24 28  1  1  0  0  0
 24 26  1  0  0  0  0
 25 26  1  0  0  0  0
 28 27  1  0  0  0  0
 29 37  1  0  0  0  0
 30 31  1  0  0  0  0
 30 37  1  0  0  0  0
 31 35  1  1  0  0  0
 31 36  1  0  0  0  0
 33 30  2  0  0  0  0
 34 33  1  0  0  0  0
 34 35  2  0  0  0  0
 36 32  2  0  0  0  0
 37 38  2  0  0  0  0
 38 32  1  0  0  0  0
M  END
>  <MODEL>
6

>  <REMARK>
 VINA RESULT:      -6.4      4.080      9.286
  Name = 
  6 active torsions:
  status: ('A' for Active; 'I' for Inactive)
    1  A    between atoms: C_2  and  C_11
    2  A    between atoms: C_2  and  C_27
    3  A    between atoms: C_2  and  C_31
    4  A    between atoms: O_8  and  C_35
    5  A    between atoms: C_13  and  C_21
    6  A    between atoms: C_21  and  C_36
                            x       y       z     vdW  Elec       q    Type
                         _______ _______ _______ _____ _____    ______ ____

>  <TORSDO>
F 6

$$$$
=
 OpenBabel11042409583D

 38 43  0  0  1  0  0  0  0  0999 V2000
  186.1250  177.9880  138.0850 N   0  0  0  0  0  0  0  0  0  0  0  0
  184.9040  178.6220  138.5450 C   0  0  0  0  0  2  0  0  0  0  0  0
  188.3350  175.5830  135.1080 N   0  0  0  0  0  0  0  0  0  0  0  0
  189.4830  178.4290  139.4170 N   0  0  0  0  0  0  0  0  0  0  0  0
  190.5030  176.5070  136.0170 S   0  0  0  0  0  0  0  0  0  0  0  0
  184.4000  177.0520  136.7600 C   0  0  0  0  0  2  0  0  0  0  0  0
  189.5400  177.9610  142.9790 C   0  0  0  0  0  0  0  0  0  0  0  0
  183.7630  177.9150  137.8420 C   0  0  1  0  0  3  0  0  0  0  0  0
  186.1820  175.5730  137.5950 C   0  0  0  0  0  1  0  0  0  0  0  0
  188.6560  178.4010  138.4260 C   0  0  0  0  0  0  0  0  0  0  0  0
  188.6550  178.1180  140.5320 C   0  0  0  0  0  0  0  0  0  0  0  0
  186.6300  177.2860  135.7550 C   0  0  0  0  0  2  0  0  0  0  0  0
  187.2940  177.9130  140.1750 N   0  0  0  0  0  0  0  0  0  0  0  0
  189.0960  178.0410  141.7560 C   0  0  0  0  0  0  0  0  0  0  0  0
  187.3090  178.0650  138.8910 C   0  0  0  0  0  0  0  0  0  0  0  0
  189.6220  179.1090  143.7590 O   0  0  0  0  0  1  0  0  0  0  0  0
  189.0600  178.7020  137.0270 C   0  0  0  0  0  2  0  0  0  0  0  0
  188.0360  176.7730  135.6940 C   0  0  0  0  0  0  0  0  0  0  0  0
  185.8860  176.9730  137.0610 C   0  0  2  0  0  0  0  0  0  0  0  0
  189.6560  175.3040  135.2020 C   0  0  0  0  0  0  0  0  0  0  0  0
  189.1220  177.4390  136.2450 C   0  0  0  0  0  0  0  0  0  0  0  0
  190.2450  174.1490  134.6890 O   0  0  0  0  0  0  0  0  0  0  0  0
  190.8600  173.1910  135.5350 C   0  0  0  0  0  1  0  0  0  0  0  0
  189.9550  176.6360  143.5310 C   0  0  2  0  0  3  0  0  0  0  0  0
  188.9060  177.0360  145.7580 C   0  0  0  0  0  1  0  0  0  0  0  0
  190.2030  176.7540  145.0250 C   0  0  0  0  0  2  0  0  0  0  0  0
  192.0630  175.5240  143.7410 O   0  0  0  0  0  1  0  0  0  0  0  0
  191.2060  176.1310  142.8230 C   0  0  0  0  0  2  0  0  0  0  0  0
  183.0270  177.0410  138.8490 C   0  0  0  0  0  2  0  0  0  0  0  0
  181.6600  178.3730  140.5020 C   0  0  0  0  0  0  0  0  0  0  0  0
  181.5100  179.0020  141.7070 C   0  0  0  0  0  0  0  0  0  0  0  0
  183.7530  178.4280  142.3260 C   0  0  0  0  0  3  0  0  0  0  0  0
  180.3880  178.4980  139.7420 C   0  0  0  0  0  3  0  0  0  0  0  0
  179.5410  179.2610  140.6640 N   0  0  0  0  0  0  0  0  0  0  0  0
  180.1710  179.5420  141.7640 C   0  0  0  0  0  3  0  0  0  0  0  0
  182.5350  179.0520  142.6490 C   0  0  0  0  0  2  0  0  0  0  0  0
  182.8610  177.7470  140.1550 C   0  0  0  0  0  0  0  0  0  0  0  0
  183.9150  177.7770  141.0860 C   0  0  0  0  0  3  0  0  0  0  0  0
  1  2  1  0  0  0  0
  1 15  1  0  0  0  0
  3 20  2  0  0  0  0
  3 18  1  0  0  0  0
  4 11  1  0  0  0  0
  5 21  1  0  0  0  0
  6 19  1  0  0  0  0
  6  8  1  0  0  0  0
  7 24  1  0  0  0  0
  7 16  1  0  0  0  0
  8  2  1  0  0  0  0
  8 29  1  1  0  0  0
 10 15  1  0  0  0  0
 10  4  2  0  0  0  0
 11 14  2  0  0  0  0
 12 19  1  0  0  0  0
 13 11  1  0  0  0  0
 14  7  2  0  0  0  0
 15 13  2  0  0  0  0
 17 10  1  0  0  0  0
 18 12  1  0  0  0  0
 18 21  2  0  0  0  0
 19  9  1  1  0  0  0
 19  1  1  0  0  0  0
 20  5  1  0  0  0  0
 21 17  1  0  0  0  0
 22 20  1  0  0  0  0
 22 23  1  0  0  0  0
 24 28  1  6  0  0  0
 24 26  1  0  0  0  0
 26 25  1  0  0  0  0
 28 27  1  0  0  0  0
 29 37  1  0  0  0  0
 30 31  1  0  0  0  0
 31 35  2  0  0  0  0
 31 36  1  0  0  0  0
 32 36  1  0  0  0  0
 33 30  1  0  0  0  0
 33 34  2  0  0  0  0
 34 35  1  0  0  0  0
 37 30  2  0  0  0  0
 37 38  1  0  0  0  0
 38 32  2  0  0  0  0
M  END
>  <MODEL>
7

>  <REMARK>
 VINA RESULT:      -6.3      3.386      7.701
  Name = 
  6 active torsions:
  status: ('A' for Active; 'I' for Inactive)
    1  A    between atoms: C_2  and  C_11
    2  A    between atoms: C_2  and  C_27
    3  A    between atoms: C_2  and  C_31
    4  A    between atoms: O_8  and  C_35
    5  A    between atoms: C_13  and  C_21
    6  A    between atoms: C_21  and  C_36
                            x       y       z     vdW  Elec       q    Type
                         _______ _______ _______ _____ _____    ______ ____

>  <TORSDO>
F 6

$$$$
=
 OpenBabel11042409583D

 38 43  0  0  1  0  0  0  0  0999 V2000
  189.5500  176.2280  136.8790 N   0  0  0  0  0  0  0  0  0  0  0  0
  188.3680  177.0520  136.7090 C   0  0  0  0  0  2  0  0  0  0  0  0
  192.1260  172.8710  135.6030 N   0  0  0  0  0  0  0  0  0  0  0  0
  192.3760  176.8430  139.0880 N   0  0  0  0  0  0  0  0  0  0  0  0
  194.0410  173.8900  136.8970 S   0  0  0  0  0  0  0  0  0  0  0  0
  188.1740  175.0390  135.3630 C   0  0  0  0  0  2  0  0  0  0  0  0
  191.2800  177.5120  142.4450 C   0  0  0  0  0  0  0  0  0  0  0  0
  187.3920  176.2370  135.8860 C   0  0  1  0  0  3  0  0  0  0  0  0
  189.3540  173.7830  137.1210 C   0  0  0  0  0  1  0  0  0  0  0  0
  191.8930  176.5600  137.9250 C   0  0  0  0  0  0  0  0  0  0  0  0
  191.2120  176.9520  139.8990 C   0  0  0  0  0  0  0  0  0  0  0  0
  190.6100  174.7990  135.1440 C   0  0  0  0  0  2  0  0  0  0  0  0
  190.0060  176.7340  139.1760 N   0  0  0  0  0  0  0  0  0  0  0  0
  191.2450  177.2330  141.1720 C   0  0  0  0  0  0  0  0  0  0  0  0
  190.4330  176.4760  137.9830 C   0  0  0  0  0  0  0  0  0  0  0  0
  191.3120  178.8390  142.8590 O   0  0  0  0  0  1  0  0  0  0  0  0
  192.7430  176.3800  136.7180 C   0  0  0  0  0  2  0  0  0  0  0  0
  191.8640  174.2020  135.7030 C   0  0  0  0  0  0  0  0  0  0  0  0
  189.4670  174.9610  136.1560 C   0  0  2  0  0  0  0  0  0  0  0  0
  193.2930  172.5500  136.2080 C   0  0  0  0  0  0  0  0  0  0  0  0
  192.8290  174.9350  136.3820 C   0  0  0  0  0  0  0  0  0  0  0  0
  193.8110  171.2570  136.2620 O   0  0  0  0  0  0  0  0  0  0  0  0
  194.7330  170.8670  137.2670 C   0  0  0  0  0  1  0  0  0  0  0  0
  191.2860  176.4020  143.4450 C   0  0  2  0  0  3  0  0  0  0  0  0
  188.7950  176.3730  143.5830 C   0  0  0  0  0  1  0  0  0  0  0  0
  190.0360  175.5530  143.2810 C   0  0  0  0  0  2  0  0  0  0  0  0
  191.9670  176.0280  145.7080 O   0  0  0  0  0  1  0  0  0  0  0  0
  191.3670  176.9600  144.8600 C   0  0  0  0  0  2  0  0  0  0  0  0
  186.2550  175.7730  136.7850 C   0  0  0  0  0  2  0  0  0  0  0  0
  183.7410  175.9540  136.9380 C   0  0  0  0  0  0  0  0  0  0  0  0
  182.5370  176.3940  136.4620 C   0  0  0  0  0  0  0  0  0  0  0  0
  183.6150  177.4370  134.5940 C   0  0  0  0  0  3  0  0  0  0  0  0
  183.5050  175.2000  138.1970 C   0  0  0  0  0  3  0  0  0  0  0  0
  182.0490  175.2800  138.3470 N   0  0  0  0  0  0  0  0  0  0  0  0
  181.5080  175.9490  137.3750 C   0  0  0  0  0  3  0  0  0  0  0  0
  182.4310  177.1400  135.2900 C   0  0  0  0  0  2  0  0  0  0  0  0
  184.9330  176.2330  136.2620 C   0  0  0  0  0  0  0  0  0  0  0  0
  184.8600  176.9870  135.0780 C   0  0  0  0  0  3  0  0  0  0  0  0
  1 15  1  0  0  0  0
  2  1  1  0  0  0  0
  3 18  1  0  0  0  0
  3 20  2  0  0  0  0
  4 11  1  0  0  0  0
  6  8  1  0  0  0  0
  6 19  1  0  0  0  0
  7 16  1  0  0  0  0
  7 24  1  0  0  0  0
  8  2  1  0  0  0  0
  8 29  1  1  0  0  0
 10 15  1  0  0  0  0
 10  4  2  0  0  0  0
 11 14  2  0  0  0  0
 12 18  1  0  0  0  0
 12 19  1  0  0  0  0
 13 11  1  0  0  0  0
 14  7  2  0  0  0  0
 15 13  2  0  0  0  0
 17 10  1  0  0  0  0
 18 21  2  0  0  0  0
 19  1  1  0  0  0  0
 19  9  1  1  0  0  0
 20 22  1  0  0  0  0
 20  5  1  0  0  0  0
 21 17  1  0  0  0  0
 21  5  1  0  0  0  0
 22 23  1  0  0  0  0
 24 26  1  1  0  0  0
 24 28  1  0  0  0  0
 26 25  1  0  0  0  0
 28 27  1  0  0  0  0
 30 33  1  0  0  0  0
 31 30  1  0  0  0  0
 31 35  2  0  0  0  0
 32 38  2  0  0  0  0
 32 36  1  0  0  0  0
 33 34  2  0  0  0  0
 35 34  1  0  0  0  0
 36 31  1  0  0  0  0
 37 29  1  0  0  0  0
 37 30  2  0  0  0  0
 38 37  1  0  0  0  0
M  END
>  <MODEL>
8

>  <REMARK>
 VINA RESULT:      -6.3      5.070     10.287
  Name = 
  6 active torsions:
  status: ('A' for Active; 'I' for Inactive)
    1  A    between atoms: C_2  and  C_11
    2  A    between atoms: C_2  and  C_27
    3  A    between atoms: C_2  and  C_31
    4  A    between atoms: O_8  and  C_35
    5  A    between atoms: C_13  and  C_21
    6  A    between atoms: C_21  and  C_36
                            x       y       z     vdW  Elec       q    Type
                         _______ _______ _______ _____ _____    ______ ____

>  <TORSDO>
F 6

$$$$
=
 OpenBabel11042409583D

 38 43  0  0  1  0  0  0  0  0999 V2000
  181.7710  178.4740  140.4480 N   0  0  0  0  0  0  0  0  0  0  0  0
  181.9260  178.9530  141.8090 C   0  0  0  0  0  2  0  0  0  0  0  0
  182.5270  175.4480  137.3180 N   0  0  0  0  0  0  0  0  0  0  0  0
  179.5480  179.7820  137.8820 N   0  0  0  0  0  0  0  0  0  0  0  0
  180.5590  176.3490  136.0160 S   0  0  0  0  0  0  0  0  0  0  0  0
  183.5000  177.1530  141.3830 C   0  0  0  0  0  2  0  0  0  0  0  0
  179.9260  183.3380  137.5240 C   0  0  0  0  0  0  0  0  0  0  0  0
  183.1420  178.2510  142.3760 C   0  0  1  0  0  3  0  0  0  0  0  0
  183.7450  177.9530  139.0670 C   0  0  0  0  0  1  0  0  0  0  0  0
  180.0240  178.7990  138.5680 C   0  0  0  0  0  0  0  0  0  0  0  0
  180.2730  180.9000  138.3820 C   0  0  0  0  0  0  0  0  0  0  0  0
  182.0610  176.1310  139.6720 C   0  0  0  0  0  2  0  0  0  0  0  0
  181.1980  180.5530  139.4050 N   0  0  0  0  0  0  0  0  0  0  0  0
  180.0990  182.1200  137.9540 C   0  0  0  0  0  0  0  0  0  0  0  0
  181.0540  179.2720  139.4950 C   0  0  0  0  0  0  0  0  0  0  0  0
  178.9310  184.1320  138.0810 O   0  0  0  0  0  1  0  0  0  0  0  0
  179.5420  177.4000  138.4190 C   0  0  0  0  0  2  0  0  0  0  0  0
  181.7070  176.0520  138.2190 C   0  0  0  0  0  0  0  0  0  0  0  0
  182.7420  177.4400  140.0980 C   0  0  2  0  0  0  0  0  0  0  0  0
  182.0250  175.5260  136.0640 C   0  0  0  0  0  0  0  0  0  0  0  0
  180.5520  176.6020  137.6780 C   0  0  0  0  0  0  0  0  0  0  0  0
  182.6550  174.9940  134.9400 O   0  0  0  0  0  0  0  0  0  0  0  0
  183.6550  173.9930  135.0530 C   0  0  0  0  0  1  0  0  0  0  0  0
  180.8020  183.8690  136.4350 C   0  0  2  0  0  3  0  0  0  0  0  0
  182.4750  184.9920  137.9060 C   0  0  0  0  0  1  0  0  0  0  0  0
  181.3990  185.2010  136.8560 C   0  0  0  0  0  2  0  0  0  0  0  0
  179.6810  182.7740  134.6260 O   0  0  0  0  0  1  0  0  0  0  0  0
  180.0090  184.0280  135.1430 C   0  0  0  0  0  2  0  0  0  0  0  0
  184.2840  179.2530  142.4880 C   0  0  0  0  0  2  0  0  0  0  0  0
  186.6550  178.3860  142.4920 C   0  0  0  0  0  0  0  0  0  0  0  0
  187.7380  177.8500  143.1340 C   0  0  1  0  0  3  0  0  0  0  0  0
  186.5310  177.8000  145.2040 C   0  0  0  0  0  3  0  0  0  0  0  0
  187.0090  178.5980  141.0640 C   0  0  0  0  0  3  0  0  0  0  0  0
  188.3930  178.1190  141.0050 N   0  0  0  0  0  0  0  0  0  0  0  0
  188.8000  177.7010  142.1650 C   0  0  0  0  0  3  0  0  0  0  0  0
  187.7150  177.5420  144.4920 C   0  0  0  0  0  3  0  0  0  0  0  0
  185.4640  178.6500  143.1760 C   0  0  0  0  0  0  0  0  0  0  0  0
  185.4110  178.3530  144.5490 C   0  0  0  0  0  3  0  0  0  0  0  0
  1  2  1  0  0  0  0
  2  8  1  0  0  0  0
  3 18  1  0  0  0  0
  4 11  1  0  0  0  0
  4 10  2  0  0  0  0
  5 20  1  0  0  0  0
  5 21  1  0  0  0  0
  6  8  1  0  0  0  0
  7 14  2  0  0  0  0
  7 16  1  0  0  0  0
  8 29  1  6  0  0  0
 10 15  1  0  0  0  0
 11 13  1  0  0  0  0
 12 19  1  0  0  0  0
 13 15  2  0  0  0  0
 14 11  2  0  0  0  0
 15  1  1  0  0  0  0
 17 10  1  0  0  0  0
 18 12  1  0  0  0  0
 19  9  1  6  0  0  0
 19  1  1  0  0  0  0
 19  6  1  0  0  0  0
 20  3  2  0  0  0  0
 21 18  2  0  0  0  0
 21 17  1  0  0  0  0
 22 23  1  0  0  0  0
 22 20  1  0  0  0  0
 24 28  1  6  0  0  0
 24 26  1  0  0  0  0
 24  7  1  0  0  0  0
 26 25  1  0  0  0  0
 27 28  1  0  0  0  0
 29 37  1  0  0  0  0
 30 31  1  0  0  0  0
 30 37  1  0  0  0  0
 31 35  1  1  0  0  0
 31 36  1  0  0  0  0
 33 30  2  0  0  0  0
 34 33  1  0  0  0  0
 34 35  2  0  0  0  0
 36 32  2  0  0  0  0
 37 38  2  0  0  0  0
 38 32  1  0  0  0  0
M  END
>  <MODEL>
9

>  <REMARK>
 VINA RESULT:      -6.3      3.194      6.136
  Name = 
  6 active torsions:
  status: ('A' for Active; 'I' for Inactive)
    1  A    between atoms: C_2  and  C_11
    2  A    between atoms: C_2  and  C_27
    3  A    between atoms: C_2  and  C_31
    4  A    between atoms: O_8  and  C_35
    5  A    between atoms: C_13  and  C_21
    6  A    between atoms: C_21  and  C_36
                            x       y       z     vdW  Elec       q    Type
                         _______ _______ _______ _____ _____    ______ ____

>  <TORSDO>
F 6

$$$$
