=
 OpenBabel11042412413D

 43 48  0  0  1  0  0  0  0  0999 V2000
  190.0700  176.8420  145.4990 N   0  0  0  0  0  2  0  0  0  0  0  0
  187.5380  177.9110  145.9140 C   0  0  0  0  0  0  0  0  0  0  0  0
  188.3360  177.4580  147.0680 C   0  0  0  0  0  0  0  0  0  0  0  0
  186.0010  178.6040  144.4820 C   0  0  0  0  0  0  0  0  0  0  0  0
  185.3060  178.6300  146.9590 C   0  0  0  0  0  1  0  0  0  0  0  0
  188.0160  177.8360  144.6340 C   0  0  0  0  0  0  0  0  0  0  0  0
  187.0950  178.2760  143.7330 N   0  0  0  0  0  0  0  0  0  0  0  0
  186.2520  178.3940  145.8310 C   0  0  0  0  0  0  0  0  0  0  0  0
  189.3170  177.2640  144.3830 N   0  0  0  0  0  0  0  0  0  0  0  0
  189.5510  176.9420  146.8400 C   0  0  0  0  0  3  0  0  0  0  0  0
  189.9130  177.1460  143.0920 C   0  0  0  0  0  0  0  0  0  0  0  0
  191.6660  177.7420  141.5310 C   0  0  0  0  0  3  0  0  0  0  0  0
  191.1780  176.8060  140.6070 C   0  0  0  0  0  0  0  0  0  0  0  0
  190.0510  176.0380  140.9430 C   0  0  0  0  0  3  0  0  0  0  0  0
  189.4250  176.2030  142.1800 C   0  0  0  0  0  3  0  0  0  0  0  0
  191.0460  177.9040  142.7710 C   0  0  0  0  0  0  0  0  0  0  0  0
  191.5330  178.8170  143.6470 F   0  0  0  0  0  0  0  0  0  0  0  0
  191.8260  176.6350  139.3390 N   0  0  0  0  0  0  0  0  0  0  0  0
  192.4640  175.8040  137.2910 C   0  0  2  0  0  3  0  0  0  0  0  0
  193.1690  177.0720  139.0340 C   0  0  0  0  0  2  0  0  0  0  0  0
  191.2940  175.8840  138.2420 C   0  0  0  0  0  2  0  0  0  0  0  0
  193.4500  176.7330  137.6960 O   0  0  0  0  0  0  0  0  0  0  0  0
  192.2640  174.9000  134.9990 C   0  0  0  0  0  2  0  0  0  0  0  0
  193.2160  176.0730  134.9530 C   0  0  0  0  0  2  0  0  0  0  0  0
  192.0160  176.1100  135.8760 C   0  0  0  0  0  3  0  0  0  0  0  0
  184.6910  179.0330  143.9600 C   0  0  0  0  0  0  0  0  0  0  0  0
  184.3230  180.2340  144.0760 O   0  0  0  0  0  0  0  0  0  0  0  0
  183.7990  178.0620  143.3960 N   0  0  0  0  0  2  0  0  0  0  0  0
  182.5470  178.4330  142.8870 N   0  0  0  0  0  2  0  0  0  0  0  0
  182.6960  178.5850  141.5010 N   0  0  0  0  0  2  0  0  0  0  0  0
  181.8090  178.4970  139.3610 O   0  0  0  0  0  0  0  0  0  0  0  0
  181.6110  178.3720  140.5970 C   0  0  0  0  0  0  0  0  0  0  0  0
  180.2420  178.0120  141.0820 C   0  0  2  0  0  3  0  0  0  0  0  0
  179.7220  176.9870  140.3170 F   0  0  0  0  0  0  0  0  0  0  0  0
  179.3060  179.2130  141.0380 C   0  0  0  0  0  2  0  0  0  0  0  0
  179.9640  180.6780  142.8010 O   0  0  0  0  0  1  0  0  0  0  0  0
  179.0080  179.7280  142.4350 C   0  0  0  0  0  3  0  0  0  0  0  0
  179.0470  178.6650  143.3330 O   0  0  0  0  0  1  0  0  0  0  0  0
  186.3620  179.1900  141.5300 C   0  0  0  0  0  2  0  0  0  0  0  0
  187.1770  178.1380  142.2710 C   0  0  0  0  0  3  0  0  0  0  0  0
  187.8470  179.3720  141.6800 C   0  0  0  0  0  2  0  0  0  0  0  0
  188.6020  178.3490  149.2450 O   0  0  0  0  0  1  0  0  0  0  0  0
  187.8060  177.5070  148.4630 C   0  0  0  0  0  2  0  0  0  0  0  0
  1 10  1  0  0  0  0
  2  3  1  0  0  0  0
  3 43  1  0  0  0  0
  4  8  2  0  0  0  0
  6  2  2  0  0  0  0
  7  4  1  0  0  0  0
  7  6  1  0  0  0  0
  8  2  1  0  0  0  0
  8  5  1  0  0  0  0
  9  6  1  0  0  0  0
  9  1  1  0  0  0  0
 10  3  2  0  0  0  0
 11  9  1  0  0  0  0
 12 16  2  0  0  0  0
 13 14  2  0  0  0  0
 13 12  1  0  0  0  0
 14 15  1  0  0  0  0
 15 11  2  0  0  0  0
 16 11  1  0  0  0  0
 16 17  1  0  0  0  0
 18 13  1  0  0  0  0
 19 25  1  6  0  0  0
 19 22  1  0  0  0  0
 19 21  1  0  0  0  0
 20 18  1  0  0  0  0
 21 18  1  0  0  0  0
 22 20  1  0  0  0  0
 23 25  1  0  0  0  0
 24 23  1  0  0  0  0
 24 25  1  0  0  0  0
 26 27  2  0  0  0  0
 26  4  1  0  0  0  0
 28 26  1  0  0  0  0
 29 28  1  0  0  0  0
 30 29  1  0  0  0  0
 31 32  2  0  0  0  0
 32 33  1  0  0  0  0
 32 30  1  0  0  0  0
 33 34  1  6  0  0  0
 35 33  1  0  0  0  0
 35 37  1  0  0  0  0
 37 36  1  0  0  0  0
 37 38  1  0  0  0  0
 39 41  1  0  0  0  0
 39 40  1  0  0  0  0
 40  7  1  0  0  0  0
 41 40  1  0  0  0  0
 43 42  1  0  0  0  0
M  END
>  <MODEL>
1

>  <REMARK>
 VINA RESULT:      -7.1      0.000      0.000
  Name = 
  11 active torsions:
  status: ('A' for Active; 'I' for Inactive)
    1  A    between atoms: C_3  and  C_15
    2  A    between atoms: C_3  and  C_37
    3  A    between atoms: C_5  and  C_22
    4  A    between atoms: N_6  and  N_13
    5  A    between atoms: N_6  and  N_33
    6  A    between atoms: C_8  and  C_12
    7  A    between atoms: N_9  and  C_23
    8  A    between atoms: C_14  and  N_38
    9  A    between atoms: C_15  and  C_24
   10  A    between atoms: C_16  and  C_41
   11  A    between atoms: C_26  and  N_35
                            x       y       z     vdW  Elec       q    Type
                         _______ _______ _______ _____ _____    ______ ____

>  <TORSDO>
F 11

$$$$
=
 OpenBabel11042412413D

 43 48  0  0  1  0  0  0  0  0999 V2000
  190.7120  176.0100  135.3030 N   0  0  0  0  0  2  0  0  0  0  0  0
  191.9560  176.4230  137.7540 C   0  0  0  0  0  0  0  0  0  0  0  0
  192.7620  176.0240  136.5850 C   0  0  0  0  0  0  0  0  0  0  0  0
  191.1220  176.9210  139.7410 C   0  0  0  0  0  0  0  0  0  0  0  0
  193.6570  176.4890  139.6750 C   0  0  0  0  0  1  0  0  0  0  0  0
  190.6040  176.6140  137.6650 C   0  0  0  0  0  0  0  0  0  0  0  0
  190.0680  176.9410  138.8720 N   0  0  0  0  0  0  0  0  0  0  0  0
  192.2990  176.6110  139.0740 C   0  0  0  0  0  0  0  0  0  0  0  0
  189.9250  176.3840  136.4120 N   0  0  0  0  0  0  0  0  0  0  0  0
  192.1360  175.8260  135.4170 C   0  0  0  0  0  3  0  0  0  0  0  0
  188.5240  176.5610  136.2080 C   0  0  0  0  0  0  0  0  0  0  0  0
  186.2530  175.7490  136.4390 C   0  0  0  0  0  3  0  0  0  0  0  0
  185.7560  176.9650  135.9490 C   0  0  0  0  0  0  0  0  0  0  0  0
  186.6600  177.9810  135.5940 C   0  0  0  0  0  3  0  0  0  0  0  0
  188.0360  177.7810  135.7270 C   0  0  0  0  0  3  0  0  0  0  0  0
  187.6280  175.5500  136.5800 C   0  0  0  0  0  0  0  0  0  0  0  0
  188.0870  174.3650  137.0530 F   0  0  0  0  0  0  0  0  0  0  0  0
  184.3430  177.1690  135.8170 N   0  0  0  0  0  0  0  0  0  0  0  0
  182.0890  177.2990  136.2600 C   0  0  2  0  0  3  0  0  0  0  0  0
  183.5950  176.9860  134.5940 C   0  0  0  0  0  2  0  0  0  0  0  0
  183.4490  177.4420  136.9010 C   0  0  0  0  0  2  0  0  0  0  0  0
  182.2420  177.2830  134.8540 O   0  0  0  0  0  0  0  0  0  0  0  0
  179.9300  177.8980  137.3030 C   0  0  0  0  0  2  0  0  0  0  0  0
  179.9040  178.3830  135.8710 C   0  0  0  0  0  2  0  0  0  0  0  0
  181.1890  178.4490  136.6670 C   0  0  0  0  0  3  0  0  0  0  0  0
  191.0450  177.1050  141.2020 C   0  0  0  0  0  0  0  0  0  0  0  0
  191.5750  178.1130  141.7440 O   0  0  0  0  0  0  0  0  0  0  0  0
  190.4390  176.0900  142.0130 N   0  0  0  0  0  2  0  0  0  0  0  0
  190.3440  176.2310  143.4050 N   0  0  0  0  0  2  0  0  0  0  0  0
  188.9850  176.3910  143.7090 N   0  0  0  0  0  2  0  0  0  0  0  0
  187.3160  177.2060  145.0980 O   0  0  0  0  0  0  0  0  0  0  0  0
  188.5480  177.1160  144.8590 C   0  0  0  0  0  0  0  0  0  0  0  0
  189.5180  177.7810  145.7850 C   0  0  2  0  0  3  0  0  0  0  0  0
  190.5520  178.3440  145.0650 F   0  0  0  0  0  0  0  0  0  0  0  0
  190.0770  176.7940  146.8020 C   0  0  0  0  0  2  0  0  0  0  0  0
  192.0880  175.5750  146.4040 O   0  0  0  0  0  1  0  0  0  0  0  0
  191.5950  176.8160  146.8130 C   0  0  0  0  0  3  0  0  0  0  0  0
  192.0400  177.0860  148.1040 O   0  0  0  0  0  1  0  0  0  0  0  0
  188.3310  177.9390  140.3600 C   0  0  0  0  0  2  0  0  0  0  0  0
  188.6350  177.0040  139.1970 C   0  0  0  0  0  3  0  0  0  0  0  0
  188.1180  178.4160  138.9510 C   0  0  0  0  0  2  0  0  0  0  0  0
  194.4890  174.4080  136.6900 O   0  0  0  0  0  1  0  0  0  0  0  0
  194.2320  175.7830  136.6840 C   0  0  0  0  0  2  0  0  0  0  0  0
  1 10  1  0  0  0  0
  1  9  1  0  0  0  0
  2  8  1  0  0  0  0
  3 43  1  0  0  0  0
  3  2  1  0  0  0  0
  4 26  1  0  0  0  0
  6  2  2  0  0  0  0
  6  7  1  0  0  0  0
  7 40  1  0  0  0  0
  7  4  1  0  0  0  0
  8  5  1  0  0  0  0
  8  4  2  0  0  0  0
  9  6  1  0  0  0  0
 10  3  2  0  0  0  0
 11  9  1  0  0  0  0
 11 16  1  0  0  0  0
 12 16  2  0  0  0  0
 13 12  1  0  0  0  0
 14 15  1  0  0  0  0
 14 13  2  0  0  0  0
 15 11  2  0  0  0  0
 16 17  1  0  0  0  0
 18 13  1  0  0  0  0
 18 21  1  0  0  0  0
 19 25  1  6  0  0  0
 19 21  1  0  0  0  0
 20 22  1  0  0  0  0
 20 18  1  0  0  0  0
 22 19  1  0  0  0  0
 24 25  1  0  0  0  0
 24 23  1  0  0  0  0
 25 23  1  0  0  0  0
 26 27  2  0  0  0  0
 26 28  1  0  0  0  0
 28 29  1  0  0  0  0
 29 30  1  0  0  0  0
 30 32  1  0  0  0  0
 32 31  2  0  0  0  0
 32 33  1  0  0  0  0
 33 34  1  6  0  0  0
 33 35  1  0  0  0  0
 35 37  1  0  0  0  0
 36 37  1  0  0  0  0
 37 38  1  0  0  0  0
 40 39  1  0  0  0  0
 41 40  1  0  0  0  0
 41 39  1  0  0  0  0
 43 42  1  0  0  0  0
M  END
>  <MODEL>
2

>  <REMARK>
 VINA RESULT:      -6.5      3.765      9.681
  Name = 
  11 active torsions:
  status: ('A' for Active; 'I' for Inactive)
    1  A    between atoms: C_3  and  C_15
    2  A    between atoms: C_3  and  C_37
    3  A    between atoms: C_5  and  C_22
    4  A    between atoms: N_6  and  N_13
    5  A    between atoms: N_6  and  N_33
    6  A    between atoms: C_8  and  C_12
    7  A    between atoms: N_9  and  C_23
    8  A    between atoms: C_14  and  N_38
    9  A    between atoms: C_15  and  C_24
   10  A    between atoms: C_16  and  C_41
   11  A    between atoms: C_26  and  N_35
                            x       y       z     vdW  Elec       q    Type
                         _______ _______ _______ _____ _____    ______ ____

>  <TORSDO>
F 11

$$$$
=
 OpenBabel11042412413D

 43 48  0  0  1  0  0  0  0  0999 V2000
  189.9860  176.9270  145.4410 N   0  0  0  0  0  2  0  0  0  0  0  0
  187.3960  177.8860  145.7540 C   0  0  0  0  0  0  0  0  0  0  0  0
  188.1770  177.4910  146.9420 C   0  0  0  0  0  0  0  0  0  0  0  0
  185.8770  178.4810  144.2610 C   0  0  0  0  0  0  0  0  0  0  0  0
  185.1020  178.5210  146.7130 C   0  0  0  0  0  1  0  0  0  0  0  0
  187.9190  177.8100  144.4910 C   0  0  0  0  0  0  0  0  0  0  0  0
  187.0090  178.1900  143.5530 N   0  0  0  0  0  0  0  0  0  0  0  0
  186.0930  178.3080  145.6210 C   0  0  0  0  0  0  0  0  0  0  0  0
  189.2520  177.2930  144.2930 N   0  0  0  0  0  0  0  0  0  0  0  0
  189.4210  177.0280  146.7620 C   0  0  0  0  0  3  0  0  0  0  0  0
  189.8940  177.1790  143.0240 C   0  0  0  0  0  0  0  0  0  0  0  0
  191.7000  177.7830  141.5270 C   0  0  0  0  0  3  0  0  0  0  0  0
  191.2500  176.8470  140.5870 C   0  0  0  0  0  0  0  0  0  0  0  0
  190.1140  176.0730  140.8800 C   0  0  0  0  0  3  0  0  0  0  0  0
  189.4430  176.2350  142.0950 C   0  0  0  0  0  3  0  0  0  0  0  0
  191.0360  177.9410  142.7450 C   0  0  0  0  0  0  0  0  0  0  0  0
  191.4870  178.8550  143.6390 F   0  0  0  0  0  0  0  0  0  0  0  0
  191.9430  176.6790  139.3420 N   0  0  0  0  0  0  0  0  0  0  0  0
  192.6690  175.8440  137.3240 C   0  0  2  0  0  3  0  0  0  0  0  0
  193.2860  177.1440  139.0780 C   0  0  0  0  0  2  0  0  0  0  0  0
  191.4660  175.9060  138.2360 C   0  0  0  0  0  2  0  0  0  0  0  0
  193.6190  176.8000  137.7530 O   0  0  0  0  0  0  0  0  0  0  0  0
  192.5920  174.9260  135.0310 C   0  0  0  0  0  2  0  0  0  0  0  0
  193.4950  176.1380  135.0160 C   0  0  0  0  0  2  0  0  0  0  0  0
  192.2610  176.1280  135.8930 C   0  0  0  0  0  3  0  0  0  0  0  0
  184.5670  178.8400  143.6890 C   0  0  0  0  0  0  0  0  0  0  0  0
  183.9680  179.8800  144.0770 O   0  0  0  0  0  0  0  0  0  0  0  0
  183.9360  177.9570  142.7520 N   0  0  0  0  0  2  0  0  0  0  0  0
  182.6920  178.2660  142.1850 N   0  0  0  0  0  2  0  0  0  0  0  0
  182.9450  178.9920  141.0120 N   0  0  0  0  0  2  0  0  0  0  0  0
  182.7760  179.2180  138.7100 O   0  0  0  0  0  0  0  0  0  0  0  0
  182.4980  178.5390  139.7330 C   0  0  0  0  0  0  0  0  0  0  0  0
  181.7010  177.2820  139.5770 C   0  0  2  0  0  3  0  0  0  0  0  0
  180.7840  177.1710  140.6030 F   0  0  0  0  0  0  0  0  0  0  0  0
  182.6020  176.0550  139.5570 C   0  0  0  0  0  2  0  0  0  0  0  0
  181.4700  174.5880  138.0550 O   0  0  0  0  0  1  0  0  0  0  0  0
  182.6020  175.3950  138.1890 C   0  0  0  0  0  3  0  0  0  0  0  0
  183.7450  174.6110  138.0590 O   0  0  0  0  0  1  0  0  0  0  0  0
  186.4160  179.1100  141.3110 C   0  0  0  0  0  2  0  0  0  0  0  0
  187.1450  178.0290  142.0980 C   0  0  0  0  0  3  0  0  0  0  0  0
  187.9000  179.2200  141.5210 C   0  0  0  0  0  2  0  0  0  0  0  0
  188.4650  178.2340  149.1710 O   0  0  0  0  0  1  0  0  0  0  0  0
  187.6000  177.5420  148.3170 C   0  0  0  0  0  2  0  0  0  0  0  0
  1 10  1  0  0  0  0
  2  3  1  0  0  0  0
  3 43  1  0  0  0  0
  4  8  2  0  0  0  0
  6  2  2  0  0  0  0
  7  4  1  0  0  0  0
  7  6  1  0  0  0  0
  8  2  1  0  0  0  0
  8  5  1  0  0  0  0
  9  6  1  0  0  0  0
  9  1  1  0  0  0  0
 10  3  2  0  0  0  0
 11  9  1  0  0  0  0
 12 16  2  0  0  0  0
 13 14  2  0  0  0  0
 13 12  1  0  0  0  0
 14 15  1  0  0  0  0
 15 11  2  0  0  0  0
 16 11  1  0  0  0  0
 16 17  1  0  0  0  0
 18 13  1  0  0  0  0
 19 25  1  6  0  0  0
 19 22  1  0  0  0  0
 19 21  1  0  0  0  0
 20 18  1  0  0  0  0
 21 18  1  0  0  0  0
 22 20  1  0  0  0  0
 23 25  1  0  0  0  0
 24 23  1  0  0  0  0
 24 25  1  0  0  0  0
 26 27  2  0  0  0  0
 26  4  1  0  0  0  0
 28 26  1  0  0  0  0
 29 28  1  0  0  0  0
 30 29  1  0  0  0  0
 31 32  2  0  0  0  0
 32 30  1  0  0  0  0
 33 32  1  0  0  0  0
 33 34  1  1  0  0  0
 35 33  1  0  0  0  0
 36 37  1  0  0  0  0
 37 35  1  0  0  0  0
 38 37  1  0  0  0  0
 39 41  1  0  0  0  0
 39 40  1  0  0  0  0
 40  7  1  0  0  0  0
 41 40  1  0  0  0  0
 43 42  1  0  0  0  0
M  END
>  <MODEL>
3

>  <REMARK>
 VINA RESULT:      -6.5      1.444      2.229
  Name = 
  11 active torsions:
  status: ('A' for Active; 'I' for Inactive)
    1  A    between atoms: C_3  and  C_15
    2  A    between atoms: C_3  and  C_37
    3  A    between atoms: C_5  and  C_22
    4  A    between atoms: N_6  and  N_13
    5  A    between atoms: N_6  and  N_33
    6  A    between atoms: C_8  and  C_12
    7  A    between atoms: N_9  and  C_23
    8  A    between atoms: C_14  and  N_38
    9  A    between atoms: C_15  and  C_24
   10  A    between atoms: C_16  and  C_41
   11  A    between atoms: C_26  and  N_35
                            x       y       z     vdW  Elec       q    Type
                         _______ _______ _______ _____ _____    ______ ____

>  <TORSDO>
F 11

$$$$
=
 OpenBabel11042412413D

 43 48  0  0  1  0  0  0  0  0999 V2000
  187.1860  173.7130  134.9680 N   0  0  0  0  0  2  0  0  0  0  0  0
  185.4460  175.3070  136.4370 C   0  0  0  0  0  0  0  0  0  0  0  0
  184.9110  174.1960  135.6280 C   0  0  0  0  0  0  0  0  0  0  0  0
  185.8150  177.1010  137.6780 C   0  0  0  0  0  0  0  0  0  0  0  0
  183.3470  176.4330  137.3940 C   0  0  0  0  0  1  0  0  0  0  0  0
  186.7880  175.5700  136.5010 C   0  0  0  0  0  0  0  0  0  0  0  0
  187.0440  176.6590  137.2760 N   0  0  0  0  0  0  0  0  0  0  0  0
  184.8140  176.2790  137.1800 C   0  0  0  0  0  0  0  0  0  0  0  0
  187.7150  174.7760  135.7310 N   0  0  0  0  0  0  0  0  0  0  0  0
  185.7710  173.4470  134.9260 C   0  0  0  0  0  3  0  0  0  0  0  0
  189.1300  174.9590  135.7310 C   0  0  0  0  0  0  0  0  0  0  0  0
  191.3320  174.2720  136.4700 C   0  0  0  0  0  3  0  0  0  0  0  0
  191.9250  175.2150  135.6190 C   0  0  0  0  0  0  0  0  0  0  0  0
  191.1030  176.0280  134.8200 C   0  0  0  0  0  3  0  0  0  0  0  0
  189.7140  175.8970  134.8720 C   0  0  0  0  0  3  0  0  0  0  0  0
  189.9430  174.1340  136.5180 C   0  0  0  0  0  0  0  0  0  0  0  0
  189.3910  173.2170  137.3500 F   0  0  0  0  0  0  0  0  0  0  0  0
  193.3520  175.3450  135.5640 N   0  0  0  0  0  0  0  0  0  0  0  0
  195.5840  175.3390  136.1240 C   0  0  2  0  0  3  0  0  0  0  0  0
  194.0610  176.3020  134.7460 C   0  0  0  0  0  2  0  0  0  0  0  0
  194.2720  174.6490  136.4120 C   0  0  0  0  0  2  0  0  0  0  0  0
  195.4430  176.1250  134.9560 O   0  0  0  0  0  0  0  0  0  0  0  0
  197.9270  174.7730  136.6690 C   0  0  0  0  0  2  0  0  0  0  0  0
  197.8310  174.9570  135.1720 C   0  0  0  0  0  2  0  0  0  0  0  0
  196.6870  174.3180  135.9290 C   0  0  0  0  0  3  0  0  0  0  0  0
  185.5460  178.3250  138.4530 C   0  0  0  0  0  0  0  0  0  0  0  0
  185.5070  179.4460  137.8760 O   0  0  0  0  0  0  0  0  0  0  0  0
  185.4150  178.2480  139.8790 N   0  0  0  0  0  2  0  0  0  0  0  0
  185.1560  179.3900  140.6490 N   0  0  0  0  0  2  0  0  0  0  0  0
  183.9230  179.1850  141.2850 N   0  0  0  0  0  2  0  0  0  0  0  0
  182.7030  178.6710  143.1880 O   0  0  0  0  0  0  0  0  0  0  0  0
  183.8340  178.8700  142.6750 C   0  0  0  0  0  0  0  0  0  0  0  0
  185.0520  178.7800  143.5410 C   0  0  2  0  0  3  0  0  0  0  0  0
  185.7950  177.6690  143.2000 F   0  0  0  0  0  0  0  0  0  0  0  0
  184.6770  178.7160  145.0160 C   0  0  0  0  0  2  0  0  0  0  0  0
  186.2720  177.4270  146.2350 O   0  0  0  0  0  1  0  0  0  0  0  0
  185.9140  178.7340  145.8980 C   0  0  0  0  0  3  0  0  0  0  0  0
  185.6360  179.4500  147.0600 O   0  0  0  0  0  1  0  0  0  0  0  0
  188.4700  178.1380  138.6930 C   0  0  0  0  0  2  0  0  0  0  0  0
  188.3340  177.3560  137.3920 C   0  0  0  0  0  3  0  0  0  0  0  0
  189.1160  176.7870  138.5700 C   0  0  0  0  0  2  0  0  0  0  0  0
  183.0930  172.8920  136.4010 O   0  0  0  0  0  1  0  0  0  0  0  0
  183.4460  173.9260  135.5290 C   0  0  0  0  0  2  0  0  0  0  0  0
  1  9  1  0  0  0  0
  2  6  2  0  0  0  0
  2  8  1  0  0  0  0
  3  2  1  0  0  0  0
  4 26  1  0  0  0  0
  6  7  1  0  0  0  0
  7 40  1  0  0  0  0
  7  4  1  0  0  0  0
  8  5  1  0  0  0  0
  8  4  2  0  0  0  0
  9 11  1  0  0  0  0
  9  6  1  0  0  0  0
 10  1  1  0  0  0  0
 10  3  2  0  0  0  0
 11 16  1  0  0  0  0
 12 16  2  0  0  0  0
 13 12  1  0  0  0  0
 14 15  1  0  0  0  0
 14 13  2  0  0  0  0
 15 11  2  0  0  0  0
 16 17  1  0  0  0  0
 18 13  1  0  0  0  0
 18 21  1  0  0  0  0
 19 25  1  6  0  0  0
 19 21  1  0  0  0  0
 20 22  1  0  0  0  0
 20 18  1  0  0  0  0
 22 19  1  0  0  0  0
 24 25  1  0  0  0  0
 24 23  1  0  0  0  0
 25 23  1  0  0  0  0
 26 28  1  0  0  0  0
 27 26  2  0  0  0  0
 28 29  1  0  0  0  0
 29 30  1  0  0  0  0
 30 32  1  0  0  0  0
 32 31  2  0  0  0  0
 32 33  1  0  0  0  0
 33 34  1  6  0  0  0
 33 35  1  0  0  0  0
 35 37  1  0  0  0  0
 37 36  1  0  0  0  0
 37 38  1  0  0  0  0
 40 41  1  0  0  0  0
 40 39  1  0  0  0  0
 41 39  1  0  0  0  0
 43  3  1  0  0  0  0
 43 42  1  0  0  0  0
M  END
>  <MODEL>
4

>  <REMARK>
 VINA RESULT:      -6.3      4.259      7.466
  Name = 
  11 active torsions:
  status: ('A' for Active; 'I' for Inactive)
    1  A    between atoms: C_3  and  C_15
    2  A    between atoms: C_3  and  C_37
    3  A    between atoms: C_5  and  C_22
    4  A    between atoms: N_6  and  N_13
    5  A    between atoms: N_6  and  N_33
    6  A    between atoms: C_8  and  C_12
    7  A    between atoms: N_9  and  C_23
    8  A    between atoms: C_14  and  N_38
    9  A    between atoms: C_15  and  C_24
   10  A    between atoms: C_16  and  C_41
   11  A    between atoms: C_26  and  N_35
                            x       y       z     vdW  Elec       q    Type
                         _______ _______ _______ _____ _____    ______ ____

>  <TORSDO>
F 11

$$$$
=
 OpenBabel11042412413D

 43 48  0  0  1  0  0  0  0  0999 V2000
  182.9510  178.6280  143.2730 N   0  0  0  0  0  2  0  0  0  0  0  0
  183.2600  178.7570  140.5130 C   0  0  0  0  0  0  0  0  0  0  0  0
  181.9190  178.9190  141.1060 C   0  0  0  0  0  0  0  0  0  0  0  0
  185.0430  178.4730  139.2350 C   0  0  0  0  0  0  0  0  0  0  0  0
  182.8240  178.8330  137.9850 C   0  0  0  0  0  1  0  0  0  0  0  0
  184.3700  178.5600  141.2890 C   0  0  0  0  0  0  0  0  0  0  0  0
  185.4860  178.4010  140.5260 N   0  0  0  0  0  0  0  0  0  0  0  0
  183.6740  178.6990  139.2020 C   0  0  0  0  0  0  0  0  0  0  0  0
  184.2400  178.4630  142.7230 N   0  0  0  0  0  0  0  0  0  0  0  0
  181.7980  178.8470  142.4380 C   0  0  0  0  0  3  0  0  0  0  0  0
  185.3310  178.2680  143.6210 C   0  0  0  0  0  0  0  0  0  0  0  0
  186.4310  178.7670  145.7210 C   0  0  0  0  0  3  0  0  0  0  0  0
  187.3930  177.7790  145.4650 C   0  0  0  0  0  0  0  0  0  0  0  0
  187.3090  177.0330  144.2770 C   0  0  0  0  0  3  0  0  0  0  0  0
  186.2810  177.2730  143.3630 C   0  0  0  0  0  3  0  0  0  0  0  0
  185.3980  179.0030  144.8120 C   0  0  0  0  0  0  0  0  0  0  0  0
  184.4810  179.9660  145.0780 F   0  0  0  0  0  0  0  0  0  0  0  0
  188.4450  177.5310  146.4080 N   0  0  0  0  0  0  0  0  0  0  0  0
  190.2320  176.5920  147.5120 C   0  0  2  0  0  3  0  0  0  0  0  0
  188.4070  177.9070  147.8030 C   0  0  0  0  0  2  0  0  0  0  0  0
  189.6170  176.7530  146.1420 C   0  0  0  0  0  2  0  0  0  0  0  0
  189.6160  177.5030  148.4020 O   0  0  0  0  0  0  0  0  0  0  0  0
  192.4300  175.6130  146.9510 C   0  0  0  0  0  2  0  0  0  0  0  0
  192.4290  175.9330  148.4290 C   0  0  0  0  0  2  0  0  0  0  0  0
  191.7240  176.8540  147.4560 C   0  0  0  0  0  3  0  0  0  0  0  0
  185.8560  178.2530  138.0260 C   0  0  0  0  0  0  0  0  0  0  0  0
  186.4180  179.2260  137.4530 O   0  0  0  0  0  0  0  0  0  0  0  0
  185.9370  176.9400  137.4550 N   0  0  0  0  0  2  0  0  0  0  0  0
  186.7030  176.6920  136.3070 N   0  0  0  0  0  2  0  0  0  0  0  0
  187.3720  175.4770  136.5170 N   0  0  0  0  0  2  0  0  0  0  0  0
  189.3250  174.3070  136.9580 O   0  0  0  0  0  0  0  0  0  0  0  0
  188.7710  175.4260  136.8040 C   0  0  0  0  0  0  0  0  0  0  0  0
  189.5930  176.6690  136.9360 C   0  0  2  0  0  3  0  0  0  0  0  0
  189.6260  177.3470  135.7350 F   0  0  0  0  0  0  0  0  0  0  0  0
  191.0130  176.3470  137.3840 C   0  0  0  0  0  2  0  0  0  0  0  0
  192.6280  176.7530  139.0920 O   0  0  0  0  0  1  0  0  0  0  0  0
  191.2620  176.8210  138.8050 C   0  0  0  0  0  3  0  0  0  0  0  0
  190.5640  176.0030  139.6890 O   0  0  0  0  0  1  0  0  0  0  0  0
  187.9230  178.2530  140.0080 C   0  0  0  0  0  2  0  0  0  0  0  0
  186.8060  177.9580  141.0010 C   0  0  0  0  0  3  0  0  0  0  0  0
  187.7150  179.1680  141.1830 C   0  0  0  0  0  2  0  0  0  0  0  0
  180.4280  180.4640  140.1100 O   0  0  0  0  0  1  0  0  0  0  0  0
  180.7000  179.1010  140.2640 C   0  0  0  0  0  2  0  0  0  0  0  0
  2  3  1  0  0  0  0
  2  6  2  0  0  0  0
  3 10  2  0  0  0  0
  4  7  1  0  0  0  0
  5  8  1  0  0  0  0
  6  9  1  0  0  0  0
  7 40  1  0  0  0  0
  7  6  1  0  0  0  0
  8  4  2  0  0  0  0
  8  2  1  0  0  0  0
  9  1  1  0  0  0  0
  9 11  1  0  0  0  0
 10  1  1  0  0  0  0
 11 16  1  0  0  0  0
 13 12  1  0  0  0  0
 13 18  1  0  0  0  0
 14 13  2  0  0  0  0
 15 11  2  0  0  0  0
 15 14  1  0  0  0  0
 16 17  1  0  0  0  0
 16 12  2  0  0  0  0
 18 20  1  0  0  0  0
 19 25  1  6  0  0  0
 19 22  1  0  0  0  0
 20 22  1  0  0  0  0
 21 18  1  0  0  0  0
 21 19  1  0  0  0  0
 23 25  1  0  0  0  0
 23 24  1  0  0  0  0
 25 24  1  0  0  0  0
 26  4  1  0  0  0  0
 27 26  2  0  0  0  0
 28 26  1  0  0  0  0
 29 30  1  0  0  0  0
 29 28  1  0  0  0  0
 30 32  1  0  0  0  0
 32 33  1  0  0  0  0
 32 31  2  0  0  0  0
 33 34  1  6  0  0  0
 33 35  1  0  0  0  0
 35 37  1  0  0  0  0
 37 36  1  0  0  0  0
 37 38  1  0  0  0  0
 39 40  1  0  0  0  0
 39 41  1  0  0  0  0
 40 41  1  0  0  0  0
 42 43  1  0  0  0  0
 43  3  1  0  0  0  0
M  END
>  <MODEL>
5

>  <REMARK>
 VINA RESULT:      -6.2      3.085      8.686
  Name = 
  11 active torsions:
  status: ('A' for Active; 'I' for Inactive)
    1  A    between atoms: C_3  and  C_15
    2  A    between atoms: C_3  and  C_37
    3  A    between atoms: C_5  and  C_22
    4  A    between atoms: N_6  and  N_13
    5  A    between atoms: N_6  and  N_33
    6  A    between atoms: C_8  and  C_12
    7  A    between atoms: N_9  and  C_23
    8  A    between atoms: C_14  and  N_38
    9  A    between atoms: C_15  and  C_24
   10  A    between atoms: C_16  and  C_41
   11  A    between atoms: C_26  and  N_35
                            x       y       z     vdW  Elec       q    Type
                         _______ _______ _______ _____ _____    ______ ____

>  <TORSDO>
F 11

$$$$
=
 OpenBabel11042412413D

 43 48  0  0  1  0  0  0  0  0999 V2000
  190.1770  176.5030  136.1670 N   0  0  0  0  0  2  0  0  0  0  0  0
  191.6730  176.7730  138.4940 C   0  0  0  0  0  0  0  0  0  0  0  0
  192.3570  176.5120  137.2130 C   0  0  0  0  0  0  0  0  0  0  0  0
  191.0510  177.0640  140.5960 C   0  0  0  0  0  0  0  0  0  0  0  0
  193.5770  176.7650  140.2150 C   0  0  0  0  0  1  0  0  0  0  0  0
  190.3130  176.9040  138.5700 C   0  0  0  0  0  0  0  0  0  0  0  0
  189.9050  177.1040  139.8530 N   0  0  0  0  0  0  0  0  0  0  0  0
  192.1560  176.8690  139.7790 C   0  0  0  0  0  0  0  0  0  0  0  0
  189.5060  176.7450  137.3850 N   0  0  0  0  0  0  0  0  0  0  0  0
  191.6110  176.3820  136.1080 C   0  0  0  0  0  3  0  0  0  0  0  0
  188.0850  176.8690  137.3520 C   0  0  0  0  0  0  0  0  0  0  0  0
  186.1060  178.2520  137.1560 C   0  0  0  0  0  3  0  0  0  0  0  0
  185.2950  177.1080  137.1340 C   0  0  0  0  0  0  0  0  0  0  0  0
  185.8960  175.8410  137.2180 C   0  0  0  0  0  3  0  0  0  0  0  0
  187.2830  175.7220  137.3210 C   0  0  0  0  0  3  0  0  0  0  0  0
  187.4940  178.1350  137.2510 C   0  0  0  0  0  0  0  0  0  0  0  0
  188.2590  179.2540  137.2740 F   0  0  0  0  0  0  0  0  0  0  0  0
  183.8700  177.2330  137.0230 N   0  0  0  0  0  0  0  0  0  0  0  0
  181.7130  177.1720  136.2260 C   0  0  2  0  0  3  0  0  0  0  0  0
  183.0770  178.2440  137.6850 C   0  0  0  0  0  2  0  0  0  0  0  0
  183.0470  176.4700  136.1350 C   0  0  0  0  0  2  0  0  0  0  0  0
  181.7270  178.0430  137.3400 O   0  0  0  0  0  0  0  0  0  0  0  0
  179.2890  176.7890  135.9310 C   0  0  0  0  0  2  0  0  0  0  0  0
  179.6030  176.6620  137.4040 C   0  0  0  0  0  2  0  0  0  0  0  0
  180.5930  176.1610  136.3750 C   0  0  0  0  0  3  0  0  0  0  0  0
  191.1320  177.1230  142.0670 C   0  0  0  0  0  0  0  0  0  0  0  0
  190.9430  176.0830  142.7550 O   0  0  0  0  0  0  0  0  0  0  0  0
  191.3430  178.3830  142.7170 N   0  0  0  0  0  2  0  0  0  0  0  0
  191.4280  178.4770  144.1120 N   0  0  0  0  0  2  0  0  0  0  0  0
  190.1510  178.8200  144.5790 N   0  0  0  0  0  2  0  0  0  0  0  0
  188.2910  178.3470  145.8800 O   0  0  0  0  0  0  0  0  0  0  0  0
  189.4450  178.0040  145.5150 C   0  0  0  0  0  0  0  0  0  0  0  0
  190.0460  176.7550  146.0800 C   0  0  2  0  0  3  0  0  0  0  0  0
  189.1430  176.1310  146.9170 F   0  0  0  0  0  0  0  0  0  0  0  0
  191.3310  177.0540  146.8400 C   0  0  0  0  0  2  0  0  0  0  0  0
  192.9700  176.1200  148.2990 O   0  0  0  0  0  1  0  0  0  0  0  0
  191.9290  175.7890  147.4290 C   0  0  0  0  0  3  0  0  0  0  0  0
  192.4250  174.9940  146.3990 O   0  0  0  0  0  1  0  0  0  0  0  0
  188.3670  177.6190  141.7500 C   0  0  0  0  0  2  0  0  0  0  0  0
  188.5170  177.0690  140.3370 C   0  0  0  0  0  3  0  0  0  0  0  0
  188.0240  178.4910  140.5740 C   0  0  0  0  0  2  0  0  0  0  0  0
  194.2390  176.3270  135.7900 O   0  0  0  0  0  1  0  0  0  0  0  0
  193.8360  176.3370  137.1290 C   0  0  0  0  0  2  0  0  0  0  0  0
  1  9  1  0  0  0  0
  2  6  2  0  0  0  0
  2  8  1  0  0  0  0
  3  2  1  0  0  0  0
  4 26  1  0  0  0  0
  6  7  1  0  0  0  0
  7 40  1  0  0  0  0
  7  4  1  0  0  0  0
  8  5  1  0  0  0  0
  8  4  2  0  0  0  0
  9  6  1  0  0  0  0
 10  1  1  0  0  0  0
 10  3  2  0  0  0  0
 11  9  1  0  0  0  0
 12 16  1  0  0  0  0
 13 12  2  0  0  0  0
 13 14  1  0  0  0  0
 14 15  2  0  0  0  0
 15 11  1  0  0  0  0
 16 17  1  0  0  0  0
 16 11  2  0  0  0  0
 18 13  1  0  0  0  0
 18 20  1  0  0  0  0
 19 25  1  1  0  0  0
 19 22  1  0  0  0  0
 21 19  1  0  0  0  0
 21 18  1  0  0  0  0
 22 20  1  0  0  0  0
 23 25  1  0  0  0  0
 23 24  1  0  0  0  0
 25 24  1  0  0  0  0
 26 28  1  0  0  0  0
 26 27  2  0  0  0  0
 28 29  1  0  0  0  0
 29 30  1  0  0  0  0
 30 32  1  0  0  0  0
 32 31  2  0  0  0  0
 32 33  1  0  0  0  0
 33 35  1  0  0  0  0
 33 34  1  1  0  0  0
 35 37  1  0  0  0  0
 37 36  1  0  0  0  0
 38 37  1  0  0  0  0
 40 41  1  0  0  0  0
 40 39  1  0  0  0  0
 41 39  1  0  0  0  0
 42 43  1  0  0  0  0
 43  3  1  0  0  0  0
M  END
>  <MODEL>
6

>  <REMARK>
 VINA RESULT:      -6.1      3.605      9.626
  Name = 
  11 active torsions:
  status: ('A' for Active; 'I' for Inactive)
    1  A    between atoms: C_3  and  C_15
    2  A    between atoms: C_3  and  C_37
    3  A    between atoms: C_5  and  C_22
    4  A    between atoms: N_6  and  N_13
    5  A    between atoms: N_6  and  N_33
    6  A    between atoms: C_8  and  C_12
    7  A    between atoms: N_9  and  C_23
    8  A    between atoms: C_14  and  N_38
    9  A    between atoms: C_15  and  C_24
   10  A    between atoms: C_16  and  C_41
   11  A    between atoms: C_26  and  N_35
                            x       y       z     vdW  Elec       q    Type
                         _______ _______ _______ _____ _____    ______ ____

>  <TORSDO>
F 11

$$$$
=
 OpenBabel11042412413D

 43 48  0  0  1  0  0  0  0  0999 V2000
  190.1230  176.2500  136.0800 N   0  0  0  0  0  2  0  0  0  0  0  0
  191.5480  176.6640  138.4300 C   0  0  0  0  0  0  0  0  0  0  0  0
  192.2660  176.2880  137.1980 C   0  0  0  0  0  0  0  0  0  0  0  0
  190.8640  177.1330  140.4810 C   0  0  0  0  0  0  0  0  0  0  0  0
  193.3930  176.7430  140.2130 C   0  0  0  0  0  1  0  0  0  0  0  0
  190.1900  176.8330  138.4480 C   0  0  0  0  0  0  0  0  0  0  0  0
  189.7450  177.1420  139.6970 N   0  0  0  0  0  0  0  0  0  0  0  0
  191.9900  176.8470  139.7210 C   0  0  0  0  0  0  0  0  0  0  0  0
  189.4190  176.6020  137.2510 N   0  0  0  0  0  0  0  0  0  0  0  0
  191.5540  176.0890  136.0810 C   0  0  0  0  0  3  0  0  0  0  0  0
  188.0040  176.7570  137.1580 C   0  0  0  0  0  0  0  0  0  0  0  0
  186.0700  178.1660  136.7750 C   0  0  0  0  0  3  0  0  0  0  0  0
  185.2290  177.0450  136.8250 C   0  0  0  0  0  0  0  0  0  0  0  0
  185.7920  175.7760  137.0390 C   0  0  0  0  0  3  0  0  0  0  0  0
  187.1720  175.6320  137.2000 C   0  0  0  0  0  3  0  0  0  0  0  0
  187.4510  178.0240  136.9280 C   0  0  0  0  0  0  0  0  0  0  0  0
  188.2450  179.1210  136.8800 F   0  0  0  0  0  0  0  0  0  0  0  0
  183.8130  177.1940  136.6550 N   0  0  0  0  0  0  0  0  0  0  0  0
  181.5590  177.4100  137.0660 C   0  0  2  0  0  3  0  0  0  0  0  0
  183.0620  176.6970  135.5240 C   0  0  0  0  0  2  0  0  0  0  0  0
  182.9210  177.7260  137.6390 C   0  0  0  0  0  2  0  0  0  0  0  0
  181.7070  177.0370  135.7100 O   0  0  0  0  0  0  0  0  0  0  0  0
  179.2940  178.1760  137.6870 C   0  0  0  0  0  2  0  0  0  0  0  0
  179.4890  178.4520  136.2140 C   0  0  0  0  0  2  0  0  0  0  0  0
  180.6480  178.6160  137.1730 C   0  0  0  0  0  3  0  0  0  0  0  0
  190.8980  177.3030  141.9440 C   0  0  0  0  0  0  0  0  0  0  0  0
  190.6130  176.3360  142.7030 O   0  0  0  0  0  0  0  0  0  0  0  0
  191.1720  178.5950  142.5020 N   0  0  0  0  0  2  0  0  0  0  0  0
  191.2150  178.7950  143.8890 N   0  0  0  0  0  2  0  0  0  0  0  0
  191.8740  177.6880  144.4420 N   0  0  0  0  0  2  0  0  0  0  0  0
  192.0550  176.0770  146.1000 O   0  0  0  0  0  0  0  0  0  0  0  0
  191.4100  177.0510  145.6340 C   0  0  0  0  0  0  0  0  0  0  0  0
  190.1700  177.5070  146.3380 C   0  0  2  0  0  3  0  0  0  0  0  0
  190.2000  177.1050  147.6580 F   0  0  0  0  0  0  0  0  0  0  0  0
  188.9180  176.9620  145.6620 C   0  0  0  0  0  2  0  0  0  0  0  0
  187.1490  177.6660  147.0980 O   0  0  0  0  0  1  0  0  0  0  0  0
  187.7390  177.8990  145.8540 C   0  0  0  0  0  3  0  0  0  0  0  0
  186.8030  177.6680  144.8490 O   0  0  0  0  0  1  0  0  0  0  0  0
  188.1550  177.8730  141.4760 C   0  0  0  0  0  2  0  0  0  0  0  0
  188.3410  177.1780  140.1330 C   0  0  0  0  0  3  0  0  0  0  0  0
  187.8670  178.6250  140.2060 C   0  0  0  0  0  2  0  0  0  0  0  0
  194.3700  177.1160  136.4970 O   0  0  0  0  0  1  0  0  0  0  0  0
  193.7430  176.0700  137.1800 C   0  0  0  0  0  2  0  0  0  0  0  0
  1 10  1  0  0  0  0
  1  9  1  0  0  0  0
  2  6  2  0  0  0  0
  2  8  1  0  0  0  0
  3  2  1  0  0  0  0
  4 26  1  0  0  0  0
  6  7  1  0  0  0  0
  7 40  1  0  0  0  0
  7  4  1  0  0  0  0
  8  5  1  0  0  0  0
  8  4  2  0  0  0  0
  9  6  1  0  0  0  0
 10  3  2  0  0  0  0
 11 15  1  0  0  0  0
 11  9  1  0  0  0  0
 12 13  2  0  0  0  0
 12 16  1  0  0  0  0
 13 14  1  0  0  0  0
 14 15  2  0  0  0  0
 16 11  2  0  0  0  0
 17 16  1  0  0  0  0
 18 13  1  0  0  0  0
 18 21  1  0  0  0  0
 19 25  1  6  0  0  0
 19 21  1  0  0  0  0
 20 22  1  0  0  0  0
 20 18  1  0  0  0  0
 22 19  1  0  0  0  0
 24 25  1  0  0  0  0
 24 23  1  0  0  0  0
 25 23  1  0  0  0  0
 26 28  1  0  0  0  0
 26 27  2  0  0  0  0
 28 29  1  0  0  0  0
 29 30  1  0  0  0  0
 30 32  1  0  0  0  0
 32 31  2  0  0  0  0
 32 33  1  0  0  0  0
 33 34  1  1  0  0  0
 35 37  1  0  0  0  0
 35 33  1  0  0  0  0
 37 36  1  0  0  0  0
 38 37  1  0  0  0  0
 40 41  1  0  0  0  0
 40 39  1  0  0  0  0
 41 39  1  0  0  0  0
 42 43  1  0  0  0  0
 43  3  1  0  0  0  0
M  END
>  <MODEL>
7

>  <REMARK>
 VINA RESULT:      -6.1      3.577      9.308
  Name = 
  11 active torsions:
  status: ('A' for Active; 'I' for Inactive)
    1  A    between atoms: C_3  and  C_15
    2  A    between atoms: C_3  and  C_37
    3  A    between atoms: C_5  and  C_22
    4  A    between atoms: N_6  and  N_13
    5  A    between atoms: N_6  and  N_33
    6  A    between atoms: C_8  and  C_12
    7  A    between atoms: N_9  and  C_23
    8  A    between atoms: C_14  and  N_38
    9  A    between atoms: C_15  and  C_24
   10  A    between atoms: C_16  and  C_41
   11  A    between atoms: C_26  and  N_35
                            x       y       z     vdW  Elec       q    Type
                         _______ _______ _______ _____ _____    ______ ____

>  <TORSDO>
F 11

$$$$
=
 OpenBabel11042412413D

 43 48  0  0  1  0  0  0  0  0999 V2000
  188.2420  177.1520  136.5320 N   0  0  0  0  0  2  0  0  0  0  0  0
  187.4850  177.8260  139.1200 C   0  0  0  0  0  0  0  0  0  0  0  0
  186.6210  178.2020  137.9860 C   0  0  0  0  0  0  0  0  0  0  0  0
  188.5180  177.5460  141.0560 C   0  0  0  0  0  0  0  0  0  0  0  0
  186.3050  178.8540  141.1540 C   0  0  0  0  0  1  0  0  0  0  0  0
  188.6520  177.1330  138.9380 C   0  0  0  0  0  0  0  0  0  0  0  0
  189.2980  176.9300  140.1180 N   0  0  0  0  0  0  0  0  0  0  0  0
  187.3900  178.0990  140.4660 C   0  0  0  0  0  0  0  0  0  0  0  0
  189.0850  176.7900  137.6050 N   0  0  0  0  0  0  0  0  0  0  0  0
  187.0120  177.8690  136.7480 C   0  0  0  0  0  3  0  0  0  0  0  0
  190.2760  176.0650  137.3040 C   0  0  0  0  0  0  0  0  0  0  0  0
  191.4030  173.9580  136.9060 C   0  0  0  0  0  3  0  0  0  0  0  0
  192.5800  174.6380  136.5640 C   0  0  0  0  0  0  0  0  0  0  0  0
  192.5910  176.0430  136.5910 C   0  0  0  0  0  3  0  0  0  0  0  0
  191.4440  176.7530  136.9540 C   0  0  0  0  0  3  0  0  0  0  0  0
  190.2530  174.6650  137.2620 C   0  0  0  0  0  0  0  0  0  0  0  0
  189.1270  173.9860  137.5930 F   0  0  0  0  0  0  0  0  0  0  0  0
  193.7560  173.9080  136.1860 N   0  0  0  0  0  0  0  0  0  0  0  0
  195.9400  173.3300  135.7510 C   0  0  2  0  0  3  0  0  0  0  0  0
  193.7930  172.8680  135.1840 C   0  0  0  0  0  2  0  0  0  0  0  0
  195.0820  174.1990  136.6400 C   0  0  0  0  0  2  0  0  0  0  0  0
  195.1140  172.3870  135.0960 O   0  0  0  0  0  0  0  0  0  0  0  0
  198.0120  171.9880  135.6420 C   0  0  0  0  0  2  0  0  0  0  0  0
  196.9370  171.1300  136.2680 C   0  0  0  0  0  2  0  0  0  0  0  0
  196.9920  172.6120  136.5720 C   0  0  0  0  0  3  0  0  0  0  0  0
  188.8420  177.7010  142.4850 C   0  0  0  0  0  0  0  0  0  0  0  0
  189.5130  178.6940  142.8790 O   0  0  0  0  0  0  0  0  0  0  0  0
  188.4660  176.6760  143.4140 N   0  0  0  0  0  2  0  0  0  0  0  0
  188.7550  176.7900  144.7810 N   0  0  0  0  0  2  0  0  0  0  0  0
  187.7620  177.6070  145.3430 N   0  0  0  0  0  2  0  0  0  0  0  0
  186.7100  178.5020  147.2050 O   0  0  0  0  0  0  0  0  0  0  0  0
  187.6350  177.7780  146.7550 C   0  0  0  0  0  0  0  0  0  0  0  0
  188.5800  177.1250  147.7150 C   0  0  2  0  0  3  0  0  0  0  0  0
  188.0310  177.1030  148.9810 F   0  0  0  0  0  0  0  0  0  0  0  0
  189.9210  177.8470  147.7480 C   0  0  0  0  0  2  0  0  0  0  0  0
  192.0620  177.0750  148.4610 O   0  0  0  0  0  1  0  0  0  0  0  0
  191.0690  176.8850  147.4970 C   0  0  0  0  0  3  0  0  0  0  0  0
  191.6010  177.1270  146.2340 O   0  0  0  0  0  1  0  0  0  0  0  0
  191.7270  177.5030  140.0950 C   0  0  0  0  0  2  0  0  0  0  0  0
  190.6690  176.4230  140.2800 C   0  0  0  0  0  3  0  0  0  0  0  0
  191.3210  177.0920  141.4830 C   0  0  0  0  0  2  0  0  0  0  0  0
  184.2770  178.1160  138.3000 O   0  0  0  0  0  1  0  0  0  0  0  0
  185.3650  178.9850  138.1760 C   0  0  0  0  0  2  0  0  0  0  0  0
  1 10  1  0  0  0  0
  1  9  1  0  0  0  0
  2  8  1  0  0  0  0
  3 43  1  0  0  0  0
  3  2  1  0  0  0  0
  4 26  1  0  0  0  0
  6  2  2  0  0  0  0
  6  7  1  0  0  0  0
  7 40  1  0  0  0  0
  7  4  1  0  0  0  0
  8  4  2  0  0  0  0
  8  5  1  0  0  0  0
  9  6  1  0  0  0  0
 10  3  2  0  0  0  0
 11  9  1  0  0  0  0
 12 16  2  0  0  0  0
 13 14  2  0  0  0  0
 13 12  1  0  0  0  0
 14 15  1  0  0  0  0
 15 11  2  0  0  0  0
 16 11  1  0  0  0  0
 16 17  1  0  0  0  0
 18 13  1  0  0  0  0
 18 21  1  0  0  0  0
 19 25  1  1  0  0  0
 19 21  1  0  0  0  0
 20 18  1  0  0  0  0
 22 20  1  0  0  0  0
 22 19  1  0  0  0  0
 23 24  1  0  0  0  0
 23 25  1  0  0  0  0
 24 25  1  0  0  0  0
 26 27  2  0  0  0  0
 26 28  1  0  0  0  0
 28 29  1  0  0  0  0
 29 30  1  0  0  0  0
 30 32  1  0  0  0  0
 32 31  2  0  0  0  0
 32 33  1  0  0  0  0
 33 35  1  0  0  0  0
 33 34  1  1  0  0  0
 37 35  1  0  0  0  0
 37 36  1  0  0  0  0
 38 37  1  0  0  0  0
 39 40  1  0  0  0  0
 39 41  1  0  0  0  0
 40 41  1  0  0  0  0
 43 42  1  0  0  0  0
M  END
>  <MODEL>
8

>  <REMARK>
 VINA RESULT:      -6.0      3.851      7.791
  Name = 
  11 active torsions:
  status: ('A' for Active; 'I' for Inactive)
    1  A    between atoms: C_3  and  C_15
    2  A    between atoms: C_3  and  C_37
    3  A    between atoms: C_5  and  C_22
    4  A    between atoms: N_6  and  N_13
    5  A    between atoms: N_6  and  N_33
    6  A    between atoms: C_8  and  C_12
    7  A    between atoms: N_9  and  C_23
    8  A    between atoms: C_14  and  N_38
    9  A    between atoms: C_15  and  C_24
   10  A    between atoms: C_16  and  C_41
   11  A    between atoms: C_26  and  N_35
                            x       y       z     vdW  Elec       q    Type
                         _______ _______ _______ _____ _____    ______ ____

>  <TORSDO>
F 11

$$$$
=
 OpenBabel11042412413D

 43 48  0  0  1  0  0  0  0  0999 V2000
  190.0330  176.8250  142.5160 N   0  0  0  0  0  2  0  0  0  0  0  0
  187.5040  177.8780  142.0450 C   0  0  0  0  0  0  0  0  0  0  0  0
  187.9250  177.5810  143.4270 C   0  0  0  0  0  0  0  0  0  0  0  0
  186.4610  178.3640  140.1560 C   0  0  0  0  0  0  0  0  0  0  0  0
  185.0750  178.6650  142.3010 C   0  0  0  0  0  1  0  0  0  0  0  0
  188.3350  177.6640  140.9780 C   0  0  0  0  0  0  0  0  0  0  0  0
  187.7230  177.9750  139.8030 N   0  0  0  0  0  0  0  0  0  0  0  0
  186.3050  178.3190  141.5340 C   0  0  0  0  0  0  0  0  0  0  0  0
  189.6450  177.0960  141.1870 N   0  0  0  0  0  0  0  0  0  0  0  0
  189.1470  177.0700  143.6250 C   0  0  0  0  0  3  0  0  0  0  0  0
  190.5900  176.8410  140.1490 C   0  0  0  0  0  0  0  0  0  0  0  0
  192.8160  177.1040  139.2310 C   0  0  0  0  0  3  0  0  0  0  0  0
  192.5030  176.2210  138.1880 C   0  0  0  0  0  0  0  0  0  0  0  0
  191.2220  175.6460  138.1390 C   0  0  0  0  0  3  0  0  0  0  0  0
  190.2720  175.9510  139.1170 C   0  0  0  0  0  3  0  0  0  0  0  0
  191.8710  177.4040  140.2140 C   0  0  0  0  0  0  0  0  0  0  0  0
  192.1940  178.2640  141.2110 F   0  0  0  0  0  0  0  0  0  0  0  0
  193.4810  175.9060  137.1870 N   0  0  0  0  0  0  0  0  0  0  0  0
  195.4570  175.3780  136.1320 C   0  0  2  0  0  3  0  0  0  0  0  0
  193.4460  176.3810  135.8230 C   0  0  0  0  0  2  0  0  0  0  0  0
  194.7020  175.1980  137.4280 C   0  0  0  0  0  2  0  0  0  0  0  0
  194.5660  175.8600  135.1450 O   0  0  0  0  0  0  0  0  0  0  0  0
  197.5390  174.0550  136.0070 C   0  0  0  0  0  2  0  0  0  0  0  0
  197.0750  174.3240  134.5940 C   0  0  0  0  0  2  0  0  0  0  0  0
  196.0600  174.0620  135.6850 C   0  0  0  0  0  3  0  0  0  0  0  0
  185.3670  178.6990  139.2270 C   0  0  0  0  0  0  0  0  0  0  0  0
  184.9410  179.8840  139.1490 O   0  0  0  0  0  0  0  0  0  0  0  0
  184.7290  177.6580  138.4760 N   0  0  0  0  0  2  0  0  0  0  0  0
  183.6870  177.9380  137.5820 N   0  0  0  0  0  2  0  0  0  0  0  0
  182.7960  176.8570  137.6390 N   0  0  0  0  0  2  0  0  0  0  0  0
  181.0910  175.7100  138.7120 O   0  0  0  0  0  0  0  0  0  0  0  0
  181.8490  176.7140  138.6980 C   0  0  0  0  0  0  0  0  0  0  0  0
  181.7280  177.7320  139.7890 C   0  0  2  0  0  3  0  0  0  0  0  0
  182.5810  177.4180  140.8280 F   0  0  0  0  0  0  0  0  0  0  0  0
  180.2980  177.8220  140.3060 C   0  0  0  0  0  2  0  0  0  0  0  0
  178.9940  179.3050  138.9700 O   0  0  0  0  0  1  0  0  0  0  0  0
  179.7430  179.2260  140.1460 C   0  0  0  0  0  3  0  0  0  0  0  0
  180.7980  180.1310  140.0810 O   0  0  0  0  0  1  0  0  0  0  0  0
  187.6750  178.6050  137.3880 C   0  0  0  0  0  2  0  0  0  0  0  0
  188.2260  177.6680  138.4550 C   0  0  0  0  0  3  0  0  0  0  0  0
  189.0530  178.8400  137.9410 C   0  0  0  0  0  2  0  0  0  0  0  0
  187.7580  177.9010  145.7660 O   0  0  0  0  0  1  0  0  0  0  0  0
  187.0120  177.7820  144.5900 C   0  0  0  0  0  2  0  0  0  0  0  0
  1 10  1  0  0  0  0
  2  3  1  0  0  0  0
  3 10  2  0  0  0  0
  3 43  1  0  0  0  0
  4  8  2  0  0  0  0
  6  9  1  0  0  0  0
  6  2  2  0  0  0  0
  7  4  1  0  0  0  0
  7  6  1  0  0  0  0
  8  2  1  0  0  0  0
  8  5  1  0  0  0  0
  9  1  1  0  0  0  0
 11 16  1  0  0  0  0
 11  9  1  0  0  0  0
 12 16  2  0  0  0  0
 13 12  1  0  0  0  0
 14 13  2  0  0  0  0
 14 15  1  0  0  0  0
 15 11  2  0  0  0  0
 16 17  1  0  0  0  0
 18 21  1  0  0  0  0
 18 13  1  0  0  0  0
 19 25  1  6  0  0  0
 19 21  1  0  0  0  0
 20 18  1  0  0  0  0
 22 20  1  0  0  0  0
 22 19  1  0  0  0  0
 24 25  1  0  0  0  0
 24 23  1  0  0  0  0
 25 23  1  0  0  0  0
 26  4  1  0  0  0  0
 27 26  2  0  0  0  0
 28 26  1  0  0  0  0
 29 30  1  0  0  0  0
 29 28  1  0  0  0  0
 30 32  1  0  0  0  0
 32 31  2  0  0  0  0
 32 33  1  0  0  0  0
 33 35  1  0  0  0  0
 33 34  1  1  0  0  0
 36 37  1  0  0  0  0
 37 35  1  0  0  0  0
 38 37  1  0  0  0  0
 39 41  1  0  0  0  0
 39 40  1  0  0  0  0
 40  7  1  0  0  0  0
 41 40  1  0  0  0  0
 43 42  1  0  0  0  0
M  END
>  <MODEL>
9

>  <REMARK>
 VINA RESULT:      -5.9      2.647      3.717
  Name = 
  11 active torsions:
  status: ('A' for Active; 'I' for Inactive)
    1  A    between atoms: C_3  and  C_15
    2  A    between atoms: C_3  and  C_37
    3  A    between atoms: C_5  and  C_22
    4  A    between atoms: N_6  and  N_13
    5  A    between atoms: N_6  and  N_33
    6  A    between atoms: C_8  and  C_12
    7  A    between atoms: N_9  and  C_23
    8  A    between atoms: C_14  and  N_38
    9  A    between atoms: C_15  and  C_24
   10  A    between atoms: C_16  and  C_41
   11  A    between atoms: C_26  and  N_35
                            x       y       z     vdW  Elec       q    Type
                         _______ _______ _______ _____ _____    ______ ____

>  <TORSDO>
F 11

$$$$
