=
 OpenBabel11042412043D

 30 32  0  0  1  0  0  0  0  0999 V2000
  188.1380  177.3460  146.3230 C   0  0  0  0  0  3  0  0  0  0  0  0
  190.2350  177.0710  144.4230 C   0  0  0  0  0  0  0  0  0  0  0  0
  186.9760  177.6070  141.8660 C   0  0  0  0  0  2  0  0  0  0  0  0
  188.9020  176.4740  144.1920 C   0  0  1  0  0  3  0  0  0  0  0  0
  190.9660  177.6840  143.4500 C   0  0  0  0  0  3  0  0  0  0  0  0
  190.5840  177.2700  145.8440 C   0  0  0  0  0  0  0  0  0  0  0  0
  189.5140  177.0630  146.8900 C   0  0  0  0  0  2  0  0  0  0  0  0
  186.4980  177.4490  144.4600 C   0  0  0  0  0  2  0  0  0  0  0  0
  188.3280  176.9300  141.8520 C   0  0  2  0  0  3  0  0  0  0  0  0
  187.8320  177.0210  145.0590 C   0  0  0  0  0  0  0  0  0  0  0  0
  191.7470  177.6100  146.1910 O   0  0  0  0  0  0  0  0  0  0  0  0
  188.5830  176.3910  142.9690 C   0  0  0  0  0  2  0  0  0  0  0  0
  186.6530  178.3600  143.2040 C   0  0  2  0  0  3  0  0  0  0  0  0
  190.6480  177.8890  141.9860 C   0  0  0  0  0  3  0  0  0  0  0  0
  189.5180  177.6110  141.2640 C   0  0  0  0  0  0  0  0  0  0  0  0
  185.4300  179.8110  141.7580 O   0  0  0  0  0  1  0  0  0  0  0  0
  185.4560  179.3040  143.0590 C   0  0  1  0  0  3  0  0  0  0  0  0
  184.1100  178.6410  143.4000 C   0  0  2  0  0  3  0  0  0  0  0  0
  182.0580  178.9210  142.6140 C   0  0  0  0  0  1  0  0  0  0  0  0
  183.3320  178.4830  142.2490 O   0  0  0  0  0  0  0  0  0  0  0  0
  183.7140  179.0780  145.7300 O   0  0  0  0  0  1  0  0  0  0  0  0
  183.3310  179.4430  144.4380 C   0  0  0  0  0  2  0  0  0  0  0  0
  189.5280  177.9430  139.8180 C   0  0  0  0  0  0  0  0  0  0  0  0
  189.1380  179.0780  139.4280 O   0  0  0  0  0  0  0  0  0  0  0  0
  190.1450  176.7910  138.5840 S   0  0  0  0  0  0  0  0  0  0  0  0
  188.8990  177.2420  137.3780 C   0  0  0  0  0  0  0  0  0  0  0  0
  189.2180  177.8340  136.3600 O   0  0  0  0  0  0  0  0  0  0  0  0
  187.4670  176.8840  137.6230 C   0  0  0  0  0  2  0  0  0  0  0  0
  186.5410  178.0230  137.2290 C   0  0  0  0  0  2  0  0  0  0  0  0
  185.9970  178.6160  138.3690 O   0  0  0  0  0  1  0  0  0  0  0  0
  1  7  1  0  0  0  0
  2  6  1  0  0  0  0
  3 13  1  0  0  0  0
  4 12  1  6  0  0  0
  4  2  1  0  0  0  0
  4 10  1  0  0  0  0
  5  2  2  0  0  0  0
  6 11  2  0  0  0  0
  6  7  1  0  0  0  0
  8 10  1  0  0  0  0
  9  3  1  1  0  0  0
  9 12  1  0  0  0  0
 10  1  2  0  0  0  0
 13 17  1  6  0  0  0
 13  8  1  0  0  0  0
 14  5  1  0  0  0  0
 15  9  1  0  0  0  0
 15 14  2  0  0  0  0
 17 16  1  6  0  0  0
 17 18  1  0  0  0  0
 18 22  1  1  0  0  0
 20 19  1  0  0  0  0
 20 18  1  0  0  0  0
 22 21  1  0  0  0  0
 23 15  1  0  0  0  0
 24 23  2  0  0  0  0
 25 23  1  0  0  0  0
 26 28  1  0  0  0  0
 26 25  1  0  0  0  0
 27 26  2  0  0  0  0
 29 28  1  0  0  0  0
 29 30  1  0  0  0  0
M  END
>  <MODEL>
1

>  <REMARK>
 VINA RESULT:      -7.5      0.000      0.000
  Name = 
  9 active torsions:
  status: ('A' for Active; 'I' for Inactive)
    1  A    between atoms: C_3  and  C_28
    2  A    between atoms: C_3  and  S_29
    3  A    between atoms: C_8  and  C_22
    4  A    between atoms: C_11  and  C_24
    5  A    between atoms: C_11  and  C_26
    6  A    between atoms: C_17  and  C_22
    7  A    between atoms: C_17  and  S_29
    8  A    between atoms: O_18  and  C_26
    9  A    between atoms: C_26  and  C_30
                            x       y       z     vdW  Elec       q    Type
                         _______ _______ _______ _____ _____    ______ ____

>  <TORSDO>
F 9

$$$$
=
 OpenBabel11042412043D

 30 32  0  0  1  0  0  0  0  0999 V2000
  185.0470  178.8200  145.7960 C   0  0  0  0  0  3  0  0  0  0  0  0
  187.6220  177.7530  146.3530 C   0  0  0  0  0  0  0  0  0  0  0  0
  187.4450  177.1600  142.2210 C   0  0  0  0  0  2  0  0  0  0  0  0
  186.7220  177.1200  145.3650 C   0  0  1  0  0  3  0  0  0  0  0  0
  188.9650  177.8890  146.1700 C   0  0  0  0  0  3  0  0  0  0  0  0
  186.9360  178.5380  147.3990 C   0  0  0  0  0  0  0  0  0  0  0  0
  185.4550  178.8010  147.2550 C   0  0  0  0  0  2  0  0  0  0  0  0
  185.2990  178.1250  143.4240 C   0  0  0  0  0  2  0  0  0  0  0  0
  188.1090  176.5360  143.4290 C   0  0  2  0  0  3  0  0  0  0  0  0
  185.6120  177.9880  144.9090 C   0  0  0  0  0  0  0  0  0  0  0  0
  187.5620  178.9880  148.3940 O   0  0  0  0  0  0  0  0  0  0  0  0
  187.3290  176.5250  144.4260 C   0  0  0  0  0  2  0  0  0  0  0  0
  186.5620  178.4130  142.5550 C   0  0  2  0  0  3  0  0  0  0  0  0
  189.8330  177.4520  145.0120 C   0  0  0  0  0  3  0  0  0  0  0  0
  189.5070  176.8970  143.8030 C   0  0  0  0  0  0  0  0  0  0  0  0
  187.0720  178.8660  140.2700 O   0  0  0  0  0  1  0  0  0  0  0  0
  186.1940  179.2090  141.3000 C   0  0  1  0  0  3  0  0  0  0  0  0
  184.7370  179.0050  140.8510 C   0  0  2  0  0  3  0  0  0  0  0  0
  183.1250  177.5380  140.4550 C   0  0  0  0  0  1  0  0  0  0  0  0
  184.2840  177.7310  141.2090 O   0  0  0  0  0  0  0  0  0  0  0  0
  184.0640  180.4700  139.0680 O   0  0  0  0  0  1  0  0  0  0  0  0
  184.5770  179.2020  139.3460 C   0  0  0  0  0  2  0  0  0  0  0  0
  190.6170  176.5800  142.8700 C   0  0  0  0  0  0  0  0  0  0  0  0
  190.6700  175.4500  142.3120 O   0  0  0  0  0  0  0  0  0  0  0  0
  191.8780  177.7900  142.4510 S   0  0  0  0  0  0  0  0  0  0  0  0
  191.7340  177.4940  140.6890 C   0  0  0  0  0  0  0  0  0  0  0  0
  192.7310  177.2640  140.0240 O   0  0  0  0  0  0  0  0  0  0  0  0
  190.3870  177.5270  140.0400 C   0  0  0  0  0  2  0  0  0  0  0  0
  190.4220  176.8700  138.6690 C   0  0  0  0  0  2  0  0  0  0  0  0
  190.7300  175.5160  138.7930 O   0  0  0  0  0  1  0  0  0  0  0  0
  1  7  1  0  0  0  0
  2  6  1  0  0  0  0
  3 13  1  0  0  0  0
  4 12  1  6  0  0  0
  4  2  1  0  0  0  0
  5  2  2  0  0  0  0
  6 11  2  0  0  0  0
  7  6  1  0  0  0  0
  8 10  1  0  0  0  0
  9  3  1  6  0  0  0
  9 15  1  0  0  0  0
  9 12  1  0  0  0  0
 10  4  1  0  0  0  0
 10  1  2  0  0  0  0
 13 17  1  6  0  0  0
 13  8  1  0  0  0  0
 14  5  1  0  0  0  0
 15 14  2  0  0  0  0
 17 16  1  6  0  0  0
 18 22  1  6  0  0  0
 18 20  1  0  0  0  0
 18 17  1  0  0  0  0
 19 20  1  0  0  0  0
 21 22  1  0  0  0  0
 23 15  1  0  0  0  0
 24 23  2  0  0  0  0
 25 23  1  0  0  0  0
 26 25  1  0  0  0  0
 27 26  2  0  0  0  0
 28 26  1  0  0  0  0
 29 30  1  0  0  0  0
 29 28  1  0  0  0  0
M  END
>  <MODEL>
2

>  <REMARK>
 VINA RESULT:      -7.2      2.385      3.660
  Name = 
  9 active torsions:
  status: ('A' for Active; 'I' for Inactive)
    1  A    between atoms: C_3  and  C_28
    2  A    between atoms: C_3  and  S_29
    3  A    between atoms: C_8  and  C_22
    4  A    between atoms: C_11  and  C_24
    5  A    between atoms: C_11  and  C_26
    6  A    between atoms: C_17  and  C_22
    7  A    between atoms: C_17  and  S_29
    8  A    between atoms: O_18  and  C_26
    9  A    between atoms: C_26  and  C_30
                            x       y       z     vdW  Elec       q    Type
                         _______ _______ _______ _____ _____    ______ ____

>  <TORSDO>
F 9

$$$$
=
 OpenBabel11042412043D

 30 32  0  0  1  0  0  0  0  0999 V2000
  186.4460  178.2310  147.2500 C   0  0  0  0  0  3  0  0  0  0  0  0
  189.0920  177.6800  146.3670 C   0  0  0  0  0  0  0  0  0  0  0  0
  187.0300  177.4440  142.7420 C   0  0  0  0  0  2  0  0  0  0  0  0
  187.9260  176.9650  145.8040 C   0  0  1  0  0  3  0  0  0  0  0  0
  190.1460  178.1100  145.6200 C   0  0  0  0  0  3  0  0  0  0  0  0
  188.8930  178.2040  147.7340 C   0  0  0  0  0  0  0  0  0  0  0  0
  187.5060  178.1640  148.3310 C   0  0  0  0  0  2  0  0  0  0  0  0
  185.6180  177.8250  144.9440 C   0  0  0  0  0  2  0  0  0  0  0  0
  188.2740  176.8640  143.3780 C   0  0  2  0  0  3  0  0  0  0  0  0
  186.6240  177.6210  146.0700 C   0  0  0  0  0  0  0  0  0  0  0  0
  189.8510  178.6820  148.3960 O   0  0  0  0  0  0  0  0  0  0  0  0
  188.0820  176.5990  144.6020 C   0  0  0  0  0  2  0  0  0  0  0  0
  186.2510  178.4490  143.6620 C   0  0  2  0  0  3  0  0  0  0  0  0
  190.4000  177.9710  144.1360 C   0  0  0  0  0  3  0  0  0  0  0  0
  189.6130  177.4740  143.1310 C   0  0  0  0  0  0  0  0  0  0  0  0
  185.8120  179.7620  141.7190 O   0  0  0  0  0  1  0  0  0  0  0  0
  185.2170  179.2620  142.8800 C   0  0  1  0  0  3  0  0  0  0  0  0
  183.9500  178.4650  142.5280 C   0  0  2  0  0  3  0  0  0  0  0  0
  182.4770  178.4680  140.8730 C   0  0  0  0  0  1  0  0  0  0  0  0
  183.8360  178.3020  141.1440 O   0  0  0  0  0  0  0  0  0  0  0  0
  182.4500  178.7390  144.3870 O   0  0  0  0  0  1  0  0  0  0  0  0
  182.6900  179.1350  143.0700 C   0  0  0  0  0  2  0  0  0  0  0  0
  190.1680  177.4830  141.7550 C   0  0  0  0  0  0  0  0  0  0  0  0
  191.2500  178.0840  141.5150 O   0  0  0  0  0  0  0  0  0  0  0  0
  189.3730  176.6010  140.4060 S   0  0  0  0  0  0  0  0  0  0  0  0
  189.0240  178.0990  139.4850 C   0  0  0  0  0  0  0  0  0  0  0  0
  188.4230  179.0180  140.0170 O   0  0  0  0  0  0  0  0  0  0  0  0
  189.4750  178.2170  138.0640 C   0  0  0  0  0  2  0  0  0  0  0  0
  189.3810  176.8810  137.3450 C   0  0  0  0  0  2  0  0  0  0  0  0
  188.1880  176.8050  136.6270 O   0  0  0  0  0  1  0  0  0  0  0  0
  1  7  1  0  0  0  0
  2  6  1  0  0  0  0
  3 13  1  0  0  0  0
  4 12  1  6  0  0  0
  4 10  1  0  0  0  0
  4  2  1  0  0  0  0
  5  2  2  0  0  0  0
  6  7  1  0  0  0  0
  6 11  2  0  0  0  0
  8 10  1  0  0  0  0
  9  3  1  1  0  0  0
  9 12  1  0  0  0  0
 10  1  2  0  0  0  0
 13 17  1  6  0  0  0
 13  8  1  0  0  0  0
 14  5  1  0  0  0  0
 15  9  1  0  0  0  0
 15 14  2  0  0  0  0
 17 16  1  6  0  0  0
 18 17  1  0  0  0  0
 18 22  1  6  0  0  0
 19 20  1  0  0  0  0
 20 18  1  0  0  0  0
 22 21  1  0  0  0  0
 23 15  1  0  0  0  0
 24 23  2  0  0  0  0
 25 23  1  0  0  0  0
 26 27  2  0  0  0  0
 26 25  1  0  0  0  0
 28 26  1  0  0  0  0
 29 28  1  0  0  0  0
 30 29  1  0  0  0  0
M  END
>  <MODEL>
3

>  <REMARK>
 VINA RESULT:      -7.0      1.441      2.155
  Name = 
  9 active torsions:
  status: ('A' for Active; 'I' for Inactive)
    1  A    between atoms: C_3  and  C_28
    2  A    between atoms: C_3  and  S_29
    3  A    between atoms: C_8  and  C_22
    4  A    between atoms: C_11  and  C_24
    5  A    between atoms: C_11  and  C_26
    6  A    between atoms: C_17  and  C_22
    7  A    between atoms: C_17  and  S_29
    8  A    between atoms: O_18  and  C_26
    9  A    between atoms: C_26  and  C_30
                            x       y       z     vdW  Elec       q    Type
                         _______ _______ _______ _____ _____    ______ ____

>  <TORSDO>
F 9

$$$$
=
 OpenBabel11042412043D

 30 32  0  0  1  0  0  0  0  0999 V2000
  186.4150  177.9370  146.6380 C   0  0  0  0  0  3  0  0  0  0  0  0
  189.0430  177.5500  145.6230 C   0  0  0  0  0  0  0  0  0  0  0  0
  186.8690  177.6330  142.0570 C   0  0  0  0  0  2  0  0  0  0  0  0
  187.8760  176.8670  145.0240 C   0  0  1  0  0  3  0  0  0  0  0  0
  190.0620  178.0830  144.8930 C   0  0  0  0  0  3  0  0  0  0  0  0
  188.8760  177.9260  147.0420 C   0  0  0  0  0  0  0  0  0  0  0  0
  187.5110  177.7870  147.6740 C   0  0  0  0  0  2  0  0  0  0  0  0
  185.5220  177.7470  144.3280 C   0  0  0  0  0  2  0  0  0  0  0  0
  188.1470  177.0250  142.5920 C   0  0  2  0  0  3  0  0  0  0  0  0
  186.5690  177.4560  145.3960 C   0  0  0  0  0  0  0  0  0  0  0  0
  189.8440  178.3590  147.7210 O   0  0  0  0  0  0  0  0  0  0  0  0
  188.0010  176.6300  143.7860 C   0  0  0  0  0  2  0  0  0  0  0  0
  186.0970  178.5170  143.0990 C   0  0  2  0  0  3  0  0  0  0  0  0
  190.2690  178.1050  143.3950 C   0  0  0  0  0  3  0  0  0  0  0  0
  189.4620  177.6920  142.3690 C   0  0  0  0  0  0  0  0  0  0  0  0
  185.4660  179.7790  141.1760 O   0  0  0  0  0  1  0  0  0  0  0  0
  185.0180  179.3780  142.4370 C   0  0  1  0  0  3  0  0  0  0  0  0
  183.6570  178.6720  142.3210 C   0  0  2  0  0  3  0  0  0  0  0  0
  183.2070  177.5260  140.4790 C   0  0  0  0  0  1  0  0  0  0  0  0
  183.1390  178.8070  141.0280 O   0  0  0  0  0  0  0  0  0  0  0  0
  181.3610  179.1940  142.8030 O   0  0  0  0  0  1  0  0  0  0  0  0
  182.6520  179.2090  143.3340 C   0  0  0  0  0  2  0  0  0  0  0  0
  189.9710  177.8580  140.9850 C   0  0  0  0  0  0  0  0  0  0  0  0
  189.2730  178.4620  140.1240 O   0  0  0  0  0  0  0  0  0  0  0  0
  191.5990  177.2750  140.4970 S   0  0  0  0  0  0  0  0  0  0  0  0
  190.9770  176.3960  139.0630 C   0  0  0  0  0  0  0  0  0  0  0  0
  189.8950  175.8350  139.1120 O   0  0  0  0  0  0  0  0  0  0  0  0
  191.7890  176.3590  137.8080 C   0  0  0  0  0  2  0  0  0  0  0  0
  193.2770  176.4010  138.1160 C   0  0  0  0  0  2  0  0  0  0  0  0
  193.9870  176.8400  136.9980 O   0  0  0  0  0  1  0  0  0  0  0  0
  1  7  1  0  0  0  0
  2  6  1  0  0  0  0
  3 13  1  0  0  0  0
  4 12  1  6  0  0  0
  4 10  1  0  0  0  0
  4  2  1  0  0  0  0
  5  2  2  0  0  0  0
  6  7  1  0  0  0  0
  6 11  2  0  0  0  0
  8 10  1  0  0  0  0
  9  3  1  1  0  0  0
  9 12  1  0  0  0  0
 10  1  2  0  0  0  0
 13 17  1  6  0  0  0
 13  8  1  0  0  0  0
 14  5  1  0  0  0  0
 15  9  1  0  0  0  0
 15 14  2  0  0  0  0
 17 16  1  6  0  0  0
 18 17  1  0  0  0  0
 18 22  1  1  0  0  0
 19 20  1  0  0  0  0
 20 18  1  0  0  0  0
 21 22  1  0  0  0  0
 23 15  1  0  0  0  0
 24 23  2  0  0  0  0
 25 23  1  0  0  0  0
 26 27  2  0  0  0  0
 26 25  1  0  0  0  0
 28 29  1  0  0  0  0
 28 26  1  0  0  0  0
 30 29  1  0  0  0  0
M  END
>  <MODEL>
4

>  <REMARK>
 VINA RESULT:      -6.8      1.964      2.762
  Name = 
  9 active torsions:
  status: ('A' for Active; 'I' for Inactive)
    1  A    between atoms: C_3  and  C_28
    2  A    between atoms: C_3  and  S_29
    3  A    between atoms: C_8  and  C_22
    4  A    between atoms: C_11  and  C_24
    5  A    between atoms: C_11  and  C_26
    6  A    between atoms: C_17  and  C_22
    7  A    between atoms: C_17  and  S_29
    8  A    between atoms: O_18  and  C_26
    9  A    between atoms: C_26  and  C_30
                            x       y       z     vdW  Elec       q    Type
                         _______ _______ _______ _____ _____    ______ ____

>  <TORSDO>
F 9

$$$$
=
 OpenBabel11042412043D

 30 32  0  0  1  0  0  0  0  0999 V2000
  184.0660  178.5240  144.5480 C   0  0  0  0  0  3  0  0  0  0  0  0
  183.8270  178.8880  141.7390 C   0  0  0  0  0  0  0  0  0  0  0  0
  187.9290  178.1650  142.0530 C   0  0  0  0  0  2  0  0  0  0  0  0
  184.9880  179.4150  142.4890 C   0  0  1  0  0  3  0  0  0  0  0  0
  183.9240  178.3050  140.5110 C   0  0  0  0  0  3  0  0  0  0  0  0
  182.5990  178.7200  142.5410 C   0  0  0  0  0  0  0  0  0  0  0  0
  182.6840  178.8810  144.0410 C   0  0  0  0  0  2  0  0  0  0  0  0
  186.5280  178.3210  144.2880 C   0  0  0  0  0  2  0  0  0  0  0  0
  186.9760  178.9100  141.1450 C   0  0  2  0  0  3  0  0  0  0  0  0
  185.1610  178.8220  143.8350 C   0  0  0  0  0  0  0  0  0  0  0  0
  181.4960  178.4420  141.9990 O   0  0  0  0  0  0  0  0  0  0  0  0
  186.0550  179.4710  141.8090 C   0  0  0  0  0  2  0  0  0  0  0  0
  187.2260  177.4080  143.2330 C   0  0  2  0  0  3  0  0  0  0  0  0
  185.1410  178.0710  139.6450 C   0  0  0  0  0  3  0  0  0  0  0  0
  186.4720  178.2850  139.8880 C   0  0  0  0  0  0  0  0  0  0  0  0
  188.6160  175.4890  142.9590 O   0  0  0  0  0  1  0  0  0  0  0  0
  188.1620  176.4040  143.9120 C   0  0  1  0  0  3  0  0  0  0  0  0
  189.3520  177.0640  144.6280 C   0  0  2  0  0  3  0  0  0  0  0  0
  191.2960  177.6770  143.7580 C   0  0  0  0  0  1  0  0  0  0  0  0
  190.5630  176.5540  144.1460 O   0  0  0  0  0  0  0  0  0  0  0  0
  189.1560  178.1030  146.7860 O   0  0  0  0  0  1  0  0  0  0  0  0
  189.2810  176.8720  146.1400 C   0  0  0  0  0  2  0  0  0  0  0  0
  187.4310  177.9410  138.8080 C   0  0  0  0  0  0  0  0  0  0  0  0
  187.1120  177.0980  137.9260 O   0  0  0  0  0  0  0  0  0  0  0  0
  189.0340  178.7420  138.6740 S   0  0  0  0  0  0  0  0  0  0  0  0
  189.9390  177.2010  138.8200 C   0  0  0  0  0  0  0  0  0  0  0  0
  190.0640  176.6660  139.9090 O   0  0  0  0  0  0  0  0  0  0  0  0
  190.5370  176.5750  137.6000 C   0  0  0  0  0  2  0  0  0  0  0  0
  191.5780  175.5320  137.9730 C   0  0  0  0  0  2  0  0  0  0  0  0
  191.0620  174.2500  137.7880 O   0  0  0  0  0  1  0  0  0  0  0  0
  2  4  1  0  0  0  0
  2  6  1  0  0  0  0
  3 13  1  0  0  0  0
  4 12  1  6  0  0  0
  4 10  1  0  0  0  0
  5  2  2  0  0  0  0
  6  7  1  0  0  0  0
  7  1  1  0  0  0  0
  9 12  1  1  0  0  0
  9  3  1  0  0  0  0
 10  8  1  0  0  0  0
 10  1  2  0  0  0  0
 11  6  2  0  0  0  0
 13 17  1  1  0  0  0
 13  8  1  0  0  0  0
 14 15  2  0  0  0  0
 14  5  1  0  0  0  0
 15  9  1  0  0  0  0
 17 16  1  6  0  0  0
 17 18  1  0  0  0  0
 18 22  1  1  0  0  0
 19 20  1  0  0  0  0
 20 18  1  0  0  0  0
 22 21  1  0  0  0  0
 23 15  1  0  0  0  0
 24 23  2  0  0  0  0
 25 23  1  0  0  0  0
 25 26  1  0  0  0  0
 26 27  2  0  0  0  0
 28 29  1  0  0  0  0
 28 26  1  0  0  0  0
 30 29  1  0  0  0  0
M  END
>  <MODEL>
5

>  <REMARK>
 VINA RESULT:      -6.5      2.093      5.569
  Name = 
  9 active torsions:
  status: ('A' for Active; 'I' for Inactive)
    1  A    between atoms: C_3  and  C_28
    2  A    between atoms: C_3  and  S_29
    3  A    between atoms: C_8  and  C_22
    4  A    between atoms: C_11  and  C_24
    5  A    between atoms: C_11  and  C_26
    6  A    between atoms: C_17  and  C_22
    7  A    between atoms: C_17  and  S_29
    8  A    between atoms: O_18  and  C_26
    9  A    between atoms: C_26  and  C_30
                            x       y       z     vdW  Elec       q    Type
                         _______ _______ _______ _____ _____    ______ ____

>  <TORSDO>
F 9

$$$$
=
 OpenBabel11042412043D

 30 32  0  0  1  0  0  0  0  0999 V2000
  186.1950  178.6410  140.8210 C   0  0  0  0  0  3  0  0  0  0  0  0
  187.2990  177.8150  138.3350 C   0  0  0  0  0  0  0  0  0  0  0  0
  190.5580  177.1460  140.8600 C   0  0  0  0  0  2  0  0  0  0  0  0
  188.1020  178.5650  139.3250 C   0  0  1  0  0  3  0  0  0  0  0  0
  187.7830  176.7720  137.6040 C   0  0  0  0  0  3  0  0  0  0  0  0
  185.8410  178.0380  138.4270 C   0  0  0  0  0  0  0  0  0  0  0  0
  185.2980  178.8040  139.6110 C   0  0  0  0  0  2  0  0  0  0  0  0
  188.4010  178.2640  141.8980 C   0  0  0  0  0  2  0  0  0  0  0  0
  190.3000  177.4800  139.4070 C   0  0  2  0  0  3  0  0  0  0  0  0
  187.5270  178.5780  140.6900 C   0  0  0  0  0  0  0  0  0  0  0  0
  185.0560  177.5990  137.5460 O   0  0  0  0  0  0  0  0  0  0  0  0
  189.3390  178.2970  139.2890 C   0  0  0  0  0  2  0  0  0  0  0  0
  189.2560  176.9720  141.7170 C   0  0  2  0  0  3  0  0  0  0  0  0
  189.1650  176.1580  137.5940 C   0  0  0  0  0  3  0  0  0  0  0  0
  190.2660  176.4070  138.3710 C   0  0  0  0  0  0  0  0  0  0  0  0
  190.3640  175.1990  142.8650 O   0  0  0  0  0  1  0  0  0  0  0  0
  189.5390  176.3080  143.0670 C   0  0  1  0  0  3  0  0  0  0  0  0
  190.1690  177.2600  144.0970 C   0  0  2  0  0  3  0  0  0  0  0  0
  191.4760  176.7530  145.8120 C   0  0  0  0  0  1  0  0  0  0  0  0
  191.4670  176.8510  144.4200 O   0  0  0  0  0  0  0  0  0  0  0  0
  187.9850  177.1020  145.0900 O   0  0  0  0  0  1  0  0  0  0  0  0
  189.3300  177.3530  145.3680 C   0  0  0  0  0  2  0  0  0  0  0  0
  191.4900  175.6140  138.1010 C   0  0  0  0  0  0  0  0  0  0  0  0
  191.4050  174.3730  137.8910 O   0  0  0  0  0  0  0  0  0  0  0  0
  193.1130  176.3790  138.0000 S   0  0  0  0  0  0  0  0  0  0  0  0
  193.4730  175.6620  136.3970 C   0  0  0  0  0  0  0  0  0  0  0  0
  192.8170  175.9850  135.4200 O   0  0  0  0  0  0  0  0  0  0  0  0
  194.5840  174.6690  136.2620 C   0  0  0  0  0  2  0  0  0  0  0  0
  195.2500  174.4050  137.6030 C   0  0  0  0  0  2  0  0  0  0  0  0
  196.5620  174.8780  137.5900 O   0  0  0  0  0  1  0  0  0  0  0  0
  2  6  1  0  0  0  0
  2  4  1  0  0  0  0
  3 13  1  0  0  0  0
  4 12  1  1  0  0  0
  4 10  1  0  0  0  0
  5  2  2  0  0  0  0
  6  7  1  0  0  0  0
  7  1  1  0  0  0  0
  9 12  1  1  0  0  0
  9  3  1  0  0  0  0
 10  1  2  0  0  0  0
 10  8  1  0  0  0  0
 11  6  2  0  0  0  0
 13  8  1  0  0  0  0
 13 17  1  1  0  0  0
 14  5  1  0  0  0  0
 14 15  2  0  0  0  0
 15  9  1  0  0  0  0
 17 16  1  6  0  0  0
 17 18  1  0  0  0  0
 18 20  1  0  0  0  0
 18 22  1  1  0  0  0
 20 19  1  0  0  0  0
 21 22  1  0  0  0  0
 23 15  1  0  0  0  0
 24 23  2  0  0  0  0
 25 23  1  0  0  0  0
 26 25  1  0  0  0  0
 27 26  2  0  0  0  0
 28 26  1  0  0  0  0
 28 29  1  0  0  0  0
 30 29  1  0  0  0  0
M  END
>  <MODEL>
6

>  <REMARK>
 VINA RESULT:      -6.5      3.199      6.495
  Name = 
  9 active torsions:
  status: ('A' for Active; 'I' for Inactive)
    1  A    between atoms: C_3  and  C_28
    2  A    between atoms: C_3  and  S_29
    3  A    between atoms: C_8  and  C_22
    4  A    between atoms: C_11  and  C_24
    5  A    between atoms: C_11  and  C_26
    6  A    between atoms: C_17  and  C_22
    7  A    between atoms: C_17  and  S_29
    8  A    between atoms: O_18  and  C_26
    9  A    between atoms: C_26  and  C_30
                            x       y       z     vdW  Elec       q    Type
                         _______ _______ _______ _____ _____    ______ ____

>  <TORSDO>
F 9

$$$$
=
 OpenBabel11042412043D

 30 32  0  0  1  0  0  0  0  0999 V2000
  184.7520  178.6560  144.0390 C   0  0  0  0  0  3  0  0  0  0  0  0
  186.7240  178.1070  146.0120 C   0  0  0  0  0  0  0  0  0  0  0  0
  188.7870  176.9800  142.5580 C   0  0  0  0  0  2  0  0  0  0  0  0
  186.5270  177.2150  144.8480 C   0  0  1  0  0  3  0  0  0  0  0  0
  187.9490  178.4390  146.5090 C   0  0  0  0  0  3  0  0  0  0  0  0
  185.5340  178.8920  146.3950 C   0  0  0  0  0  0  0  0  0  0  0  0
  184.3340  178.8880  145.4770 C   0  0  0  0  0  2  0  0  0  0  0  0
  186.2630  177.7210  142.3040 C   0  0  0  0  0  2  0  0  0  0  0  0
  188.7640  176.6300  144.0300 C   0  0  2  0  0  3  0  0  0  0  0  0
  185.7590  177.8250  143.7380 C   0  0  0  0  0  0  0  0  0  0  0  0
  185.5080  179.5610  147.4620 O   0  0  0  0  0  0  0  0  0  0  0  0
  187.5800  176.6160  144.4790 C   0  0  0  0  0  2  0  0  0  0  0  0
  187.7680  178.1020  142.1530 C   0  0  2  0  0  3  0  0  0  0  0  0
  189.3250  178.0100  146.0550 C   0  0  0  0  0  3  0  0  0  0  0  0
  189.7260  177.2610  144.9800 C   0  0  0  0  0  0  0  0  0  0  0  0
  188.9080  179.7620  140.8750 O   0  0  0  0  0  1  0  0  0  0  0  0
  188.0540  178.6630  140.7570 C   0  0  1  0  0  3  0  0  0  0  0  0
  188.6500  177.6260  139.7910 C   0  0  2  0  0  3  0  0  0  0  0  0
  190.6090  176.7120  139.3070 C   0  0  0  0  0  1  0  0  0  0  0  0
  189.9760  177.9440  139.4800 O   0  0  0  0  0  0  0  0  0  0  0  0
  186.7680  178.4160  138.5220 O   0  0  0  0  0  1  0  0  0  0  0  0
  187.8350  177.5160  138.5060 C   0  0  0  0  0  2  0  0  0  0  0  0
  191.1800  177.0180  144.8150 C   0  0  0  0  0  0  0  0  0  0  0  0
  191.9450  177.9660  144.4870 O   0  0  0  0  0  0  0  0  0  0  0  0
  191.9150  175.4090  145.1320 S   0  0  0  0  0  0  0  0  0  0  0  0
  191.7740  175.5720  146.9120 C   0  0  0  0  0  0  0  0  0  0  0  0
  190.6810  175.4970  147.4490 O   0  0  0  0  0  0  0  0  0  0  0  0
  193.0030  175.7960  147.7350 C   0  0  0  0  0  2  0  0  0  0  0  0
  192.7280  176.7540  148.8830 C   0  0  0  0  0  2  0  0  0  0  0  0
  193.8930  176.9710  149.6170 O   0  0  0  0  0  1  0  0  0  0  0  0
  1  7  1  0  0  0  0
  2  6  1  0  0  0  0
  2  5  2  0  0  0  0
  4 12  1  6  0  0  0
  4  2  1  0  0  0  0
  6 11  2  0  0  0  0
  7  6  1  0  0  0  0
  8 10  1  0  0  0  0
  9  3  1  6  0  0  0
  9 12  1  0  0  0  0
  9 15  1  0  0  0  0
 10  1  2  0  0  0  0
 10  4  1  0  0  0  0
 13 17  1  6  0  0  0
 13  8  1  0  0  0  0
 13  3  1  0  0  0  0
 14  5  1  0  0  0  0
 15 14  2  0  0  0  0
 17 16  1  1  0  0  0
 18 22  1  6  0  0  0
 18 17  1  0  0  0  0
 19 20  1  0  0  0  0
 20 18  1  0  0  0  0
 22 21  1  0  0  0  0
 23 15  1  0  0  0  0
 23 25  1  0  0  0  0
 24 23  2  0  0  0  0
 25 26  1  0  0  0  0
 26 27  2  0  0  0  0
 26 28  1  0  0  0  0
 28 29  1  0  0  0  0
 29 30  1  0  0  0  0
M  END
>  <MODEL>
7

>  <REMARK>
 VINA RESULT:      -6.4      2.239      6.808
  Name = 
  9 active torsions:
  status: ('A' for Active; 'I' for Inactive)
    1  A    between atoms: C_3  and  C_28
    2  A    between atoms: C_3  and  S_29
    3  A    between atoms: C_8  and  C_22
    4  A    between atoms: C_11  and  C_24
    5  A    between atoms: C_11  and  C_26
    6  A    between atoms: C_17  and  C_22
    7  A    between atoms: C_17  and  S_29
    8  A    between atoms: O_18  and  C_26
    9  A    between atoms: C_26  and  C_30
                            x       y       z     vdW  Elec       q    Type
                         _______ _______ _______ _____ _____    ______ ____

>  <TORSDO>
F 9

$$$$
=
 OpenBabel11042412043D

 30 32  0  0  1  0  0  0  0  0999 V2000
  191.2100  177.1000  140.7280 C   0  0  0  0  0  3  0  0  0  0  0  0
  188.4780  177.8810  140.6410 C   0  0  0  0  0  0  0  0  0  0  0  0
  188.7920  176.7050  144.6370 C   0  0  0  0  0  2  0  0  0  0  0  0
  188.9180  176.7000  141.4130 C   0  0  1  0  0  3  0  0  0  0  0  0
  187.5410  178.7660  141.0840 C   0  0  0  0  0  3  0  0  0  0  0  0
  189.3570  178.2420  139.5100 C   0  0  0  0  0  0  0  0  0  0  0  0
  190.6890  177.5420  139.3750 C   0  0  0  0  0  2  0  0  0  0  0  0
  190.8970  176.3570  143.0770 C   0  0  0  0  0  2  0  0  0  0  0  0
  187.7330  176.7870  143.5590 C   0  0  2  0  0  3  0  0  0  0  0  0
  190.3750  176.6530  141.6770 C   0  0  0  0  0  0  0  0  0  0  0  0
  189.0170  179.1170  138.6700 O   0  0  0  0  0  0  0  0  0  0  0  0
  188.2030  176.4570  142.4300 C   0  0  0  0  0  2  0  0  0  0  0  0
  190.2050  177.2130  144.1830 C   0  0  2  0  0  3  0  0  0  0  0  0
  186.7480  178.7720  142.3710 C   0  0  0  0  0  3  0  0  0  0  0  0
  186.8190  177.9630  143.4750 C   0  0  0  0  0  0  0  0  0  0  0  0
  191.6000  178.7570  145.3490 O   0  0  0  0  0  1  0  0  0  0  0  0
  191.1450  177.4370  145.3710 C   0  0  1  0  0  3  0  0  0  0  0  0
  190.5010  177.1170  146.7300 C   0  0  2  0  0  3  0  0  0  0  0  0
  188.8040  177.7570  148.0020 C   0  0  0  0  0  1  0  0  0  0  0  0
  189.8790  178.2520  147.2610 O   0  0  0  0  0  0  0  0  0  0  0  0
  192.4380  175.7400  147.0900 O   0  0  0  0  0  1  0  0  0  0  0  0
  191.5220  176.5780  147.7280 C   0  0  0  0  0  2  0  0  0  0  0  0
  185.8830  178.2410  144.5920 C   0  0  0  0  0  0  0  0  0  0  0  0
  185.7900  177.4310  145.5540 O   0  0  0  0  0  0  0  0  0  0  0  0
  184.9060  179.7480  144.6570 S   0  0  0  0  0  0  0  0  0  0  0  0
  183.4460  178.9630  143.9740 C   0  0  0  0  0  0  0  0  0  0  0  0
  182.5290  178.6330  144.7070 O   0  0  0  0  0  0  0  0  0  0  0  0
  183.3580  178.7190  142.5010 C   0  0  0  0  0  2  0  0  0  0  0  0
  181.9440  178.9470  141.9900 C   0  0  0  0  0  2  0  0  0  0  0  0
  181.6990  178.1430  140.8770 O   0  0  0  0  0  1  0  0  0  0  0  0
  1 10  2  0  0  0  0
  2  5  2  0  0  0  0
  2  4  1  0  0  0  0
  4 10  1  0  0  0  0
  4 12  1  1  0  0  0
  5 14  1  0  0  0  0
  6  2  1  0  0  0  0
  7  6  1  0  0  0  0
  7  1  1  0  0  0  0
  8 13  1  0  0  0  0
  9 12  1  6  0  0  0
  9  3  1  0  0  0  0
 10  8  1  0  0  0  0
 11  6  2  0  0  0  0
 13  3  1  0  0  0  0
 13 17  1  1  0  0  0
 14 15  2  0  0  0  0
 15  9  1  0  0  0  0
 15 23  1  0  0  0  0
 17 16  1  1  0  0  0
 17 18  1  0  0  0  0
 18 20  1  0  0  0  0
 18 22  1  1  0  0  0
 20 19  1  0  0  0  0
 21 22  1  0  0  0  0
 23 25  1  0  0  0  0
 23 24  2  0  0  0  0
 26 25  1  0  0  0  0
 26 27  2  0  0  0  0
 28 26  1  0  0  0  0
 29 28  1  0  0  0  0
 30 29  1  0  0  0  0
M  END
>  <MODEL>
8

>  <REMARK>
 VINA RESULT:      -6.3      2.338      6.541
  Name = 
  9 active torsions:
  status: ('A' for Active; 'I' for Inactive)
    1  A    between atoms: C_3  and  C_28
    2  A    between atoms: C_3  and  S_29
    3  A    between atoms: C_8  and  C_22
    4  A    between atoms: C_11  and  C_24
    5  A    between atoms: C_11  and  C_26
    6  A    between atoms: C_17  and  C_22
    7  A    between atoms: C_17  and  S_29
    8  A    between atoms: O_18  and  C_26
    9  A    between atoms: C_26  and  C_30
                            x       y       z     vdW  Elec       q    Type
                         _______ _______ _______ _____ _____    ______ ____

>  <TORSDO>
F 9

$$$$
=
 OpenBabel11042412043D

 30 32  0  0  1  0  0  0  0  0999 V2000
  191.2120  176.7090  142.6420 C   0  0  0  0  0  3  0  0  0  0  0  0
  188.7750  177.7130  143.7090 C   0  0  0  0  0  0  0  0  0  0  0  0
  188.0640  178.2110  139.6230 C   0  0  0  0  0  2  0  0  0  0  0  0
  189.4270  178.3480  142.5440 C   0  0  1  0  0  3  0  0  0  0  0  0
  187.4290  177.5320  143.8150 C   0  0  0  0  0  3  0  0  0  0  0  0
  189.6910  176.9740  144.6020 C   0  0  0  0  0  0  0  0  0  0  0  0
  191.1170  176.7510  144.1540 C   0  0  0  0  0  2  0  0  0  0  0  0
  190.4450  177.3380  140.3650 C   0  0  0  0  0  2  0  0  0  0  0  0
  187.6460  178.8440  140.9320 C   0  0  2  0  0  3  0  0  0  0  0  0
  190.4460  177.5020  141.8800 C   0  0  0  0  0  0  0  0  0  0  0  0
  189.3030  176.5290  145.7140 O   0  0  0  0  0  0  0  0  0  0  0  0
  188.6170  178.9020  141.7430 C   0  0  0  0  0  2  0  0  0  0  0  0
  189.0390  176.9920  139.7860 C   0  0  2  0  0  3  0  0  0  0  0  0
  186.3240  177.9160  142.8580 C   0  0  0  0  0  3  0  0  0  0  0  0
  186.3700  178.4510  141.5970 C   0  0  0  0  0  0  0  0  0  0  0  0
  187.9130  176.1150  137.8750 O   0  0  0  0  0  1  0  0  0  0  0  0
  189.1630  176.1770  138.4960 C   0  0  1  0  0  3  0  0  0  0  0  0
  190.2160  176.7300  137.5210 C   0  0  2  0  0  3  0  0  0  0  0  0
  190.1650  176.7500  135.3070 C   0  0  0  0  0  1  0  0  0  0  0  0
  189.6020  177.3550  136.4310 O   0  0  0  0  0  0  0  0  0  0  0  0
  191.2680  174.6150  137.9680 O   0  0  0  0  0  1  0  0  0  0  0  0
  191.1540  175.6350  137.0220 C   0  0  0  0  0  2  0  0  0  0  0  0
  185.0800  178.7120  140.9140 C   0  0  0  0  0  0  0  0  0  0  0  0
  184.9340  179.7540  140.2170 O   0  0  0  0  0  0  0  0  0  0  0  0
  183.7130  177.5480  140.9910 S   0  0  0  0  0  0  0  0  0  0  0  0
  182.7100  178.6220  142.0180 C   0  0  0  0  0  0  0  0  0  0  0  0
  183.1650  179.0750  143.0550 O   0  0  0  0  0  0  0  0  0  0  0  0
  181.3160  178.9620  141.5950 C   0  0  0  0  0  2  0  0  0  0  0  0
  180.3230  178.6960  142.7140 C   0  0  0  0  0  2  0  0  0  0  0  0
  179.5130  177.6070  142.3890 O   0  0  0  0  0  1  0  0  0  0  0  0
  1  7  1  0  0  0  0
  2  5  2  0  0  0  0
  2  6  1  0  0  0  0
  3 13  1  0  0  0  0
  4 12  1  6  0  0  0
  4  2  1  0  0  0  0
  6 11  2  0  0  0  0
  7  6  1  0  0  0  0
  8 10  1  0  0  0  0
  9  3  1  6  0  0  0
  9 15  1  0  0  0  0
  9 12  1  0  0  0  0
 10  4  1  0  0  0  0
 10  1  2  0  0  0  0
 13 17  1  6  0  0  0
 13  8  1  0  0  0  0
 14  5  1  0  0  0  0
 15 14  2  0  0  0  0
 17 16  1  6  0  0  0
 18 22  1  6  0  0  0
 18 17  1  0  0  0  0
 19 20  1  0  0  0  0
 20 18  1  0  0  0  0
 22 21  1  0  0  0  0
 23 25  1  0  0  0  0
 23 15  1  0  0  0  0
 24 23  2  0  0  0  0
 25 26  1  0  0  0  0
 26 27  2  0  0  0  0
 28 26  1  0  0  0  0
 28 29  1  0  0  0  0
 30 29  1  0  0  0  0
M  END
>  <MODEL>
9

>  <REMARK>
 VINA RESULT:      -6.2      2.221      6.388
  Name = 
  9 active torsions:
  status: ('A' for Active; 'I' for Inactive)
    1  A    between atoms: C_3  and  C_28
    2  A    between atoms: C_3  and  S_29
    3  A    between atoms: C_8  and  C_22
    4  A    between atoms: C_11  and  C_24
    5  A    between atoms: C_11  and  C_26
    6  A    between atoms: C_17  and  C_22
    7  A    between atoms: C_17  and  S_29
    8  A    between atoms: O_18  and  C_26
    9  A    between atoms: C_26  and  C_30
                            x       y       z     vdW  Elec       q    Type
                         _______ _______ _______ _____ _____    ______ ____

>  <TORSDO>
F 9

$$$$
