=
 OpenBabel11042411073D

 39 41  0  0  1  0  0  0  0  0999 V2000
  185.9900  178.5870  141.6400 N   0  0  0  0  0  0  0  0  0  0  0  0
  184.8250  178.9480  141.1790 C   0  0  0  0  0  0  0  0  0  0  0  0
  187.3390  178.6070  139.6830 N   0  0  0  0  0  0  0  0  0  0  0  0
  189.2310  178.3070  137.9280 C   0  0  1  0  0  3  0  0  0  0  0  0
  189.1970  177.4310  140.2370 C   0  0  0  0  0  0  0  0  0  0  0  0
  187.1860  178.2510  140.9170 C   0  0  0  0  0  0  0  0  0  0  0  0
  190.2550  177.2860  137.6740 N   0  0  0  0  0  2  0  0  0  0  0  0
  188.3190  177.4100  141.4310 C   0  0  0  0  0  2  0  0  0  0  0  0
  188.2340  178.2650  136.8740 N   0  0  0  0  0  1  0  0  0  0  0  0
  190.5380  176.7820  140.0780 C   0  0  2  0  0  3  0  0  0  0  0  0
  191.3390  177.1000  141.1580 F   0  0  0  0  0  0  0  0  0  0  0  0
  188.5830  178.0700  139.2610 C   0  0  0  0  0  0  0  0  0  0  0  0
  191.2130  177.2660  138.7850 C   0  0  1  0  0  3  0  0  0  0  0  0
  192.2630  176.4240  138.4700 F   0  0  0  0  0  0  0  0  0  0  0  0
  184.0850  177.7430  139.0950 N   0  0  0  0  0  2  0  0  0  0  0  0
  184.3770  180.0850  139.1140 N   0  0  0  0  0  2  0  0  0  0  0  0
  184.4930  178.9560  139.7360 C   0  0  0  0  0  0  0  0  0  0  0  0
  183.6860  177.6880  137.6940 C   0  0  0  0  0  2  0  0  0  0  0  0
  184.7580  177.0130  136.8530 C   0  0  0  0  0  2  0  0  0  0  0  0
  187.0950  172.5730  136.5890 C   0  0  0  0  0  1  0  0  0  0  0  0
  186.8500  175.3070  136.0050 O   0  0  0  0  0  0  0  0  0  0  0  0
  185.9840  173.3960  137.0410 N   0  0  0  0  0  0  0  0  0  0  0  0
  184.8980  175.6170  137.2380 N   0  0  0  0  0  2  0  0  0  0  0  0
  185.9520  174.7980  136.7310 C   0  0  0  0  0  0  0  0  0  0  0  0
  185.0420  172.8300  137.9150 N   0  0  0  0  0  2  0  0  0  0  0  0
  184.0570  172.1230  137.1100 C   0  0  0  0  0  1  0  0  0  0  0  0
  183.7590  179.2740  142.1900 C   0  0  1  0  0  3  0  0  0  0  0  0
  182.5210  178.7470  141.8220 O   0  0  0  0  0  1  0  0  0  0  0  0
  185.4720  179.0120  144.0260 N   0  0  0  0  0  2  0  0  0  0  0  0
  184.1220  178.8390  143.5770 C   0  0  0  0  0  0  0  0  0  0  0  0
  183.2390  178.3950  144.3600 O   0  0  0  0  0  0  0  0  0  0  0  0
  188.0790  177.1620  145.6230 C   0  0  0  0  0  3  0  0  0  0  0  0
  188.4680  177.5400  146.8420 C   0  0  0  0  0  0  0  0  0  0  0  0
  185.8600  179.1230  146.4000 C   0  0  0  0  0  3  0  0  0  0  0  0
  186.4080  178.6950  147.7020 C   0  0  0  0  0  3  0  0  0  0  0  0
  186.6520  177.1290  145.1870 C   0  0  0  0  0  2  0  0  0  0  0  0
  190.1630  177.3800  147.2560 Cl  0  0  0  0  0  0  0  0  0  0  0  0
  186.0300  178.4860  145.2350 C   0  0  0  0  0  0  0  0  0  0  0  0
  187.5410  178.0080  147.8940 C   0  0  0  0  0  3  0  0  0  0  0  0
  2  1  2  0  0  0  0
  2 27  1  0  0  0  0
  3  6  2  0  0  0  0
  4  9  1  6  0  0  0
  4 12  1  0  0  0  0
  5  8  1  0  0  0  0
  6  8  1  0  0  0  0
  6  1  1  0  0  0  0
  7  4  1  0  0  0  0
  7 13  1  0  0  0  0
 10  5  1  0  0  0  0
 10 11  1  1  0  0  0
 12  3  1  0  0  0  0
 12  5  2  0  0  0  0
 13 14  1  6  0  0  0
 13 10  1  0  0  0  0
 15 17  1  0  0  0  0
 16 17  2  0  0  0  0
 17  2  1  0  0  0  0
 18 15  1  0  0  0  0
 19 23  1  0  0  0  0
 19 18  1  0  0  0  0
 20 22  1  0  0  0  0
 21 24  2  0  0  0  0
 22 25  1  0  0  0  0
 24 22  1  0  0  0  0
 24 23  1  0  0  0  0
 26 25  1  0  0  0  0
 27 28  1  6  0  0  0
 27 30  1  0  0  0  0
 29 38  1  0  0  0  0
 30 29  1  0  0  0  0
 30 31  2  0  0  0  0
 32 33  2  0  0  0  0
 33 37  1  0  0  0  0
 33 39  1  0  0  0  0
 34 35  1  0  0  0  0
 35 39  2  0  0  0  0
 36 38  1  0  0  0  0
 36 32  1  0  0  0  0
 38 34  2  0  0  0  0
M  END
>  <MODEL>
1

>  <REMARK>
 VINA RESULT:      -8.6      0.000      0.000
  Name = 
  9 active torsions:
  status: ('A' for Active; 'I' for Inactive)
    1  A    between atoms: N_5  and  N_26
    2  A    between atoms: C_8  and  N_14
    3  A    between atoms: N_10  and  C_29
    4  A    between atoms: C_16  and  C_17
    5  A    between atoms: C_16  and  C_32
    6  A    between atoms: C_28  and  N_30
    7  A    between atoms: C_28  and  C_35
    8  A    between atoms: C_32  and  C_39
    9  A    between atoms: C_35  and  N_36
                            x       y       z     vdW  Elec       q    Type
                         _______ _______ _______ _____ _____    ______ ____

>  <TORSDO>
F 9

$$$$
=
 OpenBabel11042411073D

 39 41  0  0  1  0  0  0  0  0999 V2000
  186.1230  178.8510  142.5410 N   0  0  0  0  0  0  0  0  0  0  0  0
  184.8400  179.0310  142.3930 C   0  0  0  0  0  0  0  0  0  0  0  0
  186.9930  178.8170  140.3290 N   0  0  0  0  0  0  0  0  0  0  0  0
  188.4180  178.4270  138.1920 C   0  0  1  0  0  3  0  0  0  0  0  0
  188.8480  177.5170  140.4470 C   0  0  0  0  0  0  0  0  0  0  0  0
  187.1010  178.4520  141.5660 C   0  0  0  0  0  0  0  0  0  0  0  0
  189.2880  177.3480  137.7110 N   0  0  0  0  0  2  0  0  0  0  0  0
  188.2630  177.5310  141.8090 C   0  0  0  0  0  2  0  0  0  0  0  0
  187.2070  178.4650  137.3910 N   0  0  0  0  0  1  0  0  0  0  0  0
  190.0730  176.7860  139.9870 C   0  0  2  0  0  3  0  0  0  0  0  0
  191.1160  177.0350  140.8590 F   0  0  0  0  0  0  0  0  0  0  0  0
  188.0720  178.2090  139.6360 C   0  0  0  0  0  0  0  0  0  0  0  0
  190.4680  177.2480  138.5760 C   0  0  1  0  0  3  0  0  0  0  0  0
  191.3630  176.3470  138.0300 F   0  0  0  0  0  0  0  0  0  0  0  0
  184.0150  179.7160  140.1150 N   0  0  0  0  0  2  0  0  0  0  0  0
  183.7680  177.5000  140.8890 N   0  0  0  0  0  2  0  0  0  0  0  0
  184.1190  178.7200  141.1380 C   0  0  0  0  0  0  0  0  0  0  0  0
  183.3740  179.4610  138.8300 C   0  0  0  0  0  2  0  0  0  0  0  0
  181.8810  179.7390  138.9080 C   0  0  0  0  0  2  0  0  0  0  0  0
  180.2970  182.9220  135.3580 C   0  0  0  0  0  1  0  0  0  0  0  0
  180.7420  180.3510  136.3910 O   0  0  0  0  0  0  0  0  0  0  0  0
  180.9040  182.6700  136.6560 N   0  0  0  0  0  0  0  0  0  0  0  0
  181.5910  181.0830  138.4330 N   0  0  0  0  0  2  0  0  0  0  0  0
  181.0630  181.3240  137.1280 C   0  0  0  0  0  0  0  0  0  0  0  0
  181.1740  183.7650  137.4930 N   0  0  0  0  0  2  0  0  0  0  0  0
  180.4070  184.9000  137.0020 C   0  0  0  0  0  1  0  0  0  0  0  0
  184.0690  179.4890  143.6010 C   0  0  1  0  0  3  0  0  0  0  0  0
  182.7210  179.1410  143.5140 O   0  0  0  0  0  1  0  0  0  0  0  0
  186.0820  178.9500  145.0260 N   0  0  0  0  0  2  0  0  0  0  0  0
  184.6560  178.9930  144.8870 C   0  0  0  0  0  0  0  0  0  0  0  0
  183.9090  178.6860  145.8560 O   0  0  0  0  0  0  0  0  0  0  0  0
  188.8950  177.0180  146.0890 C   0  0  0  0  0  3  0  0  0  0  0  0
  189.4450  177.3000  147.2710 C   0  0  0  0  0  0  0  0  0  0  0  0
  186.7920  178.8680  147.3260 C   0  0  0  0  0  3  0  0  0  0  0  0
  187.5160  178.3430  148.5000 C   0  0  0  0  0  3  0  0  0  0  0  0
  187.4210  176.9960  145.8510 C   0  0  0  0  0  2  0  0  0  0  0  0
  191.1820  177.1350  147.4350 Cl  0  0  0  0  0  0  0  0  0  0  0  0
  186.8040  178.3340  146.0990 C   0  0  0  0  0  0  0  0  0  0  0  0
  188.6690  177.6610  148.4760 C   0  0  0  0  0  3  0  0  0  0  0  0
  2  1  2  0  0  0  0
  2 27  1  0  0  0  0
  3  6  2  0  0  0  0
  4  9  1  6  0  0  0
  4 12  1  0  0  0  0
  5  8  1  0  0  0  0
  6  8  1  0  0  0  0
  6  1  1  0  0  0  0
  7  4  1  0  0  0  0
  7 13  1  0  0  0  0
 10  5  1  0  0  0  0
 10 11  1  1  0  0  0
 12  3  1  0  0  0  0
 12  5  2  0  0  0  0
 13 14  1  6  0  0  0
 13 10  1  0  0  0  0
 15 17  1  0  0  0  0
 16 17  2  0  0  0  0
 17  2  1  0  0  0  0
 18 19  1  0  0  0  0
 18 15  1  0  0  0  0
 20 22  1  0  0  0  0
 21 24  2  0  0  0  0
 22 24  1  0  0  0  0
 22 25  1  0  0  0  0
 23 19  1  0  0  0  0
 24 23  1  0  0  0  0
 26 25  1  0  0  0  0
 27 28  1  6  0  0  0
 27 30  1  0  0  0  0
 29 38  1  0  0  0  0
 30 29  1  0  0  0  0
 30 31  2  0  0  0  0
 32 33  2  0  0  0  0
 33 37  1  0  0  0  0
 33 39  1  0  0  0  0
 34 35  1  0  0  0  0
 36 32  1  0  0  0  0
 36 38  1  0  0  0  0
 38 34  2  0  0  0  0
 39 35  2  0  0  0  0
M  END
>  <MODEL>
2

>  <REMARK>
 VINA RESULT:      -8.5      2.764      4.595
  Name = 
  9 active torsions:
  status: ('A' for Active; 'I' for Inactive)
    1  A    between atoms: N_5  and  N_26
    2  A    between atoms: C_8  and  N_14
    3  A    between atoms: N_10  and  C_29
    4  A    between atoms: C_16  and  C_17
    5  A    between atoms: C_16  and  C_32
    6  A    between atoms: C_28  and  N_30
    7  A    between atoms: C_28  and  C_35
    8  A    between atoms: C_32  and  C_39
    9  A    between atoms: C_35  and  N_36
                            x       y       z     vdW  Elec       q    Type
                         _______ _______ _______ _____ _____    ______ ____

>  <TORSDO>
F 9

$$$$
=
 OpenBabel11042411073D

 39 41  0  0  1  0  0  0  0  0999 V2000
  182.8480  177.7280  140.7170 N   0  0  0  0  0  0  0  0  0  0  0  0
  183.8990  178.4990  140.7790 C   0  0  0  0  0  0  0  0  0  0  0  0
  182.7190  175.8830  139.2240 N   0  0  0  0  0  0  0  0  0  0  0  0
  182.0970  174.2200  137.3270 C   0  0  1  0  0  3  0  0  0  0  0  0
  181.1240  176.4560  137.7180 C   0  0  0  0  0  0  0  0  0  0  0  0
  182.2880  177.0500  139.5810 C   0  0  0  0  0  0  0  0  0  0  0  0
  181.5810  174.3560  135.9600 N   0  0  0  0  0  2  0  0  0  0  0  0
  181.2500  177.6040  138.6470 C   0  0  0  0  0  2  0  0  0  0  0  0
  183.4780  173.7730  137.2810 N   0  0  0  0  0  1  0  0  0  0  0  0
  180.2180  176.3390  136.5300 C   0  0  2  0  0  3  0  0  0  0  0  0
  178.9320  176.6950  136.8900 F   0  0  0  0  0  0  0  0  0  0  0  0
  182.0060  175.5340  138.0490 C   0  0  0  0  0  0  0  0  0  0  0  0
  180.2170  174.8950  136.0030 C   0  0  1  0  0  3  0  0  0  0  0  0
  179.6730  174.8690  134.7330 F   0  0  0  0  0  0  0  0  0  0  0  0
  185.4140  177.9460  138.8460 N   0  0  0  0  0  2  0  0  0  0  0  0
  184.4930  180.1040  139.0990 N   0  0  0  0  0  2  0  0  0  0  0  0
  184.6650  178.9180  139.5840 C   0  0  0  0  0  0  0  0  0  0  0  0
  186.1430  178.2750  137.6260 C   0  0  0  0  0  2  0  0  0  0  0  0
  187.0760  177.1410  137.2330 C   0  0  0  0  0  2  0  0  0  0  0  0
  191.8860  176.1590  138.3020 C   0  0  0  0  0  1  0  0  0  0  0  0
  189.7400  176.5000  136.5260 O   0  0  0  0  0  0  0  0  0  0  0  0
  190.5310  176.4720  138.7290 N   0  0  0  0  0  0  0  0  0  0  0  0
  188.1840  177.0480  138.1710 N   0  0  0  0  0  2  0  0  0  0  0  0
  189.4960  176.6680  137.7530 C   0  0  0  0  0  0  0  0  0  0  0  0
  190.3000  176.7380  140.0880 N   0  0  0  0  0  2  0  0  0  0  0  0
  191.4360  177.4960  140.5930 C   0  0  0  0  0  1  0  0  0  0  0  0
  184.2670  179.0470  142.1310 C   0  0  1  0  0  3  0  0  0  0  0  0
  183.3150  178.7220  143.0960 O   0  0  0  0  0  1  0  0  0  0  0  0
  185.7550  177.8000  143.7460 N   0  0  0  0  0  2  0  0  0  0  0  0
  185.6330  178.6220  142.5780 C   0  0  0  0  0  0  0  0  0  0  0  0
  186.6510  178.9210  141.8960 O   0  0  0  0  0  0  0  0  0  0  0  0
  189.2860  177.2840  143.5560 C   0  0  0  0  0  3  0  0  0  0  0  0
  190.0350  177.6420  144.6010 C   0  0  0  0  0  0  0  0  0  0  0  0
  187.1600  177.7760  145.7020 C   0  0  0  0  0  3  0  0  0  0  0  0
  188.3800  177.5080  146.4880 C   0  0  0  0  0  3  0  0  0  0  0  0
  187.9610  176.6090  143.6850 C   0  0  0  0  0  2  0  0  0  0  0  0
  191.6350  178.2850  144.2900 Cl  0  0  0  0  0  0  0  0  0  0  0  0
  186.9770  177.4650  144.4140 C   0  0  0  0  0  0  0  0  0  0  0  0
  189.6290  177.4490  146.0090 C   0  0  0  0  0  3  0  0  0  0  0  0
  1  2  2  0  0  0  0
  2 27  1  0  0  0  0
  3  6  2  0  0  0  0
  4  9  1  6  0  0  0
  4 12  1  0  0  0  0
  5 12  2  0  0  0  0
  5  8  1  0  0  0  0
  6  1  1  0  0  0  0
  7 13  1  0  0  0  0
  7  4  1  0  0  0  0
  8  6  1  0  0  0  0
 10 11  1  1  0  0  0
 10  5  1  0  0  0  0
 12  3  1  0  0  0  0
 13 14  1  6  0  0  0
 13 10  1  0  0  0  0
 15 17  1  0  0  0  0
 16 17  2  0  0  0  0
 17  2  1  0  0  0  0
 18 15  1  0  0  0  0
 19 18  1  0  0  0  0
 19 23  1  0  0  0  0
 20 22  1  0  0  0  0
 21 24  2  0  0  0  0
 22 25  1  0  0  0  0
 24 23  1  0  0  0  0
 24 22  1  0  0  0  0
 25 26  1  0  0  0  0
 27 30  1  0  0  0  0
 27 28  1  1  0  0  0
 29 38  1  0  0  0  0
 30 29  1  0  0  0  0
 31 30  2  0  0  0  0
 32 36  1  0  0  0  0
 32 33  2  0  0  0  0
 33 39  1  0  0  0  0
 34 35  1  0  0  0  0
 36 38  1  0  0  0  0
 37 33  1  0  0  0  0
 38 34  2  0  0  0  0
 39 35  2  0  0  0  0
M  END
>  <MODEL>
3

>  <REMARK>
 VINA RESULT:      -8.5      3.733      5.980
  Name = 
  9 active torsions:
  status: ('A' for Active; 'I' for Inactive)
    1  A    between atoms: N_5  and  N_26
    2  A    between atoms: C_8  and  N_14
    3  A    between atoms: N_10  and  C_29
    4  A    between atoms: C_16  and  C_17
    5  A    between atoms: C_16  and  C_32
    6  A    between atoms: C_28  and  N_30
    7  A    between atoms: C_28  and  C_35
    8  A    between atoms: C_32  and  C_39
    9  A    between atoms: C_35  and  N_36
                            x       y       z     vdW  Elec       q    Type
                         _______ _______ _______ _____ _____    ______ ____

>  <TORSDO>
F 9

$$$$
=
 OpenBabel11042411073D

 39 41  0  0  1  0  0  0  0  0999 V2000
  186.4760  178.6910  141.9290 N   0  0  0  0  0  0  0  0  0  0  0  0
  185.2210  178.9920  141.7370 C   0  0  0  0  0  0  0  0  0  0  0  0
  187.3620  178.6350  139.7240 N   0  0  0  0  0  0  0  0  0  0  0  0
  188.8100  178.2400  137.6030 C   0  0  1  0  0  3  0  0  0  0  0  0
  189.2490  177.3890  139.8790 C   0  0  0  0  0  0  0  0  0  0  0  0
  187.4700  178.2980  140.9680 C   0  0  0  0  0  0  0  0  0  0  0  0
  189.7120  177.1750  137.1500 N   0  0  0  0  0  2  0  0  0  0  0  0
  188.6550  177.4150  141.2370 C   0  0  0  0  0  2  0  0  0  0  0  0
  187.6050  178.2290  136.7940 N   0  0  0  0  0  1  0  0  0  0  0  0
  190.4970  176.6820  139.4420 C   0  0  2  0  0  3  0  0  0  0  0  0
  191.5270  176.9770  140.3150 F   0  0  0  0  0  0  0  0  0  0  0  0
  188.4610  178.0430  139.0500 C   0  0  0  0  0  0  0  0  0  0  0  0
  190.8890  177.1250  138.0240 C   0  0  1  0  0  3  0  0  0  0  0  0
  191.8110  176.2380  137.5030 F   0  0  0  0  0  0  0  0  0  0  0  0
  183.7410  177.7020  140.1610 N   0  0  0  0  0  2  0  0  0  0  0  0
  184.5240  179.8600  139.6120 N   0  0  0  0  0  2  0  0  0  0  0  0
  184.5480  178.8550  140.4260 C   0  0  0  0  0  0  0  0  0  0  0  0
  183.0000  177.5300  138.9170 C   0  0  0  0  0  2  0  0  0  0  0  0
  181.7540  178.4010  138.9050 C   0  0  0  0  0  2  0  0  0  0  0  0
  178.9500  180.3140  142.6100 C   0  0  0  0  0  1  0  0  0  0  0  0
  180.2400  180.4590  140.1220 O   0  0  0  0  0  0  0  0  0  0  0  0
  179.7300  179.2240  142.0430 N   0  0  0  0  0  0  0  0  0  0  0  0
  181.0320  178.2680  140.1610 N   0  0  0  0  0  2  0  0  0  0  0  0
  180.3290  179.3650  140.7460 C   0  0  0  0  0  0  0  0  0  0  0  0
  179.7450  177.9900  142.7140 N   0  0  0  0  0  2  0  0  0  0  0  0
  179.8690  178.2600  144.1390 C   0  0  0  0  0  1  0  0  0  0  0  0
  184.4240  179.4040  142.9450 C   0  0  1  0  0  3  0  0  0  0  0  0
  183.0600  179.1810  142.7620 O   0  0  0  0  0  1  0  0  0  0  0  0
  186.2720  178.8920  144.5870 N   0  0  0  0  0  2  0  0  0  0  0  0
  184.8980  178.7480  144.2060 C   0  0  0  0  0  0  0  0  0  0  0  0
  184.0860  178.1390  144.9550 O   0  0  0  0  0  0  0  0  0  0  0  0
  189.0930  176.9910  145.6830 C   0  0  0  0  0  3  0  0  0  0  0  0
  189.5120  177.1490  146.9400 C   0  0  0  0  0  0  0  0  0  0  0  0
  186.7710  178.5570  146.9190 C   0  0  0  0  0  3  0  0  0  0  0  0
  187.4160  177.9260  148.0880 C   0  0  0  0  0  3  0  0  0  0  0  0
  187.6520  176.9220  145.2990 C   0  0  0  0  0  2  0  0  0  0  0  0
  191.2330  177.0560  147.2540 Cl  0  0  0  0  0  0  0  0  0  0  0  0
  186.9300  178.1840  145.6440 C   0  0  0  0  0  0  0  0  0  0  0  0
  188.6070  177.3140  148.0960 C   0  0  0  0  0  3  0  0  0  0  0  0
  2  1  2  0  0  0  0
  2 27  1  0  0  0  0
  3  6  2  0  0  0  0
  4  9  1  6  0  0  0
  4 12  1  0  0  0  0
  5  8  1  0  0  0  0
  6  8  1  0  0  0  0
  6  1  1  0  0  0  0
  7  4  1  0  0  0  0
  7 13  1  0  0  0  0
 10  5  1  0  0  0  0
 10 11  1  1  0  0  0
 12  3  1  0  0  0  0
 12  5  2  0  0  0  0
 13 14  1  6  0  0  0
 13 10  1  0  0  0  0
 15 17  1  0  0  0  0
 16 17  2  0  0  0  0
 17  2  1  0  0  0  0
 18 15  1  0  0  0  0
 19 18  1  0  0  0  0
 19 23  1  0  0  0  0
 21 24  2  0  0  0  0
 22 20  1  0  0  0  0
 22 25  1  0  0  0  0
 23 24  1  0  0  0  0
 24 22  1  0  0  0  0
 25 26  1  0  0  0  0
 27 28  1  6  0  0  0
 27 30  1  0  0  0  0
 29 38  1  0  0  0  0
 30 29  1  0  0  0  0
 30 31  2  0  0  0  0
 32 33  2  0  0  0  0
 33 37  1  0  0  0  0
 33 39  1  0  0  0  0
 34 35  1  0  0  0  0
 35 39  2  0  0  0  0
 36 38  1  0  0  0  0
 36 32  1  0  0  0  0
 38 34  2  0  0  0  0
M  END
>  <MODEL>
4

>  <REMARK>
 VINA RESULT:      -8.4      2.612      4.145
  Name = 
  9 active torsions:
  status: ('A' for Active; 'I' for Inactive)
    1  A    between atoms: N_5  and  N_26
    2  A    between atoms: C_8  and  N_14
    3  A    between atoms: N_10  and  C_29
    4  A    between atoms: C_16  and  C_17
    5  A    between atoms: C_16  and  C_32
    6  A    between atoms: C_28  and  N_30
    7  A    between atoms: C_28  and  C_35
    8  A    between atoms: C_32  and  C_39
    9  A    between atoms: C_35  and  N_36
                            x       y       z     vdW  Elec       q    Type
                         _______ _______ _______ _____ _____    ______ ____

>  <TORSDO>
F 9

$$$$
=
 OpenBabel11042411073D

 39 41  0  0  1  0  0  0  0  0999 V2000
  187.9350  178.4790  140.3040 N   0  0  0  0  0  0  0  0  0  0  0  0
  188.6130  178.1200  139.2500 C   0  0  0  0  0  0  0  0  0  0  0  0
  189.3760  178.4180  142.1940 N   0  0  0  0  0  0  0  0  0  0  0  0
  190.4120  178.1380  144.5600 C   0  0  1  0  0  3  0  0  0  0  0  0
  188.1100  177.5680  143.8720 C   0  0  0  0  0  0  0  0  0  0  0  0
  188.2030  178.2070  141.6900 C   0  0  0  0  0  0  0  0  0  0  0  0
  190.1810  177.2300  145.6900 N   0  0  0  0  0  2  0  0  0  0  0  0
  187.2450  177.5890  142.6680 C   0  0  0  0  0  2  0  0  0  0  0  0
  191.6950  177.8340  143.9510 N   0  0  0  0  0  1  0  0  0  0  0  0
  187.7540  177.0780  145.2430 C   0  0  2  0  0  3  0  0  0  0  0  0
  186.5490  177.6310  145.6350 F   0  0  0  0  0  0  0  0  0  0  0  0
  189.3140  177.9930  143.5460 C   0  0  0  0  0  0  0  0  0  0  0  0
  188.8460  177.4740  146.2480 C   0  0  1  0  0  3  0  0  0  0  0  0
  188.6930  176.7390  147.4080 F   0  0  0  0  0  0  0  0  0  0  0  0
  191.1020  177.7680  139.4020 N   0  0  0  0  0  2  0  0  0  0  0  0
  189.6020  175.9470  139.4850 N   0  0  0  0  0  2  0  0  0  0  0  0
  189.7840  177.2160  139.3100 C   0  0  0  0  0  0  0  0  0  0  0  0
  192.2950  176.9380  139.5260 C   0  0  0  0  0  2  0  0  0  0  0  0
  192.8690  176.6110  138.1570 C   0  0  0  0  0  2  0  0  0  0  0  0
  195.7890  172.5250  137.9870 C   0  0  0  0  0  1  0  0  0  0  0  0
  193.3610  173.8800  137.6030 O   0  0  0  0  0  0  0  0  0  0  0  0
  195.5920  173.9310  138.3080 N   0  0  0  0  0  0  0  0  0  0  0  0
  194.1610  175.9560  138.2930 N   0  0  0  0  0  2  0  0  0  0  0  0
  194.3280  174.5590  138.0460 C   0  0  0  0  0  0  0  0  0  0  0  0
  196.7020  174.6860  138.7200 N   0  0  0  0  0  2  0  0  0  0  0  0
  197.6520  174.7170  137.6170 C   0  0  0  0  0  1  0  0  0  0  0  0
  188.1010  178.5880  137.9140 C   0  0  1  0  0  3  0  0  0  0  0  0
  188.9880  179.4740  137.3030 O   0  0  0  0  0  1  0  0  0  0  0  0
  186.5730  176.7040  137.2140 N   0  0  0  0  0  2  0  0  0  0  0  0
  187.7730  177.4550  136.9900 C   0  0  0  0  0  0  0  0  0  0  0  0
  188.5020  177.2130  135.9900 O   0  0  0  0  0  0  0  0  0  0  0  0
  185.5750  173.2810  137.4700 C   0  0  0  0  0  3  0  0  0  0  0  0
  184.7170  172.8040  136.5670 C   0  0  0  0  0  0  0  0  0  0  0  0
  185.5740  175.5130  135.3740 C   0  0  0  0  0  3  0  0  0  0  0  0
  185.1230  174.3310  134.6130 C   0  0  0  0  0  3  0  0  0  0  0  0
  186.7010  174.2010  137.1300 C   0  0  0  0  0  2  0  0  0  0  0  0
  183.5430  171.6140  137.0920 Cl  0  0  0  0  0  0  0  0  0  0  0  0
  186.2060  175.4870  136.5540 C   0  0  0  0  0  0  0  0  0  0  0  0
  184.7510  173.1540  135.1320 C   0  0  0  0  0  3  0  0  0  0  0  0
  1  6  1  0  0  0  0
  2 17  1  0  0  0  0
  2  1  2  0  0  0  0
  3 12  1  0  0  0  0
  4  9  1  6  0  0  0
  4  7  1  0  0  0  0
  5 10  1  0  0  0  0
  6  3  2  0  0  0  0
  6  8  1  0  0  0  0
  7 13  1  0  0  0  0
  8  5  1  0  0  0  0
 10 11  1  1  0  0  0
 10 13  1  0  0  0  0
 12  5  2  0  0  0  0
 12  4  1  0  0  0  0
 13 14  1  1  0  0  0
 15 18  1  0  0  0  0
 17 15  1  0  0  0  0
 17 16  2  0  0  0  0
 19 23  1  0  0  0  0
 19 18  1  0  0  0  0
 20 22  1  0  0  0  0
 21 24  2  0  0  0  0
 22 25  1  0  0  0  0
 24 23  1  0  0  0  0
 24 22  1  0  0  0  0
 26 25  1  0  0  0  0
 27 28  1  6  0  0  0
 27  2  1  0  0  0  0
 30 29  1  0  0  0  0
 30 27  1  0  0  0  0
 31 30  2  0  0  0  0
 33 37  1  0  0  0  0
 33 32  2  0  0  0  0
 34 38  2  0  0  0  0
 35 39  2  0  0  0  0
 35 34  1  0  0  0  0
 36 32  1  0  0  0  0
 38 36  1  0  0  0  0
 38 29  1  0  0  0  0
 39 33  1  0  0  0  0
M  END
>  <MODEL>
5

>  <REMARK>
 VINA RESULT:      -8.3      4.258      8.559
  Name = 
  9 active torsions:
  status: ('A' for Active; 'I' for Inactive)
    1  A    between atoms: N_5  and  N_26
    2  A    between atoms: C_8  and  N_14
    3  A    between atoms: N_10  and  C_29
    4  A    between atoms: C_16  and  C_17
    5  A    between atoms: C_16  and  C_32
    6  A    between atoms: C_28  and  N_30
    7  A    between atoms: C_28  and  C_35
    8  A    between atoms: C_32  and  C_39
    9  A    between atoms: C_35  and  N_36
                            x       y       z     vdW  Elec       q    Type
                         _______ _______ _______ _____ _____    ______ ____

>  <TORSDO>
F 9

$$$$
=
 OpenBabel11042411073D

 39 41  0  0  1  0  0  0  0  0999 V2000
  183.6500  177.5210  138.5060 N   0  0  0  0  0  0  0  0  0  0  0  0
  184.7590  178.1990  138.6170 C   0  0  0  0  0  0  0  0  0  0  0  0
  182.6430  176.4140  136.6590 N   0  0  0  0  0  0  0  0  0  0  0  0
  181.8500  174.6840  134.8900 C   0  0  1  0  0  3  0  0  0  0  0  0
  183.2210  174.2340  136.8940 C   0  0  0  0  0  0  0  0  0  0  0  0
  183.3800  176.3480  137.7210 C   0  0  0  0  0  0  0  0  0  0  0  0
  181.5470  173.2480  134.9100 N   0  0  0  0  0  2  0  0  0  0  0  0
  183.8100  174.9470  138.0520 C   0  0  0  0  0  2  0  0  0  0  0  0
  180.6190  175.4350  134.7230 N   0  0  0  0  0  1  0  0  0  0  0  0
  183.2960  172.7680  136.5900 C   0  0  2  0  0  3  0  0  0  0  0  0
  184.6070  172.3400  136.6890 F   0  0  0  0  0  0  0  0  0  0  0  0
  182.5300  175.0880  136.1660 C   0  0  0  0  0  0  0  0  0  0  0  0
  182.7770  172.4920  135.1710 C   0  0  1  0  0  3  0  0  0  0  0  0
  182.5250  171.1410  135.0260 F   0  0  0  0  0  0  0  0  0  0  0  0
  187.1750  177.5120  138.4540 N   0  0  0  0  0  2  0  0  0  0  0  0
  185.8640  177.8360  136.5180 N   0  0  0  0  0  2  0  0  0  0  0  0
  185.9640  177.9160  137.8060 C   0  0  0  0  0  0  0  0  0  0  0  0
  188.3830  177.1580  137.7160 C   0  0  0  0  0  2  0  0  0  0  0  0
  189.5590  178.0080  138.1680 C   0  0  0  0  0  2  0  0  0  0  0  0
  190.5580  176.0400  142.6820 C   0  0  0  0  0  1  0  0  0  0  0  0
  190.5960  176.0030  139.8760 O   0  0  0  0  0  0  0  0  0  0  0  0
  189.9930  177.0960  141.8560 N   0  0  0  0  0  0  0  0  0  0  0  0
  189.5950  178.0920  139.6190 N   0  0  0  0  0  2  0  0  0  0  0  0
  190.0860  177.0190  140.4250 C   0  0  0  0  0  0  0  0  0  0  0  0
  189.5070  178.2530  142.4860 N   0  0  0  0  0  2  0  0  0  0  0  0
  190.3920  178.5560  143.6010 C   0  0  0  0  0  1  0  0  0  0  0  0
  184.7500  179.3780  139.5520 C   0  0  1  0  0  3  0  0  0  0  0  0
  183.9120  180.3930  139.0940 O   0  0  0  0  0  1  0  0  0  0  0  0
  185.3600  179.2140  141.9970 N   0  0  0  0  0  2  0  0  0  0  0  0
  184.3960  179.0000  140.9580 C   0  0  0  0  0  0  0  0  0  0  0  0
  183.2430  178.5680  141.2330 O   0  0  0  0  0  0  0  0  0  0  0  0
  186.9660  177.7540  144.8360 C   0  0  0  0  0  3  0  0  0  0  0  0
  186.5810  178.1470  146.0520 C   0  0  0  0  0  0  0  0  0  0  0  0
  184.4010  179.3010  144.2050 C   0  0  0  0  0  3  0  0  0  0  0  0
  184.2290  178.9220  145.6210 C   0  0  0  0  0  3  0  0  0  0  0  0
  186.0160  177.5060  143.7120 C   0  0  0  0  0  2  0  0  0  0  0  0
  187.7950  178.2480  147.3110 Cl  0  0  0  0  0  0  0  0  0  0  0  0
  185.2620  178.7420  143.3460 C   0  0  0  0  0  0  0  0  0  0  0  0
  185.1760  178.4200  146.4230 C   0  0  0  0  0  3  0  0  0  0  0  0
  1  2  2  0  0  0  0
  2 27  1  0  0  0  0
  3  6  2  0  0  0  0
  4  9  1  1  0  0  0
  4  7  1  0  0  0  0
  4 12  1  0  0  0  0
  5  8  1  0  0  0  0
  6  8  1  0  0  0  0
  6  1  1  0  0  0  0
  7 13  1  0  0  0  0
 10 11  1  6  0  0  0
 10  5  1  0  0  0  0
 12  3  1  0  0  0  0
 12  5  2  0  0  0  0
 13 14  1  1  0  0  0
 13 10  1  0  0  0  0
 16 17  2  0  0  0  0
 17 15  1  0  0  0  0
 17  2  1  0  0  0  0
 18 19  1  0  0  0  0
 18 15  1  0  0  0  0
 19 23  1  0  0  0  0
 21 24  2  0  0  0  0
 22 25  1  0  0  0  0
 22 20  1  0  0  0  0
 23 24  1  0  0  0  0
 24 22  1  0  0  0  0
 25 26  1  0  0  0  0
 27 28  1  6  0  0  0
 27 30  1  0  0  0  0
 29 38  1  0  0  0  0
 30 31  2  0  0  0  0
 30 29  1  0  0  0  0
 32 33  2  0  0  0  0
 33 39  1  0  0  0  0
 33 37  1  0  0  0  0
 34 35  1  0  0  0  0
 35 39  2  0  0  0  0
 36 32  1  0  0  0  0
 38 36  1  0  0  0  0
 38 34  2  0  0  0  0
M  END
>  <MODEL>
6

>  <REMARK>
 VINA RESULT:      -8.3      3.352      6.132
  Name = 
  9 active torsions:
  status: ('A' for Active; 'I' for Inactive)
    1  A    between atoms: N_5  and  N_26
    2  A    between atoms: C_8  and  N_14
    3  A    between atoms: N_10  and  C_29
    4  A    between atoms: C_16  and  C_17
    5  A    between atoms: C_16  and  C_32
    6  A    between atoms: C_28  and  N_30
    7  A    between atoms: C_28  and  C_35
    8  A    between atoms: C_32  and  C_39
    9  A    between atoms: C_35  and  N_36
                            x       y       z     vdW  Elec       q    Type
                         _______ _______ _______ _____ _____    ______ ____

>  <TORSDO>
F 9

$$$$
=
 OpenBabel11042411073D

 39 41  0  0  1  0  0  0  0  0999 V2000
  186.2490  178.6390  139.9960 N   0  0  0  0  0  0  0  0  0  0  0  0
  186.9020  178.6290  141.1250 C   0  0  0  0  0  0  0  0  0  0  0  0
  184.3250  179.7730  139.1820 N   0  0  0  0  0  0  0  0  0  0  0  0
  181.9170  180.4770  138.5070 C   0  0  1  0  0  3  0  0  0  0  0  0
  182.5800  178.4260  139.7120 C   0  0  0  0  0  0  0  0  0  0  0  0
  184.8330  178.7380  139.7690 C   0  0  0  0  0  0  0  0  0  0  0  0
  180.5760  180.2300  139.0500 N   0  0  0  0  0  2  0  0  0  0  0  0
  183.7950  177.7580  140.2360 C   0  0  0  0  0  2  0  0  0  0  0  0
  182.2750  181.8680  138.7180 N   0  0  0  0  0  1  0  0  0  0  0  0
  181.1610  177.9540  139.8170 C   0  0  2  0  0  3  0  0  0  0  0  0
  181.0820  176.6310  139.4240 F   0  0  0  0  0  0  0  0  0  0  0  0
  182.9190  179.5800  139.1740 C   0  0  0  0  0  0  0  0  0  0  0  0
  180.2500  178.8060  138.9200 C   0  0  1  0  0  3  0  0  0  0  0  0
  178.9310  178.6020  139.2780 F   0  0  0  0  0  0  0  0  0  0  0  0
  186.6500  177.6470  143.4290 N   0  0  0  0  0  2  0  0  0  0  0  0
  185.4280  179.5580  142.7750 N   0  0  0  0  0  2  0  0  0  0  0  0
  186.2340  178.6000  142.4450 C   0  0  0  0  0  0  0  0  0  0  0  0
  186.0790  177.6010  144.7710 C   0  0  0  0  0  2  0  0  0  0  0  0
  187.0710  178.1210  145.7980 C   0  0  0  0  0  2  0  0  0  0  0  0
  191.6780  176.3780  146.7890 C   0  0  0  0  0  1  0  0  0  0  0  0
  189.0000  176.8820  147.4580 O   0  0  0  0  0  0  0  0  0  0  0  0
  190.7360  177.0350  145.8960 N   0  0  0  0  0  0  0  0  0  0  0  0
  188.4320  177.8020  145.3940 N   0  0  0  0  0  2  0  0  0  0  0  0
  189.3720  177.2230  146.3000 C   0  0  0  0  0  0  0  0  0  0  0  0
  191.1480  177.3290  144.5860 N   0  0  0  0  0  2  0  0  0  0  0  0
  191.5080  176.0750  143.9410 C   0  0  0  0  0  1  0  0  0  0  0  0
  188.4030  178.5490  141.0470 C   0  0  1  0  0  3  0  0  0  0  0  0
  188.9140  177.6050  141.9370 O   0  0  0  0  0  1  0  0  0  0  0  0
  189.1130  176.9260  139.2480 N   0  0  0  0  0  2  0  0  0  0  0  0
  188.8990  178.2820  139.6590 C   0  0  0  0  0  0  0  0  0  0  0  0
  189.0560  179.2320  138.8430 O   0  0  0  0  0  0  0  0  0  0  0  0
  191.7770  175.1300  137.6820 C   0  0  0  0  0  3  0  0  0  0  0  0
  191.5250  174.5010  136.5330 C   0  0  0  0  0  0  0  0  0  0  0  0
  189.0440  176.2870  136.9270 C   0  0  0  0  0  3  0  0  0  0  0  0
  189.5880  175.8260  135.6340 C   0  0  0  0  0  3  0  0  0  0  0  0
  191.2490  176.4880  138.0090 C   0  0  0  0  0  2  0  0  0  0  0  0
  192.3390  172.9800  136.2290 Cl  0  0  0  0  0  0  0  0  0  0  0  0
  189.7560  176.5060  138.0390 C   0  0  0  0  0  0  0  0  0  0  0  0
  190.6660  175.0510  135.4630 C   0  0  0  0  0  3  0  0  0  0  0  0
  1  2  2  0  0  0  0
  2 17  1  0  0  0  0
  3  6  2  0  0  0  0
  4  9  1  1  0  0  0
  4  7  1  0  0  0  0
  4 12  1  0  0  0  0
  5 10  1  0  0  0  0
  5  8  1  0  0  0  0
  6  1  1  0  0  0  0
  6  8  1  0  0  0  0
 10 11  1  6  0  0  0
 12  3  1  0  0  0  0
 12  5  2  0  0  0  0
 13  7  1  0  0  0  0
 13 14  1  1  0  0  0
 13 10  1  0  0  0  0
 15 18  1  0  0  0  0
 17 16  2  0  0  0  0
 17 15  1  0  0  0  0
 18 19  1  0  0  0  0
 22 24  1  0  0  0  0
 22 20  1  0  0  0  0
 23 19  1  0  0  0  0
 23 24  1  0  0  0  0
 24 21  2  0  0  0  0
 25 22  1  0  0  0  0
 26 25  1  0  0  0  0
 27  2  1  0  0  0  0
 27 28  1  1  0  0  0
 29 30  1  0  0  0  0
 30 27  1  0  0  0  0
 31 30  2  0  0  0  0
 32 36  1  0  0  0  0
 33 32  2  0  0  0  0
 34 38  2  0  0  0  0
 35 34  1  0  0  0  0
 36 38  1  0  0  0  0
 37 33  1  0  0  0  0
 38 29  1  0  0  0  0
 39 35  2  0  0  0  0
 39 33  1  0  0  0  0
M  END
>  <MODEL>
7

>  <REMARK>
 VINA RESULT:      -8.2      4.471      8.757
  Name = 
  9 active torsions:
  status: ('A' for Active; 'I' for Inactive)
    1  A    between atoms: N_5  and  N_26
    2  A    between atoms: C_8  and  N_14
    3  A    between atoms: N_10  and  C_29
    4  A    between atoms: C_16  and  C_17
    5  A    between atoms: C_16  and  C_32
    6  A    between atoms: C_28  and  N_30
    7  A    between atoms: C_28  and  C_35
    8  A    between atoms: C_32  and  C_39
    9  A    between atoms: C_35  and  N_36
                            x       y       z     vdW  Elec       q    Type
                         _______ _______ _______ _____ _____    ______ ____

>  <TORSDO>
F 9

$$$$
=
 OpenBabel11042411073D

 39 41  0  0  1  0  0  0  0  0999 V2000
  186.7240  178.2420  141.1690 N   0  0  0  0  0  0  0  0  0  0  0  0
  185.5000  178.6920  141.1440 C   0  0  0  0  0  0  0  0  0  0  0  0
  188.8490  178.2510  142.2340 N   0  0  0  0  0  0  0  0  0  0  0  0
  190.8250  178.0440  143.9080 C   0  0  1  0  0  3  0  0  0  0  0  0
  188.4720  177.4110  144.3060 C   0  0  0  0  0  0  0  0  0  0  0  0
  187.5800  178.0050  142.2990 C   0  0  0  0  0  0  0  0  0  0  0  0
  191.1390  177.1560  145.0330 N   0  0  0  0  0  2  0  0  0  0  0  0
  187.1660  177.3870  143.6040 C   0  0  0  0  0  2  0  0  0  0  0  0
  191.7190  177.7550  142.8010 N   0  0  0  0  0  1  0  0  0  0  0  0
  188.7670  176.9430  145.6990 C   0  0  2  0  0  3  0  0  0  0  0  0
  187.8420  177.4780  146.5750 F   0  0  0  0  0  0  0  0  0  0  0  0
  189.3980  177.8540  143.4810 C   0  0  0  0  0  0  0  0  0  0  0  0
  190.1780  177.3830  146.1190 C   0  0  1  0  0  3  0  0  0  0  0  0
  190.5700  176.6700  147.2360 F   0  0  0  0  0  0  0  0  0  0  0  0
  183.7200  178.3990  142.9000 N   0  0  0  0  0  2  0  0  0  0  0  0
  185.2710  180.1740  143.0180 N   0  0  0  0  0  2  0  0  0  0  0  0
  184.7920  179.1730  142.3520 C   0  0  0  0  0  0  0  0  0  0  0  0
  183.0180  178.7800  144.1210 C   0  0  0  0  0  2  0  0  0  0  0  0
  181.5130  178.6910  143.9270 C   0  0  0  0  0  2  0  0  0  0  0  0
  179.2610  180.8030  139.9630 C   0  0  0  0  0  1  0  0  0  0  0  0
  180.0600  180.7580  142.6530 O   0  0  0  0  0  0  0  0  0  0  0  0
  179.9940  179.7000  140.5660 N   0  0  0  0  0  0  0  0  0  0  0  0
  181.1810  178.7210  142.5110 N   0  0  0  0  0  2  0  0  0  0  0  0
  180.3990  179.7720  141.9420 C   0  0  0  0  0  0  0  0  0  0  0  0
  180.4330  178.6540  139.7390 N   0  0  0  0  0  2  0  0  0  0  0  0
  181.2010  179.2400  138.6500 C   0  0  0  0  0  1  0  0  0  0  0  0
  184.8380  178.8040  139.7980 C   0  0  1  0  0  3  0  0  0  0  0  0
  184.5280  180.1270  139.4840 O   0  0  0  0  0  1  0  0  0  0  0  0
  186.9920  178.6240  138.4930 N   0  0  0  0  0  2  0  0  0  0  0  0
  185.6450  178.1800  138.7000 C   0  0  0  0  0  0  0  0  0  0  0  0
  185.1710  177.2310  138.0180 O   0  0  0  0  0  0  0  0  0  0  0  0
  190.0080  177.1130  137.3140 C   0  0  0  0  0  3  0  0  0  0  0  0
  189.9780  176.4690  136.1460 C   0  0  0  0  0  0  0  0  0  0  0  0
  187.3020  177.9960  136.1890 C   0  0  0  0  0  3  0  0  0  0  0  0
  188.0580  177.6010  134.9850 C   0  0  0  0  0  3  0  0  0  0  0  0
  189.3090  178.4090  137.5580 C   0  0  0  0  0  2  0  0  0  0  0  0
  190.9730  175.0380  135.9650 Cl  0  0  0  0  0  0  0  0  0  0  0  0
  187.8310  178.2770  137.3860 C   0  0  0  0  0  0  0  0  0  0  0  0
  189.2210  176.9370  134.9660 C   0  0  0  0  0  3  0  0  0  0  0  0
  1  6  1  0  0  0  0
  2  1  2  0  0  0  0
  2 17  1  0  0  0  0
  3  6  2  0  0  0  0
  3 12  1  0  0  0  0
  4  9  1  6  0  0  0
  4  7  1  0  0  0  0
  5 10  1  0  0  0  0
  6  8  1  0  0  0  0
  7 13  1  0  0  0  0
  8  5  1  0  0  0  0
 10 13  1  0  0  0  0
 10 11  1  1  0  0  0
 12  4  1  0  0  0  0
 12  5  2  0  0  0  0
 13 14  1  1  0  0  0
 15 18  1  0  0  0  0
 17 15  1  0  0  0  0
 17 16  2  0  0  0  0
 19 18  1  0  0  0  0
 20 22  1  0  0  0  0
 22 24  1  0  0  0  0
 23 19  1  0  0  0  0
 24 23  1  0  0  0  0
 24 21  2  0  0  0  0
 25 22  1  0  0  0  0
 26 25  1  0  0  0  0
 27 28  1  6  0  0  0
 27  2  1  0  0  0  0
 29 30  1  0  0  0  0
 30 27  1  0  0  0  0
 31 30  2  0  0  0  0
 32 36  1  0  0  0  0
 33 32  2  0  0  0  0
 34 38  2  0  0  0  0
 35 34  1  0  0  0  0
 37 33  1  0  0  0  0
 38 36  1  0  0  0  0
 38 29  1  0  0  0  0
 39 35  2  0  0  0  0
 39 33  1  0  0  0  0
M  END
>  <MODEL>
8

>  <REMARK>
 VINA RESULT:      -8.2      3.844      7.470
  Name = 
  9 active torsions:
  status: ('A' for Active; 'I' for Inactive)
    1  A    between atoms: N_5  and  N_26
    2  A    between atoms: C_8  and  N_14
    3  A    between atoms: N_10  and  C_29
    4  A    between atoms: C_16  and  C_17
    5  A    between atoms: C_16  and  C_32
    6  A    between atoms: C_28  and  N_30
    7  A    between atoms: C_28  and  C_35
    8  A    between atoms: C_32  and  C_39
    9  A    between atoms: C_35  and  N_36
                            x       y       z     vdW  Elec       q    Type
                         _______ _______ _______ _____ _____    ______ ____

>  <TORSDO>
F 9

$$$$
=
 OpenBabel11042411073D

 39 41  0  0  1  0  0  0  0  0999 V2000
  187.7390  178.2800  139.7310 N   0  0  0  0  0  0  0  0  0  0  0  0
  187.9390  177.8980  138.5000 C   0  0  0  0  0  0  0  0  0  0  0  0
  187.8600  177.5420  141.9870 N   0  0  0  0  0  0  0  0  0  0  0  0
  188.6350  176.7920  144.3510 C   0  0  1  0  0  3  0  0  0  0  0  0
  190.0690  177.5790  142.5000 C   0  0  0  0  0  0  0  0  0  0  0  0
  188.4730  177.9360  140.9170 C   0  0  0  0  0  0  0  0  0  0  0  0
  189.7670  177.1260  145.2230 N   0  0  0  0  0  2  0  0  0  0  0  0
  189.9580  178.0670  141.1050 C   0  0  0  0  0  2  0  0  0  0  0  0
  187.4140  177.3400  144.9130 N   0  0  0  0  0  1  0  0  0  0  0  0
  191.3150  177.4320  143.3190 C   0  0  2  0  0  3  0  0  0  0  0  0
  192.2720  176.7520  142.5890 F   0  0  0  0  0  0  0  0  0  0  0  0
  188.8610  177.3460  142.9730 C   0  0  0  0  0  0  0  0  0  0  0  0
  191.0140  176.6550  144.6100 C   0  0  1  0  0  3  0  0  0  0  0  0
  192.0560  176.8210  145.5020 F   0  0  0  0  0  0  0  0  0  0  0  0
  190.2900  177.3060  137.8210 N   0  0  0  0  0  2  0  0  0  0  0  0
  188.6870  175.6310  138.2620 N   0  0  0  0  0  2  0  0  0  0  0  0
  188.9540  176.8890  138.1220 C   0  0  0  0  0  0  0  0  0  0  0  0
  191.3550  176.3620  137.5000 C   0  0  0  0  0  2  0  0  0  0  0  0
  192.5990  176.6510  138.3250 C   0  0  0  0  0  2  0  0  0  0  0  0
  196.1900  173.5950  136.5910 C   0  0  0  0  0  1  0  0  0  0  0  0
  193.8010  174.1140  137.9680 O   0  0  0  0  0  0  0  0  0  0  0  0
  195.6300  174.9280  136.7560 N   0  0  0  0  0  0  0  0  0  0  0  0
  193.7970  176.4040  137.5390 N   0  0  0  0  0  2  0  0  0  0  0  0
  194.3810  175.1040  137.4430 C   0  0  0  0  0  0  0  0  0  0  0  0
  196.2460  176.0010  136.0930 N   0  0  0  0  0  2  0  0  0  0  0  0
  197.4510  175.4950  135.4520 C   0  0  0  0  0  1  0  0  0  0  0  0
  187.0180  178.4580  137.4500 C   0  0  1  0  0  3  0  0  0  0  0  0
  187.3080  177.9480  136.1850 O   0  0  0  0  0  1  0  0  0  0  0  0
  184.9330  179.1530  138.6930 N   0  0  0  0  0  2  0  0  0  0  0  0
  185.5700  178.2510  137.7790 C   0  0  0  0  0  0  0  0  0  0  0  0
  184.9070  177.3440  137.2060 O   0  0  0  0  0  0  0  0  0  0  0  0
  182.9230  178.2540  141.5080 C   0  0  0  0  0  3  0  0  0  0  0  0
  181.7870  178.9240  141.7130 C   0  0  0  0  0  0  0  0  0  0  0  0
  182.6120  179.7740  138.8680 C   0  0  0  0  0  3  0  0  0  0  0  0
  181.2340  179.7230  139.3950 C   0  0  0  0  0  3  0  0  0  0  0  0
  183.3910  177.8230  140.1570 C   0  0  0  0  0  2  0  0  0  0  0  0
  181.2930  179.2250  143.3670 Cl  0  0  0  0  0  0  0  0  0  0  0  0
  183.6260  178.9920  139.2580 C   0  0  0  0  0  0  0  0  0  0  0  0
  180.8760  179.3530  140.6310 C   0  0  0  0  0  3  0  0  0  0  0  0
  1  6  1  0  0  0  0
  2  1  2  0  0  0  0
  3 12  1  0  0  0  0
  4  9  1  1  0  0  0
  4  7  1  0  0  0  0
  5 12  2  0  0  0  0
  5 10  1  0  0  0  0
  6  8  1  0  0  0  0
  6  3  2  0  0  0  0
  8  5  1  0  0  0  0
 10 11  1  6  0  0  0
 10 13  1  0  0  0  0
 12  4  1  0  0  0  0
 13  7  1  0  0  0  0
 13 14  1  1  0  0  0
 15 17  1  0  0  0  0
 17 16  2  0  0  0  0
 17  2  1  0  0  0  0
 18 15  1  0  0  0  0
 18 19  1  0  0  0  0
 20 22  1  0  0  0  0
 22 24  1  0  0  0  0
 23 19  1  0  0  0  0
 24 23  1  0  0  0  0
 24 21  2  0  0  0  0
 25 22  1  0  0  0  0
 26 25  1  0  0  0  0
 27 28  1  6  0  0  0
 27 30  1  0  0  0  0
 27  2  1  0  0  0  0
 29 38  1  0  0  0  0
 30 29  1  0  0  0  0
 31 30  2  0  0  0  0
 32 33  2  0  0  0  0
 33 37  1  0  0  0  0
 34 38  2  0  0  0  0
 34 35  1  0  0  0  0
 35 39  2  0  0  0  0
 36 32  1  0  0  0  0
 38 36  1  0  0  0  0
 39 33  1  0  0  0  0
M  END
>  <MODEL>
9

>  <REMARK>
 VINA RESULT:      -8.1      3.652      7.224
  Name = 
  9 active torsions:
  status: ('A' for Active; 'I' for Inactive)
    1  A    between atoms: N_5  and  N_26
    2  A    between atoms: C_8  and  N_14
    3  A    between atoms: N_10  and  C_29
    4  A    between atoms: C_16  and  C_17
    5  A    between atoms: C_16  and  C_32
    6  A    between atoms: C_28  and  N_30
    7  A    between atoms: C_28  and  C_35
    8  A    between atoms: C_32  and  C_39
    9  A    between atoms: C_35  and  N_36
                            x       y       z     vdW  Elec       q    Type
                         _______ _______ _______ _____ _____    ______ ____

>  <TORSDO>
F 9

$$$$
