=
 OpenBabel11042412143D

 67 72  0  0  1  0  0  0  0  0999 V2000
  189.4740  178.4050  142.5990 O   0  0  0  0  0  0  0  0  0  0  0  0
  193.5470  175.2490  137.8020 C   0  0  0  0  0  0  0  0  0  0  0  0
  191.4240  176.9920  141.8280 C   0  0  0  0  0  3  0  0  0  0  0  0
  190.4520  175.2390  134.5990 C   0  0  0  0  0  3  0  0  0  0  0  0
  190.3640  176.7180  144.1430 C   0  0  1  0  0  0  0  0  0  0  0  0
  193.8430  176.0580  138.7690 N   0  0  0  0  0  0  0  0  0  0  0  0
  191.8350  175.1000  135.1440 C   0  0  0  0  0  2  0  0  0  0  0  0
  186.3890  178.2520  138.7560 C   0  0  0  0  0  0  0  0  0  0  0  0
  189.4830  175.9650  143.1650 C   0  0  0  0  0  2  0  0  0  0  0  0
  188.8850  178.4230  141.3270 C   0  0  2  0  0  3  0  0  0  0  0  0
  191.5270  176.0220  144.4770 O   0  0  0  0  0  1  0  0  0  0  0  0
  187.1340  177.4360  139.6340 C   0  0  0  0  0  0  0  0  0  0  0  0
  187.1770  176.6920  135.4560 N   0  0  0  0  0  2  0  0  0  0  0  0
  192.8760  176.8780  139.3600 N   0  0  0  0  0  2  0  0  0  0  0  0
  186.4150  177.9870  137.3810 C   0  0  0  0  0  3  0  0  0  0  0  0
  187.1740  176.9300  136.8710 C   0  0  0  0  0  0  0  0  0  0  0  0
  192.0680  177.9710  141.3090 N   0  0  0  0  0  0  0  0  0  0  0  0
  192.2010  175.1890  137.2980 N   0  0  0  0  0  2  0  0  0  0  0  0
  188.2020  176.0220  134.7630 N   0  0  0  0  0  2  0  0  0  0  0  0
  187.8740  176.0990  137.7520 C   0  0  0  0  0  3  0  0  0  0  0  0
  193.2290  177.7200  140.4920 C   0  0  0  0  0  2  0  0  0  0  0  0
  187.8530  176.3510  139.1250 C   0  0  0  0  0  3  0  0  0  0  0  0
  189.5170  175.8670  135.2940 C   0  0  0  0  0  3  0  0  0  0  0  0
  188.8520  179.8490  140.8160 C   0  0  0  0  0  1  0  0  0  0  0  0
  191.8210  174.3360  136.3170 O   0  0  0  0  0  0  0  0  0  0  0  0
  190.2310  177.2200  142.7140 C   0  0  1  0  0  0  0  0  0  0  0  0
  187.1920  177.7460  141.4040 S   0  0  0  0  0  0  0  0  0  0  0  0
  195.3260  175.0290  136.0380 C   0  0  0  0  0  2  0  0  0  0  0  0
  194.6320  174.3740  137.2510 C   0  0  1  0  0  3  0  0  0  0  0  0
  198.7230  172.3620  136.8540 C   0  0  0  0  0  1  0  0  0  0  0  0
  196.5120  172.7710  137.9240 C   0  0  0  0  0  2  0  0  0  0  0  0
  197.7090  174.5980  136.6070 C   0  0  0  0  0  3  0  0  0  0  0  0
  196.7440  175.4710  136.2880 C   0  0  0  0  0  3  0  0  0  0  0  0
  195.5520  173.8800  138.3710 C   0  0  0  0  0  2  0  0  0  0  0  0
  197.4240  173.1260  136.7420 C   0  0  1  0  0  3  0  0  0  0  0  0
  190.1420  178.7360  145.9570 O   0  0  0  0  0  0  0  0  0  0  0  0
  189.4250  177.4830  145.5060 P   0  0  2  0  0  0  0  0  0  0  0  0
  189.3590  176.3760  146.7840 O   0  0  0  0  0  1  0  0  0  0  0  0
  187.8030  177.8730  144.9530 N   0  0  0  0  0  2  0  0  0  0  0  0
  187.7360  178.5920  147.6640 O   0  0  0  0  0  1  0  0  0  0  0  0
  185.8110  179.2930  146.0520 O   0  0  0  0  0  0  0  0  0  0  0  0
  185.9020  176.7630  146.7340 O   0  0  0  0  0  1  0  0  0  0  0  0
  186.7710  178.1610  146.3450 P   0  0  0  0  0  0  0  0  0  0  0  0
  185.5560  179.4000  139.2360 C   0  0  0  0  0  2  0  0  0  0  0  0
  182.1610  179.2820  137.7760 N   0  0  0  0  0  2  0  0  0  0  0  0
  184.3990  179.5780  138.3730 N   0  0  0  0  0  2  0  0  0  0  0  0
  183.0910  179.0590  138.6470 C   0  0  0  0  0  0  0  0  0  0  0  0
  182.7230  178.5870  140.0400 C   0  0  2  0  0  3  0  0  0  0  0  0
  183.5850  177.5540  140.4290 O   0  0  0  0  0  1  0  0  0  0  0  0
  181.2620  178.1130  140.1930 C   0  0  2  0  0  3  0  0  0  0  0  0
  180.1000  178.0970  142.0620 O   0  0  0  0  0  1  0  0  0  0  0  0
  180.5180  178.9010  141.0980 O   0  0  0  0  0  0  0  0  0  0  0  0
  181.1900  176.6290  140.5650 C   0  0  0  0  0  2  0  0  0  0  0  0
  180.2310  176.4680  137.2170 O   0  0  0  0  0  0  0  0  0  0  0  0
  180.4390  175.8290  139.5090 C   0  0  2  0  0  3  0  0  0  0  0  0
  181.1290  175.9190  138.1540 C   0  0  1  0  0  3  0  0  0  0  0  0
  179.0990  176.4630  139.2850 C   0  0  0  0  0  2  0  0  0  0  0  0
  179.2650  177.1610  137.9600 C   0  0  0  0  0  2  0  0  0  0  0  0
  181.5100  174.5780  137.7270 N   0  0  0  0  0  2  0  0  0  0  0  0
  182.8560  174.6010  137.1590 C   0  0  0  0  0  0  0  0  0  0  0  0
  183.3210  175.9270  136.5940 C   0  0  0  0  0  2  0  0  0  0  0  0
  183.7910  175.4750  137.9680 C   0  0  0  0  0  2  0  0  0  0  0  0
  182.8650  172.1560  137.2120 O   0  0  0  0  0  1  0  0  0  0  0  0
  183.4510  173.2840  136.6230 C   0  0  2  0  0  3  0  0  0  0  0  0
  185.5890  172.4850  135.6060 C   0  0  0  0  0  1  0  0  0  0  0  0
  184.9720  173.2450  136.7650 C   0  0  2  0  0  3  0  0  0  0  0  0
  185.3490  172.6480  137.9710 O   0  0  0  0  0  1  0  0  0  0  0  0
  1 26  1  0  0  0  0
  2  6  2  0  0  0  0
  4  7  1  0  0  0  0
  4 23  2  0  0  0  0
  5 11  1  1  0  0  0
  5 37  1  0  0  0  0
  6 14  1  0  0  0  0
  7 25  1  0  0  0  0
  8 44  1  0  0  0  0
  8 12  1  0  0  0  0
  9  5  1  0  0  0  0
 10 24  1  1  0  0  0
 10 27  1  0  0  0  0
 10  1  1  0  0  0  0
 12 27  1  0  0  0  0
 13 16  1  0  0  0  0
 14 21  1  0  0  0  0
 15  8  2  0  0  0  0
 16 15  1  0  0  0  0
 16 20  2  0  0  0  0
 17  3  2  0  0  0  0
 18  2  1  0  0  0  0
 19 23  1  0  0  0  0
 19 13  1  0  0  0  0
 20 22  1  0  0  0  0
 21 17  1  0  0  0  0
 22 12  2  0  0  0  0
 25 18  1  0  0  0  0
 26  3  1  6  0  0  0
 26  9  1  0  0  0  0
 26  5  1  0  0  0  0
 28 33  1  0  0  0  0
 28 29  1  0  0  0  0
 29  2  1  1  0  0  0
 29 34  1  0  0  0  0
 31 34  1  0  0  0  0
 32 35  1  0  0  0  0
 33 32  2  0  0  0  0
 35 30  1  1  0  0  0
 35 31  1  0  0  0  0
 37 36  2  1  0  0  0
 37 38  1  0  0  0  0
 39 37  1  0  0  0  0
 39 43  1  0  0  0  0
 41 43  2  0  0  0  0
 43 42  1  0  0  0  0
 43 40  1  0  0  0  0
 45 47  2  0  0  0  0
 46 47  1  0  0  0  0
 46 44  1  0  0  0  0
 47 48  1  0  0  0  0
 48 50  1  0  0  0  0
 48 49  1  6  0  0  0
 50 53  1  1  0  0  0
 50 52  1  0  0  0  0
 52 51  1  0  0  0  0
 54 58  1  0  0  0  0
 54 56  1  0  0  0  0
 55 53  1  1  0  0  0
 56 59  1  6  0  0  0
 56 55  1  0  0  0  0
 57 55  1  0  0  0  0
 58 57  1  0  0  0  0
 60 59  1  0  0  0  0
 60 62  1  0  0  0  0
 61 60  1  0  0  0  0
 61 62  1  0  0  0  0
 64 66  1  0  0  0  0
 64 60  1  0  0  0  0
 64 63  1  1  0  0  0
 66 65  1  6  0  0  0
 66 67  1  0  0  0  0
M  END
>  <MODEL>
1

>  <REMARK>
 VINA RESULT:      -3.1      0.000      0.000
  Name = 
  15 active torsions:
  status: ('A' for Active; 'I' for Inactive)
    1  A    between atoms: C_6  and  C_8
    2  A    between atoms: N_10  and  C_28
    3  A    between atoms: C_11  and  C_55
    4  A    between atoms: N_13  and  P_35
    5  A    between atoms: N_13  and  P_61
    6  A    between atoms: C_14  and  P_61
    7  A    between atoms: C_18  and  C_32
    8  A    between atoms: C_18  and  N_34
    9  A    between atoms: C_19  and  C_28
   10  A    between atoms: C_20  and  N_34
   11  A    between atoms: C_29  and  C_32
   12  A    between atoms: C_33  and  C_43
   13  A    between atoms: C_33  and  C_47
   14  A    between atoms: O_45  and  C_47
   15  A    between atoms: C_47  and  C_55
                            x       y       z     vdW  Elec       q    Type
                         _______ _______ _______ _____ _____    ______ ____

>  <TORSDO>
F 15

$$$$
=
 OpenBabel11042412143D

 67 72  0  0  1  0  0  0  0  0999 V2000
  189.5300  178.2410  142.8310 O   0  0  0  0  0  0  0  0  0  0  0  0
  193.4690  175.3900  137.7380 C   0  0  0  0  0  0  0  0  0  0  0  0
  191.4390  176.8550  141.9210 C   0  0  0  0  0  3  0  0  0  0  0  0
  190.3290  175.6920  134.5940 C   0  0  0  0  0  3  0  0  0  0  0  0
  190.4070  176.4210  144.2240 C   0  0  1  0  0  0  0  0  0  0  0  0
  193.7940  176.1150  138.7610 N   0  0  0  0  0  0  0  0  0  0  0  0
  191.7160  175.4830  135.1040 C   0  0  0  0  0  2  0  0  0  0  0  0
  186.3890  178.4500  139.0370 C   0  0  0  0  0  0  0  0  0  0  0  0
  189.4970  175.7640  143.2040 C   0  0  0  0  0  2  0  0  0  0  0  0
  188.9240  178.3700  141.5740 C   0  0  2  0  0  3  0  0  0  0  0  0
  191.5600  175.6780  144.4840 O   0  0  0  0  0  1  0  0  0  0  0  0
  187.1290  177.5540  139.8360 C   0  0  0  0  0  0  0  0  0  0  0  0
  187.0970  177.1380  135.6130 N   0  0  0  0  0  2  0  0  0  0  0  0
  192.8530  176.9050  139.4290 N   0  0  0  0  0  2  0  0  0  0  0  0
  186.3900  178.2940  137.6450 C   0  0  0  0  0  3  0  0  0  0  0  0
  187.1190  177.2650  137.0430 C   0  0  0  0  0  0  0  0  0  0  0  0
  192.0970  177.8580  141.4700 N   0  0  0  0  0  0  0  0  0  0  0  0
  192.1150  175.3970  137.2530 N   0  0  0  0  0  2  0  0  0  0  0  0
  188.0980  176.5040  134.8540 N   0  0  0  0  0  2  0  0  0  0  0  0
  187.8140  176.3530  137.8440 C   0  0  0  0  0  3  0  0  0  0  0  0
  193.2400  177.6490  140.6180 C   0  0  0  0  0  2  0  0  0  0  0  0
  187.8180  176.4980  139.2330 C   0  0  0  0  0  3  0  0  0  0  0  0
  189.4160  176.2820  135.3510 C   0  0  0  0  0  3  0  0  0  0  0  0
  188.9140  179.8320  141.1750 C   0  0  0  0  0  1  0  0  0  0  0  0
  191.7030  174.6300  136.2140 O   0  0  0  0  0  0  0  0  0  0  0  0
  190.2650  177.0360  142.8410 C   0  0  1  0  0  0  0  0  0  0  0  0
  187.2190  177.7230  141.6240 S   0  0  0  0  0  0  0  0  0  0  0  0
  195.3260  175.3280  136.0440 C   0  0  0  0  0  2  0  0  0  0  0  0
  194.5270  174.5400  137.1040 C   0  0  1  0  0  3  0  0  0  0  0  0
  198.5030  172.3370  136.5750 C   0  0  0  0  0  1  0  0  0  0  0  0
  196.2650  172.7240  137.5950 C   0  0  0  0  0  2  0  0  0  0  0  0
  197.6430  174.6480  136.6450 C   0  0  0  0  0  3  0  0  0  0  0  0
  196.7520  175.6260  136.4270 C   0  0  0  0  0  3  0  0  0  0  0  0
  195.3510  173.8130  138.1710 C   0  0  0  0  0  2  0  0  0  0  0  0
  197.2610  173.1970  136.5280 C   0  0  1  0  0  3  0  0  0  0  0  0
  188.0180  177.0270  145.3790 O   0  0  0  0  0  0  0  0  0  0  0  0
  189.5030  177.0950  145.6580 P   0  0  2  0  0  0  0  0  0  0  0  0
  189.9700  178.7070  145.8630 O   0  0  0  0  0  1  0  0  0  0  0  0
  189.8980  176.1580  147.0910 N   0  0  0  0  0  2  0  0  0  0  0  0
  192.2430  175.1870  148.2870 O   0  0  0  0  0  1  0  0  0  0  0  0
  192.3530  177.0160  146.4320 O   0  0  0  0  0  0  0  0  0  0  0  0
  191.4830  177.7860  148.7830 O   0  0  0  0  0  1  0  0  0  0  0  0
  191.5260  176.5620  147.6160 P   0  0  0  0  0  0  0  0  0  0  0  0
  185.5870  179.5740  139.6180 C   0  0  0  0  0  2  0  0  0  0  0  0
  182.2450  179.5040  138.0380 N   0  0  0  0  0  2  0  0  0  0  0  0
  184.4310  179.8520  138.7810 N   0  0  0  0  0  2  0  0  0  0  0  0
  183.1790  179.1580  138.8620 C   0  0  0  0  0  0  0  0  0  0  0  0
  182.8410  178.3160  140.0770 C   0  0  2  0  0  3  0  0  0  0  0  0
  183.4620  177.0660  139.9700 O   0  0  0  0  0  1  0  0  0  0  0  0
  181.3290  178.1120  140.3170 C   0  0  2  0  0  3  0  0  0  0  0  0
  180.3930  179.8630  141.2660 O   0  0  0  0  0  1  0  0  0  0  0  0
  180.8850  178.6650  141.5370 O   0  0  0  0  0  0  0  0  0  0  0  0
  180.9380  176.6360  140.2050 C   0  0  0  0  0  2  0  0  0  0  0  0
  179.8020  177.4380  137.0080 O   0  0  0  0  0  0  0  0  0  0  0  0
  179.8360  176.4320  139.1740 C   0  0  2  0  0  3  0  0  0  0  0  0
  180.4000  176.4070  137.7600 C   0  0  1  0  0  3  0  0  0  0  0  0
  178.9310  177.6280  139.1910 C   0  0  0  0  0  2  0  0  0  0  0  0
  179.3170  178.3690  137.9370 C   0  0  0  0  0  2  0  0  0  0  0  0
  180.0880  175.1210  137.1480 N   0  0  0  0  0  2  0  0  0  0  0  0
  181.2850  174.5640  136.5230 C   0  0  0  0  0  0  0  0  0  0  0  0
  181.5180  174.9390  135.0730 C   0  0  0  0  0  2  0  0  0  0  0  0
  182.2910  175.6430  136.1780 C   0  0  0  0  0  2  0  0  0  0  0  0
  183.2620  173.2780  137.1680 O   0  0  0  0  0  1  0  0  0  0  0  0
  181.8640  173.2490  137.0800 C   0  0  2  0  0  3  0  0  0  0  0  0
  180.0070  171.6130  136.7340 C   0  0  0  0  0  1  0  0  0  0  0  0
  181.3930  172.0340  136.2820 C   0  0  2  0  0  3  0  0  0  0  0  0
  182.2790  170.9620  136.4280 O   0  0  0  0  0  1  0  0  0  0  0  0
  1 26  1  0  0  0  0
  2  6  2  0  0  0  0
  4  7  1  0  0  0  0
  4 23  2  0  0  0  0
  5 11  1  1  0  0  0
  5 37  1  0  0  0  0
  6 14  1  0  0  0  0
  7 25  1  0  0  0  0
  8 44  1  0  0  0  0
  8 12  1  0  0  0  0
  9  5  1  0  0  0  0
 10 24  1  1  0  0  0
 10 27  1  0  0  0  0
 10  1  1  0  0  0  0
 12 27  1  0  0  0  0
 13 16  1  0  0  0  0
 14 21  1  0  0  0  0
 15  8  2  0  0  0  0
 16 15  1  0  0  0  0
 16 20  2  0  0  0  0
 17  3  2  0  0  0  0
 18  2  1  0  0  0  0
 19 23  1  0  0  0  0
 19 13  1  0  0  0  0
 20 22  1  0  0  0  0
 21 17  1  0  0  0  0
 22 12  2  0  0  0  0
 25 18  1  0  0  0  0
 26  3  1  6  0  0  0
 26  9  1  0  0  0  0
 26  5  1  0  0  0  0
 28 33  1  0  0  0  0
 28 29  1  0  0  0  0
 29  2  1  1  0  0  0
 29 34  1  0  0  0  0
 31 34  1  0  0  0  0
 33 32  2  0  0  0  0
 35 30  1  1  0  0  0
 35 32  1  0  0  0  0
 35 31  1  0  0  0  0
 37 36  2  6  0  0  0
 37 38  1  0  0  0  0
 37 39  1  0  0  0  0
 39 43  1  0  0  0  0
 41 43  2  0  0  0  0
 43 40  1  0  0  0  0
 43 42  1  0  0  0  0
 45 47  2  0  0  0  0
 46 47  1  0  0  0  0
 46 44  1  0  0  0  0
 47 48  1  0  0  0  0
 48 49  1  6  0  0  0
 48 50  1  0  0  0  0
 50 53  1  1  0  0  0
 50 52  1  0  0  0  0
 51 52  1  0  0  0  0
 54 56  1  0  0  0  0
 54 58  1  0  0  0  0
 55 57  1  0  0  0  0
 55 53  1  1  0  0  0
 56 59  1  6  0  0  0
 56 55  1  0  0  0  0
 58 57  1  0  0  0  0
 60 64  1  0  0  0  0
 60 59  1  0  0  0  0
 61 62  1  0  0  0  0
 61 60  1  0  0  0  0
 62 60  1  0  0  0  0
 64 63  1  6  0  0  0
 66 67  1  0  0  0  0
 66 65  1  1  0  0  0
 66 64  1  0  0  0  0
M  END
>  <MODEL>
2

>  <REMARK>
 VINA RESULT:      -2.2      1.275      2.003
  Name = 
  15 active torsions:
  status: ('A' for Active; 'I' for Inactive)
    1  A    between atoms: C_6  and  C_8
    2  A    between atoms: N_10  and  C_28
    3  A    between atoms: C_11  and  C_55
    4  A    between atoms: N_13  and  P_35
    5  A    between atoms: N_13  and  P_61
    6  A    between atoms: C_14  and  P_61
    7  A    between atoms: C_18  and  C_32
    8  A    between atoms: C_18  and  N_34
    9  A    between atoms: C_19  and  C_28
   10  A    between atoms: C_20  and  N_34
   11  A    between atoms: C_29  and  C_32
   12  A    between atoms: C_33  and  C_43
   13  A    between atoms: C_33  and  C_47
   14  A    between atoms: O_45  and  C_47
   15  A    between atoms: C_47  and  C_55
                            x       y       z     vdW  Elec       q    Type
                         _______ _______ _______ _____ _____    ______ ____

>  <TORSDO>
F 15

$$$$
=
 OpenBabel11042412143D

 67 72  0  0  1  0  0  0  0  0999 V2000
  183.3270  173.4320  137.0850 O   0  0  0  0  0  0  0  0  0  0  0  0
  190.1790  172.8380  135.5820 C   0  0  0  0  0  0  0  0  0  0  0  0
  185.3660  172.2910  136.1170 C   0  0  0  0  0  3  0  0  0  0  0  0
  191.0410  177.1940  135.9340 C   0  0  0  0  0  3  0  0  0  0  0  0
  183.0060  171.8820  135.2080 C   0  0  1  0  0  0  0  0  0  0  0  0
  189.3660  172.0270  136.1810 N   0  0  0  0  0  0  0  0  0  0  0  0
  191.3990  175.7480  135.8370 C   0  0  0  0  0  2  0  0  0  0  0  0
  184.7410  178.1410  137.4440 C   0  0  0  0  0  0  0  0  0  0  0  0
  183.4930  173.1830  134.5970 C   0  0  0  0  0  2  0  0  0  0  0  0
  184.0140  174.6300  137.3190 C   0  0  2  0  0  3  0  0  0  0  0  0
  183.5530  170.7540  134.5940 O   0  0  0  0  0  1  0  0  0  0  0  0
  184.6530  177.0580  136.5430 C   0  0  0  0  0  0  0  0  0  0  0  0
  188.1970  179.3820  136.7680 N   0  0  0  0  0  2  0  0  0  0  0  0
  188.1590  172.4720  136.7290 N   0  0  0  0  0  2  0  0  0  0  0  0
  185.9180  178.8960  137.5000 C   0  0  0  0  0  3  0  0  0  0  0  0
  187.0060  178.5860  136.6800 C   0  0  0  0  0  0  0  0  0  0  0  0
  185.8870  172.0170  137.2550 N   0  0  0  0  0  0  0  0  0  0  0  0
  189.8580  174.2370  135.4810 N   0  0  0  0  0  2  0  0  0  0  0  0
  189.4800  178.9420  136.3940 N   0  0  0  0  0  2  0  0  0  0  0  0
  186.8960  177.5400  135.7580 C   0  0  0  0  0  3  0  0  0  0  0  0
  187.2380  171.5210  137.3310 C   0  0  0  0  0  2  0  0  0  0  0  0
  185.7260  176.7810  135.6910 C   0  0  0  0  0  3  0  0  0  0  0  0
  189.8160  177.5600  136.2770 C   0  0  0  0  0  3  0  0  0  0  0  0
  184.0460  174.9000  138.8100 C   0  0  0  0  0  1  0  0  0  0  0  0
  190.6480  175.1270  134.8320 O   0  0  0  0  0  0  0  0  0  0  0  0
  183.9480  172.7770  136.0000 C   0  0  1  0  0  0  0  0  0  0  0  0
  183.1950  176.0100  136.4520 S   0  0  0  0  0  0  0  0  0  0  0  0
  192.6200  173.2490  135.1360 C   0  0  0  0  0  2  0  0  0  0  0  0
  191.4330  172.2740  134.9850 C   0  0  1  0  0  3  0  0  0  0  0  0
  195.2360  169.7580  134.5960 C   0  0  0  0  0  1  0  0  0  0  0  0
  192.7730  170.1110  134.6950 C   0  0  0  0  0  2  0  0  0  0  0  0
  194.3890  171.6750  135.8990 C   0  0  0  0  0  3  0  0  0  0  0  0
  193.6850  172.7970  136.1010 C   0  0  0  0  0  3  0  0  0  0  0  0
  191.6680  170.8410  135.4690 C   0  0  0  0  0  2  0  0  0  0  0  0
  194.1450  170.7990  134.6990 C   0  0  1  0  0  3  0  0  0  0  0  0
  180.6030  170.6420  134.9010 O   0  0  0  0  0  1  0  0  0  0  0  0
  181.2120  171.8740  135.5320 P   0  0  2  0  0  0  0  0  0  0  0  0
  180.5450  173.2600  134.8290 O   0  0  0  0  0  0  0  0  0  0  0  0
  180.9310  171.8740  137.2670 N   0  0  0  0  0  2  0  0  0  0  0  0
  178.9310  173.6040  136.3310 O   0  0  0  0  0  0  0  0  0  0  0  0
  178.9490  172.8110  138.8140 O   0  0  0  0  0  1  0  0  0  0  0  0
  180.7750  174.5660  138.1330 O   0  0  0  0  0  1  0  0  0  0  0  0
  179.8680  173.2120  137.6800 P   0  0  0  0  0  0  0  0  0  0  0  0
  183.6130  178.5270  138.3500 C   0  0  0  0  0  2  0  0  0  0  0  0
  180.3090  179.8140  137.3020 N   0  0  0  0  0  2  0  0  0  0  0  0
  182.4920  179.0320  137.5730 N   0  0  0  0  0  2  0  0  0  0  0  0
  181.2180  179.3960  138.1200 C   0  0  0  0  0  0  0  0  0  0  0  0
  181.0550  179.6250  139.6110 C   0  0  2  0  0  3  0  0  0  0  0  0
  181.7670  180.7690  139.9910 O   0  0  0  0  0  1  0  0  0  0  0  0
  181.4960  178.4370  140.4940 C   0  0  2  0  0  3  0  0  0  0  0  0
  180.0950  177.6760  142.0100 O   0  0  0  0  0  1  0  0  0  0  0  0
  180.4520  177.5200  140.7460 O   0  0  0  0  0  0  0  0  0  0  0  0
  182.1370  178.9170  141.7990 C   0  0  0  0  0  2  0  0  0  0  0  0
  185.5150  179.0570  142.6510 O   0  0  0  0  0  0  0  0  0  0  0  0
  183.3850  178.1100  142.1320 C   0  0  2  0  0  3  0  0  0  0  0  0
  184.2340  178.8120  143.1830 C   0  0  1  0  0  3  0  0  0  0  0  0
  184.2650  178.0590  140.9180 C   0  0  0  0  0  2  0  0  0  0  0  0
  185.3740  179.0230  141.2570 C   0  0  0  0  0  2  0  0  0  0  0  0
  184.3540  177.9470  144.3490 N   0  0  0  0  0  2  0  0  0  0  0  0
  185.5050  178.3530  145.1530 C   0  0  0  0  0  0  0  0  0  0  0  0
  185.3770  179.6730  145.8850 C   0  0  0  0  0  2  0  0  0  0  0  0
  185.1800  178.3630  146.6320 C   0  0  0  0  0  2  0  0  0  0  0  0
  186.8470  176.5090  144.2710 O   0  0  0  0  0  1  0  0  0  0  0  0
  186.8980  177.8180  144.7680 C   0  0  2  0  0  3  0  0  0  0  0  0
  189.2630  178.3100  145.4080 C   0  0  0  0  0  1  0  0  0  0  0  0
  187.8910  177.9230  145.9250 C   0  0  2  0  0  3  0  0  0  0  0  0
  187.9770  176.7160  146.6250 O   0  0  0  0  0  1  0  0  0  0  0  0
  1 10  1  0  0  0  0
  2  6  2  0  0  0  0
  3 17  2  0  0  0  0
  4 23  2  0  0  0  0
  5 11  1  6  0  0  0
  5 37  1  0  0  0  0
  5 26  1  0  0  0  0
  6 14  1  0  0  0  0
  7  4  1  0  0  0  0
  8 15  1  0  0  0  0
  8 44  1  0  0  0  0
  9  5  1  0  0  0  0
 10 24  1  1  0  0  0
 12  8  2  0  0  0  0
 14 21  1  0  0  0  0
 16 13  1  0  0  0  0
 16 15  2  0  0  0  0
 17 21  1  0  0  0  0
 18  2  1  0  0  0  0
 19 13  1  0  0  0  0
 20 16  1  0  0  0  0
 22 20  2  0  0  0  0
 22 12  1  0  0  0  0
 23 19  1  0  0  0  0
 25 18  1  0  0  0  0
 25  7  1  0  0  0  0
 26  9  1  6  0  0  0
 26  3  1  0  0  0  0
 26  1  1  0  0  0  0
 27 12  1  0  0  0  0
 27 10  1  0  0  0  0
 28 33  1  0  0  0  0
 29 28  1  0  0  0  0
 29 34  1  0  0  0  0
 29  2  1  1  0  0  0
 31 35  1  0  0  0  0
 31 34  1  0  0  0  0
 32 33  2  0  0  0  0
 35 30  1  1  0  0  0
 35 32  1  0  0  0  0
 36 37  1  0  0  0  0
 37 38  2  6  0  0  0
 37 39  1  0  0  0  0
 39 43  1  0  0  0  0
 40 43  2  0  0  0  0
 43 42  1  0  0  0  0
 43 41  1  0  0  0  0
 45 47  2  0  0  0  0
 46 47  1  0  0  0  0
 46 44  1  0  0  0  0
 47 48  1  0  0  0  0
 48 49  1  1  0  0  0
 48 50  1  0  0  0  0
 50 52  1  0  0  0  0
 50 53  1  1  0  0  0
 52 51  1  0  0  0  0
 54 56  1  0  0  0  0
 55 53  1  6  0  0  0
 55 56  1  0  0  0  0
 56 59  1  1  0  0  0
 57 58  1  0  0  0  0
 57 55  1  0  0  0  0
 58 54  1  0  0  0  0
 59 60  1  0  0  0  0
 60 61  1  0  0  0  0
 60 62  1  0  0  0  0
 61 62  1  0  0  0  0
 64 63  1  1  0  0  0
 64 60  1  0  0  0  0
 64 66  1  0  0  0  0
 66 65  1  6  0  0  0
 66 67  1  0  0  0  0
M  END
>  <MODEL>
3

>  <REMARK>
 VINA RESULT:      -0.3      3.691      7.795
  Name = 
  15 active torsions:
  status: ('A' for Active; 'I' for Inactive)
    1  A    between atoms: C_6  and  C_8
    2  A    between atoms: N_10  and  C_28
    3  A    between atoms: C_11  and  C_55
    4  A    between atoms: N_13  and  P_35
    5  A    between atoms: N_13  and  P_61
    6  A    between atoms: C_14  and  P_61
    7  A    between atoms: C_18  and  C_32
    8  A    between atoms: C_18  and  N_34
    9  A    between atoms: C_19  and  C_28
   10  A    between atoms: C_20  and  N_34
   11  A    between atoms: C_29  and  C_32
   12  A    between atoms: C_33  and  C_43
   13  A    between atoms: C_33  and  C_47
   14  A    between atoms: O_45  and  C_47
   15  A    between atoms: C_47  and  C_55
                            x       y       z     vdW  Elec       q    Type
                         _______ _______ _______ _____ _____    ______ ____

>  <TORSDO>
F 15

$$$$
