=
 OpenBabel11032421263D

 34 37  0  0  1  0  0  0  0  0999 V2000
  189.7710  177.2420  140.3410 C   0  0  0  0  0  0  0  0  0  0  0  0
  185.5800  177.8370  137.3170 C   0  0  0  0  0  2  0  0  0  0  0  0
  184.8260  179.2150  143.3160 C   0  0  0  0  0  2  0  0  0  0  0  0
  182.8370  177.2410  139.0570 N   0  0  0  0  0  0  0  0  0  0  0  0
  182.2870  178.6540  141.8440 C   0  0  0  0  0  2  0  0  0  0  0  0
  189.4380  176.9070  139.0250 C   0  0  0  0  0  3  0  0  0  0  0  0
  181.2340  179.0380  139.6340 C   0  0  1  0  0  3  0  0  0  0  0  0
  181.1940  178.6150  143.9620 O   0  0  0  0  0  1  0  0  0  0  0  0
  180.9780  179.3370  137.4100 C   0  0  0  0  0  3  0  0  0  0  0  0
  184.6760  176.6390  137.5680 C   0  0  0  0  0  2  0  0  0  0  0  0
  180.8400  179.9300  138.7360 C   0  0  0  0  0  3  0  0  0  0  0  0
  188.2150  177.3070  138.4870 C   0  0  0  0  0  3  0  0  0  0  0  0
  185.6010  177.9170  142.3130 S   0  0  0  0  0  0  0  0  0  0  0  0
  188.8650  177.9690  141.1140 C   0  0  0  0  0  3  0  0  0  0  0  0
  186.0180  178.4570  138.6080 C   0  0  0  0  0  0  0  0  0  0  0  0
  187.2980  178.0510  139.2470 C   0  0  0  0  0  0  0  0  0  0  0  0
  183.5860  178.6560  143.9990 C   0  0  2  0  0  3  0  0  0  0  0  0
  186.7060  179.1060  141.5000 C   0  0  0  0  0  2  0  0  0  0  0  0
  181.3300  178.0700  137.5660 C   0  0  2  0  0  3  0  0  0  0  0  0
  181.1180  179.2740  141.1030 C   0  0  0  0  0  2  0  0  0  0  0  0
  181.4600  177.7110  138.9920 C   0  0  1  0  0  3  0  0  0  0  0  0
  183.2810  177.0830  137.8480 C   0  0  0  0  0  0  0  0  0  0  0  0
  182.3120  179.1200  143.2930 C   0  0  1  0  0  3  0  0  0  0  0  0
  187.6380  178.3830  140.5840 C   0  0  0  0  0  0  0  0  0  0  0  0
  185.2770  179.3290  139.1340 O   0  0  0  0  0  0  0  0  0  0  0  0
  182.4040  177.5300  136.8160 N   0  0  0  0  0  2  0  0  0  0  0  0
  183.5670  179.0980  145.3850 N   0  0  0  0  0  2  0  0  0  0  0  0
  185.2640  178.3280  146.9320 C   0  0  0  0  0  1  0  0  0  0  0  0
  184.9490  179.2760  145.7960 C   0  0  0  0  0  2  0  0  0  0  0  0
  191.0140  176.8350  140.9210 N   0  0  0  0  0  2  0  0  0  0  0  0
  191.5370  177.3770  142.1680 C   0  0  0  0  0  2  0  0  0  0  0  0
  191.3070  176.4000  143.3090 C   0  0  2  0  0  3  0  0  0  0  0  0
  190.5390  175.3210  142.8710 O   0  0  0  0  0  1  0  0  0  0  0  0
  190.5820  177.1060  144.4350 C   0  0  0  0  0  1  0  0  0  0  0  0
  1 30  1  0  0  0  0
  1 14  1  0  0  0  0
  2 10  1  0  0  0  0
  2 15  1  0  0  0  0
  3 17  1  0  0  0  0
  5 23  1  0  0  0  0
  6  1  2  0  0  0  0
  7 11  1  6  0  0  0
  7 20  1  0  0  0  0
  9 11  2  0  0  0  0
 10 22  1  0  0  0  0
 12  6  1  0  0  0  0
 12 16  2  0  0  0  0
 13  3  1  0  0  0  0
 15 25  2  0  0  0  0
 15 16  1  0  0  0  0
 16 24  1  0  0  0  0
 17 27  1  1  0  0  0
 18 13  1  0  0  0  0
 19  9  1  1  0  0  0
 19 21  1  0  0  0  0
 20  5  1  0  0  0  0
 21  4  1  6  0  0  0
 21  7  1  0  0  0  0
 22  4  2  0  0  0  0
 23  8  1  1  0  0  0
 23 17  1  0  0  0  0
 24 14  2  0  0  0  0
 24 18  1  0  0  0  0
 26 19  1  0  0  0  0
 26 22  1  0  0  0  0
 27 29  1  0  0  0  0
 29 28  1  0  0  0  0
 30 31  1  0  0  0  0
 31 32  1  0  0  0  0
 32 34  1  1  0  0  0
 33 32  1  0  0  0  0
M  END
>  <MODEL>
1

>  <REMARK>
 VINA RESULT:      -8.1      0.000      0.000
  Name = 
  5 active torsions:
  status: ('A' for Active; 'I' for Inactive)
    1  A    between atoms: C_1  and  N_33
    2  A    between atoms: C_9  and  C_31
    3  A    between atoms: N_10  and  C_22
    4  A    between atoms: N_10  and  C_30
    5  A    between atoms: C_31  and  N_33
                            x       y       z     vdW  Elec       q    Type
                         _______ _______ _______ _____ _____    ______ ____

>  <TORSDO>
F 5

$$$$
=
 OpenBabel11032421263D

 34 37  0  0  1  0  0  0  0  0999 V2000
  190.4750  177.1500  147.1300 C   0  0  0  0  0  0  0  0  0  0  0  0
  185.5060  177.9470  145.8100 C   0  0  0  0  0  2  0  0  0  0  0  0
  189.4700  177.1170  141.1140 C   0  0  0  0  0  2  0  0  0  0  0  0
  185.3450  179.5170  142.9080 N   0  0  0  0  0  0  0  0  0  0  0  0
  186.9200  178.4770  140.3580 C   0  0  0  0  0  2  0  0  0  0  0  0
  189.3150  177.5370  147.8090 C   0  0  0  0  0  3  0  0  0  0  0  0
  184.4940  178.4090  140.8640 C   0  0  0  0  0  0  0  0  0  0  0  0
  187.9290  178.9630  138.2540 O   0  0  0  0  0  1  0  0  0  0  0  0
  182.5490  178.1430  141.9820 C   0  0  0  0  0  2  0  0  0  0  0  0
  185.3950  179.3930  145.3470 C   0  0  0  0  0  2  0  0  0  0  0  0
  183.3880  177.6800  140.8800 C   0  0  0  0  0  3  0  0  0  0  0  0
  188.0890  177.5680  147.1420 C   0  0  0  0  0  3  0  0  0  0  0  0
  189.4000  178.0320  142.6800 S   0  0  0  0  0  0  0  0  0  0  0  0
  190.3980  176.8090  145.7800 C   0  0  0  0  0  3  0  0  0  0  0  0
  186.6540  177.2570  145.1410 C   0  0  0  0  0  0  0  0  0  0  0  0
  187.9930  177.2150  145.7860 C   0  0  0  0  0  0  0  0  0  0  0  0
  189.3730  178.0950  139.9510 C   0  0  2  0  0  3  0  0  0  0  0  0
  189.1940  176.5070  143.6430 C   0  0  0  0  0  2  0  0  0  0  0  0
  183.1250  179.2140  142.5080 C   0  0  2  0  0  3  0  0  0  0  0  0
  185.5250  178.2760  139.7940 C   0  0  0  0  0  2  0  0  0  0  0  0
  184.3840  179.5530  141.8150 C   0  0  1  0  0  3  0  0  0  0  0  0
  184.6970  179.4700  144.0310 C   0  0  0  0  0  0  0  0  0  0  0  0
  187.9740  178.0790  139.3350 C   0  0  1  0  0  3  0  0  0  0  0  0
  189.1740  176.8300  145.1010 C   0  0  0  0  0  0  0  0  0  0  0  0
  186.4550  176.7150  144.0220 O   0  0  0  0  0  0  0  0  0  0  0  0
  183.2830  179.3220  143.9120 N   0  0  0  0  0  2  0  0  0  0  0  0
  190.3580  177.7340  138.9430 N   0  0  0  0  0  2  0  0  0  0  0  0
  191.6620  175.8810  138.0870 C   0  0  0  0  0  1  0  0  0  0  0  0
  190.7080  176.3420  139.1670 C   0  0  0  0  0  2  0  0  0  0  0  0
  191.7460  177.1200  147.7870 N   0  0  0  0  0  2  0  0  0  0  0  0
  192.5300  175.9050  147.9660 C   0  0  0  0  0  2  0  0  0  0  0  0
  193.4600  176.0460  149.1590 C   0  0  2  0  0  3  0  0  0  0  0  0
  193.1670  175.0750  150.1160 O   0  0  0  0  0  1  0  0  0  0  0  0
  193.2830  177.4200  149.7710 C   0  0  0  0  0  1  0  0  0  0  0  0
  1 30  1  0  0  0  0
  1  6  1  0  0  0  0
  3 13  1  0  0  0  0
  4 22  2  0  0  0  0
  7 11  2  0  0  0  0
 10  2  1  0  0  0  0
 11  9  1  0  0  0  0
 12  6  2  0  0  0  0
 13 18  1  0  0  0  0
 14  1  2  0  0  0  0
 15 16  1  0  0  0  0
 15  2  1  0  0  0  0
 16 12  1  0  0  0  0
 17 27  1  6  0  0  0
 17  3  1  0  0  0  0
 18 24  1  0  0  0  0
 19  9  1  1  0  0  0
 19 26  1  0  0  0  0
 20  5  1  0  0  0  0
 20  7  1  0  0  0  0
 21  7  1  6  0  0  0
 21 19  1  0  0  0  0
 21  4  1  0  0  0  0
 22 10  1  0  0  0  0
 23  8  1  6  0  0  0
 23 17  1  0  0  0  0
 23  5  1  0  0  0  0
 24 14  1  0  0  0  0
 24 16  2  0  0  0  0
 25 15  2  0  0  0  0
 26 22  1  0  0  0  0
 27 29  1  0  0  0  0
 28 29  1  0  0  0  0
 30 31  1  0  0  0  0
 31 32  1  0  0  0  0
 32 34  1  1  0  0  0
 32 33  1  0  0  0  0
M  END
>  <MODEL>
2

>  <REMARK>
 VINA RESULT:      -7.6      3.125      6.741
  Name = 
  5 active torsions:
  status: ('A' for Active; 'I' for Inactive)
    1  A    between atoms: C_1  and  N_33
    2  A    between atoms: C_9  and  C_31
    3  A    between atoms: N_10  and  C_22
    4  A    between atoms: N_10  and  C_30
    5  A    between atoms: C_31  and  N_33
                            x       y       z     vdW  Elec       q    Type
                         _______ _______ _______ _____ _____    ______ ____

>  <TORSDO>
F 5

$$$$
=
 OpenBabel11032421263D

 34 37  0  0  1  0  0  0  0  0999 V2000
  188.4880  178.4520  138.5250 C   0  0  0  0  0  0  0  0  0  0  0  0
  191.2480  176.8280  142.6270 C   0  0  0  0  0  2  0  0  0  0  0  0
  185.3230  178.2860  143.7360 C   0  0  0  0  0  2  0  0  0  0  0  0
  190.1500  178.2900  145.3770 N   0  0  0  0  0  0  0  0  0  0  0  0
  187.0750  178.2870  146.1570 C   0  0  0  0  0  2  0  0  0  0  0  0
  189.8390  178.1900  138.7750 C   0  0  0  0  0  3  0  0  0  0  0  0
  188.9660  177.0290  147.1490 C   0  0  0  0  0  0  0  0  0  0  0  0
  185.2730  179.3200  147.3270 O   0  0  0  0  0  1  0  0  0  0  0  0
  190.8480  175.7940  147.3390 C   0  0  0  0  0  2  0  0  0  0  0  0
  191.6130  178.0650  143.4350 C   0  0  0  0  0  2  0  0  0  0  0  0
  189.4100  175.8570  147.5800 C   0  0  0  0  0  3  0  0  0  0  0  0
  190.2370  177.6660  140.0060 C   0  0  0  0  0  3  0  0  0  0  0  0
  186.7330  178.9610  142.8150 S   0  0  0  0  0  0  0  0  0  0  0  0
  187.5450  178.1940  139.5200 C   0  0  0  0  0  3  0  0  0  0  0  0
  189.7880  176.8170  142.2950 C   0  0  0  0  0  0  0  0  0  0  0  0
  189.2980  177.3890  141.0120 C   0  0  0  0  0  0  0  0  0  0  0  0
  185.0460  179.1600  144.9510 C   0  0  2  0  0  3  0  0  0  0  0  0
  186.8610  177.4730  141.7820 C   0  0  0  0  0  2  0  0  0  0  0  0
  191.2360  176.9780  146.8870 C   0  0  2  0  0  3  0  0  0  0  0  0
  187.5540  177.4720  147.3440 C   0  0  0  0  0  2  0  0  0  0  0  0
  190.1050  177.9220  146.7850 C   0  0  1  0  0  3  0  0  0  0  0  0
  191.2700  177.8720  144.8730 C   0  0  0  0  0  0  0  0  0  0  0  0
  185.5710  178.5080  146.2300 C   0  0  1  0  0  3  0  0  0  0  0  0
  187.9290  177.6620  140.7560 C   0  0  0  0  0  0  0  0  0  0  0  0
  188.9890  176.3120  143.1280 O   0  0  0  0  0  0  0  0  0  0  0  0
  192.0650  177.0680  145.7420 N   0  0  0  0  0  2  0  0  0  0  0  0
  183.6120  179.3770  145.0640 N   0  0  0  0  0  2  0  0  0  0  0  0
  181.5560  178.6720  143.9950 C   0  0  0  0  0  1  0  0  0  0  0  0
  183.0210  178.9940  143.7930 C   0  0  0  0  0  2  0  0  0  0  0  0
  188.0550  179.0000  137.2770 N   0  0  0  0  0  2  0  0  0  0  0  0
  187.1440  178.3140  136.3690 C   0  0  0  0  0  2  0  0  0  0  0  0
  187.7050  176.9550  135.9840 C   0  0  2  0  0  3  0  0  0  0  0  0
  187.7950  176.8480  134.5960 O   0  0  0  0  0  1  0  0  0  0  0  0
  186.7910  175.8690  136.5100 C   0  0  0  0  0  1  0  0  0  0  0  0
  1  6  2  0  0  0  0
  1 14  1  0  0  0  0
  2 10  1  0  0  0  0
  3 17  1  0  0  0  0
  5 23  1  0  0  0  0
  5 20  1  0  0  0  0
  6 12  1  0  0  0  0
  7 20  1  0  0  0  0
  7 11  2  0  0  0  0
  9 11  1  0  0  0  0
 10 22  1  0  0  0  0
 12 16  2  0  0  0  0
 13  3  1  0  0  0  0
 14 24  2  0  0  0  0
 15  2  1  0  0  0  0
 15 25  2  0  0  0  0
 16 15  1  0  0  0  0
 17 27  1  1  0  0  0
 17 23  1  0  0  0  0
 18 13  1  0  0  0  0
 19  9  1  6  0  0  0
 21  4  1  6  0  0  0
 21 19  1  0  0  0  0
 21  7  1  0  0  0  0
 22  4  2  0  0  0  0
 22 26  1  0  0  0  0
 23  8  1  1  0  0  0
 24 16  1  0  0  0  0
 24 18  1  0  0  0  0
 26 19  1  0  0  0  0
 29 28  1  0  0  0  0
 29 27  1  0  0  0  0
 30  1  1  0  0  0  0
 31 30  1  0  0  0  0
 32 31  1  0  0  0  0
 32 34  1  6  0  0  0
 33 32  1  0  0  0  0
M  END
>  <MODEL>
3

>  <REMARK>
 VINA RESULT:      -7.6      3.276      7.595
  Name = 
  5 active torsions:
  status: ('A' for Active; 'I' for Inactive)
    1  A    between atoms: C_1  and  N_33
    2  A    between atoms: C_9  and  C_31
    3  A    between atoms: N_10  and  C_22
    4  A    between atoms: N_10  and  C_30
    5  A    between atoms: C_31  and  N_33
                            x       y       z     vdW  Elec       q    Type
                         _______ _______ _______ _____ _____    ______ ____

>  <TORSDO>
F 5

$$$$
=
 OpenBabel11032421263D

 34 37  0  0  1  0  0  0  0  0999 V2000
  190.1430  177.5140  146.1130 C   0  0  0  0  0  0  0  0  0  0  0  0
  185.1460  178.0110  144.7510 C   0  0  0  0  0  2  0  0  0  0  0  0
  189.1590  177.1330  140.1060 C   0  0  0  0  0  2  0  0  0  0  0  0
  184.9200  179.4240  141.7750 N   0  0  0  0  0  0  0  0  0  0  0  0
  186.5490  178.3320  139.2810 C   0  0  0  0  0  2  0  0  0  0  0  0
  188.9640  177.8780  146.7710 C   0  0  0  0  0  3  0  0  0  0  0  0
  184.1280  178.1770  139.7880 C   0  0  1  0  0  3  0  0  0  0  0  0
  187.5410  178.7590  137.1550 O   0  0  0  0  0  1  0  0  0  0  0  0
  182.1950  177.8760  140.9170 C   0  0  0  0  0  3  0  0  0  0  0  0
  184.9690  179.4240  144.2160 C   0  0  0  0  0  2  0  0  0  0  0  0
  183.0570  177.3980  139.8400 C   0  0  0  0  0  3  0  0  0  0  0  0
  187.7400  177.8190  146.1030 C   0  0  0  0  0  3  0  0  0  0  0  0
  189.0410  178.1200  141.6230 S   0  0  0  0  0  0  0  0  0  0  0  0
  190.0860  177.1020  144.7810 C   0  0  0  0  0  3  0  0  0  0  0  0
  186.3270  177.3420  144.1190 C   0  0  0  0  0  0  0  0  0  0  0  0
  187.6650  177.3950  144.7660 C   0  0  0  0  0  0  0  0  0  0  0  0
  189.0190  178.0450  138.8950 C   0  0  2  0  0  3  0  0  0  0  0  0
  188.9030  176.6370  142.6620 C   0  0  0  0  0  2  0  0  0  0  0  0
  182.7190  178.9980  141.3890 C   0  0  2  0  0  3  0  0  0  0  0  0
  185.1670  178.0390  138.7260 C   0  0  0  0  0  2  0  0  0  0  0  0
  183.9620  179.3600  140.6800 C   0  0  1  0  0  3  0  0  0  0  0  0
  184.2720  179.4030  142.8980 C   0  0  0  0  0  0  0  0  0  0  0  0
  187.6240  177.9340  138.2790 C   0  0  1  0  0  3  0  0  0  0  0  0
  188.8640  177.0320  144.1010 C   0  0  0  0  0  0  0  0  0  0  0  0
  186.1570  176.7360  143.0280 O   0  0  0  0  0  0  0  0  0  0  0  0
  182.8680  179.1830  142.7850 N   0  0  0  0  0  2  0  0  0  0  0  0
  190.0220  177.6800  137.9070 N   0  0  0  0  0  2  0  0  0  0  0  0
  192.0560  176.3850  137.6720 C   0  0  0  0  0  1  0  0  0  0  0  0
  190.7690  176.5580  138.4500 C   0  0  0  0  0  2  0  0  0  0  0  0
  191.4120  177.5750  146.7710 N   0  0  0  0  0  2  0  0  0  0  0  0
  191.6430  177.0830  148.1220 C   0  0  0  0  0  2  0  0  0  0  0  0
  192.4210  175.7780  148.0850 C   0  0  2  0  0  3  0  0  0  0  0  0
  193.7340  175.9880  148.5070 O   0  0  0  0  0  1  0  0  0  0  0  0
  192.4310  175.2410  146.6700 C   0  0  0  0  0  1  0  0  0  0  0  0
  1  6  1  0  0  0  0
  1 30  1  0  0  0  0
  3 13  1  0  0  0  0
  4 22  2  0  0  0  0
  7 20  1  6  0  0  0
  7 11  1  0  0  0  0
  7 21  1  0  0  0  0
 10  2  1  0  0  0  0
 11  9  2  0  0  0  0
 12  6  2  0  0  0  0
 13 18  1  0  0  0  0
 14  1  2  0  0  0  0
 15  2  1  0  0  0  0
 15 16  1  0  0  0  0
 16 12  1  0  0  0  0
 17 27  1  6  0  0  0
 17  3  1  0  0  0  0
 18 24  1  0  0  0  0
 19  9  1  1  0  0  0
 19 26  1  0  0  0  0
 20  5  1  0  0  0  0
 21 19  1  0  0  0  0
 21  4  1  1  0  0  0
 22 10  1  0  0  0  0
 23  8  1  6  0  0  0
 23 17  1  0  0  0  0
 23  5  1  0  0  0  0
 24 16  2  0  0  0  0
 24 14  1  0  0  0  0
 25 15  2  0  0  0  0
 26 22  1  0  0  0  0
 27 29  1  0  0  0  0
 28 29  1  0  0  0  0
 30 31  1  0  0  0  0
 32 34  1  6  0  0  0
 32 31  1  0  0  0  0
 32 33  1  0  0  0  0
M  END
>  <MODEL>
4

>  <REMARK>
 VINA RESULT:      -7.1      2.841      6.218
  Name = 
  5 active torsions:
  status: ('A' for Active; 'I' for Inactive)
    1  A    between atoms: C_1  and  N_33
    2  A    between atoms: C_9  and  C_31
    3  A    between atoms: N_10  and  C_22
    4  A    between atoms: N_10  and  C_30
    5  A    between atoms: C_31  and  N_33
                            x       y       z     vdW  Elec       q    Type
                         _______ _______ _______ _____ _____    ______ ____

>  <TORSDO>
F 5

$$$$
=
 OpenBabel11032421263D

 34 37  0  0  1  0  0  0  0  0999 V2000
  182.9780  178.3370  139.4380 C   0  0  0  0  0  0  0  0  0  0  0  0
  186.3040  178.2530  143.4380 C   0  0  0  0  0  2  0  0  0  0  0  0
  188.8240  177.7760  137.7920 C   0  0  0  0  0  2  0  0  0  0  0  0
  188.9190  176.3780  142.6950 N   0  0  0  0  0  0  0  0  0  0  0  0
  190.5640  176.7950  140.0140 C   0  0  0  0  0  2  0  0  0  0  0  0
  182.8600  178.2480  140.8280 C   0  0  0  0  0  3  0  0  0  0  0  0
  191.1720  177.3470  142.3530 C   0  0  0  0  0  0  0  0  0  0  0  0
  191.9960  175.8760  138.3430 O   0  0  0  0  0  1  0  0  0  0  0  0
  191.0280  178.0870  144.4820 C   0  0  0  0  0  2  0  0  0  0  0  0
  186.7110  176.8010  143.6480 C   0  0  0  0  0  2  0  0  0  0  0  0
  191.6700  178.2530  143.1820 C   0  0  0  0  0  3  0  0  0  0  0  0
  183.9930  178.3440  141.6370 C   0  0  0  0  0  3  0  0  0  0  0  0
  187.4120  177.0950  138.7050 S   0  0  0  0  0  0  0  0  0  0  0  0
  184.2390  178.5110  138.8670 C   0  0  0  0  0  3  0  0  0  0  0  0
  186.4310  178.6420  141.9980 C   0  0  0  0  0  0  0  0  0  0  0  0
  185.2670  178.5330  141.0780 C   0  0  0  0  0  0  0  0  0  0  0  0
  189.8730  176.6900  137.5970 C   0  0  2  0  0  3  0  0  0  0  0  0
  186.6970  178.7420  138.9690 C   0  0  0  0  0  2  0  0  0  0  0  0
  190.2610  177.0080  144.4210 C   0  0  2  0  0  3  0  0  0  0  0  0
  191.6890  177.1600  140.9660 C   0  0  0  0  0  2  0  0  0  0  0  0
  190.3200  176.3700  143.0910 C   0  0  1  0  0  3  0  0  0  0  0  0
  188.1950  176.6790  143.7280 C   0  0  0  0  0  0  0  0  0  0  0  0
  191.0390  176.8690  138.5700 C   0  0  1  0  0  3  0  0  0  0  0  0
  185.3830  178.6160  139.6660 C   0  0  0  0  0  0  0  0  0  0  0  0
  187.5450  179.0630  141.5890 O   0  0  0  0  0  0  0  0  0  0  0  0
  188.9260  177.0540  144.8940 N   0  0  0  0  0  2  0  0  0  0  0  0
  190.3640  176.7430  136.2290 N   0  0  0  0  0  2  0  0  0  0  0  0
  189.4030  174.5200  136.2530 C   0  0  0  0  0  1  0  0  0  0  0  0
  189.5790  175.7950  135.4570 C   0  0  0  0  0  2  0  0  0  0  0  0
  181.8340  178.2300  138.5850 N   0  0  0  0  0  2  0  0  0  0  0  0
  181.4400  179.2610  137.6350 C   0  0  0  0  0  2  0  0  0  0  0  0
  180.7070  180.3850  138.3460 C   0  0  2  0  0  3  0  0  0  0  0  0
  179.5030  180.6620  137.6990 O   0  0  0  0  0  1  0  0  0  0  0  0
  181.5730  181.6280  138.3440 C   0  0  0  0  0  1  0  0  0  0  0  0
  1  6  1  0  0  0  0
  2 10  1  0  0  0  0
  3 13  1  0  0  0  0
  4 21  1  0  0  0  0
  4 22  2  0  0  0  0
  5 20  1  0  0  0  0
  6 12  2  0  0  0  0
  7 11  2  0  0  0  0
 10 22  1  0  0  0  0
 11  9  1  0  0  0  0
 13 18  1  0  0  0  0
 14  1  2  0  0  0  0
 14 24  1  0  0  0  0
 15  2  1  0  0  0  0
 16 12  1  0  0  0  0
 16 15  1  0  0  0  0
 17 27  1  6  0  0  0
 17  3  1  0  0  0  0
 17 23  1  0  0  0  0
 18 24  1  0  0  0  0
 19  9  1  6  0  0  0
 19 26  1  0  0  0  0
 20  7  1  0  0  0  0
 21  7  1  6  0  0  0
 21 19  1  0  0  0  0
 22 26  1  0  0  0  0
 23  8  1  6  0  0  0
 23  5  1  0  0  0  0
 24 16  2  0  0  0  0
 25 15  2  0  0  0  0
 29 27  1  0  0  0  0
 29 28  1  0  0  0  0
 30  1  1  0  0  0  0
 31 32  1  0  0  0  0
 31 30  1  0  0  0  0
 32 34  1  6  0  0  0
 33 32  1  0  0  0  0
M  END
>  <MODEL>
5

>  <REMARK>
 VINA RESULT:      -7.0      2.579      9.120
  Name = 
  5 active torsions:
  status: ('A' for Active; 'I' for Inactive)
    1  A    between atoms: C_1  and  N_33
    2  A    between atoms: C_9  and  C_31
    3  A    between atoms: N_10  and  C_22
    4  A    between atoms: N_10  and  C_30
    5  A    between atoms: C_31  and  N_33
                            x       y       z     vdW  Elec       q    Type
                         _______ _______ _______ _____ _____    ______ ____

>  <TORSDO>
F 5

$$$$
=
 OpenBabel11032421263D

 34 37  0  0  1  0  0  0  0  0999 V2000
  191.0420  177.6220  143.7580 C   0  0  0  0  0  0  0  0  0  0  0  0
  190.8750  176.9470  138.6020 C   0  0  0  0  0  2  0  0  0  0  0  0
  185.6540  178.9940  141.2500 C   0  0  0  0  0  2  0  0  0  0  0  0
  187.8260  176.0810  137.6740 N   0  0  0  0  0  0  0  0  0  0  0  0
  185.2740  177.7420  138.5650 C   0  0  0  0  0  2  0  0  0  0  0  0
  191.8840  177.0430  142.8020 C   0  0  0  0  0  3  0  0  0  0  0  0
  186.3790  177.5920  136.3510 C   0  0  1  0  0  3  0  0  0  0  0  0
  182.9290  177.7930  138.9920 O   0  0  0  0  0  1  0  0  0  0  0  0
  187.9820  177.5150  134.7620 C   0  0  0  0  0  3  0  0  0  0  0  0
  190.1320  175.6430  138.3480 C   0  0  0  0  0  2  0  0  0  0  0  0
  186.8440  178.2530  135.3000 C   0  0  0  0  0  3  0  0  0  0  0  0
  191.5600  177.1160  141.4470 C   0  0  0  0  0  3  0  0  0  0  0  0
  186.9300  177.7420  141.5640 S   0  0  0  0  0  0  0  0  0  0  0  0
  189.8730  178.2600  143.3450 C   0  0  0  0  0  3  0  0  0  0  0  0
  190.1160  177.8190  139.5540 C   0  0  0  0  0  0  0  0  0  0  0  0
  190.3930  177.7660  141.0140 C   0  0  0  0  0  0  0  0  0  0  0  0
  184.3600  178.3060  140.8390 C   0  0  2  0  0  3  0  0  0  0  0  0
  188.2410  178.9960  141.6410 C   0  0  0  0  0  2  0  0  0  0  0  0
  188.0820  176.3770  135.4320 C   0  0  2  0  0  3  0  0  0  0  0  0
  185.1430  178.0090  137.0760 C   0  0  0  0  0  2  0  0  0  0  0  0
  187.0340  176.2570  136.4650 C   0  0  1  0  0  3  0  0  0  0  0  0
  189.0560  175.8420  137.3350 C   0  0  0  0  0  0  0  0  0  0  0  0
  184.1390  178.4060  139.3300 C   0  0  1  0  0  3  0  0  0  0  0  0
  189.5400  178.3460  141.9880 C   0  0  0  0  0  0  0  0  0  0  0  0
  189.2410  178.5950  139.0870 O   0  0  0  0  0  0  0  0  0  0  0  0
  189.3350  175.9560  135.9420 N   0  0  0  0  0  2  0  0  0  0  0  0
  183.2480  178.9290  141.5410 N   0  0  0  0  0  2  0  0  0  0  0  0
  182.1720  179.0030  143.7100 C   0  0  0  0  0  1  0  0  0  0  0  0
  183.4480  178.6870  142.9590 C   0  0  0  0  0  2  0  0  0  0  0  0
  191.3440  177.5530  145.1550 N   0  0  0  0  0  2  0  0  0  0  0  0
  190.3850  177.1280  146.1660 C   0  0  0  0  0  2  0  0  0  0  0  0
  191.1040  176.4930  147.3440 C   0  0  2  0  0  3  0  0  0  0  0  0
  191.6800  177.4780  148.1450 O   0  0  0  0  0  1  0  0  0  0  0  0
  192.1880  175.5690  146.8300 C   0  0  0  0  0  1  0  0  0  0  0  0
  1 30  1  0  0  0  0
  2 15  1  0  0  0  0
  3 13  1  0  0  0  0
  5 23  1  0  0  0  0
  6  1  2  0  0  0  0
  7 11  1  6  0  0  0
  7 21  1  0  0  0  0
  7 20  1  0  0  0  0
  9 11  2  0  0  0  0
 10  2  1  0  0  0  0
 12  6  1  0  0  0  0
 13 18  1  0  0  0  0
 14  1  1  0  0  0  0
 15 16  1  0  0  0  0
 16 12  2  0  0  0  0
 16 24  1  0  0  0  0
 17  3  1  0  0  0  0
 17 27  1  1  0  0  0
 18 24  1  0  0  0  0
 19  9  1  1  0  0  0
 19 26  1  0  0  0  0
 19 21  1  0  0  0  0
 20  5  1  0  0  0  0
 21  4  1  1  0  0  0
 22  4  2  0  0  0  0
 22 10  1  0  0  0  0
 23  8  1  1  0  0  0
 23 17  1  0  0  0  0
 24 14  2  0  0  0  0
 25 15  2  0  0  0  0
 26 22  1  0  0  0  0
 27 29  1  0  0  0  0
 29 28  1  0  0  0  0
 30 31  1  0  0  0  0
 31 32  1  0  0  0  0
 32 34  1  6  0  0  0
 32 33  1  0  0  0  0
M  END
>  <MODEL>
6

>  <REMARK>
 VINA RESULT:      -6.8      2.764      4.840
  Name = 
  5 active torsions:
  status: ('A' for Active; 'I' for Inactive)
    1  A    between atoms: C_1  and  N_33
    2  A    between atoms: C_9  and  C_31
    3  A    between atoms: N_10  and  C_22
    4  A    between atoms: N_10  and  C_30
    5  A    between atoms: C_31  and  N_33
                            x       y       z     vdW  Elec       q    Type
                         _______ _______ _______ _____ _____    ______ ____

>  <TORSDO>
F 5

$$$$
=
 OpenBabel11032421263D

 34 37  0  0  1  0  0  0  0  0999 V2000
  181.1130  178.7800  142.3660 C   0  0  0  0  0  0  0  0  0  0  0  0
  185.5100  178.6510  145.1470 C   0  0  0  0  0  2  0  0  0  0  0  0
  186.1810  178.5120  138.9830 C   0  0  0  0  0  2  0  0  0  0  0  0
  187.8110  176.9100  143.5410 N   0  0  0  0  0  0  0  0  0  0  0  0
  188.5420  177.5040  140.5110 C   0  0  0  0  0  2  0  0  0  0  0  0
  181.4310  178.6270  143.7200 C   0  0  0  0  0  3  0  0  0  0  0  0
  189.8270  177.9770  142.5770 C   0  0  1  0  0  3  0  0  0  0  0  0
  189.4110  176.7120  138.4370 O   0  0  0  0  0  1  0  0  0  0  0  0
  190.3280  178.6190  144.6840 C   0  0  0  0  0  3  0  0  0  0  0  0
  185.9940  177.2080  145.1450 C   0  0  0  0  0  2  0  0  0  0  0  0
  190.5350  178.8650  143.2610 C   0  0  0  0  0  3  0  0  0  0  0  0
  182.7550  178.7320  144.1470 C   0  0  0  0  0  3  0  0  0  0  0  0
  185.1340  177.7400  140.2480 S   0  0  0  0  0  0  0  0  0  0  0  0
  182.1330  179.0260  141.4470 C   0  0  0  0  0  3  0  0  0  0  0  0
  185.1780  179.1060  143.7590 C   0  0  0  0  0  0  0  0  0  0  0  0
  183.7910  178.9930  143.2350 C   0  0  0  0  0  0  0  0  0  0  0  0
  187.1440  177.4760  138.4200 C   0  0  2  0  0  3  0  0  0  0  0  0
  184.4970  179.3460  140.8040 C   0  0  0  0  0  2  0  0  0  0  0  0
  189.6040  177.5160  144.8050 C   0  0  2  0  0  3  0  0  0  0  0  0
  189.8960  177.8700  141.0910 C   0  0  0  0  0  2  0  0  0  0  0  0
  189.2660  176.9380  143.4890 C   0  0  1  0  0  3  0  0  0  0  0  0
  187.4330  177.1390  144.7610 C   0  0  0  0  0  0  0  0  0  0  0  0
  188.5480  177.6580  138.9970 C   0  0  1  0  0  3  0  0  0  0  0  0
  183.4650  179.1410  141.8620 C   0  0  0  0  0  0  0  0  0  0  0  0
  186.1030  179.5860  143.0510 O   0  0  0  0  0  0  0  0  0  0  0  0
  188.4790  177.4910  145.6650 N   0  0  0  0  0  2  0  0  0  0  0  0
  187.1880  177.6060  136.9720 N   0  0  0  0  0  2  0  0  0  0  0  0
  185.6370  176.8430  135.2750 C   0  0  0  0  0  1  0  0  0  0  0  0
  185.8140  177.7010  136.5090 C   0  0  0  0  0  2  0  0  0  0  0  0
  179.7650  178.6670  141.9000 N   0  0  0  0  0  2  0  0  0  0  0  0
  179.4070  178.5530  140.4930 C   0  0  0  0  0  2  0  0  0  0  0  0
  179.0820  177.1110  140.1440 C   0  0  2  0  0  3  0  0  0  0  0  0
  178.9450  176.3530  141.3070 O   0  0  0  0  0  1  0  0  0  0  0  0
  180.2020  176.5360  139.3020 C   0  0  0  0  0  1  0  0  0  0  0  0
  1  6  1  0  0  0  0
  3 13  1  0  0  0  0
  4 22  2  0  0  0  0
  5 20  1  0  0  0  0
  6 12  2  0  0  0  0
  7 20  1  6  0  0  0
  7 11  1  0  0  0  0
  7 21  1  0  0  0  0
 10  2  1  0  0  0  0
 11  9  2  0  0  0  0
 13 18  1  0  0  0  0
 14 24  1  0  0  0  0
 14  1  2  0  0  0  0
 15  2  1  0  0  0  0
 16 15  1  0  0  0  0
 16 12  1  0  0  0  0
 17 27  1  6  0  0  0
 17  3  1  0  0  0  0
 17 23  1  0  0  0  0
 18 24  1  0  0  0  0
 19  9  1  6  0  0  0
 19 26  1  0  0  0  0
 21  4  1  1  0  0  0
 21 19  1  0  0  0  0
 22 10  1  0  0  0  0
 22 26  1  0  0  0  0
 23  8  1  6  0  0  0
 23  5  1  0  0  0  0
 24 16  2  0  0  0  0
 25 15  2  0  0  0  0
 28 29  1  0  0  0  0
 29 27  1  0  0  0  0
 30  1  1  0  0  0  0
 31 30  1  0  0  0  0
 32 34  1  6  0  0  0
 32 31  1  0  0  0  0
 32 33  1  0  0  0  0
M  END
>  <MODEL>
7

>  <REMARK>
 VINA RESULT:      -6.4      2.551      8.828
  Name = 
  5 active torsions:
  status: ('A' for Active; 'I' for Inactive)
    1  A    between atoms: C_1  and  N_33
    2  A    between atoms: C_9  and  C_31
    3  A    between atoms: N_10  and  C_22
    4  A    between atoms: N_10  and  C_30
    5  A    between atoms: C_31  and  N_33
                            x       y       z     vdW  Elec       q    Type
                         _______ _______ _______ _____ _____    ______ ____

>  <TORSDO>
F 5

$$$$
=
 OpenBabel11032421263D

 34 37  0  0  1  0  0  0  0  0999 V2000
  180.8710  178.5000  136.0960 C   0  0  0  0  0  0  0  0  0  0  0  0
  185.5910  176.8290  134.6820 C   0  0  0  0  0  2  0  0  0  0  0  0
  184.8790  178.2130  140.6850 C   0  0  0  0  0  2  0  0  0  0  0  0
  187.9020  178.2320  136.5790 N   0  0  0  0  0  0  0  0  0  0  0  0
  187.7150  178.1880  139.7460 C   0  0  0  0  0  2  0  0  0  0  0  0
  181.5140  178.2460  134.8810 C   0  0  0  0  0  3  0  0  0  0  0  0
  189.2140  176.9300  138.2260 C   0  0  1  0  0  3  0  0  0  0  0  0
  188.3010  179.1840  141.8310 O   0  0  0  0  0  1  0  0  0  0  0  0
  189.9470  175.7090  136.4720 C   0  0  0  0  0  3  0  0  0  0  0  0
  186.4890  178.0550  134.5950 C   0  0  0  0  0  2  0  0  0  0  0  0
  189.7430  175.7540  137.9170 C   0  0  0  0  0  3  0  0  0  0  0  0
  182.7990  177.7030  134.8660 C   0  0  0  0  0  3  0  0  0  0  0  0
  184.4350  178.9170  139.0730 S   0  0  0  0  0  0  0  0  0  0  0  0
  181.5300  178.2160  137.2930 C   0  0  0  0  0  3  0  0  0  0  0  0
  184.8330  176.8110  135.9730 C   0  0  0  0  0  0  0  0  0  0  0  0
  183.4710  177.4010  136.0610 C   0  0  0  0  0  0  0  0  0  0  0  0
  185.9650  179.0630  141.3280 C   0  0  2  0  0  3  0  0  0  0  0  0
  183.4690  177.4490  138.6170 C   0  0  0  0  0  2  0  0  0  0  0  0
  189.6500  176.9030  135.9820 C   0  0  2  0  0  3  0  0  0  0  0  0
  188.9800  177.3570  139.6360 C   0  0  0  0  0  2  0  0  0  0  0  0
  189.2250  177.8380  137.0430 C   0  0  1  0  0  3  0  0  0  0  0  0
  187.7530  177.8330  135.3540 C   0  0  0  0  0  0  0  0  0  0  0  0
  187.3340  178.3930  141.2050 C   0  0  1  0  0  3  0  0  0  0  0  0
  182.8170  177.6650  137.2920 C   0  0  0  0  0  0  0  0  0  0  0  0
  185.3790  176.2840  136.9790 O   0  0  0  0  0  0  0  0  0  0  0  0
  188.8110  177.0210  134.8470 N   0  0  0  0  0  2  0  0  0  0  0  0
  185.6420  179.2660  142.7320 N   0  0  0  0  0  2  0  0  0  0  0  0
  183.8090  178.8940  144.2720 C   0  0  0  0  0  1  0  0  0  0  0  0
  184.5350  178.3790  143.0470 C   0  0  0  0  0  2  0  0  0  0  0  0
  179.5570  179.0660  136.1400 N   0  0  0  0  0  2  0  0  0  0  0  0
  179.1820  180.2840  135.4350 C   0  0  0  0  0  2  0  0  0  0  0  0
  180.0510  181.4460  135.8840 C   0  0  2  0  0  3  0  0  0  0  0  0
  179.2590  182.4600  136.4220 O   0  0  0  0  0  1  0  0  0  0  0  0
  180.8170  181.9870  134.6960 C   0  0  0  0  0  1  0  0  0  0  0  0
  1 30  1  0  0  0  0
  1 14  1  0  0  0  0
  2 15  1  0  0  0  0
  3 17  1  0  0  0  0
  5 23  1  0  0  0  0
  6  1  2  0  0  0  0
  7 11  1  1  0  0  0
  7 20  1  0  0  0  0
  9 11  2  0  0  0  0
 10  2  1  0  0  0  0
 10 22  1  0  0  0  0
 12  6  1  0  0  0  0
 12 16  2  0  0  0  0
 13  3  1  0  0  0  0
 15 16  1  0  0  0  0
 15 25  2  0  0  0  0
 16 24  1  0  0  0  0
 17 27  1  1  0  0  0
 18 13  1  0  0  0  0
 19  9  1  1  0  0  0
 19 21  1  0  0  0  0
 20  5  1  0  0  0  0
 21  4  1  6  0  0  0
 21  7  1  0  0  0  0
 22  4  2  0  0  0  0
 23 17  1  0  0  0  0
 23  8  1  6  0  0  0
 24 14  2  0  0  0  0
 24 18  1  0  0  0  0
 26 22  1  0  0  0  0
 26 19  1  0  0  0  0
 27 29  1  0  0  0  0
 29 28  1  0  0  0  0
 31 32  1  0  0  0  0
 31 30  1  0  0  0  0
 32 34  1  6  0  0  0
 32 33  1  0  0  0  0
M  END
>  <MODEL>
8

>  <REMARK>
 VINA RESULT:      -5.9      3.009      8.009
  Name = 
  5 active torsions:
  status: ('A' for Active; 'I' for Inactive)
    1  A    between atoms: C_1  and  N_33
    2  A    between atoms: C_9  and  C_31
    3  A    between atoms: N_10  and  C_22
    4  A    between atoms: N_10  and  C_30
    5  A    between atoms: C_31  and  N_33
                            x       y       z     vdW  Elec       q    Type
                         _______ _______ _______ _____ _____    ______ ____

>  <TORSDO>
F 5

$$$$
=
 OpenBabel11032421263D

 34 37  0  0  1  0  0  0  0  0999 V2000
  187.1710  178.0760  144.0700 C   0  0  0  0  0  0  0  0  0  0  0  0
  189.2950  177.4570  139.3610 C   0  0  0  0  0  2  0  0  0  0  0  0
  183.1740  178.4410  139.4770 C   0  0  0  0  0  2  0  0  0  0  0  0
  187.1210  176.0430  137.3170 N   0  0  0  0  0  0  0  0  0  0  0  0
  184.1800  177.1780  136.9630 C   0  0  0  0  0  2  0  0  0  0  0  0
  188.4220  177.6810  143.5870 C   0  0  0  0  0  3  0  0  0  0  0  0
  186.1150  177.2720  135.4180 C   0  0  1  0  0  3  0  0  0  0  0  0
  181.9030  176.7790  136.3800 O   0  0  0  0  0  1  0  0  0  0  0  0
  188.2220  177.5230  134.6420 C   0  0  0  0  0  3  0  0  0  0  0  0
  188.9720  176.0400  138.9100 C   0  0  0  0  0  2  0  0  0  0  0  0
  186.8510  178.0240  134.6110 C   0  0  0  0  0  3  0  0  0  0  0  0
  188.6880  177.7110  142.2180 C   0  0  0  0  0  3  0  0  0  0  0  0
  184.4020  177.4480  140.3720 S   0  0  0  0  0  0  0  0  0  0  0  0
  186.1870  178.4880  143.1700 C   0  0  0  0  0  3  0  0  0  0  0  0
  188.0670  178.1550  139.8560 C   0  0  0  0  0  0  0  0  0  0  0  0
  187.7130  178.1350  141.3000 C   0  0  0  0  0  0  0  0  0  0  0  0
  182.3140  177.5270  138.6150 C   0  0  2  0  0  3  0  0  0  0  0  0
  185.3150  178.9260  140.9000 C   0  0  0  0  0  2  0  0  0  0  0  0
  188.2330  176.4140  135.3670 C   0  0  2  0  0  3  0  0  0  0  0  0
  184.6370  177.4370  135.5400 C   0  0  0  0  0  2  0  0  0  0  0  0
  186.8890  176.0830  135.8800 C   0  0  1  0  0  3  0  0  0  0  0  0
  188.4000  176.0450  137.5330 C   0  0  0  0  0  0  0  0  0  0  0  0
  182.7300  177.6040  137.1460 C   0  0  1  0  0  3  0  0  0  0  0  0
  186.4430  178.5290  141.7940 C   0  0  0  0  0  0  0  0  0  0  0  0
  187.3450  178.7580  139.0190 O   0  0  0  0  0  0  0  0  0  0  0  0
  189.2120  176.2300  136.3750 N   0  0  0  0  0  2  0  0  0  0  0  0
  180.9200  177.9180  138.7520 N   0  0  0  0  0  2  0  0  0  0  0  0
  179.7520  180.0360  138.8770 C   0  0  0  0  0  1  0  0  0  0  0  0
  180.9020  179.2110  139.4140 C   0  0  0  0  0  2  0  0  0  0  0  0
  186.8680  178.0460  145.4680 N   0  0  0  0  0  2  0  0  0  0  0  0
  187.5770  177.2080  146.4270 C   0  0  0  0  0  2  0  0  0  0  0  0
  187.5560  177.8470  147.8050 C   0  0  2  0  0  3  0  0  0  0  0  0
  186.6750  178.9280  147.8220 O   0  0  0  0  0  1  0  0  0  0  0  0
  188.9480  178.3320  148.1530 C   0  0  0  0  0  1  0  0  0  0  0  0
  1 30  1  0  0  0  0
  2 15  1  0  0  0  0
  3 13  1  0  0  0  0
  4 22  2  0  0  0  0
  5 23  1  0  0  0  0
  6  1  1  0  0  0  0
  7 11  1  6  0  0  0
  7 20  1  0  0  0  0
  7 21  1  0  0  0  0
 10  2  1  0  0  0  0
 11  9  2  0  0  0  0
 12  6  2  0  0  0  0
 13 18  1  0  0  0  0
 14  1  2  0  0  0  0
 15 16  1  0  0  0  0
 16 24  2  0  0  0  0
 16 12  1  0  0  0  0
 17 27  1  6  0  0  0
 17  3  1  0  0  0  0
 18 24  1  0  0  0  0
 19  9  1  1  0  0  0
 19 21  1  0  0  0  0
 19 26  1  0  0  0  0
 20  5  1  0  0  0  0
 21  4  1  1  0  0  0
 22 10  1  0  0  0  0
 23  8  1  6  0  0  0
 23 17  1  0  0  0  0
 24 14  1  0  0  0  0
 25 15  2  0  0  0  0
 26 22  1  0  0  0  0
 27 29  1  0  0  0  0
 28 29  1  0  0  0  0
 30 31  1  0  0  0  0
 31 32  1  0  0  0  0
 32 33  1  0  0  0  0
 32 34  1  6  0  0  0
M  END
>  <MODEL>
9

>  <REMARK>
 VINA RESULT:      -5.8      2.733      5.714
  Name = 
  5 active torsions:
  status: ('A' for Active; 'I' for Inactive)
    1  A    between atoms: C_1  and  N_33
    2  A    between atoms: C_9  and  C_31
    3  A    between atoms: N_10  and  C_22
    4  A    between atoms: N_10  and  C_30
    5  A    between atoms: C_31  and  N_33
                            x       y       z     vdW  Elec       q    Type
                         _______ _______ _______ _____ _____    ______ ____

>  <TORSDO>
F 5

$$$$
