=
 OpenBabel11042411283D

 55 62  0  0  1  0  0  0  0  0999 V2000
  189.2340  176.5650  140.3400 C   0  0  2  0  0  3  0  0  0  0  0  0
  191.8710  176.3360  137.6460 C   0  0  2  0  0  3  0  0  0  0  0  0
  190.7100  176.4930  140.0130 C   0  0  0  0  0  2  0  0  0  0  0  0
  186.6470  179.3120  136.0280 F   0  0  0  0  0  0  0  0  0  0  0  0
  189.7460  178.5260  137.9240 C   0  0  0  0  0  2  0  0  0  0  0  0
  190.6320  176.2330  138.5490 C   0  0  1  0  0  3  0  0  0  0  0  0
  188.5250  179.2500  137.4110 C   0  0  0  0  0  3  0  0  0  0  0  0
  189.4220  177.0290  138.1200 C   0  0  1  0  0  0  0  0  0  0  0  0
  188.4970  176.9210  139.1810 O   0  0  0  0  0  0  0  0  0  0  0  0
  187.9770  177.2560  136.1280 C   0  0  0  0  0  3  0  0  0  0  0  0
  190.8080  175.5080  135.6590 C   0  0  0  0  0  2  0  0  0  0  0  0
  188.8230  176.4860  136.8260 C   0  0  0  0  0  0  0  0  0  0  0  0
  191.8280  175.2080  136.6830 N   0  0  1  0  0  0  0  0  0  0  0  0
  187.7000  178.6400  136.5520 C   0  0  0  0  0  0  0  0  0  0  0  0
  189.3650  175.2690  136.1310 C   0  0  2  0  0  3  0  0  0  0  0  0
  193.1500  176.3610  138.4930 C   0  0  0  0  0  1  0  0  0  0  0  0
  193.6360  176.3090  135.4600 C   0  0  0  0  0  2  0  0  0  0  0  0
  193.1400  175.0020  136.0290 C   0  0  1  0  0  3  0  0  0  0  0  0
  195.3180  175.2050  136.6640 C   0  0  2  0  0  3  0  0  0  0  0  0
  194.1220  174.5090  136.9200 O   0  0  0  0  0  0  0  0  0  0  0  0
  195.1140  176.1480  135.5040 C   0  0  0  0  0  2  0  0  0  0  0  0
  196.3810  174.2580  136.3590 N   0  0  0  0  0  2  0  0  0  0  0  0
  197.4240  174.1570  137.7400 S   0  0  0  0  0  0  0  0  0  0  0  0
  196.5280  173.7660  139.1010 F   0  0  0  0  0  0  0  0  0  0  0  0
  198.0910  175.4840  137.9520 O   0  0  0  0  0  0  0  0  0  0  0  0
  198.4710  173.1050  137.5140 O   0  0  0  0  0  0  0  0  0  0  0  0
  188.0560  175.9700  142.8540 O   0  0  0  0  0  0  0  0  0  0  0  0
  188.4500  177.1520  142.6640 C   0  0  0  0  0  0  0  0  0  0  0  0
  188.4000  178.1090  143.7250 N   0  0  0  0  0  2  0  0  0  0  0  0
  189.0070  177.5280  141.4070 N   0  0  0  0  0  2  0  0  0  0  0  0
  187.7070  177.8990  144.9310 N   0  0  0  0  0  2  0  0  0  0  0  0
  186.4980  178.5810  145.2750 C   0  0  0  0  0  0  0  0  0  0  0  0
  186.0510  178.6220  146.8490 S   0  0  0  0  0  0  0  0  0  0  0  0
  185.6980  179.1720  144.2410 N   0  0  0  0  0  2  0  0  0  0  0  0
  183.4660  178.3590  141.4520 C   0  0  2  0  0  3  0  0  0  0  0  0
  184.7000  178.4190  142.2020 C   0  0  2  0  0  3  0  0  0  0  0  0
  182.9120  178.5950  144.0660 S   0  0  0  0  0  0  0  0  0  0  0  0
  183.7350  179.1860  140.2710 N   0  0  0  0  0  2  0  0  0  0  0  0
  182.4220  179.0000  142.3530 C   0  0  0  0  0  2  0  0  0  0  0  0
  184.6150  178.5790  143.5100 C   0  0  2  0  0  3  0  0  0  0  0  0
  185.1460  179.3120  140.1460 N   0  0  0  0  0  2  0  0  0  0  0  0
  185.6890  178.9980  141.4010 N   0  0  0  0  0  2  0  0  0  0  0  0
  189.1870  173.9760  136.9250 C   0  0  0  0  0  2  0  0  0  0  0  0
  187.1220  169.8500  134.5960 C   0  0  0  0  0  3  0  0  0  0  0  0
  188.6830  171.4960  135.4140 C   0  0  0  0  0  3  0  0  0  0  0  0
  188.4350  170.3100  134.7190 C   0  0  0  0  0  3  0  0  0  0  0  0
  186.7140  174.0740  137.2300 C   0  0  0  0  0  3  0  0  0  0  0  0
  187.8210  173.4050  136.6970 C   0  0  0  0  0  0  0  0  0  0  0  0
  186.3100  171.7110  135.8280 C   0  0  0  0  0  0  0  0  0  0  0  0
  185.2590  172.3880  136.3610 N   0  0  0  0  0  0  0  0  0  0  0  0
  185.4330  173.5480  137.0500 C   0  0  0  0  0  0  0  0  0  0  0  0
  186.0960  170.5530  135.1470 N   0  0  0  0  0  0  0  0  0  0  0  0
  187.6230  172.2100  135.9820 C   0  0  0  0  0  0  0  0  0  0  0  0
  184.2960  174.2390  137.5890 C   0  0  0  0  0  0  0  0  0  0  0  0
  183.3790  174.8000  138.0200 N   0  0  0  0  0  0  0  0  0  0  0  0
  1 30  1  1  0  0  0
  2 16  1  1  0  0  0
  2  6  1  0  0  0  0
  3  1  1  0  0  0  0
  4 14  1  0  0  0  0
  6  3  1  1  0  0  0
  7  5  1  0  0  0  0
  8  5  1  6  0  0  0
  8  6  1  0  0  0  0
  8  9  1  0  0  0  0
  9  1  1  0  0  0  0
 10 14  1  0  0  0  0
 10 12  2  0  0  0  0
 11 15  1  0  0  0  0
 12  8  1  0  0  0  0
 13 11  1  6  0  0  0
 13  2  1  0  0  0  0
 14  7  2  0  0  0  0
 15 12  1  0  0  0  0
 15 43  1  1  0  0  0
 17 21  1  0  0  0  0
 18 17  1  1  0  0  0
 18 13  1  0  0  0  0
 18 20  1  0  0  0  0
 19 22  1  6  0  0  0
 19 20  1  0  0  0  0
 21 19  1  0  0  0  0
 22 23  1  0  0  0  0
 23 25  2  0  0  0  0
 23 24  1  0  0  0  0
 26 23  2  0  0  0  0
 28 27  2  0  0  0  0
 28 29  1  0  0  0  0
 29 31  1  0  0  0  0
 30 28  1  0  0  0  0
 31 32  1  0  0  0  0
 32 33  2  0  0  0  0
 34 32  1  0  0  0  0
 35 36  1  0  0  0  0
 35 39  1  1  0  0  0
 36 42  1  6  0  0  0
 36 40  1  0  0  0  0
 38 35  1  0  0  0  0
 39 37  1  0  0  0  0
 40 37  1  0  0  0  0
 40 34  1  6  0  0  0
 41 38  1  0  0  0  0
 41 42  1  0  0  0  0
 44 46  1  0  0  0  0
 44 52  2  0  0  0  0
 45 53  1  0  0  0  0
 46 45  2  0  0  0  0
 48 43  1  0  0  0  0
 48 47  1  0  0  0  0
 49 53  1  0  0  0  0
 49 50  2  0  0  0  0
 50 51  1  0  0  0  0
 51 47  2  0  0  0  0
 51 54  1  0  0  0  0
 52 49  1  0  0  0  0
 53 48  2  0  0  0  0
 54 55  3  0  0  0  0
M  END
>  <MODEL>
1

>  <REMARK>
 VINA RESULT:      -7.9      0.000      0.000
  Name = 
  11 active torsions:
  status: ('A' for Active; 'I' for Inactive)
    1  A    between atoms: C_3  and  N_54
    2  A    between atoms: N_10  and  S_17
    3  A    between atoms: N_10  and  C_36
    4  A    between atoms: C_23  and  N_25
    5  A    between atoms: C_24  and  C_43
    6  A    between atoms: N_25  and  C_40
    7  A    between atoms: C_30  and  N_34
    8  A    between atoms: N_39  and  N_41
    9  A    between atoms: C_40  and  N_41
   10  A    between atoms: C_43  and  C_47
   11  A    between atoms: C_46  and  C_48
                            x       y       z     vdW  Elec       q    Type
                         _______ _______ _______ _____ _____    ______ ____

>  <TORSDO>
F 11

$$$$
=
 OpenBabel11042411283D

 55 62  0  0  1  0  0  0  0  0999 V2000
  183.6620  178.1100  140.4650 C   0  0  2  0  0  3  0  0  0  0  0  0
  181.4500  180.0820  138.1240 C   0  0  2  0  0  3  0  0  0  0  0  0
  183.2860  179.4710  139.9200 C   0  0  0  0  0  2  0  0  0  0  0  0
  178.9310  174.8780  140.4320 F   0  0  0  0  0  0  0  0  0  0  0  0
  180.5120  178.2410  140.3860 C   0  0  0  0  0  2  0  0  0  0  0  0
  182.3480  179.0610  138.8390 C   0  0  1  0  0  3  0  0  0  0  0  0
  179.8030  176.9980  140.8660 C   0  0  0  0  0  3  0  0  0  0  0  0
  181.6550  177.8530  139.4230 C   0  0  1  0  0  0  0  0  0  0  0  0
  182.6390  177.1710  140.1720 O   0  0  0  0  0  0  0  0  0  0  0  0
  180.1630  176.0360  138.6590 C   0  0  0  0  0  3  0  0  0  0  0  0
  180.5910  178.5570  136.4800 C   0  0  0  0  0  2  0  0  0  0  0  0
  181.0870  176.9500  138.3310 C   0  0  0  0  0  0  0  0  0  0  0  0
  181.4420  179.7470  136.6780 N   0  0  1  0  0  0  0  0  0  0  0  0
  179.6350  175.9640  140.0330 C   0  0  0  0  0  0  0  0  0  0  0  0
  181.2720  177.2350  136.8680 C   0  0  2  0  0  3  0  0  0  0  0  0
  181.9290  181.5110  138.4120 C   0  0  0  0  0  1  0  0  0  0  0  0
  179.7190  180.4100  135.0750 C   0  0  0  0  0  2  0  0  0  0  0  0
  180.9230  180.8680  135.8630 C   0  0  1  0  0  3  0  0  0  0  0  0
  179.3210  182.4640  136.1340 C   0  0  2  0  0  3  0  0  0  0  0  0
  180.5390  181.9810  136.6470 O   0  0  0  0  0  0  0  0  0  0  0  0
  178.9340  181.6630  134.9150 C   0  0  0  0  0  2  0  0  0  0  0  0
  179.4590  183.8710  135.7860 N   0  0  0  0  0  2  0  0  0  0  0  0
  180.0180  184.7200  137.1900 S   0  0  0  0  0  0  0  0  0  0  0  0
  179.5320  183.9110  138.5750 F   0  0  0  0  0  0  0  0  0  0  0  0
  179.4340  186.1030  137.1950 O   0  0  0  0  0  0  0  0  0  0  0  0
  181.5170  184.8140  137.1680 O   0  0  0  0  0  0  0  0  0  0  0  0
  186.1920  178.4590  141.7060 O   0  0  0  0  0  0  0  0  0  0  0  0
  185.1790  178.4120  142.4560 C   0  0  0  0  0  0  0  0  0  0  0  0
  185.3090  178.6420  143.8610 N   0  0  0  0  0  2  0  0  0  0  0  0
  183.8860  178.1910  141.9000 N   0  0  0  0  0  2  0  0  0  0  0  0
  186.5460  178.6830  144.5320 N   0  0  0  0  0  2  0  0  0  0  0  0
  186.7490  178.1540  145.8440 C   0  0  0  0  0  0  0  0  0  0  0  0
  185.8070  178.7130  147.0610 S   0  0  0  0  0  0  0  0  0  0  0  0
  187.7840  177.1860  146.0680 N   0  0  0  0  0  2  0  0  0  0  0  0
  191.3470  176.9610  145.2480 C   0  0  2  0  0  3  0  0  0  0  0  0
  189.9510  177.2860  145.0610 C   0  0  2  0  0  3  0  0  0  0  0  0
  190.1610  177.2110  147.6400 S   0  0  0  0  0  0  0  0  0  0  0  0
  191.6130  175.9560  144.2130 N   0  0  0  0  0  2  0  0  0  0  0  0
  191.4320  176.3600  146.6420 C   0  0  0  0  0  2  0  0  0  0  0  0
  189.2000  177.4040  146.1410 C   0  0  2  0  0  3  0  0  0  0  0  0
  190.5810  176.0560  143.2400 N   0  0  0  0  0  2  0  0  0  0  0  0
  189.5140  176.7290  143.8560 N   0  0  0  0  0  2  0  0  0  0  0  0
  182.7220  177.1320  136.3990 C   0  0  0  0  0  2  0  0  0  0  0  0
  187.1920  174.6160  137.0290 C   0  0  0  0  0  3  0  0  0  0  0  0
  185.5420  176.3530  136.7630 C   0  0  0  0  0  3  0  0  0  0  0  0
  186.8710  175.9730  136.9580 C   0  0  0  0  0  3  0  0  0  0  0  0
  182.2470  174.6850  136.3320 C   0  0  0  0  0  3  0  0  0  0  0  0
  183.1910  175.7110  136.4540 C   0  0  0  0  0  0  0  0  0  0  0  0
  184.9150  174.0180  136.7160 C   0  0  0  0  0  0  0  0  0  0  0  0
  183.9700  173.0490  136.5940 N   0  0  0  0  0  0  0  0  0  0  0  0
  182.6580  173.3530  136.4040 C   0  0  0  0  0  0  0  0  0  0  0  0
  186.2180  173.6750  136.9070 N   0  0  0  0  0  0  0  0  0  0  0  0
  184.5450  175.3790  136.6440 C   0  0  0  0  0  0  0  0  0  0  0  0
  181.6910  172.2990  136.2690 C   0  0  0  0  0  0  0  0  0  0  0  0
  180.9110  171.4500  136.1640 N   0  0  0  0  0  0  0  0  0  0  0  0
  1 30  1  1  0  0  0
  2 16  1  6  0  0  0
  2  6  1  0  0  0  0
  3  1  1  0  0  0  0
  5  7  1  0  0  0  0
  6  8  1  0  0  0  0
  6  3  1  1  0  0  0
  8  9  1  0  0  0  0
  8  5  1  1  0  0  0
  9  1  1  0  0  0  0
 10 14  1  0  0  0  0
 11 15  1  0  0  0  0
 12 10  2  0  0  0  0
 12  8  1  0  0  0  0
 13 11  1  1  0  0  0
 13  2  1  0  0  0  0
 14  4  1  0  0  0  0
 14  7  2  0  0  0  0
 15 43  1  1  0  0  0
 15 12  1  0  0  0  0
 18 17  1  1  0  0  0
 18 20  1  0  0  0  0
 18 13  1  0  0  0  0
 19 22  1  6  0  0  0
 19 20  1  0  0  0  0
 21 17  1  0  0  0  0
 21 19  1  0  0  0  0
 22 23  1  0  0  0  0
 23 25  2  0  0  0  0
 23 24  1  0  0  0  0
 26 23  2  0  0  0  0
 27 28  2  0  0  0  0
 28 29  1  0  0  0  0
 29 31  1  0  0  0  0
 30 28  1  0  0  0  0
 31 32  1  0  0  0  0
 32 34  1  0  0  0  0
 32 33  2  0  0  0  0
 35 39  1  1  0  0  0
 36 42  1  6  0  0  0
 36 35  1  0  0  0  0
 36 40  1  0  0  0  0
 38 35  1  0  0  0  0
 39 37  1  0  0  0  0
 40 34  1  6  0  0  0
 40 37  1  0  0  0  0
 41 42  1  0  0  0  0
 41 38  1  0  0  0  0
 43 48  1  0  0  0  0
 45 46  2  0  0  0  0
 46 44  1  0  0  0  0
 47 51  2  0  0  0  0
 47 48  1  0  0  0  0
 48 53  2  0  0  0  0
 49 52  1  0  0  0  0
 50 49  2  0  0  0  0
 51 50  1  0  0  0  0
 52 44  2  0  0  0  0
 53 49  1  0  0  0  0
 53 45  1  0  0  0  0
 54 51  1  0  0  0  0
 55 54  3  0  0  0  0
M  END
>  <MODEL>
2

>  <REMARK>
 VINA RESULT:      -7.9      5.635     10.011
  Name = 
  11 active torsions:
  status: ('A' for Active; 'I' for Inactive)
    1  A    between atoms: C_3  and  N_54
    2  A    between atoms: N_10  and  S_17
    3  A    between atoms: N_10  and  C_36
    4  A    between atoms: C_23  and  N_25
    5  A    between atoms: C_24  and  C_43
    6  A    between atoms: N_25  and  C_40
    7  A    between atoms: C_30  and  N_34
    8  A    between atoms: N_39  and  N_41
    9  A    between atoms: C_40  and  N_41
   10  A    between atoms: C_43  and  C_47
   11  A    between atoms: C_46  and  C_48
                            x       y       z     vdW  Elec       q    Type
                         _______ _______ _______ _____ _____    ______ ____

>  <TORSDO>
F 11

$$$$
=
 OpenBabel11042411283D

 55 62  0  0  1  0  0  0  0  0999 V2000
  185.2960  174.7660  136.8690 C   0  0  2  0  0  3  0  0  0  0  0  0
  182.7480  177.5010  136.3290 C   0  0  2  0  0  3  0  0  0  0  0  0
  183.9820  175.1680  136.2370 C   0  0  0  0  0  2  0  0  0  0  0  0
  188.6290  179.4250  137.0190 F   0  0  0  0  0  0  0  0  0  0  0  0
  185.7170  177.6150  135.5830 C   0  0  0  0  0  2  0  0  0  0  0  0
  183.8090  176.5170  136.8440 C   0  0  1  0  0  3  0  0  0  0  0  0
  187.0980  178.2010  135.7530 C   0  0  0  0  0  3  0  0  0  0  0  0
  185.2240  177.0410  136.9290 C   0  0  1  0  0  0  0  0  0  0  0  0
  186.0280  175.9230  137.2440 O   0  0  0  0  0  0  0  0  0  0  0  0
  186.4310  178.9240  137.9800 C   0  0  0  0  0  3  0  0  0  0  0  0
  183.0800  179.1500  138.0420 C   0  0  0  0  0  2  0  0  0  0  0  0
  185.3580  178.1200  137.9990 C   0  0  0  0  0  0  0  0  0  0  0  0
  182.1280  178.1580  137.5070 N   0  0  1  0  0  0  0  0  0  0  0  0
  187.4190  178.8280  136.8900 C   0  0  0  0  0  0  0  0  0  0  0  0
  184.2140  178.5360  138.8780 C   0  0  2  0  0  3  0  0  0  0  0  0
  181.7330  176.7760  135.4360 C   0  0  0  0  0  1  0  0  0  0  0  0
  179.8100  178.5290  138.1910 C   0  0  0  0  0  2  0  0  0  0  0  0
  180.8600  178.8320  137.1480 C   0  0  1  0  0  3  0  0  0  0  0  0
  179.8720  180.8150  137.6730 C   0  0  2  0  0  3  0  0  0  0  0  0
  180.9950  180.2360  137.0550 O   0  0  0  0  0  0  0  0  0  0  0  0
  178.9310  179.7270  138.1310 C   0  0  0  0  0  2  0  0  0  0  0  0
  179.1960  181.7000  136.7350 N   0  0  0  0  0  2  0  0  0  0  0  0
  179.8560  183.2920  136.9260 S   0  0  0  0  0  0  0  0  0  0  0  0
  181.4630  183.3010  136.4500 F   0  0  0  0  0  0  0  0  0  0  0  0
  179.7660  183.6930  138.3700 O   0  0  0  0  0  0  0  0  0  0  0  0
  179.0830  184.2700  136.0890 O   0  0  0  0  0  0  0  0  0  0  0  0
  188.0810  175.0360  136.3830 O   0  0  0  0  0  0  0  0  0  0  0  0
  187.4740  174.1110  135.7800 C   0  0  0  0  0  0  0  0  0  0  0  0
  188.1980  173.1750  134.9770 N   0  0  0  0  0  2  0  0  0  0  0  0
  186.0670  173.9510  135.9430 N   0  0  0  0  0  2  0  0  0  0  0  0
  189.5430  173.3480  134.6030 N   0  0  0  0  0  2  0  0  0  0  0  0
  190.6290  172.6530  135.2190 C   0  0  0  0  0  0  0  0  0  0  0  0
  191.0830  171.2100  134.5940 S   0  0  0  0  0  0  0  0  0  0  0  0
  191.2640  173.2130  136.3780 N   0  0  0  0  0  2  0  0  0  0  0  0
  193.5220  175.9240  137.3640 C   0  0  2  0  0  3  0  0  0  0  0  0
  193.0830  174.7400  136.6610 C   0  0  2  0  0  3  0  0  0  0  0  0
  190.8420  175.8910  137.2560 S   0  0  0  0  0  0  0  0  0  0  0  0
  194.6290  175.4440  138.1970 N   0  0  0  0  0  2  0  0  0  0  0  0
  192.3320  176.3470  138.2100 C   0  0  0  0  0  2  0  0  0  0  0  0
  191.7820  174.5390  136.5510 C   0  0  2  0  0  3  0  0  0  0  0  0
  195.0680  174.2040  137.6580 N   0  0  0  0  0  2  0  0  0  0  0  0
  194.0220  173.7230  136.8560 N   0  0  0  0  0  2  0  0  0  0  0  0
  183.7450  177.4420  139.8370 C   0  0  0  0  0  2  0  0  0  0  0  0
  185.6670  178.6740  144.4740 C   0  0  0  0  0  3  0  0  0  0  0  0
  185.4320  177.8520  142.2190 C   0  0  0  0  0  3  0  0  0  0  0  0
  186.2270  178.0710  143.3450 C   0  0  0  0  0  3  0  0  0  0  0  0
  181.9080  178.4430  141.1930 C   0  0  0  0  0  3  0  0  0  0  0  0
  183.2460  178.0440  141.1140 C   0  0  0  0  0  0  0  0  0  0  0  0
  183.5590  178.8370  143.3900 C   0  0  0  0  0  0  0  0  0  0  0  0
  182.2540  179.2120  143.4290 N   0  0  0  0  0  0  0  0  0  0  0  0
  181.4260  179.0280  142.3650 C   0  0  0  0  0  0  0  0  0  0  0  0
  184.3570  179.0400  144.4740 N   0  0  0  0  0  0  0  0  0  0  0  0
  184.0870  178.2370  142.2250 C   0  0  0  0  0  0  0  0  0  0  0  0
  180.0500  179.4280  142.4510 C   0  0  0  0  0  0  0  0  0  0  0  0
  178.9400  179.7500  142.5230 N   0  0  0  0  0  0  0  0  0  0  0  0
  1 30  1  6  0  0  0
  1  9  1  0  0  0  0
  2 16  1  1  0  0  0
  2  6  1  0  0  0  0
  2 13  1  0  0  0  0
  3  1  1  0  0  0  0
  5  7  1  0  0  0  0
  6  3  1  6  0  0  0
  6  8  1  0  0  0  0
  7 14  2  0  0  0  0
  8  5  1  6  0  0  0
  8  9  1  0  0  0  0
  8 12  1  0  0  0  0
 10 12  2  0  0  0  0
 11 15  1  0  0  0  0
 12 15  1  0  0  0  0
 13 11  1  6  0  0  0
 14  4  1  0  0  0  0
 14 10  1  0  0  0  0
 15 43  1  6  0  0  0
 18 13  1  0  0  0  0
 18 17  1  1  0  0  0
 19 22  1  6  0  0  0
 19 21  1  0  0  0  0
 20 18  1  0  0  0  0
 20 19  1  0  0  0  0
 21 17  1  0  0  0  0
 22 23  1  0  0  0  0
 23 25  2  0  0  0  0
 24 23  1  0  0  0  0
 26 23  2  0  0  0  0
 28 30  1  0  0  0  0
 28 27  2  0  0  0  0
 29 28  1  0  0  0  0
 31 29  1  0  0  0  0
 31 32  1  0  0  0  0
 32 34  1  0  0  0  0
 33 32  2  0  0  0  0
 35 38  1  0  0  0  0
 35 39  1  1  0  0  0
 36 42  1  1  0  0  0
 36 35  1  0  0  0  0
 37 39  1  0  0  0  0
 40 34  1  1  0  0  0
 40 36  1  0  0  0  0
 40 37  1  0  0  0  0
 41 38  1  0  0  0  0
 42 41  1  0  0  0  0
 43 48  1  0  0  0  0
 44 52  2  0  0  0  0
 45 53  1  0  0  0  0
 45 46  2  0  0  0  0
 46 44  1  0  0  0  0
 47 51  2  0  0  0  0
 48 47  1  0  0  0  0
 48 53  2  0  0  0  0
 49 50  2  0  0  0  0
 49 52  1  0  0  0  0
 51 54  1  0  0  0  0
 51 50  1  0  0  0  0
 53 49  1  0  0  0  0
 54 55  3  0  0  0  0
M  END
>  <MODEL>
3

>  <REMARK>
 VINA RESULT:      -7.1      4.218     11.219
  Name = 
  11 active torsions:
  status: ('A' for Active; 'I' for Inactive)
    1  A    between atoms: C_3  and  N_54
    2  A    between atoms: N_10  and  S_17
    3  A    between atoms: N_10  and  C_36
    4  A    between atoms: C_23  and  N_25
    5  A    between atoms: C_24  and  C_43
    6  A    between atoms: N_25  and  C_40
    7  A    between atoms: C_30  and  N_34
    8  A    between atoms: N_39  and  N_41
    9  A    between atoms: C_40  and  N_41
   10  A    between atoms: C_43  and  C_47
   11  A    between atoms: C_46  and  C_48
                            x       y       z     vdW  Elec       q    Type
                         _______ _______ _______ _____ _____    ______ ____

>  <TORSDO>
F 11

$$$$
=
 OpenBabel11042411283D

 55 62  0  0  1  0  0  0  0  0999 V2000
  185.4310  174.8360  136.8170 C   0  0  2  0  0  3  0  0  0  0  0  0
  182.9810  177.6280  136.1370 C   0  0  2  0  0  3  0  0  0  0  0  0
  184.1740  175.2720  136.0970 C   0  0  0  0  0  2  0  0  0  0  0  0
  188.8310  179.4250  137.2800 F   0  0  0  0  0  0  0  0  0  0  0  0
  185.9980  177.6930  135.6090 C   0  0  0  0  0  2  0  0  0  0  0  0
  183.9830  176.6150  136.7110 C   0  0  1  0  0  3  0  0  0  0  0  0
  187.3730  178.2500  135.8880 C   0  0  0  0  0  3  0  0  0  0  0  0
  185.3970  177.1100  136.9070 C   0  0  1  0  0  0  0  0  0  0  0  0
  186.1550  175.9720  137.2610 O   0  0  0  0  0  0  0  0  0  0  0  0
  186.5600  178.9540  138.0720 C   0  0  0  0  0  3  0  0  0  0  0  0
  183.2180  179.2460  137.8940 C   0  0  0  0  0  2  0  0  0  0  0  0
  185.4740  178.1710  138.0000 C   0  0  0  0  0  0  0  0  0  0  0  0
  182.2890  178.2800  137.2760 N   0  0  1  0  0  0  0  0  0  0  0  0
  187.6230  178.8540  137.0550 C   0  0  0  0  0  0  0  0  0  0  0  0
  184.2760  178.5970  138.8000 C   0  0  2  0  0  3  0  0  0  0  0  0
  182.0200  176.9360  135.1600 C   0  0  0  0  0  1  0  0  0  0  0  0
  179.8860  178.5160  137.6590 C   0  0  0  0  0  2  0  0  0  0  0  0
  181.0630  178.9840  136.8370 C   0  0  1  0  0  3  0  0  0  0  0  0
  179.9430  180.8550  137.4940 C   0  0  2  0  0  3  0  0  0  0  0  0
  181.1630  180.3880  136.9690 O   0  0  0  0  0  0  0  0  0  0  0  0
  178.9840  179.6990  137.6450 C   0  0  0  0  0  2  0  0  0  0  0  0
  179.3790  181.8610  136.6060 N   0  0  0  0  0  2  0  0  0  0  0  0
  179.9860  183.4100  137.0930 S   0  0  0  0  0  0  0  0  0  0  0  0
  180.0260  184.4440  135.7750 F   0  0  0  0  0  0  0  0  0  0  0  0
  181.3760  183.2460  137.6350 O   0  0  0  0  0  0  0  0  0  0  0  0
  179.1030  183.9930  138.1580 O   0  0  0  0  0  0  0  0  0  0  0  0
  188.2620  174.9670  136.6340 O   0  0  0  0  0  0  0  0  0  0  0  0
  187.6750  174.1050  135.9270 C   0  0  0  0  0  0  0  0  0  0  0  0
  188.4300  173.1650  135.1590 N   0  0  0  0  0  2  0  0  0  0  0  0
  186.2520  174.0180  135.9370 N   0  0  0  0  0  2  0  0  0  0  0  0
  189.8140  173.2770  134.9330 N   0  0  0  0  0  2  0  0  0  0  0  0
  190.7200  172.1750  135.0210 C   0  0  0  0  0  0  0  0  0  0  0  0
  190.1750  170.6870  134.6100 S   0  0  0  0  0  0  0  0  0  0  0  0
  192.0570  172.3900  135.4960 N   0  0  0  0  0  2  0  0  0  0  0  0
  192.5930  175.7000  136.9710 C   0  0  2  0  0  3  0  0  0  0  0  0
  192.3940  174.2690  136.9370 C   0  0  2  0  0  3  0  0  0  0  0  0
  193.3860  174.7440  134.5940 S   0  0  0  0  0  0  0  0  0  0  0  0
  191.3940  176.2030  137.6480 N   0  0  0  0  0  2  0  0  0  0  0  0
  192.6310  176.1300  135.5130 C   0  0  0  0  0  2  0  0  0  0  0  0
  192.6930  173.6350  135.8180 C   0  0  2  0  0  3  0  0  0  0  0  0
  190.8020  175.1130  138.3430 N   0  0  0  0  0  2  0  0  0  0  0  0
  191.3130  173.9430  137.7620 N   0  0  0  0  0  2  0  0  0  0  0  0
  183.7190  177.4990  139.7050 C   0  0  0  0  0  2  0  0  0  0  0  0
  180.0660  179.6490  142.6630 C   0  0  0  0  0  3  0  0  0  0  0  0
  181.2560  178.7000  140.7920 C   0  0  0  0  0  3  0  0  0  0  0  0
  180.0880  179.2500  141.3240 C   0  0  0  0  0  2  0  0  0  0  0  0
  184.6870  177.8860  141.9700 C   0  0  0  0  0  3  0  0  0  0  0  0
  183.5880  177.9960  141.1120 C   0  0  2  0  0  3  0  0  0  0  0  0
  182.3250  178.9730  142.9450 C   0  0  0  0  0  0  0  0  0  0  0  0
  183.4140  178.8490  143.7490 N   0  0  0  0  0  0  0  0  0  0  0  0
  184.5810  178.3210  143.2930 C   0  0  0  0  0  0  0  0  0  0  0  0
  181.1740  179.5050  143.4380 N   0  0  0  0  0  0  0  0  0  0  0  0
  182.3900  178.5500  141.5980 C   0  0  0  0  0  0  0  0  0  0  0  0
  185.7120  178.2170  144.1710 C   0  0  0  0  0  0  0  0  0  0  0  0
  186.6240  178.1290  144.8790 N   0  0  0  0  0  0  0  0  0  0  0  0
  1 30  1  6  0  0  0
  1  9  1  0  0  0  0
  2 16  1  6  0  0  0
  2  6  1  0  0  0  0
  2 13  1  0  0  0  0
  3  1  1  0  0  0  0
  5  7  1  0  0  0  0
  6  3  1  6  0  0  0
  6  8  1  0  0  0  0
  7 14  2  0  0  0  0
  8  5  1  6  0  0  0
  8  9  1  0  0  0  0
  8 12  1  0  0  0  0
 11 15  1  0  0  0  0
 12 10  2  0  0  0  0
 12 15  1  0  0  0  0
 13 11  1  6  0  0  0
 14  4  1  0  0  0  0
 14 10  1  0  0  0  0
 15 43  1  6  0  0  0
 18 20  1  0  0  0  0
 18 13  1  0  0  0  0
 18 17  1  1  0  0  0
 19 22  1  6  0  0  0
 19 21  1  0  0  0  0
 20 19  1  0  0  0  0
 21 17  1  0  0  0  0
 22 23  1  0  0  0  0
 23 25  2  0  0  0  0
 23 26  2  0  0  0  0
 24 23  1  0  0  0  0
 28 30  1  0  0  0  0
 28 27  2  0  0  0  0
 29 28  1  0  0  0  0
 31 32  1  0  0  0  0
 31 29  1  0  0  0  0
 32 34  1  0  0  0  0
 33 32  2  0  0  0  0
 35 39  1  6  0  0  0
 35 38  1  0  0  0  0
 36 35  1  0  0  0  0
 36 42  1  6  0  0  0
 37 39  1  0  0  0  0
 37 40  1  0  0  0  0
 38 41  1  0  0  0  0
 40 34  1  6  0  0  0
 40 36  1  0  0  0  0
 42 41  1  0  0  0  0
 44 52  2  0  0  0  0
 45 46  1  0  0  0  0
 45 53  2  0  0  0  0
 46 44  1  0  0  0  0
 47 51  2  0  0  0  0
 48 43  1  1  0  0  0
 48 53  1  0  0  0  0
 48 47  1  0  0  0  0
 49 52  1  0  0  0  0
 49 50  2  0  0  0  0
 51 50  1  0  0  0  0
 51 54  1  0  0  0  0
 53 49  1  0  0  0  0
 54 55  3  0  0  0  0
M  END
>  <MODEL>
4

>  <REMARK>
 VINA RESULT:      -6.9      4.157     11.258
  Name = 
  11 active torsions:
  status: ('A' for Active; 'I' for Inactive)
    1  A    between atoms: C_3  and  N_54
    2  A    between atoms: N_10  and  S_17
    3  A    between atoms: N_10  and  C_36
    4  A    between atoms: C_23  and  N_25
    5  A    between atoms: C_24  and  C_43
    6  A    between atoms: N_25  and  C_40
    7  A    between atoms: C_30  and  N_34
    8  A    between atoms: N_39  and  N_41
    9  A    between atoms: C_40  and  N_41
   10  A    between atoms: C_43  and  C_47
   11  A    between atoms: C_46  and  C_48
                            x       y       z     vdW  Elec       q    Type
                         _______ _______ _______ _____ _____    ______ ____

>  <TORSDO>
F 11

$$$$
=
 OpenBabel11042411283D

 55 62  0  0  1  0  0  0  0  0999 V2000
  188.6960  177.0220  139.5530 C   0  0  2  0  0  3  0  0  0  0  0  0
  191.5360  176.3290  137.1630 C   0  0  2  0  0  3  0  0  0  0  0  0
  190.1930  176.9270  139.3560 C   0  0  0  0  0  2  0  0  0  0  0  0
  186.4140  178.7630  134.5940 F   0  0  0  0  0  0  0  0  0  0  0  0
  189.3670  178.4670  136.8320 C   0  0  0  0  0  2  0  0  0  0  0  0
  190.2330  176.3740  137.9750 C   0  0  1  0  0  3  0  0  0  0  0  0
  188.1790  179.0370  136.0950 C   0  0  0  0  0  3  0  0  0  0  0  0
  189.0490  177.0320  137.3050 C   0  0  1  0  0  0  0  0  0  0  0  0
  188.0460  177.1140  138.2960 O   0  0  0  0  0  0  0  0  0  0  0  0
  187.7600  176.8090  135.2080 C   0  0  0  0  0  3  0  0  0  0  0  0
  190.6420  175.0860  135.3140 C   0  0  0  0  0  2  0  0  0  0  0  0
  188.5600  176.2210  136.1090 C   0  0  0  0  0  0  0  0  0  0  0  0
  191.5840  175.0290  136.4490 N   0  0  1  0  0  0  0  0  0  0  0  0
  187.4330  178.2420  135.3200 C   0  0  0  0  0  0  0  0  0  0  0  0
  189.1700  174.9050  135.7180 C   0  0  2  0  0  3  0  0  0  0  0  0
  192.7460  176.5620  138.0780 C   0  0  0  0  0  1  0  0  0  0  0  0
  193.5450  175.9770  135.3400 C   0  0  0  0  0  2  0  0  0  0  0  0
  192.9450  174.7330  135.9490 C   0  0  1  0  0  3  0  0  0  0  0  0
  195.0550  174.9150  136.7860 C   0  0  2  0  0  3  0  0  0  0  0  0
  193.8140  174.2780  136.9690 O   0  0  0  0  0  0  0  0  0  0  0  0
  195.0040  175.7740  135.5460 C   0  0  0  0  0  2  0  0  0  0  0  0
  196.1060  173.9160  136.6610 N   0  0  0  0  0  2  0  0  0  0  0  0
  197.2140  174.1310  137.9760 S   0  0  0  0  0  0  0  0  0  0  0  0
  198.3720  172.9200  137.9470 F   0  0  0  0  0  0  0  0  0  0  0  0
  196.4600  174.0620  139.2720 O   0  0  0  0  0  0  0  0  0  0  0  0
  197.8880  175.4680  137.8640 O   0  0  0  0  0  0  0  0  0  0  0  0
  186.1730  177.5090  140.7630 O   0  0  0  0  0  0  0  0  0  0  0  0
  187.0970  178.3340  140.9960 C   0  0  0  0  0  0  0  0  0  0  0  0
  186.8950  179.4010  141.9260 N   0  0  0  0  0  2  0  0  0  0  0  0
  188.3730  178.1730  140.3820 N   0  0  0  0  0  2  0  0  0  0  0  0
  185.6340  179.7580  142.4390 N   0  0  0  0  0  2  0  0  0  0  0  0
  184.9470  179.0010  143.4380 C   0  0  0  0  0  0  0  0  0  0  0  0
  183.3420  179.2560  143.6390 S   0  0  0  0  0  0  0  0  0  0  0  0
  185.6780  178.0750  144.2560 N   0  0  0  0  0  2  0  0  0  0  0  0
  188.5960  177.9010  146.4630 C   0  0  2  0  0  3  0  0  0  0  0  0
  187.8540  178.1360  145.2450 C   0  0  2  0  0  3  0  0  0  0  0  0
  186.0330  178.4160  147.0630 S   0  0  0  0  0  0  0  0  0  0  0  0
  189.4790  176.7800  146.1230 N   0  0  0  0  0  2  0  0  0  0  0  0
  187.5520  177.4960  147.4920 C   0  0  0  0  0  2  0  0  0  0  0  0
  186.5580  178.3640  145.3510 C   0  0  2  0  0  3  0  0  0  0  0  0
  189.5520  176.7030  144.7060 N   0  0  0  0  0  2  0  0  0  0  0  0
  188.4420  177.4030  144.2090 N   0  0  0  0  0  2  0  0  0  0  0  0
  188.9480  173.7950  136.7440 C   0  0  0  0  0  2  0  0  0  0  0  0
  186.5810  169.6280  134.8090 C   0  0  0  0  0  3  0  0  0  0  0  0
  188.2520  171.2570  135.4170 C   0  0  0  0  0  3  0  0  0  0  0  0
  187.9140  170.0450  134.8100 C   0  0  0  0  0  3  0  0  0  0  0  0
  186.5090  174.0020  137.2190 C   0  0  0  0  0  3  0  0  0  0  0  0
  187.5510  173.2650  136.6470 C   0  0  0  0  0  0  0  0  0  0  0  0
  185.9250  171.5830  135.9870 C   0  0  0  0  0  0  0  0  0  0  0  0
  184.9390  172.3270  136.5540 N   0  0  0  0  0  0  0  0  0  0  0  0
  185.2020  173.5160  137.1620 C   0  0  0  0  0  0  0  0  0  0  0  0
  185.6220  170.3980  135.3910 N   0  0  0  0  0  0  0  0  0  0  0  0
  187.2610  172.0400  136.0180 C   0  0  0  0  0  0  0  0  0  0  0  0
  184.1310  174.2770  137.7400 C   0  0  0  0  0  0  0  0  0  0  0  0
  183.2690  174.8930  138.2090 N   0  0  0  0  0  0  0  0  0  0  0  0
  1 30  1  1  0  0  0
  2  6  1  0  0  0  0
  2 16  1  1  0  0  0
  3  1  1  0  0  0  0
  4 14  1  0  0  0  0
  6  3  1  1  0  0  0
  7  5  1  0  0  0  0
  8  5  1  6  0  0  0
  8  6  1  0  0  0  0
  8  9  1  0  0  0  0
  9  1  1  0  0  0  0
 10 14  1  0  0  0  0
 10 12  2  0  0  0  0
 11 15  1  0  0  0  0
 12  8  1  0  0  0  0
 13 11  1  6  0  0  0
 13  2  1  0  0  0  0
 14  7  2  0  0  0  0
 15 12  1  0  0  0  0
 15 43  1  1  0  0  0
 17 21  1  0  0  0  0
 18 17  1  1  0  0  0
 18 13  1  0  0  0  0
 18 20  1  0  0  0  0
 19 22  1  6  0  0  0
 19 20  1  0  0  0  0
 21 19  1  0  0  0  0
 22 23  1  0  0  0  0
 23 25  2  0  0  0  0
 24 23  1  0  0  0  0
 26 23  2  0  0  0  0
 27 28  2  0  0  0  0
 28 29  1  0  0  0  0
 29 31  1  0  0  0  0
 30 28  1  0  0  0  0
 31 32  1  0  0  0  0
 32 33  2  0  0  0  0
 32 34  1  0  0  0  0
 35 39  1  1  0  0  0
 36 42  1  6  0  0  0
 36 40  1  0  0  0  0
 36 35  1  0  0  0  0
 37 39  1  0  0  0  0
 38 35  1  0  0  0  0
 40 34  1  6  0  0  0
 40 37  1  0  0  0  0
 41 38  1  0  0  0  0
 42 41  1  0  0  0  0
 44 46  1  0  0  0  0
 44 52  2  0  0  0  0
 45 53  1  0  0  0  0
 46 45  2  0  0  0  0
 48 43  1  0  0  0  0
 48 47  1  0  0  0  0
 49 53  1  0  0  0  0
 49 50  2  0  0  0  0
 50 51  1  0  0  0  0
 51 47  2  0  0  0  0
 51 54  1  0  0  0  0
 52 49  1  0  0  0  0
 53 48  2  0  0  0  0
 54 55  3  0  0  0  0
M  END
>  <MODEL>
5

>  <REMARK>
 VINA RESULT:      -6.7      1.229      2.665
  Name = 
  11 active torsions:
  status: ('A' for Active; 'I' for Inactive)
    1  A    between atoms: C_3  and  N_54
    2  A    between atoms: N_10  and  S_17
    3  A    between atoms: N_10  and  C_36
    4  A    between atoms: C_23  and  N_25
    5  A    between atoms: C_24  and  C_43
    6  A    between atoms: N_25  and  C_40
    7  A    between atoms: C_30  and  N_34
    8  A    between atoms: N_39  and  N_41
    9  A    between atoms: C_40  and  N_41
   10  A    between atoms: C_43  and  C_47
   11  A    between atoms: C_46  and  C_48
                            x       y       z     vdW  Elec       q    Type
                         _______ _______ _______ _____ _____    ______ ____

>  <TORSDO>
F 11

$$$$
=
 OpenBabel11042411283D

 55 62  0  0  1  0  0  0  0  0999 V2000
  185.9220  174.6370  136.2610 C   0  0  2  0  0  3  0  0  0  0  0  0
  183.3450  177.3590  135.7960 C   0  0  2  0  0  3  0  0  0  0  0  0
  184.7220  175.1280  135.4810 C   0  0  0  0  0  2  0  0  0  0  0  0
  188.8660  179.2480  137.9660 F   0  0  0  0  0  0  0  0  0  0  0  0
  186.3870  177.7000  135.6700 C   0  0  0  0  0  2  0  0  0  0  0  0
  184.3560  176.3170  136.2990 C   0  0  1  0  0  3  0  0  0  0  0  0
  187.6730  178.2740  136.2140 C   0  0  0  0  0  3  0  0  0  0  0  0
  185.6940  176.8470  136.7550 C   0  0  1  0  0  0  0  0  0  0  0  0
  186.4970  175.7100  136.9900 O   0  0  0  0  0  0  0  0  0  0  0  0
  186.5670  178.5030  138.3700 C   0  0  0  0  0  3  0  0  0  0  0  0
  183.2530  178.6260  137.8330 C   0  0  0  0  0  2  0  0  0  0  0  0
  185.5620  177.6860  138.0230 C   0  0  0  0  0  0  0  0  0  0  0  0
  182.4800  177.7420  136.9400 N   0  0  1  0  0  0  0  0  0  0  0  0
  187.7410  178.6600  137.4930 C   0  0  0  0  0  0  0  0  0  0  0  0
  184.2520  177.8810  138.7320 C   0  0  2  0  0  3  0  0  0  0  0  0
  182.5580  176.8090  134.5990 C   0  0  0  0  0  1  0  0  0  0  0  0
  180.0520  177.8760  137.1960 C   0  0  0  0  0  2  0  0  0  0  0  0
  181.2580  178.4430  136.4860 C   0  0  1  0  0  3  0  0  0  0  0  0
  180.0390  180.2210  137.2220 C   0  0  2  0  0  3  0  0  0  0  0  0
  181.3020  179.8340  136.7350 O   0  0  0  0  0  0  0  0  0  0  0  0
  179.1130  179.0290  137.2230 C   0  0  0  0  0  2  0  0  0  0  0  0
  179.4930  181.2790  136.3850 N   0  0  0  0  0  2  0  0  0  0  0  0
  179.9020  182.8010  137.1060 S   0  0  0  0  0  0  0  0  0  0  0  0
  181.4870  183.1980  136.7340 F   0  0  0  0  0  0  0  0  0  0  0  0
  179.7550  182.6960  138.5960 O   0  0  0  0  0  0  0  0  0  0  0  0
  178.9850  183.8740  136.5910 O   0  0  0  0  0  0  0  0  0  0  0  0
  188.7370  174.7120  136.6270 O   0  0  0  0  0  0  0  0  0  0  0  0
  188.2980  174.0860  135.6240 C   0  0  0  0  0  0  0  0  0  0  0  0
  189.1920  173.3540  134.7810 N   0  0  0  0  0  2  0  0  0  0  0  0
  186.8990  174.0510  135.3570 N   0  0  0  0  0  2  0  0  0  0  0  0
  190.5930  173.4730  134.8440 N   0  0  0  0  0  2  0  0  0  0  0  0
  191.4640  172.3830  135.1550 C   0  0  0  0  0  0  0  0  0  0  0  0
  191.0640  170.8910  134.6140 S   0  0  0  0  0  0  0  0  0  0  0  0
  192.6340  172.6140  135.9540 N   0  0  0  0  0  2  0  0  0  0  0  0
  193.5430  176.0560  136.8170 C   0  0  2  0  0  3  0  0  0  0  0  0
  193.1770  174.6750  137.0380 C   0  0  2  0  0  3  0  0  0  0  0  0
  194.2380  174.5940  134.6780 S   0  0  0  0  0  0  0  0  0  0  0  0
  192.4050  176.8090  137.3550 N   0  0  0  0  0  2  0  0  0  0  0  0
  193.6440  176.2030  135.3060 C   0  0  0  0  0  2  0  0  0  0  0  0
  193.4090  173.8160  136.0620 C   0  0  2  0  0  3  0  0  0  0  0  0
  191.6830  175.9400  138.2180 N   0  0  0  0  0  2  0  0  0  0  0  0
  192.0580  174.6320  137.8750 N   0  0  0  0  0  2  0  0  0  0  0  0
  183.6880  176.6010  139.3470 C   0  0  0  0  0  2  0  0  0  0  0  0
  179.0390  174.3480  139.2260 C   0  0  0  0  0  3  0  0  0  0  0  0
  181.3610  174.8670  138.8340 C   0  0  0  0  0  3  0  0  0  0  0  0
  180.2570  174.0400  138.6150 C   0  0  0  0  0  3  0  0  0  0  0  0
  182.1340  177.9620  140.7440 C   0  0  0  0  0  3  0  0  0  0  0  0
  182.3260  176.8510  139.9160 C   0  0  0  0  0  0  0  0  0  0  0  0
  179.9900  176.2670  140.2520 C   0  0  0  0  0  0  0  0  0  0  0  0
  179.8420  177.3560  141.0510 N   0  0  0  0  0  0  0  0  0  0  0  0
  180.8780  178.2010  141.3050 C   0  0  0  0  0  0  0  0  0  0  0  0
  178.9310  175.4440  140.0230 N   0  0  0  0  0  0  0  0  0  0  0  0
  181.2420  175.9910  139.6600 C   0  0  0  0  0  0  0  0  0  0  0  0
  180.6780  179.3470  142.1460 C   0  0  0  0  0  0  0  0  0  0  0  0
  180.5170  180.2690  142.8280 N   0  0  0  0  0  0  0  0  0  0  0  0
  1 30  1  6  0  0  0
  1  9  1  0  0  0  0
  2 16  1  6  0  0  0
  2  6  1  0  0  0  0
  2 13  1  0  0  0  0
  3  1  1  0  0  0  0
  5  7  1  0  0  0  0
  6  3  1  6  0  0  0
  6  8  1  0  0  0  0
  7 14  2  0  0  0  0
  8  5  1  6  0  0  0
  8  9  1  0  0  0  0
  8 12  1  0  0  0  0
 11 15  1  0  0  0  0
 12 10  2  0  0  0  0
 12 15  1  0  0  0  0
 13 11  1  1  0  0  0
 14  4  1  0  0  0  0
 14 10  1  0  0  0  0
 15 43  1  6  0  0  0
 17 21  1  0  0  0  0
 18 20  1  0  0  0  0
 18 13  1  0  0  0  0
 18 17  1  1  0  0  0
 19 22  1  6  0  0  0
 19 21  1  0  0  0  0
 20 19  1  0  0  0  0
 22 23  1  0  0  0  0
 23 25  2  0  0  0  0
 24 23  1  0  0  0  0
 26 23  2  0  0  0  0
 28 27  2  0  0  0  0
 29 31  1  0  0  0  0
 29 28  1  0  0  0  0
 30 28  1  0  0  0  0
 31 32  1  0  0  0  0
 32 34  1  0  0  0  0
 33 32  2  0  0  0  0
 35 39  1  6  0  0  0
 35 36  1  0  0  0  0
 35 38  1  0  0  0  0
 36 42  1  6  0  0  0
 37 39  1  0  0  0  0
 37 40  1  0  0  0  0
 38 41  1  0  0  0  0
 40 34  1  6  0  0  0
 40 36  1  0  0  0  0
 42 41  1  0  0  0  0
 43 48  1  0  0  0  0
 44 52  2  0  0  0  0
 45 53  1  0  0  0  0
 46 45  2  0  0  0  0
 46 44  1  0  0  0  0
 47 51  2  0  0  0  0
 48 47  1  0  0  0  0
 49 50  2  0  0  0  0
 50 51  1  0  0  0  0
 51 54  1  0  0  0  0
 52 49  1  0  0  0  0
 53 48  2  0  0  0  0
 53 49  1  0  0  0  0
 54 55  3  0  0  0  0
M  END
>  <MODEL>
6

>  <REMARK>
 VINA RESULT:      -6.2      4.523     10.882
  Name = 
  11 active torsions:
  status: ('A' for Active; 'I' for Inactive)
    1  A    between atoms: C_3  and  N_54
    2  A    between atoms: N_10  and  S_17
    3  A    between atoms: N_10  and  C_36
    4  A    between atoms: C_23  and  N_25
    5  A    between atoms: C_24  and  C_43
    6  A    between atoms: N_25  and  C_40
    7  A    between atoms: C_30  and  N_34
    8  A    between atoms: N_39  and  N_41
    9  A    between atoms: C_40  and  N_41
   10  A    between atoms: C_43  and  C_47
   11  A    between atoms: C_46  and  C_48
                            x       y       z     vdW  Elec       q    Type
                         _______ _______ _______ _____ _____    ______ ____

>  <TORSDO>
F 11

$$$$
=
 OpenBabel11042411283D

 55 62  0  0  1  0  0  0  0  0999 V2000
  183.8410  178.0500  141.3510 C   0  0  2  0  0  3  0  0  0  0  0  0
  186.0510  178.1860  138.2910 C   0  0  2  0  0  3  0  0  0  0  0  0
  185.2520  178.1190  140.8070 C   0  0  0  0  0  2  0  0  0  0  0  0
  180.4330  180.7940  137.6510 F   0  0  0  0  0  0  0  0  0  0  0  0
  183.8330  180.1710  139.0180 C   0  0  0  0  0  2  0  0  0  0  0  0
  184.9740  177.9310  139.3560 C   0  0  1  0  0  3  0  0  0  0  0  0
  182.4980  180.8170  138.7380 C   0  0  0  0  0  3  0  0  0  0  0  0
  183.6560  178.6440  139.1620 C   0  0  1  0  0  0  0  0  0  0  0  0
  182.9130  178.4030  140.3380 O   0  0  0  0  0  0  0  0  0  0  0  0
  181.9140  178.8540  137.4210 C   0  0  0  0  0  3  0  0  0  0  0  0
  184.7650  177.3780  136.4310 C   0  0  0  0  0  2  0  0  0  0  0  0
  182.9110  178.1220  137.9370 C   0  0  0  0  0  0  0  0  0  0  0  0
  185.9470  177.1110  137.2720 N   0  0  1  0  0  0  0  0  0  0  0  0
  181.6010  180.1860  137.9710 C   0  0  0  0  0  0  0  0  0  0  0  0
  183.4320  176.9940  137.0930 C   0  0  2  0  0  3  0  0  0  0  0  0
  187.4380  178.2730  138.9410 C   0  0  0  0  0  1  0  0  0  0  0  0
  187.6110  178.4500  136.0830 C   0  0  0  0  0  2  0  0  0  0  0  0
  187.1570  177.0500  136.4220 C   0  0  1  0  0  3  0  0  0  0  0  0
  189.4040  177.1130  136.7910 C   0  0  2  0  0  3  0  0  0  0  0  0
  188.2320  176.3780  137.0490 O   0  0  0  0  0  0  0  0  0  0  0  0
  189.0780  178.2840  135.8960 C   0  0  0  0  0  2  0  0  0  0  0  0
  190.3910  176.2550  136.1540 N   0  0  0  0  0  2  0  0  0  0  0  0
  191.4490  175.6450  137.3840 S   0  0  0  0  0  0  0  0  0  0  0  0
  193.0180  176.1500  137.0860 F   0  0  0  0  0  0  0  0  0  0  0  0
  191.4030  174.1440  137.3740 O   0  0  0  0  0  0  0  0  0  0  0  0
  191.0110  176.1460  138.7310 O   0  0  0  0  0  0  0  0  0  0  0  0
  184.7740  177.4750  143.9710 O   0  0  0  0  0  0  0  0  0  0  0  0
  184.2370  178.5990  143.7800 C   0  0  0  0  0  0  0  0  0  0  0  0
  184.2130  179.5750  144.8250 N   0  0  0  0  0  2  0  0  0  0  0  0
  183.7060  178.9320  142.5000 N   0  0  0  0  0  2  0  0  0  0  0  0
  184.5370  179.2890  146.1640 N   0  0  0  0  0  2  0  0  0  0  0  0
  185.8720  179.0680  146.6220 C   0  0  0  0  0  0  0  0  0  0  0  0
  186.4410  180.0040  147.8390 S   0  0  0  0  0  0  0  0  0  0  0  0
  186.6840  178.0680  145.9890 N   0  0  0  0  0  2  0  0  0  0  0  0
  190.0240  177.2830  144.7040 C   0  0  2  0  0  3  0  0  0  0  0  0
  188.7040  177.8730  144.7240 C   0  0  2  0  0  3  0  0  0  0  0  0
  189.1810  177.5030  147.2410 S   0  0  0  0  0  0  0  0  0  0  0  0
  189.9740  176.3550  143.5690 N   0  0  0  0  0  2  0  0  0  0  0  0
  190.1460  176.5390  146.0250 C   0  0  0  0  0  2  0  0  0  0  0  0
  188.1140  178.0170  145.8960 C   0  0  2  0  0  3  0  0  0  0  0  0
  188.8790  176.7380  142.7480 N   0  0  0  0  0  2  0  0  0  0  0  0
  188.0370  177.5280  143.5440 N   0  0  0  0  0  2  0  0  0  0  0  0
  183.4730  175.6500  137.8190 C   0  0  0  0  0  2  0  0  0  0  0  0
  180.0600  172.8570  135.1240 C   0  0  0  0  0  3  0  0  0  0  0  0
  182.0250  174.0940  135.7770 C   0  0  0  0  0  3  0  0  0  0  0  0
  181.3380  173.3370  134.8250 C   0  0  0  0  0  3  0  0  0  0  0  0
  181.4340  175.3570  139.2240 C   0  0  0  0  0  3  0  0  0  0  0  0
  182.0870  175.1160  138.0110 C   0  0  0  0  0  0  0  0  0  0  0  0
  180.1380  173.8640  137.2730 C   0  0  0  0  0  0  0  0  0  0  0  0
  179.5360  174.1180  138.4640 N   0  0  0  0  0  0  0  0  0  0  0  0
  180.1510  174.8480  139.4340 C   0  0  0  0  0  0  0  0  0  0  0  0
  179.4920  173.1280  136.3290 N   0  0  0  0  0  0  0  0  0  0  0  0
  181.4350  174.3640  137.0170 C   0  0  0  0  0  0  0  0  0  0  0  0
  179.4760  175.1040  140.6750 C   0  0  0  0  0  0  0  0  0  0  0  0
  178.9310  175.3060  141.6760 N   0  0  0  0  0  0  0  0  0  0  0  0
  1 30  1  1  0  0  0
  2 16  1  1  0  0  0
  2  6  1  0  0  0  0
  3  1  1  0  0  0  0
  4 14  1  0  0  0  0
  6  3  1  1  0  0  0
  7  5  1  0  0  0  0
  8  5  1  6  0  0  0
  8  6  1  0  0  0  0
  8  9  1  0  0  0  0
  9  1  1  0  0  0  0
 10 12  2  0  0  0  0
 10 14  1  0  0  0  0
 11 15  1  0  0  0  0
 12  8  1  0  0  0  0
 13 11  1  6  0  0  0
 13  2  1  0  0  0  0
 14  7  2  0  0  0  0
 15 43  1  1  0  0  0
 15 12  1  0  0  0  0
 18 17  1  1  0  0  0
 18 20  1  0  0  0  0
 18 13  1  0  0  0  0
 19 22  1  6  0  0  0
 19 20  1  0  0  0  0
 21 17  1  0  0  0  0
 21 19  1  0  0  0  0
 22 23  1  0  0  0  0
 23 26  2  0  0  0  0
 24 23  1  0  0  0  0
 25 23  2  0  0  0  0
 28 27  2  0  0  0  0
 28 29  1  0  0  0  0
 29 31  1  0  0  0  0
 30 28  1  0  0  0  0
 31 32  1  0  0  0  0
 32 33  2  0  0  0  0
 34 32  1  0  0  0  0
 35 36  1  0  0  0  0
 35 39  1  1  0  0  0
 36 42  1  6  0  0  0
 36 40  1  0  0  0  0
 38 35  1  0  0  0  0
 39 37  1  0  0  0  0
 40 34  1  6  0  0  0
 40 37  1  0  0  0  0
 41 42  1  0  0  0  0
 41 38  1  0  0  0  0
 43 48  1  0  0  0  0
 44 52  2  0  0  0  0
 45 53  1  0  0  0  0
 46 44  1  0  0  0  0
 46 45  2  0  0  0  0
 47 51  2  0  0  0  0
 48 47  1  0  0  0  0
 49 50  2  0  0  0  0
 50 51  1  0  0  0  0
 51 54  1  0  0  0  0
 52 49  1  0  0  0  0
 53 49  1  0  0  0  0
 53 48  2  0  0  0  0
 54 55  3  0  0  0  0
M  END
>  <MODEL>
7

>  <REMARK>
 VINA RESULT:      -6.1      3.890      6.055
  Name = 
  11 active torsions:
  status: ('A' for Active; 'I' for Inactive)
    1  A    between atoms: C_3  and  N_54
    2  A    between atoms: N_10  and  S_17
    3  A    between atoms: N_10  and  C_36
    4  A    between atoms: C_23  and  N_25
    5  A    between atoms: C_24  and  C_43
    6  A    between atoms: N_25  and  C_40
    7  A    between atoms: C_30  and  N_34
    8  A    between atoms: N_39  and  N_41
    9  A    between atoms: C_40  and  N_41
   10  A    between atoms: C_43  and  C_47
   11  A    between atoms: C_46  and  C_48
                            x       y       z     vdW  Elec       q    Type
                         _______ _______ _______ _____ _____    ______ ____

>  <TORSDO>
F 11

$$$$
=
 OpenBabel11042411283D

 55 62  0  0  1  0  0  0  0  0999 V2000
  183.9270  178.0760  141.3740 C   0  0  2  0  0  3  0  0  0  0  0  0
  186.0030  178.0890  138.2190 C   0  0  2  0  0  3  0  0  0  0  0  0
  185.3130  178.1180  140.7680 C   0  0  0  0  0  2  0  0  0  0  0  0
  180.3730  180.7010  137.7260 F   0  0  0  0  0  0  0  0  0  0  0  0
  183.8260  180.1120  138.9680 C   0  0  0  0  0  2  0  0  0  0  0  0
  184.9720  177.8790  139.3380 C   0  0  1  0  0  3  0  0  0  0  0  0
  182.4830  180.7530  138.7220 C   0  0  0  0  0  3  0  0  0  0  0  0
  183.6500  178.5910  139.1740 C   0  0  1  0  0  0  0  0  0  0  0  0
  182.9580  178.3980  140.3900 O   0  0  0  0  0  0  0  0  0  0  0  0
  181.8350  178.7470  137.5040 C   0  0  0  0  0  3  0  0  0  0  0  0
  184.6350  177.2210  136.4470 C   0  0  0  0  0  2  0  0  0  0  0  0
  182.8510  178.0290  138.0030 C   0  0  0  0  0  0  0  0  0  0  0  0
  185.8520  176.9790  137.2460 N   0  0  1  0  0  0  0  0  0  0  0  0
  181.5510  180.1000  138.0170 C   0  0  0  0  0  0  0  0  0  0  0  0
  183.3310  176.8680  137.1790 C   0  0  2  0  0  3  0  0  0  0  0  0
  187.4170  178.1930  138.8050 C   0  0  0  0  0  1  0  0  0  0  0  0
  187.6220  178.2510  136.1410 C   0  0  0  0  0  2  0  0  0  0  0  0
  187.0240  176.8810  136.3470 C   0  0  1  0  0  3  0  0  0  0  0  0
  189.2720  176.6590  136.6320 C   0  0  2  0  0  3  0  0  0  0  0  0
  188.0330  176.0310  136.8570 O   0  0  0  0  0  0  0  0  0  0  0  0
  189.0560  177.9490  135.8790 C   0  0  0  0  0  2  0  0  0  0  0  0
  190.1400  175.7740  135.8700 N   0  0  0  0  0  2  0  0  0  0  0  0
  190.8740  174.6570  136.9730 S   0  0  0  0  0  0  0  0  0  0  0  0
  192.4180  174.2720  136.4480 F   0  0  0  0  0  0  0  0  0  0  0  0
  190.0460  173.4060  137.0330 O   0  0  0  0  0  0  0  0  0  0  0  0
  190.9520  175.2670  138.3430 O   0  0  0  0  0  0  0  0  0  0  0  0
  184.7090  177.4860  144.0400 O   0  0  0  0  0  0  0  0  0  0  0  0
  184.2970  178.6530  143.8010 C   0  0  0  0  0  0  0  0  0  0  0  0
  184.3370  179.6560  144.8190 N   0  0  0  0  0  2  0  0  0  0  0  0
  183.8450  179.0000  142.4950 N   0  0  0  0  0  2  0  0  0  0  0  0
  184.5860  179.3770  146.1760 N   0  0  0  0  0  2  0  0  0  0  0  0
  185.8930  179.1540  146.7090 C   0  0  0  0  0  0  0  0  0  0  0  0
  186.4310  180.1490  147.8920 S   0  0  0  0  0  0  0  0  0  0  0  0
  186.7070  178.0990  146.1750 N   0  0  0  0  0  2  0  0  0  0  0  0
  190.0540  177.2770  144.9330 C   0  0  2  0  0  3  0  0  0  0  0  0
  188.7390  177.8770  144.9340 C   0  0  2  0  0  3  0  0  0  0  0  0
  189.1860  177.5260  147.4590 S   0  0  0  0  0  0  0  0  0  0  0  0
  190.0090  176.3390  143.8060 N   0  0  0  0  0  2  0  0  0  0  0  0
  190.1560  176.5450  146.2620 C   0  0  0  0  0  2  0  0  0  0  0  0
  188.1380  178.0360  146.0980 C   0  0  2  0  0  3  0  0  0  0  0  0
  188.9260  176.7230  142.9700 N   0  0  0  0  0  2  0  0  0  0  0  0
  188.0810  177.5260  143.7500 N   0  0  0  0  0  2  0  0  0  0  0  0
  183.3980  175.5510  137.9510 C   0  0  0  0  0  2  0  0  0  0  0  0
  185.8490  171.5520  135.7810 C   0  0  0  0  0  3  0  0  0  0  0  0
  185.3660  173.5660  137.0170 C   0  0  0  0  0  3  0  0  0  0  0  0
  186.2850  172.6060  136.5870 C   0  0  0  0  0  3  0  0  0  0  0  0
  181.7310  174.2450  136.6360 C   0  0  0  0  0  3  0  0  0  0  0  0
  183.0560  174.4010  137.0560 C   0  0  0  0  0  0  0  0  0  0  0  0
  183.6260  172.3860  135.8220 C   0  0  0  0  0  0  0  0  0  0  0  0
  182.3290  172.2670  135.4350 N   0  0  0  0  0  0  0  0  0  0  0  0
  181.3840  173.1660  135.8210 C   0  0  0  0  0  0  0  0  0  0  0  0
  184.5420  171.4640  135.4180 N   0  0  0  0  0  0  0  0  0  0  0  0
  184.0220  173.4650  136.6440 C   0  0  0  0  0  0  0  0  0  0  0  0
  180.0250  173.0120  135.3810 C   0  0  0  0  0  0  0  0  0  0  0  0
  178.9310  172.8910  135.0250 N   0  0  0  0  0  0  0  0  0  0  0  0
  1 30  1  1  0  0  0
  2 16  1  1  0  0  0
  2  6  1  0  0  0  0
  3  1  1  0  0  0  0
  4 14  1  0  0  0  0
  6  3  1  1  0  0  0
  7  5  1  0  0  0  0
  8  5  1  6  0  0  0
  8  6  1  0  0  0  0
  8  9  1  0  0  0  0
  9  1  1  0  0  0  0
 10 12  2  0  0  0  0
 10 14  1  0  0  0  0
 11 15  1  0  0  0  0
 12  8  1  0  0  0  0
 13 11  1  6  0  0  0
 13  2  1  0  0  0  0
 14  7  2  0  0  0  0
 15 43  1  1  0  0  0
 15 12  1  0  0  0  0
 18 17  1  1  0  0  0
 18 20  1  0  0  0  0
 18 13  1  0  0  0  0
 19 22  1  6  0  0  0
 19 20  1  0  0  0  0
 21 17  1  0  0  0  0
 21 19  1  0  0  0  0
 22 23  1  0  0  0  0
 23 25  2  0  0  0  0
 23 26  2  0  0  0  0
 24 23  1  0  0  0  0
 28 27  2  0  0  0  0
 28 29  1  0  0  0  0
 29 31  1  0  0  0  0
 30 28  1  0  0  0  0
 31 32  1  0  0  0  0
 32 33  2  0  0  0  0
 34 32  1  0  0  0  0
 35 36  1  0  0  0  0
 35 39  1  1  0  0  0
 36 42  1  6  0  0  0
 36 40  1  0  0  0  0
 38 35  1  0  0  0  0
 39 37  1  0  0  0  0
 40 34  1  6  0  0  0
 40 37  1  0  0  0  0
 41 42  1  0  0  0  0
 41 38  1  0  0  0  0
 44 46  1  0  0  0  0
 46 45  2  0  0  0  0
 47 48  1  0  0  0  0
 48 43  1  0  0  0  0
 49 53  1  0  0  0  0
 50 51  1  0  0  0  0
 50 49  2  0  0  0  0
 51 47  2  0  0  0  0
 52 44  2  0  0  0  0
 52 49  1  0  0  0  0
 53 45  1  0  0  0  0
 53 48  2  0  0  0  0
 54 51  1  0  0  0  0
 55 54  3  0  0  0  0
M  END
>  <MODEL>
8

>  <REMARK>
 VINA RESULT:      -6.0      3.357      5.615
  Name = 
  11 active torsions:
  status: ('A' for Active; 'I' for Inactive)
    1  A    between atoms: C_3  and  N_54
    2  A    between atoms: N_10  and  S_17
    3  A    between atoms: N_10  and  C_36
    4  A    between atoms: C_23  and  N_25
    5  A    between atoms: C_24  and  C_43
    6  A    between atoms: N_25  and  C_40
    7  A    between atoms: C_30  and  N_34
    8  A    between atoms: N_39  and  N_41
    9  A    between atoms: C_40  and  N_41
   10  A    between atoms: C_43  and  C_47
   11  A    between atoms: C_46  and  C_48
                            x       y       z     vdW  Elec       q    Type
                         _______ _______ _______ _____ _____    ______ ____

>  <TORSDO>
F 11

$$$$
=
 OpenBabel11042411283D

 55 62  0  0  1  0  0  0  0  0999 V2000
  184.0400  178.0410  141.3970 C   0  0  2  0  0  3  0  0  0  0  0  0
  186.1450  178.1060  138.2620 C   0  0  2  0  0  3  0  0  0  0  0  0
  185.4310  178.1080  140.8040 C   0  0  0  0  0  2  0  0  0  0  0  0
  180.4820  180.6380  137.7330 F   0  0  0  0  0  0  0  0  0  0  0  0
  183.9320  180.0910  139.0040 C   0  0  0  0  0  2  0  0  0  0  0  0
  185.1070  177.8730  139.3700 C   0  0  1  0  0  3  0  0  0  0  0  0
  182.5810  180.7140  138.7490 C   0  0  0  0  0  3  0  0  0  0  0  0
  183.7760  178.5670  139.1990 C   0  0  1  0  0  0  0  0  0  0  0  0
  183.0750  178.3550  140.4060 O   0  0  0  0  0  0  0  0  0  0  0  0
  181.9750  178.7070  137.5120 C   0  0  0  0  0  3  0  0  0  0  0  0
  184.8070  177.2300  136.4720 C   0  0  0  0  0  2  0  0  0  0  0  0
  182.9970  178.0010  138.0160 C   0  0  0  0  0  0  0  0  0  0  0  0
  186.0200  177.0000  137.2810 N   0  0  1  0  0  0  0  0  0  0  0  0
  181.6660  180.0520  138.0320 C   0  0  0  0  0  0  0  0  0  0  0  0
  183.5010  176.8520  137.1890 C   0  0  2  0  0  3  0  0  0  0  0  0
  187.5520  178.2270  138.8630 C   0  0  0  0  0  1  0  0  0  0  0  0
  187.8730  178.2760  136.3250 C   0  0  0  0  0  2  0  0  0  0  0  0
  187.2010  176.9260  136.3920 C   0  0  1  0  0  3  0  0  0  0  0  0
  189.4300  176.5600  136.6850 C   0  0  2  0  0  3  0  0  0  0  0  0
  188.1560  175.9800  136.8320 O   0  0  0  0  0  0  0  0  0  0  0  0
  189.2940  177.9240  136.0560 C   0  0  0  0  0  2  0  0  0  0  0  0
  190.2650  175.7050  135.8530 N   0  0  0  0  0  2  0  0  0  0  0  0
  191.1190  174.6120  136.8920 S   0  0  0  0  0  0  0  0  0  0  0  0
  192.5660  174.1620  136.1750 F   0  0  0  0  0  0  0  0  0  0  0  0
  190.2790  173.3890  137.1180 O   0  0  0  0  0  0  0  0  0  0  0  0
  191.4010  175.2720  138.2110 O   0  0  0  0  0  0  0  0  0  0  0  0
  184.8020  177.4430  144.0670 O   0  0  0  0  0  0  0  0  0  0  0  0
  184.3770  178.6060  143.8320 C   0  0  0  0  0  0  0  0  0  0  0  0
  184.3930  179.6020  144.8570 N   0  0  0  0  0  2  0  0  0  0  0  0
  183.9340  178.9560  142.5230 N   0  0  0  0  0  2  0  0  0  0  0  0
  184.6310  179.3180  146.2140 N   0  0  0  0  0  2  0  0  0  0  0  0
  185.9370  179.1250  146.7620 C   0  0  0  0  0  0  0  0  0  0  0  0
  186.4640  180.1750  147.9020 S   0  0  0  0  0  0  0  0  0  0  0  0
  186.7580  178.0510  146.2810 N   0  0  0  0  0  2  0  0  0  0  0  0
  190.0250  177.2870  144.8110 C   0  0  2  0  0  3  0  0  0  0  0  0
  188.6890  177.8340  144.8870 C   0  0  2  0  0  3  0  0  0  0  0  0
  189.3570  177.6560  147.3820 S   0  0  0  0  0  0  0  0  0  0  0  0
  189.9300  176.2820  143.7470 N   0  0  0  0  0  2  0  0  0  0  0  0
  190.2680  176.6420  146.1660 C   0  0  0  0  0  2  0  0  0  0  0  0
  188.1790  178.0400  146.0870 C   0  0  2  0  0  3  0  0  0  0  0  0
  188.7660  176.5700  142.9840 N   0  0  0  0  0  2  0  0  0  0  0  0
  187.9540  177.3860  143.7860 N   0  0  0  0  0  2  0  0  0  0  0  0
  183.5810  175.5320  137.9530 C   0  0  0  0  0  2  0  0  0  0  0  0
  179.0060  175.1960  140.3330 C   0  0  0  0  0  3  0  0  0  0  0  0
  181.2670  175.8050  139.7580 C   0  0  0  0  0  3  0  0  0  0  0  0
  180.1560  175.9430  140.5930 C   0  0  0  0  0  3  0  0  0  0  0  0
  182.1980  173.8550  136.7330 C   0  0  0  0  0  3  0  0  0  0  0  0
  182.3090  174.7580  137.7950 C   0  0  0  0  0  0  0  0  0  0  0  0
  180.0380  174.1860  138.4470 C   0  0  0  0  0  0  0  0  0  0  0  0
  179.9670  173.3190  137.4040 N   0  0  0  0  0  0  0  0  0  0  0  0
  181.0120  173.1390  136.5520 C   0  0  0  0  0  0  0  0  0  0  0  0
  178.9700  174.3410  139.2760 N   0  0  0  0  0  0  0  0  0  0  0  0
  181.2200  174.9270  138.6700 C   0  0  0  0  0  0  0  0  0  0  0  0
  180.9010  172.2040  135.4680 C   0  0  0  0  0  0  0  0  0  0  0  0
  180.8070  171.4500  134.5940 N   0  0  0  0  0  0  0  0  0  0  0  0
  1 30  1  1  0  0  0
  2 16  1  1  0  0  0
  2  6  1  0  0  0  0
  3  1  1  0  0  0  0
  4 14  1  0  0  0  0
  6  3  1  1  0  0  0
  7  5  1  0  0  0  0
  8  5  1  6  0  0  0
  8  6  1  0  0  0  0
  8  9  1  0  0  0  0
  9  1  1  0  0  0  0
 10 12  2  0  0  0  0
 10 14  1  0  0  0  0
 11 15  1  0  0  0  0
 12  8  1  0  0  0  0
 13 11  1  6  0  0  0
 13  2  1  0  0  0  0
 14  7  2  0  0  0  0
 15 43  1  1  0  0  0
 15 12  1  0  0  0  0
 18 17  1  1  0  0  0
 18 20  1  0  0  0  0
 18 13  1  0  0  0  0
 19 22  1  6  0  0  0
 19 20  1  0  0  0  0
 21 17  1  0  0  0  0
 21 19  1  0  0  0  0
 22 23  1  0  0  0  0
 23 25  2  0  0  0  0
 23 26  2  0  0  0  0
 24 23  1  0  0  0  0
 28 27  2  0  0  0  0
 28 29  1  0  0  0  0
 29 31  1  0  0  0  0
 30 28  1  0  0  0  0
 31 32  1  0  0  0  0
 32 33  2  0  0  0  0
 34 32  1  0  0  0  0
 35 36  1  0  0  0  0
 35 39  1  1  0  0  0
 36 42  1  6  0  0  0
 36 40  1  0  0  0  0
 38 35  1  0  0  0  0
 39 37  1  0  0  0  0
 40 34  1  1  0  0  0
 40 37  1  0  0  0  0
 41 38  1  0  0  0  0
 41 42  1  0  0  0  0
 44 46  1  0  0  0  0
 45 46  2  0  0  0  0
 47 48  1  0  0  0  0
 48 43  1  0  0  0  0
 48 53  2  0  0  0  0
 49 53  1  0  0  0  0
 49 52  1  0  0  0  0
 50 49  2  0  0  0  0
 51 47  2  0  0  0  0
 51 50  1  0  0  0  0
 52 44  2  0  0  0  0
 53 45  1  0  0  0  0
 54 51  1  0  0  0  0
 55 54  3  0  0  0  0
M  END
>  <MODEL>
9

>  <REMARK>
 VINA RESULT:      -5.9      3.792      6.295
  Name = 
  11 active torsions:
  status: ('A' for Active; 'I' for Inactive)
    1  A    between atoms: C_3  and  N_54
    2  A    between atoms: N_10  and  S_17
    3  A    between atoms: N_10  and  C_36
    4  A    between atoms: C_23  and  N_25
    5  A    between atoms: C_24  and  C_43
    6  A    between atoms: N_25  and  C_40
    7  A    between atoms: C_30  and  N_34
    8  A    between atoms: N_39  and  N_41
    9  A    between atoms: C_40  and  N_41
   10  A    between atoms: C_43  and  C_47
   11  A    between atoms: C_46  and  C_48
                            x       y       z     vdW  Elec       q    Type
                         _______ _______ _______ _____ _____    ______ ____

>  <TORSDO>
F 11

$$$$
