=
 OpenBabel11042409523D

 33 36  0  0  1  0  0  0  0  0999 V2000
  181.8620  181.0900  138.7780 C   0  0  0  0  0  3  0  0  0  0  0  0
  181.7120  178.8150  137.9350 C   0  0  0  0  0  0  0  0  0  0  0  0
  180.0850  177.1290  139.7580 C   0  0  2  0  0  3  0  0  0  0  0  0
  181.5230  176.7390  139.3770 C   0  0  1  0  0  3  0  0  0  0  0  0
  180.9370  183.0410  137.5880 C   0  0  0  0  0  1  0  0  0  0  0  0
  184.9970  179.4660  138.8330 C   0  0  0  0  0  1  0  0  0  0  0  0
  181.1820  181.5710  137.6590 C   0  0  0  0  0  0  0  0  0  0  0  0
  181.0340  179.3070  136.8120 C   0  0  0  0  0  3  0  0  0  0  0  0
  184.2100  179.1740  140.0730 C   0  0  0  0  0  0  0  0  0  0  0  0
  186.2220  178.1620  142.8910 C   0  0  0  0  0  0  0  0  0  0  0  0
  184.1030  178.5040  142.4060 C   0  0  0  0  0  0  0  0  0  0  0  0
  181.8600  175.2600  139.5090 C   0  0  0  0  0  1  0  0  0  0  0  0
  180.6210  179.0640  141.2900 C   0  0  0  0  0  2  0  0  0  0  0  0
  182.1230  179.0140  141.2700 C   0  0  0  0  0  0  0  0  0  0  0  0
  186.1770  178.5560  141.5610 C   0  0  0  0  0  0  0  0  0  0  0  0
  184.8620  178.7760  141.2320 C   0  0  0  0  0  0  0  0  0  0  0  0
  184.9340  178.1220  143.4410 C   0  0  0  0  0  3  0  0  0  0  0  0
  181.3860  176.6320  136.9920 F   0  0  0  0  0  0  0  0  0  0  0  0
  181.9740  177.3260  138.0390 C   0  0  1  0  0  3  0  0  0  0  0  0
  182.8350  179.2870  140.1090 N   0  0  0  0  0  0  0  0  0  0  0  0
  187.2720  178.7000  140.7180 O   0  0  0  0  0  1  0  0  0  0  0  0
  182.7600  178.6180  142.4130 N   0  0  0  0  0  0  0  0  0  0  0  0
  180.0160  177.6650  141.1890 C   0  0  0  0  0  2  0  0  0  0  0  0
  180.7590  180.6720  136.6520 C   0  0  0  0  0  0  0  0  0  0  0  0
  182.1350  179.7260  138.9290 C   0  0  0  0  0  0  0  0  0  0  0  0
  179.0250  176.0680  139.4470 C   0  0  2  0  0  3  0  0  0  0  0  0
  178.9300  175.0680  140.5820 C   0  0  0  0  0  1  0  0  0  0  0  0
  179.3160  175.4000  138.2560 O   0  0  0  0  0  1  0  0  0  0  0  0
  180.5730  182.0740  134.6070 O   0  0  0  0  0  0  0  0  0  0  0  0
  180.0340  181.0900  135.4280 C   0  0  0  0  0  0  0  0  0  0  0  0
  178.9310  180.5730  135.1090 O   0  0  0  0  0  1  0  0  0  0  0  0
  187.4020  177.8520  143.5680 O   0  0  0  0  0  0  0  0  0  0  0  0
  187.9340  176.5370  143.5890 C   0  0  0  0  0  1  0  0  0  0  0  0
  1 25  1  0  0  0  0
  2 19  1  0  0  0  0
  2 25  2  0  0  0  0
  3 26  1  1  0  0  0
  3 23  1  0  0  0  0
  4 12  1  6  0  0  0
  4  3  1  0  0  0  0
  5  7  1  0  0  0  0
  6  9  1  0  0  0  0
  7  1  2  0  0  0  0
  8  2  1  0  0  0  0
  9 20  1  0  0  0  0
  9 16  2  0  0  0  0
 10 17  1  0  0  0  0
 10 32  1  0  0  0  0
 11 22  1  0  0  0  0
 11 17  2  0  0  0  0
 14 13  1  0  0  0  0
 14 22  2  0  0  0  0
 15 10  2  0  0  0  0
 16 15  1  0  0  0  0
 16 11  1  0  0  0  0
 19 18  1  6  0  0  0
 19  4  1  0  0  0  0
 20 14  1  0  0  0  0
 21 15  1  0  0  0  0
 23 13  1  0  0  0  0
 24  8  2  0  0  0  0
 24  7  1  0  0  0  0
 25 20  1  0  0  0  0
 26 27  1  1  0  0  0
 28 26  1  0  0  0  0
 29 30  2  0  0  0  0
 30 24  1  0  0  0  0
 31 30  1  0  0  0  0
 32 33  1  0  0  0  0
M  END
>  <MODEL>
1

>  <REMARK>
 VINA RESULT:      -6.8      0.000      0.000
  Name = 
  3 active torsions:
  status: ('A' for Active; 'I' for Inactive)
    1  A    between atoms: C_3  and  C_6
    2  A    between atoms: O_5  and  C_16
    3  A    between atoms: C_14  and  C_31
                            x       y       z     vdW  Elec       q    Type
                         _______ _______ _______ _____ _____    ______ ____

>  <TORSDO>
F 3

$$$$
=
 OpenBabel11042409523D

 33 36  0  0  1  0  0  0  0  0999 V2000
  185.0130  178.3050  137.8430 C   0  0  0  0  0  3  0  0  0  0  0  0
  183.8670  176.1640  137.9450 C   0  0  0  0  0  0  0  0  0  0  0  0
  181.3270  176.2630  136.4100 C   0  0  2  0  0  3  0  0  0  0  0  0
  181.3500  175.8580  137.8940 C   0  0  1  0  0  3  0  0  0  0  0  0
  187.2200  178.6120  136.7870 C   0  0  0  0  0  1  0  0  0  0  0  0
  183.8990  177.5740  141.1130 C   0  0  0  0  0  1  0  0  0  0  0  0
  186.0860  177.7210  137.1680 C   0  0  0  0  0  0  0  0  0  0  0  0
  184.9500  175.5850  137.2720 C   0  0  0  0  0  3  0  0  0  0  0  0
  182.8240  178.2340  140.3060 C   0  0  0  0  0  0  0  0  0  0  0  0
  180.2870  179.8640  142.2840 C   0  0  0  0  0  0  0  0  0  0  0  0
  180.7720  179.5260  140.1650 C   0  0  0  0  0  0  0  0  0  0  0  0
  180.1730  175.0150  138.3640 C   0  0  0  0  0  1  0  0  0  0  0  0
  181.7790  178.7310  136.6950 C   0  0  0  0  0  2  0  0  0  0  0  0
  181.8200  178.8250  138.1940 C   0  0  0  0  0  0  0  0  0  0  0  0
  181.4610  179.1250  142.2580 C   0  0  0  0  0  0  0  0  0  0  0  0
  181.7870  178.8990  140.9430 C   0  0  0  0  0  0  0  0  0  0  0  0
  179.8360  180.1260  140.9840 C   0  0  0  0  0  3  0  0  0  0  0  0
  182.8470  173.9920  137.8690 F   0  0  0  0  0  0  0  0  0  0  0  0
  182.6970  175.2870  138.3430 C   0  0  1  0  0  3  0  0  0  0  0  0
  182.8260  178.2050  138.9260 N   0  0  0  0  0  0  0  0  0  0  0  0
  182.1760  178.6930  143.3690 O   0  0  0  0  0  1  0  0  0  0  0  0
  180.7950  179.4790  138.8180 N   0  0  0  0  0  0  0  0  0  0  0  0
  180.7750  177.6780  136.2310 C   0  0  0  0  0  2  0  0  0  0  0  0
  186.0630  176.3370  136.8750 C   0  0  0  0  0  0  0  0  0  0  0  0
  183.9070  177.5460  138.2370 C   0  0  0  0  0  0  0  0  0  0  0  0
  180.6950  175.2320  135.4710 C   0  0  2  0  0  3  0  0  0  0  0  0
  181.7650  174.5460  134.6450 C   0  0  0  0  0  1  0  0  0  0  0  0
  179.7600  175.8290  134.6240 O   0  0  0  0  0  1  0  0  0  0  0  0
  187.0370  175.3600  134.8060 O   0  0  0  0  0  0  0  0  0  0  0  0
  187.1560  175.6290  136.1660 C   0  0  0  0  0  0  0  0  0  0  0  0
  188.1990  175.2600  136.7660 O   0  0  0  0  0  1  0  0  0  0  0  0
  179.6570  180.2770  143.4590 O   0  0  0  0  0  0  0  0  0  0  0  0
  178.9310  179.3760  144.2800 C   0  0  0  0  0  1  0  0  0  0  0  0
  1 25  1  0  0  0  0
  2 25  2  0  0  0  0
  2 19  1  0  0  0  0
  3 26  1  6  0  0  0
  3  4  1  0  0  0  0
  4 19  1  0  0  0  0
  4 12  1  6  0  0  0
  5  7  1  0  0  0  0
  7  1  2  0  0  0  0
  8  2  1  0  0  0  0
  9 16  2  0  0  0  0
  9  6  1  0  0  0  0
 10 32  1  0  0  0  0
 11 16  1  0  0  0  0
 11 17  2  0  0  0  0
 13 14  1  0  0  0  0
 14 22  2  0  0  0  0
 14 20  1  0  0  0  0
 15 10  2  0  0  0  0
 15 21  1  0  0  0  0
 16 15  1  0  0  0  0
 17 10  1  0  0  0  0
 19 18  1  6  0  0  0
 20  9  1  0  0  0  0
 22 11  1  0  0  0  0
 23  3  1  0  0  0  0
 23 13  1  0  0  0  0
 24  7  1  0  0  0  0
 24  8  2  0  0  0  0
 25 20  1  0  0  0  0
 26 27  1  6  0  0  0
 28 26  1  0  0  0  0
 29 30  2  0  0  0  0
 30 31  1  0  0  0  0
 30 24  1  0  0  0  0
 32 33  1  0  0  0  0
M  END
>  <MODEL>
2

>  <REMARK>
 VINA RESULT:      -6.4      3.203      5.542
  Name = 
  3 active torsions:
  status: ('A' for Active; 'I' for Inactive)
    1  A    between atoms: C_3  and  C_6
    2  A    between atoms: O_5  and  C_16
    3  A    between atoms: C_14  and  C_31
                            x       y       z     vdW  Elec       q    Type
                         _______ _______ _______ _____ _____    ______ ____

>  <TORSDO>
F 3

$$$$
=
 OpenBabel11042409523D

 33 36  0  0  1  0  0  0  0  0999 V2000
  182.3400  180.9760  138.7760 C   0  0  0  0  0  3  0  0  0  0  0  0
  182.2020  178.7520  137.8050 C   0  0  0  0  0  0  0  0  0  0  0  0
  180.8960  176.8660  139.6910 C   0  0  2  0  0  3  0  0  0  0  0  0
  182.2940  176.5840  139.1170 C   0  0  1  0  0  3  0  0  0  0  0  0
  181.1810  182.9390  137.8380 C   0  0  0  0  0  1  0  0  0  0  0  0
  185.5360  179.5350  138.3500 C   0  0  0  0  0  1  0  0  0  0  0  0
  181.5060  181.4840  137.7800 C   0  0  0  0  0  0  0  0  0  0  0  0
  181.3690  179.2710  136.8060 C   0  0  0  0  0  3  0  0  0  0  0  0
  184.9220  179.1230  139.6520 C   0  0  0  0  0  0  0  0  0  0  0  0
  187.3100  178.0600  142.1370 C   0  0  0  0  0  0  0  0  0  0  0  0
  185.1340  178.3080  141.9310 C   0  0  0  0  0  0  0  0  0  0  0  0
  182.7190  175.1220  139.1080 C   0  0  0  0  0  1  0  0  0  0  0  0
  181.5180  178.7320  141.2750 C   0  0  0  0  0  2  0  0  0  0  0  0
  183.0060  178.7700  141.0740 C   0  0  0  0  0  0  0  0  0  0  0  0
  187.0830  178.5310  140.8510 C   0  0  0  0  0  0  0  0  0  0  0  0
  185.7290  178.6940  140.6950 C   0  0  0  0  0  0  0  0  0  0  0  0
  186.1020  177.9110  142.8320 C   0  0  0  0  0  3  0  0  0  0  0  0
  181.8730  176.6150  136.7620 F   0  0  0  0  0  0  0  0  0  0  0  0
  182.5500  177.2770  137.7770 C   0  0  1  0  0  3  0  0  0  0  0  0
  183.5580  179.1540  139.8580 N   0  0  0  0  0  0  0  0  0  0  0  0
  188.0590  178.7880  139.8950 O   0  0  0  0  0  1  0  0  0  0  0  0
  183.7970  178.3430  142.1040 N   0  0  0  0  0  0  0  0  0  0  0  0
  180.9750  177.3090  141.1530 C   0  0  0  0  0  2  0  0  0  0  0  0
  181.0090  180.6250  136.7730 C   0  0  0  0  0  0  0  0  0  0  0  0
  182.6970  179.6240  138.8010 C   0  0  0  0  0  0  0  0  0  0  0  0
  179.8610  175.7670  139.4360 C   0  0  2  0  0  3  0  0  0  0  0  0
  179.0930  176.0500  138.1600 C   0  0  0  0  0  1  0  0  0  0  0  0
  178.9700  175.6570  140.5060 O   0  0  0  0  0  1  0  0  0  0  0  0
  180.4910  182.1560  134.8820 O   0  0  0  0  0  0  0  0  0  0  0  0
  180.1190  181.0740  135.6740 C   0  0  0  0  0  0  0  0  0  0  0  0
  179.0250  180.4980  135.4370 O   0  0  0  0  0  1  0  0  0  0  0  0
  188.5780  177.7770  142.6470 O   0  0  0  0  0  0  0  0  0  0  0  0
  188.8530  177.8120  144.0390 C   0  0  0  0  0  1  0  0  0  0  0  0
  1 25  1  0  0  0  0
  2 25  2  0  0  0  0
  3 26  1  1  0  0  0
  3 23  1  0  0  0  0
  4 12  1  6  0  0  0
  4  3  1  0  0  0  0
  6  9  1  0  0  0  0
  7  5  1  0  0  0  0
  7  1  2  0  0  0  0
  8  2  1  0  0  0  0
  9 20  1  0  0  0  0
  9 16  2  0  0  0  0
 10 32  1  0  0  0  0
 10 17  1  0  0  0  0
 11 22  1  0  0  0  0
 11 17  2  0  0  0  0
 14 13  1  0  0  0  0
 14 22  2  0  0  0  0
 15 10  2  0  0  0  0
 16 15  1  0  0  0  0
 16 11  1  0  0  0  0
 19 18  1  6  0  0  0
 19  2  1  0  0  0  0
 19  4  1  0  0  0  0
 20 14  1  0  0  0  0
 21 15  1  0  0  0  0
 23 13  1  0  0  0  0
 24  8  2  0  0  0  0
 24  7  1  0  0  0  0
 25 20  1  0  0  0  0
 26 27  1  6  0  0  0
 26 28  1  0  0  0  0
 29 30  2  0  0  0  0
 30 24  1  0  0  0  0
 31 30  1  0  0  0  0
 32 33  1  0  0  0  0
M  END
>  <MODEL>
3

>  <REMARK>
 VINA RESULT:      -6.4      0.950      1.057
  Name = 
  3 active torsions:
  status: ('A' for Active; 'I' for Inactive)
    1  A    between atoms: C_3  and  C_6
    2  A    between atoms: O_5  and  C_16
    3  A    between atoms: C_14  and  C_31
                            x       y       z     vdW  Elec       q    Type
                         _______ _______ _______ _____ _____    ______ ____

>  <TORSDO>
F 3

$$$$
=
 OpenBabel11042409523D

 33 36  0  0  1  0  0  0  0  0999 V2000
  190.4600  175.9590  140.1760 C   0  0  0  0  0  3  0  0  0  0  0  0
  189.7680  177.5420  138.4670 C   0  0  0  0  0  0  0  0  0  0  0  0
  188.0750  176.2060  136.4260 C   0  0  2  0  0  3  0  0  0  0  0  0
  189.3520  176.9670  136.0330 C   0  0  1  0  0  3  0  0  0  0  0  0
  189.7970  176.1430  142.5430 C   0  0  0  0  0  1  0  0  0  0  0  0
  193.2010  177.0990  138.2640 C   0  0  0  0  0  1  0  0  0  0  0  0
  189.7570  176.6700  141.1490 C   0  0  0  0  0  0  0  0  0  0  0  0
  189.0690  178.2540  139.4510 C   0  0  0  0  0  3  0  0  0  0  0  0
  192.5280  175.9320  137.6090 C   0  0  0  0  0  0  0  0  0  0  0  0
  194.6280  174.1230  135.3020 C   0  0  0  0  0  0  0  0  0  0  0  0
  192.5740  174.0400  136.0870 C   0  0  0  0  0  0  0  0  0  0  0  0
  189.4070  177.4590  134.5940 C   0  0  0  0  0  1  0  0  0  0  0  0
  189.1600  174.1940  137.5010 C   0  0  0  0  0  2  0  0  0  0  0  0
  190.6090  174.5130  137.2640 C   0  0  0  0  0  0  0  0  0  0  0  0
  194.5000  175.1780  136.1950 C   0  0  0  0  0  0  0  0  0  0  0  0
  193.2240  175.1490  136.7000 C   0  0  0  0  0  0  0  0  0  0  0  0
  193.4320  173.3960  135.2170 C   0  0  0  0  0  3  0  0  0  0  0  0
  188.9100  179.1500  136.9040 F   0  0  0  0  0  0  0  0  0  0  0  0
  189.7450  178.0500  137.0390 C   0  0  1  0  0  3  0  0  0  0  0  0
  191.2160  175.6000  137.8800 N   0  0  0  0  0  0  0  0  0  0  0  0
  195.4920  176.0960  136.5160 O   0  0  0  0  0  1  0  0  0  0  0  0
  191.2900  173.7400  136.3660 N   0  0  0  0  0  0  0  0  0  0  0  0
  188.2850  174.6930  136.3520 C   0  0  0  0  0  2  0  0  0  0  0  0
  189.0480  177.8400  140.7890 C   0  0  0  0  0  0  0  0  0  0  0  0
  190.4770  176.3790  138.8420 C   0  0  0  0  0  0  0  0  0  0  0  0
  186.7990  176.6850  135.7280 C   0  0  2  0  0  3  0  0  0  0  0  0
  185.9480  177.4990  136.6840 C   0  0  0  0  0  1  0  0  0  0  0  0
  186.0560  175.6070  135.2410 O   0  0  0  0  0  1  0  0  0  0  0  0
  186.9620  179.0150  141.4630 O   0  0  0  0  0  0  0  0  0  0  0  0
  188.2760  178.6620  141.7520 C   0  0  0  0  0  0  0  0  0  0  0  0
  188.7830  179.0540  142.8360 O   0  0  0  0  0  1  0  0  0  0  0  0
  195.7970  173.8430  134.5940 O   0  0  0  0  0  0  0  0  0  0  0  0
  196.7550  172.9060  135.0630 C   0  0  0  0  0  1  0  0  0  0  0  0
  1  7  1  0  0  0  0
  2 25  1  0  0  0  0
  2  8  2  0  0  0  0
  3 26  1  6  0  0  0
  4 12  1  6  0  0  0
  4  3  1  0  0  0  0
  4 19  1  0  0  0  0
  7  5  1  0  0  0  0
  8 24  1  0  0  0  0
  9 20  1  0  0  0  0
  9  6  1  0  0  0  0
 10 15  2  0  0  0  0
 11 22  1  0  0  0  0
 11 16  1  0  0  0  0
 14 13  1  0  0  0  0
 14 20  1  0  0  0  0
 15 21  1  0  0  0  0
 15 16  1  0  0  0  0
 16  9  2  0  0  0  0
 17 10  1  0  0  0  0
 17 11  2  0  0  0  0
 19 18  1  1  0  0  0
 19  2  1  0  0  0  0
 20 25  1  0  0  0  0
 22 14  2  0  0  0  0
 23  3  1  0  0  0  0
 23 13  1  0  0  0  0
 24  7  2  0  0  0  0
 24 30  1  0  0  0  0
 25  1  2  0  0  0  0
 26 27  1  1  0  0  0
 28 26  1  0  0  0  0
 29 30  2  0  0  0  0
 30 31  1  0  0  0  0
 32 33  1  0  0  0  0
 32 10  1  0  0  0  0
M  END
>  <MODEL>
4

>  <REMARK>
 VINA RESULT:      -6.0      7.203     10.121
  Name = 
  3 active torsions:
  status: ('A' for Active; 'I' for Inactive)
    1  A    between atoms: C_3  and  C_6
    2  A    between atoms: O_5  and  C_16
    3  A    between atoms: C_14  and  C_31
                            x       y       z     vdW  Elec       q    Type
                         _______ _______ _______ _____ _____    ______ ____

>  <TORSDO>
F 3

$$$$
=
 OpenBabel11042409523D

 33 36  0  0  1  0  0  0  0  0999 V2000
  180.3110  176.0390  138.9950 C   0  0  0  0  0  3  0  0  0  0  0  0
  181.3240  175.8830  136.7910 C   0  0  0  0  0  0  0  0  0  0  0  0
  184.2360  176.4440  136.9370 C   0  0  2  0  0  3  0  0  0  0  0  0
  183.3120  177.2450  136.0040 C   0  0  1  0  0  3  0  0  0  0  0  0
  179.2640  174.1250  140.1440 C   0  0  0  0  0  1  0  0  0  0  0  0
  179.1510  178.5850  136.8400 C   0  0  0  0  0  1  0  0  0  0  0  0
  179.9740  174.6850  138.9580 C   0  0  0  0  0  0  0  0  0  0  0  0
  180.9780  174.5260  136.7600 C   0  0  0  0  0  3  0  0  0  0  0  0
  180.4260  178.9830  137.5170 C   0  0  0  0  0  0  0  0  0  0  0  0
  180.9570  182.5460  137.6810 C   0  0  0  0  0  0  0  0  0  0  0  0
  181.9660  180.6910  138.2990 C   0  0  0  0  0  0  0  0  0  0  0  0
  183.9930  177.9130  134.8180 C   0  0  0  0  0  1  0  0  0  0  0  0
  183.4770  177.4210  139.1380 C   0  0  0  0  0  2  0  0  0  0  0  0
  182.4830  178.4370  138.6520 C   0  0  0  0  0  0  0  0  0  0  0  0
  180.1440  181.4970  137.2760 C   0  0  0  0  0  0  0  0  0  0  0  0
  180.7530  180.3250  137.6500 C   0  0  0  0  0  0  0  0  0  0  0  0
  182.1060  182.0650  138.3240 C   0  0  0  0  0  3  0  0  0  0  0  0
  182.3570  175.5170  134.6550 F   0  0  0  0  0  0  0  0  0  0  0  0
  182.0490  176.4820  135.6030 C   0  0  1  0  0  3  0  0  0  0  0  0
  181.3060  178.0480  138.0250 N   0  0  0  0  0  0  0  0  0  0  0  0
  178.9310  181.6190  136.6090 O   0  0  0  0  0  1  0  0  0  0  0  0
  182.8100  179.7580  138.7820 N   0  0  0  0  0  0  0  0  0  0  0  0
  184.6410  177.2680  138.1600 C   0  0  0  0  0  2  0  0  0  0  0  0
  180.3070  173.9080  137.8240 C   0  0  0  0  0  0  0  0  0  0  0  0
  180.9780  176.6480  137.9270 C   0  0  0  0  0  0  0  0  0  0  0  0
  185.4150  175.7570  136.2410 C   0  0  2  0  0  3  0  0  0  0  0  0
  185.1640  174.2660  136.1270 C   0  0  0  0  0  1  0  0  0  0  0  0
  186.6080  175.9810  136.9310 O   0  0  0  0  0  1  0  0  0  0  0  0
  180.8540  171.5150  138.2260 O   0  0  0  0  0  1  0  0  0  0  0  0
  179.9880  172.4660  137.6930 C   0  0  0  0  0  0  0  0  0  0  0  0
  178.9460  172.0740  137.1060 O   0  0  0  0  0  0  0  0  0  0  0  0
  180.6530  183.8910  137.4650 O   0  0  0  0  0  0  0  0  0  0  0  0
  181.0340  184.5680  136.2770 C   0  0  0  0  0  1  0  0  0  0  0  0
  2 25  1  0  0  0  0
  3 26  1  6  0  0  0
  3 23  1  0  0  0  0
  4 12  1  6  0  0  0
  4  3  1  0  0  0  0
  6  9  1  0  0  0  0
  7  1  1  0  0  0  0
  7  5  1  0  0  0  0
  8  2  2  0  0  0  0
  8 24  1  0  0  0  0
  9 16  2  0  0  0  0
  9 20  1  0  0  0  0
 10 17  1  0  0  0  0
 11 17  2  0  0  0  0
 11 22  1  0  0  0  0
 14 22  2  0  0  0  0
 14 13  1  0  0  0  0
 15 16  1  0  0  0  0
 15 10  2  0  0  0  0
 16 11  1  0  0  0  0
 19 18  1  6  0  0  0
 19  4  1  0  0  0  0
 19  2  1  0  0  0  0
 20 14  1  0  0  0  0
 21 15  1  0  0  0  0
 23 13  1  0  0  0  0
 24  7  2  0  0  0  0
 25 20  1  0  0  0  0
 25  1  2  0  0  0  0
 26 27  1  1  0  0  0
 26 28  1  0  0  0  0
 30 24  1  0  0  0  0
 30 29  1  0  0  0  0
 31 30  2  0  0  0  0
 32 10  1  0  0  0  0
 33 32  1  0  0  0  0
M  END
>  <MODEL>
5

>  <REMARK>
 VINA RESULT:      -5.7      2.980      6.865
  Name = 
  3 active torsions:
  status: ('A' for Active; 'I' for Inactive)
    1  A    between atoms: C_3  and  C_6
    2  A    between atoms: O_5  and  C_16
    3  A    between atoms: C_14  and  C_31
                            x       y       z     vdW  Elec       q    Type
                         _______ _______ _______ _____ _____    ______ ____

>  <TORSDO>
F 3

$$$$
=
 OpenBabel11042409523D

 33 36  0  0  1  0  0  0  0  0999 V2000
  186.6980  176.9920  136.0670 C   0  0  0  0  0  3  0  0  0  0  0  0
  185.7330  175.0680  137.1960 C   0  0  0  0  0  0  0  0  0  0  0  0
  183.4520  173.9780  135.6390 C   0  0  2  0  0  3  0  0  0  0  0  0
  183.2870  174.4060  137.1070 C   0  0  1  0  0  3  0  0  0  0  0  0
  189.0040  177.0370  135.1980 C   0  0  0  0  0  1  0  0  0  0  0  0
  185.1730  177.8980  139.1210 C   0  0  0  0  0  1  0  0  0  0  0  0
  187.9050  176.3120  135.8980 C   0  0  0  0  0  0  0  0  0  0  0  0
  186.9490  174.3940  137.0250 C   0  0  0  0  0  3  0  0  0  0  0  0
  184.1790  177.8760  138.0010 C   0  0  0  0  0  0  0  0  0  0  0  0
  181.2470  179.8910  138.5930 C   0  0  0  0  0  0  0  0  0  0  0  0
  182.0700  178.5850  137.0250 C   0  0  0  0  0  0  0  0  0  0  0  0
  182.1270  173.7620  137.8530 C   0  0  0  0  0  1  0  0  0  0  0  0
  183.6480  176.2740  134.6060 C   0  0  0  0  0  2  0  0  0  0  0  0
  183.4560  177.1340  135.8230 C   0  0  0  0  0  0  0  0  0  0  0  0
  182.4700  179.4300  139.0600 C   0  0  0  0  0  0  0  0  0  0  0  0
  183.0060  178.6100  138.0990 C   0  0  0  0  0  0  0  0  0  0  0  0
  180.9750  179.3730  137.3200 C   0  0  0  0  0  3  0  0  0  0  0  0
  184.9220  173.0440  138.2000 F   0  0  0  0  0  0  0  0  0  0  0  0
  184.5940  174.3590  137.9010 C   0  0  1  0  0  3  0  0  0  0  0  0
  184.3900  177.1390  136.8530 N   0  0  0  0  0  0  0  0  0  0  0  0
  183.0440  179.7470  140.2860 O   0  0  0  0  0  1  0  0  0  0  0  0
  182.2980  177.8530  135.9170 N   0  0  0  0  0  0  0  0  0  0  0  0
  182.8160  174.9950  134.6900 C   0  0  0  0  0  2  0  0  0  0  0  0
  188.0420  174.9910  136.3840 C   0  0  0  0  0  0  0  0  0  0  0  0
  185.6120  176.3900  136.7120 C   0  0  0  0  0  0  0  0  0  0  0  0
  183.0560  172.5290  135.3410 C   0  0  2  0  0  3  0  0  0  0  0  0
  184.1690  171.8210  134.5950 C   0  0  0  0  0  1  0  0  0  0  0  0
  181.8790  172.4710  134.5940 O   0  0  0  0  0  1  0  0  0  0  0  0
  189.7330  173.8150  134.9900 O   0  0  0  0  0  0  0  0  0  0  0  0
  189.2840  174.1920  136.2520 C   0  0  0  0  0  0  0  0  0  0  0  0
  189.9500  173.8410  137.2610 O   0  0  0  0  0  1  0  0  0  0  0  0
  180.4160  180.7510  139.3120 O   0  0  0  0  0  0  0  0  0  0  0  0
  179.5490  180.2820  140.3320 C   0  0  0  0  0  1  0  0  0  0  0  0
  1 25  1  0  0  0  0
  2 19  1  0  0  0  0
  3 26  1  1  0  0  0
  3  4  1  0  0  0  0
  4 12  1  1  0  0  0
  4 19  1  0  0  0  0
  5  7  1  0  0  0  0
  7  1  2  0  0  0  0
  7 24  1  0  0  0  0
  8  2  1  0  0  0  0
  9 16  2  0  0  0  0
  9  6  1  0  0  0  0
 10 15  2  0  0  0  0
 10 32  1  0  0  0  0
 11 17  2  0  0  0  0
 11 16  1  0  0  0  0
 13 23  1  0  0  0  0
 13 14  1  0  0  0  0
 14 22  2  0  0  0  0
 14 20  1  0  0  0  0
 15 21  1  0  0  0  0
 16 15  1  0  0  0  0
 17 10  1  0  0  0  0
 19 18  1  6  0  0  0
 20  9  1  0  0  0  0
 22 11  1  0  0  0  0
 23  3  1  0  0  0  0
 24  8  2  0  0  0  0
 25 20  1  0  0  0  0
 25  2  2  0  0  0  0
 26 27  1  6  0  0  0
 28 26  1  0  0  0  0
 29 30  2  0  0  0  0
 30 24  1  0  0  0  0
 30 31  1  0  0  0  0
 32 33  1  0  0  0  0
M  END
>  <MODEL>
6

>  <REMARK>
 VINA RESULT:      -5.0      4.394      7.218
  Name = 
  3 active torsions:
  status: ('A' for Active; 'I' for Inactive)
    1  A    between atoms: C_3  and  C_6
    2  A    between atoms: O_5  and  C_16
    3  A    between atoms: C_14  and  C_31
                            x       y       z     vdW  Elec       q    Type
                         _______ _______ _______ _____ _____    ______ ____

>  <TORSDO>
F 3

$$$$
=
 OpenBabel11042409523D

 33 36  0  0  1  0  0  0  0  0999 V2000
  182.8280  178.0570  141.0430 C   0  0  0  0  0  3  0  0  0  0  0  0
  181.5570  178.8810  139.1420 C   0  0  0  0  0  0  0  0  0  0  0  0
  180.4880  176.6220  137.5400 C   0  0  2  0  0  3  0  0  0  0  0  0
  181.3670  177.7100  136.9020 C   0  0  1  0  0  3  0  0  0  0  0  0
  182.1740  178.4550  143.3870 C   0  0  0  0  0  1  0  0  0  0  0  0
  184.8920  179.7310  138.7180 C   0  0  0  0  0  1  0  0  0  0  0  0
  181.9170  178.6340  141.9280 C   0  0  0  0  0  0  0  0  0  0  0  0
  180.6490  179.4610  140.0380 C   0  0  0  0  0  3  0  0  0  0  0  0
  184.7140  178.2910  138.3500 C   0  0  0  0  0  0  0  0  0  0  0  0
  187.3230  176.9760  136.2350 C   0  0  0  0  0  0  0  0  0  0  0  0
  185.4710  176.2880  137.2020 C   0  0  0  0  0  0  0  0  0  0  0  0
  181.2110  177.8840  135.3970 C   0  0  0  0  0  1  0  0  0  0  0  0
  182.2790  175.4300  138.8630 C   0  0  0  0  0  2  0  0  0  0  0  0
  183.4900  176.2150  138.4440 C   0  0  0  0  0  0  0  0  0  0  0  0
  186.8080  178.0630  136.9280 C   0  0  0  0  0  0  0  0  0  0  0  0
  185.6480  177.6600  137.5420 C   0  0  0  0  0  0  0  0  0  0  0  0
  186.5010  175.8530  136.3910 C   0  0  0  0  0  3  0  0  0  0  0  0
  180.1260  179.6950  137.3950 F   0  0  0  0  0  0  0  0  0  0  0  0
  181.3230  179.0420  137.6540 C   0  0  1  0  0  3  0  0  0  0  0  0
  183.6360  177.5520  138.7940 N   0  0  0  0  0  0  0  0  0  0  0  0
  187.3720  179.3320  136.9850 O   0  0  0  0  0  1  0  0  0  0  0  0
  184.4060  175.5900  137.6450 N   0  0  0  0  0  0  0  0  0  0  0  0
  181.2660  175.3180  137.7250 C   0  0  0  0  0  2  0  0  0  0  0  0
  180.8060  179.3520  141.4260 C   0  0  0  0  0  0  0  0  0  0  0  0
  182.6660  178.1730  139.6590 C   0  0  0  0  0  0  0  0  0  0  0  0
  179.1180  176.4330  136.8830 C   0  0  2  0  0  3  0  0  0  0  0  0
  178.9740  175.0170  136.3610 C   0  0  0  0  0  1  0  0  0  0  0  0
  178.9310  177.3400  135.8390 O   0  0  0  0  0  1  0  0  0  0  0  0
  178.9310  179.2170  143.0540 O   0  0  0  0  0  1  0  0  0  0  0  0
  179.7880  180.0000  142.2880 C   0  0  0  0  0  0  0  0  0  0  0  0
  179.6760  181.2530  142.3450 O   0  0  0  0  0  0  0  0  0  0  0  0
  188.5020  177.0200  135.4880 O   0  0  0  0  0  0  0  0  0  0  0  0
  189.7720  176.7770  136.0730 C   0  0  0  0  0  1  0  0  0  0  0  0
  1  7  1  0  0  0  0
  2 25  1  0  0  0  0
  2  8  2  0  0  0  0
  3 26  1  6  0  0  0
  3 23  1  0  0  0  0
  4 12  1  6  0  0  0
  4  3  1  0  0  0  0
  4 19  1  0  0  0  0
  7  5  1  0  0  0  0
  8 24  1  0  0  0  0
  9  6  1  0  0  0  0
  9 20  1  0  0  0  0
 10 17  1  0  0  0  0
 10 15  2  0  0  0  0
 11 16  1  0  0  0  0
 11 22  1  0  0  0  0
 14 20  1  0  0  0  0
 14 13  1  0  0  0  0
 15 21  1  0  0  0  0
 15 16  1  0  0  0  0
 16  9  2  0  0  0  0
 17 11  2  0  0  0  0
 19 18  1  1  0  0  0
 19  2  1  0  0  0  0
 20 25  1  0  0  0  0
 22 14  2  0  0  0  0
 23 13  1  0  0  0  0
 24  7  2  0  0  0  0
 24 30  1  0  0  0  0
 25  1  2  0  0  0  0
 26 27  1  6  0  0  0
 28 26  1  0  0  0  0
 30 31  2  0  0  0  0
 30 29  1  0  0  0  0
 32 33  1  0  0  0  0
 32 10  1  0  0  0  0
M  END
>  <MODEL>
7

>  <REMARK>
 VINA RESULT:      -5.0      3.207      5.009
  Name = 
  3 active torsions:
  status: ('A' for Active; 'I' for Inactive)
    1  A    between atoms: C_3  and  C_6
    2  A    between atoms: O_5  and  C_16
    3  A    between atoms: C_14  and  C_31
                            x       y       z     vdW  Elec       q    Type
                         _______ _______ _______ _____ _____    ______ ____

>  <TORSDO>
F 3

$$$$
=
 OpenBabel11042409523D

 33 36  0  0  1  0  0  0  0  0999 V2000
  180.7580  176.0610  137.3500 C   0  0  0  0  0  3  0  0  0  0  0  0
  183.0100  176.8770  137.7600 C   0  0  0  0  0  0  0  0  0  0  0  0
  183.2290  178.0120  140.4950 C   0  0  2  0  0  3  0  0  0  0  0  0
  183.5970  178.8410  139.2530 C   0  0  1  0  0  3  0  0  0  0  0  0
  180.2300  173.6890  136.9310 C   0  0  0  0  0  1  0  0  0  0  0  0
  181.5350  178.8350  135.3080 C   0  0  0  0  0  1  0  0  0  0  0  0
  181.2340  174.7560  137.2150 C   0  0  0  0  0  0  0  0  0  0  0  0
  183.4800  175.5640  137.6190 C   0  0  0  0  0  3  0  0  0  0  0  0
  181.0180  179.2700  136.6450 C   0  0  0  0  0  0  0  0  0  0  0  0
  179.6370  182.6020  136.6770 C   0  0  0  0  0  0  0  0  0  0  0  0
  179.9660  180.9310  138.0710 C   0  0  0  0  0  0  0  0  0  0  0  0
  184.5540  179.9990  139.4940 C   0  0  0  0  0  1  0  0  0  0  0  0
  180.7200  178.0080  140.2070 C   0  0  0  0  0  2  0  0  0  0  0  0
  180.5890  178.8700  138.9840 C   0  0  0  0  0  0  0  0  0  0  0  0
  180.2410  181.5870  135.9470 C   0  0  0  0  0  0  0  0  0  0  0  0
  180.4580  180.5300  136.7960 C   0  0  0  0  0  0  0  0  0  0  0  0
  179.4560  182.2140  138.0110 C   0  0  0  0  0  3  0  0  0  0  0  0
  185.2840  177.4820  138.2380 F   0  0  0  0  0  0  0  0  0  0  0  0
  184.0030  177.9840  138.0530 C   0  0  1  0  0  3  0  0  0  0  0  0
  181.0770  178.4490  137.7530 N   0  0  0  0  0  0  0  0  0  0  0  0
  180.5660  181.6400  134.5970 O   0  0  0  0  0  1  0  0  0  0  0  0
  180.0400  180.1120  139.1390 N   0  0  0  0  0  0  0  0  0  0  0  0
  181.8890  178.4570  141.0830 C   0  0  0  0  0  2  0  0  0  0  0  0
  182.6170  174.4950  137.3480 C   0  0  0  0  0  0  0  0  0  0  0  0
  181.6260  177.1240  137.6180 C   0  0  0  0  0  0  0  0  0  0  0  0
  184.3450  177.8830  141.5360 C   0  0  2  0  0  3  0  0  0  0  0  0
  183.9160  178.5080  142.8490 C   0  0  0  0  0  1  0  0  0  0  0  0
  185.5220  178.4870  141.0910 O   0  0  0  0  0  1  0  0  0  0  0  0
  184.5420  172.9360  137.5820 O   0  0  0  0  0  1  0  0  0  0  0  0
  183.2150  173.1430  137.2190 C   0  0  0  0  0  0  0  0  0  0  0  0
  182.5470  172.1680  136.7840 O   0  0  0  0  0  0  0  0  0  0  0  0
  179.2700  183.8350  136.1360 O   0  0  0  0  0  0  0  0  0  0  0  0
  180.1130  184.9740  136.2190 C   0  0  0  0  0  1  0  0  0  0  0  0
  1 25  1  0  0  0  0
  2 19  1  0  0  0  0
  3 23  1  0  0  0  0
  3 26  1  1  0  0  0
  4 12  1  1  0  0  0
  4  3  1  0  0  0  0
  5  7  1  0  0  0  0
  6  9  1  0  0  0  0
  7 24  1  0  0  0  0
  7  1  2  0  0  0  0
  8  2  1  0  0  0  0
  9 16  2  0  0  0  0
  9 20  1  0  0  0  0
 10 17  1  0  0  0  0
 11 22  1  0  0  0  0
 13 23  1  0  0  0  0
 14 22  2  0  0  0  0
 14 13  1  0  0  0  0
 15 10  2  0  0  0  0
 15 16  1  0  0  0  0
 16 11  1  0  0  0  0
 17 11  2  0  0  0  0
 19 18  1  1  0  0  0
 19  4  1  0  0  0  0
 20 14  1  0  0  0  0
 21 15  1  0  0  0  0
 24  8  2  0  0  0  0
 25 20  1  0  0  0  0
 25  2  2  0  0  0  0
 26 27  1  1  0  0  0
 28 26  1  0  0  0  0
 30 24  1  0  0  0  0
 30 29  1  0  0  0  0
 31 30  2  0  0  0  0
 32 33  1  0  0  0  0
 32 10  1  0  0  0  0
M  END
>  <MODEL>
8

>  <REMARK>
 VINA RESULT:      -4.5      2.342      6.920
  Name = 
  3 active torsions:
  status: ('A' for Active; 'I' for Inactive)
    1  A    between atoms: C_3  and  C_6
    2  A    between atoms: O_5  and  C_16
    3  A    between atoms: C_14  and  C_31
                            x       y       z     vdW  Elec       q    Type
                         _______ _______ _______ _____ _____    ______ ____

>  <TORSDO>
F 3

$$$$
=
 OpenBabel11042409523D

 33 36  0  0  1  0  0  0  0  0999 V2000
  182.4370  177.7760  140.3640 C   0  0  0  0  0  3  0  0  0  0  0  0
  181.6280  178.5440  138.2050 C   0  0  0  0  0  0  0  0  0  0  0  0
  180.3210  176.3240  136.7280 C   0  0  2  0  0  3  0  0  0  0  0  0
  181.4860  177.1170  136.1140 C   0  0  1  0  0  3  0  0  0  0  0  0
  181.5830  178.6300  142.5140 C   0  0  0  0  0  1  0  0  0  0  0  0
  185.0930  178.6620  138.2140 C   0  0  0  0  0  1  0  0  0  0  0  0
  181.5610  178.6400  141.0220 C   0  0  0  0  0  0  0  0  0  0  0  0
  180.7550  179.4120  138.8740 C   0  0  0  0  0  3  0  0  0  0  0  0
  184.6630  177.2450  137.9920 C   0  0  0  0  0  0  0  0  0  0  0  0
  187.1860  175.1580  136.4800 C   0  0  0  0  0  0  0  0  0  0  0  0
  185.1200  174.9890  137.2170 C   0  0  0  0  0  0  0  0  0  0  0  0
  181.5670  177.0970  134.5940 C   0  0  0  0  0  1  0  0  0  0  0  0
  181.6300  175.0150  138.4450 C   0  0  0  0  0  2  0  0  0  0  0  0
  183.0240  175.4820  138.1330 C   0  0  0  0  0  0  0  0  0  0  0  0
  186.8280  176.4130  136.9530 C   0  0  0  0  0  0  0  0  0  0  0  0
  185.5390  176.3350  137.4190 C   0  0  0  0  0  0  0  0  0  0  0  0
  186.1300  174.2490  136.6350 C   0  0  0  0  0  3  0  0  0  0  0  0
  180.6420  179.3550  136.1720 F   0  0  0  0  0  0  0  0  0  0  0  0
  181.6280  178.5280  136.6900 C   0  0  1  0  0  3  0  0  0  0  0  0
  183.4040  176.8010  138.3440 N   0  0  0  0  0  0  0  0  0  0  0  0
  187.6360  177.5440  136.9500 O   0  0  0  0  0  1  0  0  0  0  0  0
  183.8820  174.5820  137.5660 N   0  0  0  0  0  0  0  0  0  0  0  0
  180.7730  174.9360  137.1830 C   0  0  0  0  0  2  0  0  0  0  0  0
  180.7040  179.4780  140.2720 C   0  0  0  0  0  0  0  0  0  0  0  0
  182.4840  177.7180  138.9680 C   0  0  0  0  0  0  0  0  0  0  0  0
  179.0390  176.3100  135.8900 C   0  0  2  0  0  3  0  0  0  0  0  0
  178.9310  175.0120  135.1140 C   0  0  0  0  0  1  0  0  0  0  0  0
  179.0020  177.3900  135.0070 O   0  0  0  0  0  1  0  0  0  0  0  0
  179.6970  181.7460  140.4370 O   0  0  0  0  0  0  0  0  0  0  0  0
  179.7430  180.4290  140.8820 C   0  0  0  0  0  0  0  0  0  0  0  0
  178.9610  180.0740  141.8020 O   0  0  0  0  0  1  0  0  0  0  0  0
  188.4330  174.8640  135.9280 O   0  0  0  0  0  0  0  0  0  0  0  0
  189.4900  174.3210  136.7040 C   0  0  0  0  0  1  0  0  0  0  0  0
  1  7  1  0  0  0  0
  2  8  2  0  0  0  0
  2 25  1  0  0  0  0
  3 26  1  6  0  0  0
  3 23  1  0  0  0  0
  4 12  1  6  0  0  0
  4 19  1  0  0  0  0
  4  3  1  0  0  0  0
  7  5  1  0  0  0  0
  8 24  1  0  0  0  0
  9  6  1  0  0  0  0
  9 20  1  0  0  0  0
 10 17  1  0  0  0  0
 10 15  2  0  0  0  0
 11 16  1  0  0  0  0
 11 22  1  0  0  0  0
 14 20  1  0  0  0  0
 14 13  1  0  0  0  0
 15 16  1  0  0  0  0
 16  9  2  0  0  0  0
 17 11  2  0  0  0  0
 19 18  1  6  0  0  0
 19  2  1  0  0  0  0
 20 25  1  0  0  0  0
 21 15  1  0  0  0  0
 22 14  2  0  0  0  0
 23 13  1  0  0  0  0
 24 30  1  0  0  0  0
 24  7  2  0  0  0  0
 25  1  2  0  0  0  0
 26 27  1  6  0  0  0
 28 26  1  0  0  0  0
 29 30  2  0  0  0  0
 30 31  1  0  0  0  0
 32 10  1  0  0  0  0
 32 33  1  0  0  0  0
M  END
>  <MODEL>
9

>  <REMARK>
 VINA RESULT:      -4.4      3.538      4.929
  Name = 
  3 active torsions:
  status: ('A' for Active; 'I' for Inactive)
    1  A    between atoms: C_3  and  C_6
    2  A    between atoms: O_5  and  C_16
    3  A    between atoms: C_14  and  C_31
                            x       y       z     vdW  Elec       q    Type
                         _______ _______ _______ _____ _____    ______ ____

>  <TORSDO>
F 3

$$$$
