=
 OpenBabel11032421173D

 52 55  0  0  1  0  0  0  0  0999 V2000
  181.4500  177.2420  137.2290 C   0  0  1  0  0  3  0  0  0  0  0  0
  186.0250  177.0520  137.0300 C   0  0  0  0  0  0  0  0  0  0  0  0
  185.7570  175.9070  135.1670 N   0  0  0  0  0  0  0  0  0  0  0  0
  181.1780  177.3080  135.7180 C   0  0  2  0  0  3  0  0  0  0  0  0
  182.8570  178.3510  138.9920 C   0  0  2  0  0  3  0  0  0  0  0  0
  183.7590  179.5640  139.1980 C   0  0  0  0  0  2  0  0  0  0  0  0
  182.4610  177.4520  134.9090 C   0  0  0  0  0  2  0  0  0  0  0  0
  186.6440  177.7020  138.1970 C   0  0  0  0  0  0  0  0  0  0  0  0
  184.7110  177.1050  136.7620 N   0  0  0  0  0  0  0  0  0  0  0  0
  184.5910  176.4100  135.6170 C   0  0  0  0  0  0  0  0  0  0  0  0
  186.6790  176.3180  136.0610 C   0  0  0  0  0  2  0  0  0  0  0  0
  180.3140  178.3640  135.4120 O   0  0  0  0  0  1  0  0  0  0  0  0
  185.0950  179.1500  139.7280 C   0  0  0  0  0  3  0  0  0  0  0  0
  181.9050  178.5780  137.8220 C   0  0  0  0  0  2  0  0  0  0  0  0
  183.2810  176.1700  134.9470 C   0  0  0  0  0  2  0  0  0  0  0  0
  185.8940  178.4290  138.9880 C   0  0  0  0  0  0  0  0  0  0  0  0
  182.1210  178.0070  140.2580 C   0  0  0  0  0  0  0  0  0  0  0  0
  182.1050  176.8170  140.6700 O   0  0  0  0  0  0  0  0  0  0  0  0
  180.0430  179.0810  141.0430 C   0  0  0  0  0  1  0  0  0  0  0  0
  181.4600  178.9920  140.9950 O   0  0  0  0  0  0  0  0  0  0  0  0
  180.2640  176.6500  137.9970 C   0  0  0  0  0  2  0  0  0  0  0  0
  180.5700  175.3920  138.5280 O   0  0  0  0  0  0  0  0  0  0  0  0
  181.5550  174.8680  137.6910 C   0  0  0  0  0  2  0  0  0  0  0  0
  180.9280  173.4440  136.8210 S   0  0  0  0  0  0  0  0  0  0  0  0
  179.8500  173.8820  135.8700 O   0  0  0  0  0  0  0  0  0  0  0  0
  180.3600  172.4610  137.8050 O   0  0  0  0  0  0  0  0  0  0  0  0
  182.2280  172.7080  135.9440 N   0  0  0  0  0  2  0  0  0  0  0  0
  183.0540  171.9800  136.8940 C   0  0  1  0  0  3  0  0  0  0  0  0
  185.4470  171.9660  136.0560 C   0  0  0  0  0  0  0  0  0  0  0  0
  183.4840  170.6480  136.2830 C   0  0  0  0  0  2  0  0  0  0  0  0
  186.7620  172.4110  135.5020 C   0  0  0  0  0  1  0  0  0  0  0  0
  184.5580  172.9520  137.2500 S   0  0  0  0  0  0  0  0  0  0  0  0
  185.4020  169.8850  134.6940 C   0  0  0  0  0  1  0  0  0  0  0  0
  184.8220  170.8630  135.6680 C   0  0  0  0  0  0  0  0  0  0  0  0
  188.0540  177.5940  138.4160 N   0  0  0  0  0  2  0  0  0  0  0  0
  189.6180  177.2600  140.2850 C   0  0  0  0  0  0  0  0  0  0  0  0
  188.6570  178.0550  139.5950 N   0  0  0  0  0  2  0  0  0  0  0  0
  190.1260  177.7110  141.5390 N   0  0  0  0  0  2  0  0  0  0  0  0
  190.0240  176.1750  139.7800 O   0  0  0  0  0  0  0  0  0  0  0  0
  191.1930  177.0120  142.2360 C   0  0  0  0  0  2  0  0  0  0  0  0
  191.3640  177.5980  143.6280 C   0  0  0  0  0  2  0  0  0  0  0  0
  190.2880  177.1290  144.6080 C   0  0  1  0  0  3  0  0  0  0  0  0
  192.0770  177.0240  146.2300 O   0  0  0  0  0  1  0  0  0  0  0  0
  190.8570  176.4550  145.8570 C   0  0  0  0  0  2  0  0  0  0  0  0
  189.2790  178.2250  144.9480 C   0  0  0  0  0  2  0  0  0  0  0  0
  186.4900  178.5550  146.9450 C   0  0  0  0  0  2  0  0  0  0  0  0
  185.5260  177.8760  146.1420 C   0  0  0  0  0  2  0  0  0  0  0  0
  187.8830  177.7600  144.6840 C   0  0  0  0  0  0  0  0  0  0  0  0
  186.9500  177.9850  145.6050 C   0  0  0  0  0  0  0  0  0  0  0  0
  187.5530  177.0250  143.4520 C   0  0  0  0  0  0  0  0  0  0  0  0
  187.9100  175.8240  143.3090 O   0  0  0  0  0  1  0  0  0  0  0  0
  186.8440  177.6440  142.4340 O   0  0  0  0  0  0  0  0  0  0  0  0
  1 14  1  0  0  0  0
  1 21  1  1  0  0  0
  2  8  1  0  0  0  0
  3 10  2  0  0  0  0
  3 11  1  0  0  0  0
  4 12  1  1  0  0  0
  4  1  1  0  0  0  0
  5  6  1  0  0  0  0
  5 17  1  1  0  0  0
  6 13  1  0  0  0  0
  7 15  1  0  0  0  0
  7  4  1  0  0  0  0
  8 35  1  0  0  0  0
  8 16  2  0  0  0  0
  9  2  2  0  0  0  0
 10  9  1  0  0  0  0
 11  2  1  0  0  0  0
 14  5  1  0  0  0  0
 15 10  1  0  0  0  0
 16 13  2  0  0  0  0
 17 18  2  0  0  0  0
 17 20  1  0  0  0  0
 20 19  1  0  0  0  0
 21 22  1  0  0  0  0
 23 22  1  0  0  0  0
 24 23  1  0  0  0  0
 24 26  2  0  0  0  0
 25 24  2  0  0  0  0
 27 24  1  0  0  0  0
 28 27  1  6  0  0  0
 28 32  1  0  0  0  0
 29 32  1  0  0  0  0
 30 28  1  0  0  0  0
 31 29  1  0  0  0  0
 33 34  1  0  0  0  0
 34 29  2  0  0  0  0
 34 30  1  0  0  0  0
 35 37  1  0  0  0  0
 36 38  1  0  0  0  0
 37 36  1  0  0  0  0
 38 40  1  0  0  0  0
 39 36  2  0  0  0  0
 40 41  1  0  0  0  0
 42 41  1  1  0  0  0
 42 45  1  0  0  0  0
 42 44  1  0  0  0  0
 44 43  1  0  0  0  0
 47 46  1  0  0  0  0
 48 45  1  0  0  0  0
 48 49  2  0  0  0  0
 49 47  1  0  0  0  0
 49 46  1  0  0  0  0
 50 48  1  0  0  0  0
 51 50  1  0  0  0  0
 52 50  2  0  0  0  0
M  END
>  <MODEL>
1

>  <REMARK>
 VINA RESULT:      -6.9      0.000      0.000
  Name = 
  17 active torsions:
  status: ('A' for Active; 'I' for Inactive)
    1  A    between atoms: C_1  and  N_22
    2  A    between atoms: C_1  and  C_49
    3  A    between atoms: C_2  and  N_14
    4  A    between atoms: O_4  and  C_11
    5  A    between atoms: O_4  and  C_35
    6  A    between atoms: N_5  and  N_18
    7  A    between atoms: N_5  and  C_36
    8  A    between atoms: S_6  and  N_14
    9  A    between atoms: S_6  and  C_35
   10  A    between atoms: C_8  and  C_28
   11  A    between atoms: C_8  and  C_31
   12  A    between atoms: C_10  and  C_28
   13  A    between atoms: C_11  and  C_12
   14  A    between atoms: C_26  and  C_30
   15  A    between atoms: C_26  and  O_45
   16  A    between atoms: C_31  and  C_44
   17  A    between atoms: C_31  and  C_49
                            x       y       z     vdW  Elec       q    Type
                         _______ _______ _______ _____ _____    ______ ____

>  <TORSDO>
F 17

$$$$
=
 OpenBabel11032421173D

 52 55  0  0  1  0  0  0  0  0999 V2000
  188.0280  174.5970  136.0210 C   0  0  1  0  0  3  0  0  0  0  0  0
  183.4560  174.6860  136.3340 C   0  0  0  0  0  0  0  0  0  0  0  0
  183.5130  172.5620  135.7510 N   0  0  0  0  0  0  0  0  0  0  0  0
  188.2410  173.1490  136.4920 C   0  0  2  0  0  3  0  0  0  0  0  0
  186.8300  176.6980  136.7050 C   0  0  2  0  0  3  0  0  0  0  0  0
  186.0800  177.3010  137.8890 C   0  0  0  0  0  2  0  0  0  0  0  0
  186.9490  172.5090  136.9840 C   0  0  0  0  0  2  0  0  0  0  0  0
  182.9640  176.0310  136.6770 C   0  0  0  0  0  0  0  0  0  0  0  0
  184.7550  174.3490  136.3360 N   0  0  0  0  0  0  0  0  0  0  0  0
  184.7470  173.0490  135.9910 C   0  0  0  0  0  0  0  0  0  0  0  0
  182.6830  173.6010  135.9740 C   0  0  0  0  0  2  0  0  0  0  0  0
  189.2040  173.0900  137.5030 O   0  0  0  0  0  1  0  0  0  0  0  0
  184.7300  177.7900  137.4690 C   0  0  0  0  0  3  0  0  0  0  0  0
  187.7510  175.5730  137.1670 C   0  0  0  0  0  2  0  0  0  0  0  0
  185.9920  172.2450  135.8290 C   0  0  0  0  0  2  0  0  0  0  0  0
  183.8240  176.9370  137.0710 C   0  0  0  0  0  0  0  0  0  0  0  0
  187.5760  177.7590  135.9440 C   0  0  0  0  0  0  0  0  0  0  0  0
  187.0820  178.2380  134.8890 O   0  0  0  0  0  0  0  0  0  0  0  0
  188.9340  179.4360  137.1400 C   0  0  0  0  0  1  0  0  0  0  0  0
  188.8100  178.2340  136.3940 O   0  0  0  0  0  0  0  0  0  0  0  0
  189.1710  175.0780  135.1220 C   0  0  0  0  0  2  0  0  0  0  0  0
  190.4200  174.7000  135.6300 O   0  0  0  0  0  0  0  0  0  0  0  0
  191.0110  175.8830  136.0750 C   0  0  0  0  0  2  0  0  0  0  0  0
  191.9940  175.5680  137.5280 S   0  0  0  0  0  0  0  0  0  0  0  0
  193.0740  176.6100  137.6290 O   0  0  0  0  0  0  0  0  0  0  0  0
  192.6190  174.2050  137.4310 O   0  0  0  0  0  0  0  0  0  0  0  0
  190.9690  175.6440  138.9220 N   0  0  0  0  0  2  0  0  0  0  0  0
  190.8580  177.0370  139.3230 C   0  0  1  0  0  3  0  0  0  0  0  0
  190.9170  177.1710  141.8530 C   0  0  0  0  0  0  0  0  0  0  0  0
  189.4910  177.2820  139.9570 C   0  0  0  0  0  2  0  0  0  0  0  0
  191.3140  176.9610  143.2790 C   0  0  0  0  0  1  0  0  0  0  0  0
  192.1370  177.4060  140.5720 S   0  0  0  0  0  0  0  0  0  0  0  0
  188.4860  176.9700  142.3400 C   0  0  0  0  0  1  0  0  0  0  0  0
  189.6610  177.1340  141.4280 C   0  0  0  0  0  0  0  0  0  0  0  0
  181.5620  176.3130  136.6460 N   0  0  0  0  0  2  0  0  0  0  0  0
  180.4680  177.5030  138.5000 C   0  0  0  0  0  0  0  0  0  0  0  0
  181.0310  177.4910  137.1910 N   0  0  0  0  0  2  0  0  0  0  0  0
  179.8360  178.6900  138.9770 N   0  0  0  0  0  2  0  0  0  0  0  0
  180.5430  176.4760  139.2330 O   0  0  0  0  0  0  0  0  0  0  0  0
  179.3490  178.8100  140.3410 C   0  0  0  0  0  2  0  0  0  0  0  0
  180.0970  179.9230  141.0550 C   0  0  0  0  0  2  0  0  0  0  0  0
  180.8030  179.4470  142.3260 C   0  0  1  0  0  3  0  0  0  0  0  0
  179.7920  177.8260  143.8060 O   0  0  0  0  0  1  0  0  0  0  0  0
  179.8460  179.1850  143.4890 C   0  0  0  0  0  2  0  0  0  0  0  0
  181.7470  178.2740  142.0740 C   0  0  0  0  0  2  0  0  0  0  0  0
  183.4900  178.9330  144.9730 C   0  0  0  0  0  2  0  0  0  0  0  0
  184.7510  179.3170  144.4250 C   0  0  0  0  0  2  0  0  0  0  0  0
  183.1730  178.6970  142.2300 C   0  0  0  0  0  0  0  0  0  0  0  0
  183.6460  178.9100  143.4540 C   0  0  0  0  0  0  0  0  0  0  0  0
  184.0250  178.9220  141.0500 C   0  0  0  0  0  0  0  0  0  0  0  0
  183.5290  179.3600  139.9770 O   0  0  0  0  0  0  0  0  0  0  0  0
  185.3850  178.6580  141.1060 O   0  0  0  0  0  1  0  0  0  0  0  0
  1 21  1  1  0  0  0
  1  4  1  0  0  0  0
  1 14  1  0  0  0  0
  2  9  2  0  0  0  0
  2  8  1  0  0  0  0
  3 11  1  0  0  0  0
  3 10  2  0  0  0  0
  4  7  1  0  0  0  0
  4 12  1  1  0  0  0
  5 17  1  1  0  0  0
  5 14  1  0  0  0  0
  5  6  1  0  0  0  0
  8 16  2  0  0  0  0
 10  9  1  0  0  0  0
 11  2  1  0  0  0  0
 13  6  1  0  0  0  0
 15 10  1  0  0  0  0
 15  7  1  0  0  0  0
 16 13  2  0  0  0  0
 17 20  1  0  0  0  0
 18 17  2  0  0  0  0
 20 19  1  0  0  0  0
 21 22  1  0  0  0  0
 22 23  1  0  0  0  0
 23 24  1  0  0  0  0
 24 25  2  0  0  0  0
 24 27  1  0  0  0  0
 26 24  2  0  0  0  0
 28 27  1  1  0  0  0
 28 30  1  0  0  0  0
 28 32  1  0  0  0  0
 29 31  1  0  0  0  0
 30 34  1  0  0  0  0
 32 29  1  0  0  0  0
 34 29  2  0  0  0  0
 34 33  1  0  0  0  0
 35  8  1  0  0  0  0
 35 37  1  0  0  0  0
 36 38  1  0  0  0  0
 36 39  2  0  0  0  0
 37 36  1  0  0  0  0
 38 40  1  0  0  0  0
 40 41  1  0  0  0  0
 42 41  1  6  0  0  0
 42 44  1  0  0  0  0
 44 43  1  0  0  0  0
 45 48  1  0  0  0  0
 45 42  1  0  0  0  0
 47 46  1  0  0  0  0
 48 49  2  0  0  0  0
 49 47  1  0  0  0  0
 49 46  1  0  0  0  0
 50 52  1  0  0  0  0
 50 48  1  0  0  0  0
 51 50  2  0  0  0  0
M  END
>  <MODEL>
2

>  <REMARK>
 VINA RESULT:      -6.8      3.233      8.295
  Name = 
  17 active torsions:
  status: ('A' for Active; 'I' for Inactive)
    1  A    between atoms: C_1  and  N_22
    2  A    between atoms: C_1  and  C_49
    3  A    between atoms: C_2  and  N_14
    4  A    between atoms: O_4  and  C_11
    5  A    between atoms: O_4  and  C_35
    6  A    between atoms: N_5  and  N_18
    7  A    between atoms: N_5  and  C_36
    8  A    between atoms: S_6  and  N_14
    9  A    between atoms: S_6  and  C_35
   10  A    between atoms: C_8  and  C_28
   11  A    between atoms: C_8  and  C_31
   12  A    between atoms: C_10  and  C_28
   13  A    between atoms: C_11  and  C_12
   14  A    between atoms: C_26  and  C_30
   15  A    between atoms: C_26  and  O_45
   16  A    between atoms: C_31  and  C_44
   17  A    between atoms: C_31  and  C_49
                            x       y       z     vdW  Elec       q    Type
                         _______ _______ _______ _____ _____    ______ ____

>  <TORSDO>
F 17

$$$$
=
 OpenBabel11032421173D

 52 55  0  0  1  0  0  0  0  0999 V2000
  187.2900  175.9760  136.2010 C   0  0  1  0  0  3  0  0  0  0  0  0
  184.5800  178.1320  139.2040 C   0  0  0  0  0  0  0  0  0  0  0  0
  182.8910  177.4020  137.9920 N   0  0  0  0  0  0  0  0  0  0  0  0
  186.3590  174.7940  135.8910 C   0  0  2  0  0  3  0  0  0  0  0  0
  188.2710  177.2040  138.1630 C   0  0  2  0  0  3  0  0  0  0  0  0
  188.4300  177.0840  139.6750 C   0  0  0  0  0  2  0  0  0  0  0  0
  185.1280  174.7810  136.7890 C   0  0  0  0  0  2  0  0  0  0  0  0
  185.3650  178.8420  140.2260 C   0  0  0  0  0  0  0  0  0  0  0  0
  185.1200  177.2960  138.3040 N   0  0  0  0  0  0  0  0  0  0  0  0
  184.0610  176.8630  137.5970 C   0  0  0  0  0  0  0  0  0  0  0  0
  183.2140  178.2090  139.0230 C   0  0  0  0  0  2  0  0  0  0  0  0
  187.0380  173.5790  136.0130 O   0  0  0  0  0  1  0  0  0  0  0  0
  187.9220  178.3120  140.3620 C   0  0  0  0  0  3  0  0  0  0  0  0
  188.0250  175.8350  137.5360 C   0  0  0  0  0  2  0  0  0  0  0  0
  184.1830  175.9240  136.4440 C   0  0  0  0  0  2  0  0  0  0  0  0
  186.6500  178.6050  140.3160 C   0  0  0  0  0  0  0  0  0  0  0  0
  189.4560  177.8980  137.5510 C   0  0  0  0  0  0  0  0  0  0  0  0
  189.3680  179.1090  137.2130 O   0  0  0  0  0  0  0  0  0  0  0  0
  191.4680  176.7830  138.4430 C   0  0  0  0  0  1  0  0  0  0  0  0
  190.6640  177.2250  137.3590 O   0  0  0  0  0  0  0  0  0  0  0  0
  188.2530  176.2630  135.0440 C   0  0  0  0  0  2  0  0  0  0  0  0
  188.8810  175.0950  134.5950 O   0  0  0  0  0  0  0  0  0  0  0  0
  190.2490  175.3610  134.6670 C   0  0  0  0  0  2  0  0  0  0  0  0
  191.1010  173.9960  135.4340 S   0  0  0  0  0  0  0  0  0  0  0  0
  190.8960  172.7590  134.6050 O   0  0  0  0  0  0  0  0  0  0  0  0
  190.5540  173.7720  136.8150 O   0  0  0  0  0  0  0  0  0  0  0  0
  192.7890  174.3730  135.5260 N   0  0  0  0  0  2  0  0  0  0  0  0
  193.4160  173.4060  136.4130 C   0  0  1  0  0  3  0  0  0  0  0  0
  195.8670  173.9980  136.6690 C   0  0  0  0  0  0  0  0  0  0  0  0
  194.3530  172.5060  135.6100 C   0  0  0  0  0  2  0  0  0  0  0  0
  197.1280  174.7720  136.8870 C   0  0  0  0  0  1  0  0  0  0  0  0
  194.4120  174.2920  137.6600 S   0  0  0  0  0  0  0  0  0  0  0  0
  196.8150  172.6880  134.7790 C   0  0  0  0  0  1  0  0  0  0  0  0
  195.7150  173.1000  135.7060 C   0  0  0  0  0  0  0  0  0  0  0  0
  184.7150  179.7230  141.1480 N   0  0  0  0  0  2  0  0  0  0  0  0
  184.9990  179.0090  143.4850 C   0  0  0  0  0  0  0  0  0  0  0  0
  185.2190  179.9490  142.4370 N   0  0  0  0  0  2  0  0  0  0  0  0
  185.4280  179.3250  144.8080 N   0  0  0  0  0  2  0  0  0  0  0  0
  184.4440  177.9010  143.2370 O   0  0  0  0  0  0  0  0  0  0  0  0
  185.3450  178.3650  145.8970 C   0  0  0  0  0  2  0  0  0  0  0  0
  186.2070  178.8320  147.0570 C   0  0  0  0  0  2  0  0  0  0  0  0
  187.5260  178.0650  147.1660 C   0  0  1  0  0  3  0  0  0  0  0  0
  188.8710  178.4790  149.1310 O   0  0  0  0  0  1  0  0  0  0  0  0
  187.8750  177.6580  148.5970 C   0  0  0  0  0  2  0  0  0  0  0  0
  187.6100  176.8920  146.1910 C   0  0  0  0  0  2  0  0  0  0  0  0
  190.9630  176.6810  146.9580 C   0  0  0  0  0  2  0  0  0  0  0  0
  191.5310  176.9570  145.6780 C   0  0  0  0  0  2  0  0  0  0  0  0
  188.7870  177.0420  145.2800 C   0  0  0  0  0  0  0  0  0  0  0  0
  190.0090  176.9320  145.7930 C   0  0  0  0  0  0  0  0  0  0  0  0
  188.6000  177.3540  143.8530 C   0  0  0  0  0  0  0  0  0  0  0  0
  187.7180  176.7580  143.1790 O   0  0  0  0  0  0  0  0  0  0  0  0
  189.3910  178.3110  143.2360 O   0  0  0  0  0  1  0  0  0  0  0  0
  1 21  1  6  0  0  0
  1 14  1  0  0  0  0
  2  8  1  0  0  0  0
  3 11  1  0  0  0  0
  4 12  1  1  0  0  0
  4  1  1  0  0  0  0
  4  7  1  0  0  0  0
  5 17  1  6  0  0  0
  5  6  1  0  0  0  0
  6 13  1  0  0  0  0
  8 16  2  0  0  0  0
  8 35  1  0  0  0  0
  9  2  2  0  0  0  0
 10  3  2  0  0  0  0
 10  9  1  0  0  0  0
 11  2  1  0  0  0  0
 14  5  1  0  0  0  0
 15  7  1  0  0  0  0
 15 10  1  0  0  0  0
 16 13  2  0  0  0  0
 18 17  2  0  0  0  0
 20 17  1  0  0  0  0
 20 19  1  0  0  0  0
 22 23  1  0  0  0  0
 22 21  1  0  0  0  0
 23 24  1  0  0  0  0
 24 27  1  0  0  0  0
 24 26  2  0  0  0  0
 25 24  2  0  0  0  0
 28 27  1  6  0  0  0
 28 32  1  0  0  0  0
 29 31  1  0  0  0  0
 29 32  1  0  0  0  0
 30 34  1  0  0  0  0
 30 28  1  0  0  0  0
 33 34  1  0  0  0  0
 34 29  2  0  0  0  0
 35 37  1  0  0  0  0
 36 38  1  0  0  0  0
 37 36  1  0  0  0  0
 38 40  1  0  0  0  0
 39 36  2  0  0  0  0
 40 41  1  0  0  0  0
 41 42  1  0  0  0  0
 42 45  1  6  0  0  0
 42 44  1  0  0  0  0
 44 43  1  0  0  0  0
 47 49  1  0  0  0  0
 47 46  1  0  0  0  0
 48 49  2  0  0  0  0
 48 45  1  0  0  0  0
 49 46  1  0  0  0  0
 50 48  1  0  0  0  0
 51 50  2  0  0  0  0
 52 50  1  0  0  0  0
M  END
>  <MODEL>
3

>  <REMARK>
 VINA RESULT:      -6.6      4.262      7.104
  Name = 
  17 active torsions:
  status: ('A' for Active; 'I' for Inactive)
    1  A    between atoms: C_1  and  N_22
    2  A    between atoms: C_1  and  C_49
    3  A    between atoms: C_2  and  N_14
    4  A    between atoms: O_4  and  C_11
    5  A    between atoms: O_4  and  C_35
    6  A    between atoms: N_5  and  N_18
    7  A    between atoms: N_5  and  C_36
    8  A    between atoms: S_6  and  N_14
    9  A    between atoms: S_6  and  C_35
   10  A    between atoms: C_8  and  C_28
   11  A    between atoms: C_8  and  C_31
   12  A    between atoms: C_10  and  C_28
   13  A    between atoms: C_11  and  C_12
   14  A    between atoms: C_26  and  C_30
   15  A    between atoms: C_26  and  O_45
   16  A    between atoms: C_31  and  C_44
   17  A    between atoms: C_31  and  C_49
                            x       y       z     vdW  Elec       q    Type
                         _______ _______ _______ _____ _____    ______ ____

>  <TORSDO>
F 17

$$$$
=
 OpenBabel11032421173D

 52 55  0  0  1  0  0  0  0  0999 V2000
  189.0480  177.4270  140.7990 C   0  0  1  0  0  3  0  0  0  0  0  0
  185.6530  177.8600  137.7480 C   0  0  0  0  0  0  0  0  0  0  0  0
  184.3530  178.3150  139.4690 N   0  0  0  0  0  0  0  0  0  0  0  0
  188.5740  178.5000  141.7920 C   0  0  2  0  0  3  0  0  0  0  0  0
  189.4840  177.1230  138.3420 C   0  0  2  0  0  3  0  0  0  0  0  0
  189.6100  177.9290  137.0530 C   0  0  0  0  0  2  0  0  0  0  0  0
  187.3800  179.2860  141.2630 C   0  0  0  0  0  2  0  0  0  0  0  0
  186.1150  177.5690  136.3820 C   0  0  0  0  0  0  0  0  0  0  0  0
  186.4770  177.9610  138.8040 N   0  0  0  0  0  0  0  0  0  0  0  0
  185.6510  178.2510  139.8250 C   0  0  0  0  0  0  0  0  0  0  0  0
  184.3470  178.0720  138.1420 C   0  0  0  0  0  2  0  0  0  0  0  0
  189.6110  179.3840  142.1040 O   0  0  0  0  0  1  0  0  0  0  0  0
  188.6960  177.3900  135.9980 C   0  0  0  0  0  3  0  0  0  0  0  0
  189.7320  178.0100  139.5580 C   0  0  0  0  0  2  0  0  0  0  0  0
  186.1260  178.4230  141.2280 C   0  0  0  0  0  2  0  0  0  0  0  0
  187.4020  177.4660  136.1570 C   0  0  0  0  0  0  0  0  0  0  0  0
  190.3980  175.9290  138.3200 C   0  0  0  0  0  0  0  0  0  0  0  0
  191.6070  176.0580  138.6500 O   0  0  0  0  0  0  0  0  0  0  0  0
  190.3760  174.0040  136.7770 C   0  0  0  0  0  1  0  0  0  0  0  0
  189.9260  174.6680  137.9490 O   0  0  0  0  0  0  0  0  0  0  0  0
  189.9100  176.3600  141.4800 C   0  0  0  0  0  2  0  0  0  0  0  0
  190.9070  176.9350  142.2770 O   0  0  0  0  0  0  0  0  0  0  0  0
  190.7930  176.3080  143.5190 C   0  0  0  0  0  2  0  0  0  0  0  0
  191.0860  177.4810  144.8280 S   0  0  0  0  0  0  0  0  0  0  0  0
  192.0350  178.5400  144.3390 O   0  0  0  0  0  0  0  0  0  0  0  0
  191.6870  176.7770  146.0120 O   0  0  0  0  0  0  0  0  0  0  0  0
  189.5770  178.2020  145.2800 N   0  0  0  0  0  2  0  0  0  0  0  0
  188.6740  177.1350  145.6810 C   0  0  1  0  0  3  0  0  0  0  0  0
  186.2850  177.9380  145.4060 C   0  0  0  0  0  0  0  0  0  0  0  0
  187.9950  177.5070  146.9980 C   0  0  0  0  0  2  0  0  0  0  0  0
  185.0480  178.5490  144.8310 C   0  0  0  0  0  1  0  0  0  0  0  0
  187.3780  176.9370  144.4110 S   0  0  0  0  0  0  0  0  0  0  0  0
  185.9140  178.9280  147.6580 C   0  0  0  0  0  1  0  0  0  0  0  0
  186.6920  178.1390  146.6520 C   0  0  0  0  0  0  0  0  0  0  0  0
  185.1720  177.4720  135.3100 N   0  0  0  0  0  2  0  0  0  0  0  0
  183.0860  176.1900  135.0800 C   0  0  0  0  0  0  0  0  0  0  0  0
  184.5070  176.2740  135.0150 N   0  0  0  0  0  2  0  0  0  0  0  0
  182.4520  174.9270  134.8840 N   0  0  0  0  0  2  0  0  0  0  0  0
  182.3980  177.2280  135.2930 O   0  0  0  0  0  0  0  0  0  0  0  0
  181.0060  174.7920  134.8170 C   0  0  0  0  0  2  0  0  0  0  0  0
  180.5840  173.4890  135.4740 C   0  0  0  0  0  2  0  0  0  0  0  0
  181.2030  173.2920  136.8600 C   0  0  1  0  0  3  0  0  0  0  0  0
  181.1050  175.1320  138.4230 O   0  0  0  0  0  1  0  0  0  0  0  0
  180.4300  173.9950  137.9750 C   0  0  0  0  0  2  0  0  0  0  0  0
  181.4810  171.8240  137.1800 C   0  0  0  0  0  2  0  0  0  0  0  0
  184.6060  173.2380  137.5180 C   0  0  0  0  0  2  0  0  0  0  0  0
  185.3630  172.3780  136.6690 C   0  0  0  0  0  2  0  0  0  0  0  0
  182.7750  171.3850  136.5730 C   0  0  0  0  0  0  0  0  0  0  0  0
  183.8730  172.0890  136.8290 C   0  0  0  0  0  0  0  0  0  0  0  0
  182.8270  170.2240  135.6680 C   0  0  0  0  0  0  0  0  0  0  0  0
  183.9350  169.7570  135.2900 O   0  0  0  0  0  1  0  0  0  0  0  0
  181.6560  169.6280  135.2250 O   0  0  0  0  0  0  0  0  0  0  0  0
  1 21  1  1  0  0  0
  1  4  1  0  0  0  0
  2 11  1  0  0  0  0
  2  9  2  0  0  0  0
  3 10  2  0  0  0  0
  4 12  1  6  0  0  0
  5 17  1  6  0  0  0
  5 14  1  0  0  0  0
  6  5  1  0  0  0  0
  7  4  1  0  0  0  0
  8  2  1  0  0  0  0
  9 10  1  0  0  0  0
 10 15  1  0  0  0  0
 11  3  1  0  0  0  0
 13 16  2  0  0  0  0
 13  6  1  0  0  0  0
 14  1  1  0  0  0  0
 15  7  1  0  0  0  0
 16  8  2  0  0  0  0
 17 18  2  0  0  0  0
 19 20  1  0  0  0  0
 20 17  1  0  0  0  0
 21 22  1  0  0  0  0
 22 23  1  0  0  0  0
 23 24  1  0  0  0  0
 24 27  1  0  0  0  0
 24 26  2  0  0  0  0
 25 24  2  0  0  0  0
 28 27  1  6  0  0  0
 28 30  1  0  0  0  0
 29 34  2  0  0  0  0
 31 29  1  0  0  0  0
 32 29  1  0  0  0  0
 32 28  1  0  0  0  0
 34 30  1  0  0  0  0
 34 33  1  0  0  0  0
 35  8  1  0  0  0  0
 36 39  2  0  0  0  0
 37 36  1  0  0  0  0
 37 35  1  0  0  0  0
 38 36  1  0  0  0  0
 40 38  1  0  0  0  0
 40 41  1  0  0  0  0
 42 41  1  6  0  0  0
 42 45  1  0  0  0  0
 42 44  1  0  0  0  0
 44 43  1  0  0  0  0
 47 49  1  0  0  0  0
 47 46  1  0  0  0  0
 48 49  2  0  0  0  0
 48 45  1  0  0  0  0
 49 46  1  0  0  0  0
 50 48  1  0  0  0  0
 51 50  1  0  0  0  0
 52 50  2  0  0  0  0
M  END
>  <MODEL>
4

>  <REMARK>
 VINA RESULT:      -6.4      2.866     10.365
  Name = 
  17 active torsions:
  status: ('A' for Active; 'I' for Inactive)
    1  A    between atoms: C_1  and  N_22
    2  A    between atoms: C_1  and  C_49
    3  A    between atoms: C_2  and  N_14
    4  A    between atoms: O_4  and  C_11
    5  A    between atoms: O_4  and  C_35
    6  A    between atoms: N_5  and  N_18
    7  A    between atoms: N_5  and  C_36
    8  A    between atoms: S_6  and  N_14
    9  A    between atoms: S_6  and  C_35
   10  A    between atoms: C_8  and  C_28
   11  A    between atoms: C_8  and  C_31
   12  A    between atoms: C_10  and  C_28
   13  A    between atoms: C_11  and  C_12
   14  A    between atoms: C_26  and  C_30
   15  A    between atoms: C_26  and  O_45
   16  A    between atoms: C_31  and  C_44
   17  A    between atoms: C_31  and  C_49
                            x       y       z     vdW  Elec       q    Type
                         _______ _______ _______ _____ _____    ______ ____

>  <TORSDO>
F 17

$$$$
=
 OpenBabel11032421173D

 52 55  0  0  1  0  0  0  0  0999 V2000
  187.4340  177.7210  141.4360 C   0  0  1  0  0  3  0  0  0  0  0  0
  189.1410  175.9940  137.5480 C   0  0  0  0  0  0  0  0  0  0  0  0
  187.0820  176.0850  136.7680 N   0  0  0  0  0  0  0  0  0  0  0  0
  186.3440  178.6050  140.8110 C   0  0  2  0  0  3  0  0  0  0  0  0
  189.8900  177.2320  141.2200 C   0  0  2  0  0  3  0  0  0  0  0  0
  191.1480  177.7670  140.5430 C   0  0  0  0  0  2  0  0  0  0  0  0
  186.4370  178.6430  139.2900 C   0  0  0  0  0  2  0  0  0  0  0  0
  190.5820  175.7180  137.6670 C   0  0  0  0  0  0  0  0  0  0  0  0
  188.4320  176.6460  138.4820 N   0  0  0  0  0  0  0  0  0  0  0  0
  187.1910  176.6930  137.9650 C   0  0  0  0  0  0  0  0  0  0  0  0
  188.3250  175.6410  136.4920 C   0  0  0  0  0  2  0  0  0  0  0  0
  186.4090  179.9080  141.3130 O   0  0  0  0  0  1  0  0  0  0  0  0
  191.8240  176.6920  139.7520 C   0  0  0  0  0  3  0  0  0  0  0  0
  188.8360  178.3280  141.3410 C   0  0  0  0  0  2  0  0  0  0  0  0
  186.0360  177.3060  138.6820 C   0  0  0  0  0  2  0  0  0  0  0  0
  191.2320  176.1860  138.7030 C   0  0  0  0  0  0  0  0  0  0  0  0
  190.2160  176.6140  142.5510 C   0  0  0  0  0  0  0  0  0  0  0  0
  190.2520  175.3600  142.6690 O   0  0  0  0  0  0  0  0  0  0  0  0
  190.4050  176.9130  144.9930 C   0  0  0  0  0  1  0  0  0  0  0  0
  190.4920  177.4100  143.6650 O   0  0  0  0  0  0  0  0  0  0  0  0
  187.0830  177.3110  142.8700 C   0  0  0  0  0  2  0  0  0  0  0  0
  185.7330  177.5450  143.1570 O   0  0  0  0  0  0  0  0  0  0  0  0
  185.7240  178.1780  144.4010 C   0  0  0  0  0  2  0  0  0  0  0  0
  184.1790  179.0320  144.6440 S   0  0  0  0  0  0  0  0  0  0  0  0
  184.3320  180.4630  144.2090 O   0  0  0  0  0  0  0  0  0  0  0  0
  183.8010  178.9880  146.0980 O   0  0  0  0  0  0  0  0  0  0  0  0
  182.9560  178.2540  143.6970 N   0  0  0  0  0  2  0  0  0  0  0  0
  182.5300  179.1850  142.6630 C   0  0  1  0  0  3  0  0  0  0  0  0
  180.5400  178.1990  141.4410 C   0  0  0  0  0  0  0  0  0  0  0  0
  182.8730  178.6140  141.2880 C   0  0  0  0  0  2  0  0  0  0  0  0
  179.2270  177.5410  141.1620 C   0  0  0  0  0  1  0  0  0  0  0  0
  180.7200  179.3960  142.7530 S   0  0  0  0  0  0  0  0  0  0  0  0
  181.7260  176.9460  139.6500 C   0  0  0  0  0  1  0  0  0  0  0  0
  181.6600  177.9060  140.7960 C   0  0  0  0  0  0  0  0  0  0  0  0
  191.2660  175.0110  136.6280 N   0  0  0  0  0  0  0  0  0  0  0  0
  192.6370  173.1320  135.8290 C   0  0  0  0  0  0  0  0  0  0  0  0
  191.9200  173.7950  136.8670 N   0  0  0  0  0  0  0  0  0  0  0  0
  193.1940  171.8420  136.0780 N   0  0  0  0  0  2  0  0  0  0  0  0
  192.7890  173.6910  134.7060 O   0  0  0  0  0  0  0  0  0  0  0  0
  194.0370  171.1650  135.1070 C   0  0  0  0  0  2  0  0  0  0  0  0
  195.4940  171.5070  135.3680 C   0  0  0  0  0  2  0  0  0  0  0  0
  195.8430  171.5310  136.8570 C   0  0  1  0  0  3  0  0  0  0  0  0
  194.9470  169.8060  138.2940 O   0  0  0  0  0  1  0  0  0  0  0  0
  196.0180  170.1380  137.4620 C   0  0  0  0  0  2  0  0  0  0  0  0
  197.0170  172.4540  137.1740 C   0  0  0  0  0  2  0  0  0  0  0  0
  197.9160  174.9230  134.9430 C   0  0  0  0  0  2  0  0  0  0  0  0
  197.2070  176.0310  135.4970 C   0  0  0  0  0  2  0  0  0  0  0  0
  196.5880  173.8870  137.1450 C   0  0  0  0  0  0  0  0  0  0  0  0
  197.0700  174.6780  136.1910 C   0  0  0  0  0  0  0  0  0  0  0  0
  195.6890  174.4250  138.1800 C   0  0  0  0  0  0  0  0  0  0  0  0
  194.7450  175.1980  137.8660 O   0  0  0  0  0  0  0  0  0  0  0  0
  195.8700  174.0860  139.5110 O   0  0  0  0  0  1  0  0  0  0  0  0
  1 21  1  1  0  0  0
  2  8  1  0  0  0  0
  2  9  2  0  0  0  0
  3 10  2  0  0  0  0
  4 12  1  1  0  0  0
  4  1  1  0  0  0  0
  5 14  1  0  0  0  0
  5 17  1  1  0  0  0
  6  5  1  0  0  0  0
  7  4  1  0  0  0  0
  8 16  2  0  0  0  0
 10  9  1  0  0  0  0
 10 15  1  0  0  0  0
 11  3  1  0  0  0  0
 11  2  1  0  0  0  0
 13  6  1  0  0  0  0
 14  1  1  0  0  0  0
 15  7  1  0  0  0  0
 16 13  2  0  0  0  0
 17 18  2  0  0  0  0
 17 20  1  0  0  0  0
 20 19  1  0  0  0  0
 21 22  1  0  0  0  0
 22 23  1  0  0  0  0
 23 24  1  0  0  0  0
 24 26  2  0  0  0  0
 25 24  2  0  0  0  0
 27 24  1  0  0  0  0
 28 32  1  0  0  0  0
 28 27  1  1  0  0  0
 29 32  1  0  0  0  0
 30 28  1  0  0  0  0
 31 29  1  0  0  0  0
 33 34  1  0  0  0  0
 34 30  1  0  0  0  0
 34 29  2  0  0  0  0
 35 37  2  0  0  0  0
 35  8  1  0  0  0  0
 36 38  1  0  0  0  0
 36 37  1  0  0  0  0
 39 36  2  0  0  0  0
 40 41  1  0  0  0  0
 40 38  1  0  0  0  0
 42 41  1  6  0  0  0
 42 45  1  0  0  0  0
 42 44  1  0  0  0  0
 44 43  1  0  0  0  0
 46 47  1  0  0  0  0
 46 49  1  0  0  0  0
 47 49  1  0  0  0  0
 48 45  1  0  0  0  0
 48 50  1  0  0  0  0
 49 48  2  0  0  0  0
 50 52  1  0  0  0  0
 51 50  2  0  0  0  0
M  END
>  <MODEL>
5

>  <REMARK>
 VINA RESULT:      -5.8      5.251      9.158
  Name = 
  17 active torsions:
  status: ('A' for Active; 'I' for Inactive)
    1  A    between atoms: C_1  and  N_22
    2  A    between atoms: C_1  and  C_49
    3  A    between atoms: C_2  and  N_14
    4  A    between atoms: O_4  and  C_11
    5  A    between atoms: O_4  and  C_35
    6  A    between atoms: N_5  and  N_18
    7  A    between atoms: N_5  and  C_36
    8  A    between atoms: S_6  and  N_14
    9  A    between atoms: S_6  and  C_35
   10  A    between atoms: C_8  and  C_28
   11  A    between atoms: C_8  and  C_31
   12  A    between atoms: C_10  and  C_28
   13  A    between atoms: C_11  and  C_12
   14  A    between atoms: C_26  and  C_30
   15  A    between atoms: C_26  and  O_45
   16  A    between atoms: C_31  and  C_44
   17  A    between atoms: C_31  and  C_49
                            x       y       z     vdW  Elec       q    Type
                         _______ _______ _______ _____ _____    ______ ____

>  <TORSDO>
F 17

$$$$
=
 OpenBabel11032421173D

 52 55  0  0  1  0  0  0  0  0999 V2000
  184.0340  177.6800  137.8690 C   0  0  1  0  0  3  0  0  0  0  0  0
  188.2790  177.6780  139.5990 C   0  0  0  0  0  0  0  0  0  0  0  0
  187.5210  179.1110  141.0910 N   0  0  0  0  0  0  0  0  0  0  0  0
  183.2700  177.8630  139.1900 C   0  0  2  0  0  3  0  0  0  0  0  0
  185.8310  176.2440  136.8550 C   0  0  2  0  0  3  0  0  0  0  0  0
  186.6260  174.9720  137.1310 C   0  0  0  0  0  2  0  0  0  0  0  0
  184.1910  177.7850  140.4010 C   0  0  0  0  0  2  0  0  0  0  0  0
  189.1830  176.8260  138.8100 C   0  0  0  0  0  0  0  0  0  0  0  0
  186.9520  177.7310  139.4040 N   0  0  0  0  0  0  0  0  0  0  0  0
  186.5280  178.6000  140.3380 C   0  0  0  0  0  0  0  0  0  0  0  0
  188.6420  178.5220  140.6290 C   0  0  0  0  0  2  0  0  0  0  0  0
  182.2550  176.9110  139.3150 O   0  0  0  0  0  1  0  0  0  0  0  0
  188.0970  175.2340  137.0420 C   0  0  0  0  0  3  0  0  0  0  0  0
  184.5270  176.2480  137.6470 C   0  0  0  0  0  2  0  0  0  0  0  0
  185.0990  179.0050  140.4810 C   0  0  0  0  0  2  0  0  0  0  0  0
  188.6710  176.0220  137.9110 C   0  0  0  0  0  0  0  0  0  0  0  0
  185.5950  176.4220  135.3810 C   0  0  0  0  0  0  0  0  0  0  0  0
  184.6470  175.8120  134.8190 O   0  0  0  0  0  0  0  0  0  0  0  0
  186.9860  178.4470  135.1510 C   0  0  0  0  0  1  0  0  0  0  0  0
  186.4070  177.2640  134.6190 O   0  0  0  0  0  0  0  0  0  0  0  0
  183.2350  178.2020  136.6710 C   0  0  0  0  0  2  0  0  0  0  0  0
  181.8560  178.1200  136.8960 O   0  0  0  0  0  0  0  0  0  0  0  0
  181.3590  177.3310  135.8580 C   0  0  0  0  0  2  0  0  0  0  0  0
  179.9800  176.3590  136.4320 S   0  0  0  0  0  0  0  0  0  0  0  0
  178.9330  176.3020  135.3540 O   0  0  0  0  0  0  0  0  0  0  0  0
  179.3960  176.9880  137.6650 O   0  0  0  0  0  0  0  0  0  0  0  0
  180.5380  174.7600  136.7990 N   0  0  0  0  0  2  0  0  0  0  0  0
  181.1410  174.2100  135.5960 C   0  0  1  0  0  3  0  0  0  0  0  0
  180.8710  171.6890  135.6230 C   0  0  0  0  0  0  0  0  0  0  0  0
  182.4200  173.4580  135.9620 C   0  0  0  0  0  2  0  0  0  0  0  0
  180.2740  170.3250  135.7520 C   0  0  0  0  0  1  0  0  0  0  0  0
  179.9840  173.0220  134.8330 S   0  0  0  0  0  0  0  0  0  0  0  0
  182.9630  171.0560  136.8100 C   0  0  0  0  0  1  0  0  0  0  0  0
  182.0490  172.0260  136.1280 C   0  0  0  0  0  0  0  0  0  0  0  0
  190.5890  176.8300  139.0760 N   0  0  0  0  0  2  0  0  0  0  0  0
  191.2430  177.0130  141.4400 C   0  0  0  0  0  0  0  0  0  0  0  0
  191.1400  177.5690  140.1320 N   0  0  0  0  0  2  0  0  0  0  0  0
  191.7040  177.8320  142.5130 N   0  0  0  0  0  2  0  0  0  0  0  0
  190.9420  175.8010  141.6390 O   0  0  0  0  0  0  0  0  0  0  0  0
  191.9460  177.2970  143.8430 C   0  0  0  0  0  2  0  0  0  0  0  0
  191.1210  178.0660  144.8610 C   0  0  0  0  0  2  0  0  0  0  0  0
  190.5220  177.1670  145.9440 C   0  0  1  0  0  3  0  0  0  0  0  0
  192.0500  176.7990  147.7800 O   0  0  0  0  0  1  0  0  0  0  0  0
  191.5470  176.2440  146.6010 C   0  0  0  0  0  2  0  0  0  0  0  0
  189.6980  177.9450  146.9690 C   0  0  0  0  0  2  0  0  0  0  0  0
  188.1110  177.0800  144.0340 C   0  0  0  0  0  2  0  0  0  0  0  0
  186.7510  177.1320  144.4610 C   0  0  0  0  0  2  0  0  0  0  0  0
  188.2350  177.7710  146.7160 C   0  0  0  0  0  0  0  0  0  0  0  0
  187.8330  177.4410  145.4920 C   0  0  0  0  0  0  0  0  0  0  0  0
  187.2520  178.0070  147.7870 C   0  0  0  0  0  0  0  0  0  0  0  0
  187.5220  177.7050  148.9800 O   0  0  0  0  0  1  0  0  0  0  0  0
  186.0180  178.5680  147.4950 O   0  0  0  0  0  0  0  0  0  0  0  0
  1 21  1  6  0  0  0
  1  4  1  0  0  0  0
  2 11  1  0  0  0  0
  4 12  1  1  0  0  0
  4  7  1  0  0  0  0
  5 17  1  6  0  0  0
  5  6  1  0  0  0  0
  5 14  1  0  0  0  0
  7 15  1  0  0  0  0
  8 35  1  0  0  0  0
  8  2  1  0  0  0  0
  9  2  2  0  0  0  0
  9 10  1  0  0  0  0
 10 15  1  0  0  0  0
 10  3  2  0  0  0  0
 11  3  1  0  0  0  0
 13  6  1  0  0  0  0
 13 16  2  0  0  0  0
 14  1  1  0  0  0  0
 16  8  2  0  0  0  0
 18 17  2  0  0  0  0
 20 19  1  0  0  0  0
 20 17  1  0  0  0  0
 21 22  1  0  0  0  0
 23 24  1  0  0  0  0
 23 22  1  0  0  0  0
 24 27  1  0  0  0  0
 24 26  2  0  0  0  0
 25 24  2  0  0  0  0
 28 30  1  0  0  0  0
 28 27  1  1  0  0  0
 29 31  1  0  0  0  0
 29 34  2  0  0  0  0
 30 34  1  0  0  0  0
 32 28  1  0  0  0  0
 32 29  1  0  0  0  0
 34 33  1  0  0  0  0
 35 37  1  0  0  0  0
 36 39  2  0  0  0  0
 36 38  1  0  0  0  0
 37 36  1  0  0  0  0
 38 40  1  0  0  0  0
 40 41  1  0  0  0  0
 42 41  1  6  0  0  0
 42 44  1  0  0  0  0
 42 45  1  0  0  0  0
 44 43  1  0  0  0  0
 46 47  1  0  0  0  0
 46 49  1  0  0  0  0
 47 49  1  0  0  0  0
 48 45  1  0  0  0  0
 48 50  1  0  0  0  0
 49 48  2  0  0  0  0
 50 51  1  0  0  0  0
 52 50  2  0  0  0  0
M  END
>  <MODEL>
6

>  <REMARK>
 VINA RESULT:      -5.2      2.316      4.308
  Name = 
  17 active torsions:
  status: ('A' for Active; 'I' for Inactive)
    1  A    between atoms: C_1  and  N_22
    2  A    between atoms: C_1  and  C_49
    3  A    between atoms: C_2  and  N_14
    4  A    between atoms: O_4  and  C_11
    5  A    between atoms: O_4  and  C_35
    6  A    between atoms: N_5  and  N_18
    7  A    between atoms: N_5  and  C_36
    8  A    between atoms: S_6  and  N_14
    9  A    between atoms: S_6  and  C_35
   10  A    between atoms: C_8  and  C_28
   11  A    between atoms: C_8  and  C_31
   12  A    between atoms: C_10  and  C_28
   13  A    between atoms: C_11  and  C_12
   14  A    between atoms: C_26  and  C_30
   15  A    between atoms: C_26  and  O_45
   16  A    between atoms: C_31  and  C_44
   17  A    between atoms: C_31  and  C_49
                            x       y       z     vdW  Elec       q    Type
                         _______ _______ _______ _____ _____    ______ ____

>  <TORSDO>
F 17

$$$$
=
 OpenBabel11032421173D

 52 55  0  0  1  0  0  0  0  0999 V2000
  185.1960  178.2080  140.2640 C   0  0  1  0  0  3  0  0  0  0  0  0
  188.8570  176.3770  138.2010 C   0  0  0  0  0  0  0  0  0  0  0  0
  187.5360  176.0340  136.4700 N   0  0  0  0  0  0  0  0  0  0  0  0
  184.5400  178.8230  139.0180 C   0  0  2  0  0  3  0  0  0  0  0  0
  187.4180  178.1180  141.4360 C   0  0  2  0  0  3  0  0  0  0  0  0
  188.7930  178.7790  141.4210 C   0  0  0  0  0  2  0  0  0  0  0  0
  185.4290  178.7090  137.7850 C   0  0  0  0  0  2  0  0  0  0  0  0
  190.0280  176.3620  139.0930 C   0  0  0  0  0  0  0  0  0  0  0  0
  187.7060  176.9990  138.5000 N   0  0  0  0  0  0  0  0  0  0  0  0
  186.9360  176.7800  137.4190 C   0  0  0  0  0  0  0  0  0  0  0  0
  188.7660  175.7780  136.9600 C   0  0  0  0  0  2  0  0  0  0  0  0
  184.2170  180.1650  139.2350 O   0  0  0  0  0  1  0  0  0  0  0  0
  189.8750  177.7530  141.3010 C   0  0  0  0  0  3  0  0  0  0  0  0
  186.3740  179.0280  140.7960 C   0  0  0  0  0  2  0  0  0  0  0  0
  185.5300  177.2650  137.3130 C   0  0  0  0  0  2  0  0  0  0  0  0
  189.9810  177.0430  140.2100 C   0  0  0  0  0  0  0  0  0  0  0  0
  187.0320  177.7140  142.8320 C   0  0  0  0  0  0  0  0  0  0  0  0
  187.3790  176.5880  143.2780 O   0  0  0  0  0  0  0  0  0  0  0  0
  185.8720  178.1990  144.9550 C   0  0  0  0  0  1  0  0  0  0  0  0
  186.3000  178.5730  143.6540 O   0  0  0  0  0  0  0  0  0  0  0  0
  184.1690  177.9050  141.3590 C   0  0  0  0  0  2  0  0  0  0  0  0
  183.0600  178.7560  141.2750 O   0  0  0  0  0  0  0  0  0  0  0  0
  181.9510  177.9390  141.4990 C   0  0  0  0  0  2  0  0  0  0  0  0
  180.5870  178.4620  140.4770 S   0  0  0  0  0  0  0  0  0  0  0  0
  180.9610  179.7340  139.7680 O   0  0  0  0  0  0  0  0  0  0  0  0
  179.3770  178.7030  141.3340 O   0  0  0  0  0  0  0  0  0  0  0  0
  180.2470  177.2190  139.3200 N   0  0  0  0  0  2  0  0  0  0  0  0
  180.9240  176.0070  139.7530 C   0  0  1  0  0  3  0  0  0  0  0  0
  181.2210  174.4750  137.7550 C   0  0  0  0  0  0  0  0  0  0  0  0
  179.9450  174.8350  139.7260 C   0  0  0  0  0  2  0  0  0  0  0  0
  181.5440  173.9730  136.3850 C   0  0  0  0  0  1  0  0  0  0  0  0
  182.2860  175.6340  138.5970 S   0  0  0  0  0  0  0  0  0  0  0  0
  179.0970  173.1880  137.8950 C   0  0  0  0  0  1  0  0  0  0  0  0
  180.1130  174.1580  138.4110 C   0  0  0  0  0  0  0  0  0  0  0  0
  191.2180  175.6700  138.7030 N   0  0  0  0  0  2  0  0  0  0  0  0
  193.1190  176.0800  137.1960 C   0  0  0  0  0  0  0  0  0  0  0  0
  191.7430  175.7710  137.4070 N   0  0  0  0  0  2  0  0  0  0  0  0
  193.5920  176.2860  135.8660 N   0  0  0  0  0  2  0  0  0  0  0  0
  193.9100  176.1530  138.1780 O   0  0  0  0  0  0  0  0  0  0  0  0
  195.0010  176.4840  135.5700 C   0  0  0  0  0  2  0  0  0  0  0  0
  195.4990  175.3570  134.6810 C   0  0  0  0  0  2  0  0  0  0  0  0
  196.5580  174.4860  135.3590 C   0  0  1  0  0  3  0  0  0  0  0  0
  197.7610  175.5620  137.1580 O   0  0  0  0  0  1  0  0  0  0  0  0
  197.7980  175.2660  135.7940 C   0  0  0  0  0  2  0  0  0  0  0  0
  195.9840  173.6310  136.4880 C   0  0  0  0  0  2  0  0  0  0  0  0
  193.2690  171.5500  136.0640 C   0  0  0  0  0  2  0  0  0  0  0  0
  193.9370  170.3290  135.7500 C   0  0  0  0  0  2  0  0  0  0  0  0
  195.9670  172.1860  136.1020 C   0  0  0  0  0  0  0  0  0  0  0  0
  194.7950  171.5650  136.0040 C   0  0  0  0  0  0  0  0  0  0  0  0
  197.2230  171.4500  135.8820 C   0  0  0  0  0  0  0  0  0  0  0  0
  197.2910  170.5490  135.0030 O   0  0  0  0  0  0  0  0  0  0  0  0
  198.3480  171.7410  136.6380 O   0  0  0  0  0  1  0  0  0  0  0  0
  1 14  1  0  0  0  0
  1 21  1  1  0  0  0
  2  9  2  0  0  0  0
  2  8  1  0  0  0  0
  3 11  1  0  0  0  0
  3 10  2  0  0  0  0
  4 12  1  1  0  0  0
  4  1  1  0  0  0  0
  5 17  1  1  0  0  0
  6  5  1  0  0  0  0
  7  4  1  0  0  0  0
  8 16  2  0  0  0  0
 10  9  1  0  0  0  0
 11  2  1  0  0  0  0
 13  6  1  0  0  0  0
 14  5  1  0  0  0  0
 15 10  1  0  0  0  0
 15  7  1  0  0  0  0
 16 13  2  0  0  0  0
 17 18  2  0  0  0  0
 17 20  1  0  0  0  0
 20 19  1  0  0  0  0
 22 21  1  0  0  0  0
 22 23  1  0  0  0  0
 24 26  2  0  0  0  0
 24 23  1  0  0  0  0
 25 24  2  0  0  0  0
 27 24  1  0  0  0  0
 28 27  1  6  0  0  0
 29 34  2  0  0  0  0
 29 32  1  0  0  0  0
 30 28  1  0  0  0  0
 31 29  1  0  0  0  0
 32 28  1  0  0  0  0
 33 34  1  0  0  0  0
 34 30  1  0  0  0  0
 35  8  1  0  0  0  0
 36 37  1  0  0  0  0
 36 39  2  0  0  0  0
 37 35  1  0  0  0  0
 38 36  1  0  0  0  0
 40 38  1  0  0  0  0
 41 40  1  0  0  0  0
 42 41  1  1  0  0  0
 42 44  1  0  0  0  0
 42 45  1  0  0  0  0
 44 43  1  0  0  0  0
 47 49  1  0  0  0  0
 47 46  1  0  0  0  0
 48 45  1  0  0  0  0
 49 46  1  0  0  0  0
 49 48  2  0  0  0  0
 50 48  1  0  0  0  0
 50 52  1  0  0  0  0
 51 50  2  0  0  0  0
M  END
>  <MODEL>
7

>  <REMARK>
 VINA RESULT:      -5.2      4.942      7.779
  Name = 
  17 active torsions:
  status: ('A' for Active; 'I' for Inactive)
    1  A    between atoms: C_1  and  N_22
    2  A    between atoms: C_1  and  C_49
    3  A    between atoms: C_2  and  N_14
    4  A    between atoms: O_4  and  C_11
    5  A    between atoms: O_4  and  C_35
    6  A    between atoms: N_5  and  N_18
    7  A    between atoms: N_5  and  C_36
    8  A    between atoms: S_6  and  N_14
    9  A    between atoms: S_6  and  C_35
   10  A    between atoms: C_8  and  C_28
   11  A    between atoms: C_8  and  C_31
   12  A    between atoms: C_10  and  C_28
   13  A    between atoms: C_11  and  C_12
   14  A    between atoms: C_26  and  C_30
   15  A    between atoms: C_26  and  O_45
   16  A    between atoms: C_31  and  C_44
   17  A    between atoms: C_31  and  C_49
                            x       y       z     vdW  Elec       q    Type
                         _______ _______ _______ _____ _____    ______ ____

>  <TORSDO>
F 17

$$$$
=
 OpenBabel11032421173D

 52 55  0  0  1  0  0  0  0  0999 V2000
  187.1920  177.0180  136.9060 C   0  0  1  0  0  3  0  0  0  0  0  0
  184.3740  178.5440  140.1840 C   0  0  0  0  0  0  0  0  0  0  0  0
  182.7400  178.1900  138.7490 N   0  0  0  0  0  0  0  0  0  0  0  0
  186.2440  175.9820  136.2810 C   0  0  2  0  0  3  0  0  0  0  0  0
  188.0900  177.7140  139.1480 C   0  0  2  0  0  3  0  0  0  0  0  0
  188.1530  177.2420  140.5970 C   0  0  0  0  0  2  0  0  0  0  0  0
  184.9610  175.8180  137.0870 C   0  0  0  0  0  2  0  0  0  0  0  0
  185.1180  178.9630  141.3830 C   0  0  0  0  0  0  0  0  0  0  0  0
  184.9410  177.9140  139.1430 N   0  0  0  0  0  0  0  0  0  0  0  0
  183.9140  177.7040  138.3010 C   0  0  0  0  0  0  0  0  0  0  0  0
  183.0250  178.7230  139.9550 C   0  0  0  0  0  2  0  0  0  0  0  0
  186.8740  174.7420  136.1530 O   0  0  0  0  0  1  0  0  0  0  0  0
  187.6440  178.3000  141.5240 C   0  0  0  0  0  3  0  0  0  0  0  0
  187.8390  176.5390  138.2080 C   0  0  0  0  0  2  0  0  0  0  0  0
  184.0760  177.0520  136.9700 C   0  0  0  0  0  2  0  0  0  0  0  0
  186.3870  178.6530  141.4810 C   0  0  0  0  0  0  0  0  0  0  0  0
  189.3320  178.4760  138.7770 C   0  0  0  0  0  0  0  0  0  0  0  0
  189.2550  179.7010  138.4900 O   0  0  0  0  0  0  0  0  0  0  0  0
  191.2760  177.4990  139.9420 C   0  0  0  0  0  1  0  0  0  0  0  0
  190.5800  177.8500  138.7540 O   0  0  0  0  0  0  0  0  0  0  0  0
  188.2320  177.5190  135.9000 C   0  0  0  0  0  2  0  0  0  0  0  0
  188.7870  176.4650  135.1640 O   0  0  0  0  0  0  0  0  0  0  0  0
  190.1320  176.4260  135.5320 C   0  0  0  0  0  2  0  0  0  0  0  0
  190.5760  174.7820  136.0610 S   0  0  0  0  0  0  0  0  0  0  0  0
  189.8670  173.7780  135.1950 O   0  0  0  0  0  0  0  0  0  0  0  0
  190.1690  174.5850  137.4940 O   0  0  0  0  0  0  0  0  0  0  0  0
  192.2900  174.5900  135.9070 N   0  0  0  0  0  2  0  0  0  0  0  0
  192.9290  175.6840  136.6210 C   0  0  1  0  0  3  0  0  0  0  0  0
  195.4350  175.3010  136.6350 C   0  0  0  0  0  0  0  0  0  0  0  0
  193.4670  175.1790  137.9580 C   0  0  0  0  0  2  0  0  0  0  0  0
  196.8280  174.9920  136.1890 C   0  0  0  0  0  1  0  0  0  0  0  0
  194.3390  176.2990  135.6390 S   0  0  0  0  0  0  0  0  0  0  0  0
  195.6450  173.9780  138.7300 C   0  0  0  0  0  1  0  0  0  0  0  0
  194.8950  174.8170  137.7440 C   0  0  0  0  0  0  0  0  0  0  0  0
  184.4420  179.6360  142.4490 N   0  0  0  0  0  2  0  0  0  0  0  0
  185.2910  179.0480  144.6820 C   0  0  0  0  0  0  0  0  0  0  0  0
  185.1000  179.9950  143.6340 N   0  0  0  0  0  2  0  0  0  0  0  0
  185.8630  179.4780  145.9160 N   0  0  0  0  0  2  0  0  0  0  0  0
  184.9700  177.8380  144.5090 O   0  0  0  0  0  0  0  0  0  0  0  0
  186.1960  178.5450  146.9790 C   0  0  0  0  0  2  0  0  0  0  0  0
  187.4570  179.0080  147.6900 C   0  0  0  0  0  2  0  0  0  0  0  0
  188.3760  177.8510  148.0890 C   0  0  1  0  0  3  0  0  0  0  0  0
  188.2440  175.4650  148.4460 O   0  0  0  0  0  1  0  0  0  0  0  0
  187.9040  176.4950  147.5660 C   0  0  0  0  0  2  0  0  0  0  0  0
  189.8430  178.1230  147.7620 C   0  0  0  0  0  2  0  0  0  0  0  0
  188.7370  177.8810  144.5070 C   0  0  0  0  0  2  0  0  0  0  0  0
  189.5640  176.8160  144.0400 C   0  0  0  0  0  2  0  0  0  0  0  0
  190.3220  177.2100  146.6790 C   0  0  0  0  0  0  0  0  0  0  0  0
  189.7430  177.2770  145.4840 C   0  0  0  0  0  0  0  0  0  0  0  0
  191.3830  176.2220  146.9410 C   0  0  0  0  0  0  0  0  0  0  0  0
  191.6200  175.8360  148.1170 O   0  0  0  0  0  1  0  0  0  0  0  0
  192.1300  175.7020  145.8960 O   0  0  0  0  0  0  0  0  0  0  0  0
  1 21  1  6  0  0  0
  1 14  1  0  0  0  0
  2  8  1  0  0  0  0
  3 11  1  0  0  0  0
  4 12  1  1  0  0  0
  4  1  1  0  0  0  0
  4  7  1  0  0  0  0
  5 17  1  6  0  0  0
  5  6  1  0  0  0  0
  6 13  1  0  0  0  0
  8 16  2  0  0  0  0
  8 35  1  0  0  0  0
  9  2  2  0  0  0  0
 10  3  2  0  0  0  0
 10  9  1  0  0  0  0
 11  2  1  0  0  0  0
 14  5  1  0  0  0  0
 15  7  1  0  0  0  0
 15 10  1  0  0  0  0
 16 13  2  0  0  0  0
 18 17  2  0  0  0  0
 20 17  1  0  0  0  0
 20 19  1  0  0  0  0
 22 23  1  0  0  0  0
 22 21  1  0  0  0  0
 23 24  1  0  0  0  0
 24 26  2  0  0  0  0
 25 24  2  0  0  0  0
 27 24  1  0  0  0  0
 28 27  1  6  0  0  0
 28 30  1  0  0  0  0
 29 34  2  0  0  0  0
 31 29  1  0  0  0  0
 32 28  1  0  0  0  0
 32 29  1  0  0  0  0
 34 30  1  0  0  0  0
 34 33  1  0  0  0  0
 35 37  1  0  0  0  0
 36 38  1  0  0  0  0
 37 36  1  0  0  0  0
 38 40  1  0  0  0  0
 39 36  2  0  0  0  0
 40 41  1  0  0  0  0
 41 42  1  0  0  0  0
 42 44  1  6  0  0  0
 44 43  1  0  0  0  0
 45 42  1  0  0  0  0
 46 49  1  0  0  0  0
 47 46  1  0  0  0  0
 47 49  1  0  0  0  0
 48 50  1  0  0  0  0
 48 45  1  0  0  0  0
 49 48  2  0  0  0  0
 50 51  1  0  0  0  0
 52 50  2  0  0  0  0
M  END
>  <MODEL>
8

>  <REMARK>
 VINA RESULT:      -5.1      3.909      7.133
  Name = 
  17 active torsions:
  status: ('A' for Active; 'I' for Inactive)
    1  A    between atoms: C_1  and  N_22
    2  A    between atoms: C_1  and  C_49
    3  A    between atoms: C_2  and  N_14
    4  A    between atoms: O_4  and  C_11
    5  A    between atoms: O_4  and  C_35
    6  A    between atoms: N_5  and  N_18
    7  A    between atoms: N_5  and  C_36
    8  A    between atoms: S_6  and  N_14
    9  A    between atoms: S_6  and  C_35
   10  A    between atoms: C_8  and  C_28
   11  A    between atoms: C_8  and  C_31
   12  A    between atoms: C_10  and  C_28
   13  A    between atoms: C_11  and  C_12
   14  A    between atoms: C_26  and  C_30
   15  A    between atoms: C_26  and  O_45
   16  A    between atoms: C_31  and  C_44
   17  A    between atoms: C_31  and  C_49
                            x       y       z     vdW  Elec       q    Type
                         _______ _______ _______ _____ _____    ______ ____

>  <TORSDO>
F 17

$$$$
=
 OpenBabel11032421173D

 52 55  0  0  1  0  0  0  0  0999 V2000
  187.1590  176.8680  136.3250 C   0  0  1  0  0  3  0  0  0  0  0  0
  187.1120  178.5360  140.5940 C   0  0  0  0  0  0  0  0  0  0  0  0
  189.2770  178.1270  140.6280 N   0  0  0  0  0  0  0  0  0  0  0  0
  188.5580  177.3620  135.9230 C   0  0  2  0  0  3  0  0  0  0  0  0
  185.0260  177.7190  137.3460 C   0  0  2  0  0  3  0  0  0  0  0  0
  184.3350  179.0230  137.7310 C   0  0  0  0  0  2  0  0  0  0  0  0
  189.1730  178.2680  136.9820 C   0  0  0  0  0  2  0  0  0  0  0  0
  185.7510  178.9070  141.0130 C   0  0  0  0  0  0  0  0  0  0  0  0
  187.4280  178.1720  139.3420 N   0  0  0  0  0  0  0  0  0  0  0  0
  188.7520  177.9460  139.4000 C   0  0  0  0  0  0  0  0  0  0  0  0
  188.2360  178.5100  141.3950 C   0  0  0  0  0  2  0  0  0  0  0  0
  188.5160  178.0380  134.7000 O   0  0  0  0  0  1  0  0  0  0  0  0
  183.9040  178.9940  139.1630 C   0  0  0  0  0  3  0  0  0  0  0  0
  186.0930  177.9670  136.2850 C   0  0  0  0  0  2  0  0  0  0  0  0
  189.5490  177.4790  138.2290 C   0  0  0  0  0  2  0  0  0  0  0  0
  184.8010  178.9530  140.1120 C   0  0  0  0  0  0  0  0  0  0  0  0
  184.0220  176.6900  136.9040 C   0  0  0  0  0  0  0  0  0  0  0  0
  183.4140  176.8350  135.8100 O   0  0  0  0  0  0  0  0  0  0  0  0
  182.7790  175.5680  138.7170 C   0  0  0  0  0  1  0  0  0  0  0  0
  183.7560  175.5630  137.6850 O   0  0  0  0  0  0  0  0  0  0  0  0
  186.7380  175.6330  135.5220 C   0  0  0  0  0  2  0  0  0  0  0  0
  186.6760  174.4910  136.3290 O   0  0  0  0  0  0  0  0  0  0  0  0
  187.8360  174.5210  137.1020 C   0  0  0  0  0  2  0  0  0  0  0  0
  188.8590  173.1090  136.7320 S   0  0  0  0  0  0  0  0  0  0  0  0
  188.9170  172.9200  135.2420 O   0  0  0  0  0  0  0  0  0  0  0  0
  188.2740  171.8810  137.3710 O   0  0  0  0  0  0  0  0  0  0  0  0
  190.4500  173.3920  137.3550 N   0  0  0  0  0  2  0  0  0  0  0  0
  191.2840  173.8570  136.2590 C   0  0  1  0  0  3  0  0  0  0  0  0
  193.6710  174.0790  137.0820 C   0  0  0  0  0  0  0  0  0  0  0  0
  191.7140  175.3000  136.5180 C   0  0  0  0  0  2  0  0  0  0  0  0
  194.9810  173.7850  137.7400 C   0  0  0  0  0  1  0  0  0  0  0  0
  192.7860  172.8260  136.1680 S   0  0  0  0  0  0  0  0  0  0  0  0
  193.6240  176.4350  137.8780 C   0  0  0  0  0  1  0  0  0  0  0  0
  193.0470  175.2450  137.1770 C   0  0  0  0  0  0  0  0  0  0  0  0
  185.4930  179.2790  142.3710 N   0  0  0  0  0  2  0  0  0  0  0  0
  185.6710  178.6330  144.7380 C   0  0  0  0  0  0  0  0  0  0  0  0
  186.2390  178.7540  143.4360 N   0  0  0  0  0  2  0  0  0  0  0  0
  186.4930  178.2010  145.8210 N   0  0  0  0  0  2  0  0  0  0  0  0
  184.4480  178.8910  144.9230 O   0  0  0  0  0  0  0  0  0  0  0  0
  185.9520  177.9410  147.1450 C   0  0  0  0  0  2  0  0  0  0  0  0
  186.9570  178.3690  148.2010 C   0  0  0  0  0  2  0  0  0  0  0  0
  188.4060  178.1190  147.7800 C   0  0  1  0  0  3  0  0  0  0  0  0
  190.2230  179.5170  148.5450 O   0  0  0  0  0  1  0  0  0  0  0  0
  189.4200  178.4260  148.8820 C   0  0  0  0  0  2  0  0  0  0  0  0
  188.6140  176.7340  147.1690 C   0  0  0  0  0  2  0  0  0  0  0  0
  191.7430  175.4150  147.7570 C   0  0  0  0  0  2  0  0  0  0  0  0
  192.3990  175.7760  146.5430 C   0  0  0  0  0  2  0  0  0  0  0  0
  189.8080  176.7260  146.2680 C   0  0  0  0  0  0  0  0  0  0  0  0
  190.9330  176.1660  146.7030 C   0  0  0  0  0  0  0  0  0  0  0  0
  189.7570  177.3680  144.9440 C   0  0  0  0  0  0  0  0  0  0  0  0
  189.7910  178.6230  144.8400 O   0  0  0  0  0  1  0  0  0  0  0  0
  189.6730  176.5980  143.7940 O   0  0  0  0  0  0  0  0  0  0  0  0
  1 21  1  6  0  0  0
  2  8  1  0  0  0  0
  2 11  1  0  0  0  0
  3 11  1  0  0  0  0
  4 12  1  6  0  0  0
  4  1  1  0  0  0  0
  4  7  1  0  0  0  0
  5 17  1  6  0  0  0
  5  6  1  0  0  0  0
  6 13  1  0  0  0  0
  7 15  1  0  0  0  0
  8 35  1  0  0  0  0
  9 10  1  0  0  0  0
  9  2  2  0  0  0  0
 10  3  2  0  0  0  0
 13 16  2  0  0  0  0
 14  1  1  0  0  0  0
 14  5  1  0  0  0  0
 15 10  1  0  0  0  0
 16  8  2  0  0  0  0
 17 20  1  0  0  0  0
 18 17  2  0  0  0  0
 20 19  1  0  0  0  0
 21 22  1  0  0  0  0
 22 23  1  0  0  0  0
 24 23  1  0  0  0  0
 24 27  1  0  0  0  0
 24 26  2  0  0  0  0
 25 24  2  0  0  0  0
 28 30  1  0  0  0  0
 28 27  1  1  0  0  0
 29 34  2  0  0  0  0
 29 31  1  0  0  0  0
 30 34  1  0  0  0  0
 32 28  1  0  0  0  0
 32 29  1  0  0  0  0
 34 33  1  0  0  0  0
 35 37  1  0  0  0  0
 36 39  2  0  0  0  0
 36 38  1  0  0  0  0
 37 36  1  0  0  0  0
 38 40  1  0  0  0  0
 40 41  1  0  0  0  0
 42 45  1  1  0  0  0
 42 41  1  0  0  0  0
 42 44  1  0  0  0  0
 43 44  1  0  0  0  0
 47 49  1  0  0  0  0
 47 46  1  0  0  0  0
 48 49  2  0  0  0  0
 48 45  1  0  0  0  0
 49 46  1  0  0  0  0
 50 48  1  0  0  0  0
 51 50  1  0  0  0  0
 52 50  2  0  0  0  0
M  END
>  <MODEL>
9

>  <REMARK>
 VINA RESULT:      -5.1      3.487      6.234
  Name = 
  17 active torsions:
  status: ('A' for Active; 'I' for Inactive)
    1  A    between atoms: C_1  and  N_22
    2  A    between atoms: C_1  and  C_49
    3  A    between atoms: C_2  and  N_14
    4  A    between atoms: O_4  and  C_11
    5  A    between atoms: O_4  and  C_35
    6  A    between atoms: N_5  and  N_18
    7  A    between atoms: N_5  and  C_36
    8  A    between atoms: S_6  and  N_14
    9  A    between atoms: S_6  and  C_35
   10  A    between atoms: C_8  and  C_28
   11  A    between atoms: C_8  and  C_31
   12  A    between atoms: C_10  and  C_28
   13  A    between atoms: C_11  and  C_12
   14  A    between atoms: C_26  and  C_30
   15  A    between atoms: C_26  and  O_45
   16  A    between atoms: C_31  and  C_44
   17  A    between atoms: C_31  and  C_49
                            x       y       z     vdW  Elec       q    Type
                         _______ _______ _______ _____ _____    ______ ____

>  <TORSDO>
F 17

$$$$
