=
 OpenBabel11042410563D

 26 29  0  0  1  0  0  0  0  0999 V2000
  188.6900  177.2630  140.7090 C   0  0  0  0  0  0  0  0  0  0  0  0
  187.0820  178.1320  142.3020 C   0  0  0  0  0  3  0  0  0  0  0  0
  191.2480  177.7670  142.5970 N   0  0  2  0  0  0  0  0  0  0  0  0
  192.2390  176.9370  143.2680 C   0  0  0  0  0  2  0  0  0  0  0  0
  188.1620  177.2890  142.0130 C   0  0  0  0  0  0  0  0  0  0  0  0
  189.8730  178.9490  144.2570 C   0  0  0  0  0  2  0  0  0  0  0  0
  189.6650  177.6350  145.0320 C   0  0  1  0  0  3  0  0  0  0  0  0
  187.0710  178.9060  140.0470 N   0  0  0  0  0  0  0  0  0  0  0  0
  186.5430  178.9360  141.2970 C   0  0  0  0  0  3  0  0  0  0  0  0
  188.1230  178.1040  139.7370 C   0  0  0  0  0  3  0  0  0  0  0  0
  191.5650  176.0570  144.3140 C   0  0  0  0  0  2  0  0  0  0  0  0
  189.8140  175.7870  139.0470 C   0  0  0  0  0  3  0  0  0  0  0  0
  191.7780  178.1120  141.2890 C   0  0  0  0  0  2  0  0  0  0  0  0
  188.7410  176.4770  143.0430 N   0  0  0  0  0  2  0  0  0  0  0  0
  191.1270  177.2790  140.2250 C   0  0  0  0  0  0  0  0  0  0  0  0
  188.5490  176.7440  144.4630 C   0  0  0  0  0  2  0  0  0  0  0  0
  189.9070  176.4270  140.3950 C   0  0  1  0  0  3  0  0  0  0  0  0
  190.7970  176.2170  138.2680 C   0  0  0  0  0  3  0  0  0  0  0  0
  190.9610  176.8960  145.4420 C   0  0  2  0  0  3  0  0  0  0  0  0
  191.1230  178.9930  143.3710 C   0  0  0  0  0  2  0  0  0  0  0  0
  191.6290  177.1560  139.0090 C   0  0  0  0  0  3  0  0  0  0  0  0
  190.8090  176.0560  146.7140 C   0  0  2  0  0  3  0  0  0  0  0  0
  189.6910  176.4440  147.4580 O   0  0  0  0  0  1  0  0  0  0  0  0
  192.2510  177.1510  148.4420 O   0  0  0  0  0  1  0  0  0  0  0  0
  192.9120  175.2010  147.4370 O   0  0  0  0  0  0  0  0  0  0  0  0
  192.0420  176.1020  147.5560 C   0  0  0  0  0  0  0  0  0  0  0  0
  1  5  1  0  0  0  0
  3 13  1  6  0  0  0
  3  4  1  0  0  0  0
  3 20  1  0  0  0  0
  4 11  1  0  0  0  0
  5  2  2  0  0  0  0
  5 14  1  0  0  0  0
  7  6  1  6  0  0  0
  7 19  1  0  0  0  0
  8  9  2  0  0  0  0
  9  2  1  0  0  0  0
 10  8  1  0  0  0  0
 10  1  2  0  0  0  0
 11 19  1  0  0  0  0
 14 16  1  0  0  0  0
 15 17  1  0  0  0  0
 15 13  1  0  0  0  0
 16  7  1  0  0  0  0
 17 12  1  6  0  0  0
 17  1  1  0  0  0  0
 18 21  1  0  0  0  0
 18 12  2  0  0  0  0
 19 22  1  1  0  0  0
 20  6  1  0  0  0  0
 21 15  2  0  0  0  0
 22 23  1  1  0  0  0
 22 26  1  0  0  0  0
 25 26  2  0  0  0  0
 26 24  1  0  0  0  0
M  END
>  <MODEL>
1

>  <REMARK>
 VINA RESULT:      -6.2      0.000      0.000
  Name = 
  2 active torsions:
  status: ('A' for Active; 'I' for Inactive)
    1  A    between atoms: C_1  and  C_12
    2  A    between atoms: C_1  and  C_23
                            x       y       z     vdW  Elec       q    Type
                         _______ _______ _______ _____ _____    ______ ____

>  <TORSDO>
F 2

$$$$
=
 OpenBabel11042410563D

 26 29  0  0  1  0  0  0  0  0999 V2000
  182.1860  178.7150  142.6400 C   0  0  0  0  0  0  0  0  0  0  0  0
  184.4000  178.5810  141.6610 C   0  0  0  0  0  3  0  0  0  0  0  0
  180.7620  179.7850  139.9580 N   0  0  2  0  0  0  0  0  0  0  0  0
  179.7580  179.2840  139.0300 C   0  0  0  0  0  2  0  0  0  0  0  0
  183.0320  178.2860  141.6010 C   0  0  0  0  0  0  0  0  0  0  0  0
  182.9290  180.0090  138.8200 C   0  0  0  0  0  2  0  0  0  0  0  0
  182.7770  178.5930  138.2340 C   0  0  1  0  0  3  0  0  0  0  0  0
  184.0760  179.7100  143.7360 N   0  0  0  0  0  0  0  0  0  0  0  0
  184.9080  179.2950  142.7460 C   0  0  0  0  0  3  0  0  0  0  0  0
  182.7430  179.4460  143.7030 C   0  0  0  0  0  3  0  0  0  0  0  0
  180.2700  178.0310  138.3310 C   0  0  0  0  0  2  0  0  0  0  0  0
  180.1090  178.1290  143.8850 C   0  0  0  0  0  3  0  0  0  0  0  0
  180.0710  180.5510  140.9820 C   0  0  0  0  0  2  0  0  0  0  0  0
  182.4940  177.5760  140.4790 N   0  0  0  0  0  2  0  0  0  0  0  0
  179.9630  179.7530  142.2470 C   0  0  0  0  0  0  0  0  0  0  0  0
  183.1890  177.4720  139.2010 C   0  0  0  0  0  2  0  0  0  0  0  0
  180.6970  178.4840  142.5560 C   0  0  1  0  0  3  0  0  0  0  0  0
  179.2210  179.0430  144.2500 C   0  0  0  0  0  3  0  0  0  0  0  0
  181.4740  178.3410  137.4400 C   0  0  2  0  0  3  0  0  0  0  0  0
  181.6170  180.6970  139.2130 C   0  0  0  0  0  2  0  0  0  0  0  0
  179.1240  180.0670  143.2190 C   0  0  0  0  0  3  0  0  0  0  0  0
  181.6210  177.2800  136.3460 C   0  0  2  0  0  3  0  0  0  0  0  0
  182.8080  177.4410  135.6260 O   0  0  0  0  0  1  0  0  0  0  0  0
  180.0530  178.4330  134.7710 O   0  0  0  0  0  0  0  0  0  0  0  0
  179.7870  176.2110  135.2630 O   0  0  0  0  0  1  0  0  0  0  0  0
  180.4460  177.2710  135.4240 C   0  0  0  0  0  0  0  0  0  0  0  0
  1 10  1  0  0  0  0
  2  9  2  0  0  0  0
  3  4  1  6  0  0  0
  3 13  1  0  0  0  0
  5  2  1  0  0  0  0
  5  1  2  0  0  0  0
  6 20  1  0  0  0  0
  7  6  1  1  0  0  0
  7 16  1  0  0  0  0
  9  8  1  0  0  0  0
 10  8  2  0  0  0  0
 11  4  1  0  0  0  0
 12 18  2  0  0  0  0
 13 15  1  0  0  0  0
 14  5  1  0  0  0  0
 15 17  1  0  0  0  0
 15 21  2  0  0  0  0
 16 14  1  0  0  0  0
 17  1  1  0  0  0  0
 17 12  1  1  0  0  0
 19 22  1  6  0  0  0
 19  7  1  0  0  0  0
 19 11  1  0  0  0  0
 20  3  1  0  0  0  0
 21 18  1  0  0  0  0
 22 23  1  6  0  0  0
 24 26  2  0  0  0  0
 25 26  1  0  0  0  0
 26 22  1  0  0  0  0
M  END
>  <MODEL>
2

>  <REMARK>
 VINA RESULT:      -5.4      7.836     11.348
  Name = 
  2 active torsions:
  status: ('A' for Active; 'I' for Inactive)
    1  A    between atoms: C_1  and  C_12
    2  A    between atoms: C_1  and  C_23
                            x       y       z     vdW  Elec       q    Type
                         _______ _______ _______ _____ _____    ______ ____

>  <TORSDO>
F 2

$$$$
=
 OpenBabel11042410563D

 26 29  0  0  1  0  0  0  0  0999 V2000
  190.3090  177.7530  145.3060 C   0  0  0  0  0  0  0  0  0  0  0  0
  189.1020  177.2050  147.3370 C   0  0  0  0  0  3  0  0  0  0  0  0
  187.8360  177.1340  143.3400 N   0  0  2  0  0  0  0  0  0  0  0  0
  186.9950  177.9040  142.4340 C   0  0  0  0  0  2  0  0  0  0  0  0
  189.1710  177.8970  146.1210 C   0  0  0  0  0  0  0  0  0  0  0  0
  186.4910  176.2560  145.2010 C   0  0  0  0  0  2  0  0  0  0  0  0
  185.8640  177.6470  145.4140 C   0  0  1  0  0  3  0  0  0  0  0  0
  191.2460  176.2470  146.9230 N   0  0  0  0  0  0  0  0  0  0  0  0
  190.1590  176.3820  147.7250 C   0  0  0  0  0  3  0  0  0  0  0  0
  191.3390  176.8990  145.7340 C   0  0  0  0  0  3  0  0  0  0  0  0
  186.1940  178.9390  143.2150 C   0  0  0  0  0  2  0  0  0  0  0  0
  191.7340  178.9490  143.6500 C   0  0  0  0  0  3  0  0  0  0  0  0
  188.9570  176.6220  142.5700 C   0  0  0  0  0  2  0  0  0  0  0  0
  188.0800  178.7250  145.6980 N   0  0  0  0  0  2  0  0  0  0  0  0
  190.1920  177.4280  142.8460 C   0  0  0  0  0  0  0  0  0  0  0  0
  186.7350  178.6020  146.2460 C   0  0  0  0  0  2  0  0  0  0  0  0
  190.3690  178.4200  143.9540 C   0  0  1  0  0  3  0  0  0  0  0  0
  192.2280  178.3480  142.5760 C   0  0  0  0  0  3  0  0  0  0  0  0
  185.1980  178.2710  144.1650 C   0  0  2  0  0  3  0  0  0  0  0  0
  187.0470  176.0000  143.7960 C   0  0  0  0  0  2  0  0  0  0  0  0
  191.2570  177.3910  142.0640 C   0  0  0  0  0  3  0  0  0  0  0  0
  184.0500  179.2280  144.4990 C   0  0  2  0  0  3  0  0  0  0  0  0
  183.6970  179.1590  145.8500 O   0  0  0  0  0  1  0  0  0  0  0  0
  181.6210  178.7030  144.1990 O   0  0  0  0  0  1  0  0  0  0  0  0
  182.9840  179.0010  142.3810 O   0  0  0  0  0  0  0  0  0  0  0  0
  182.8580  178.9840  143.6320 C   0  0  0  0  0  0  0  0  0  0  0  0
  1 10  2  0  0  0  0
  1  5  1  0  0  0  0
  2  9  1  0  0  0  0
  3  4  1  6  0  0  0
  3 20  1  0  0  0  0
  4 11  1  0  0  0  0
  5  2  2  0  0  0  0
  7  6  1  6  0  0  0
  7 16  1  0  0  0  0
  8  9  2  0  0  0  0
 10  8  1  0  0  0  0
 11 19  1  0  0  0  0
 13 15  1  0  0  0  0
 13  3  1  0  0  0  0
 14  5  1  0  0  0  0
 14 16  1  0  0  0  0
 15 17  1  0  0  0  0
 17 12  1  6  0  0  0
 17  1  1  0  0  0  0
 18 12  2  0  0  0  0
 19 22  1  1  0  0  0
 19  7  1  0  0  0  0
 20  6  1  0  0  0  0
 21 18  1  0  0  0  0
 21 15  2  0  0  0  0
 22 23  1  1  0  0  0
 25 26  2  0  0  0  0
 26 24  1  0  0  0  0
 26 22  1  0  0  0  0
M  END
>  <MODEL>
3

>  <REMARK>
 VINA RESULT:      -5.3      3.633      6.339
  Name = 
  2 active torsions:
  status: ('A' for Active; 'I' for Inactive)
    1  A    between atoms: C_1  and  C_12
    2  A    between atoms: C_1  and  C_23
                            x       y       z     vdW  Elec       q    Type
                         _______ _______ _______ _____ _____    ______ ____

>  <TORSDO>
F 2

$$$$
=
 OpenBabel11042410563D

 26 29  0  0  1  0  0  0  0  0999 V2000
  182.8070  176.3390  137.3130 C   0  0  0  0  0  0  0  0  0  0  0  0
  180.5570  177.1370  137.7360 C   0  0  0  0  0  3  0  0  0  0  0  0
  184.2360  178.5460  139.1700 N   0  0  2  0  0  0  0  0  0  0  0  0
  185.0180  178.5390  140.3990 C   0  0  0  0  0  2  0  0  0  0  0  0
  181.8060  176.7320  138.2210 C   0  0  0  0  0  0  0  0  0  0  0  0
  182.1050  179.7160  139.5320 C   0  0  0  0  0  2  0  0  0  0  0  0
  181.8700  178.9070  140.8210 C   0  0  1  0  0  3  0  0  0  0  0  0
  181.2980  176.7750  135.4980 N   0  0  0  0  0  0  0  0  0  0  0  0
  180.3180  177.1480  136.3610 C   0  0  0  0  0  3  0  0  0  0  0  0
  182.5230  176.3840  135.9380 C   0  0  0  0  0  3  0  0  0  0  0  0
  184.1710  178.0260  141.5560 C   0  0  0  0  0  2  0  0  0  0  0  0
  184.7730  174.8320  137.0490 C   0  0  0  0  0  3  0  0  0  0  0  0
  185.1660  178.4540  138.0570 C   0  0  0  0  0  2  0  0  0  0  0  0
  182.0730  176.7410  139.6290 N   0  0  0  0  0  2  0  0  0  0  0  0
  185.1770  177.0620  137.4990 C   0  0  0  0  0  0  0  0  0  0  0  0
  181.2780  177.5090  140.5800 C   0  0  0  0  0  2  0  0  0  0  0  0
  184.1880  175.9800  137.8070 C   0  0  1  0  0  3  0  0  0  0  0  0
  185.8780  175.2140  136.4240 C   0  0  0  0  0  3  0  0  0  0  0  0
  183.0110  178.9750  141.8630 C   0  0  2  0  0  3  0  0  0  0  0  0
  183.5690  179.8370  139.0950 C   0  0  0  0  0  2  0  0  0  0  0  0
  186.1390  176.6190  136.7080 C   0  0  0  0  0  3  0  0  0  0  0  0
  182.5330  178.7910  143.3060 C   0  0  2  0  0  3  0  0  0  0  0  0
  181.2790  179.3740  143.5120 O   0  0  0  0  0  1  0  0  0  0  0  0
  184.5740  180.1280  143.8660 O   0  0  0  0  0  0  0  0  0  0  0  0
  183.4310  179.0030  145.5030 O   0  0  0  0  0  1  0  0  0  0  0  0
  183.5250  179.3200  144.2890 C   0  0  0  0  0  0  0  0  0  0  0  0
  1 17  1  0  0  0  0
  1  5  1  0  0  0  0
  2  5  2  0  0  0  0
  3 13  1  6  0  0  0
  3  4  1  0  0  0  0
  4 11  1  0  0  0  0
  5 14  1  0  0  0  0
  7  6  1  6  0  0  0
  7 19  1  0  0  0  0
  8 10  1  0  0  0  0
  8  9  2  0  0  0  0
  9  2  1  0  0  0  0
 10  1  2  0  0  0  0
 11 19  1  0  0  0  0
 14 16  1  0  0  0  0
 15 17  1  0  0  0  0
 15 13  1  0  0  0  0
 16  7  1  0  0  0  0
 17 12  1  6  0  0  0
 18 21  1  0  0  0  0
 18 12  2  0  0  0  0
 19 22  1  1  0  0  0
 20  3  1  0  0  0  0
 20  6  1  0  0  0  0
 21 15  2  0  0  0  0
 22 23  1  6  0  0  0
 22 26  1  0  0  0  0
 24 26  2  0  0  0  0
 26 25  1  0  0  0  0
M  END
>  <MODEL>
4

>  <REMARK>
 VINA RESULT:      -5.2      6.522      8.037
  Name = 
  2 active torsions:
  status: ('A' for Active; 'I' for Inactive)
    1  A    between atoms: C_1  and  C_12
    2  A    between atoms: C_1  and  C_23
                            x       y       z     vdW  Elec       q    Type
                         _______ _______ _______ _____ _____    ______ ____

>  <TORSDO>
F 2

$$$$
=
 OpenBabel11042410563D

 26 29  0  0  1  0  0  0  0  0999 V2000
  180.8010  177.2300  140.8160 C   0  0  0  0  0  0  0  0  0  0  0  0
  181.9520  178.9870  142.0260 C   0  0  0  0  0  3  0  0  0  0  0  0
  182.2090  177.8700  137.9920 N   0  0  2  0  0  0  0  0  0  0  0  0
  183.1240  177.1800  137.0940 C   0  0  0  0  0  2  0  0  0  0  0  0
  181.9960  177.8850  141.1630 C   0  0  0  0  0  0  0  0  0  0  0  0
  183.2820  179.8820  138.9100 C   0  0  0  0  0  2  0  0  0  0  0  0
  184.5400  179.0630  139.2550 C   0  0  1  0  0  3  0  0  0  0  0  0
  179.5810  178.7860  142.1770 N   0  0  0  0  0  0  0  0  0  0  0  0
  180.7270  179.4230  142.5300 C   0  0  0  0  0  3  0  0  0  0  0  0
  179.5900  177.7180  141.3370 C   0  0  0  0  0  3  0  0  0  0  0  0
  184.4650  176.9580  137.7810 C   0  0  0  0  0  2  0  0  0  0  0  0
  179.8560  175.0090  140.1980 C   0  0  0  0  0  3  0  0  0  0  0  0
  180.8550  177.5440  137.5770 C   0  0  0  0  0  2  0  0  0  0  0  0
  183.2460  177.4430  140.6180 N   0  0  0  0  0  2  0  0  0  0  0  0
  180.2580  176.5210  138.4970 C   0  0  0  0  0  0  0  0  0  0  0  0
  184.4350  178.2870  140.5780 C   0  0  0  0  0  2  0  0  0  0  0  0
  180.8130  176.0940  139.8210 C   0  0  1  0  0  3  0  0  0  0  0  0
  178.9310  174.8710  139.2580 C   0  0  0  0  0  3  0  0  0  0  0  0
  185.1670  178.2840  138.0760 C   0  0  2  0  0  3  0  0  0  0  0  0
  182.4100  179.2980  137.7940 C   0  0  0  0  0  2  0  0  0  0  0  0
  179.1830  175.8200  138.1820 C   0  0  0  0  0  3  0  0  0  0  0  0
  186.6770  178.0730  138.2180 C   0  0  2  0  0  3  0  0  0  0  0  0
  187.1680  178.6280  139.4030 O   0  0  0  0  0  1  0  0  0  0  0  0
  187.0690  178.2310  135.7500 O   0  0  0  0  0  0  0  0  0  0  0  0
  188.4010  179.3810  137.2180 O   0  0  0  0  0  1  0  0  0  0  0  0
  187.4230  178.6080  137.0400 C   0  0  0  0  0  0  0  0  0  0  0  0
  1  5  2  0  0  0  0
  1 10  1  0  0  0  0
  2  9  2  0  0  0  0
  3  4  1  6  0  0  0
  4 11  1  0  0  0  0
  5  2  1  0  0  0  0
  7  6  1  6  0  0  0
  7 16  1  0  0  0  0
  8  9  1  0  0  0  0
 10  8  2  0  0  0  0
 11 19  1  0  0  0  0
 13  3  1  0  0  0  0
 13 15  1  0  0  0  0
 14  5  1  0  0  0  0
 15 17  1  0  0  0  0
 16 14  1  0  0  0  0
 17 12  1  1  0  0  0
 17  1  1  0  0  0  0
 18 12  2  0  0  0  0
 19 22  1  1  0  0  0
 19  7  1  0  0  0  0
 20  3  1  0  0  0  0
 20  6  1  0  0  0  0
 21 15  2  0  0  0  0
 21 18  1  0  0  0  0
 22 23  1  1  0  0  0
 24 26  2  0  0  0  0
 26 25  1  0  0  0  0
 26 22  1  0  0  0  0
M  END
>  <MODEL>
5

>  <REMARK>
 VINA RESULT:      -5.2      6.677      9.608
  Name = 
  2 active torsions:
  status: ('A' for Active; 'I' for Inactive)
    1  A    between atoms: C_1  and  C_12
    2  A    between atoms: C_1  and  C_23
                            x       y       z     vdW  Elec       q    Type
                         _______ _______ _______ _____ _____    ______ ____

>  <TORSDO>
F 2

$$$$
=
 OpenBabel11042410563D

 26 29  0  0  1  0  0  0  0  0999 V2000
  186.6650  175.3410  137.1240 C   0  0  0  0  0  0  0  0  0  0  0  0
  187.4620  177.6080  137.4430 C   0  0  0  0  0  3  0  0  0  0  0  0
  189.2800  174.3510  135.5290 N   0  0  2  0  0  0  0  0  0  0  0  0
  190.3520  173.3920  135.7610 C   0  0  0  0  0  2  0  0  0  0  0  0
  187.6780  176.2280  137.5320 C   0  0  0  0  0  0  0  0  0  0  0  0
  190.1880  176.6340  135.4700 C   0  0  0  0  0  2  0  0  0  0  0  0
  190.9780  176.3620  136.7630 C   0  0  1  0  0  3  0  0  0  0  0  0
  185.2840  177.2200  136.5550 N   0  0  0  0  0  0  0  0  0  0  0  0
  186.2470  178.0890  136.9530 C   0  0  0  0  0  3  0  0  0  0  0  0
  185.4660  175.8740  136.6210 C   0  0  0  0  0  3  0  0  0  0  0  0
  191.1740  173.8070  136.9740 C   0  0  0  0  0  2  0  0  0  0  0  0
  185.6960  173.0880  137.5650 C   0  0  0  0  0  3  0  0  0  0  0  0
  188.2210  173.6620  134.8110 C   0  0  0  0  0  2  0  0  0  0  0  0
  188.9310  175.7210  138.0100 N   0  0  0  0  0  2  0  0  0  0  0  0
  187.0950  173.3220  135.7400 C   0  0  0  0  0  0  0  0  0  0  0  0
  190.1470  176.5250  138.0460 C   0  0  0  0  0  2  0  0  0  0  0  0
  186.9060  173.8510  137.1290 C   0  0  1  0  0  3  0  0  0  0  0  0
  185.2820  172.2930  136.5890 C   0  0  0  0  0  3  0  0  0  0  0  0
  191.9070  175.1270  136.7250 C   0  0  2  0  0  3  0  0  0  0  0  0
  189.8140  175.3880  134.6600 C   0  0  0  0  0  2  0  0  0  0  0  0
  186.1630  172.4340  135.4380 C   0  0  0  0  0  3  0  0  0  0  0  0
  193.1230  175.2490  137.6470 C   0  0  2  0  0  3  0  0  0  0  0  0
  193.6770  176.5310  137.6060 O   0  0  0  0  0  1  0  0  0  0  0  0
  194.6150  174.0520  136.0310 O   0  0  0  0  0  0  0  0  0  0  0  0
  194.5990  173.4770  138.2500 O   0  0  0  0  0  1  0  0  0  0  0  0
  194.1600  174.2200  137.3340 C   0  0  0  0  0  0  0  0  0  0  0  0
  1 17  1  0  0  0  0
  1  5  1  0  0  0  0
  2  5  2  0  0  0  0
  3 20  1  6  0  0  0
  3  4  1  0  0  0  0
  4 11  1  0  0  0  0
  5 14  1  0  0  0  0
  7  6  1  6  0  0  0
  7 16  1  0  0  0  0
  8 10  1  0  0  0  0
  8  9  2  0  0  0  0
  9  2  1  0  0  0  0
 10  1  2  0  0  0  0
 13  3  1  0  0  0  0
 13 15  1  0  0  0  0
 14 16  1  0  0  0  0
 15 17  1  0  0  0  0
 17 12  1  6  0  0  0
 18 12  2  0  0  0  0
 19  7  1  0  0  0  0
 19 11  1  0  0  0  0
 19 22  1  1  0  0  0
 20  6  1  0  0  0  0
 21 15  2  0  0  0  0
 21 18  1  0  0  0  0
 22 23  1  6  0  0  0
 24 26  2  0  0  0  0
 26 22  1  0  0  0  0
 26 25  1  0  0  0  0
M  END
>  <MODEL>
6

>  <REMARK>
 VINA RESULT:      -5.2      6.142      7.804
  Name = 
  2 active torsions:
  status: ('A' for Active; 'I' for Inactive)
    1  A    between atoms: C_1  and  C_12
    2  A    between atoms: C_1  and  C_23
                            x       y       z     vdW  Elec       q    Type
                         _______ _______ _______ _____ _____    ______ ____

>  <TORSDO>
F 2

$$$$
=
 OpenBabel11042410563D

 26 29  0  0  1  0  0  0  0  0999 V2000
  190.9220  175.6190  137.7840 C   0  0  0  0  0  0  0  0  0  0  0  0
  191.6780  174.0420  136.1040 C   0  0  0  0  0  3  0  0  0  0  0  0
  187.9620  175.9300  136.5570 N   0  0  2  0  0  0  0  0  0  0  0  0
  186.6070  175.6120  136.9880 C   0  0  0  0  0  2  0  0  0  0  0  0
  190.7230  174.4350  137.0500 C   0  0  0  0  0  0  0  0  0  0  0  0
  188.5630  174.5790  134.5940 C   0  0  0  0  0  2  0  0  0  0  0  0
  188.0460  173.3110  135.2980 C   0  0  1  0  0  3  0  0  0  0  0  0
  192.9870  175.9700  136.6100 N   0  0  0  0  0  0  0  0  0  0  0  0
  192.8140  174.8260  135.9010 C   0  0  0  0  0  3  0  0  0  0  0  0
  192.0740  176.3820  137.5290 C   0  0  0  0  0  3  0  0  0  0  0  0
  186.4480  174.1060  137.1490 C   0  0  0  0  0  2  0  0  0  0  0  0
  190.4650  176.6980  139.9820 C   0  0  0  0  0  3  0  0  0  0  0  0
  188.2490  177.2910  136.9770 C   0  0  0  0  0  2  0  0  0  0  0  0
  189.5390  173.6530  137.2500 N   0  0  0  0  0  2  0  0  0  0  0  0
  189.1280  177.2890  138.1920 C   0  0  0  0  0  0  0  0  0  0  0  0
  189.0560  172.6840  136.2730 C   0  0  0  0  0  2  0  0  0  0  0  0
  189.8660  176.1090  138.7450 C   0  0  1  0  0  3  0  0  0  0  0  0
  190.1300  177.9760  140.0870 C   0  0  0  0  0  3  0  0  0  0  0  0
  186.5880  173.3840  135.8080 C   0  0  2  0  0  3  0  0  0  0  0  0
  187.9670  175.8960  135.1030 C   0  0  0  0  0  2  0  0  0  0  0  0
  189.2830  178.3520  138.9620 C   0  0  0  0  0  3  0  0  0  0  0  0
  185.8880  172.0220  135.8550 C   0  0  2  0  0  3  0  0  0  0  0  0
  186.1590  171.2630  134.7130 O   0  0  0  0  0  1  0  0  0  0  0  0
  183.7910  171.5760  137.1470 O   0  0  0  0  0  1  0  0  0  0  0  0
  183.7290  172.7940  135.2060 O   0  0  0  0  0  0  0  0  0  0  0  0
  184.4150  172.1650  136.0530 C   0  0  0  0  0  0  0  0  0  0  0  0
  1 17  1  0  0  0  0
  2  5  1  0  0  0  0
  3 20  1  6  0  0  0
  3 13  1  0  0  0  0
  3  4  1  0  0  0  0
  4 11  1  0  0  0  0
  5 14  1  0  0  0  0
  5  1  2  0  0  0  0
  6 20  1  0  0  0  0
  7  6  1  1  0  0  0
  7 19  1  0  0  0  0
  7 16  1  0  0  0  0
  8 10  2  0  0  0  0
  9  2  2  0  0  0  0
  9  8  1  0  0  0  0
 10  1  1  0  0  0  0
 12 18  2  0  0  0  0
 13 15  1  0  0  0  0
 15 17  1  0  0  0  0
 15 21  2  0  0  0  0
 16 14  1  0  0  0  0
 17 12  1  1  0  0  0
 19 22  1  1  0  0  0
 19 11  1  0  0  0  0
 21 18  1  0  0  0  0
 22 23  1  6  0  0  0
 22 26  1  0  0  0  0
 25 26  2  0  0  0  0
 26 24  1  0  0  0  0
M  END
>  <MODEL>
7

>  <REMARK>
 VINA RESULT:      -5.1      6.209      9.123
  Name = 
  2 active torsions:
  status: ('A' for Active; 'I' for Inactive)
    1  A    between atoms: C_1  and  C_12
    2  A    between atoms: C_1  and  C_23
                            x       y       z     vdW  Elec       q    Type
                         _______ _______ _______ _____ _____    ______ ____

>  <TORSDO>
F 2

$$$$
=
 OpenBabel11042410563D

 26 29  0  0  1  0  0  0  0  0999 V2000
  184.4130  173.3530  136.8190 C   0  0  0  0  0  0  0  0  0  0  0  0
  182.0570  173.8610  137.0790 C   0  0  0  0  0  3  0  0  0  0  0  0
  185.2920  176.3980  136.2550 N   0  0  2  0  0  0  0  0  0  0  0  0
  186.1100  177.3970  136.9270 C   0  0  0  0  0  2  0  0  0  0  0  0
  183.3930  174.1240  137.4050 C   0  0  0  0  0  0  0  0  0  0  0  0
  182.9460  177.1310  136.1900 C   0  0  0  0  0  2  0  0  0  0  0  0
  183.0070  177.4800  137.6890 C   0  0  1  0  0  3  0  0  0  0  0  0
  182.7490  172.1110  135.6150 N   0  0  0  0  0  0  0  0  0  0  0  0
  181.7520  172.8400  136.1790 C   0  0  0  0  0  3  0  0  0  0  0  0
  184.0560  172.3470  135.9050 C   0  0  0  0  0  3  0  0  0  0  0  0
  185.4950  177.7600  138.2720 C   0  0  0  0  0  2  0  0  0  0  0  0
  186.6960  172.4370  137.2190 C   0  0  0  0  0  3  0  0  0  0  0  0
  186.1520  175.6700  135.3360 C   0  0  0  0  0  2  0  0  0  0  0  0
  183.7210  175.1870  138.3090 N   0  0  0  0  0  2  0  0  0  0  0  0
  186.5080  174.3290  135.9050 C   0  0  0  0  0  0  0  0  0  0  0  0
  182.8000  176.2740  138.6190 C   0  0  0  0  0  2  0  0  0  0  0  0
  185.8640  173.6730  137.0880 C   0  0  1  0  0  3  0  0  0  0  0  0
  187.6230  172.4090  136.2720 C   0  0  0  0  0  3  0  0  0  0  0  0
  184.1410  178.4490  138.0980 C   0  0  2  0  0  3  0  0  0  0  0  0
  184.2990  177.1160  135.4700 C   0  0  0  0  0  2  0  0  0  0  0  0
  187.5100  173.6020  135.4430 C   0  0  0  0  0  3  0  0  0  0  0  0
  183.8060  179.2960  139.3300 C   0  0  2  0  0  3  0  0  0  0  0  0
  184.0150  180.6570  139.0930 O   0  0  0  0  0  1  0  0  0  0  0  0
  184.0470  177.8780  141.3790 O   0  0  0  0  0  1  0  0  0  0  0  0
  185.6800  179.3780  140.7990 O   0  0  0  0  0  0  0  0  0  0  0  0
  184.5700  178.8480  140.5320 C   0  0  0  0  0  0  0  0  0  0  0  0
  1 17  1  0  0  0  0
  1  5  1  0  0  0  0
  2  5  2  0  0  0  0
  3 13  1  6  0  0  0
  3  4  1  0  0  0  0
  4 11  1  0  0  0  0
  5 14  1  0  0  0  0
  7  6  1  6  0  0  0
  7 19  1  0  0  0  0
  7 16  1  0  0  0  0
  8 10  1  0  0  0  0
  8  9  2  0  0  0  0
  9  2  1  0  0  0  0
 10  1  2  0  0  0  0
 13 15  1  0  0  0  0
 14 16  1  0  0  0  0
 15 17  1  0  0  0  0
 17 12  1  6  0  0  0
 18 12  2  0  0  0  0
 19 11  1  0  0  0  0
 19 22  1  1  0  0  0
 20  6  1  0  0  0  0
 20  3  1  0  0  0  0
 21 15  2  0  0  0  0
 21 18  1  0  0  0  0
 22 23  1  6  0  0  0
 22 26  1  0  0  0  0
 26 25  2  0  0  0  0
 26 24  1  0  0  0  0
M  END
>  <MODEL>
8

>  <REMARK>
 VINA RESULT:      -5.0      6.996      8.808
  Name = 
  2 active torsions:
  status: ('A' for Active; 'I' for Inactive)
    1  A    between atoms: C_1  and  C_12
    2  A    between atoms: C_1  and  C_23
                            x       y       z     vdW  Elec       q    Type
                         _______ _______ _______ _____ _____    ______ ____

>  <TORSDO>
F 2

$$$$
=
 OpenBabel11042410563D

 26 29  0  0  1  0  0  0  0  0999 V2000
  183.5790  174.7040  136.3120 C   0  0  0  0  0  0  0  0  0  0  0  0
  182.9870  177.0480  136.1360 C   0  0  0  0  0  3  0  0  0  0  0  0
  186.6890  175.1510  135.6090 N   0  0  2  0  0  0  0  0  0  0  0  0
  187.9570  174.9930  136.3060 C   0  0  0  0  0  2  0  0  0  0  0  0
  183.8230  176.0480  136.6480 C   0  0  0  0  0  0  0  0  0  0  0  0
  186.2980  177.5230  135.0940 C   0  0  0  0  0  2  0  0  0  0  0  0
  186.6580  177.9040  136.5420 C   0  0  1  0  0  3  0  0  0  0  0  0
  181.7100  175.4010  134.9780 N   0  0  0  0  0  0  0  0  0  0  0  0
  181.9250  176.7020  135.3000 C   0  0  0  0  0  3  0  0  0  0  0  0
  182.5070  174.4080  135.4530 C   0  0  0  0  0  3  0  0  0  0  0  0
  188.0260  175.9460  137.4930 C   0  0  0  0  0  2  0  0  0  0  0  0
  183.7830  172.3720  137.1640 C   0  0  0  0  0  3  0  0  0  0  0  0
  186.4090  173.9050  134.9170 C   0  0  0  0  0  2  0  0  0  0  0  0
  184.9330  176.3930  137.4870 N   0  0  0  0  0  2  0  0  0  0  0  0
  185.3750  173.1140  135.6610 C   0  0  0  0  0  0  0  0  0  0  0  0
  185.4990  177.7350  137.5380 C   0  0  0  0  0  2  0  0  0  0  0  0
  184.5170  173.6180  136.7810 C   0  0  1  0  0  3  0  0  0  0  0  0
  184.1590  171.3650  136.3870 C   0  0  0  0  0  3  0  0  0  0  0  0
  188.0360  177.4050  137.0360 C   0  0  2  0  0  3  0  0  0  0  0  0
  186.8780  176.1900  134.6080 C   0  0  0  0  0  2  0  0  0  0  0  0
  185.1650  171.8280  135.4400 C   0  0  0  0  0  3  0  0  0  0  0  0
  188.6610  178.3010  138.1090 C   0  0  2  0  0  3  0  0  0  0  0  0
  188.9870  179.5630  137.6050 O   0  0  0  0  0  1  0  0  0  0  0  0
  190.9110  177.2140  137.9450 O   0  0  0  0  0  0  0  0  0  0  0  0
  189.8970  177.4950  139.9810 O   0  0  0  0  0  1  0  0  0  0  0  0
  189.8580  177.6610  138.7350 C   0  0  0  0  0  0  0  0  0  0  0  0
  1  5  1  0  0  0  0
  1 17  1  0  0  0  0
  2  5  2  0  0  0  0
  3 20  1  6  0  0  0
  3  4  1  0  0  0  0
  4 11  1  0  0  0  0
  5 14  1  0  0  0  0
  7  6  1  6  0  0  0
  7 19  1  0  0  0  0
  7 16  1  0  0  0  0
  8  9  2  0  0  0  0
  8 10  1  0  0  0  0
  9  2  1  0  0  0  0
 10  1  2  0  0  0  0
 13  3  1  0  0  0  0
 13 15  1  0  0  0  0
 14 16  1  0  0  0  0
 15 17  1  0  0  0  0
 17 12  1  6  0  0  0
 18 12  2  0  0  0  0
 19 11  1  0  0  0  0
 19 22  1  1  0  0  0
 20  6  1  0  0  0  0
 21 15  2  0  0  0  0
 21 18  1  0  0  0  0
 22 23  1  6  0  0  0
 22 26  1  0  0  0  0
 24 26  2  0  0  0  0
 26 25  1  0  0  0  0
M  END
>  <MODEL>
9

>  <REMARK>
 VINA RESULT:      -5.0      6.181      8.534
  Name = 
  2 active torsions:
  status: ('A' for Active; 'I' for Inactive)
    1  A    between atoms: C_1  and  C_12
    2  A    between atoms: C_1  and  C_23
                            x       y       z     vdW  Elec       q    Type
                         _______ _______ _______ _____ _____    ______ ____

>  <TORSDO>
F 2

$$$$
