=
 OpenBabel11042413103D

 32 36  0  0  1  0  0  0  0  0999 V2000
  189.4040  177.3280  140.5330 C   0  0  0  0  0  2  0  0  0  0  0  0
  182.0970  178.5940  141.3210 N   0  0  0  0  0  0  0  0  0  0  0  0
  185.6000  178.8170  142.4060 C   0  0  0  0  0  0  0  0  0  0  0  0
  187.0790  178.0330  138.0420 C   0  0  0  0  0  0  0  0  0  0  0  0
  184.5630  178.6600  141.5040 C   0  0  0  0  0  0  0  0  0  0  0  0
  183.0030  178.9390  143.2920 C   0  0  0  0  0  0  0  0  0  0  0  0
  186.6800  177.7840  136.8240 C   0  0  0  0  0  3  0  0  0  0  0  0
  186.9070  178.7040  141.7160 C   0  0  1  0  0  3  0  0  0  0  0  0
  185.3580  179.0460  143.7790 C   0  0  0  0  0  3  0  0  0  0  0  0
  187.4760  178.2790  139.2620 C   0  0  0  0  0  0  0  0  0  0  0  0
  183.2590  178.7240  141.9750 C   0  0  0  0  0  0  0  0  0  0  0  0
  181.1570  178.7330  142.2560 N   0  0  0  0  0  2  0  0  0  0  0  0
  187.6230  177.5370  142.2140 N   0  0  0  0  0  2  0  0  0  0  0  0
  184.0210  179.1090  144.2400 C   0  0  0  0  0  3  0  0  0  0  0  0
  189.0470  177.7390  141.9590 C   0  0  1  0  0  3  0  0  0  0  0  0
  185.0660  178.4370  140.1330 C   0  0  0  0  0  2  0  0  0  0  0  0
  188.9460  178.3790  139.5290 C   0  0  0  0  0  2  0  0  0  0  0  0
  186.5220  178.4790  140.3180 N   0  0  0  0  0  0  0  0  0  0  0  0
  181.6750  178.9430  143.4660 N   0  0  0  0  0  0  0  0  0  0  0  0
  187.1660  176.7750  134.7270 O   0  0  0  0  0  0  0  0  0  0  0  0
  187.3550  176.7980  135.9730 C   0  0  0  0  0  0  0  0  0  0  0  0
  188.2770  175.8110  136.5930 C   0  0  0  0  0  1  0  0  0  0  0  0
  190.0720  175.6350  142.5120 O   0  0  0  0  0  1  0  0  0  0  0  0
  189.8770  176.9450  142.9620 C   0  0  2  0  0  3  0  0  0  0  0  0
  189.8760  177.1550  145.4890 C   0  0  0  0  0  0  0  0  0  0  0  0
  189.1980  176.9260  144.2500 N   0  0  0  0  0  2  0  0  0  0  0  0
  191.1000  177.4540  145.5040 O   0  0  0  0  0  0  0  0  0  0  0  0
  187.4350  178.1220  147.9800 C   0  0  0  0  0  2  0  0  0  0  0  0
  188.7690  178.0900  148.7020 C   0  0  0  0  0  2  0  0  0  0  0  0
  187.7320  177.5410  146.6320 C   0  0  0  0  0  2  0  0  0  0  0  0
  189.1390  177.0170  146.7780 C   0  0  2  0  0  3  0  0  0  0  0  0
  189.7790  177.7500  147.7870 O   0  0  0  0  0  0  0  0  0  0  0  0
  1 15  1  0  0  0  0
  2 11  2  0  0  0  0
  2 12  1  0  0  0  0
  3  9  1  0  0  0  0
  4 10  2  0  0  0  0
  5 11  1  0  0  0  0
  5  3  2  0  0  0  0
  6 19  2  0  0  0  0
  6 14  1  0  0  0  0
  7  4  2  0  0  0  0
  8 13  1  1  0  0  0
  8  3  1  0  0  0  0
  9 14  2  0  0  0  0
 10 17  1  0  0  0  0
 10 18  1  0  0  0  0
 11  6  1  0  0  0  0
 12 19  1  0  0  0  0
 15 13  1  0  0  0  0
 15 24  1  1  0  0  0
 16 18  1  0  0  0  0
 16  5  1  0  0  0  0
 17  1  1  0  0  0  0
 18  8  1  0  0  0  0
 20 21  2  0  0  0  0
 21 22  1  0  0  0  0
 21  7  1  0  0  0  0
 24 23  1  6  0  0  0
 24 26  1  0  0  0  0
 25 27  2  0  0  0  0
 26 25  1  0  0  0  0
 28 29  1  0  0  0  0
 30 31  1  0  0  0  0
 30 28  1  0  0  0  0
 31 25  1  6  0  0  0
 31 32  1  0  0  0  0
 32 29  1  0  0  0  0
M  END
>  <MODEL>
1

>  <REMARK>
 VINA RESULT:      -9.7      0.000      0.000
  Name = 
  4 active torsions:
  status: ('A' for Active; 'I' for Inactive)
    1  A    between atoms: C_3  and  C_13
    2  A    between atoms: N_7  and  C_23
    3  A    between atoms: C_15  and  C_22
    4  A    between atoms: C_23  and  C_27
                            x       y       z     vdW  Elec       q    Type
                         _______ _______ _______ _____ _____    ______ ____

>  <TORSDO>
F 4

$$$$
=
 OpenBabel11042413103D

 32 36  0  0  1  0  0  0  0  0999 V2000
  188.9230  177.3690  139.2060 C   0  0  0  0  0  2  0  0  0  0  0  0
  188.3470  177.2510  146.6400 N   0  0  0  0  0  0  0  0  0  0  0  0
  190.2410  177.4860  143.5000 C   0  0  0  0  0  0  0  0  0  0  0  0
  186.3710  178.6870  141.1700 C   0  0  0  0  0  0  0  0  0  0  0  0
  189.1240  177.5620  144.3120 C   0  0  0  0  0  0  0  0  0  0  0  0
  190.4670  176.9070  146.1750 C   0  0  0  0  0  0  0  0  0  0  0  0
  185.0870  178.8880  141.2940 C   0  0  0  0  0  3  0  0  0  0  0  0
  189.8880  177.8270  142.1010 C   0  0  1  0  0  3  0  0  0  0  0  0
  191.5060  177.1220  144.0150 C   0  0  0  0  0  3  0  0  0  0  0  0
  187.6550  178.4820  141.0470 C   0  0  0  0  0  0  0  0  0  0  0  0
  189.2610  177.2640  145.6600 C   0  0  0  0  0  0  0  0  0  0  0  0
  189.0180  176.8850  147.7320 N   0  0  0  0  0  2  0  0  0  0  0  0
  190.0930  176.6630  141.2490 N   0  0  0  0  0  2  0  0  0  0  0  0
  191.6260  176.8220  145.3930 C   0  0  0  0  0  3  0  0  0  0  0  0
  190.2730  177.1340  139.8780 C   0  0  1  0  0  3  0  0  0  0  0  0
  187.9250  177.9660  143.5470 C   0  0  0  0  0  2  0  0  0  0  0  0
  188.2820  178.6610  139.6990 C   0  0  0  0  0  2  0  0  0  0  0  0
  188.4540  178.1230  142.1870 N   0  0  0  0  0  0  0  0  0  0  0  0
  190.3100  176.6680  147.4840 N   0  0  0  0  0  0  0  0  0  0  0  0
  183.2360  177.5750  140.5890 O   0  0  0  0  0  0  0  0  0  0  0  0
  184.1270  178.4140  140.2910 C   0  0  0  0  0  0  0  0  0  0  0  0
  184.2090  178.9340  138.9010 C   0  0  0  0  0  1  0  0  0  0  0  0
  192.1250  176.7690  138.3880 O   0  0  0  0  0  1  0  0  0  0  0  0
  191.0930  176.1260  139.0800 C   0  0  2  0  0  3  0  0  0  0  0  0
  190.6540  174.2930  137.3840 C   0  0  0  0  0  0  0  0  0  0  0  0
  190.2270  175.4310  138.1380 N   0  0  0  0  0  2  0  0  0  0  0  0
  191.8000  173.8000  137.5640 O   0  0  0  0  0  0  0  0  0  0  0  0
  187.7190  174.1980  135.2700 C   0  0  0  0  0  2  0  0  0  0  0  0
  187.6670  172.9310  136.1020 C   0  0  0  0  0  2  0  0  0  0  0  0
  189.0640  174.7830  135.5730 C   0  0  0  0  0  2  0  0  0  0  0  0
  189.7510  173.6950  136.3610 C   0  0  2  0  0  3  0  0  0  0  0  0
  188.7660  172.9110  136.9770 O   0  0  0  0  0  0  0  0  0  0  0  0
  1 17  1  0  0  0  0
  1 15  1  0  0  0  0
  2 12  1  0  0  0  0
  3  9  1  0  0  0  0
  3  5  2  0  0  0  0
  4  7  2  0  0  0  0
  5 11  1  0  0  0  0
  6 19  2  0  0  0  0
  8 13  1  6  0  0  0
  8 18  1  0  0  0  0
  8  3  1  0  0  0  0
  9 14  2  0  0  0  0
 10  4  2  0  0  0  0
 10 18  1  0  0  0  0
 11  6  1  0  0  0  0
 11  2  2  0  0  0  0
 14  6  1  0  0  0  0
 15 24  1  6  0  0  0
 15 13  1  0  0  0  0
 16  5  1  0  0  0  0
 17 10  1  0  0  0  0
 18 16  1  0  0  0  0
 19 12  1  0  0  0  0
 21 20  2  0  0  0  0
 21  7  1  0  0  0  0
 22 21  1  0  0  0  0
 24 23  1  6  0  0  0
 25 27  2  0  0  0  0
 25 26  1  0  0  0  0
 26 24  1  0  0  0  0
 28 30  1  0  0  0  0
 28 29  1  0  0  0  0
 29 32  1  0  0  0  0
 30 31  1  0  0  0  0
 31 32  1  0  0  0  0
 31 25  1  1  0  0  0
M  END
>  <MODEL>
2

>  <REMARK>
 VINA RESULT:      -8.4      3.689      7.361
  Name = 
  4 active torsions:
  status: ('A' for Active; 'I' for Inactive)
    1  A    between atoms: C_3  and  C_13
    2  A    between atoms: N_7  and  C_23
    3  A    between atoms: C_15  and  C_22
    4  A    between atoms: C_23  and  C_27
                            x       y       z     vdW  Elec       q    Type
                         _______ _______ _______ _____ _____    ______ ____

>  <TORSDO>
F 4

$$$$
=
 OpenBabel11042413103D

 32 36  0  0  1  0  0  0  0  0999 V2000
  191.2740  176.8520  141.5810 C   0  0  0  0  0  2  0  0  0  0  0  0
  185.2450  177.4500  137.2330 N   0  0  0  0  0  0  0  0  0  0  0  0
  187.3020  178.3750  140.1330 C   0  0  0  0  0  0  0  0  0  0  0  0
  191.0990  176.5360  138.1200 C   0  0  0  0  0  0  0  0  0  0  0  0
  187.0470  177.8470  138.8800 C   0  0  0  0  0  0  0  0  0  0  0  0
  184.7490  178.4510  139.1240 C   0  0  0  0  0  0  0  0  0  0  0  0
  191.5270  175.9020  137.0620 C   0  0  0  0  0  3  0  0  0  0  0  0
  188.7350  178.2170  140.4790 C   0  0  1  0  0  3  0  0  0  0  0  0
  186.2790  178.9630  140.9110 C   0  0  0  0  0  3  0  0  0  0  0  0
  190.6680  177.1680  139.1790 C   0  0  0  0  0  0  0  0  0  0  0  0
  185.7500  177.8950  138.3920 C   0  0  2  0  0  3  0  0  0  0  0  0
  183.9470  177.7450  137.2850 N   0  0  0  0  0  0  0  0  0  0  0  0
  188.8650  177.3340  141.6300 N   0  0  0  0  0  2  0  0  0  0  0  0
  184.9610  179.0030  140.3950 C   0  0  0  0  0  3  0  0  0  0  0  0
  190.1470  177.6150  142.2720 C   0  0  1  0  0  3  0  0  0  0  0  0
  188.2730  177.2950  138.2650 C   0  0  0  0  0  2  0  0  0  0  0  0
  191.6500  177.5090  140.2580 C   0  0  0  0  0  2  0  0  0  0  0  0
  189.2880  177.5560  139.2920 N   0  0  0  0  0  0  0  0  0  0  0  0
  183.6120  178.3540  138.4230 N   0  0  0  0  0  0  0  0  0  0  0  0
  192.1840  173.6380  136.7600 O   0  0  0  0  0  0  0  0  0  0  0  0
  192.4860  174.7950  137.1570 C   0  0  0  0  0  0  0  0  0  0  0  0
  193.8330  175.0450  137.7300 C   0  0  0  0  0  1  0  0  0  0  0  0
  190.6200  175.9700  143.9600 O   0  0  0  0  0  1  0  0  0  0  0  0
  190.0860  177.2450  143.7500 C   0  0  2  0  0  3  0  0  0  0  0  0
  188.3350  177.6100  145.5470 C   0  0  0  0  0  0  0  0  0  0  0  0
  188.7030  177.2800  144.2050 N   0  0  0  0  0  2  0  0  0  0  0  0
  189.2100  177.9560  146.3840 O   0  0  0  0  0  0  0  0  0  0  0  0
  184.8760  178.6730  145.6200 C   0  0  0  0  0  2  0  0  0  0  0  0
  185.3380  178.6770  147.0650 C   0  0  0  0  0  2  0  0  0  0  0  0
  186.0080  178.0360  144.8730 C   0  0  0  0  0  2  0  0  0  0  0  0
  186.9080  177.5240  145.9700 C   0  0  2  0  0  3  0  0  0  0  0  0
  186.6910  178.3020  147.1160 O   0  0  0  0  0  0  0  0  0  0  0  0
  1 15  1  0  0  0  0
  2 12  2  0  0  0  0
  3  9  1  0  0  0  0
  4 10  2  0  0  0  0
  5  3  2  0  0  0  0
  6 14  1  0  0  0  0
  7 21  1  0  0  0  0
  7  4  2  0  0  0  0
  8  3  1  6  0  0  0
  8 13  1  0  0  0  0
 10 18  1  0  0  0  0
 10 17  1  0  0  0  0
 11  2  1  1  0  0  0
 11  5  1  0  0  0  0
 11  6  1  0  0  0  0
 12 19  1  0  0  0  0
 13 15  1  0  0  0  0
 14  9  2  0  0  0  0
 15 24  1  1  0  0  0
 16  5  1  0  0  0  0
 16 18  1  0  0  0  0
 17  1  1  0  0  0  0
 18  8  1  0  0  0  0
 19  6  2  0  0  0  0
 20 21  2  0  0  0  0
 21 22  1  0  0  0  0
 24 23  1  6  0  0  0
 24 26  1  0  0  0  0
 25 27  2  0  0  0  0
 26 25  1  0  0  0  0
 28 29  1  0  0  0  0
 29 32  1  0  0  0  0
 30 28  1  0  0  0  0
 30 31  1  0  0  0  0
 31 25  1  6  0  0  0
 31 32  1  0  0  0  0
M  END
>  <MODEL>
3

>  <REMARK>
 VINA RESULT:      -8.3      2.587      3.731
  Name = 
  4 active torsions:
  status: ('A' for Active; 'I' for Inactive)
    1  A    between atoms: C_3  and  C_13
    2  A    between atoms: N_7  and  C_23
    3  A    between atoms: C_15  and  C_22
    4  A    between atoms: C_23  and  C_27
                            x       y       z     vdW  Elec       q    Type
                         _______ _______ _______ _____ _____    ______ ____

>  <TORSDO>
F 4

$$$$
=
 OpenBabel11042413103D

 32 36  0  0  1  0  0  0  0  0999 V2000
  190.5470  177.0770  142.3830 C   0  0  0  0  0  2  0  0  0  0  0  0
  184.1180  178.8440  145.7220 N   0  0  0  0  0  0  0  0  0  0  0  0
  186.1320  177.7760  142.8410 C   0  0  0  0  0  0  0  0  0  0  0  0
  189.6040  176.4370  145.6700 C   0  0  0  0  0  0  0  0  0  0  0  0
  185.8440  177.9730  144.1790 C   0  0  0  0  0  0  0  0  0  0  0  0
  183.7300  178.8970  143.5600 C   0  0  0  0  0  0  0  0  0  0  0  0
  189.9800  176.3780  146.9190 C   0  0  0  0  0  3  0  0  0  0  0  0
  187.4770  177.1730  142.6840 C   0  0  1  0  0  3  0  0  0  0  0  0
  185.2150  178.1330  141.8270 C   0  0  0  0  0  3  0  0  0  0  0  0
  189.2250  176.5000  144.4220 C   0  0  0  0  0  0  0  0  0  0  0  0
  184.6250  178.5420  144.5190 C   0  0  0  0  0  0  0  0  0  0  0  0
  182.9230  179.3780  145.4680 N   0  0  0  0  0  2  0  0  0  0  0  0
  188.3510  178.1040  141.9820 N   0  0  0  0  0  2  0  0  0  0  0  0
  183.9760  178.7120  142.1930 C   0  0  0  0  0  3  0  0  0  0  0  0
  189.4320  177.3350  141.3730 C   0  0  1  0  0  3  0  0  0  0  0  0
  186.9530  177.5180  145.0450 C   0  0  0  0  0  2  0  0  0  0  0  0
  190.1530  175.9810  143.3670 C   0  0  0  0  0  2  0  0  0  0  0  0
  187.9340  177.0270  144.0710 N   0  0  0  0  0  0  0  0  0  0  0  0
  182.6570  179.4250  144.1630 N   0  0  0  0  0  0  0  0  0  0  0  0
  191.6000  177.7550  147.9820 O   0  0  0  0  0  0  0  0  0  0  0  0
  191.3500  176.7050  147.3320 C   0  0  0  0  0  0  0  0  0  0  0  0
  192.4580  175.7810  146.9760 C   0  0  0  0  0  1  0  0  0  0  0  0
  189.0500  179.0030  139.6830 O   0  0  0  0  0  1  0  0  0  0  0  0
  189.9810  178.0730  140.1570 C   0  0  2  0  0  3  0  0  0  0  0  0
  191.6330  176.7100  138.7990 C   0  0  0  0  0  0  0  0  0  0  0  0
  190.2960  177.1150  139.1060 N   0  0  0  0  0  2  0  0  0  0  0  0
  192.6030  177.1280  139.4870 O   0  0  0  0  0  0  0  0  0  0  0  0
  190.7400  174.9340  135.7750 C   0  0  0  0  0  2  0  0  0  0  0  0
  191.2120  173.8730  136.7500 C   0  0  0  0  0  2  0  0  0  0  0  0
  191.0610  176.2290  136.4560 C   0  0  0  0  0  2  0  0  0  0  0  0
  191.8910  175.8060  137.6420 C   0  0  2  0  0  3  0  0  0  0  0  0
  191.5500  174.4860  137.9690 O   0  0  0  0  0  0  0  0  0  0  0  0
  1 17  1  0  0  0  0
  3  5  2  0  0  0  0
  4  7  2  0  0  0  0
  5 11  1  0  0  0  0
  5 16  1  0  0  0  0
  6 19  2  0  0  0  0
  6 11  1  0  0  0  0
  7 21  1  0  0  0  0
  8 13  1  6  0  0  0
  8  3  1  0  0  0  0
  8 18  1  0  0  0  0
  9 14  2  0  0  0  0
  9  3  1  0  0  0  0
 10  4  2  0  0  0  0
 11  2  2  0  0  0  0
 12  2  1  0  0  0  0
 14  6  1  0  0  0  0
 15 24  1  6  0  0  0
 15 13  1  0  0  0  0
 15  1  1  0  0  0  0
 17 10  1  0  0  0  0
 18 10  1  0  0  0  0
 18 16  1  0  0  0  0
 19 12  1  0  0  0  0
 21 20  2  0  0  0  0
 22 21  1  0  0  0  0
 24 23  1  6  0  0  0
 25 26  1  0  0  0  0
 25 27  2  0  0  0  0
 26 24  1  0  0  0  0
 28 30  1  0  0  0  0
 28 29  1  0  0  0  0
 29 32  1  0  0  0  0
 30 31  1  0  0  0  0
 31 32  1  0  0  0  0
 31 25  1  1  0  0  0
M  END
>  <MODEL>
4

>  <REMARK>
 VINA RESULT:      -8.1      2.435      7.131
  Name = 
  4 active torsions:
  status: ('A' for Active; 'I' for Inactive)
    1  A    between atoms: C_3  and  C_13
    2  A    between atoms: N_7  and  C_23
    3  A    between atoms: C_15  and  C_22
    4  A    between atoms: C_23  and  C_27
                            x       y       z     vdW  Elec       q    Type
                         _______ _______ _______ _____ _____    ______ ____

>  <TORSDO>
F 4

$$$$
=
 OpenBabel11042413103D

 32 36  0  0  1  0  0  0  0  0999 V2000
  189.3620  177.5610  142.6020 C   0  0  0  0  0  2  0  0  0  0  0  0
  182.2850  179.3810  144.0910 N   0  0  0  0  0  0  0  0  0  0  0  0
  184.9490  178.0730  141.9250 C   0  0  0  0  0  0  0  0  0  0  0  0
  187.6810  177.2850  145.6360 C   0  0  0  0  0  0  0  0  0  0  0  0
  184.3480  178.4190  143.1220 C   0  0  0  0  0  0  0  0  0  0  0  0
  182.4200  179.1430  141.9110 C   0  0  0  0  0  0  0  0  0  0  0  0
  187.7520  177.4020  146.9340 C   0  0  0  0  0  3  0  0  0  0  0  0
  186.3070  177.5280  142.1670 C   0  0  1  0  0  3  0  0  0  0  0  0
  184.2910  178.2510  140.6870 C   0  0  0  0  0  3  0  0  0  0  0  0
  187.6080  177.1720  144.3360 C   0  0  0  0  0  0  0  0  0  0  0  0
  183.0700  178.9590  143.0900 C   0  0  0  0  0  0  0  0  0  0  0  0
  181.1730  179.8140  143.4980 N   0  0  0  0  0  2  0  0  0  0  0  0
  187.3000  178.4100  141.5680 N   0  0  0  0  0  2  0  0  0  0  0  0
  182.9880  178.8030  140.6750 C   0  0  0  0  0  3  0  0  0  0  0  0
  188.5130  177.6310  141.3350 C   0  0  1  0  0  3  0  0  0  0  0  0
  185.2290  178.1350  144.2730 C   0  0  0  0  0  2  0  0  0  0  0  0
  188.7710  176.5770  143.6040 C   0  0  0  0  0  2  0  0  0  0  0  0
  186.4250  177.5800  143.6280 N   0  0  0  0  0  0  0  0  0  0  0  0
  181.2220  179.6840  142.1720 N   0  0  0  0  0  0  0  0  0  0  0  0
  188.9450  178.7620  148.4760 O   0  0  0  0  0  0  0  0  0  0  0  0
  188.9770  177.8510  147.6060 C   0  0  0  0  0  0  0  0  0  0  0  0
  190.2750  177.2200  147.2530 C   0  0  0  0  0  1  0  0  0  0  0  0
  188.4920  179.0100  139.3650 O   0  0  0  0  0  1  0  0  0  0  0  0
  189.3170  178.2400  140.1920 C   0  0  2  0  0  3  0  0  0  0  0  0
  191.3400  176.8900  139.4740 C   0  0  0  0  0  0  0  0  0  0  0  0
  189.9400  177.1780  139.4140 N   0  0  0  0  0  2  0  0  0  0  0  0
  192.0890  177.5160  140.2700 O   0  0  0  0  0  0  0  0  0  0  0  0
  192.1000  175.4060  136.2620 C   0  0  0  0  0  2  0  0  0  0  0  0
  191.3430  174.3440  137.0370 C   0  0  0  0  0  2  0  0  0  0  0  0
  192.3500  176.4880  137.2680 C   0  0  0  0  0  2  0  0  0  0  0  0
  191.9270  175.8590  138.5720 C   0  0  2  0  0  3  0  0  0  0  0  0
  190.9840  174.8600  138.2930 O   0  0  0  0  0  0  0  0  0  0  0  0
  1 17  1  0  0  0  0
  3  8  1  0  0  0  0
  3  5  2  0  0  0  0
  4  7  2  0  0  0  0
  5 16  1  0  0  0  0
  6 19  2  0  0  0  0
  6 11  1  0  0  0  0
  7 21  1  0  0  0  0
  8 13  1  6  0  0  0
  8 18  1  0  0  0  0
  9  3  1  0  0  0  0
 10  4  2  0  0  0  0
 11  5  1  0  0  0  0
 11  2  2  0  0  0  0
 12  2  1  0  0  0  0
 14  9  2  0  0  0  0
 14  6  1  0  0  0  0
 15 24  1  6  0  0  0
 15 13  1  0  0  0  0
 15  1  1  0  0  0  0
 17 10  1  0  0  0  0
 18 16  1  0  0  0  0
 18 10  1  0  0  0  0
 19 12  1  0  0  0  0
 21 20  2  0  0  0  0
 22 21  1  0  0  0  0
 24 23  1  6  0  0  0
 25 27  2  0  0  0  0
 26 25  1  0  0  0  0
 26 24  1  0  0  0  0
 28 29  1  0  0  0  0
 28 30  1  0  0  0  0
 29 32  1  0  0  0  0
 30 31  1  0  0  0  0
 31 25  1  1  0  0  0
 32 31  1  0  0  0  0
M  END
>  <MODEL>
5

>  <REMARK>
 VINA RESULT:      -8.1      2.254      6.804
  Name = 
  4 active torsions:
  status: ('A' for Active; 'I' for Inactive)
    1  A    between atoms: C_3  and  C_13
    2  A    between atoms: N_7  and  C_23
    3  A    between atoms: C_15  and  C_22
    4  A    between atoms: C_23  and  C_27
                            x       y       z     vdW  Elec       q    Type
                         _______ _______ _______ _____ _____    ______ ____

>  <TORSDO>
F 4

$$$$
=
 OpenBabel11042413103D

 32 36  0  0  1  0  0  0  0  0999 V2000
  188.9660  177.1520  136.6930 C   0  0  0  0  0  2  0  0  0  0  0  0
  191.9730  177.6710  143.4970 N   0  0  0  0  0  0  0  0  0  0  0  0
  189.1610  177.1880  141.1820 C   0  0  0  0  0  0  0  0  0  0  0  0
  192.1020  176.0580  137.7290 C   0  0  0  0  0  0  0  0  0  0  0  0
  190.4870  177.2060  141.5750 C   0  0  0  0  0  0  0  0  0  0  0  0
  189.8020  177.8890  143.7590 C   0  0  0  0  0  0  0  0  0  0  0  0
  193.3650  175.9250  137.4220 C   0  0  0  0  0  3  0  0  0  0  0  0
  189.0490  176.7940  139.7570 C   0  0  1  0  0  3  0  0  0  0  0  0
  188.1200  177.5170  142.0790 C   0  0  0  0  0  3  0  0  0  0  0  0
  190.8400  176.1960  138.0370 C   0  0  0  0  0  0  0  0  0  0  0  0
  190.7870  177.5650  142.8810 C   0  0  0  0  0  0  0  0  0  0  0  0
  191.6820  178.0580  144.7390 N   0  0  0  0  0  2  0  0  0  0  0  0
  188.5010  177.9030  138.9870 N   0  0  0  0  0  2  0  0  0  0  0  0
  188.4460  177.8790  143.4080 C   0  0  0  0  0  3  0  0  0  0  0  0
  187.9050  177.3550  137.7710 C   0  0  1  0  0  3  0  0  0  0  0  0
  191.3860  176.8220  140.4660 C   0  0  0  0  0  2  0  0  0  0  0  0
  189.8130  175.9190  136.9830 C   0  0  0  0  0  2  0  0  0  0  0  0
  190.4460  176.5720  139.3670 N   0  0  0  0  0  0  0  0  0  0  0  0
  190.3710  178.2000  144.9310 N   0  0  0  0  0  0  0  0  0  0  0  0
  194.9270  177.1290  136.0960 O   0  0  0  0  0  0  0  0  0  0  0  0
  193.9050  176.3940  136.1410 C   0  0  0  0  0  0  0  0  0  0  0  0
  193.2340  175.9930  134.8770 C   0  0  0  0  0  1  0  0  0  0  0  0
  187.3520  179.3350  136.5230 O   0  0  0  0  0  1  0  0  0  0  0  0
  186.8050  178.2820  137.2630 C   0  0  2  0  0  3  0  0  0  0  0  0
  184.7680  178.3150  138.7720 C   0  0  0  0  0  0  0  0  0  0  0  0
  186.0540  178.8120  138.3920 N   0  0  0  0  0  2  0  0  0  0  0  0
  184.2570  177.3340  138.1690 O   0  0  0  0  0  0  0  0  0  0  0  0
  183.5410  178.6370  142.1620 C   0  0  0  0  0  2  0  0  0  0  0  0
  182.3080  178.6240  141.2780 C   0  0  0  0  0  2  0  0  0  0  0  0
  184.6840  178.7160  141.1970 C   0  0  0  0  0  2  0  0  0  0  0  0
  184.0100  178.9750  139.8730 C   0  0  2  0  0  3  0  0  0  0  0  0
  182.7040  178.4690  139.9390 O   0  0  0  0  0  0  0  0  0  0  0  0
  1 17  1  0  0  0  0
  1 15  1  0  0  0  0
  2 12  1  0  0  0  0
  3  5  2  0  0  0  0
  3  9  1  0  0  0  0
  4 10  2  0  0  0  0
  5 11  1  0  0  0  0
  6 19  2  0  0  0  0
  7  4  2  0  0  0  0
  8 13  1  6  0  0  0
  8  3  1  0  0  0  0
  9 14  2  0  0  0  0
 10 18  1  0  0  0  0
 11  2  2  0  0  0  0
 11  6  1  0  0  0  0
 12 19  1  0  0  0  0
 14  6  1  0  0  0  0
 15 24  1  6  0  0  0
 15 13  1  0  0  0  0
 16  5  1  0  0  0  0
 17 10  1  0  0  0  0
 18  8  1  0  0  0  0
 18 16  1  0  0  0  0
 20 21  2  0  0  0  0
 21  7  1  0  0  0  0
 22 21  1  0  0  0  0
 24 23  1  1  0  0  0
 24 26  1  0  0  0  0
 26 25  1  0  0  0  0
 27 25  2  0  0  0  0
 29 28  1  0  0  0  0
 30 28  1  0  0  0  0
 31 25  1  6  0  0  0
 31 32  1  0  0  0  0
 31 30  1  0  0  0  0
 32 29  1  0  0  0  0
M  END
>  <MODEL>
6

>  <REMARK>
 VINA RESULT:      -8.1      3.991      6.967
  Name = 
  4 active torsions:
  status: ('A' for Active; 'I' for Inactive)
    1  A    between atoms: C_3  and  C_13
    2  A    between atoms: N_7  and  C_23
    3  A    between atoms: C_15  and  C_22
    4  A    between atoms: C_23  and  C_27
                            x       y       z     vdW  Elec       q    Type
                         _______ _______ _______ _____ _____    ______ ____

>  <TORSDO>
F 4

$$$$
=
 OpenBabel11042413103D

 32 36  0  0  1  0  0  0  0  0999 V2000
  187.1660  177.9580  142.5990 C   0  0  0  0  0  2  0  0  0  0  0  0
  180.4730  178.0470  139.3110 N   0  0  0  0  0  0  0  0  0  0  0  0
  182.7930  178.8350  142.0490 C   0  0  0  0  0  0  0  0  0  0  0  0
  186.4590  178.2650  139.2060 C   0  0  0  0  0  0  0  0  0  0  0  0
  182.4280  178.5070  140.7560 C   0  0  0  0  0  0  0  0  0  0  0  0
  180.1340  178.5470  141.4230 C   0  0  0  0  0  0  0  0  0  0  0  0
  186.8080  177.9470  137.9890 C   0  0  0  0  0  3  0  0  0  0  0  0
  184.2680  178.9270  142.1620 C   0  0  1  0  0  3  0  0  0  0  0  0
  181.8280  179.0320  143.0630 C   0  0  0  0  0  3  0  0  0  0  0  0
  186.1080  178.5800  140.4240 C   0  0  0  0  0  0  0  0  0  0  0  0
  181.0790  178.3660  140.4640 C   0  0  2  0  0  3  0  0  0  0  0  0
  179.1710  178.0410  139.5960 N   0  0  0  0  0  0  0  0  0  0  0  0
  184.7540  177.8930  143.0670 N   0  0  0  0  0  2  0  0  0  0  0  0
  180.4570  178.8840  142.7450 C   0  0  0  0  0  3  0  0  0  0  0  0
  186.0530  178.3170  143.5810 C   0  0  1  0  0  3  0  0  0  0  0  0
  183.6090  178.3580  139.8800 C   0  0  0  0  0  2  0  0  0  0  0  0
  187.1810  178.9160  141.4130 C   0  0  0  0  0  2  0  0  0  0  0  0
  184.7210  178.6330  140.7980 N   0  0  0  0  0  0  0  0  0  0  0  0
  178.9310  178.3400  140.8730 N   0  0  0  0  0  0  0  0  0  0  0  0
  187.9040  176.1990  136.8090 O   0  0  0  0  0  0  0  0  0  0  0  0
  187.9550  177.0740  137.7140 C   0  0  0  0  0  0  0  0  0  0  0  0
  189.1960  177.2270  138.5170 C   0  0  0  0  0  1  0  0  0  0  0  0
  185.7230  178.4200  145.9600 O   0  0  0  0  0  1  0  0  0  0  0  0
  186.3170  177.6740  144.9380 C   0  0  2  0  0  3  0  0  0  0  0  0
  188.3300  177.4950  146.4700 C   0  0  0  0  0  0  0  0  0  0  0  0
  187.7530  177.5850  145.1640 N   0  0  0  0  0  2  0  0  0  0  0  0
  187.5950  177.4200  147.4910 O   0  0  0  0  0  0  0  0  0  0  0  0
  191.7260  176.5890  145.6080 C   0  0  0  0  0  2  0  0  0  0  0  0
  191.5400  176.1610  147.0510 C   0  0  0  0  0  2  0  0  0  0  0  0
  190.4850  177.3650  145.2910 C   0  0  0  0  0  2  0  0  0  0  0  0
  189.8120  177.5140  146.6330 C   0  0  2  0  0  3  0  0  0  0  0  0
  190.2260  176.4540  147.4520 O   0  0  0  0  0  0  0  0  0  0  0  0
  1 15  1  0  0  0  0
  2 12  2  0  0  0  0
  3  9  1  0  0  0  0
  4 10  2  0  0  0  0
  5  3  2  0  0  0  0
  6 14  1  0  0  0  0
  7  4  2  0  0  0  0
  8  3  1  6  0  0  0
  8 13  1  0  0  0  0
 10 18  1  0  0  0  0
 10 17  1  0  0  0  0
 11  2  1  1  0  0  0
 11  5  1  0  0  0  0
 11  6  1  0  0  0  0
 12 19  1  0  0  0  0
 13 15  1  0  0  0  0
 14  9  2  0  0  0  0
 15 24  1  1  0  0  0
 16  5  1  0  0  0  0
 16 18  1  0  0  0  0
 17  1  1  0  0  0  0
 18  8  1  0  0  0  0
 19  6  2  0  0  0  0
 20 21  2  0  0  0  0
 21  7  1  0  0  0  0
 21 22  1  0  0  0  0
 24 26  1  0  0  0  0
 24 23  1  1  0  0  0
 25 27  2  0  0  0  0
 26 25  1  0  0  0  0
 28 29  1  0  0  0  0
 29 32  1  0  0  0  0
 30 28  1  0  0  0  0
 30 31  1  0  0  0  0
 31 25  1  6  0  0  0
 31 32  1  0  0  0  0
M  END
>  <MODEL>
7

>  <REMARK>
 VINA RESULT:      -7.7      2.011      3.046
  Name = 
  4 active torsions:
  status: ('A' for Active; 'I' for Inactive)
    1  A    between atoms: C_3  and  C_13
    2  A    between atoms: N_7  and  C_23
    3  A    between atoms: C_15  and  C_22
    4  A    between atoms: C_23  and  C_27
                            x       y       z     vdW  Elec       q    Type
                         _______ _______ _______ _____ _____    ______ ____

>  <TORSDO>
F 4

$$$$
=
 OpenBabel11042413103D

 32 36  0  0  1  0  0  0  0  0999 V2000
  189.0420  176.2030  136.8770 C   0  0  0  0  0  2  0  0  0  0  0  0
  188.6000  178.0870  144.0790 N   0  0  0  0  0  0  0  0  0  0  0  0
  190.4430  177.3900  140.9780 C   0  0  0  0  0  0  0  0  0  0  0  0
  186.5890  178.1160  138.4350 C   0  0  0  0  0  0  0  0  0  0  0  0
  189.3460  177.7320  141.7470 C   0  0  0  0  0  0  0  0  0  0  0  0
  190.6930  177.5300  143.7100 C   0  0  0  0  0  0  0  0  0  0  0  0
  185.3180  178.4050  138.5100 C   0  0  0  0  0  3  0  0  0  0  0  0
  190.0810  177.3640  139.5410 C   0  0  1  0  0  3  0  0  0  0  0  0
  191.7000  177.1130  141.5640 C   0  0  0  0  0  3  0  0  0  0  0  0
  187.8600  177.8240  138.3640 C   0  0  0  0  0  0  0  0  0  0  0  0
  189.4950  177.7950  143.1250 C   0  0  0  0  0  0  0  0  0  0  0  0
  189.2740  177.9910  145.2250 N   0  0  0  0  0  2  0  0  0  0  0  0
  190.2160  176.0080  139.0270 N   0  0  0  0  0  2  0  0  0  0  0  0
  191.8330  177.1840  142.9710 C   0  0  0  0  0  3  0  0  0  0  0  0
  190.3920  176.0890  137.5800 C   0  0  1  0  0  3  0  0  0  0  0  0
  188.1530  177.9760  140.9100 C   0  0  0  0  0  2  0  0  0  0  0  0
  188.4700  177.6080  137.0130 C   0  0  0  0  0  2  0  0  0  0  0  0
  188.6630  177.7410  139.5540 N   0  0  0  0  0  0  0  0  0  0  0  0
  190.5490  177.6540  145.0360 N   0  0  0  0  0  0  0  0  0  0  0  0
  183.0910  177.7920  137.9490 O   0  0  0  0  0  0  0  0  0  0  0  0
  184.3190  177.7290  137.6740 C   0  0  0  0  0  0  0  0  0  0  0  0
  184.7650  176.9600  136.4840 C   0  0  0  0  0  1  0  0  0  0  0  0
  190.4990  173.6900  137.4550 O   0  0  0  0  0  1  0  0  0  0  0  0
  191.1510  174.8670  137.0730 C   0  0  2  0  0  3  0  0  0  0  0  0
  193.6640  175.0610  136.7960 C   0  0  0  0  0  0  0  0  0  0  0  0
  192.5040  174.8760  137.6120 N   0  0  0  0  0  2  0  0  0  0  0  0
  193.5490  175.2950  135.5630 O   0  0  0  0  0  0  0  0  0  0  0  0
  196.4180  173.3120  138.3620 C   0  0  0  0  0  2  0  0  0  0  0  0
  196.0500  174.4340  139.3130 C   0  0  0  0  0  2  0  0  0  0  0  0
  195.6030  173.5870  137.1350 C   0  0  0  0  0  2  0  0  0  0  0  0
  195.0240  174.9540  137.3980 C   0  0  2  0  0  3  0  0  0  0  0  0
  194.9590  175.1460  138.7850 O   0  0  0  0  0  0  0  0  0  0  0  0
  1 17  1  0  0  0  0
  1 15  1  0  0  0  0
  2 12  1  0  0  0  0
  3  9  1  0  0  0  0
  3  5  2  0  0  0  0
  4  7  2  0  0  0  0
  5 11  1  0  0  0  0
  6 19  2  0  0  0  0
  8 13  1  1  0  0  0
  8 18  1  0  0  0  0
  8  3  1  0  0  0  0
  9 14  2  0  0  0  0
 10  4  2  0  0  0  0
 10 18  1  0  0  0  0
 11  6  1  0  0  0  0
 11  2  2  0  0  0  0
 14  6  1  0  0  0  0
 15 24  1  6  0  0  0
 15 13  1  0  0  0  0
 16  5  1  0  0  0  0
 17 10  1  0  0  0  0
 18 16  1  0  0  0  0
 19 12  1  0  0  0  0
 21 20  2  0  0  0  0
 21  7  1  0  0  0  0
 22 21  1  0  0  0  0
 24 23  1  1  0  0  0
 24 26  1  0  0  0  0
 25 26  1  0  0  0  0
 27 25  2  0  0  0  0
 28 29  1  0  0  0  0
 30 31  1  0  0  0  0
 30 28  1  0  0  0  0
 31 25  1  1  0  0  0
 31 32  1  0  0  0  0
 32 29  1  0  0  0  0
M  END
>  <MODEL>
8

>  <REMARK>
 VINA RESULT:      -7.6      4.409      7.351
  Name = 
  4 active torsions:
  status: ('A' for Active; 'I' for Inactive)
    1  A    between atoms: C_3  and  C_13
    2  A    between atoms: N_7  and  C_23
    3  A    between atoms: C_15  and  C_22
    4  A    between atoms: C_23  and  C_27
                            x       y       z     vdW  Elec       q    Type
                         _______ _______ _______ _____ _____    ______ ____

>  <TORSDO>
F 4

$$$$
=
 OpenBabel11042413103D

 32 36  0  0  1  0  0  0  0  0999 V2000
  186.9060  178.2680  142.4600 C   0  0  0  0  0  2  0  0  0  0  0  0
  183.0820  177.4090  136.1160 N   0  0  0  0  0  0  0  0  0  0  0  0
  183.6150  178.8440  139.4550 C   0  0  0  0  0  0  0  0  0  0  0  0
  188.1710  177.8220  139.2490 C   0  0  0  0  0  0  0  0  0  0  0  0
  183.9780  178.2370  138.2670 C   0  0  0  0  0  0  0  0  0  0  0  0
  181.7010  178.3320  137.5540 C   0  0  0  0  0  0  0  0  0  0  0  0
  189.0930  177.2670  138.5100 C   0  0  0  0  0  3  0  0  0  0  0  0
  184.7970  179.0130  140.3340 C   0  0  1  0  0  3  0  0  0  0  0  0
  182.2760  179.2160  139.7170 C   0  0  0  0  0  3  0  0  0  0  0  0
  187.2460  178.3740  139.9880 C   0  0  0  0  0  0  0  0  0  0  0  0
  182.9940  177.9870  137.3220 C   0  0  2  0  0  3  0  0  0  0  0  0
  181.8370  177.4150  135.6400 N   0  0  0  0  0  0  0  0  0  0  0  0
  184.6280  178.2130  141.5390 N   0  0  0  0  0  2  0  0  0  0  0  0
  181.2870  178.9530  138.7400 C   0  0  0  0  0  3  0  0  0  0  0  0
  185.4750  178.7850  142.5820 C   0  0  1  0  0  3  0  0  0  0  0  0
  185.4280  177.9490  138.2270 C   0  0  0  0  0  2  0  0  0  0  0  0
  187.6400  178.9520  141.3130 C   0  0  0  0  0  2  0  0  0  0  0  0
  185.8870  178.4540  139.5260 N   0  0  0  0  0  0  0  0  0  0  0  0
  180.9720  177.9690  136.4900 N   0  0  0  0  0  0  0  0  0  0  0  0
  190.5990  175.4300  138.4300 O   0  0  0  0  0  0  0  0  0  0  0  0
  190.1280  176.3990  139.0830 C   0  0  0  0  0  0  0  0  0  0  0  0
  190.6270  176.6690  140.4560 C   0  0  0  0  0  1  0  0  0  0  0  0
  184.4650  179.6140  144.6010 O   0  0  0  0  0  1  0  0  0  0  0  0
  184.9090  178.4530  143.9590 C   0  0  2  0  0  3  0  0  0  0  0  0
  186.1730  178.1420  146.1360 C   0  0  0  0  0  0  0  0  0  0  0  0
  185.9360  177.8080  144.7650 N   0  0  0  0  0  2  0  0  0  0  0  0
  185.4390  178.9800  146.7260 O   0  0  0  0  0  0  0  0  0  0  0  0
  189.0500  178.1530  148.3310 C   0  0  0  0  0  2  0  0  0  0  0  0
  189.5380  177.5730  147.0170 C   0  0  0  0  0  2  0  0  0  0  0  0
  187.5650  178.2550  148.1600 C   0  0  0  0  0  2  0  0  0  0  0  0
  187.3090  177.5160  146.8700 C   0  0  2  0  0  3  0  0  0  0  0  0
  188.4760  177.5650  146.0960 O   0  0  0  0  0  0  0  0  0  0  0  0
  1 15  1  0  0  0  0
  3  9  1  0  0  0  0
  4 10  2  0  0  0  0
  5  3  2  0  0  0  0
  6 14  1  0  0  0  0
  7 21  1  0  0  0  0
  7  4  2  0  0  0  0
  8  3  1  6  0  0  0
  8 13  1  0  0  0  0
 10 17  1  0  0  0  0
 11  2  1  1  0  0  0
 11  6  1  0  0  0  0
 11  5  1  0  0  0  0
 12  2  2  0  0  0  0
 12 19  1  0  0  0  0
 13 15  1  0  0  0  0
 14  9  2  0  0  0  0
 15 24  1  1  0  0  0
 16  5  1  0  0  0  0
 16 18  1  0  0  0  0
 17  1  1  0  0  0  0
 18 10  1  0  0  0  0
 18  8  1  0  0  0  0
 19  6  2  0  0  0  0
 20 21  2  0  0  0  0
 21 22  1  0  0  0  0
 24 23  1  1  0  0  0
 24 26  1  0  0  0  0
 25 27  2  0  0  0  0
 26 25  1  0  0  0  0
 29 28  1  0  0  0  0
 30 28  1  0  0  0  0
 31 25  1  6  0  0  0
 31 30  1  0  0  0  0
 32 31  1  0  0  0  0
 32 29  1  0  0  0  0
M  END
>  <MODEL>
9

>  <REMARK>
 VINA RESULT:      -7.6      2.881      4.183
  Name = 
  4 active torsions:
  status: ('A' for Active; 'I' for Inactive)
    1  A    between atoms: C_3  and  C_13
    2  A    between atoms: N_7  and  C_23
    3  A    between atoms: C_15  and  C_22
    4  A    between atoms: C_23  and  C_27
                            x       y       z     vdW  Elec       q    Type
                         _______ _______ _______ _____ _____    ______ ____

>  <TORSDO>
F 4

$$$$
