=
 OpenBabel11042411433D

 40 45  0  0  1  0  0  0  0  0999 V2000
  188.2150  176.4350  136.9340 C   0  0  0  0  0  3  0  0  0  0  0  0
  187.5380  177.1840  137.8990 C   0  0  0  0  0  0  0  0  0  0  0  0
  190.1470  176.2680  138.4060 C   0  0  0  0  0  0  0  0  0  0  0  0
  188.1610  177.4810  139.1130 C   0  0  0  0  0  3  0  0  0  0  0  0
  189.5080  175.9750  137.1890 C   0  0  0  0  0  3  0  0  0  0  0  0
  189.4580  177.0260  139.3750 C   0  0  0  0  0  0  0  0  0  0  0  0
  190.1000  175.9530  142.6980 C   0  0  0  0  0  2  0  0  0  0  0  0
  190.0640  177.3510  140.6240 N   0  0  0  0  0  0  0  0  0  0  0  0
  189.0620  178.6870  142.4360 C   0  0  0  0  0  2  0  0  0  0  0  0
  188.6100  177.7640  143.5590 C   0  0  1  0  0  3  0  0  0  0  0  0
  190.3830  178.2920  141.7520 C   0  0  1  0  0  3  0  0  0  0  0  0
  190.8550  176.9810  141.8350 C   0  0  1  0  0  3  0  0  0  0  0  0
  188.6710  176.3280  143.0770 C   0  0  0  0  0  2  0  0  0  0  0  0
  189.4260  177.9700  144.8320 C   0  0  0  0  0  2  0  0  0  0  0  0
  188.8480  177.1610  145.9930 C   0  0  2  0  0  3  0  0  0  0  0  0
  187.5820  177.6520  146.3080 O   0  0  0  0  0  1  0  0  0  0  0  0
  189.3060  178.0160  148.4320 C   0  0  0  0  0  1  0  0  0  0  0  0
  191.9050  177.1020  148.2220 O   0  0  0  0  0  1  0  0  0  0  0  0
  190.0640  175.8470  147.6830 O   0  0  0  0  0  0  0  0  0  0  0  0
  189.7200  177.1420  147.2580 C   0  0  1  0  0  0  0  0  0  0  0  0
  191.1170  176.6370  147.1670 C   0  0  1  0  0  3  0  0  0  0  0  0
  191.5360  175.7550  138.6980 C   0  0  1  0  0  3  0  0  0  0  0  0
  192.0070  174.8620  137.5910 C   0  0  0  0  0  2  0  0  0  0  0  0
  192.5680  176.7050  138.3050 N   0  0  0  0  0  2  0  0  0  0  0  0
  193.0040  175.8680  137.2550 N   0  0  0  0  0  0  0  0  0  0  0  0
  194.8740  174.8440  135.4380 O   0  0  0  0  0  0  0  0  0  0  0  0
  195.1870  174.8700  136.6590 C   0  0  0  0  0  0  0  0  0  0  0  0
  194.2600  175.3640  137.6290 N   0  0  0  0  0  2  0  0  0  0  0  0
  196.4710  174.0170  138.5870 C   0  0  0  0  0  2  0  0  0  0  0  0
  196.3460  172.8980  137.5780 C   0  0  0  0  0  2  0  0  0  0  0  0
  196.5080  174.3310  137.1020 C   0  0  0  0  0  3  0  0  0  0  0  0
  186.1710  177.6980  137.6180 C   0  0  0  0  0  2  0  0  0  0  0  0
  185.9940  178.9560  138.2540 O   0  0  0  0  0  0  0  0  0  0  0  0
  184.2040  180.1530  139.0820 O   0  0  0  0  0  0  0  0  0  0  0  0
  184.9850  179.1700  139.1930 C   0  0  0  0  0  0  0  0  0  0  0  0
  184.8430  178.2550  140.2820 N   0  0  0  0  0  2  0  0  0  0  0  0
  183.8450  178.4280  141.3270 C   0  0  0  0  0  2  0  0  0  0  0  0
  184.5170  178.4590  142.6860 C   0  0  0  0  0  2  0  0  0  0  0  0
  183.5250  178.9280  143.7290 C   0  0  0  0  0  2  0  0  0  0  0  0
  184.1690  178.8730  145.0980 C   0  0  0  0  0  1  0  0  0  0  0  0
  1  5  2  0  0  0  0
  1  2  1  0  0  0  0
  2  4  2  0  0  0  0
  3  6  2  0  0  0  0
  4  6  1  0  0  0  0
  5  3  1  0  0  0  0
  6  8  1  0  0  0  0
  7 13  1  0  0  0  0
  8 11  1  0  0  0  0
  8 12  1  0  0  0  0
  9 10  1  0  0  0  0
 10 14  1  1  0  0  0
 11 12  1  0  0  0  0
 11  9  1  1  0  0  0
 12  7  1  1  0  0  0
 13 10  1  0  0  0  0
 14 15  1  0  0  0  0
 15 16  1  1  0  0  0
 15 20  1  0  0  0  0
 20 19  1  0  0  0  0
 20 17  1  1  0  0  0
 21 20  1  0  0  0  0
 21 19  1  0  0  0  0
 21 18  1  1  0  0  0
 22  3  1  6  0  0  0
 23 22  1  0  0  0  0
 24 22  1  0  0  0  0
 25 23  1  0  0  0  0
 25 28  1  0  0  0  0
 25 24  1  0  0  0  0
 26 27  2  0  0  0  0
 27 31  1  0  0  0  0
 27 28  1  0  0  0  0
 30 29  1  0  0  0  0
 31 30  1  0  0  0  0
 31 29  1  0  0  0  0
 32  2  1  0  0  0  0
 32 33  1  0  0  0  0
 33 35  1  0  0  0  0
 34 35  2  0  0  0  0
 35 36  1  0  0  0  0
 36 37  1  0  0  0  0
 37 38  1  0  0  0  0
 38 39  1  0  0  0  0
 39 40  1  0  0  0  0
M  END
>  <MODEL>
1

>  <REMARK>
 VINA RESULT:      -7.9      0.000      0.000
  Name = 
  13 active torsions:
  status: ('A' for Active; 'I' for Inactive)
    1  A    between atoms: C_2  and  C_10
    2  A    between atoms: C_4  and  C_14
    3  A    between atoms: C_4  and  C_36
    4  A    between atoms: C_8  and  C_17
    5  A    between atoms: C_9  and  C_23
    6  A    between atoms: C_9  and  N_33
    7  A    between atoms: N_12  and  C_22
    8  A    between atoms: C_14  and  C_30
    9  A    between atoms: C_15  and  C_37
   10  A    between atoms: C_17  and  O_34
   11  A    between atoms: C_18  and  O_34
   12  A    between atoms: C_19  and  C_23
   13  A    between atoms: N_27  and  N_38
                            x       y       z     vdW  Elec       q    Type
                         _______ _______ _______ _____ _____    ______ ____

>  <TORSDO>
F 13

$$$$
=
 OpenBabel11042411433D

 40 45  0  0  1  0  0  0  0  0999 V2000
  184.7710  178.3580  142.2540 C   0  0  0  0  0  3  0  0  0  0  0  0
  184.6120  178.6180  140.8910 C   0  0  0  0  0  0  0  0  0  0  0  0
  187.1790  178.1610  141.9450 C   0  0  0  0  0  0  0  0  0  0  0  0
  185.7290  178.6470  140.0530 C   0  0  0  0  0  3  0  0  0  0  0  0
  186.0470  178.1370  142.7770 C   0  0  0  0  0  3  0  0  0  0  0  0
  187.0100  178.4240  140.5700 C   0  0  0  0  0  0  0  0  0  0  0  0
  188.1230  177.9790  137.2280 C   0  0  0  0  0  2  0  0  0  0  0  0
  188.1260  178.4570  139.6830 N   0  0  0  0  0  0  0  0  0  0  0  0
  189.7330  176.6320  139.2810 C   0  0  0  0  0  2  0  0  0  0  0  0
  189.4310  175.9740  137.9420 C   0  0  1  0  0  3  0  0  0  0  0  0
  189.5530  178.1610  139.3180 C   0  0  1  0  0  3  0  0  0  0  0  0
  188.7510  178.7990  138.3710 C   0  0  1  0  0  3  0  0  0  0  0  0
  188.0900  176.4690  137.4370 C   0  0  0  0  0  2  0  0  0  0  0  0
  190.5440  176.2120  136.9250 C   0  0  0  0  0  2  0  0  0  0  0  0
  191.5040  175.0230  136.8730 C   0  0  2  0  0  3  0  0  0  0  0  0
  190.9950  173.9890  137.6580 O   0  0  0  0  0  1  0  0  0  0  0  0
  193.1720  176.5540  138.2020 C   0  0  0  0  0  1  0  0  0  0  0  0
  195.2600  175.4690  136.7520 O   0  0  0  0  0  1  0  0  0  0  0  0
  193.6430  174.2190  137.7910 O   0  0  0  0  0  0  0  0  0  0  0  0
  192.9420  175.3410  137.3140 C   0  0  1  0  0  0  0  0  0  0  0  0
  194.0780  174.7510  136.5560 C   0  0  1  0  0  3  0  0  0  0  0  0
  188.5620  177.9470  142.5080 C   0  0  1  0  0  3  0  0  0  0  0  0
  188.5940  178.2920  143.9650 C   0  0  0  0  0  2  0  0  0  0  0  0
  188.7960  176.5590  142.8810 N   0  0  0  0  0  2  0  0  0  0  0  0
  188.8130  176.8820  144.2550 N   0  0  0  0  0  0  0  0  0  0  0  0
  189.5760  176.8880  146.9500 O   0  0  0  0  0  0  0  0  0  0  0  0
  190.4750  176.7300  146.0810 C   0  0  0  0  0  0  0  0  0  0  0  0
  190.1410  176.7400  144.6910 N   0  0  0  0  0  2  0  0  0  0  0  0
  191.9880  175.7820  147.7840 C   0  0  0  0  0  2  0  0  0  0  0  0
  192.3060  175.1250  146.4600 C   0  0  0  0  0  2  0  0  0  0  0  0
  191.9010  176.5880  146.5010 C   0  0  0  0  0  3  0  0  0  0  0  0
  183.2520  178.8260  140.3280 C   0  0  0  0  0  2  0  0  0  0  0  0
  183.2730  179.9200  139.4220 O   0  0  0  0  0  0  0  0  0  0  0  0
  181.2620  179.4360  138.3980 O   0  0  0  0  0  0  0  0  0  0  0  0
  182.1460  180.2880  138.6870 C   0  0  0  0  0  0  0  0  0  0  0  0
  182.0000  181.6480  138.2700 N   0  0  0  0  0  2  0  0  0  0  0  0
  180.8780  182.1060  137.4660 C   0  0  0  0  0  2  0  0  0  0  0  0
  180.6160  183.5760  137.7310 C   0  0  0  0  0  2  0  0  0  0  0  0
  181.3680  184.4120  136.7180 C   0  0  0  0  0  2  0  0  0  0  0  0
  180.7330  184.2440  135.3530 C   0  0  0  0  0  1  0  0  0  0  0  0
  1  5  1  0  0  0  0
  2  1  2  0  0  0  0
  3  5  2  0  0  0  0
  4  6  2  0  0  0  0
  4  2  1  0  0  0  0
  6  3  1  0  0  0  0
  7 13  1  0  0  0  0
  8  6  1  0  0  0  0
 10 14  1  6  0  0  0
 10  9  1  0  0  0  0
 11  9  1  6  0  0  0
 11  8  1  0  0  0  0
 12  7  1  6  0  0  0
 12 11  1  0  0  0  0
 12  8  1  0  0  0  0
 13 10  1  0  0  0  0
 15 14  1  0  0  0  0
 15 20  1  0  0  0  0
 15 16  1  1  0  0  0
 20 19  1  0  0  0  0
 20 17  1  1  0  0  0
 21 18  1  1  0  0  0
 21 20  1  0  0  0  0
 21 19  1  0  0  0  0
 22  3  1  1  0  0  0
 22 24  1  0  0  0  0
 22 23  1  0  0  0  0
 23 25  1  0  0  0  0
 24 25  1  0  0  0  0
 25 28  1  0  0  0  0
 27 31  1  0  0  0  0
 27 26  2  0  0  0  0
 28 27  1  0  0  0  0
 30 31  1  0  0  0  0
 30 29  1  0  0  0  0
 31 29  1  0  0  0  0
 32  2  1  0  0  0  0
 33 32  1  0  0  0  0
 34 35  2  0  0  0  0
 35 33  1  0  0  0  0
 36 35  1  0  0  0  0
 37 38  1  0  0  0  0
 37 36  1  0  0  0  0
 39 38  1  0  0  0  0
 40 39  1  0  0  0  0
M  END
>  <MODEL>
2

>  <REMARK>
 VINA RESULT:      -7.4      2.894      7.816
  Name = 
  13 active torsions:
  status: ('A' for Active; 'I' for Inactive)
    1  A    between atoms: C_2  and  C_10
    2  A    between atoms: C_4  and  C_14
    3  A    between atoms: C_4  and  C_36
    4  A    between atoms: C_8  and  C_17
    5  A    between atoms: C_9  and  C_23
    6  A    between atoms: C_9  and  N_33
    7  A    between atoms: N_12  and  C_22
    8  A    between atoms: C_14  and  C_30
    9  A    between atoms: C_15  and  C_37
   10  A    between atoms: C_17  and  O_34
   11  A    between atoms: C_18  and  O_34
   12  A    between atoms: C_19  and  C_23
   13  A    between atoms: N_27  and  N_38
                            x       y       z     vdW  Elec       q    Type
                         _______ _______ _______ _____ _____    ______ ____

>  <TORSDO>
F 13

$$$$
=
 OpenBabel11042411433D

 40 45  0  0  1  0  0  0  0  0999 V2000
  188.8120  177.5370  137.2260 C   0  0  0  0  0  3  0  0  0  0  0  0
  188.0690  177.9990  138.3150 C   0  0  0  0  0  0  0  0  0  0  0  0
  190.6330  176.9180  138.7200 C   0  0  0  0  0  0  0  0  0  0  0  0
  188.6040  177.9280  139.6030 C   0  0  0  0  0  3  0  0  0  0  0  0
  190.0820  176.9950  137.4290 C   0  0  0  0  0  3  0  0  0  0  0  0
  189.8770  177.3880  139.8140 C   0  0  0  0  0  0  0  0  0  0  0  0
  190.0380  175.5230  142.8300 C   0  0  0  0  0  2  0  0  0  0  0  0
  190.3920  177.3340  141.1420 N   0  0  0  0  0  0  0  0  0  0  0  0
  189.3960  178.3710  143.1440 C   0  0  0  0  0  2  0  0  0  0  0  0
  188.7180  177.3000  143.9870 C   0  0  1  0  0  3  0  0  0  0  0  0
  190.7160  177.9440  142.4770 C   0  0  1  0  0  3  0  0  0  0  0  0
  191.0030  176.5910  142.2840 C   0  0  1  0  0  3  0  0  0  0  0  0
  188.6400  176.0140  143.1880 C   0  0  0  0  0  2  0  0  0  0  0  0
  189.4220  177.0950  145.3250 C   0  0  0  0  0  2  0  0  0  0  0  0
  188.9080  178.0810  146.3740 C   0  0  2  0  0  3  0  0  0  0  0  0
  189.5680  177.8540  147.5800 O   0  0  0  0  0  1  0  0  0  0  0  0
  186.5420  177.1850  145.6710 C   0  0  0  0  0  1  0  0  0  0  0  0
  185.3790  179.2030  147.1580 O   0  0  0  0  0  1  0  0  0  0  0  0
  187.0320  177.8260  147.9490 O   0  0  0  0  0  0  0  0  0  0  0  0
  187.3880  178.0350  146.6050 C   0  0  1  0  0  0  0  0  0  0  0  0
  186.7480  179.1040  147.4180 C   0  0  1  0  0  3  0  0  0  0  0  0
  191.9950  176.3110  138.9490 C   0  0  1  0  0  3  0  0  0  0  0  0
  192.2510  175.2120  137.9640 C   0  0  0  0  0  2  0  0  0  0  0  0
  193.0530  177.0740  138.2990 N   0  0  0  0  0  2  0  0  0  0  0  0
  193.2860  176.0420  137.3640 N   0  0  0  0  0  0  0  0  0  0  0  0
  194.9760  174.8300  135.4870 O   0  0  0  0  0  0  0  0  0  0  0  0
  195.3620  174.8810  136.6860 C   0  0  0  0  0  0  0  0  0  0  0  0
  194.5280  175.4710  137.6850 N   0  0  0  0  0  2  0  0  0  0  0  0
  196.6870  173.9790  138.5630 C   0  0  0  0  0  2  0  0  0  0  0  0
  196.4530  172.8580  137.5750 C   0  0  0  0  0  2  0  0  0  0  0  0
  196.6710  174.2750  137.0740 C   0  0  0  0  0  3  0  0  0  0  0  0
  186.7270  178.6030  138.0970 C   0  0  0  0  0  2  0  0  0  0  0  0
  185.8450  178.1880  139.1300 O   0  0  0  0  0  0  0  0  0  0  0  0
  184.5250  180.0790  139.0320 O   0  0  0  0  0  0  0  0  0  0  0  0
  184.6760  178.8900  139.4240 C   0  0  0  0  0  0  0  0  0  0  0  0
  183.6440  178.2410  140.1720 N   0  0  0  0  0  2  0  0  0  0  0  0
  182.4130  178.9140  140.5570 C   0  0  0  0  0  2  0  0  0  0  0  0
  182.1910  178.7750  142.0510 C   0  0  0  0  0  2  0  0  0  0  0  0
  183.5250  178.6020  142.7450 C   0  0  0  0  0  2  0  0  0  0  0  0
  183.3740  178.9270  144.2160 C   0  0  0  0  0  1  0  0  0  0  0  0
  1  5  2  0  0  0  0
  1  2  1  0  0  0  0
  2  4  2  0  0  0  0
  3  6  2  0  0  0  0
  4  6  1  0  0  0  0
  5  3  1  0  0  0  0
  6  8  1  0  0  0  0
  7 13  1  0  0  0  0
  8 12  1  0  0  0  0
  8 11  1  0  0  0  0
  9 10  1  0  0  0  0
 10 14  1  1  0  0  0
 11  9  1  1  0  0  0
 12 11  1  0  0  0  0
 12  7  1  1  0  0  0
 13 10  1  0  0  0  0
 14 15  1  0  0  0  0
 15 20  1  0  0  0  0
 15 16  1  1  0  0  0
 20 17  1  6  0  0  0
 20 21  1  0  0  0  0
 20 19  1  0  0  0  0
 21 18  1  6  0  0  0
 21 19  1  0  0  0  0
 22  3  1  6  0  0  0
 23 22  1  0  0  0  0
 24 22  1  0  0  0  0
 25 28  1  0  0  0  0
 25 23  1  0  0  0  0
 25 24  1  0  0  0  0
 26 27  2  0  0  0  0
 27 31  1  0  0  0  0
 27 28  1  0  0  0  0
 30 29  1  0  0  0  0
 31 30  1  0  0  0  0
 31 29  1  0  0  0  0
 32  2  1  0  0  0  0
 32 33  1  0  0  0  0
 33 35  1  0  0  0  0
 34 35  2  0  0  0  0
 35 36  1  0  0  0  0
 36 37  1  0  0  0  0
 37 38  1  0  0  0  0
 38 39  1  0  0  0  0
 39 40  1  0  0  0  0
M  END
>  <MODEL>
3

>  <REMARK>
 VINA RESULT:      -7.3      1.194      1.892
  Name = 
  13 active torsions:
  status: ('A' for Active; 'I' for Inactive)
    1  A    between atoms: C_2  and  C_10
    2  A    between atoms: C_4  and  C_14
    3  A    between atoms: C_4  and  C_36
    4  A    between atoms: C_8  and  C_17
    5  A    between atoms: C_9  and  C_23
    6  A    between atoms: C_9  and  N_33
    7  A    between atoms: N_12  and  C_22
    8  A    between atoms: C_14  and  C_30
    9  A    between atoms: C_15  and  C_37
   10  A    between atoms: C_17  and  O_34
   11  A    between atoms: C_18  and  O_34
   12  A    between atoms: C_19  and  C_23
   13  A    between atoms: N_27  and  N_38
                            x       y       z     vdW  Elec       q    Type
                         _______ _______ _______ _____ _____    ______ ____

>  <TORSDO>
F 13

$$$$
=
 OpenBabel11042411433D

 40 45  0  0  1  0  0  0  0  0999 V2000
  184.7370  178.3220  142.1710 C   0  0  0  0  0  3  0  0  0  0  0  0
  184.6280  178.5230  140.7930 C   0  0  0  0  0  0  0  0  0  0  0  0
  187.1610  178.2000  141.9700 C   0  0  0  0  0  0  0  0  0  0  0  0
  185.7780  178.5590  140.0020 C   0  0  0  0  0  3  0  0  0  0  0  0
  185.9950  178.1680  142.7550 C   0  0  0  0  0  3  0  0  0  0  0  0
  187.0420  178.4030  140.5800 C   0  0  0  0  0  0  0  0  0  0  0  0
  188.2670  178.1520  137.2570 C   0  0  0  0  0  2  0  0  0  0  0  0
  188.1940  178.4420  139.7410 N   0  0  0  0  0  0  0  0  0  0  0  0
  189.7190  176.5680  139.2570 C   0  0  0  0  0  2  0  0  0  0  0  0
  189.4390  176.0300  137.8600 C   0  0  1  0  0  3  0  0  0  0  0  0
  189.6180  178.0960  139.4060 C   0  0  1  0  0  3  0  0  0  0  0  0
  188.8880  178.8470  138.4820 C   0  0  1  0  0  3  0  0  0  0  0  0
  188.1470  176.6350  137.3460 C   0  0  0  0  0  2  0  0  0  0  0  0
  190.6030  176.2830  136.9060 C   0  0  0  0  0  2  0  0  0  0  0  0
  191.5400  175.0760  136.8520 C   0  0  2  0  0  3  0  0  0  0  0  0
  190.9810  174.0280  137.5830 O   0  0  0  0  0  1  0  0  0  0  0  0
  193.1720  176.4690  138.3640 C   0  0  0  0  0  1  0  0  0  0  0  0
  195.2960  175.5310  136.8650 O   0  0  0  0  0  1  0  0  0  0  0  0
  193.6580  174.1850  137.7370 O   0  0  0  0  0  0  0  0  0  0  0  0
  192.9660  175.3490  137.3560 C   0  0  1  0  0  0  0  0  0  0  0  0
  194.1210  174.8360  136.5710 C   0  0  1  0  0  3  0  0  0  0  0  0
  188.5250  178.0580  142.5990 C   0  0  1  0  0  3  0  0  0  0  0  0
  188.4400  178.2440  144.0830 C   0  0  0  0  0  2  0  0  0  0  0  0
  188.8770  176.6660  142.8420 N   0  0  0  0  0  2  0  0  0  0  0  0
  188.7850  176.8380  144.2400 N   0  0  0  0  0  0  0  0  0  0  0  0
  189.3940  176.7250  146.9720 O   0  0  0  0  0  0  0  0  0  0  0  0
  190.3490  176.7000  146.1500 C   0  0  0  0  0  0  0  0  0  0  0  0
  190.0930  176.7750  144.7460 N   0  0  0  0  0  2  0  0  0  0  0  0
  191.8780  175.6250  147.7630 C   0  0  0  0  0  2  0  0  0  0  0  0
  192.3490  175.2750  146.3690 C   0  0  0  0  0  2  0  0  0  0  0  0
  191.7580  176.6470  146.6460 C   0  0  0  0  0  3  0  0  0  0  0  0
  183.2860  178.6600  140.1650 C   0  0  0  0  0  2  0  0  0  0  0  0
  183.2930  178.0400  138.8870 O   0  0  0  0  0  0  0  0  0  0  0  0
  182.5770  175.9530  139.5630 O   0  0  0  0  0  0  0  0  0  0  0  0
  183.2280  176.6540  138.7410 C   0  0  0  0  0  0  0  0  0  0  0  0
  183.9040  176.0370  137.6430 N   0  0  0  0  0  2  0  0  0  0  0  0
  183.9210  174.5960  137.4420 C   0  0  0  0  0  2  0  0  0  0  0  0
  185.3520  174.0950  137.4060 C   0  0  0  0  0  2  0  0  0  0  0  0
  185.3570  172.6000  137.1690 C   0  0  0  0  0  2  0  0  0  0  0  0
  183.9340  172.0830  137.1810 C   0  0  0  0  0  1  0  0  0  0  0  0
  1  5  1  0  0  0  0
  2  1  2  0  0  0  0
  3  5  2  0  0  0  0
  4  6  2  0  0  0  0
  4  2  1  0  0  0  0
  6  3  1  0  0  0  0
  7 13  1  0  0  0  0
  8  6  1  0  0  0  0
 10 14  1  6  0  0  0
 10  9  1  0  0  0  0
 11  9  1  6  0  0  0
 11  8  1  0  0  0  0
 12  7  1  6  0  0  0
 12 11  1  0  0  0  0
 12  8  1  0  0  0  0
 13 10  1  0  0  0  0
 15 14  1  0  0  0  0
 15 20  1  0  0  0  0
 15 16  1  1  0  0  0
 20 19  1  0  0  0  0
 20 17  1  1  0  0  0
 21 18  1  1  0  0  0
 21 20  1  0  0  0  0
 21 19  1  0  0  0  0
 22  3  1  6  0  0  0
 22 24  1  0  0  0  0
 22 23  1  0  0  0  0
 23 25  1  0  0  0  0
 24 25  1  0  0  0  0
 25 28  1  0  0  0  0
 27 31  1  0  0  0  0
 27 26  2  0  0  0  0
 28 27  1  0  0  0  0
 30 31  1  0  0  0  0
 30 29  1  0  0  0  0
 31 29  1  0  0  0  0
 32  2  1  0  0  0  0
 33 32  1  0  0  0  0
 35 33  1  0  0  0  0
 35 34  2  0  0  0  0
 36 35  1  0  0  0  0
 37 36  1  0  0  0  0
 38 37  1  0  0  0  0
 39 40  1  0  0  0  0
 39 38  1  0  0  0  0
M  END
>  <MODEL>
4

>  <REMARK>
 VINA RESULT:      -7.2      2.521      7.741
  Name = 
  13 active torsions:
  status: ('A' for Active; 'I' for Inactive)
    1  A    between atoms: C_2  and  C_10
    2  A    between atoms: C_4  and  C_14
    3  A    between atoms: C_4  and  C_36
    4  A    between atoms: C_8  and  C_17
    5  A    between atoms: C_9  and  C_23
    6  A    between atoms: C_9  and  N_33
    7  A    between atoms: N_12  and  C_22
    8  A    between atoms: C_14  and  C_30
    9  A    between atoms: C_15  and  C_37
   10  A    between atoms: C_17  and  O_34
   11  A    between atoms: C_18  and  O_34
   12  A    between atoms: C_19  and  C_23
   13  A    between atoms: N_27  and  N_38
                            x       y       z     vdW  Elec       q    Type
                         _______ _______ _______ _____ _____    ______ ____

>  <TORSDO>
F 13

$$$$
=
 OpenBabel11042411433D

 40 45  0  0  1  0  0  0  0  0999 V2000
  184.8310  178.2610  142.7260 C   0  0  0  0  0  3  0  0  0  0  0  0
  186.2010  178.0230  142.8590 C   0  0  0  0  0  0  0  0  0  0  0  0
  185.1250  178.6720  140.3440 C   0  0  0  0  0  0  0  0  0  0  0  0
  187.0340  178.1120  141.7420 C   0  0  0  0  0  3  0  0  0  0  0  0
  184.2970  178.5770  141.4750 C   0  0  0  0  0  3  0  0  0  0  0  0
  186.5060  178.4310  140.4860 C   0  0  0  0  0  0  0  0  0  0  0  0
  187.3260  177.1370  137.2830 C   0  0  0  0  0  2  0  0  0  0  0  0
  187.3880  178.5160  139.3690 N   0  0  0  0  0  0  0  0  0  0  0  0
  189.5810  177.4130  139.1440 C   0  0  0  0  0  2  0  0  0  0  0  0
  189.4550  176.2160  138.2120 C   0  0  1  0  0  3  0  0  0  0  0  0
  188.7500  178.6460  138.7460 C   0  0  1  0  0  3  0  0  0  0  0  0
  187.6480  178.5110  137.8990 C   0  0  1  0  0  3  0  0  0  0  0  0
  187.9860  175.9380  137.9560 C   0  0  0  0  0  2  0  0  0  0  0  0
  190.2290  176.4200  136.9120 C   0  0  0  0  0  2  0  0  0  0  0  0
  191.3110  175.3540  136.7440 C   0  0  2  0  0  3  0  0  0  0  0  0
  191.0450  174.2910  137.6060 O   0  0  0  0  0  1  0  0  0  0  0  0
  193.0710  176.5180  138.3080 C   0  0  0  0  0  1  0  0  0  0  0  0
  194.6880  176.9400  136.1070 O   0  0  0  0  0  1  0  0  0  0  0  0
  193.7320  174.9200  136.6190 O   0  0  0  0  0  0  0  0  0  0  0  0
  192.7460  175.8560  136.9780 C   0  0  1  0  0  0  0  0  0  0  0  0
  193.6360  176.0720  135.8060 C   0  0  1  0  0  3  0  0  0  0  0  0
  184.5500  178.9890  138.9850 C   0  0  1  0  0  3  0  0  0  0  0  0
  183.2040  178.3520  138.8240 C   0  0  0  0  0  2  0  0  0  0  0  0
  183.8860  180.2860  138.9580 N   0  0  0  0  0  2  0  0  0  0  0  0
  182.6170  179.6840  138.8180 N   0  0  0  0  0  0  0  0  0  0  0  0
  180.4800  181.3900  138.2050 O   0  0  0  0  0  0  0  0  0  0  0  0
  181.0960  180.8450  137.2490 C   0  0  0  0  0  0  0  0  0  0  0  0
  182.1800  179.9510  137.5090 N   0  0  0  0  0  2  0  0  0  0  0  0
  180.9320  179.8640  134.9900 C   0  0  0  0  0  2  0  0  0  0  0  0
  179.5290  180.1390  135.4830 C   0  0  0  0  0  2  0  0  0  0  0  0
  180.6570  181.0900  135.8430 C   0  0  0  0  0  3  0  0  0  0  0  0
  186.7750  177.7140  144.1960 C   0  0  0  0  0  2  0  0  0  0  0  0
  185.8400  178.0610  145.2080 O   0  0  0  0  0  0  0  0  0  0  0  0
  185.5020  179.0740  147.2540 O   0  0  0  0  0  0  0  0  0  0  0  0
  186.2450  178.3850  146.5030 C   0  0  0  0  0  0  0  0  0  0  0  0
  187.5130  177.9190  146.9730 N   0  0  0  0  0  2  0  0  0  0  0  0
  188.0280  178.2450  148.2940 C   0  0  0  0  0  2  0  0  0  0  0  0
  189.5170  177.9630  148.3540 C   0  0  0  0  0  2  0  0  0  0  0  0
  189.9000  177.0340  147.2230 C   0  0  0  0  0  2  0  0  0  0  0  0
  191.3340  176.5830  147.4040 C   0  0  0  0  0  1  0  0  0  0  0  0
  1  2  1  0  0  0  0
  2 32  1  0  0  0  0
  3  6  2  0  0  0  0
  3  5  1  0  0  0  0
  4  2  2  0  0  0  0
  5  1  2  0  0  0  0
  6  4  1  0  0  0  0
  7 13  1  0  0  0  0
  8  6  1  0  0  0  0
 10 14  1  6  0  0  0
 10  9  1  0  0  0  0
 11  9  1  1  0  0  0
 11  8  1  0  0  0  0
 12  7  1  1  0  0  0
 12 11  1  0  0  0  0
 12  8  1  0  0  0  0
 13 10  1  0  0  0  0
 15 14  1  0  0  0  0
 15 20  1  0  0  0  0
 15 16  1  1  0  0  0
 19 20  1  0  0  0  0
 20 17  1  1  0  0  0
 21 18  1  1  0  0  0
 21 19  1  0  0  0  0
 21 20  1  0  0  0  0
 22  3  1  1  0  0  0
 23 22  1  0  0  0  0
 24 22  1  0  0  0  0
 25 23  1  0  0  0  0
 25 24  1  0  0  0  0
 27 28  1  0  0  0  0
 27 26  2  0  0  0  0
 28 25  1  0  0  0  0
 29 30  1  0  0  0  0
 29 31  1  0  0  0  0
 30 31  1  0  0  0  0
 31 27  1  0  0  0  0
 32 33  1  0  0  0  0
 33 35  1  0  0  0  0
 35 36  1  0  0  0  0
 35 34  2  0  0  0  0
 36 37  1  0  0  0  0
 37 38  1  0  0  0  0
 39 40  1  0  0  0  0
 39 38  1  0  0  0  0
M  END
>  <MODEL>
5

>  <REMARK>
 VINA RESULT:      -7.2      3.243      9.652
  Name = 
  13 active torsions:
  status: ('A' for Active; 'I' for Inactive)
    1  A    between atoms: C_2  and  C_10
    2  A    between atoms: C_4  and  C_14
    3  A    between atoms: C_4  and  C_36
    4  A    between atoms: C_8  and  C_17
    5  A    between atoms: C_9  and  C_23
    6  A    between atoms: C_9  and  N_33
    7  A    between atoms: N_12  and  C_22
    8  A    between atoms: C_14  and  C_30
    9  A    between atoms: C_15  and  C_37
   10  A    between atoms: C_17  and  O_34
   11  A    between atoms: C_18  and  O_34
   12  A    between atoms: C_19  and  C_23
   13  A    between atoms: N_27  and  N_38
                            x       y       z     vdW  Elec       q    Type
                         _______ _______ _______ _____ _____    ______ ____

>  <TORSDO>
F 13

$$$$
=
 OpenBabel11042411433D

 40 45  0  0  1  0  0  0  0  0999 V2000
  186.0750  178.2710  142.5710 C   0  0  0  0  0  3  0  0  0  0  0  0
  187.4170  177.9980  142.2990 C   0  0  0  0  0  0  0  0  0  0  0  0
  185.6470  178.5800  140.1940 C   0  0  0  0  0  0  0  0  0  0  0  0
  187.8790  178.0190  140.9820 C   0  0  0  0  0  3  0  0  0  0  0  0
  185.1950  178.5540  141.5240 C   0  0  0  0  0  3  0  0  0  0  0  0
  187.0040  178.3040  139.9280 C   0  0  0  0  0  0  0  0  0  0  0  0
  187.3620  176.4910  136.8970 C   0  0  0  0  0  2  0  0  0  0  0  0
  187.5110  178.3210  138.5950 N   0  0  0  0  0  0  0  0  0  0  0  0
  189.8090  177.7710  137.8940 C   0  0  0  0  0  2  0  0  0  0  0  0
  189.8310  176.3850  137.2640 C   0  0  1  0  0  3  0  0  0  0  0  0
  188.5680  178.6210  137.5700 C   0  0  1  0  0  3  0  0  0  0  0  0
  187.3880  178.0110  137.1400 C   0  0  1  0  0  3  0  0  0  0  0  0
  188.5040  175.7000  137.5250 C   0  0  0  0  0  2  0  0  0  0  0  0
  190.1580  176.4410  135.7740 C   0  0  0  0  0  2  0  0  0  0  0  0
  191.2060  175.3920  135.4020 C   0  0  2  0  0  3  0  0  0  0  0  0
  190.5780  174.1610  135.2180 O   0  0  0  0  0  1  0  0  0  0  0  0
  192.2400  174.1330  137.4610 C   0  0  0  0  0  1  0  0  0  0  0  0
  193.9310  176.2800  137.8740 O   0  0  0  0  0  1  0  0  0  0  0  0
  193.6260  175.2690  135.8390 O   0  0  0  0  0  0  0  0  0  0  0  0
  192.3470  175.2380  136.4210 C   0  0  1  0  0  0  0  0  0  0  0  0
  193.2770  176.3770  136.6440 C   0  0  1  0  0  3  0  0  0  0  0  0
  184.6970  178.8620  139.0560 C   0  0  1  0  0  3  0  0  0  0  0  0
  183.3180  178.3850  139.3960 C   0  0  0  0  0  2  0  0  0  0  0  0
  184.1820  180.2240  139.0930 N   0  0  0  0  0  2  0  0  0  0  0  0
  182.8860  179.7750  139.4250 N   0  0  0  0  0  0  0  0  0  0  0  0
  180.5240  181.2800  139.4690 O   0  0  0  0  0  0  0  0  0  0  0  0
  180.8900  180.7850  138.3690 C   0  0  0  0  0  0  0  0  0  0  0  0
  182.0770  179.9930  138.2970 N   0  0  0  0  0  2  0  0  0  0  0  0
  179.2600  182.2710  137.2610 C   0  0  0  0  0  2  0  0  0  0  0  0
  180.5070  182.2280  136.4080 C   0  0  0  0  0  2  0  0  0  0  0  0
  180.0530  180.9820  137.1470 C   0  0  0  0  0  3  0  0  0  0  0  0
  188.3610  177.7240  143.4150 C   0  0  0  0  0  2  0  0  0  0  0  0
  189.5160  177.0670  142.9120 O   0  0  0  0  0  0  0  0  0  0  0  0
  191.2780  175.6550  143.3890 O   0  0  0  0  0  0  0  0  0  0  0  0
  190.5190  176.5910  143.7580 C   0  0  0  0  0  0  0  0  0  0  0  0
  190.6790  177.1840  145.0490 N   0  0  0  0  0  2  0  0  0  0  0  0
  191.6710  176.7210  146.0070 C   0  0  0  0  0  2  0  0  0  0  0  0
  191.0950  176.7590  147.4100 C   0  0  0  0  0  2  0  0  0  0  0  0
  189.5930  176.9200  147.3340 C   0  0  0  0  0  2  0  0  0  0  0  0
  189.1390  177.9180  148.3790 C   0  0  0  0  0  1  0  0  0  0  0  0
  2  1  1  0  0  0  0
  2 32  1  0  0  0  0
  3  5  1  0  0  0  0
  4  2  2  0  0  0  0
  5  1  2  0  0  0  0
  6  3  2  0  0  0  0
  6  4  1  0  0  0  0
  7 13  1  0  0  0  0
  8  6  1  0  0  0  0
 10 14  1  6  0  0  0
 10 13  1  0  0  0  0
 10  9  1  0  0  0  0
 11  9  1  1  0  0  0
 11  8  1  0  0  0  0
 12  7  1  1  0  0  0
 12 11  1  0  0  0  0
 12  8  1  0  0  0  0
 15 16  1  1  0  0  0
 15 14  1  0  0  0  0
 15 20  1  0  0  0  0
 19 20  1  0  0  0  0
 19 21  1  0  0  0  0
 20 21  1  0  0  0  0
 20 17  1  1  0  0  0
 21 18  1  1  0  0  0
 22 24  1  0  0  0  0
 22 23  1  0  0  0  0
 22  3  1  1  0  0  0
 23 25  1  0  0  0  0
 24 25  1  0  0  0  0
 27 26  2  0  0  0  0
 28 27  1  0  0  0  0
 28 25  1  0  0  0  0
 30 31  1  0  0  0  0
 30 29  1  0  0  0  0
 31 29  1  0  0  0  0
 31 27  1  0  0  0  0
 33 32  1  0  0  0  0
 33 35  1  0  0  0  0
 34 35  2  0  0  0  0
 35 36  1  0  0  0  0
 36 37  1  0  0  0  0
 37 38  1  0  0  0  0
 39 38  1  0  0  0  0
 39 40  1  0  0  0  0
M  END
>  <MODEL>
6

>  <REMARK>
 VINA RESULT:      -7.0      3.056      9.910
  Name = 
  13 active torsions:
  status: ('A' for Active; 'I' for Inactive)
    1  A    between atoms: C_2  and  C_10
    2  A    between atoms: C_4  and  C_14
    3  A    between atoms: C_4  and  C_36
    4  A    between atoms: C_8  and  C_17
    5  A    between atoms: C_9  and  C_23
    6  A    between atoms: C_9  and  N_33
    7  A    between atoms: N_12  and  C_22
    8  A    between atoms: C_14  and  C_30
    9  A    between atoms: C_15  and  C_37
   10  A    between atoms: C_17  and  O_34
   11  A    between atoms: C_18  and  O_34
   12  A    between atoms: C_19  and  C_23
   13  A    between atoms: N_27  and  N_38
                            x       y       z     vdW  Elec       q    Type
                         _______ _______ _______ _____ _____    ______ ____

>  <TORSDO>
F 13

$$$$
=
 OpenBabel11042411433D

 40 45  0  0  1  0  0  0  0  0999 V2000
  188.8340  176.5160  136.8990 C   0  0  0  0  0  3  0  0  0  0  0  0
  188.1100  177.0950  137.9430 C   0  0  0  0  0  0  0  0  0  0  0  0
  190.7880  176.3350  138.3410 C   0  0  0  0  0  0  0  0  0  0  0  0
  188.7190  177.2990  139.1830 C   0  0  0  0  0  3  0  0  0  0  0  0
  190.1620  176.1330  137.0990 C   0  0  0  0  0  3  0  0  0  0  0  0
  190.0500  176.9210  139.3900 C   0  0  0  0  0  0  0  0  0  0  0  0
  190.3270  175.7890  142.7440 C   0  0  0  0  0  2  0  0  0  0  0  0
  190.6410  177.1490  140.6680 N   0  0  0  0  0  0  0  0  0  0  0  0
  189.7980  178.6600  142.4240 C   0  0  0  0  0  2  0  0  0  0  0  0
  189.1360  177.8420  143.5240 C   0  0  1  0  0  3  0  0  0  0  0  0
  191.0620  178.0320  141.8090 C   0  0  1  0  0  3  0  0  0  0  0  0
  191.2930  176.6600  141.9190 C   0  0  1  0  0  3  0  0  0  0  0  0
  188.9690  176.4120  143.0480 C   0  0  0  0  0  2  0  0  0  0  0  0
  189.9110  177.9160  144.8370 C   0  0  0  0  0  2  0  0  0  0  0  0
  189.1780  177.1690  145.9510 C   0  0  2  0  0  3  0  0  0  0  0  0
  187.9210  177.7430  146.1390 O   0  0  0  0  0  1  0  0  0  0  0  0
  189.3660  177.9260  148.4580 C   0  0  0  0  0  1  0  0  0  0  0  0
  192.0100  177.1220  148.4600 O   0  0  0  0  0  1  0  0  0  0  0  0
  190.2830  175.8240  147.6930 O   0  0  0  0  0  0  0  0  0  0  0  0
  189.9260  177.1240  147.2930 C   0  0  1  0  0  0  0  0  0  0  0  0
  191.3450  176.6770  147.3150 C   0  0  1  0  0  3  0  0  0  0  0  0
  192.2150  175.9030  138.5720 C   0  0  1  0  0  3  0  0  0  0  0  0
  192.5970  174.8230  137.6070 C   0  0  0  0  0  2  0  0  0  0  0  0
  193.1690  176.7740  137.8990 N   0  0  0  0  0  2  0  0  0  0  0  0
  193.5200  175.7600  136.9830 N   0  0  0  0  0  0  0  0  0  0  0  0
  195.5700  175.4540  135.0970 O   0  0  0  0  0  0  0  0  0  0  0  0
  195.8400  175.2280  136.3080 C   0  0  0  0  0  0  0  0  0  0  0  0
  194.8250  175.3500  137.3060 N   0  0  0  0  0  2  0  0  0  0  0  0
  197.1460  173.9320  137.9530 C   0  0  0  0  0  2  0  0  0  0  0  0
  197.2990  173.2650  136.6050 C   0  0  0  0  0  2  0  0  0  0  0  0
  197.2110  174.7780  136.6940 C   0  0  0  0  0  3  0  0  0  0  0  0
  186.7040  177.5270  137.7230 C   0  0  0  0  0  2  0  0  0  0  0  0
  186.2910  178.3670  138.7910 O   0  0  0  0  0  0  0  0  0  0  0  0
  184.6030  179.7600  139.5250 O   0  0  0  0  0  0  0  0  0  0  0  0
  184.9460  178.6550  139.0230 C   0  0  0  0  0  0  0  0  0  0  0  0
  183.9570  177.6820  138.6770 N   0  0  0  0  0  2  0  0  0  0  0  0
  182.5380  177.8840  138.9240 C   0  0  0  0  0  2  0  0  0  0  0  0
  182.0430  176.8900  139.9570 C   0  0  0  0  0  2  0  0  0  0  0  0
  180.8210  176.1740  139.4240 C   0  0  0  0  0  2  0  0  0  0  0  0
  181.2170  175.3030  138.2510 C   0  0  0  0  0  1  0  0  0  0  0  0
  1  5  2  0  0  0  0
  1  2  1  0  0  0  0
  2  4  2  0  0  0  0
  3  6  2  0  0  0  0
  4  6  1  0  0  0  0
  5  3  1  0  0  0  0
  6  8  1  0  0  0  0
  7 13  1  0  0  0  0
  8 11  1  0  0  0  0
  8 12  1  0  0  0  0
  9 10  1  0  0  0  0
 10 14  1  1  0  0  0
 11 12  1  0  0  0  0
 11  9  1  1  0  0  0
 12  7  1  1  0  0  0
 13 10  1  0  0  0  0
 14 15  1  0  0  0  0
 15 16  1  1  0  0  0
 15 20  1  0  0  0  0
 20 21  1  0  0  0  0
 20 19  1  0  0  0  0
 20 17  1  1  0  0  0
 21 19  1  0  0  0  0
 21 18  1  1  0  0  0
 22  3  1  6  0  0  0
 23 22  1  0  0  0  0
 24 22  1  0  0  0  0
 25 28  1  0  0  0  0
 25 23  1  0  0  0  0
 25 24  1  0  0  0  0
 26 27  2  0  0  0  0
 27 31  1  0  0  0  0
 27 28  1  0  0  0  0
 30 31  1  0  0  0  0
 30 29  1  0  0  0  0
 31 29  1  0  0  0  0
 32  2  1  0  0  0  0
 32 33  1  0  0  0  0
 33 35  1  0  0  0  0
 35 34  2  0  0  0  0
 36 37  1  0  0  0  0
 36 35  1  0  0  0  0
 37 38  1  0  0  0  0
 39 38  1  0  0  0  0
 40 39  1  0  0  0  0
M  END
>  <MODEL>
7

>  <REMARK>
 VINA RESULT:      -6.9      1.477      1.897
  Name = 
  13 active torsions:
  status: ('A' for Active; 'I' for Inactive)
    1  A    between atoms: C_2  and  C_10
    2  A    between atoms: C_4  and  C_14
    3  A    between atoms: C_4  and  C_36
    4  A    between atoms: C_8  and  C_17
    5  A    between atoms: C_9  and  C_23
    6  A    between atoms: C_9  and  N_33
    7  A    between atoms: N_12  and  C_22
    8  A    between atoms: C_14  and  C_30
    9  A    between atoms: C_15  and  C_37
   10  A    between atoms: C_17  and  O_34
   11  A    between atoms: C_18  and  O_34
   12  A    between atoms: C_19  and  C_23
   13  A    between atoms: N_27  and  N_38
                            x       y       z     vdW  Elec       q    Type
                         _______ _______ _______ _____ _____    ______ ____

>  <TORSDO>
F 13

$$$$
=
 OpenBabel11042411433D

 40 45  0  0  1  0  0  0  0  0999 V2000
  186.8840  178.4820  142.2830 C   0  0  0  0  0  3  0  0  0  0  0  0
  188.1760  178.1080  141.9080 C   0  0  0  0  0  0  0  0  0  0  0  0
  186.2350  178.6270  139.9410 C   0  0  0  0  0  0  0  0  0  0  0  0
  188.5030  177.9970  140.5550 C   0  0  0  0  0  3  0  0  0  0  0  0
  185.9190  178.7330  141.3060 C   0  0  0  0  0  3  0  0  0  0  0  0
  187.5420  178.2500  139.5700 C   0  0  0  0  0  0  0  0  0  0  0  0
  187.6060  176.1380  136.7160 C   0  0  0  0  0  2  0  0  0  0  0  0
  187.9120  178.1300  138.1980 N   0  0  0  0  0  0  0  0  0  0  0  0
  190.1320  177.5040  137.3280 C   0  0  0  0  0  2  0  0  0  0  0  0
  190.0990  176.0620  136.8410 C   0  0  1  0  0  3  0  0  0  0  0  0
  188.8580  178.3220  137.0460 C   0  0  1  0  0  3  0  0  0  0  0  0
  187.6460  177.6750  136.8010 C   0  0  1  0  0  3  0  0  0  0  0  0
  188.8100  175.4110  137.3030 C   0  0  0  0  0  2  0  0  0  0  0  0
  190.2740  175.9650  135.3280 C   0  0  0  0  0  2  0  0  0  0  0  0
  191.3530  174.9460  134.9640 C   0  0  2  0  0  3  0  0  0  0  0  0
  190.8090  173.6640  135.0160 O   0  0  0  0  0  1  0  0  0  0  0  0
  192.6560  174.1450  137.0980 C   0  0  0  0  0  1  0  0  0  0  0  0
  194.3400  176.3200  136.8390 O   0  0  0  0  0  1  0  0  0  0  0  0
  193.8110  174.9040  135.1150 O   0  0  0  0  0  0  0  0  0  0  0  0
  192.6130  175.0040  135.8440 C   0  0  1  0  0  0  0  0  0  0  0  0
  193.5400  176.1600  135.7050 C   0  0  1  0  0  3  0  0  0  0  0  0
  185.1910  178.8730  138.8800 C   0  0  1  0  0  3  0  0  0  0  0  0
  183.9230  178.1500  139.2150 C   0  0  0  0  0  2  0  0  0  0  0  0
  184.4750  180.1250  139.0930 N   0  0  0  0  0  2  0  0  0  0  0  0
  183.2840  179.4420  139.4200 N   0  0  0  0  0  0  0  0  0  0  0  0
  180.7330  180.5590  139.7230 O   0  0  0  0  0  0  0  0  0  0  0  0
  181.1060  180.2400  138.5620 C   0  0  0  0  0  0  0  0  0  0  0  0
  182.3900  179.6480  138.3560 N   0  0  0  0  0  2  0  0  0  0  0  0
  179.3190  181.6600  137.6220 C   0  0  0  0  0  2  0  0  0  0  0  0
  180.5090  181.7300  136.6920 C   0  0  0  0  0  2  0  0  0  0  0  0
  180.1810  180.4290  137.4040 C   0  0  0  0  0  3  0  0  0  0  0  0
  189.2120  177.8670  142.9470 C   0  0  0  0  0  2  0  0  0  0  0  0
  188.7510  176.8800  143.8590 O   0  0  0  0  0  0  0  0  0  0  0  0
  189.2020  177.3350  146.0760 O   0  0  0  0  0  0  0  0  0  0  0  0
  188.3510  177.2050  145.1550 C   0  0  0  0  0  0  0  0  0  0  0  0
  186.9600  177.3980  145.4260 N   0  0  0  0  0  2  0  0  0  0  0  0
  186.4540  177.6980  146.7570 C   0  0  0  0  0  2  0  0  0  0  0  0
  185.6840  179.0050  146.7360 C   0  0  0  0  0  2  0  0  0  0  0  0
  185.2700  179.3240  145.3160 C   0  0  0  0  0  2  0  0  0  0  0  0
  183.8050  178.9880  145.1300 C   0  0  0  0  0  1  0  0  0  0  0  0
  2  1  1  0  0  0  0
  2 32  1  0  0  0  0
  3  5  1  0  0  0  0
  4  2  2  0  0  0  0
  5  1  2  0  0  0  0
  6  3  2  0  0  0  0
  6  4  1  0  0  0  0
  7 13  1  0  0  0  0
  8  6  1  0  0  0  0
 10 14  1  6  0  0  0
 10 13  1  0  0  0  0
 10  9  1  0  0  0  0
 11  9  1  1  0  0  0
 11  8  1  0  0  0  0
 12  7  1  1  0  0  0
 12 11  1  0  0  0  0
 12  8  1  0  0  0  0
 15 16  1  1  0  0  0
 15 14  1  0  0  0  0
 15 20  1  0  0  0  0
 19 21  1  0  0  0  0
 19 20  1  0  0  0  0
 20 17  1  1  0  0  0
 21 20  1  0  0  0  0
 21 18  1  1  0  0  0
 22 24  1  0  0  0  0
 22 23  1  0  0  0  0
 22  3  1  1  0  0  0
 23 25  1  0  0  0  0
 24 25  1  0  0  0  0
 27 26  2  0  0  0  0
 28 27  1  0  0  0  0
 28 25  1  0  0  0  0
 30 31  1  0  0  0  0
 30 29  1  0  0  0  0
 31 29  1  0  0  0  0
 31 27  1  0  0  0  0
 32 33  1  0  0  0  0
 33 35  1  0  0  0  0
 35 36  1  0  0  0  0
 35 34  2  0  0  0  0
 36 37  1  0  0  0  0
 38 37  1  0  0  0  0
 39 38  1  0  0  0  0
 40 39  1  0  0  0  0
M  END
>  <MODEL>
8

>  <REMARK>
 VINA RESULT:      -6.8      2.812      9.652
  Name = 
  13 active torsions:
  status: ('A' for Active; 'I' for Inactive)
    1  A    between atoms: C_2  and  C_10
    2  A    between atoms: C_4  and  C_14
    3  A    between atoms: C_4  and  C_36
    4  A    between atoms: C_8  and  C_17
    5  A    between atoms: C_9  and  C_23
    6  A    between atoms: C_9  and  N_33
    7  A    between atoms: N_12  and  C_22
    8  A    between atoms: C_14  and  C_30
    9  A    between atoms: C_15  and  C_37
   10  A    between atoms: C_17  and  O_34
   11  A    between atoms: C_18  and  O_34
   12  A    between atoms: C_19  and  C_23
   13  A    between atoms: N_27  and  N_38
                            x       y       z     vdW  Elec       q    Type
                         _______ _______ _______ _____ _____    ______ ____

>  <TORSDO>
F 13

$$$$
=
 OpenBabel11042411433D

 40 45  0  0  1  0  0  0  0  0999 V2000
  184.7910  178.4580  141.8050 C   0  0  0  0  0  3  0  0  0  0  0  0
  184.7150  178.6220  140.4200 C   0  0  0  0  0  0  0  0  0  0  0  0
  187.2140  178.2710  141.6580 C   0  0  0  0  0  0  0  0  0  0  0  0
  185.8810  178.6070  139.6520 C   0  0  0  0  0  3  0  0  0  0  0  0
  186.0330  178.2900  142.4200 C   0  0  0  0  0  3  0  0  0  0  0  0
  187.1290  178.4360  140.2610 C   0  0  0  0  0  0  0  0  0  0  0  0
  188.4040  178.1800  136.9570 C   0  0  0  0  0  2  0  0  0  0  0  0
  188.2980  178.4220  139.4450 N   0  0  0  0  0  0  0  0  0  0  0  0
  189.7160  176.4680  138.9490 C   0  0  0  0  0  2  0  0  0  0  0  0
  189.4320  175.9780  137.5350 C   0  0  1  0  0  3  0  0  0  0  0  0
  189.7050  177.9970  139.1300 C   0  0  1  0  0  3  0  0  0  0  0  0
  189.0420  178.8100  138.2090 C   0  0  1  0  0  3  0  0  0  0  0  0
  188.1900  176.6720  137.0100 C   0  0  0  0  0  2  0  0  0  0  0  0
  190.6290  176.1790  136.6100 C   0  0  0  0  0  2  0  0  0  0  0  0
  191.5930  174.9960  136.6940 C   0  0  2  0  0  3  0  0  0  0  0  0
  191.0900  174.0580  137.5960 O   0  0  0  0  0  1  0  0  0  0  0  0
  193.2360  176.2720  138.2960 C   0  0  0  0  0  1  0  0  0  0  0  0
  195.2320  175.9940  136.4050 O   0  0  0  0  0  1  0  0  0  0  0  0
  193.9060  174.2670  137.1230 O   0  0  0  0  0  0  0  0  0  0  0  0
  193.0310  175.3680  137.0900 C   0  0  1  0  0  0  0  0  0  0  0  0
  194.1210  175.2080  136.0900 C   0  0  1  0  0  3  0  0  0  0  0  0
  188.5620  178.1130  142.3190 C   0  0  1  0  0  3  0  0  0  0  0  0
  188.4390  178.2730  143.8030 C   0  0  0  0  0  2  0  0  0  0  0  0
  188.9030  176.7150  142.5470 N   0  0  0  0  0  2  0  0  0  0  0  0
  188.7760  176.8640  143.9450 N   0  0  0  0  0  0  0  0  0  0  0  0
  189.3210  176.8460  146.6930 O   0  0  0  0  0  0  0  0  0  0  0  0
  190.2940  176.7630  145.8950 C   0  0  0  0  0  0  0  0  0  0  0  0
  190.0710  176.7880  144.4830 N   0  0  0  0  0  2  0  0  0  0  0  0
  191.7030  175.9730  147.7620 C   0  0  0  0  0  2  0  0  0  0  0  0
  192.1350  175.2440  146.5100 C   0  0  0  0  0  2  0  0  0  0  0  0
  191.6890  176.6930  146.4250 C   0  0  0  0  0  3  0  0  0  0  0  0
  183.3900  178.7740  139.7610 C   0  0  0  0  0  2  0  0  0  0  0  0
  182.8120  177.4930  139.5540 O   0  0  0  0  0  0  0  0  0  0  0  0
  181.0510  176.0280  139.8380 O   0  0  0  0  0  0  0  0  0  0  0  0
  181.5580  177.1600  140.0670 C   0  0  0  0  0  0  0  0  0  0  0  0
  180.8550  178.1180  140.8620 N   0  0  0  0  0  2  0  0  0  0  0  0
  179.5260  177.8680  141.3990 C   0  0  0  0  0  2  0  0  0  0  0  0
  179.3360  178.6390  142.6920 C   0  0  0  0  0  2  0  0  0  0  0  0
  180.3150  178.1340  143.7290 C   0  0  0  0  0  2  0  0  0  0  0  0
  181.3900  179.1750  143.9570 C   0  0  0  0  0  1  0  0  0  0  0  0
  1  5  1  0  0  0  0
  2  1  2  0  0  0  0
  3  5  2  0  0  0  0
  4  6  2  0  0  0  0
  4  2  1  0  0  0  0
  6  3  1  0  0  0  0
  7 13  1  0  0  0  0
  8  6  1  0  0  0  0
 10 14  1  6  0  0  0
 10  9  1  0  0  0  0
 11  9  1  6  0  0  0
 11  8  1  0  0  0  0
 12  7  1  6  0  0  0
 12 11  1  0  0  0  0
 12  8  1  0  0  0  0
 13 10  1  0  0  0  0
 14 15  1  0  0  0  0
 15 20  1  0  0  0  0
 15 16  1  1  0  0  0
 20 19  1  0  0  0  0
 20 17  1  1  0  0  0
 21 18  1  1  0  0  0
 21 20  1  0  0  0  0
 21 19  1  0  0  0  0
 22  3  1  6  0  0  0
 22 24  1  0  0  0  0
 22 23  1  0  0  0  0
 23 25  1  0  0  0  0
 24 25  1  0  0  0  0
 25 28  1  0  0  0  0
 27 31  1  0  0  0  0
 27 26  2  0  0  0  0
 28 27  1  0  0  0  0
 30 29  1  0  0  0  0
 31 30  1  0  0  0  0
 31 29  1  0  0  0  0
 32  2  1  0  0  0  0
 33 32  1  0  0  0  0
 33 35  1  0  0  0  0
 34 35  2  0  0  0  0
 35 36  1  0  0  0  0
 36 37  1  0  0  0  0
 37 38  1  0  0  0  0
 38 39  1  0  0  0  0
 39 40  1  0  0  0  0
M  END
>  <MODEL>
9

>  <REMARK>
 VINA RESULT:      -6.8      2.592      7.487
  Name = 
  13 active torsions:
  status: ('A' for Active; 'I' for Inactive)
    1  A    between atoms: C_2  and  C_10
    2  A    between atoms: C_4  and  C_14
    3  A    between atoms: C_4  and  C_36
    4  A    between atoms: C_8  and  C_17
    5  A    between atoms: C_9  and  C_23
    6  A    between atoms: C_9  and  N_33
    7  A    between atoms: N_12  and  C_22
    8  A    between atoms: C_14  and  C_30
    9  A    between atoms: C_15  and  C_37
   10  A    between atoms: C_17  and  O_34
   11  A    between atoms: C_18  and  O_34
   12  A    between atoms: C_19  and  C_23
   13  A    between atoms: N_27  and  N_38
                            x       y       z     vdW  Elec       q    Type
                         _______ _______ _______ _____ _____    ______ ____

>  <TORSDO>
F 13

$$$$
