=
 OpenBabel11042412143D

 67 70  0  0  1  0  0  0  0  0999 V2000
  189.3470  178.3820  143.5280 N   0  0  0  0  0  0  0  0  0  0  0  0
  188.5210  177.9540  144.6760 C   0  0  0  0  0  2  0  0  0  0  0  0
  187.1750  177.6860  144.1780 N   0  0  0  0  0  0  0  0  0  0  0  0
  188.4400  178.3510  142.4550 N   0  0  0  0  0  2  0  0  0  0  0  0
  187.1870  177.9250  142.9220 C   0  0  0  0  0  0  0  0  0  0  0  0
  185.9980  177.7560  142.0420 C   0  0  0  0  0  2  0  0  0  0  0  0
  186.3290  178.1900  140.6220 C   0  0  0  0  0  2  0  0  0  0  0  0
  185.8610  179.6190  140.3750 C   0  0  0  0  0  2  0  0  0  0  0  0
  184.7060  179.6170  139.5850 O   0  0  0  0  0  0  0  0  0  0  0  0
  183.6960  179.1100  140.4110 C   0  0  0  0  0  2  0  0  0  0  0  0
  183.0520  177.9220  139.7690 C   0  0  0  0  0  0  0  0  0  0  0  0
  183.4780  177.4980  138.7050 O   0  0  0  0  0  0  0  0  0  0  0  0
  181.8840  177.2460  140.4240 C   0  0  0  0  0  2  0  0  0  0  0  0
  180.5350  177.5660  139.7630 C   0  0  1  0  0  3  0  0  0  0  0  0
  178.9430  174.2820  139.4430 O   0  0  0  0  0  0  0  0  0  0  0  0
  179.5860  176.4670  139.8950 N   0  0  0  0  0  2  0  0  0  0  0  0
  179.7950  175.1930  139.2780 C   0  0  0  0  0  0  0  0  0  0  0  0
  181.0090  174.9260  138.4450 C   0  0  0  0  0  2  0  0  0  0  0  0
  180.6460  174.9570  136.9680 C   0  0  0  0  0  2  0  0  0  0  0  0
  181.5020  172.4050  137.1590 O   0  0  0  0  0  0  0  0  0  0  0  0
  181.2250  173.4860  136.1460 S   0  0  0  0  0  0  0  0  0  0  0  0
  180.1710  173.0150  135.1820 O   0  0  0  0  0  0  0  0  0  0  0  0
  183.1170  175.1860  135.6920 C   0  0  0  0  0  1  0  0  0  0  0  0
  182.6800  173.8610  135.2740 N   0  0  0  0  0  2  0  0  0  0  0  0
  179.8700  179.2090  141.4820 C   0  0  0  0  0  3  0  0  0  0  0  0
  179.9100  178.8700  140.1880 C   0  0  0  0  0  0  0  0  0  0  0  0
  179.3860  179.7660  139.2000 N   0  0  0  0  0  2  0  0  0  0  0  0
  179.7870  181.1610  139.0760 C   0  0  0  0  0  2  0  0  0  0  0  0
  179.5050  181.1970  136.6090 C   0  0  0  0  0  1  0  0  0  0  0  0
  181.0290  182.8020  137.7080 C   0  0  0  0  0  1  0  0  0  0  0  0
  180.4900  181.3890  137.7480 C   0  0  0  0  0  3  0  0  0  0  0  0
  180.3960  178.3390  142.5760 C   0  0  0  0  0  2  0  0  0  0  0  0
  178.9330  178.9280  144.1140 C   0  0  0  0  0  1  0  0  0  0  0  0
  179.3360  177.8440  143.3370 O   0  0  0  0  0  0  0  0  0  0  0  0
  190.3620  177.3470  143.2820 C   0  0  1  0  0  3  0  0  0  0  0  0
  190.8140  176.7100  144.5360 C   0  0  0  0  0  0  0  0  0  0  0  0
  191.1840  176.1940  145.5590 C   0  0  0  0  0  3  0  0  0  0  0  0
  189.8900  176.3450  142.3170 N   0  0  0  0  0  2  0  0  0  0  0  0
  190.7220  176.3540  141.1140 C   0  0  0  0  0  2  0  0  0  0  0  0
  188.6750  176.2600  139.9190 O   0  0  0  0  0  0  0  0  0  0  0  0
  189.8710  176.6520  139.9270 C   0  0  0  0  0  0  0  0  0  0  0  0
  192.0190  176.5610  136.5560 C   0  0  1  0  0  3  0  0  0  0  0  0
  191.2280  176.6550  137.8220 N   0  0  0  0  0  0  0  0  0  0  0  0
  190.4220  177.3570  138.7620 C   0  0  0  0  0  0  0  0  0  0  0  0
  190.1970  178.5850  138.5980 O   0  0  0  0  0  0  0  0  0  0  0  0
  191.9740  175.4400  137.3710 C   0  0  2  0  0  3  0  0  0  0  0  0
  189.1940  174.4130  135.9410 C   0  0  0  0  0  0  0  0  0  0  0  0
  190.2910  174.1460  135.2110 C   0  0  0  0  0  3  0  0  0  0  0  0
  191.1580  175.2150  134.5980 C   0  0  0  0  0  2  0  0  0  0  0  0
  187.0960  173.6750  137.1610 C   0  0  0  0  0  0  0  0  0  0  0  0
  188.1280  172.3300  135.4880 O   0  0  0  0  0  1  0  0  0  0  0  0
  191.0640  176.5460  135.3420 C   0  0  1  0  0  3  0  0  0  0  0  0
  188.3970  173.2570  136.5060 C   0  0  1  0  0  3  0  0  0  0  0  0
  188.8870  175.8240  136.3980 C   0  0  2  0  0  3  0  0  0  0  0  0
  187.3920  176.0530  136.4400 C   0  0  0  0  0  2  0  0  0  0  0  0
  186.7820  175.1140  137.4660 C   0  0  0  0  0  2  0  0  0  0  0  0
  189.5890  176.9090  135.5810 C   0  0  0  0  0  2  0  0  0  0  0  0
  186.3700  172.7420  137.7730 C   0  0  0  0  0  2  0  0  0  0  0  0
  193.6510  176.3160  138.9010 C   0  0  0  0  0  2  0  0  0  0  0  0
  193.2040  175.2610  138.2210 C   0  0  0  0  0  0  0  0  0  0  0  0
  194.0590  174.0200  138.1620 C   0  0  0  0  0  2  0  0  0  0  0  0
  193.9250  173.3030  136.8210 C   0  0  0  0  0  2  0  0  0  0  0  0
  195.1700  172.5460  136.4760 C   0  0  0  0  0  0  0  0  0  0  0  0
  196.0400  173.0730  135.7990 O   0  0  0  0  0  0  0  0  0  0  0  0
  195.3320  171.1360  136.9570 C   0  0  2  0  0  3  0  0  0  0  0  0
  196.6680  170.8900  137.2640 O   0  0  0  0  0  1  0  0  0  0  0  0
  194.8610  170.1510  135.9010 C   0  0  0  0  0  1  0  0  0  0  0  0
  1  2  1  0  0  0  0
  3  2  1  0  0  0  0
  4  5  1  0  0  0  0
  4  1  1  0  0  0  0
  5  3  2  0  0  0  0
  6  5  1  0  0  0  0
  7  6  1  0  0  0  0
  8  7  1  0  0  0  0
  9  8  1  0  0  0  0
  9 10  1  0  0  0  0
 11 10  1  0  0  0  0
 11 13  1  0  0  0  0
 12 11  2  0  0  0  0
 14 16  1  0  0  0  0
 14 26  1  0  0  0  0
 14 13  1  1  0  0  0
 17 15  2  0  0  0  0
 17 16  1  0  0  0  0
 18 17  1  0  0  0  0
 19 18  1  0  0  0  0
 21 19  1  0  0  0  0
 21 20  2  0  0  0  0
 22 21  2  0  0  0  0
 24 23  1  0  0  0  0
 24 21  1  0  0  0  0
 25 32  1  0  0  0  0
 26 25  2  0  0  0  0
 27 26  1  0  0  0  0
 28 27  1  0  0  0  0
 29 31  1  0  0  0  0
 30 31  1  0  0  0  0
 31 28  1  0  0  0  0
 32 34  1  0  0  0  0
 34 33  1  0  0  0  0
 35  1  1  0  0  0  0
 35 36  1  1  0  0  0
 36 37  3  0  0  0  0
 38 35  1  0  0  0  0
 39 38  1  0  0  0  0
 40 41  2  0  0  0  0
 41 39  1  0  0  0  0
 42 46  1  0  0  0  0
 42 43  1  1  0  0  0
 43 44  1  0  0  0  0
 44 41  1  0  0  0  0
 45 44  2  0  0  0  0
 46 43  1  0  0  0  0
 46 60  1  1  0  0  0
 47 54  1  0  0  0  0
 47 53  1  0  0  0  0
 48 47  2  0  0  0  0
 49 48  1  0  0  0  0
 50 56  1  0  0  0  0
 50 58  2  0  0  0  0
 52 49  1  1  0  0  0
 52 57  1  0  0  0  0
 52 42  1  0  0  0  0
 53 51  1  6  0  0  0
 53 50  1  0  0  0  0
 54 57  1  6  0  0  0
 54 55  1  0  0  0  0
 55 56  1  0  0  0  0
 60 59  2  0  0  0  0
 61 60  1  0  0  0  0
 62 61  1  0  0  0  0
 63 62  1  0  0  0  0
 63 65  1  0  0  0  0
 64 63  2  0  0  0  0
 65 67  1  6  0  0  0
 65 66  1  0  0  0  0
M  END
>  <MODEL>
1

>  <REMARK>
 VINA RESULT:      -3.2      0.000      0.000
  Name = 
  31 active torsions:
  status: ('A' for Active; 'I' for Inactive)
    1  A    between atoms: C_3  and  C_5
    2  A    between atoms: C_5  and  C_46
    3  A    between atoms: N_6  and  C_20
    4  A    between atoms: C_7  and  C_37
    5  A    between atoms: O_11  and  C_40
    6  A    between atoms: O_11  and  C_50
    7  A    between atoms: N_13  and  C_63
    8  A    between atoms: C_14  and  S_22
    9  A    between atoms: C_14  and  C_64
   10  A    between atoms: C_15  and  C_32
   11  A    between atoms: C_15  and  C_46
   12  A    between atoms: C_17  and  C_57
   13  A    between atoms: C_18  and  C_38
   14  A    between atoms: C_18  and  C_50
   15  A    between atoms: C_19  and  C_39
   16  A    between atoms: C_19  and  N_62
   17  A    between atoms: C_20  and  C_24
   18  A    between atoms: C_20  and  N_28
   19  A    between atoms: S_22  and  N_65
   20  A    between atoms: C_23  and  C_40
   21  A    between atoms: C_23  and  C_42
   22  A    between atoms: C_26  and  N_62
   23  A    between atoms: C_26  and  C_63
   24  A    between atoms: N_28  and  C_60
   25  A    between atoms: C_31  and  C_44
   26  A    between atoms: C_32  and  C_48
   27  A    between atoms: C_38  and  C_67
   28  A    between atoms: C_42  and  C_63
   29  A    between atoms: C_44  and  C_60
   30  A    between atoms: C_47  and  C_64
   31  A    between atoms: O_55  and  C_57
                            x       y       z     vdW  Elec       q    Type
                         _______ _______ _______ _____ _____    ______ ____

>  <TORSDO>
F 31

$$$$
=
 OpenBabel11042412143D

 67 70  0  0  1  0  0  0  0  0999 V2000
  188.6010  178.7610  144.2490 N   0  0  0  0  0  0  0  0  0  0  0  0
  187.7300  178.3040  145.3510 C   0  0  0  0  0  2  0  0  0  0  0  0
  186.4590  177.8870  144.7660 N   0  0  0  0  0  0  0  0  0  0  0  0
  187.7900  178.5980  143.1140 N   0  0  0  0  0  2  0  0  0  0  0  0
  186.5490  178.0740  143.5040 C   0  0  0  0  0  0  0  0  0  0  0  0
  185.4540  177.7550  142.5470 C   0  0  0  0  0  2  0  0  0  0  0  0
  185.8650  178.1390  141.1330 C   0  0  0  0  0  2  0  0  0  0  0  0
  185.1920  179.4410  140.7150 C   0  0  0  0  0  2  0  0  0  0  0  0
  184.2240  179.1890  139.7360 O   0  0  0  0  0  0  0  0  0  0  0  0
  183.1900  178.5230  140.4040 C   0  0  0  0  0  2  0  0  0  0  0  0
  182.8510  177.2520  139.6910 C   0  0  0  0  0  0  0  0  0  0  0  0
  183.5070  176.9020  138.7210 O   0  0  0  0  0  0  0  0  0  0  0  0
  181.7070  176.4010  140.1590 C   0  0  0  0  0  2  0  0  0  0  0  0
  180.4600  176.5000  139.2680 C   0  0  1  0  0  3  0  0  0  0  0  0
  178.9390  173.1810  138.9540 O   0  0  0  0  0  0  0  0  0  0  0  0
  179.5660  175.3610  139.4490 N   0  0  0  0  0  2  0  0  0  0  0  0
  179.7380  174.1290  138.7410 C   0  0  0  0  0  0  0  0  0  0  0  0
  180.8500  173.9510  137.7560 C   0  0  0  0  0  2  0  0  0  0  0  0
  180.5020  172.8450  136.7710 C   0  0  0  0  0  2  0  0  0  0  0  0
  183.1100  172.4260  136.2180 O   0  0  0  0  0  0  0  0  0  0  0  0
  181.7840  172.6670  135.5450 S   0  0  0  0  0  0  0  0  0  0  0  0
  181.4530  171.5030  134.6540 O   0  0  0  0  0  0  0  0  0  0  0  0
  180.5810  174.8000  134.7210 C   0  0  0  0  0  1  0  0  0  0  0  0
  181.8620  174.1190  134.5950 N   0  0  0  0  0  2  0  0  0  0  0  0
  179.4640  178.5280  138.2730 C   0  0  0  0  0  3  0  0  0  0  0  0
  179.7020  177.7980  139.3700 C   0  0  0  0  0  0  0  0  0  0  0  0
  179.2050  178.2380  140.6400 N   0  0  0  0  0  2  0  0  0  0  0  0
  179.4560  179.5610  141.1960 C   0  0  0  0  0  2  0  0  0  0  0  0
  179.3650  178.1160  143.2120 C   0  0  0  0  0  1  0  0  0  0  0  0
  180.3420  180.3810  143.3520 C   0  0  0  0  0  1  0  0  0  0  0  0
  179.2630  179.5420  142.7030 C   0  0  0  0  0  3  0  0  0  0  0  0
  179.9420  178.1430  136.9110 C   0  0  0  0  0  2  0  0  0  0  0  0
  180.9980  179.9930  137.4730 C   0  0  0  0  0  1  0  0  0  0  0  0
  180.7420  179.1590  136.3860 O   0  0  0  0  0  0  0  0  0  0  0  0
  189.7240  177.8190  144.1320 C   0  0  1  0  0  3  0  0  0  0  0  0
  190.1280  177.2780  145.4460 C   0  0  0  0  0  0  0  0  0  0  0  0
  190.4620  176.8370  146.5160 C   0  0  0  0  0  3  0  0  0  0  0  0
  189.4270  176.7390  143.1810 N   0  0  0  0  0  2  0  0  0  0  0  0
  190.1490  176.9430  141.9240 C   0  0  0  0  0  2  0  0  0  0  0  0
  188.1670  176.2540  140.8210 O   0  0  0  0  0  0  0  0  0  0  0  0
  189.1750  177.0070  140.7990 C   0  0  0  0  0  0  0  0  0  0  0  0
  190.6720  177.5960  137.1380 C   0  0  1  0  0  3  0  0  0  0  0  0
  190.1160  177.4360  138.5180 N   0  0  0  0  0  0  0  0  0  0  0  0
  189.4000  177.9020  139.6570 C   0  0  0  0  0  0  0  0  0  0  0  0
  188.9740  179.0870  139.6840 O   0  0  0  0  0  0  0  0  0  0  0  0
  190.9370  176.4100  137.8050 C   0  0  2  0  0  3  0  0  0  0  0  0
  188.9460  174.7150  135.8370 C   0  0  0  0  0  0  0  0  0  0  0  0
  189.8190  175.2950  134.9940 C   0  0  0  0  0  3  0  0  0  0  0  0
  189.9660  176.7880  134.8510 C   0  0  0  0  0  2  0  0  0  0  0  0
  187.7510  172.6720  136.7480 C   0  0  0  0  0  0  0  0  0  0  0  0
  188.7670  172.6890  134.5940 O   0  0  0  0  0  1  0  0  0  0  0  0
  189.5270  177.5430  136.1040 C   0  0  1  0  0  3  0  0  0  0  0  0
  188.8840  173.2040  135.8930 C   0  0  1  0  0  3  0  0  0  0  0  0
  188.2120  175.5320  136.8800 C   0  0  2  0  0  3  0  0  0  0  0  0
  186.8280  174.9690  137.1140 C   0  0  0  0  0  2  0  0  0  0  0  0
  186.9600  173.5610  137.6680 C   0  0  0  0  0  2  0  0  0  0  0  0
  188.1550  177.0290  136.5720 C   0  0  0  0  0  2  0  0  0  0  0  0
  187.6700  171.3570  136.9400 C   0  0  0  0  0  2  0  0  0  0  0  0
  192.7000  177.3760  139.1730 C   0  0  0  0  0  2  0  0  0  0  0  0
  192.3120  176.3520  138.4150 C   0  0  0  0  0  0  0  0  0  0  0  0
  193.3290  175.3070  138.0300 C   0  0  0  0  0  2  0  0  0  0  0  0
  192.6640  174.0380  137.5020 C   0  0  0  0  0  2  0  0  0  0  0  0
  193.5540  173.3120  136.5410 C   0  0  0  0  0  0  0  0  0  0  0  0
  193.2600  173.2560  135.3550 O   0  0  0  0  0  0  0  0  0  0  0  0
  194.7970  172.6460  137.0470 C   0  0  2  0  0  3  0  0  0  0  0  0
  195.7140  172.5000  136.0080 O   0  0  0  0  0  1  0  0  0  0  0  0
  194.4740  171.2840  137.6380 C   0  0  0  0  0  1  0  0  0  0  0  0
  1  2  1  0  0  0  0
  3  2  1  0  0  0  0
  4  5  1  0  0  0  0
  4  1  1  0  0  0  0
  5  3  2  0  0  0  0
  6  5  1  0  0  0  0
  7  6  1  0  0  0  0
  8  7  1  0  0  0  0
  9 10  1  0  0  0  0
  9  8  1  0  0  0  0
 11 13  1  0  0  0  0
 11 10  1  0  0  0  0
 12 11  2  0  0  0  0
 14 26  1  0  0  0  0
 14 16  1  0  0  0  0
 14 13  1  1  0  0  0
 17 15  2  0  0  0  0
 17 16  1  0  0  0  0
 18 17  1  0  0  0  0
 19 18  1  0  0  0  0
 21 20  2  0  0  0  0
 21 19  1  0  0  0  0
 22 21  2  0  0  0  0
 24 23  1  0  0  0  0
 24 21  1  0  0  0  0
 25 26  2  0  0  0  0
 26 27  1  0  0  0  0
 27 28  1  0  0  0  0
 28 31  1  0  0  0  0
 31 29  1  0  0  0  0
 31 30  1  0  0  0  0
 32 25  1  0  0  0  0
 34 32  1  0  0  0  0
 34 33  1  0  0  0  0
 35  1  1  0  0  0  0
 35 36  1  1  0  0  0
 36 37  3  0  0  0  0
 38 35  1  0  0  0  0
 39 38  1  0  0  0  0
 41 40  2  0  0  0  0
 41 39  1  0  0  0  0
 42 46  1  0  0  0  0
 42 43  1  1  0  0  0
 43 44  1  0  0  0  0
 44 45  2  0  0  0  0
 44 41  1  0  0  0  0
 46 60  1  1  0  0  0
 46 43  1  0  0  0  0
 47 53  1  0  0  0  0
 47 54  1  0  0  0  0
 48 47  2  0  0  0  0
 49 48  1  0  0  0  0
 50 58  2  0  0  0  0
 50 56  1  0  0  0  0
 52 49  1  6  0  0  0
 52 57  1  0  0  0  0
 52 42  1  0  0  0  0
 53 51  1  6  0  0  0
 53 50  1  0  0  0  0
 54 57  1  6  0  0  0
 54 55  1  0  0  0  0
 55 56  1  0  0  0  0
 60 59  2  0  0  0  0
 61 60  1  0  0  0  0
 62 61  1  0  0  0  0
 63 65  1  0  0  0  0
 63 62  1  0  0  0  0
 64 63  2  0  0  0  0
 65 67  1  6  0  0  0
 66 65  1  0  0  0  0
M  END
>  <MODEL>
2

>  <REMARK>
 VINA RESULT:      -2.9      1.511      2.438
  Name = 
  31 active torsions:
  status: ('A' for Active; 'I' for Inactive)
    1  A    between atoms: C_3  and  C_5
    2  A    between atoms: C_5  and  C_46
    3  A    between atoms: N_6  and  C_20
    4  A    between atoms: C_7  and  C_37
    5  A    between atoms: O_11  and  C_40
    6  A    between atoms: O_11  and  C_50
    7  A    between atoms: N_13  and  C_63
    8  A    between atoms: C_14  and  S_22
    9  A    between atoms: C_14  and  C_64
   10  A    between atoms: C_15  and  C_32
   11  A    between atoms: C_15  and  C_46
   12  A    between atoms: C_17  and  C_57
   13  A    between atoms: C_18  and  C_38
   14  A    between atoms: C_18  and  C_50
   15  A    between atoms: C_19  and  C_39
   16  A    between atoms: C_19  and  N_62
   17  A    between atoms: C_20  and  C_24
   18  A    between atoms: C_20  and  N_28
   19  A    between atoms: S_22  and  N_65
   20  A    between atoms: C_23  and  C_40
   21  A    between atoms: C_23  and  C_42
   22  A    between atoms: C_26  and  N_62
   23  A    between atoms: C_26  and  C_63
   24  A    between atoms: N_28  and  C_60
   25  A    between atoms: C_31  and  C_44
   26  A    between atoms: C_32  and  C_48
   27  A    between atoms: C_38  and  C_67
   28  A    between atoms: C_42  and  C_63
   29  A    between atoms: C_44  and  C_60
   30  A    between atoms: C_47  and  C_64
   31  A    between atoms: O_55  and  C_57
                            x       y       z     vdW  Elec       q    Type
                         _______ _______ _______ _____ _____    ______ ____

>  <TORSDO>
F 31

$$$$
=
 OpenBabel11042412143D

 67 70  0  0  1  0  0  0  0  0999 V2000
  187.6090  178.4290  138.0000 N   0  0  0  0  0  0  0  0  0  0  0  0
  188.9740  178.8630  137.6360 C   0  0  0  0  0  2  0  0  0  0  0  0
  189.7350  177.6710  137.2730 N   0  0  0  0  0  0  0  0  0  0  0  0
  187.6670  177.0340  137.8430 N   0  0  0  0  0  2  0  0  0  0  0  0
  188.9500  176.6710  137.4070 C   0  0  0  0  0  0  0  0  0  0  0  0
  189.3510  175.2670  137.1160 C   0  0  0  0  0  2  0  0  0  0  0  0
  190.8200  175.2100  136.7260 C   0  0  0  0  0  2  0  0  0  0  0  0
  191.7070  175.4010  137.9510 C   0  0  0  0  0  2  0  0  0  0  0  0
  192.2440  176.6940  137.9590 O   0  0  0  0  0  0  0  0  0  0  0  0
  193.2080  176.6860  138.9730 C   0  0  0  0  0  2  0  0  0  0  0  0
  192.5900  177.0920  140.2740 C   0  0  0  0  0  0  0  0  0  0  0  0
  193.3010  177.4450  141.2040 O   0  0  0  0  0  0  0  0  0  0  0  0
  191.1000  177.0680  140.4470 C   0  0  0  0  0  2  0  0  0  0  0  0
  190.6430  177.2810  141.8980 C   0  0  1  0  0  3  0  0  0  0  0  0
  190.9300  180.3050  143.9480 O   0  0  0  0  0  0  0  0  0  0  0  0
  190.7320  178.6800  142.3000 N   0  0  0  0  0  2  0  0  0  0  0  0
  190.8430  179.0810  143.6700 C   0  0  0  0  0  0  0  0  0  0  0  0
  190.8610  178.0700  144.7720 C   0  0  0  0  0  2  0  0  0  0  0  0
  189.5820  178.1680  145.5910 C   0  0  0  0  0  2  0  0  0  0  0  0
  189.1420  176.0510  147.2060 O   0  0  0  0  0  0  0  0  0  0  0  0
  189.7970  177.4080  147.1890 S   0  0  0  0  0  0  0  0  0  0  0  0
  191.2670  177.2610  147.4690 O   0  0  0  0  0  0  0  0  0  0  0  0
  187.6320  178.3680  148.2210 C   0  0  0  0  0  1  0  0  0  0  0  0
  189.0760  178.4240  148.3990 N   0  0  0  0  0  2  0  0  0  0  0  0
  188.1770  177.3830  141.9130 C   0  0  0  0  0  3  0  0  0  0  0  0
  189.2890  176.7110  142.2320 C   0  0  0  0  0  0  0  0  0  0  0  0
  189.1900  175.4280  142.8630 N   0  0  0  0  0  2  0  0  0  0  0  0
  189.9060  175.0650  144.0790 C   0  0  0  0  0  2  0  0  0  0  0  0
  192.2770  175.7360  144.3810 C   0  0  0  0  0  1  0  0  0  0  0  0
  191.6630  173.3430  144.3160 C   0  0  0  0  0  1  0  0  0  0  0  0
  191.3480  174.7120  143.7540 C   0  0  0  0  0  3  0  0  0  0  0  0
  188.1880  178.7220  141.2500 C   0  0  0  0  0  2  0  0  0  0  0  0
  186.0950  178.3490  141.8300 C   0  0  0  0  0  1  0  0  0  0  0  0
  186.9740  179.3720  141.4780 O   0  0  0  0  0  0  0  0  0  0  0  0
  186.6770  178.9520  136.9910 C   0  0  1  0  0  3  0  0  0  0  0  0
  186.6540  178.1130  135.7750 C   0  0  0  0  0  0  0  0  0  0  0  0
  186.6390  177.4300  134.7840 C   0  0  0  0  0  3  0  0  0  0  0  0
  185.3270  179.1280  137.5420 N   0  0  0  0  0  2  0  0  0  0  0  0
  185.0830  178.1750  138.6260 C   0  0  0  0  0  2  0  0  0  0  0  0
  182.7180  178.3270  138.7050 O   0  0  0  0  0  0  0  0  0  0  0  0
  183.7170  177.5970  138.4770 C   0  0  0  0  0  0  0  0  0  0  0  0
  181.2610  174.6050  137.4770 C   0  0  1  0  0  3  0  0  0  0  0  0
  182.2200  175.6830  137.8720 N   0  0  0  0  0  0  0  0  0  0  0  0
  183.5300  176.1880  138.1100 C   0  0  0  0  0  0  0  0  0  0  0  0
  184.5220  175.4180  138.0180 O   0  0  0  0  0  0  0  0  0  0  0  0
  180.7320  175.8230  137.8730 C   0  0  2  0  0  3  0  0  0  0  0  0
  183.9870  173.2650  135.5400 C   0  0  0  0  0  0  0  0  0  0  0  0
  183.7970  174.5910  135.4290 C   0  0  0  0  0  3  0  0  0  0  0  0
  182.4360  175.2290  135.3290 C   0  0  0  0  0  2  0  0  0  0  0  0
  185.4930  171.2250  135.5800 C   0  0  0  0  0  0  0  0  0  0  0  0
  186.1750  173.2850  134.5980 O   0  0  0  0  0  1  0  0  0  0  0  0
  181.3370  174.3700  135.9530 C   0  0  1  0  0  3  0  0  0  0  0  0
  185.4020  172.7370  135.6310 C   0  0  1  0  0  3  0  0  0  0  0  0
  182.8230  172.3330  135.8110 C   0  0  2  0  0  3  0  0  0  0  0  0
  183.0430  171.0010  135.1260 C   0  0  0  0  0  2  0  0  0  0  0  0
  184.2790  170.3460  135.7150 C   0  0  0  0  0  2  0  0  0  0  0  0
  181.4580  172.9210  135.4520 C   0  0  0  0  0  2  0  0  0  0  0  0
  186.6860  170.6600  135.7500 C   0  0  0  0  0  2  0  0  0  0  0  0
  179.1990  175.0420  139.5920 C   0  0  0  0  0  2  0  0  0  0  0  0
  180.2280  175.8320  139.2920 C   0  0  0  0  0  0  0  0  0  0  0  0
  180.6910  176.8410  140.3130 C   0  0  0  0  0  2  0  0  0  0  0  0
  179.5170  177.5710  140.9600 C   0  0  0  0  0  2  0  0  0  0  0  0
  179.8990  178.1600  142.2830 C   0  0  0  0  0  0  0  0  0  0  0  0
  179.4090  177.7220  143.3140 O   0  0  0  0  0  0  0  0  0  0  0  0
  180.8760  179.2960  142.3300 C   0  0  2  0  0  3  0  0  0  0  0  0
  180.8410  180.0020  141.1300 O   0  0  0  0  0  1  0  0  0  0  0  0
  182.2830  178.7830  142.5800 C   0  0  0  0  0  1  0  0  0  0  0  0
  2  1  1  0  0  0  0
  3  5  2  0  0  0  0
  3  2  1  0  0  0  0
  4  1  1  0  0  0  0
  5  4  1  0  0  0  0
  6  5  1  0  0  0  0
  7  6  1  0  0  0  0
  7  8  1  0  0  0  0
  8  9  1  0  0  0  0
  9 10  1  0  0  0  0
 10 11  1  0  0  0  0
 11 13  1  0  0  0  0
 11 12  2  0  0  0  0
 14 13  1  6  0  0  0
 14 26  1  0  0  0  0
 14 16  1  0  0  0  0
 16 17  1  0  0  0  0
 17 15  2  0  0  0  0
 17 18  1  0  0  0  0
 18 19  1  0  0  0  0
 19 21  1  0  0  0  0
 21 20  2  0  0  0  0
 21 22  2  0  0  0  0
 21 24  1  0  0  0  0
 23 24  1  0  0  0  0
 25 26  2  0  0  0  0
 26 27  1  0  0  0  0
 27 28  1  0  0  0  0
 31 28  1  0  0  0  0
 31 30  1  0  0  0  0
 31 29  1  0  0  0  0
 32 34  1  0  0  0  0
 32 25  1  0  0  0  0
 34 33  1  0  0  0  0
 35 36  1  6  0  0  0
 35 38  1  0  0  0  0
 35  1  1  0  0  0  0
 37 36  3  0  0  0  0
 38 39  1  0  0  0  0
 41 39  1  0  0  0  0
 41 40  2  0  0  0  0
 42 43  1  6  0  0  0
 42 46  1  0  0  0  0
 43 46  1  0  0  0  0
 43 44  1  0  0  0  0
 44 41  1  0  0  0  0
 45 44  2  0  0  0  0
 46 60  1  1  0  0  0
 47 53  1  0  0  0  0
 47 54  1  0  0  0  0
 48 47  2  0  0  0  0
 49 48  1  0  0  0  0
 50 53  1  0  0  0  0
 50 56  1  0  0  0  0
 50 58  2  0  0  0  0
 52 49  1  1  0  0  0
 52 42  1  0  0  0  0
 53 51  1  6  0  0  0
 54 55  1  6  0  0  0
 55 56  1  0  0  0  0
 57 54  1  0  0  0  0
 57 52  1  0  0  0  0
 60 59  2  0  0  0  0
 60 61  1  0  0  0  0
 61 62  1  0  0  0  0
 62 63  1  0  0  0  0
 63 65  1  0  0  0  0
 63 64  2  0  0  0  0
 65 67  1  6  0  0  0
 66 65  1  0  0  0  0
M  END
>  <MODEL>
3

>  <REMARK>
 VINA RESULT:      -2.0      3.466     10.868
  Name = 
  31 active torsions:
  status: ('A' for Active; 'I' for Inactive)
    1  A    between atoms: C_3  and  C_5
    2  A    between atoms: C_5  and  C_46
    3  A    between atoms: N_6  and  C_20
    4  A    between atoms: C_7  and  C_37
    5  A    between atoms: O_11  and  C_40
    6  A    between atoms: O_11  and  C_50
    7  A    between atoms: N_13  and  C_63
    8  A    between atoms: C_14  and  S_22
    9  A    between atoms: C_14  and  C_64
   10  A    between atoms: C_15  and  C_32
   11  A    between atoms: C_15  and  C_46
   12  A    between atoms: C_17  and  C_57
   13  A    between atoms: C_18  and  C_38
   14  A    between atoms: C_18  and  C_50
   15  A    between atoms: C_19  and  C_39
   16  A    between atoms: C_19  and  N_62
   17  A    between atoms: C_20  and  C_24
   18  A    between atoms: C_20  and  N_28
   19  A    between atoms: S_22  and  N_65
   20  A    between atoms: C_23  and  C_40
   21  A    between atoms: C_23  and  C_42
   22  A    between atoms: C_26  and  N_62
   23  A    between atoms: C_26  and  C_63
   24  A    between atoms: N_28  and  C_60
   25  A    between atoms: C_31  and  C_44
   26  A    between atoms: C_32  and  C_48
   27  A    between atoms: C_38  and  C_67
   28  A    between atoms: C_42  and  C_63
   29  A    between atoms: C_44  and  C_60
   30  A    between atoms: C_47  and  C_64
   31  A    between atoms: O_55  and  C_57
                            x       y       z     vdW  Elec       q    Type
                         _______ _______ _______ _____ _____    ______ ____

>  <TORSDO>
F 31

$$$$
=
 OpenBabel11042412143D

 67 70  0  0  1  0  0  0  0  0999 V2000
  191.3260  175.7680  142.4060 N   0  0  0  0  0  0  0  0  0  0  0  0
  189.9720  175.5690  142.9610 C   0  0  0  0  0  2  0  0  0  0  0  0
  189.9410  176.1870  144.2830 N   0  0  0  0  0  0  0  0  0  0  0  0
  191.9910  176.4640  143.4290 N   0  0  0  0  0  2  0  0  0  0  0  0
  191.1030  176.6760  144.4950 C   0  0  0  0  0  0  0  0  0  0  0  0
  191.4730  177.4070  145.7380 C   0  0  0  0  0  2  0  0  0  0  0  0
  190.2420  177.6290  146.6030 C   0  0  0  0  0  2  0  0  0  0  0  0
  189.1110  178.2360  145.7810 C   0  0  0  0  0  2  0  0  0  0  0  0
  188.2280  177.2340  145.3650 O   0  0  0  0  0  0  0  0  0  0  0  0
  187.1690  177.9110  144.7480 C   0  0  0  0  0  2  0  0  0  0  0  0
  186.4000  176.9740  143.8700 C   0  0  0  0  0  0  0  0  0  0  0  0
  186.7030  175.7910  143.8280 O   0  0  0  0  0  0  0  0  0  0  0  0
  185.2580  177.4790  143.0380 C   0  0  0  0  0  2  0  0  0  0  0  0
  184.8680  178.9330  143.3430 C   0  0  1  0  0  3  0  0  0  0  0  0
  184.6080  180.0400  139.8590 O   0  0  0  0  0  0  0  0  0  0  0  0
  184.8940  179.7690  142.1480 N   0  0  0  0  0  2  0  0  0  0  0  0
  184.5800  179.2610  140.8470 C   0  0  0  0  0  0  0  0  0  0  0  0
  184.2180  177.8230  140.6450 C   0  0  0  0  0  2  0  0  0  0  0  0
  183.6910  177.6120  139.2330 C   0  0  0  0  0  2  0  0  0  0  0  0
  181.7280  175.7840  139.5300 O   0  0  0  0  0  0  0  0  0  0  0  0
  181.9460  177.2500  139.2600 S   0  0  0  0  0  0  0  0  0  0  0  0
  181.2930  178.0640  140.3420 O   0  0  0  0  0  0  0  0  0  0  0  0
  180.0760  176.8450  137.5230 C   0  0  0  0  0  1  0  0  0  0  0  0
  181.2570  177.6730  137.7220 N   0  0  0  0  0  2  0  0  0  0  0  0
  183.5040  178.8310  145.3980 C   0  0  0  0  0  3  0  0  0  0  0  0
  183.5700  179.1030  144.0890 C   0  0  0  0  0  0  0  0  0  0  0  0
  182.4100  179.5910  143.4040 N   0  0  0  0  0  2  0  0  0  0  0  0
  181.1660  178.8420  143.2800 C   0  0  0  0  0  2  0  0  0  0  0  0
  179.2270  179.9080  142.1530 C   0  0  0  0  0  1  0  0  0  0  0  0
  179.0490  179.1810  144.5080 C   0  0  0  0  0  1  0  0  0  0  0  0
  179.9760  179.7680  143.4660 C   0  0  0  0  0  3  0  0  0  0  0  0
  184.6640  178.3240  146.1910 C   0  0  0  0  0  2  0  0  0  0  0  0
  186.2220  179.3930  147.3260 C   0  0  0  0  0  1  0  0  0  0  0  0
  184.8540  179.1250  147.3180 O   0  0  0  0  0  0  0  0  0  0  0  0
  191.2200  176.6700  141.2500 C   0  0  1  0  0  3  0  0  0  0  0  0
  189.8300  177.1170  141.0260 C   0  0  0  0  0  0  0  0  0  0  0  0
  188.6960  177.4780  140.8420 C   0  0  0  0  0  3  0  0  0  0  0  0
  192.1330  177.8140  141.3730 N   0  0  0  0  0  2  0  0  0  0  0  0
  193.1580  177.7720  140.3280 C   0  0  0  0  0  2  0  0  0  0  0  0
  191.5640  177.9080  138.5780 O   0  0  0  0  0  0  0  0  0  0  0  0
  192.5490  177.2890  139.0580 C   0  0  0  0  0  0  0  0  0  0  0  0
  192.1140  174.4770  136.2480 C   0  0  1  0  0  3  0  0  0  0  0  0
  192.3120  175.4900  137.3310 N   0  0  0  0  0  0  0  0  0  0  0  0
  193.0580  176.0850  138.3880 C   0  0  0  0  0  0  0  0  0  0  0  0
  194.1460  175.5660  138.7530 O   0  0  0  0  0  0  0  0  0  0  0  0
  191.0880  175.3790  136.4800 C   0  0  2  0  0  3  0  0  0  0  0  0
  195.7000  174.8120  136.1970 C   0  0  0  0  0  0  0  0  0  0  0  0
  195.0110  175.9640  136.1120 C   0  0  0  0  0  3  0  0  0  0  0  0
  193.7660  176.1260  135.2790 C   0  0  0  0  0  2  0  0  0  0  0  0
  197.7220  173.4760  136.9440 C   0  0  0  0  0  0  0  0  0  0  0  0
  197.7760  175.8480  136.7420 O   0  0  0  0  0  1  0  0  0  0  0  0
  193.0360  174.8030  135.0520 C   0  0  1  0  0  3  0  0  0  0  0  0
  196.9400  174.7690  137.0630 C   0  0  1  0  0  3  0  0  0  0  0  0
  195.1310  173.5230  135.6420 C   0  0  2  0  0  3  0  0  0  0  0  0
  196.2400  172.6420  135.1080 C   0  0  0  0  0  2  0  0  0  0  0  0
  197.1580  172.2620  136.2560 C   0  0  0  0  0  2  0  0  0  0  0  0
  194.0330  173.7260  134.5960 C   0  0  0  0  0  2  0  0  0  0  0  0
  198.7750  173.3010  137.7380 C   0  0  0  0  0  2  0  0  0  0  0  0
  190.1650  174.6180  138.5980 C   0  0  0  0  0  2  0  0  0  0  0  0
  189.9570  174.8120  137.2970 C   0  0  0  0  0  0  0  0  0  0  0  0
  188.7000  174.2600  136.6720 C   0  0  0  0  0  2  0  0  0  0  0  0
  187.4920  175.1530  136.9480 C   0  0  0  0  0  2  0  0  0  0  0  0
  187.1090  175.9480  135.7380 C   0  0  0  0  0  0  0  0  0  0  0  0
  187.0200  175.4010  134.6480 O   0  0  0  0  0  0  0  0  0  0  0  0
  186.8490  177.4170  135.8730 C   0  0  2  0  0  3  0  0  0  0  0  0
  187.5660  177.9300  136.9510 O   0  0  0  0  0  1  0  0  0  0  0  0
  185.3670  177.6830  136.0720 C   0  0  0  0  0  1  0  0  0  0  0  0
  1  2  1  0  0  0  0
  1  4  1  0  0  0  0
  2  3  1  0  0  0  0
  3  5  2  0  0  0  0
  4  5  1  0  0  0  0
  5  6  1  0  0  0  0
  6  7  1  0  0  0  0
  8  7  1  0  0  0  0
  9  8  1  0  0  0  0
 10  9  1  0  0  0  0
 11 10  1  0  0  0  0
 12 11  2  0  0  0  0
 13 11  1  0  0  0  0
 14 13  1  6  0  0  0
 14 26  1  0  0  0  0
 15 17  2  0  0  0  0
 16 14  1  0  0  0  0
 17 16  1  0  0  0  0
 18 17  1  0  0  0  0
 19 21  1  0  0  0  0
 19 18  1  0  0  0  0
 21 20  2  0  0  0  0
 21 22  2  0  0  0  0
 23 24  1  0  0  0  0
 24 21  1  0  0  0  0
 25 32  1  0  0  0  0
 26 25  2  0  0  0  0
 27 26  1  0  0  0  0
 28 27  1  0  0  0  0
 28 31  1  0  0  0  0
 29 31  1  0  0  0  0
 31 30  1  0  0  0  0
 32 34  1  0  0  0  0
 34 33  1  0  0  0  0
 35 36  1  1  0  0  0
 35 38  1  0  0  0  0
 35  1  1  0  0  0  0
 37 36  3  0  0  0  0
 39 38  1  0  0  0  0
 40 41  2  0  0  0  0
 41 39  1  0  0  0  0
 42 46  1  0  0  0  0
 42 43  1  1  0  0  0
 43 44  1  0  0  0  0
 44 45  2  0  0  0  0
 44 41  1  0  0  0  0
 46 60  1  1  0  0  0
 46 43  1  0  0  0  0
 47 53  1  0  0  0  0
 48 47  2  0  0  0  0
 49 48  1  0  0  0  0
 50 53  1  0  0  0  0
 50 58  2  0  0  0  0
 52 57  1  1  0  0  0
 52 49  1  0  0  0  0
 52 42  1  0  0  0  0
 53 51  1  6  0  0  0
 54 57  1  6  0  0  0
 54 47  1  0  0  0  0
 55 54  1  0  0  0  0
 55 56  1  0  0  0  0
 56 50  1  0  0  0  0
 60 59  2  0  0  0  0
 61 62  1  0  0  0  0
 61 60  1  0  0  0  0
 63 65  1  0  0  0  0
 63 62  1  0  0  0  0
 64 63  2  0  0  0  0
 65 67  1  1  0  0  0
 65 66  1  0  0  0  0
M  END
>  <MODEL>
4

>  <REMARK>
 VINA RESULT:      -1.6      2.625      6.383
  Name = 
  31 active torsions:
  status: ('A' for Active; 'I' for Inactive)
    1  A    between atoms: C_3  and  C_5
    2  A    between atoms: C_5  and  C_46
    3  A    between atoms: N_6  and  C_20
    4  A    between atoms: C_7  and  C_37
    5  A    between atoms: O_11  and  C_40
    6  A    between atoms: O_11  and  C_50
    7  A    between atoms: N_13  and  C_63
    8  A    between atoms: C_14  and  S_22
    9  A    between atoms: C_14  and  C_64
   10  A    between atoms: C_15  and  C_32
   11  A    between atoms: C_15  and  C_46
   12  A    between atoms: C_17  and  C_57
   13  A    between atoms: C_18  and  C_38
   14  A    between atoms: C_18  and  C_50
   15  A    between atoms: C_19  and  C_39
   16  A    between atoms: C_19  and  N_62
   17  A    between atoms: C_20  and  C_24
   18  A    between atoms: C_20  and  N_28
   19  A    between atoms: S_22  and  N_65
   20  A    between atoms: C_23  and  C_40
   21  A    between atoms: C_23  and  C_42
   22  A    between atoms: C_26  and  N_62
   23  A    between atoms: C_26  and  C_63
   24  A    between atoms: N_28  and  C_60
   25  A    between atoms: C_31  and  C_44
   26  A    between atoms: C_32  and  C_48
   27  A    between atoms: C_38  and  C_67
   28  A    between atoms: C_42  and  C_63
   29  A    between atoms: C_44  and  C_60
   30  A    between atoms: C_47  and  C_64
   31  A    between atoms: O_55  and  C_57
                            x       y       z     vdW  Elec       q    Type
                         _______ _______ _______ _____ _____    ______ ____

>  <TORSDO>
F 31

$$$$
=
 OpenBabel11042412143D

 67 70  0  0  1  0  0  0  0  0999 V2000
  191.3730  177.8100  144.0920 N   0  0  0  0  0  0  0  0  0  0  0  0
  190.9960  176.3890  144.2290 C   0  0  0  0  0  2  0  0  0  0  0  0
  189.6370  176.3410  144.7610 N   0  0  0  0  0  0  0  0  0  0  0  0
  190.2350  178.4880  144.5600 N   0  0  0  0  0  2  0  0  0  0  0  0
  189.2580  177.5500  144.9280 C   0  0  0  0  0  0  0  0  0  0  0  0
  187.9140  177.9260  145.4460 C   0  0  0  0  0  2  0  0  0  0  0  0
  187.0710  178.5300  144.3330 C   0  0  0  0  0  2  0  0  0  0  0  0
  187.5120  177.9930  142.9760 C   0  0  0  0  0  2  0  0  0  0  0  0
  186.3980  177.5760  142.2390 O   0  0  0  0  0  0  0  0  0  0  0  0
  185.3310  178.3430  142.7220 C   0  0  0  0  0  2  0  0  0  0  0  0
  184.1730  178.2670  141.7780 C   0  0  0  0  0  0  0  0  0  0  0  0
  184.3460  177.8870  140.6290 O   0  0  0  0  0  0  0  0  0  0  0  0
  182.7970  178.6590  142.2310 C   0  0  0  0  0  2  0  0  0  0  0  0
  181.8700  179.0930  141.0860 C   0  0  1  0  0  3  0  0  0  0  0  0
  183.0700  179.5010  137.6470 O   0  0  0  0  0  0  0  0  0  0  0  0
  182.4480  178.8120  139.7760 N   0  0  0  0  0  2  0  0  0  0  0  0
  182.5480  179.8060  138.7510 C   0  0  0  0  0  0  0  0  0  0  0  0
  182.0440  181.1970  138.9700 C   0  0  0  0  0  2  0  0  0  0  0  0
  181.4740  181.7560  137.6740 C   0  0  0  0  0  2  0  0  0  0  0  0
  179.1210  181.4150  138.9510 O   0  0  0  0  0  0  0  0  0  0  0  0
  179.7820  182.2690  137.8990 S   0  0  0  0  0  0  0  0  0  0  0  0
  179.7580  183.7080  138.3310 O   0  0  0  0  0  0  0  0  0  0  0  0
  179.5980  182.9580  135.4160 C   0  0  0  0  0  1  0  0  0  0  0  0
  178.9360  182.1030  136.3910 N   0  0  0  0  0  2  0  0  0  0  0  0
  179.6490  178.9800  142.1570 C   0  0  0  0  0  3  0  0  0  0  0  0
  180.4590  178.5720  141.1730 C   0  0  0  0  0  0  0  0  0  0  0  0
  179.9710  177.6630  140.1780 N   0  0  0  0  0  2  0  0  0  0  0  0
  179.4730  178.0790  138.8730 C   0  0  0  0  0  2  0  0  0  0  0  0
  180.6330  175.9600  138.2990 C   0  0  0  0  0  1  0  0  0  0  0  0
  179.2300  177.1030  136.6160 C   0  0  0  0  0  1  0  0  0  0  0  0
  180.1840  177.3110  137.7720 C   0  0  0  0  0  3  0  0  0  0  0  0
  180.0740  179.9280  143.2310 C   0  0  0  0  0  2  0  0  0  0  0  0
  178.9410  179.7950  145.1160 C   0  0  0  0  0  1  0  0  0  0  0  0
  178.9500  180.4400  143.8800 O   0  0  0  0  0  0  0  0  0  0  0  0
  191.5120  178.1120  142.6600 C   0  0  1  0  0  3  0  0  0  0  0  0
  192.7450  177.5270  142.0920 C   0  0  0  0  0  0  0  0  0  0  0  0
  193.7510  177.0520  141.6320 C   0  0  0  0  0  3  0  0  0  0  0  0
  190.3270  177.6920  141.9010 N   0  0  0  0  0  2  0  0  0  0  0  0
  190.6980  176.7660  140.8310 C   0  0  0  0  0  2  0  0  0  0  0  0
  188.4920  176.5450  139.9890 O   0  0  0  0  0  0  0  0  0  0  0  0
  189.6890  176.8440  139.7380 C   0  0  0  0  0  0  0  0  0  0  0  0
  191.8620  176.1210  136.4600 C   0  0  1  0  0  3  0  0  0  0  0  0
  191.0470  176.4510  137.6700 N   0  0  0  0  0  0  0  0  0  0  0  0
  190.0810  177.2250  138.3740 C   0  0  0  0  0  0  0  0  0  0  0  0
  189.5790  178.2430  137.8290 O   0  0  0  0  0  0  0  0  0  0  0  0
  192.0640  175.3580  137.5990 C   0  0  2  0  0  3  0  0  0  0  0  0
  188.2840  175.7040  136.4750 C   0  0  0  0  0  0  0  0  0  0  0  0
  188.9970  174.5830  136.6850 C   0  0  0  0  0  3  0  0  0  0  0  0
  190.2540  174.2460  135.9260 C   0  0  0  0  0  2  0  0  0  0  0  0
  186.2280  177.1400  136.8540 C   0  0  0  0  0  0  0  0  0  0  0  0
  186.2240  174.7920  137.2520 O   0  0  0  0  0  1  0  0  0  0  0  0
  190.9590  175.4860  135.3790 C   0  0  1  0  0  3  0  0  0  0  0  0
  187.0340  175.9350  137.2970 C   0  0  1  0  0  3  0  0  0  0  0  0
  188.8330  176.8260  135.6190 C   0  0  2  0  0  3  0  0  0  0  0  0
  187.7120  177.5210  134.8760 C   0  0  0  0  0  2  0  0  0  0  0  0
  186.7740  178.1550  135.8870 C   0  0  0  0  0  2  0  0  0  0  0  0
  189.9450  176.3930  134.6630 C   0  0  0  0  0  2  0  0  0  0  0  0
  185.1630  177.4840  137.5740 C   0  0  0  0  0  2  0  0  0  0  0  0
  193.2770  176.9410  138.9920 C   0  0  0  0  0  2  0  0  0  0  0  0
  193.2860  175.7560  138.3850 C   0  0  0  0  0  0  0  0  0  0  0  0
  194.5770  174.9780  138.3300 C   0  0  0  0  0  2  0  0  0  0  0  0
  194.9770  174.6460  136.8940 C   0  0  0  0  0  2  0  0  0  0  0  0
  196.4490  174.3960  136.7790 C   0  0  0  0  0  0  0  0  0  0  0  0
  197.0750  174.8450  135.8300 O   0  0  0  0  0  0  0  0  0  0  0  0
  197.1430  173.5830  137.8290 C   0  0  2  0  0  3  0  0  0  0  0  0
  198.5230  173.7100  137.6930 O   0  0  0  0  0  1  0  0  0  0  0  0
  196.7510  172.1190  137.7200 C   0  0  0  0  0  1  0  0  0  0  0  0
  1  2  1  0  0  0  0
  1  4  1  0  0  0  0
  2  3  1  0  0  0  0
  3  5  2  0  0  0  0
  4  5  1  0  0  0  0
  5  6  1  0  0  0  0
  7  6  1  0  0  0  0
  8  7  1  0  0  0  0
  9 10  1  0  0  0  0
  9  8  1  0  0  0  0
 11 13  1  0  0  0  0
 11 10  1  0  0  0  0
 12 11  2  0  0  0  0
 14 26  1  0  0  0  0
 14 13  1  1  0  0  0
 15 17  2  0  0  0  0
 16 14  1  0  0  0  0
 17 18  1  0  0  0  0
 17 16  1  0  0  0  0
 19 21  1  0  0  0  0
 19 18  1  0  0  0  0
 21 22  2  0  0  0  0
 21 20  2  0  0  0  0
 23 24  1  0  0  0  0
 24 21  1  0  0  0  0
 25 32  1  0  0  0  0
 26 25  2  0  0  0  0
 27 26  1  0  0  0  0
 28 27  1  0  0  0  0
 30 31  1  0  0  0  0
 31 29  1  0  0  0  0
 31 28  1  0  0  0  0
 32 34  1  0  0  0  0
 34 33  1  0  0  0  0
 35 36  1  6  0  0  0
 35  1  1  0  0  0  0
 37 36  3  0  0  0  0
 38 35  1  0  0  0  0
 39 38  1  0  0  0  0
 41 40  2  0  0  0  0
 41 39  1  0  0  0  0
 42 46  1  0  0  0  0
 42 43  1  1  0  0  0
 43 44  1  0  0  0  0
 44 41  1  0  0  0  0
 45 44  2  0  0  0  0
 46 43  1  0  0  0  0
 46 60  1  1  0  0  0
 47 48  2  0  0  0  0
 47 53  1  0  0  0  0
 49 48  1  0  0  0  0
 50 53  1  0  0  0  0
 50 58  2  0  0  0  0
 52 57  1  1  0  0  0
 52 49  1  0  0  0  0
 52 42  1  0  0  0  0
 53 51  1  6  0  0  0
 54 57  1  6  0  0  0
 54 47  1  0  0  0  0
 55 54  1  0  0  0  0
 55 56  1  0  0  0  0
 56 50  1  0  0  0  0
 60 59  2  0  0  0  0
 61 60  1  0  0  0  0
 62 61  1  0  0  0  0
 63 62  1  0  0  0  0
 63 65  1  0  0  0  0
 64 63  2  0  0  0  0
 65 67  1  6  0  0  0
 66 65  1  0  0  0  0
M  END
>  <MODEL>
5

>  <REMARK>
 VINA RESULT:      -1.4      2.528      3.952
  Name = 
  31 active torsions:
  status: ('A' for Active; 'I' for Inactive)
    1  A    between atoms: C_3  and  C_5
    2  A    between atoms: C_5  and  C_46
    3  A    between atoms: N_6  and  C_20
    4  A    between atoms: C_7  and  C_37
    5  A    between atoms: O_11  and  C_40
    6  A    between atoms: O_11  and  C_50
    7  A    between atoms: N_13  and  C_63
    8  A    between atoms: C_14  and  S_22
    9  A    between atoms: C_14  and  C_64
   10  A    between atoms: C_15  and  C_32
   11  A    between atoms: C_15  and  C_46
   12  A    between atoms: C_17  and  C_57
   13  A    between atoms: C_18  and  C_38
   14  A    between atoms: C_18  and  C_50
   15  A    between atoms: C_19  and  C_39
   16  A    between atoms: C_19  and  N_62
   17  A    between atoms: C_20  and  C_24
   18  A    between atoms: C_20  and  N_28
   19  A    between atoms: S_22  and  N_65
   20  A    between atoms: C_23  and  C_40
   21  A    between atoms: C_23  and  C_42
   22  A    between atoms: C_26  and  N_62
   23  A    between atoms: C_26  and  C_63
   24  A    between atoms: N_28  and  C_60
   25  A    between atoms: C_31  and  C_44
   26  A    between atoms: C_32  and  C_48
   27  A    between atoms: C_38  and  C_67
   28  A    between atoms: C_42  and  C_63
   29  A    between atoms: C_44  and  C_60
   30  A    between atoms: C_47  and  C_64
   31  A    between atoms: O_55  and  C_57
                            x       y       z     vdW  Elec       q    Type
                         _______ _______ _______ _____ _____    ______ ____

>  <TORSDO>
F 31

$$$$
=
 OpenBabel11042412143D

 67 70  0  0  1  0  0  0  0  0999 V2000
  187.4620  178.5300  138.0520 N   0  0  0  0  0  0  0  0  0  0  0  0
  188.8530  178.9910  137.8620 C   0  0  0  0  0  2  0  0  0  0  0  0
  189.6700  177.8200  137.5570 N   0  0  0  0  0  0  0  0  0  0  0  0
  187.5590  177.1420  137.8640 N   0  0  0  0  0  2  0  0  0  0  0  0
  188.8900  176.8070  137.5710 C   0  0  0  0  0  0  0  0  0  0  0  0
  189.3440  175.4170  137.2910 C   0  0  0  0  0  2  0  0  0  0  0  0
  190.8260  175.4080  136.9440 C   0  0  0  0  0  2  0  0  0  0  0  0
  191.6690  175.6540  138.1890 C   0  0  0  0  0  2  0  0  0  0  0  0
  191.9470  177.0200  138.3190 O   0  0  0  0  0  0  0  0  0  0  0  0
  192.8760  177.1080  139.3620 C   0  0  0  0  0  2  0  0  0  0  0  0
  192.1690  177.2240  140.6750 C   0  0  0  0  0  0  0  0  0  0  0  0
  192.5260  178.0620  141.4890 O   0  0  0  0  0  0  0  0  0  0  0  0
  191.0200  176.3150  141.0000 C   0  0  0  0  0  2  0  0  0  0  0  0
  190.2280  176.7430  142.2450 C   0  0  1  0  0  3  0  0  0  0  0  0
  191.2960  176.6200  145.7480 O   0  0  0  0  0  0  0  0  0  0  0  0
  191.0600  176.7690  143.4420 N   0  0  0  0  0  2  0  0  0  0  0  0
  190.5210  176.6010  144.7570 C   0  0  0  0  0  0  0  0  0  0  0  0
  189.0530  176.4000  144.9720 C   0  0  0  0  0  2  0  0  0  0  0  0
  188.4120  177.7000  145.4360 C   0  0  0  0  0  2  0  0  0  0  0  0
  188.2440  176.2310  147.6940 O   0  0  0  0  0  0  0  0  0  0  0  0
  188.0510  177.6350  147.1810 S   0  0  0  0  0  0  0  0  0  0  0  0
  188.9760  178.5700  147.9090 O   0  0  0  0  0  0  0  0  0  0  0  0
  186.3520  179.5790  147.2770 C   0  0  0  0  0  1  0  0  0  0  0  0
  186.4060  178.1330  147.4360 N   0  0  0  0  0  2  0  0  0  0  0  0
  189.9180  179.1590  142.6450 C   0  0  0  0  0  3  0  0  0  0  0  0
  189.4550  178.0280  142.1000 C   0  0  0  0  0  0  0  0  0  0  0  0
  188.2370  178.0480  141.3460 N   0  0  0  0  0  2  0  0  0  0  0  0
  187.2320  179.0980  141.4540 C   0  0  0  0  0  2  0  0  0  0  0  0
  185.4060  180.0050  142.8690 C   0  0  0  0  0  1  0  0  0  0  0  0
  185.3880  177.6290  142.1930 C   0  0  0  0  0  1  0  0  0  0  0  0
  186.2720  178.7910  142.5900 C   0  0  0  0  0  3  0  0  0  0  0  0
  191.1800  179.2290  143.4420 C   0  0  0  0  0  2  0  0  0  0  0  0
  190.8580  180.2200  145.3840 C   0  0  0  0  0  1  0  0  0  0  0  0
  191.2700  180.4700  144.0760 O   0  0  0  0  0  0  0  0  0  0  0  0
  186.6460  179.0720  136.9550 C   0  0  1  0  0  3  0  0  0  0  0  0
  186.6650  178.1920  135.7680 C   0  0  0  0  0  0  0  0  0  0  0  0
  186.6800  177.4780  134.7980 C   0  0  0  0  0  3  0  0  0  0  0  0
  185.2710  179.3470  137.3910 N   0  0  0  0  0  2  0  0  0  0  0  0
  184.9430  178.5740  138.5900 C   0  0  0  0  0  2  0  0  0  0  0  0
  182.6860  179.2050  138.9480 O   0  0  0  0  0  0  0  0  0  0  0  0
  183.4810  178.2900  138.6110 C   0  0  0  0  0  0  0  0  0  0  0  0
  180.3630  175.8610  138.0060 C   0  0  1  0  0  3  0  0  0  0  0  0
  181.5630  176.7210  138.2470 N   0  0  0  0  0  0  0  0  0  0  0  0
  182.9670  176.9540  138.2830 C   0  0  0  0  0  0  0  0  0  0  0  0
  183.7640  176.0070  138.0480 O   0  0  0  0  0  0  0  0  0  0  0  0
  180.1490  177.1500  138.4700 C   0  0  2  0  0  3  0  0  0  0  0  0
  182.1320  173.6410  135.7890 C   0  0  0  0  0  0  0  0  0  0  0  0
  182.4460  174.9440  135.6730 C   0  0  0  0  0  3  0  0  0  0  0  0
  181.4240  176.0500  135.7210 C   0  0  0  0  0  2  0  0  0  0  0  0
  182.7500  171.1830  135.6930 C   0  0  0  0  0  0  0  0  0  0  0  0
  184.0390  172.8580  134.5940 O   0  0  0  0  0  1  0  0  0  0  0  0
  180.1640  175.6530  136.4890 C   0  0  1  0  0  3  0  0  0  0  0  0
  183.2430  172.6160  135.7230 C   0  0  1  0  0  3  0  0  0  0  0  0
  180.7430  173.2110  136.2150 C   0  0  2  0  0  3  0  0  0  0  0  0
  180.3610  171.9120  135.5380 C   0  0  0  0  0  2  0  0  0  0  0  0
  181.3200  170.8250  135.9900 C   0  0  0  0  0  2  0  0  0  0  0  0
  179.6690  174.2790  136.0080 C   0  0  0  0  0  2  0  0  0  0  0  0
  183.6520  170.2060  135.7330 C   0  0  0  0  0  2  0  0  0  0  0  0
  179.1270  176.2600  140.4910 C   0  0  0  0  0  2  0  0  0  0  0  0
  179.8720  177.2220  139.9480 C   0  0  0  0  0  0  0  0  0  0  0  0
  180.2140  178.4320  140.7820 C   0  0  0  0  0  2  0  0  0  0  0  0
  179.5210  178.3980  142.1410 C   0  0  0  0  0  2  0  0  0  0  0  0
  180.2480  179.2320  143.1500 C   0  0  0  0  0  0  0  0  0  0  0  0
  180.4580  180.4160  142.9290 O   0  0  0  0  0  0  0  0  0  0  0  0
  180.7230  178.6010  144.4230 C   0  0  2  0  0  3  0  0  0  0  0  0
  182.1140  178.6570  144.4900 O   0  0  0  0  0  1  0  0  0  0  0  0
  180.2650  177.1550  144.5090 C   0  0  0  0  0  1  0  0  0  0  0  0
  2  1  1  0  0  0  0
  3  5  2  0  0  0  0
  3  2  1  0  0  0  0
  4  1  1  0  0  0  0
  5  4  1  0  0  0  0
  6  5  1  0  0  0  0
  7  6  1  0  0  0  0
  7  8  1  0  0  0  0
  8  9  1  0  0  0  0
  9 10  1  0  0  0  0
 10 11  1  0  0  0  0
 11 13  1  0  0  0  0
 11 12  2  0  0  0  0
 14 13  1  6  0  0  0
 14 16  1  0  0  0  0
 16 17  1  0  0  0  0
 17 18  1  0  0  0  0
 17 15  2  0  0  0  0
 18 19  1  0  0  0  0
 19 21  1  0  0  0  0
 21 24  1  0  0  0  0
 21 20  2  0  0  0  0
 21 22  2  0  0  0  0
 23 24  1  0  0  0  0
 25 32  1  0  0  0  0
 26 14  1  0  0  0  0
 26 25  2  0  0  0  0
 27 28  1  0  0  0  0
 27 26  1  0  0  0  0
 28 31  1  0  0  0  0
 30 31  1  0  0  0  0
 31 29  1  0  0  0  0
 32 34  1  0  0  0  0
 34 33  1  0  0  0  0
 35 36  1  6  0  0  0
 35 38  1  0  0  0  0
 35  1  1  0  0  0  0
 37 36  3  0  0  0  0
 38 39  1  0  0  0  0
 39 41  1  0  0  0  0
 41 40  2  0  0  0  0
 42 43  1  6  0  0  0
 42 46  1  0  0  0  0
 43 44  1  0  0  0  0
 43 46  1  0  0  0  0
 44 41  1  0  0  0  0
 45 44  2  0  0  0  0
 46 60  1  1  0  0  0
 47 54  1  0  0  0  0
 48 49  1  0  0  0  0
 48 47  2  0  0  0  0
 50 53  1  0  0  0  0
 50 58  2  0  0  0  0
 50 56  1  0  0  0  0
 52 49  1  6  0  0  0
 52 42  1  0  0  0  0
 53 51  1  6  0  0  0
 53 47  1  0  0  0  0
 54 55  1  6  0  0  0
 55 56  1  0  0  0  0
 57 54  1  0  0  0  0
 57 52  1  0  0  0  0
 60 59  2  0  0  0  0
 60 61  1  0  0  0  0
 61 62  1  0  0  0  0
 62 63  1  0  0  0  0
 63 65  1  0  0  0  0
 64 63  2  0  0  0  0
 65 66  1  0  0  0  0
 65 67  1  6  0  0  0
M  END
>  <MODEL>
6

>  <REMARK>
 VINA RESULT:      -0.7      3.387     10.727
  Name = 
  31 active torsions:
  status: ('A' for Active; 'I' for Inactive)
    1  A    between atoms: C_3  and  C_5
    2  A    between atoms: C_5  and  C_46
    3  A    between atoms: N_6  and  C_20
    4  A    between atoms: C_7  and  C_37
    5  A    between atoms: O_11  and  C_40
    6  A    between atoms: O_11  and  C_50
    7  A    between atoms: N_13  and  C_63
    8  A    between atoms: C_14  and  S_22
    9  A    between atoms: C_14  and  C_64
   10  A    between atoms: C_15  and  C_32
   11  A    between atoms: C_15  and  C_46
   12  A    between atoms: C_17  and  C_57
   13  A    between atoms: C_18  and  C_38
   14  A    between atoms: C_18  and  C_50
   15  A    between atoms: C_19  and  C_39
   16  A    between atoms: C_19  and  N_62
   17  A    between atoms: C_20  and  C_24
   18  A    between atoms: C_20  and  N_28
   19  A    between atoms: S_22  and  N_65
   20  A    between atoms: C_23  and  C_40
   21  A    between atoms: C_23  and  C_42
   22  A    between atoms: C_26  and  N_62
   23  A    between atoms: C_26  and  C_63
   24  A    between atoms: N_28  and  C_60
   25  A    between atoms: C_31  and  C_44
   26  A    between atoms: C_32  and  C_48
   27  A    between atoms: C_38  and  C_67
   28  A    between atoms: C_42  and  C_63
   29  A    between atoms: C_44  and  C_60
   30  A    between atoms: C_47  and  C_64
   31  A    between atoms: O_55  and  C_57
                            x       y       z     vdW  Elec       q    Type
                         _______ _______ _______ _____ _____    ______ ____

>  <TORSDO>
F 31

$$$$
=
 OpenBabel11042412143D

 67 70  0  0  1  0  0  0  0  0999 V2000
  191.2880  175.6450  142.4970 N   0  0  0  0  0  0  0  0  0  0  0  0
  189.9620  175.4680  143.1240 C   0  0  0  0  0  2  0  0  0  0  0  0
  189.9350  176.2800  144.3370 N   0  0  0  0  0  0  0  0  0  0  0  0
  191.9430  176.5210  143.3790 N   0  0  0  0  0  2  0  0  0  0  0  0
  191.0750  176.8500  144.4310 C   0  0  0  0  0  0  0  0  0  0  0  0
  191.4390  177.7800  145.5350 C   0  0  0  0  0  2  0  0  0  0  0  0
  190.2120  178.1120  146.3700 C   0  0  0  0  0  2  0  0  0  0  0  0
  189.0300  178.4560  145.4710 C   0  0  0  0  0  2  0  0  0  0  0  0
  188.2460  177.3180  145.2520 O   0  0  0  0  0  0  0  0  0  0  0  0
  186.9930  177.8040  144.8620 C   0  0  0  0  0  2  0  0  0  0  0  0
  186.3550  176.8640  143.8890 C   0  0  0  0  0  0  0  0  0  0  0  0
  186.6470  175.6770  143.9060 O   0  0  0  0  0  0  0  0  0  0  0  0
  185.3570  177.3680  142.8880 C   0  0  0  0  0  2  0  0  0  0  0  0
  185.0820  178.8750  142.9980 C   0  0  1  0  0  3  0  0  0  0  0  0
  184.5320  179.6970  139.4690 O   0  0  0  0  0  0  0  0  0  0  0  0
  185.1520  179.5410  141.7010 N   0  0  0  0  0  2  0  0  0  0  0  0
  184.4390  179.0670  140.5550 C   0  0  0  0  0  0  0  0  0  0  0  0
  183.5860  177.8400  140.6260 C   0  0  0  0  0  2  0  0  0  0  0  0
  183.4490  177.2180  139.2440 C   0  0  0  0  0  2  0  0  0  0  0  0
  181.7370  175.3320  138.3530 O   0  0  0  0  0  0  0  0  0  0  0  0
  181.7650  176.7190  138.9420 S   0  0  0  0  0  0  0  0  0  0  0  0
  181.0100  176.7290  140.2420 O   0  0  0  0  0  0  0  0  0  0  0  0
  182.1020  178.5900  137.1920 C   0  0  0  0  0  1  0  0  0  0  0  0
  181.0320  177.8410  137.8380 N   0  0  0  0  0  2  0  0  0  0  0  0
  183.8360  179.5030  145.0350 C   0  0  0  0  0  3  0  0  0  0  0  0
  183.8120  179.2420  143.7220 C   0  0  0  0  0  0  0  0  0  0  0  0
  182.5810  179.3460  142.9970 N   0  0  0  0  0  2  0  0  0  0  0  0
  181.3750  178.5990  143.3340 C   0  0  0  0  0  2  0  0  0  0  0  0
  179.4000  179.7720  142.3920 C   0  0  0  0  0  1  0  0  0  0  0  0
  179.3640  178.9570  144.7240 C   0  0  0  0  0  1  0  0  0  0  0  0
  180.2350  179.5550  143.6410 C   0  0  0  0  0  3  0  0  0  0  0  0
  185.0750  179.4230  145.8650 C   0  0  0  0  0  2  0  0  0  0  0  0
  185.9190  179.0030  147.8570 C   0  0  0  0  0  1  0  0  0  0  0  0
  184.7980  178.7640  147.0640 O   0  0  0  0  0  0  0  0  0  0  0  0
  191.1030  176.3530  141.2230 C   0  0  1  0  0  3  0  0  0  0  0  0
  189.9490  177.2750  141.2680 C   0  0  0  0  0  0  0  0  0  0  0  0
  189.0070  178.0240  141.3040 C   0  0  0  0  0  3  0  0  0  0  0  0
  192.3270  177.0530  140.8110 N   0  0  0  0  0  2  0  0  0  0  0  0
  192.7480  176.6180  139.4790 C   0  0  0  0  0  2  0  0  0  0  0  0
  190.6750  177.2430  138.5110 O   0  0  0  0  0  0  0  0  0  0  0  0
  191.5440  176.3420  138.6450 C   0  0  0  0  0  0  0  0  0  0  0  0
  189.6580  174.0750  135.9450 C   0  0  1  0  0  3  0  0  0  0  0  0
  190.3750  174.8730  136.9880 N   0  0  0  0  0  0  0  0  0  0  0  0
  191.3460  175.0290  138.0180 C   0  0  0  0  0  0  0  0  0  0  0  0
  192.0200  174.0350  138.3960 O   0  0  0  0  0  0  0  0  0  0  0  0
  189.2480  175.3830  136.1490 C   0  0  2  0  0  3  0  0  0  0  0  0
  193.2230  173.5590  135.9070 C   0  0  0  0  0  0  0  0  0  0  0  0
  192.8100  174.7700  135.4920 C   0  0  0  0  0  3  0  0  0  0  0  0
  191.6050  174.9780  134.6110 C   0  0  0  0  0  2  0  0  0  0  0  0
  194.9140  172.0520  137.0490 C   0  0  0  0  0  0  0  0  0  0  0  0
  195.4970  174.2030  136.2100 O   0  0  0  0  0  1  0  0  0  0  0  0
  190.5870  173.8460  134.7330 C   0  0  1  0  0  3  0  0  0  0  0  0
  194.4500  173.4710  136.7880 C   0  0  1  0  0  3  0  0  0  0  0  0
  192.3570  172.3320  135.7090 C   0  0  2  0  0  3  0  0  0  0  0  0
  193.2180  171.1110  135.4670 C   0  0  0  0  0  2  0  0  0  0  0  0
  194.0660  170.8590  136.7010 C   0  0  0  0  0  2  0  0  0  0  0  0
  191.2980  172.4870  134.6170 C   0  0  0  0  0  2  0  0  0  0  0  0
  195.9270  171.8640  137.8900 C   0  0  0  0  0  2  0  0  0  0  0  0
  188.1570  175.6130  138.3120 C   0  0  0  0  0  2  0  0  0  0  0  0
  188.0060  175.5030  136.9930 C   0  0  0  0  0  0  0  0  0  0  0  0
  186.6210  175.2860  136.4370 C   0  0  0  0  0  2  0  0  0  0  0  0
  186.2800  173.8020  136.3290 C   0  0  0  0  0  2  0  0  0  0  0  0
  184.9740  173.4890  136.9910 C   0  0  0  0  0  0  0  0  0  0  0  0
  184.8470  173.6370  138.1980 O   0  0  0  0  0  0  0  0  0  0  0  0
  183.8310  172.9820  136.1650 C   0  0  2  0  0  3  0  0  0  0  0  0
  183.1450  174.0520  135.5970 O   0  0  0  0  0  1  0  0  0  0  0  0
  182.8800  172.1570  137.0140 C   0  0  0  0  0  1  0  0  0  0  0  0
  1  2  1  0  0  0  0
  1  4  1  0  0  0  0
  2  3  1  0  0  0  0
  3  5  2  0  0  0  0
  4  5  1  0  0  0  0
  5  6  1  0  0  0  0
  6  7  1  0  0  0  0
  8  7  1  0  0  0  0
  9  8  1  0  0  0  0
 10  9  1  0  0  0  0
 11 12  2  0  0  0  0
 11 10  1  0  0  0  0
 13 11  1  0  0  0  0
 14 13  1  6  0  0  0
 14 26  1  0  0  0  0
 15 17  2  0  0  0  0
 16 14  1  0  0  0  0
 17 18  1  0  0  0  0
 17 16  1  0  0  0  0
 19 18  1  0  0  0  0
 20 21  2  0  0  0  0
 21 19  1  0  0  0  0
 21 22  2  0  0  0  0
 23 24  1  0  0  0  0
 24 21  1  0  0  0  0
 25 32  1  0  0  0  0
 26 25  2  0  0  0  0
 27 28  1  0  0  0  0
 27 26  1  0  0  0  0
 28 31  1  0  0  0  0
 29 31  1  0  0  0  0
 31 30  1  0  0  0  0
 32 34  1  0  0  0  0
 34 33  1  0  0  0  0
 35 36  1  1  0  0  0
 35  1  1  0  0  0  0
 36 37  3  0  0  0  0
 38 35  1  0  0  0  0
 39 38  1  0  0  0  0
 40 41  2  0  0  0  0
 41 39  1  0  0  0  0
 42 46  1  0  0  0  0
 42 43  1  1  0  0  0
 43 44  1  0  0  0  0
 44 45  2  0  0  0  0
 44 41  1  0  0  0  0
 46 43  1  0  0  0  0
 46 60  1  1  0  0  0
 47 53  1  0  0  0  0
 48 47  2  0  0  0  0
 49 48  1  0  0  0  0
 50 58  2  0  0  0  0
 52 49  1  1  0  0  0
 52 42  1  0  0  0  0
 53 51  1  6  0  0  0
 53 50  1  0  0  0  0
 54 57  1  6  0  0  0
 54 47  1  0  0  0  0
 55 54  1  0  0  0  0
 55 56  1  0  0  0  0
 56 50  1  0  0  0  0
 57 52  1  0  0  0  0
 60 59  2  0  0  0  0
 61 60  1  0  0  0  0
 62 61  1  0  0  0  0
 62 63  1  0  0  0  0
 63 64  2  0  0  0  0
 65 63  1  0  0  0  0
 65 67  1  1  0  0  0
 66 65  1  0  0  0  0
M  END
>  <MODEL>
7

>  <REMARK>
 VINA RESULT:      -0.6      2.455      6.184
  Name = 
  31 active torsions:
  status: ('A' for Active; 'I' for Inactive)
    1  A    between atoms: C_3  and  C_5
    2  A    between atoms: C_5  and  C_46
    3  A    between atoms: N_6  and  C_20
    4  A    between atoms: C_7  and  C_37
    5  A    between atoms: O_11  and  C_40
    6  A    between atoms: O_11  and  C_50
    7  A    between atoms: N_13  and  C_63
    8  A    between atoms: C_14  and  S_22
    9  A    between atoms: C_14  and  C_64
   10  A    between atoms: C_15  and  C_32
   11  A    between atoms: C_15  and  C_46
   12  A    between atoms: C_17  and  C_57
   13  A    between atoms: C_18  and  C_38
   14  A    between atoms: C_18  and  C_50
   15  A    between atoms: C_19  and  C_39
   16  A    between atoms: C_19  and  N_62
   17  A    between atoms: C_20  and  C_24
   18  A    between atoms: C_20  and  N_28
   19  A    between atoms: S_22  and  N_65
   20  A    between atoms: C_23  and  C_40
   21  A    between atoms: C_23  and  C_42
   22  A    between atoms: C_26  and  N_62
   23  A    between atoms: C_26  and  C_63
   24  A    between atoms: N_28  and  C_60
   25  A    between atoms: C_31  and  C_44
   26  A    between atoms: C_32  and  C_48
   27  A    between atoms: C_38  and  C_67
   28  A    between atoms: C_42  and  C_63
   29  A    between atoms: C_44  and  C_60
   30  A    between atoms: C_47  and  C_64
   31  A    between atoms: O_55  and  C_57
                            x       y       z     vdW  Elec       q    Type
                         _______ _______ _______ _____ _____    ______ ____

>  <TORSDO>
F 31

$$$$
=
 OpenBabel11042412143D

 67 70  0  0  1  0  0  0  0  0999 V2000
  190.5500  178.1060  144.2000 N   0  0  0  0  0  0  0  0  0  0  0  0
  190.4300  177.6210  145.5910 C   0  0  0  0  0  2  0  0  0  0  0  0
  189.0160  177.6610  145.9530 N   0  0  0  0  0  0  0  0  0  0  0  0
  189.2230  178.4070  143.8530 N   0  0  0  0  0  2  0  0  0  0  0  0
  188.3830  178.1100  144.9370 C   0  0  0  0  0  0  0  0  0  0  0  0
  186.9050  178.2880  144.9030 C   0  0  0  0  0  2  0  0  0  0  0  0
  186.4350  179.0200  146.1520 C   0  0  0  0  0  2  0  0  0  0  0  0
  185.2850  178.2690  146.8120 C   0  0  0  0  0  2  0  0  0  0  0  0
  184.3010  177.9690  145.8630 O   0  0  0  0  0  0  0  0  0  0  0  0
  184.3330  179.0310  144.9520 C   0  0  0  0  0  2  0  0  0  0  0  0
  183.2530  178.8650  143.9290 C   0  0  0  0  0  0  0  0  0  0  0  0
  182.4020  178.0010  144.0750 O   0  0  0  0  0  0  0  0  0  0  0  0
  183.2090  179.7540  142.7220 C   0  0  0  0  0  2  0  0  0  0  0  0
  182.7750  179.0310  141.4380 C   0  0  1  0  0  3  0  0  0  0  0  0
  179.6530  177.1390  141.1250 O   0  0  0  0  0  0  0  0  0  0  0  0
  181.3600  178.6770  141.4600 N   0  0  0  0  0  2  0  0  0  0  0  0
  180.8860  177.3840  141.0690 C   0  0  0  0  0  0  0  0  0  0  0  0
  181.8290  176.3230  140.5990 C   0  0  0  0  0  2  0  0  0  0  0  0
  182.3020  176.6330  139.1870 C   0  0  0  0  0  2  0  0  0  0  0  0
  182.7770  174.5980  137.4790 O   0  0  0  0  0  0  0  0  0  0  0  0
  181.6560  175.4400  138.0300 S   0  0  0  0  0  0  0  0  0  0  0  0
  180.6640  174.5590  138.7370 O   0  0  0  0  0  0  0  0  0  0  0  0
  179.6380  176.8650  137.2700 C   0  0  0  0  0  1  0  0  0  0  0  0
  180.8610  176.2820  136.7350 N   0  0  0  0  0  2  0  0  0  0  0  0
  184.2390  179.3960  139.4840 C   0  0  0  0  0  3  0  0  0  0  0  0
  183.1320  179.7360  140.1550 C   0  0  0  0  0  0  0  0  0  0  0  0
  182.2660  180.7510  139.6330 N   0  0  0  0  0  2  0  0  0  0  0  0
  180.8210  180.7610  139.8220 C   0  0  0  0  0  2  0  0  0  0  0  0
  179.0760  182.3230  138.9990 C   0  0  0  0  0  1  0  0  0  0  0  0
  181.1610  182.0020  137.7130 C   0  0  0  0  0  1  0  0  0  0  0  0
  180.1330  181.3160  138.5860 C   0  0  0  0  0  3  0  0  0  0  0  0
  185.1950  178.3480  139.9530 C   0  0  0  0  0  2  0  0  0  0  0  0
  187.1100  178.4240  141.0410 C   0  0  0  0  0  1  0  0  0  0  0  0
  185.7570  178.7330  141.1720 O   0  0  0  0  0  0  0  0  0  0  0  0
  190.9860  176.9820  143.3590 C   0  0  1  0  0  3  0  0  0  0  0  0
  189.8410  176.2180  142.8230 C   0  0  0  0  0  0  0  0  0  0  0  0
  188.9050  175.5970  142.3900 C   0  0  0  0  0  3  0  0  0  0  0  0
  191.8780  177.4290  142.2800 N   0  0  0  0  0  2  0  0  0  0  0  0
  192.0870  176.3580  141.3050 C   0  0  0  0  0  2  0  0  0  0  0  0
  194.3610  176.5500  140.6590 O   0  0  0  0  0  0  0  0  0  0  0  0
  193.1590  176.7610  140.3510 C   0  0  0  0  0  0  0  0  0  0  0  0
  191.2730  176.7110  136.8250 C   0  0  1  0  0  3  0  0  0  0  0  0
  192.0180  176.7700  138.1210 N   0  0  0  0  0  0  0  0  0  0  0  0
  192.8300  177.4320  139.0860 C   0  0  0  0  0  0  0  0  0  0  0  0
  193.2740  178.5840  138.8430 O   0  0  0  0  0  0  0  0  0  0  0  0
  191.2920  175.5680  137.6100 C   0  0  2  0  0  3  0  0  0  0  0  0
  187.8820  175.7820  136.0440 C   0  0  0  0  0  0  0  0  0  0  0  0
  188.4800  176.5900  135.1500 C   0  0  0  0  0  3  0  0  0  0  0  0
  189.3620  177.7480  135.5390 C   0  0  0  0  0  2  0  0  0  0  0  0
  186.2620  173.9210  136.6310 C   0  0  0  0  0  0  0  0  0  0  0  0
  186.1010  175.1440  134.5940 O   0  0  0  0  0  1  0  0  0  0  0  0
  189.9920  177.5680  136.9190 C   0  0  1  0  0  3  0  0  0  0  0  0
  187.0150  174.6510  135.5360 C   0  0  1  0  0  3  0  0  0  0  0  0
  188.2480  175.8410  137.5130 C   0  0  2  0  0  3  0  0  0  0  0  0
  187.0390  175.5420  138.3720 C   0  0  0  0  0  2  0  0  0  0  0  0
  186.5760  174.1240  138.0880 C   0  0  0  0  0  2  0  0  0  0  0  0
  188.9170  177.1500  137.9360 C   0  0  0  0  0  2  0  0  0  0  0  0
  185.5480  172.8490  136.2970 C   0  0  0  0  0  2  0  0  0  0  0  0
  191.9740  173.7970  136.0880 C   0  0  0  0  0  2  0  0  0  0  0  0
  192.2870  174.5350  137.1520 C   0  0  0  0  0  0  0  0  0  0  0  0
  193.5020  174.1610  137.9630 C   0  0  0  0  0  2  0  0  0  0  0  0
  194.7460  174.9140  137.4990 C   0  0  0  0  0  2  0  0  0  0  0  0
  195.2230  174.4210  136.1680 C   0  0  0  0  0  0  0  0  0  0  0  0
  194.6210  174.7260  135.1500 O   0  0  0  0  0  0  0  0  0  0  0  0
  196.4350  173.5420  136.0990 C   0  0  2  0  0  3  0  0  0  0  0  0
  197.2080  173.8850  134.9920 O   0  0  0  0  0  1  0  0  0  0  0  0
  196.0340  172.0800  136.0090 C   0  0  0  0  0  1  0  0  0  0  0  0
  1  2  1  0  0  0  0
  2  3  1  0  0  0  0
  4  1  1  0  0  0  0
  4  5  1  0  0  0  0
  5  3  2  0  0  0  0
  6  5  1  0  0  0  0
  6  7  1  0  0  0  0
  7  8  1  0  0  0  0
  9  8  1  0  0  0  0
 10  9  1  0  0  0  0
 11 12  2  0  0  0  0
 11 10  1  0  0  0  0
 13 11  1  0  0  0  0
 14 16  1  0  0  0  0
 14 13  1  1  0  0  0
 17 15  2  0  0  0  0
 17 16  1  0  0  0  0
 18 17  1  0  0  0  0
 19 18  1  0  0  0  0
 20 21  2  0  0  0  0
 21 22  2  0  0  0  0
 21 19  1  0  0  0  0
 24 23  1  0  0  0  0
 24 21  1  0  0  0  0
 25 32  1  0  0  0  0
 25 26  2  0  0  0  0
 26 14  1  0  0  0  0
 27 28  1  0  0  0  0
 27 26  1  0  0  0  0
 30 31  1  0  0  0  0
 31 29  1  0  0  0  0
 31 28  1  0  0  0  0
 32 34  1  0  0  0  0
 33 34  1  0  0  0  0
 35 36  1  6  0  0  0
 35  1  1  0  0  0  0
 37 36  3  0  0  0  0
 38 35  1  0  0  0  0
 39 38  1  0  0  0  0
 41 40  2  0  0  0  0
 41 39  1  0  0  0  0
 42 52  1  0  0  0  0
 42 46  1  0  0  0  0
 42 43  1  1  0  0  0
 43 44  1  0  0  0  0
 44 41  1  0  0  0  0
 45 44  2  0  0  0  0
 46 60  1  6  0  0  0
 46 43  1  0  0  0  0
 47 54  1  0  0  0  0
 48 49  1  0  0  0  0
 48 47  2  0  0  0  0
 50 56  1  0  0  0  0
 52 49  1  6  0  0  0
 52 57  1  0  0  0  0
 53 51  1  6  0  0  0
 53 47  1  0  0  0  0
 53 50  1  0  0  0  0
 54 57  1  1  0  0  0
 54 55  1  0  0  0  0
 56 55  1  0  0  0  0
 58 50  2  0  0  0  0
 59 60  2  0  0  0  0
 60 61  1  0  0  0  0
 62 61  1  0  0  0  0
 63 62  1  0  0  0  0
 64 63  2  0  0  0  0
 65 67  1  6  0  0  0
 65 63  1  0  0  0  0
 66 65  1  0  0  0  0
M  END
>  <MODEL>
8

>  <REMARK>
 VINA RESULT:      -0.4      2.100      3.381
  Name = 
  31 active torsions:
  status: ('A' for Active; 'I' for Inactive)
    1  A    between atoms: C_3  and  C_5
    2  A    between atoms: C_5  and  C_46
    3  A    between atoms: N_6  and  C_20
    4  A    between atoms: C_7  and  C_37
    5  A    between atoms: O_11  and  C_40
    6  A    between atoms: O_11  and  C_50
    7  A    between atoms: N_13  and  C_63
    8  A    between atoms: C_14  and  S_22
    9  A    between atoms: C_14  and  C_64
   10  A    between atoms: C_15  and  C_32
   11  A    between atoms: C_15  and  C_46
   12  A    between atoms: C_17  and  C_57
   13  A    between atoms: C_18  and  C_38
   14  A    between atoms: C_18  and  C_50
   15  A    between atoms: C_19  and  C_39
   16  A    between atoms: C_19  and  N_62
   17  A    between atoms: C_20  and  C_24
   18  A    between atoms: C_20  and  N_28
   19  A    between atoms: S_22  and  N_65
   20  A    between atoms: C_23  and  C_40
   21  A    between atoms: C_23  and  C_42
   22  A    between atoms: C_26  and  N_62
   23  A    between atoms: C_26  and  C_63
   24  A    between atoms: N_28  and  C_60
   25  A    between atoms: C_31  and  C_44
   26  A    between atoms: C_32  and  C_48
   27  A    between atoms: C_38  and  C_67
   28  A    between atoms: C_42  and  C_63
   29  A    between atoms: C_44  and  C_60
   30  A    between atoms: C_47  and  C_64
   31  A    between atoms: O_55  and  C_57
                            x       y       z     vdW  Elec       q    Type
                         _______ _______ _______ _____ _____    ______ ____

>  <TORSDO>
F 31

$$$$
