=
 OpenBabel11032419213D

 70 78  0  0  1  0  0  0  0  0999 V2000
  191.4260  176.2880  138.5570 C   0  0  0  0  0  2  0  0  0  0  0  0
  187.3620  178.3920  137.5140 C   0  0  0  0  0  2  0  0  0  0  0  0
  189.1340  176.3180  138.8850 C   0  0  1  0  0  3  0  0  0  0  0  0
  188.3710  178.8810  138.5390 C   0  0  0  0  0  2  0  0  0  0  0  0
  190.2490  177.2010  138.2650 C   0  0  1  0  0  3  0  0  0  0  0  0
  189.9010  174.7290  137.1810 C   0  0  0  0  0  0  0  0  0  0  0  0
  186.2720  177.5590  138.1790 C   0  0  2  0  0  3  0  0  0  0  0  0
  185.6600  176.6000  137.1660 C   0  0  0  0  0  2  0  0  0  0  0  0
  189.2510  177.8090  139.2060 C   0  0  2  0  0  0  0  0  0  0  0  0
  191.3470  175.1370  137.5240 C   0  0  1  0  0  3  0  0  0  0  0  0
  187.4540  174.9010  137.4960 C   0  0  0  0  0  2  0  0  0  0  0  0
  188.8510  175.4040  137.7150 C   0  0  0  0  0  0  0  0  0  0  0  0
  186.7230  175.7480  136.4660 C   0  0  1  0  0  3  0  0  0  0  0  0
  189.7140  178.4850  142.8270 N   0  0  0  0  0  2  0  0  0  0  0  0
  188.9430  178.3340  141.6490 C   0  0  0  0  0  3  0  0  0  0  0  0
  189.7200  178.1330  140.5970 C   0  0  0  0  0  0  0  0  0  0  0  0
  191.1620  178.1300  140.9800 C   0  0  0  0  0  2  0  0  0  0  0  0
  191.1200  178.2720  142.5040 C   0  0  2  0  0  3  0  0  0  0  0  0
  191.6460  177.0090  143.1980 C   0  0  0  0  0  3  0  0  0  0  0  0
  191.0400  174.5790  143.6870 C   0  0  0  0  0  2  0  0  0  0  0  0
  191.7390  175.7840  145.4430 C   0  0  0  0  0  2  0  0  0  0  0  0
  191.6770  177.1450  144.7350 C   0  0  0  0  0  2  0  0  0  0  0  0
  190.8810  175.7620  142.7220 C   0  0  0  0  0  2  0  0  0  0  0  0
  192.1320  174.7720  144.5530 O   0  0  0  0  0  0  0  0  0  0  0  0
  189.6530  173.6510  136.3200 O   0  0  0  0  0  0  0  0  0  0  0  0
  189.1010  172.4200  136.7620 C   0  0  0  0  0  1  0  0  0  0  0  0
  185.2020  178.4590  138.7750 C   0  0  0  0  0  2  0  0  0  0  0  0
  185.4950  178.7100  140.2510 C   0  0  0  0  0  2  0  0  0  0  0  0
  183.6730  177.1570  140.4490 F   0  0  0  0  0  0  0  0  0  0  0  0
  184.4620  178.0460  141.1630 C   0  0  2  0  0  3  0  0  0  0  0  0
  183.5990  179.0930  141.8960 C   0  0  1  0  0  3  0  0  0  0  0  0
  182.1030  178.7640  141.8530 C   0  0  0  0  0  1  0  0  0  0  0  0
  184.0570  179.3730  143.2100 O   0  0  0  0  0  0  0  0  0  0  0  0
  185.3660  178.8730  143.3400 C   0  0  0  0  0  2  0  0  0  0  0  0
  187.0700  178.1730  147.2950 C   0  0  0  0  0  2  0  0  0  0  0  0
  186.0550  179.6340  146.8300 S   0  0  0  0  0  0  0  0  0  0  0  0
  185.4880  177.9920  144.5690 C   0  0  1  0  0  3  0  0  0  0  0  0
  187.1150  177.0460  146.2500 C   0  0  0  0  0  2  0  0  0  0  0  0
  187.3210  176.4330  143.8620 C   0  0  0  0  0  1  0  0  0  0  0  0
  186.9410  177.5540  144.8150 C   0  0  1  0  0  3  0  0  0  0  0  0
  183.7470  178.6980  145.9940 O   0  0  0  0  0  0  0  0  0  0  0  0
  184.9420  178.7340  145.7500 C   0  0  0  0  0  0  0  0  0  0  0  0
  192.0780  175.5570  136.2540 C   0  0  0  0  0  2  0  0  0  0  0  0
  193.5570  175.7850  136.5320 C   0  0  0  0  0  2  0  0  0  0  0  0
  195.3460  174.0810  136.5330 C   0  0  1  0  0  3  0  0  0  0  0  0
  196.5080  173.6880  135.7570 N   0  0  0  0  0  1  0  0  0  0  0  0
  194.4160  174.8930  135.6520 C   0  0  1  0  0  3  0  0  0  0  0  0
  194.1050  173.4420  135.9500 C   0  0  0  0  0  2  0  0  0  0  0  0
  186.1350  174.8670  135.3560 C   0  0  1  0  0  3  0  0  0  0  0  0
  185.0040  173.5410  137.1970 F   0  0  0  0  0  0  0  0  0  0  0  0
  184.1200  171.5620  135.5170 C   0  0  0  0  0  1  0  0  0  0  0  0
  185.1320  172.5290  134.9290 C   0  0  1  0  0  3  0  0  0  0  0  0
  185.5270  173.5710  135.9100 C   0  0  1  0  0  0  0  0  0  0  0  0
  186.3380  172.4520  135.6560 O   0  0  0  0  0  0  0  0  0  0  0  0
  185.0810  175.6700  134.5960 C   0  0  0  0  0  2  0  0  0  0  0  0
  181.0560  177.5450  135.9270 C   0  0  0  0  0  0  0  0  0  0  0  0
  181.4650  175.2940  135.5170 N   0  0  0  0  0  0  0  0  0  0  0  0
  183.7610  175.0750  134.7290 N   0  0  0  0  0  2  0  0  0  0  0  0
  182.6300  177.5270  135.3270 S   0  0  0  0  0  0  0  0  0  0  0  0
  180.5790  176.2350  135.9440 C   0  0  0  0  0  0  0  0  0  0  0  0
  182.6370  175.8520  135.1490 C   0  0  0  0  0  0  0  0  0  0  0  0
  179.2220  175.8590  136.4240 C   0  0  0  0  0  1  0  0  0  0  0  0
  180.3070  178.7670  136.3620 C   0  0  2  0  0  3  0  0  0  0  0  0
  179.2590  180.7600  135.5740 O   0  0  0  0  0  1  0  0  0  0  0  0
  179.7910  179.5360  135.1600 C   0  0  0  0  0  2  0  0  0  0  0  0
  181.1700  179.6240  137.1580 N   0  0  0  0  0  2  0  0  0  0  0  0
  180.4980  179.8470  138.4240 C   0  0  0  0  0  2  0  0  0  0  0  0
  181.1180  181.0480  139.1170 C   0  0  0  0  0  2  0  0  0  0  0  0
  182.8350  182.5990  138.5260 O   0  0  0  0  0  1  0  0  0  0  0  0
  181.6280  182.0480  138.0940 C   0  0  0  0  0  2  0  0  0  0  0  0
  2  7  1  0  0  0  0
  2  4  1  0  0  0  0
  3 12  1  6  0  0  0
  3  9  1  0  0  0  0
  4  9  1  0  0  0  0
  5  1  1  1  0  0  0
  5  3  1  0  0  0  0
  5  9  1  0  0  0  0
  6 10  1  0  0  0  0
  6 12  2  0  0  0  0
  7 27  1  6  0  0  0
  8  7  1  0  0  0  0
  9 16  1  1  0  0  0
 10 43  1  6  0  0  0
 10  1  1  0  0  0  0
 11 12  1  0  0  0  0
 13 49  1  6  0  0  0
 13  8  1  0  0  0  0
 13 11  1  0  0  0  0
 15 14  1  0  0  0  0
 16 17  1  0  0  0  0
 16 15  2  0  0  0  0
 17 18  1  0  0  0  0
 18 14  1  0  0  0  0
 18 19  1  1  0  0  0
 19 22  1  0  0  0  0
 20 24  1  0  0  0  0
 22 21  1  0  0  0  0
 23 19  1  0  0  0  0
 23 20  1  0  0  0  0
 24 21  1  0  0  0  0
 25 26  1  0  0  0  0
 25  6  1  0  0  0  0
 27 28  1  0  0  0  0
 28 30  1  0  0  0  0
 30 29  1  6  0  0  0
 30 31  1  0  0  0  0
 31 32  1  1  0  0  0
 31 33  1  0  0  0  0
 33 34  1  0  0  0  0
 36 35  1  0  0  0  0
 37 34  1  6  0  0  0
 37 40  1  0  0  0  0
 37 42  1  0  0  0  0
 38 35  1  0  0  0  0
 40 39  1  6  0  0  0
 40 38  1  0  0  0  0
 42 41  2  0  0  0  0
 42 36  1  0  0  0  0
 43 44  1  0  0  0  0
 45 46  1  6  0  0  0
 47 48  1  0  0  0  0
 47 44  1  1  0  0  0
 47 45  1  0  0  0  0
 48 45  1  0  0  0  0
 49 55  1  1  0  0  0
 49 53  1  0  0  0  0
 52 51  1  1  0  0  0
 52 54  1  0  0  0  0
 52 53  1  0  0  0  0
 53 50  1  1  0  0  0
 54 53  1  0  0  0  0
 55 58  1  0  0  0  0
 56 60  2  0  0  0  0
 56 63  1  0  0  0  0
 57 60  1  0  0  0  0
 58 61  1  0  0  0  0
 59 56  1  0  0  0  0
 60 62  1  0  0  0  0
 61 59  1  0  0  0  0
 61 57  2  0  0  0  0
 63 65  1  6  0  0  0
 63 66  1  0  0  0  0
 65 64  1  0  0  0  0
 66 67  1  0  0  0  0
 67 68  1  0  0  0  0
 70 69  1  0  0  0  0
 70 68  1  0  0  0  0
M  END
>  <MODEL>
1

>  <REMARK>
 VINA RESULT:      -5.2      0.000      0.000
  Name = 
  23 active torsions:
  status: ('A' for Active; 'I' for Inactive)
    1  A    between atoms: C_1  and  C_60
    2  A    between atoms: C_1  and  C_62
    3  A    between atoms: C_2  and  C_8
    4  A    between atoms: C_2  and  C_66
    5  A    between atoms: C_2  and  C_68
    6  A    between atoms: C_7  and  C_43
    7  A    between atoms: C_7  and  C_48
    8  A    between atoms: C_8  and  N_35
    9  A    between atoms: C_9  and  C_47
   10  A    between atoms: C_14  and  C_49
   11  A    between atoms: C_14  and  C_51
   12  A    between atoms: C_17  and  CA_40
   13  A    between atoms: C_20  and  O_36
   14  A    between atoms: C_21  and  CA_40
   15  A    between atoms: C_25  and  O_38
   16  A    between atoms: C_25  and  C_48
   17  A    between atoms: C_27  and  C_33
   18  A    between atoms: C_29  and  C_56
   19  A    between atoms: C_30  and  C_43
   20  A    between atoms: O_38  and  C_56
   21  A    between atoms: C_39  and  C_51
   22  A    between atoms: CA_40  and  N_42
   23  A    between atoms: N_42  and  C_60
                            x       y       z     vdW  Elec       q    Type
                         _______ _______ _______ _____ _____    ______ ____

>  <TORSDO>
F 23

$$$$
=
 OpenBabel11032419213D

 70 78  0  0  1  0  0  0  0  0999 V2000
  186.4480  178.2430  142.6680 C   0  0  0  0  0  2  0  0  0  0  0  0
  189.5060  175.9260  139.9640 C   0  0  0  0  0  2  0  0  0  0  0  0
  188.2200  178.4100  141.1870 C   0  0  1  0  0  3  0  0  0  0  0  0
  189.6340  176.1310  141.4650 C   0  0  0  0  0  2  0  0  0  0  0  0
  187.4700  177.3320  142.0130 C   0  0  1  0  0  3  0  0  0  0  0  0
  186.0080  178.6990  140.1690 C   0  0  0  0  0  0  0  0  0  0  0  0
  190.2870  176.9910  139.2020 C   0  0  2  0  0  3  0  0  0  0  0  0
  189.6960  177.1740  137.8110 C   0  0  0  0  0  2  0  0  0  0  0  0
  188.9690  177.3900  142.0470 C   0  0  2  0  0  0  0  0  0  0  0  0
  185.3980  178.5690  141.5780 C   0  0  1  0  0  3  0  0  0  0  0  0
  187.9380  178.7440  138.6240 C   0  0  0  0  0  2  0  0  0  0  0  0
  187.3290  178.4650  139.9670 C   0  0  0  0  0  0  0  0  0  0  0  0
  188.1900  177.4530  137.8590 C   0  0  1  0  0  3  0  0  0  0  0  0
  190.5010  179.3980  144.7690 N   0  0  0  0  0  2  0  0  0  0  0  0
  190.0870  179.1700  143.4340 C   0  0  0  0  0  3  0  0  0  0  0  0
  189.6110  177.9440  143.2890 C   0  0  0  0  0  0  0  0  0  0  0  0
  189.6600  177.1860  144.5730 C   0  0  0  0  0  2  0  0  0  0  0  0
  190.1740  178.2270  145.5730 C   0  0  2  0  0  3  0  0  0  0  0  0
  189.1060  178.5730  146.6180 C   0  0  0  0  0  3  0  0  0  0  0  0
  188.2030  177.8470  148.8920 C   0  0  0  0  0  2  0  0  0  0  0  0
  186.6700  178.1570  147.2860 C   0  0  0  0  0  2  0  0  0  0  0  0
  187.6750  178.2680  146.1290 C   0  0  0  0  0  2  0  0  0  0  0  0
  189.4300  177.9160  147.9710 C   0  0  0  0  0  2  0  0  0  0  0  0
  187.1920  178.7240  148.4600 O   0  0  0  0  0  0  0  0  0  0  0  0
  185.2050  179.0670  139.0790 O   0  0  0  0  0  0  0  0  0  0  0  0
  184.2850  180.1470  139.1280 C   0  0  0  0  0  1  0  0  0  0  0  0
  191.7560  176.6110  139.1100 C   0  0  0  0  0  2  0  0  0  0  0  0
  192.2010  176.5940  137.6510 C   0  0  0  0  0  2  0  0  0  0  0  0
  194.1070  176.3020  136.2190 F   0  0  0  0  0  0  0  0  0  0  0  0
  193.6130  176.0290  137.4860 C   0  0  2  0  0  3  0  0  0  0  0  0
  193.6560  174.5180  137.7890 C   0  0  1  0  0  3  0  0  0  0  0  0
  192.7940  173.6960  136.8250 C   0  0  0  0  0  1  0  0  0  0  0  0
  194.9760  174.0100  137.9080 O   0  0  0  0  0  0  0  0  0  0  0  0
  195.0290  172.7600  137.2640 C   0  0  0  0  0  2  0  0  0  0  0  0
  199.1800  171.4400  136.9990 C   0  0  0  0  0  2  0  0  0  0  0  0
  197.7500  170.3470  137.3800 S   0  0  0  0  0  0  0  0  0  0  0  0
  196.3050  172.6240  136.4530 C   0  0  1  0  0  3  0  0  0  0  0  0
  198.8150  172.8610  136.5400 C   0  0  0  0  0  2  0  0  0  0  0  0
  197.3820  174.8490  136.8750 C   0  0  0  0  0  1  0  0  0  0  0  0
  197.4840  173.3530  137.1170 C   0  0  1  0  0  3  0  0  0  0  0  0
  196.0980  170.5520  135.3470 O   0  0  0  0  0  0  0  0  0  0  0  0
  196.6050  171.1680  136.2700 C   0  0  0  0  0  0  0  0  0  0  0  0
  184.3270  177.4850  141.5780 C   0  0  0  0  0  2  0  0  0  0  0  0
  182.9600  178.0740  141.2600 C   0  0  0  0  0  2  0  0  0  0  0  0
  181.2250  178.9860  142.7660 C   0  0  1  0  0  3  0  0  0  0  0  0
  180.6780  180.2610  143.1890 N   0  0  0  0  0  1  0  0  0  0  0  0
  182.6230  179.2040  142.2180 C   0  0  1  0  0  3  0  0  0  0  0  0
  182.4320  178.6440  143.6110 C   0  0  0  0  0  2  0  0  0  0  0  0
  187.5580  177.5170  136.4630 C   0  0  1  0  0  3  0  0  0  0  0  0
  189.2270  177.8960  134.5940 F   0  0  0  0  0  0  0  0  0  0  0  0
  190.2250  175.3430  134.6840 C   0  0  0  0  0  1  0  0  0  0  0  0
  188.9500  175.5860  135.4710 C   0  0  1  0  0  3  0  0  0  0  0  0
  188.5080  177.0000  135.3750 C   0  0  1  0  0  0  0  0  0  0  0  0
  187.9210  175.9880  134.5940 O   0  0  0  0  0  0  0  0  0  0  0  0
  186.2620  176.7070  136.4720 C   0  0  0  0  0  2  0  0  0  0  0  0
  181.7320  176.4210  137.4130 C   0  0  0  0  0  0  0  0  0  0  0  0
  182.7280  177.7670  135.8000 N   0  0  0  0  0  0  0  0  0  0  0  0
  185.1430  177.4900  135.9730 N   0  0  0  0  0  2  0  0  0  0  0  0
  183.3820  176.2020  137.6730 S   0  0  0  0  0  0  0  0  0  0  0  0
  181.5700  177.3200  136.3600 C   0  0  0  0  0  0  0  0  0  0  0  0
  183.8070  177.2380  136.4130 C   0  0  0  0  0  0  0  0  0  0  0  0
  180.2440  177.7470  135.8390 C   0  0  0  0  0  1  0  0  0  0  0  0
  180.6370  175.7580  138.1900 C   0  0  2  0  0  3  0  0  0  0  0  0
  180.0570  174.8850  140.3320 O   0  0  0  0  0  1  0  0  0  0  0  0
  181.1310  175.3370  139.5610 C   0  0  0  0  0  2  0  0  0  0  0  0
  180.1460  174.5950  137.4690 N   0  0  0  0  0  2  0  0  0  0  0  0
  181.2510  173.6610  137.3650 C   0  0  0  0  0  2  0  0  0  0  0  0
  181.1300  172.8810  136.0670 C   0  0  0  0  0  2  0  0  0  0  0  0
  179.4000  171.3010  136.5300 O   0  0  0  0  0  1  0  0  0  0  0  0
  179.6870  172.4710  135.8260 C   0  0  0  0  0  2  0  0  0  0  0  0
  2  4  1  0  0  0  0
  3 12  1  6  0  0  0
  3  5  1  0  0  0  0
  3  9  1  0  0  0  0
  4  9  1  0  0  0  0
  5  9  1  0  0  0  0
  5  1  1  1  0  0  0
  6 10  1  0  0  0  0
  7 27  1  6  0  0  0
  7  2  1  0  0  0  0
  8 13  1  0  0  0  0
  8  7  1  0  0  0  0
  9 16  1  1  0  0  0
 10 43  1  6  0  0  0
 10  1  1  0  0  0  0
 11 12  1  0  0  0  0
 12  6  2  0  0  0  0
 13 49  1  6  0  0  0
 13 11  1  0  0  0  0
 14 18  1  0  0  0  0
 15 14  1  0  0  0  0
 16 15  2  0  0  0  0
 16 17  1  0  0  0  0
 17 18  1  0  0  0  0
 18 19  1  1  0  0  0
 19 23  1  0  0  0  0
 21 24  1  0  0  0  0
 22 19  1  0  0  0  0
 22 21  1  0  0  0  0
 23 20  1  0  0  0  0
 24 20  1  0  0  0  0
 25 26  1  0  0  0  0
 25  6  1  0  0  0  0
 28 27  1  0  0  0  0
 30 29  1  6  0  0  0
 30 28  1  0  0  0  0
 30 31  1  0  0  0  0
 31 32  1  6  0  0  0
 31 33  1  0  0  0  0
 34 33  1  0  0  0  0
 35 36  1  0  0  0  0
 37 40  1  0  0  0  0
 37 34  1  1  0  0  0
 38 35  1  0  0  0  0
 38 40  1  0  0  0  0
 40 39  1  6  0  0  0
 41 42  2  0  0  0  0
 42 37  1  0  0  0  0
 42 36  1  0  0  0  0
 44 43  1  0  0  0  0
 45 46  1  1  0  0  0
 45 48  1  0  0  0  0
 47 44  1  6  0  0  0
 47 45  1  0  0  0  0
 47 48  1  0  0  0  0
 49 55  1  1  0  0  0
 52 51  1  6  0  0  0
 53 50  1  6  0  0  0
 53 52  1  0  0  0  0
 53 49  1  0  0  0  0
 54 53  1  0  0  0  0
 54 52  1  0  0  0  0
 56 59  1  0  0  0  0
 56 63  1  0  0  0  0
 57 60  1  0  0  0  0
 57 61  2  0  0  0  0
 58 61  1  0  0  0  0
 58 55  1  0  0  0  0
 60 56  2  0  0  0  0
 61 59  1  0  0  0  0
 62 60  1  0  0  0  0
 63 65  1  1  0  0  0
 65 64  1  0  0  0  0
 66 63  1  0  0  0  0
 67 66  1  0  0  0  0
 68 67  1  0  0  0  0
 70 68  1  0  0  0  0
 70 69  1  0  0  0  0
M  END
>  <MODEL>
2

>  <REMARK>
 VINA RESULT:      -4.9      3.644      9.008
  Name = 
  23 active torsions:
  status: ('A' for Active; 'I' for Inactive)
    1  A    between atoms: C_1  and  C_60
    2  A    between atoms: C_1  and  C_62
    3  A    between atoms: C_2  and  C_8
    4  A    between atoms: C_2  and  C_66
    5  A    between atoms: C_2  and  C_68
    6  A    between atoms: C_7  and  C_43
    7  A    between atoms: C_7  and  C_48
    8  A    between atoms: C_8  and  N_35
    9  A    between atoms: C_9  and  C_47
   10  A    between atoms: C_14  and  C_49
   11  A    between atoms: C_14  and  C_51
   12  A    between atoms: C_17  and  CA_40
   13  A    between atoms: C_20  and  O_36
   14  A    between atoms: C_21  and  CA_40
   15  A    between atoms: C_25  and  O_38
   16  A    between atoms: C_25  and  C_48
   17  A    between atoms: C_27  and  C_33
   18  A    between atoms: C_29  and  C_56
   19  A    between atoms: C_30  and  C_43
   20  A    between atoms: O_38  and  C_56
   21  A    between atoms: C_39  and  C_51
   22  A    between atoms: CA_40  and  N_42
   23  A    between atoms: N_42  and  C_60
                            x       y       z     vdW  Elec       q    Type
                         _______ _______ _______ _____ _____    ______ ____

>  <TORSDO>
F 23

$$$$
=
 OpenBabel11032419213D

 70 78  0  0  1  0  0  0  0  0999 V2000
  192.3640  177.0770  139.2640 C   0  0  0  0  0  2  0  0  0  0  0  0
  188.0900  178.2850  137.7440 C   0  0  0  0  0  2  0  0  0  0  0  0
  190.1020  176.5840  139.2870 C   0  0  1  0  0  3  0  0  0  0  0  0
  188.8290  178.9300  138.9050 C   0  0  0  0  0  2  0  0  0  0  0  0
  191.0570  177.7220  138.8410 C   0  0  1  0  0  3  0  0  0  0  0  0
  191.4110  175.2960  137.6620 C   0  0  0  0  0  0  0  0  0  0  0  0
  187.1430  177.1980  138.2390 C   0  0  2  0  0  3  0  0  0  0  0  0
  186.8920  176.1830  137.1330 C   0  0  0  0  0  2  0  0  0  0  0  0
  189.8390  178.0450  139.6560 C   0  0  2  0  0  0  0  0  0  0  0  0
  192.6740  175.9940  138.2010 C   0  0  1  0  0  3  0  0  0  0  0  0
  188.9690  174.9070  137.6550 C   0  0  0  0  0  2  0  0  0  0  0  0
  190.1780  175.6930  138.0680 C   0  0  0  0  0  0  0  0  0  0  0  0
  188.1980  175.6250  136.5580 C   0  0  1  0  0  3  0  0  0  0  0  0
  189.6630  178.6780  143.3100 N   0  0  0  0  0  2  0  0  0  0  0  0
  189.1030  178.4580  142.0280 C   0  0  0  0  0  3  0  0  0  0  0  0
  190.0480  178.3910  141.1040 C   0  0  0  0  0  0  0  0  0  0  0  0
  191.4040  178.5680  141.7000 C   0  0  0  0  0  2  0  0  0  0  0  0
  191.1170  178.6610  143.2020 C   0  0  2  0  0  3  0  0  0  0  0  0
  191.6990  177.4610  143.9590 C   0  0  0  0  0  3  0  0  0  0  0  0
  191.4720  174.9310  144.2020 C   0  0  0  0  0  2  0  0  0  0  0  0
  191.5020  176.0980  146.1160 C   0  0  0  0  0  2  0  0  0  0  0  0
  191.3470  177.4790  145.4610 C   0  0  0  0  0  2  0  0  0  0  0  0
  191.3170  176.1400  143.2690 C   0  0  0  0  0  2  0  0  0  0  0  0
  192.2760  175.2450  145.3130 O   0  0  0  0  0  0  0  0  0  0  0  0
  191.5200  174.2370  136.7490 O   0  0  0  0  0  0  0  0  0  0  0  0
  192.2020  173.0280  137.0470 C   0  0  0  0  0  1  0  0  0  0  0  0
  185.8330  177.8070  138.7110 C   0  0  0  0  0  2  0  0  0  0  0  0
  185.9550  178.2460  140.1670 C   0  0  0  0  0  2  0  0  0  0  0  0
  183.8660  177.0630  140.2380 F   0  0  0  0  0  0  0  0  0  0  0  0
  184.7790  177.7600  141.0150 C   0  0  2  0  0  3  0  0  0  0  0  0
  184.1000  178.9260  141.7620 C   0  0  1  0  0  3  0  0  0  0  0  0
  182.7370  179.2960  141.1680 C   0  0  0  0  0  1  0  0  0  0  0  0
  184.0480  178.7350  143.1670 O   0  0  0  0  0  0  0  0  0  0  0  0
  185.3510  178.8710  143.6810 C   0  0  0  0  0  2  0  0  0  0  0  0
  187.2770  178.1160  147.5220 C   0  0  0  0  0  2  0  0  0  0  0  0
  186.2110  179.5660  147.1470 S   0  0  0  0  0  0  0  0  0  0  0  0
  185.5550  177.9650  144.8810 C   0  0  1  0  0  3  0  0  0  0  0  0
  187.2870  177.0140  146.4500 C   0  0  0  0  0  2  0  0  0  0  0  0
  187.3770  176.4590  144.0410 C   0  0  0  0  0  1  0  0  0  0  0  0
  187.0270  177.5500  145.0400 C   0  0  1  0  0  3  0  0  0  0  0  0
  183.8800  178.6040  146.4120 O   0  0  0  0  0  0  0  0  0  0  0  0
  185.0590  178.6690  146.1070 C   0  0  0  0  0  0  0  0  0  0  0  0
  193.4420  176.6320  137.0490 C   0  0  0  0  0  2  0  0  0  0  0  0
  193.7190  175.6120  135.9540 C   0  0  0  0  0  2  0  0  0  0  0  0
  196.1190  175.1880  136.3630 C   0  0  1  0  0  3  0  0  0  0  0  0
  197.4100  175.8200  136.1650 N   0  0  0  0  0  1  0  0  0  0  0  0
  195.1200  175.7880  135.3920 C   0  0  1  0  0  3  0  0  0  0  0  0
  195.7260  174.4300  135.1140 C   0  0  0  0  0  2  0  0  0  0  0  0
  187.9650  174.6950  135.3600 C   0  0  1  0  0  3  0  0  0  0  0  0
  188.1760  172.7940  137.0230 F   0  0  0  0  0  0  0  0  0  0  0  0
  187.9690  170.8290  135.1220 C   0  0  0  0  0  1  0  0  0  0  0  0
  188.1720  172.2390  134.6000 C   0  0  1  0  0  3  0  0  0  0  0  0
  188.2490  173.2270  135.7050 C   0  0  1  0  0  0  0  0  0  0  0  0
  189.4040  172.7440  135.0660 O   0  0  0  0  0  0  0  0  0  0  0  0
  186.5240  174.8640  134.8790 C   0  0  0  0  0  2  0  0  0  0  0  0
  182.2380  174.1600  136.5000 C   0  0  0  0  0  0  0  0  0  0  0  0
  183.7920  172.5240  135.9400 N   0  0  0  0  0  0  0  0  0  0  0  0
  185.7650  173.6330  135.0370 N   0  0  0  0  0  2  0  0  0  0  0  0
  183.5150  175.0330  135.8300 S   0  0  0  0  0  0  0  0  0  0  0  0
  182.5660  172.8060  136.4610 C   0  0  0  0  0  0  0  0  0  0  0  0
  184.4320  173.6470  135.5520 C   0  0  0  0  0  0  0  0  0  0  0  0
  181.6800  171.7290  136.9790 C   0  0  0  0  0  1  0  0  0  0  0  0
  180.9730  174.7510  137.0400 C   0  0  2  0  0  3  0  0  0  0  0  0
  179.2640  173.9880  135.5610 O   0  0  0  0  0  1  0  0  0  0  0  0
  180.0230  175.1070  135.9120 C   0  0  0  0  0  2  0  0  0  0  0  0
  181.2710  175.9390  137.8230 N   0  0  0  0  0  2  0  0  0  0  0  0
  180.0050  176.5840  138.1150 C   0  0  0  0  0  2  0  0  0  0  0  0
  179.2720  175.7910  139.1840 C   0  0  0  0  0  2  0  0  0  0  0  0
  179.7660  177.7550  140.4510 O   0  0  0  0  0  1  0  0  0  0  0  0
  179.5340  176.3830  140.5580 C   0  0  0  0  0  2  0  0  0  0  0  0
  2  7  1  0  0  0  0
  2  4  1  0  0  0  0
  3 12  1  6  0  0  0
  3  9  1  0  0  0  0
  4  9  1  0  0  0  0
  5  1  1  1  0  0  0
  5  3  1  0  0  0  0
  5  9  1  0  0  0  0
  6 12  2  0  0  0  0
  6 10  1  0  0  0  0
  7 27  1  6  0  0  0
  8  7  1  0  0  0  0
  9 16  1  1  0  0  0
 10 43  1  6  0  0  0
 10  1  1  0  0  0  0
 11 12  1  0  0  0  0
 13 49  1  6  0  0  0
 13  8  1  0  0  0  0
 13 11  1  0  0  0  0
 15 14  1  0  0  0  0
 16 17  1  0  0  0  0
 16 15  2  0  0  0  0
 17 18  1  0  0  0  0
 18 14  1  0  0  0  0
 18 19  1  1  0  0  0
 19 22  1  0  0  0  0
 20 24  1  0  0  0  0
 22 21  1  0  0  0  0
 23 19  1  0  0  0  0
 23 20  1  0  0  0  0
 24 21  1  0  0  0  0
 25 26  1  0  0  0  0
 25  6  1  0  0  0  0
 27 28  1  0  0  0  0
 28 30  1  0  0  0  0
 30 29  1  6  0  0  0
 30 31  1  0  0  0  0
 31 32  1  6  0  0  0
 31 33  1  0  0  0  0
 33 34  1  0  0  0  0
 36 35  1  0  0  0  0
 37 34  1  6  0  0  0
 37 40  1  0  0  0  0
 37 42  1  0  0  0  0
 38 35  1  0  0  0  0
 40 39  1  6  0  0  0
 40 38  1  0  0  0  0
 42 41  2  0  0  0  0
 42 36  1  0  0  0  0
 44 43  1  0  0  0  0
 45 46  1  6  0  0  0
 47 44  1  1  0  0  0
 47 45  1  0  0  0  0
 48 47  1  0  0  0  0
 48 45  1  0  0  0  0
 49 55  1  1  0  0  0
 49 53  1  0  0  0  0
 52 54  1  0  0  0  0
 52 51  1  1  0  0  0
 52 53  1  0  0  0  0
 53 50  1  1  0  0  0
 54 53  1  0  0  0  0
 55 58  1  0  0  0  0
 56 63  1  0  0  0  0
 57 60  1  0  0  0  0
 58 61  1  0  0  0  0
 59 56  1  0  0  0  0
 60 56  2  0  0  0  0
 60 62  1  0  0  0  0
 61 59  1  0  0  0  0
 61 57  2  0  0  0  0
 63 65  1  6  0  0  0
 63 66  1  0  0  0  0
 64 65  1  0  0  0  0
 66 67  1  0  0  0  0
 67 68  1  0  0  0  0
 68 70  1  0  0  0  0
 69 70  1  0  0  0  0
M  END
>  <MODEL>
3

>  <REMARK>
 VINA RESULT:      -4.1      1.917      2.472
  Name = 
  23 active torsions:
  status: ('A' for Active; 'I' for Inactive)
    1  A    between atoms: C_1  and  C_60
    2  A    between atoms: C_1  and  C_62
    3  A    between atoms: C_2  and  C_8
    4  A    between atoms: C_2  and  C_66
    5  A    between atoms: C_2  and  C_68
    6  A    between atoms: C_7  and  C_43
    7  A    between atoms: C_7  and  C_48
    8  A    between atoms: C_8  and  N_35
    9  A    between atoms: C_9  and  C_47
   10  A    between atoms: C_14  and  C_49
   11  A    between atoms: C_14  and  C_51
   12  A    between atoms: C_17  and  CA_40
   13  A    between atoms: C_20  and  O_36
   14  A    between atoms: C_21  and  CA_40
   15  A    between atoms: C_25  and  O_38
   16  A    between atoms: C_25  and  C_48
   17  A    between atoms: C_27  and  C_33
   18  A    between atoms: C_29  and  C_56
   19  A    between atoms: C_30  and  C_43
   20  A    between atoms: O_38  and  C_56
   21  A    between atoms: C_39  and  C_51
   22  A    between atoms: CA_40  and  N_42
   23  A    between atoms: N_42  and  C_60
                            x       y       z     vdW  Elec       q    Type
                         _______ _______ _______ _____ _____    ______ ____

>  <TORSDO>
F 23

$$$$
=
 OpenBabel11032419213D

 70 78  0  0  1  0  0  0  0  0999 V2000
  192.0380  176.2310  142.0540 C   0  0  0  0  0  2  0  0  0  0  0  0
  188.0780  176.3810  139.5380 C   0  0  0  0  0  2  0  0  0  0  0  0
  190.4850  177.5770  140.9850 C   0  0  1  0  0  3  0  0  0  0  0  0
  189.4630  176.0820  138.9870 C   0  0  0  0  0  2  0  0  0  0  0  0
  190.8720  176.0780  141.0950 C   0  0  1  0  0  3  0  0  0  0  0  0
  190.1250  177.3210  143.3980 C   0  0  0  0  0  0  0  0  0  0  0  0
  187.7360  177.8570  139.3770 C   0  0  2  0  0  3  0  0  0  0  0  0
  186.7040  178.2690  140.4170 C   0  0  0  0  0  2  0  0  0  0  0  0
  190.6530  176.6960  139.7450 C   0  0  2  0  0  0  0  0  0  0  0  0
  191.4180  176.4830  143.4500 C   0  0  1  0  0  3  0  0  0  0  0  0
  188.4340  178.6450  142.1720 C   0  0  0  0  0  2  0  0  0  0  0  0
  189.6020  177.7040  142.2050 C   0  0  0  0  0  0  0  0  0  0  0  0
  187.1460  177.9070  141.8390 C   0  0  1  0  0  3  0  0  0  0  0  0
  193.9990  177.4540  138.3270 N   0  0  0  0  0  2  0  0  0  0  0  0
  193.0360  177.4130  139.3640 C   0  0  0  0  0  3  0  0  0  0  0  0
  191.8700  176.9850  138.9100 C   0  0  0  0  0  0  0  0  0  0  0  0
  191.9330  176.6810  137.4510 C   0  0  0  0  0  2  0  0  0  0  0  0
  193.4070  176.9140  137.1090 C   0  0  2  0  0  3  0  0  0  0  0  0
  194.1020  175.6070  136.7070 C   0  0  0  0  0  3  0  0  0  0  0  0
  193.6340  173.2910  135.7440 C   0  0  0  0  0  2  0  0  0  0  0  0
  194.8950  173.3420  137.5960 C   0  0  0  0  0  2  0  0  0  0  0  0
  194.6370  174.8210  137.9220 C   0  0  0  0  0  2  0  0  0  0  0  0
  193.1950  174.7610  135.7970 C   0  0  0  0  0  2  0  0  0  0  0  0
  194.9530  173.1360  136.2080 O   0  0  0  0  0  0  0  0  0  0  0  0
  189.4790  177.7040  144.5810 O   0  0  0  0  0  0  0  0  0  0  0  0
  190.0400  178.6230  145.5060 C   0  0  0  0  0  1  0  0  0  0  0  0
  187.2170  178.1340  137.9740 C   0  0  0  0  0  2  0  0  0  0  0  0
  188.3620  178.5940  137.0770 C   0  0  0  0  0  2  0  0  0  0  0  0
  189.1500  178.1490  134.8520 F   0  0  0  0  0  0  0  0  0  0  0  0
  188.7260  177.5440  136.0250 C   0  0  2  0  0  3  0  0  0  0  0  0
  187.5540  176.5770  135.7620 C   0  0  1  0  0  3  0  0  0  0  0  0
  186.6480  177.0420  134.6180 C   0  0  0  0  0  1  0  0  0  0  0  0
  187.9660  175.2260  135.6160 O   0  0  0  0  0  0  0  0  0  0  0  0
  186.8560  174.4660  135.2070 C   0  0  0  0  0  2  0  0  0  0  0  0
  184.0210  171.4890  136.6680 C   0  0  0  0  0  2  0  0  0  0  0  0
  185.1720  171.2420  135.2550 S   0  0  0  0  0  0  0  0  0  0  0  0
  186.3440  173.6020  136.3440 C   0  0  1  0  0  3  0  0  0  0  0  0
  184.2600  172.7640  137.4930 C   0  0  0  0  0  2  0  0  0  0  0  0
  184.7630  175.1860  137.4760 C   0  0  0  0  0  1  0  0  0  0  0  0
  184.8720  173.9020  136.6710 C   0  0  1  0  0  3  0  0  0  0  0  0
  187.5950  171.6090  136.1990 O   0  0  0  0  0  0  0  0  0  0  0  0
  186.5310  172.1610  135.9770 C   0  0  0  0  0  0  0  0  0  0  0  0
  191.1350  175.1420  144.1190 C   0  0  0  0  0  2  0  0  0  0  0  0
  192.0940  174.9020  145.2760 C   0  0  0  0  0  2  0  0  0  0  0  0
  191.1690  175.6850  147.4300 C   0  0  1  0  0  3  0  0  0  0  0  0
  190.6630  176.8960  148.0490 N   0  0  0  0  0  1  0  0  0  0  0  0
  192.0550  176.0610  146.2590 C   0  0  1  0  0  3  0  0  0  0  0  0
  192.6740  175.6310  147.5710 C   0  0  0  0  0  2  0  0  0  0  0  0
  186.0640  178.2030  142.8860 C   0  0  1  0  0  3  0  0  0  0  0  0
  187.5680  179.0970  144.7210 F   0  0  0  0  0  0  0  0  0  0  0  0
  186.1840  177.8660  146.7430 C   0  0  0  0  0  1  0  0  0  0  0  0
  185.8330  177.4250  145.3340 C   0  0  1  0  0  3  0  0  0  0  0  0
  186.6200  178.1660  144.3160 C   0  0  1  0  0  0  0  0  0  0  0  0
  186.9700  176.8640  144.7160 O   0  0  0  0  0  0  0  0  0  0  0  0
  185.4500  179.5690  142.5860 C   0  0  0  0  0  2  0  0  0  0  0  0
  181.1240  178.5720  141.2490 C   0  0  0  0  0  0  0  0  0  0  0  0
  181.7480  179.7160  143.1750 N   0  0  0  0  0  0  0  0  0  0  0  0
  184.1830  179.7460  143.2790 N   0  0  0  0  0  2  0  0  0  0  0  0
  182.8060  178.4680  141.2490 S   0  0  0  0  0  0  0  0  0  0  0  0
  180.7290  179.2780  142.3850 C   0  0  0  0  0  0  0  0  0  0  0  0
  182.9480  179.3510  142.6770 C   0  0  0  0  0  0  0  0  0  0  0  0
  179.3100  179.5780  142.7160 C   0  0  0  0  0  1  0  0  0  0  0  0
  180.2190  178.0000  140.2020 C   0  0  2  0  0  3  0  0  0  0  0  0
  181.2370  175.9340  139.5820 O   0  0  0  0  0  1  0  0  0  0  0  0
  181.0200  177.2460  139.1570 C   0  0  0  0  0  2  0  0  0  0  0  0
  179.4590  179.0620  139.5650 N   0  0  0  0  0  2  0  0  0  0  0  0
  180.4150  179.9520  138.9360 C   0  0  0  0  0  2  0  0  0  0  0  0
  179.8150  180.5100  137.6560 C   0  0  0  0  0  2  0  0  0  0  0  0
  180.7580  182.2720  136.3470 O   0  0  0  0  0  1  0  0  0  0  0  0
  180.0950  181.9990  137.5440 C   0  0  0  0  0  2  0  0  0  0  0  0
  1 10  1  0  0  0  0
  3  5  1  0  0  0  0
  3 12  1  1  0  0  0
  4  2  1  0  0  0  0
  4  9  1  0  0  0  0
  5  1  1  6  0  0  0
  6 10  1  0  0  0  0
  6 25  1  0  0  0  0
  7 27  1  6  0  0  0
  7  2  1  0  0  0  0
  7  8  1  0  0  0  0
  8 13  1  0  0  0  0
  9 16  1  6  0  0  0
  9  3  1  0  0  0  0
  9  5  1  0  0  0  0
 10 43  1  6  0  0  0
 11 12  1  0  0  0  0
 12  6  2  0  0  0  0
 13 11  1  0  0  0  0
 13 49  1  1  0  0  0
 14 15  1  0  0  0  0
 16 15  2  0  0  0  0
 17 16  1  0  0  0  0
 18 19  1  1  0  0  0
 18 17  1  0  0  0  0
 18 14  1  0  0  0  0
 19 22  1  0  0  0  0
 20 23  1  0  0  0  0
 20 24  1  0  0  0  0
 21 22  1  0  0  0  0
 23 19  1  0  0  0  0
 24 21  1  0  0  0  0
 25 26  1  0  0  0  0
 28 27  1  0  0  0  0
 30 29  1  6  0  0  0
 30 28  1  0  0  0  0
 31 32  1  6  0  0  0
 31 30  1  0  0  0  0
 33 31  1  0  0  0  0
 34 33  1  0  0  0  0
 35 38  1  0  0  0  0
 36 42  1  0  0  0  0
 36 35  1  0  0  0  0
 37 34  1  6  0  0  0
 37 40  1  0  0  0  0
 40 39  1  1  0  0  0
 40 38  1  0  0  0  0
 42 41  2  0  0  0  0
 42 37  1  0  0  0  0
 43 44  1  0  0  0  0
 45 48  1  0  0  0  0
 45 46  1  1  0  0  0
 47 44  1  6  0  0  0
 47 45  1  0  0  0  0
 47 48  1  0  0  0  0
 49 55  1  6  0  0  0
 49 53  1  0  0  0  0
 52 51  1  1  0  0  0
 53 54  1  0  0  0  0
 53 50  1  1  0  0  0
 53 52  1  0  0  0  0
 54 52  1  0  0  0  0
 55 58  1  0  0  0  0
 56 60  2  0  0  0  0
 59 56  1  0  0  0  0
 59 61  1  0  0  0  0
 60 62  1  0  0  0  0
 60 57  1  0  0  0  0
 61 57  2  0  0  0  0
 61 58  1  0  0  0  0
 63 65  1  6  0  0  0
 63 56  1  0  0  0  0
 65 64  1  0  0  0  0
 66 63  1  0  0  0  0
 67 66  1  0  0  0  0
 68 67  1  0  0  0  0
 69 70  1  0  0  0  0
 70 68  1  0  0  0  0
M  END
>  <MODEL>
4

>  <REMARK>
 VINA RESULT:      -3.3      2.782      7.931
  Name = 
  23 active torsions:
  status: ('A' for Active; 'I' for Inactive)
    1  A    between atoms: C_1  and  C_60
    2  A    between atoms: C_1  and  C_62
    3  A    between atoms: C_2  and  C_8
    4  A    between atoms: C_2  and  C_66
    5  A    between atoms: C_2  and  C_68
    6  A    between atoms: C_7  and  C_43
    7  A    between atoms: C_7  and  C_48
    8  A    between atoms: C_8  and  N_35
    9  A    between atoms: C_9  and  C_47
   10  A    between atoms: C_14  and  C_49
   11  A    between atoms: C_14  and  C_51
   12  A    between atoms: C_17  and  CA_40
   13  A    between atoms: C_20  and  O_36
   14  A    between atoms: C_21  and  CA_40
   15  A    between atoms: C_25  and  O_38
   16  A    between atoms: C_25  and  C_48
   17  A    between atoms: C_27  and  C_33
   18  A    between atoms: C_29  and  C_56
   19  A    between atoms: C_30  and  C_43
   20  A    between atoms: O_38  and  C_56
   21  A    between atoms: C_39  and  C_51
   22  A    between atoms: CA_40  and  N_42
   23  A    between atoms: N_42  and  C_60
                            x       y       z     vdW  Elec       q    Type
                         _______ _______ _______ _____ _____    ______ ____

>  <TORSDO>
F 23

$$$$
=
 OpenBabel11032419213D

 70 78  0  0  1  0  0  0  0  0999 V2000
  191.8070  176.4510  142.9160 C   0  0  0  0  0  2  0  0  0  0  0  0
  187.9370  176.4100  140.2580 C   0  0  0  0  0  2  0  0  0  0  0  0
  190.2540  177.7190  141.7550 C   0  0  1  0  0  3  0  0  0  0  0  0
  189.3500  176.1400  139.7650 C   0  0  0  0  0  2  0  0  0  0  0  0
  190.6820  176.2360  141.9200 C   0  0  1  0  0  3  0  0  0  0  0  0
  189.8150  177.5170  144.1600 C   0  0  0  0  0  0  0  0  0  0  0  0
  187.5570  177.8710  140.0430 C   0  0  2  0  0  3  0  0  0  0  0  0
  186.4760  178.2780  141.0350 C   0  0  0  0  0  2  0  0  0  0  0  0
  190.4930  176.8110  140.5470 C   0  0  2  0  0  0  0  0  0  0  0  0
  191.1290  176.7210  144.2810 C   0  0  1  0  0  3  0  0  0  0  0  0
  188.1300  178.7550  142.8390 C   0  0  0  0  0  2  0  0  0  0  0  0
  189.3240  177.8510  142.9390 C   0  0  0  0  0  0  0  0  0  0  0  0
  186.8780  177.9690  142.4810 C   0  0  1  0  0  3  0  0  0  0  0  0
  193.8820  177.5480  139.2220 N   0  0  0  0  0  2  0  0  0  0  0  0
  192.9050  177.4680  140.2440 C   0  0  0  0  0  3  0  0  0  0  0  0
  191.7300  177.1150  139.7480 C   0  0  0  0  0  0  0  0  0  0  0  0
  191.8010  176.9130  138.2720 C   0  0  0  0  0  2  0  0  0  0  0  0
  193.2870  177.1180  137.9630 C   0  0  2  0  0  3  0  0  0  0  0  0
  193.9410  175.8190  137.4760 C   0  0  0  0  0  3  0  0  0  0  0  0
  195.8600  174.2150  137.9860 C   0  0  0  0  0  2  0  0  0  0  0  0
  195.6800  174.8740  135.8510 C   0  0  0  0  0  2  0  0  0  0  0  0
  194.6510  175.9850  136.1150 C   0  0  0  0  0  2  0  0  0  0  0  0
  194.8560  175.2250  138.5610 C   0  0  0  0  0  2  0  0  0  0  0  0
  195.4690  173.7810  136.7060 O   0  0  0  0  0  0  0  0  0  0  0  0
  189.1150  177.9110  145.3090 O   0  0  0  0  0  0  0  0  0  0  0  0
  189.7490  178.4870  146.4400 C   0  0  0  0  0  1  0  0  0  0  0  0
  187.0820  178.0940  138.6160 C   0  0  0  0  0  2  0  0  0  0  0  0
  188.0910  177.5090  137.6330 C   0  0  0  0  0  2  0  0  0  0  0  0
  186.3570  178.1920  136.1180 F   0  0  0  0  0  0  0  0  0  0  0  0
  187.6450  177.6820  136.1800 C   0  0  2  0  0  3  0  0  0  0  0  0
  187.7610  176.3620  135.3920 C   0  0  1  0  0  3  0  0  0  0  0  0
  188.8630  175.4440  135.9320 C   0  0  0  0  0  1  0  0  0  0  0  0
  186.5200  175.6910  135.2410 O   0  0  0  0  0  0  0  0  0  0  0  0
  186.5580  174.5100  136.0040 C   0  0  0  0  0  2  0  0  0  0  0  0
  183.7070  171.2180  136.2670 C   0  0  0  0  0  2  0  0  0  0  0  0
  183.3510  172.9580  136.7420 S   0  0  0  0  0  0  0  0  0  0  0  0
  185.7840  173.3990  135.3200 C   0  0  1  0  0  3  0  0  0  0  0  0
  185.0390  170.9980  135.5330 C   0  0  0  0  0  2  0  0  0  0  0  0
  187.4520  171.5290  135.4010 C   0  0  0  0  0  1  0  0  0  0  0  0
  186.1110  172.0210  135.9180 C   0  0  1  0  0  3  0  0  0  0  0  0
  183.7820  174.4150  134.5990 O   0  0  0  0  0  0  0  0  0  0  0  0
  184.3190  173.6980  135.4260 C   0  0  0  0  0  0  0  0  0  0  0  0
  190.8630  175.3900  144.9770 C   0  0  0  0  0  2  0  0  0  0  0  0
  192.0620  174.9690  145.8150 C   0  0  0  0  0  2  0  0  0  0  0  0
  192.9740  175.7490  147.9750 C   0  0  1  0  0  3  0  0  0  0  0  0
  192.9610  175.3920  149.3820 N   0  0  0  0  0  1  0  0  0  0  0  0
  191.7670  175.1290  147.2970 C   0  0  1  0  0  3  0  0  0  0  0  0
  191.7650  176.6000  147.6550 C   0  0  0  0  0  2  0  0  0  0  0  0
  185.7510  178.2590  143.4810 C   0  0  1  0  0  3  0  0  0  0  0  0
  187.2050  179.3860  145.2240 F   0  0  0  0  0  0  0  0  0  0  0  0
  185.7870  178.3940  147.3520 C   0  0  0  0  0  1  0  0  0  0  0  0
  185.4720  177.7810  146.0000 C   0  0  1  0  0  3  0  0  0  0  0  0
  186.2740  178.4010  144.9160 C   0  0  1  0  0  0  0  0  0  0  0  0
  186.6270  177.1620  145.4790 O   0  0  0  0  0  0  0  0  0  0  0  0
  185.0240  179.5310  143.0470 C   0  0  0  0  0  2  0  0  0  0  0  0
  181.0030  178.2340  141.1380 C   0  0  0  0  0  0  0  0  0  0  0  0
  181.2790  179.3500  143.1590 N   0  0  0  0  0  0  0  0  0  0  0  0
  183.6690  179.5750  143.5760 N   0  0  0  0  0  2  0  0  0  0  0  0
  182.6740  178.2680  141.3510 S   0  0  0  0  0  0  0  0  0  0  0  0
  180.4090  178.8610  142.2330 C   0  0  0  0  0  0  0  0  0  0  0  0
  182.5590  179.1040  142.8100 C   0  0  0  0  0  0  0  0  0  0  0  0
  178.9390  179.0300  142.3880 C   0  0  0  0  0  1  0  0  0  0  0  0
  180.2900  177.6310  139.9680 C   0  0  2  0  0  3  0  0  0  0  0  0
  180.4520  175.3130  140.5080 O   0  0  0  0  0  1  0  0  0  0  0  0
  179.5500  176.3720  140.3820 C   0  0  0  0  0  2  0  0  0  0  0  0
  181.2380  177.3160  138.9130 N   0  0  0  0  0  2  0  0  0  0  0  0
  181.5940  178.5680  138.2730 C   0  0  0  0  0  2  0  0  0  0  0  0
  182.9350  178.4120  137.5750 C   0  0  0  0  0  2  0  0  0  0  0  0
  184.2220  176.4080  137.7560 O   0  0  0  0  0  1  0  0  0  0  0  0
  183.1270  176.9800  137.1070 C   0  0  0  0  0  2  0  0  0  0  0  0
  1 10  1  0  0  0  0
  3  5  1  0  0  0  0
  3 12  1  1  0  0  0
  4  2  1  0  0  0  0
  4  9  1  0  0  0  0
  5  1  1  6  0  0  0
  6 10  1  0  0  0  0
  6 25  1  0  0  0  0
  7 27  1  6  0  0  0
  7  2  1  0  0  0  0
  7  8  1  0  0  0  0
  8 13  1  0  0  0  0
  9 16  1  6  0  0  0
  9  3  1  0  0  0  0
  9  5  1  0  0  0  0
 10 43  1  6  0  0  0
 11 12  1  0  0  0  0
 12  6  2  0  0  0  0
 13 11  1  0  0  0  0
 13 49  1  1  0  0  0
 14 15  1  0  0  0  0
 16 15  2  0  0  0  0
 17 16  1  0  0  0  0
 18 19  1  1  0  0  0
 18 17  1  0  0  0  0
 18 14  1  0  0  0  0
 19 23  1  0  0  0  0
 20 23  1  0  0  0  0
 21 22  1  0  0  0  0
 21 24  1  0  0  0  0
 22 19  1  0  0  0  0
 24 20  1  0  0  0  0
 25 26  1  0  0  0  0
 28 27  1  0  0  0  0
 30 29  1  1  0  0  0
 30 28  1  0  0  0  0
 31 32  1  1  0  0  0
 31 30  1  0  0  0  0
 33 31  1  0  0  0  0
 33 34  1  0  0  0  0
 35 36  1  0  0  0  0
 37 42  1  0  0  0  0
 37 40  1  0  0  0  0
 37 34  1  1  0  0  0
 38 40  1  0  0  0  0
 38 35  1  0  0  0  0
 40 39  1  6  0  0  0
 41 42  2  0  0  0  0
 42 36  1  0  0  0  0
 43 44  1  0  0  0  0
 45 46  1  1  0  0  0
 47 44  1  6  0  0  0
 47 48  1  0  0  0  0
 47 45  1  0  0  0  0
 48 45  1  0  0  0  0
 49 55  1  6  0  0  0
 49 53  1  0  0  0  0
 52 51  1  1  0  0  0
 53 50  1  1  0  0  0
 53 54  1  0  0  0  0
 53 52  1  0  0  0  0
 54 52  1  0  0  0  0
 55 58  1  0  0  0  0
 56 59  1  0  0  0  0
 56 60  2  0  0  0  0
 59 61  1  0  0  0  0
 60 62  1  0  0  0  0
 60 57  1  0  0  0  0
 61 57  2  0  0  0  0
 61 58  1  0  0  0  0
 63 65  1  1  0  0  0
 63 56  1  0  0  0  0
 65 64  1  0  0  0  0
 66 63  1  0  0  0  0
 67 66  1  0  0  0  0
 68 67  1  0  0  0  0
 70 68  1  0  0  0  0
 70 69  1  0  0  0  0
M  END
>  <MODEL>
5

>  <REMARK>
 VINA RESULT:      -2.5      2.949      8.237
  Name = 
  23 active torsions:
  status: ('A' for Active; 'I' for Inactive)
    1  A    between atoms: C_1  and  C_60
    2  A    between atoms: C_1  and  C_62
    3  A    between atoms: C_2  and  C_8
    4  A    between atoms: C_2  and  C_66
    5  A    between atoms: C_2  and  C_68
    6  A    between atoms: C_7  and  C_43
    7  A    between atoms: C_7  and  C_48
    8  A    between atoms: C_8  and  N_35
    9  A    between atoms: C_9  and  C_47
   10  A    between atoms: C_14  and  C_49
   11  A    between atoms: C_14  and  C_51
   12  A    between atoms: C_17  and  CA_40
   13  A    between atoms: C_20  and  O_36
   14  A    between atoms: C_21  and  CA_40
   15  A    between atoms: C_25  and  O_38
   16  A    between atoms: C_25  and  C_48
   17  A    between atoms: C_27  and  C_33
   18  A    between atoms: C_29  and  C_56
   19  A    between atoms: C_30  and  C_43
   20  A    between atoms: O_38  and  C_56
   21  A    between atoms: C_39  and  C_51
   22  A    between atoms: CA_40  and  N_42
   23  A    between atoms: N_42  and  C_60
                            x       y       z     vdW  Elec       q    Type
                         _______ _______ _______ _____ _____    ______ ____

>  <TORSDO>
F 23

$$$$
=
 OpenBabel11032419213D

 70 78  0  0  1  0  0  0  0  0999 V2000
  187.8640  177.6770  144.3690 C   0  0  0  0  0  2  0  0  0  0  0  0
  188.0440  179.3020  139.9680 C   0  0  0  0  0  2  0  0  0  0  0  0
  187.6040  177.1820  142.1210 C   0  0  1  0  0  3  0  0  0  0  0  0
  186.8850  179.4930  140.9330 C   0  0  0  0  0  2  0  0  0  0  0  0
  187.7820  178.4160  143.0450 C   0  0  1  0  0  3  0  0  0  0  0  0
  189.7920  176.5810  143.0530 C   0  0  0  0  0  0  0  0  0  0  0  0
  187.8050  178.0980  139.0640 C   0  0  2  0  0  3  0  0  0  0  0  0
  189.1350  177.5480  138.5670 C   0  0  0  0  0  2  0  0  0  0  0  0
  186.6970  178.4090  142.0080 C   0  0  2  0  0  0  0  0  0  0  0  0
  189.2790  177.0530  144.4280 C   0  0  1  0  0  3  0  0  0  0  0  0
  189.4900  176.1930  140.6300 C   0  0  0  0  0  2  0  0  0  0  0  0
  189.0530  176.7910  141.9340 C   0  0  0  0  0  0  0  0  0  0  0  0
  190.0990  177.2490  139.7200 C   0  0  1  0  0  3  0  0  0  0  0  0
  183.4240  178.3190  143.7590 N   0  0  0  0  0  2  0  0  0  0  0  0
  184.8260  178.5080  143.6900 C   0  0  0  0  0  3  0  0  0  0  0  0
  185.2850  178.2110  142.4850 C   0  0  0  0  0  0  0  0  0  0  0  0
  184.1860  177.7700  141.5780 C   0  0  0  0  0  2  0  0  0  0  0  0
  182.9310  177.9470  142.4380 C   0  0  2  0  0  3  0  0  0  0  0  0
  182.0190  179.0450  141.8770 C   0  0  0  0  0  3  0  0  0  0  0  0
  179.7350  180.1330  142.2130 C   0  0  0  0  0  2  0  0  0  0  0  0
  180.2290  179.5290  140.1120 C   0  0  0  0  0  2  0  0  0  0  0  0
  181.4740  178.7050  140.4730 C   0  0  0  0  0  2  0  0  0  0  0  0
  180.9090  179.4020  142.8800 C   0  0  0  0  0  2  0  0  0  0  0  0
  180.1030  180.6450  140.9550 O   0  0  0  0  0  0  0  0  0  0  0  0
  191.0260  175.9240  142.9430 O   0  0  0  0  0  0  0  0  0  0  0  0
  191.3700  174.7910  143.7260 C   0  0  0  0  0  1  0  0  0  0  0  0
  186.9160  178.4810  137.8910 C   0  0  0  0  0  2  0  0  0  0  0  0
  185.7250  177.5320  137.8070 C   0  0  0  0  0  2  0  0  0  0  0  0
  187.4730  176.0470  137.0940 F   0  0  0  0  0  0  0  0  0  0  0  0
  186.0950  176.2000  137.1520 C   0  0  2  0  0  3  0  0  0  0  0  0
  185.4590  176.0620  135.7540 C   0  0  1  0  0  3  0  0  0  0  0  0
  186.4650  176.2880  134.6200 C   0  0  0  0  0  1  0  0  0  0  0  0
  184.7180  174.8630  135.5930 O   0  0  0  0  0  0  0  0  0  0  0  0
  183.7960  174.7670  136.6520 C   0  0  0  0  0  2  0  0  0  0  0  0
  180.3880  172.3310  137.8730 C   0  0  0  0  0  2  0  0  0  0  0  0
  180.5970  174.1170  138.2580 S   0  0  0  0  0  0  0  0  0  0  0  0
  182.6290  173.8750  136.2720 C   0  0  1  0  0  3  0  0  0  0  0  0
  181.4000  171.7540  136.8700 C   0  0  0  0  0  2  0  0  0  0  0  0
  183.7580  171.6400  136.1290 C   0  0  0  0  0  1  0  0  0  0  0  0
  182.7500  172.4770  136.8990 C   0  0  1  0  0  3  0  0  0  0  0  0
  180.8200  175.3520  135.9500 O   0  0  0  0  0  0  0  0  0  0  0  0
  181.3550  174.5440  136.6900 C   0  0  0  0  0  0  0  0  0  0  0  0
  190.2480  178.0720  145.0170 C   0  0  0  0  0  2  0  0  0  0  0  0
  190.5460  177.7540  146.4760 C   0  0  0  0  0  2  0  0  0  0  0  0
  192.0380  176.5540  148.0380 C   0  0  1  0  0  3  0  0  0  0  0  0
  193.3810  176.0070  148.0960 N   0  0  0  0  0  1  0  0  0  0  0  0
  191.6180  176.6820  146.5870 C   0  0  1  0  0  3  0  0  0  0  0  0
  191.0990  175.5370  147.4290 C   0  0  0  0  0  2  0  0  0  0  0  0
  191.4850  176.8110  139.2300 C   0  0  1  0  0  3  0  0  0  0  0  0
  192.3430  176.8590  141.6150 F   0  0  0  0  0  0  0  0  0  0  0  0
  194.9840  176.9850  140.8850 C   0  0  0  0  0  1  0  0  0  0  0  0
  193.9750  177.2080  139.7720 C   0  0  1  0  0  3  0  0  0  0  0  0
  192.5800  177.0970  140.2670 C   0  0  1  0  0  0  0  0  0  0  0  0
  193.1930  178.3460  140.0620 O   0  0  0  0  0  0  0  0  0  0  0  0
  191.4400  175.3210  138.8950 C   0  0  0  0  0  2  0  0  0  0  0  0
  195.4290  173.7670  137.1150 C   0  0  0  0  0  0  0  0  0  0  0  0
  193.6000  174.5670  135.9230 N   0  0  0  0  0  0  0  0  0  0  0  0
  191.8260  175.0760  137.5140 N   0  0  0  0  0  2  0  0  0  0  0  0
  194.2570  174.0150  138.3000 S   0  0  0  0  0  0  0  0  0  0  0  0
  194.8820  174.1100  135.8800 C   0  0  0  0  0  0  0  0  0  0  0  0
  193.1230  174.5750  137.1850 C   0  0  0  0  0  0  0  0  0  0  0  0
  195.6320  174.0310  134.5970 C   0  0  0  0  0  1  0  0  0  0  0  0
  196.8170  173.2630  137.3620 C   0  0  2  0  0  3  0  0  0  0  0  0
  197.2350  175.6000  137.1260 O   0  0  0  0  0  1  0  0  0  0  0  0
  197.8400  174.3420  137.0620 C   0  0  0  0  0  2  0  0  0  0  0  0
  197.0800  172.0970  136.5340 N   0  0  0  0  0  2  0  0  0  0  0  0
  196.6450  170.9350  137.2860 C   0  0  0  0  0  2  0  0  0  0  0  0
  197.6700  169.8240  137.1310 C   0  0  0  0  0  2  0  0  0  0  0  0
  199.0560  171.0160  135.5940 O   0  0  0  0  0  1  0  0  0  0  0  0
  198.2880  169.8610  135.7440 C   0  0  0  0  0  2  0  0  0  0  0  0
  1 10  1  0  0  0  0
  2  4  1  0  0  0  0
  3 12  1  6  0  0  0
  3  5  1  0  0  0  0
  4  9  1  0  0  0  0
  5  1  1  1  0  0  0
  6 10  1  0  0  0  0
  7 27  1  6  0  0  0
  7  2  1  0  0  0  0
  8  7  1  0  0  0  0
  8 13  1  0  0  0  0
  9  3  1  0  0  0  0
  9 16  1  1  0  0  0
  9  5  1  0  0  0  0
 10 43  1  6  0  0  0
 11 12  1  0  0  0  0
 12  6  2  0  0  0  0
 13 49  1  6  0  0  0
 13 11  1  0  0  0  0
 15 14  1  0  0  0  0
 16 15  2  0  0  0  0
 17 18  1  0  0  0  0
 17 16  1  0  0  0  0
 18 19  1  6  0  0  0
 18 14  1  0  0  0  0
 19 23  1  0  0  0  0
 20 23  1  0  0  0  0
 21 22  1  0  0  0  0
 21 24  1  0  0  0  0
 22 19  1  0  0  0  0
 24 20  1  0  0  0  0
 25  6  1  0  0  0  0
 25 26  1  0  0  0  0
 28 27  1  0  0  0  0
 30 29  1  6  0  0  0
 30 28  1  0  0  0  0
 31 32  1  6  0  0  0
 31 30  1  0  0  0  0
 33 31  1  0  0  0  0
 33 34  1  0  0  0  0
 35 36  1  0  0  0  0
 37 34  1  1  0  0  0
 37 42  1  0  0  0  0
 37 40  1  0  0  0  0
 38 40  1  0  0  0  0
 38 35  1  0  0  0  0
 40 39  1  6  0  0  0
 41 42  2  0  0  0  0
 42 36  1  0  0  0  0
 43 44  1  0  0  0  0
 45 46  1  6  0  0  0
 47 44  1  1  0  0  0
 47 48  1  0  0  0  0
 47 45  1  0  0  0  0
 48 45  1  0  0  0  0
 49 55  1  1  0  0  0
 49 53  1  0  0  0  0
 52 54  1  0  0  0  0
 52 53  1  0  0  0  0
 52 51  1  1  0  0  0
 53 50  1  1  0  0  0
 54 53  1  0  0  0  0
 56 63  1  0  0  0  0
 56 59  1  0  0  0  0
 57 61  2  0  0  0  0
 58 55  1  0  0  0  0
 60 57  1  0  0  0  0
 60 56  2  0  0  0  0
 61 58  1  0  0  0  0
 61 59  1  0  0  0  0
 62 60  1  0  0  0  0
 63 65  1  6  0  0  0
 65 64  1  0  0  0  0
 66 67  1  0  0  0  0
 66 63  1  0  0  0  0
 68 67  1  0  0  0  0
 69 70  1  0  0  0  0
 70 68  1  0  0  0  0
M  END
>  <MODEL>
6

>  <REMARK>
 VINA RESULT:      -2.5      3.554     10.921
  Name = 
  23 active torsions:
  status: ('A' for Active; 'I' for Inactive)
    1  A    between atoms: C_1  and  C_60
    2  A    between atoms: C_1  and  C_62
    3  A    between atoms: C_2  and  C_8
    4  A    between atoms: C_2  and  C_66
    5  A    between atoms: C_2  and  C_68
    6  A    between atoms: C_7  and  C_43
    7  A    between atoms: C_7  and  C_48
    8  A    between atoms: C_8  and  N_35
    9  A    between atoms: C_9  and  C_47
   10  A    between atoms: C_14  and  C_49
   11  A    between atoms: C_14  and  C_51
   12  A    between atoms: C_17  and  CA_40
   13  A    between atoms: C_20  and  O_36
   14  A    between atoms: C_21  and  CA_40
   15  A    between atoms: C_25  and  O_38
   16  A    between atoms: C_25  and  C_48
   17  A    between atoms: C_27  and  C_33
   18  A    between atoms: C_29  and  C_56
   19  A    between atoms: C_30  and  C_43
   20  A    between atoms: O_38  and  C_56
   21  A    between atoms: C_39  and  C_51
   22  A    between atoms: CA_40  and  N_42
   23  A    between atoms: N_42  and  C_60
                            x       y       z     vdW  Elec       q    Type
                         _______ _______ _______ _____ _____    ______ ____

>  <TORSDO>
F 23

$$$$
=
 OpenBabel11032419213D

 70 78  0  0  1  0  0  0  0  0999 V2000
  192.4870  176.2920  139.4750 C   0  0  0  0  0  2  0  0  0  0  0  0
  188.4710  178.6150  138.7560 C   0  0  0  0  0  2  0  0  0  0  0  0
  190.1790  176.2520  139.6610 C   0  0  1  0  0  3  0  0  0  0  0  0
  189.4130  178.8220  139.9320 C   0  0  0  0  0  2  0  0  0  0  0  0
  191.3200  177.2560  139.3540 C   0  0  1  0  0  3  0  0  0  0  0  0
  191.0610  175.1430  137.6590 C   0  0  0  0  0  0  0  0  0  0  0  0
  187.3520  177.6470  139.1210 C   0  0  2  0  0  3  0  0  0  0  0  0
  186.8110  176.9800  137.8640 C   0  0  0  0  0  2  0  0  0  0  0  0
  190.2620  177.6120  140.3560 C   0  0  2  0  0  0  0  0  0  0  0  0
  192.4800  175.4430  138.1810 C   0  0  1  0  0  3  0  0  0  0  0  0
  188.5990  175.2430  137.8590 C   0  0  0  0  0  2  0  0  0  0  0  0
  189.9750  175.6660  138.2820 C   0  0  0  0  0  0  0  0  0  0  0  0
  187.9220  176.3280  137.0350 C   0  0  1  0  0  3  0  0  0  0  0  0
  191.2130  178.2340  143.8910 N   0  0  0  0  0  2  0  0  0  0  0  0
  191.0710  178.5940  142.5290 C   0  0  0  0  0  3  0  0  0  0  0  0
  190.6430  177.5690  141.8100 C   0  0  0  0  0  0  0  0  0  0  0  0
  190.4460  176.3570  142.6560 C   0  0  0  0  0  2  0  0  0  0  0  0
  190.7440  176.8650  144.0700 C   0  0  2  0  0  3  0  0  0  0  0  0
  189.4890  176.8370  144.9510 C   0  0  0  0  0  3  0  0  0  0  0  0
  187.3890  178.1750  145.5080 C   0  0  0  0  0  2  0  0  0  0  0  0
  188.5860  177.4600  147.2630 C   0  0  0  0  0  2  0  0  0  0  0  0
  189.8110  177.0190  146.4490 C   0  0  0  0  0  2  0  0  0  0  0  0
  188.4370  177.8350  144.4380 C   0  0  0  0  0  2  0  0  0  0  0  0
  187.3990  177.2290  146.5490 O   0  0  0  0  0  0  0  0  0  0  0  0
  190.8760  174.3210  136.5390 O   0  0  0  0  0  0  0  0  0  0  0  0
  191.7970  173.3070  136.1630 C   0  0  0  0  0  1  0  0  0  0  0  0
  186.2390  178.3720  139.8610 C   0  0  0  0  0  2  0  0  0  0  0  0
  186.4320  178.2250  141.3670 C   0  0  0  0  0  2  0  0  0  0  0  0
  185.1990  178.3410  143.4250 F   0  0  0  0  0  0  0  0  0  0  0  0
  185.3090  178.8970  142.1590 C   0  0  2  0  0  3  0  0  0  0  0  0
  183.9660  178.8310  141.4030 C   0  0  1  0  0  3  0  0  0  0  0  0
  184.0730  179.3360  139.9610 C   0  0  0  0  0  1  0  0  0  0  0  0
  183.3380  177.5620  141.4900 O   0  0  0  0  0  0  0  0  0  0  0  0
  182.2210  177.5600  140.6350 C   0  0  0  0  0  2  0  0  0  0  0  0
  179.0960  180.4880  141.4700 C   0  0  0  0  0  2  0  0  0  0  0  0
  179.4620  179.7840  139.8110 S   0  0  0  0  0  0  0  0  0  0  0  0
  180.9620  177.9430  141.3900 C   0  0  1  0  0  3  0  0  0  0  0  0
  179.8210  179.8110  142.6450 C   0  0  0  0  0  2  0  0  0  0  0  0
  181.9330  178.8600  143.5120 C   0  0  0  0  0  1  0  0  0  0  0  0
  181.1680  179.2030  142.2450 C   0  0  1  0  0  3  0  0  0  0  0  0
  179.1900  177.1810  140.0340 O   0  0  0  0  0  0  0  0  0  0  0  0
  179.8500  178.1370  140.4050 C   0  0  0  0  0  0  0  0  0  0  0  0
  193.2820  176.1670  137.1050 C   0  0  0  0  0  2  0  0  0  0  0  0
  194.1150  175.1830  136.2960 C   0  0  0  0  0  2  0  0  0  0  0  0
  195.9610  173.5400  136.3300 C   0  0  1  0  0  3  0  0  0  0  0  0
  196.5590  172.5570  137.2130 N   0  0  0  0  0  1  0  0  0  0  0  0
  195.1920  174.5490  137.1610 C   0  0  1  0  0  3  0  0  0  0  0  0
  196.5550  174.9030  136.6080 C   0  0  0  0  0  2  0  0  0  0  0  0
  187.4100  175.7600  135.7050 C   0  0  1  0  0  3  0  0  0  0  0  0
  185.8550  173.9460  136.5520 F   0  0  0  0  0  0  0  0  0  0  0  0
  186.7110  172.0750  134.7390 C   0  0  0  0  0  1  0  0  0  0  0  0
  187.5500  173.3350  134.8390 C   0  0  1  0  0  3  0  0  0  0  0  0
  186.9910  174.2900  135.8290 C   0  0  1  0  0  0  0  0  0  0  0  0
  188.0760  173.4520  136.1430 O   0  0  0  0  0  0  0  0  0  0  0  0
  186.2360  176.6130  135.2260 C   0  0  0  0  0  2  0  0  0  0  0  0
  181.7720  177.8550  135.3390 C   0  0  0  0  0  0  0  0  0  0  0  0
  183.2940  178.0040  137.0900 N   0  0  0  0  0  0  0  0  0  0  0  0
  185.4040  177.0460  136.3380 N   0  0  0  0  0  2  0  0  0  0  0  0
  183.1540  177.1080  134.7320 S   0  0  0  0  0  0  0  0  0  0  0  0
  182.0340  178.2680  136.6450 C   0  0  0  0  0  0  0  0  0  0  0  0
  184.0260  177.3730  136.1490 C   0  0  0  0  0  0  0  0  0  0  0  0
  181.0460  178.9800  137.4980 C   0  0  0  0  0  1  0  0  0  0  0  0
  180.4860  178.0390  134.5940 C   0  0  2  0  0  3  0  0  0  0  0  0
  181.1490  180.3100  134.8990 O   0  0  0  0  0  1  0  0  0  0  0  0
  180.0500  179.4920  134.6270 C   0  0  0  0  0  2  0  0  0  0  0  0
  179.4480  177.2030  135.1740 N   0  0  0  0  0  2  0  0  0  0  0  0
  180.0180  175.8830  135.3590 C   0  0  0  0  0  2  0  0  0  0  0  0
  179.2320  175.1410  136.4270 C   0  0  0  0  0  2  0  0  0  0  0  0
  181.4140  174.7190  137.3030 O   0  0  0  0  0  1  0  0  0  0  0  0
  180.1350  174.1760  137.1770 C   0  0  0  0  0  2  0  0  0  0  0  0
  2  7  1  0  0  0  0
  2  4  1  0  0  0  0
  3 12  1  6  0  0  0
  3  9  1  0  0  0  0
  4  9  1  0  0  0  0
  5  1  1  1  0  0  0
  5  3  1  0  0  0  0
  5  9  1  0  0  0  0
  6 10  1  0  0  0  0
  6 12  2  0  0  0  0
  7 27  1  6  0  0  0
  8  7  1  0  0  0  0
  9 16  1  1  0  0  0
 10 43  1  6  0  0  0
 10  1  1  0  0  0  0
 11 12  1  0  0  0  0
 13 49  1  6  0  0  0
 13 11  1  0  0  0  0
 13  8  1  0  0  0  0
 14 18  1  0  0  0  0
 15 14  1  0  0  0  0
 16 15  2  0  0  0  0
 16 17  1  0  0  0  0
 17 18  1  0  0  0  0
 18 19  1  1  0  0  0
 19 22  1  0  0  0  0
 20 24  1  0  0  0  0
 22 21  1  0  0  0  0
 23 19  1  0  0  0  0
 23 20  1  0  0  0  0
 24 21  1  0  0  0  0
 25  6  1  0  0  0  0
 26 25  1  0  0  0  0
 27 28  1  0  0  0  0
 28 30  1  0  0  0  0
 30 29  1  1  0  0  0
 31 32  1  6  0  0  0
 31 33  1  0  0  0  0
 31 30  1  0  0  0  0
 34 33  1  0  0  0  0
 35 38  1  0  0  0  0
 36 42  1  0  0  0  0
 36 35  1  0  0  0  0
 37 34  1  6  0  0  0
 37 40  1  0  0  0  0
 40 38  1  0  0  0  0
 40 39  1  1  0  0  0
 41 42  2  0  0  0  0
 42 37  1  0  0  0  0
 44 43  1  0  0  0  0
 45 48  1  0  0  0  0
 45 47  1  0  0  0  0
 45 46  1  1  0  0  0
 47 44  1  6  0  0  0
 48 47  1  0  0  0  0
 49 55  1  1  0  0  0
 49 53  1  0  0  0  0
 52 51  1  1  0  0  0
 52 53  1  0  0  0  0
 52 54  1  0  0  0  0
 53 54  1  0  0  0  0
 53 50  1  1  0  0  0
 55 58  1  0  0  0  0
 56 60  2  0  0  0  0
 59 56  1  0  0  0  0
 59 61  1  0  0  0  0
 60 57  1  0  0  0  0
 60 62  1  0  0  0  0
 61 58  1  0  0  0  0
 61 57  2  0  0  0  0
 63 65  1  1  0  0  0
 63 66  1  0  0  0  0
 63 56  1  0  0  0  0
 65 64  1  0  0  0  0
 66 67  1  0  0  0  0
 67 68  1  0  0  0  0
 68 70  1  0  0  0  0
 70 69  1  0  0  0  0
M  END
>  <MODEL>
7

>  <REMARK>
 VINA RESULT:      -2.3      2.224      3.835
  Name = 
  23 active torsions:
  status: ('A' for Active; 'I' for Inactive)
    1  A    between atoms: C_1  and  C_60
    2  A    between atoms: C_1  and  C_62
    3  A    between atoms: C_2  and  C_8
    4  A    between atoms: C_2  and  C_66
    5  A    between atoms: C_2  and  C_68
    6  A    between atoms: C_7  and  C_43
    7  A    between atoms: C_7  and  C_48
    8  A    between atoms: C_8  and  N_35
    9  A    between atoms: C_9  and  C_47
   10  A    between atoms: C_14  and  C_49
   11  A    between atoms: C_14  and  C_51
   12  A    between atoms: C_17  and  CA_40
   13  A    between atoms: C_20  and  O_36
   14  A    between atoms: C_21  and  CA_40
   15  A    between atoms: C_25  and  O_38
   16  A    between atoms: C_25  and  C_48
   17  A    between atoms: C_27  and  C_33
   18  A    between atoms: C_29  and  C_56
   19  A    between atoms: C_30  and  C_43
   20  A    between atoms: O_38  and  C_56
   21  A    between atoms: C_39  and  C_51
   22  A    between atoms: CA_40  and  N_42
   23  A    between atoms: N_42  and  C_60
                            x       y       z     vdW  Elec       q    Type
                         _______ _______ _______ _____ _____    ______ ____

>  <TORSDO>
F 23

$$$$
=
 OpenBabel11032419213D

 70 78  0  0  1  0  0  0  0  0999 V2000
  187.4200  177.6330  144.9210 C   0  0  0  0  0  2  0  0  0  0  0  0
  187.1870  179.7050  140.7150 C   0  0  0  0  0  2  0  0  0  0  0  0
  186.9980  177.3590  142.6600 C   0  0  1  0  0  3  0  0  0  0  0  0
  186.1030  179.7460  141.7810 C   0  0  0  0  0  2  0  0  0  0  0  0
  187.2050  178.4990  143.6930 C   0  0  1  0  0  3  0  0  0  0  0  0
  189.2740  176.7640  143.3540 C   0  0  0  0  0  0  0  0  0  0  0  0
  186.9190  178.5910  139.7100 C   0  0  2  0  0  3  0  0  0  0  0  0
  188.2230  178.1530  139.0590 C   0  0  0  0  0  2  0  0  0  0  0  0
  186.0420  178.5500  142.7470 C   0  0  2  0  0  0  0  0  0  0  0  0
  188.8580  177.0690  144.8060 C   0  0  1  0  0  3  0  0  0  0  0  0
  188.7920  176.6110  140.9330 C   0  0  0  0  0  2  0  0  0  0  0  0
  188.4400  177.0530  142.3230 C   0  0  0  0  0  0  0  0  0  0  0  0
  189.2870  177.7810  140.0960 C   0  0  1  0  0  3  0  0  0  0  0  0
  182.9310  178.1250  144.7290 N   0  0  0  0  0  2  0  0  0  0  0  0
  184.3160  178.3740  144.5720 C   0  0  0  0  0  3  0  0  0  0  0  0
  184.6810  178.2430  143.3070 C   0  0  0  0  0  0  0  0  0  0  0  0
  183.5220  177.8720  142.4430 C   0  0  0  0  0  2  0  0  0  0  0  0
  182.3390  177.8970  143.4160 C   0  0  2  0  0  3  0  0  0  0  0  0
  181.3530  179.0180  143.0690 C   0  0  0  0  0  3  0  0  0  0  0  0
  178.9310  179.7470  143.4080 C   0  0  0  0  0  2  0  0  0  0  0  0
  179.6840  179.8150  141.2990 C   0  0  0  0  0  2  0  0  0  0  0  0
  180.9840  179.0430  141.5700 C   0  0  0  0  0  2  0  0  0  0  0  0
  180.1210  178.9690  143.9890 C   0  0  0  0  0  2  0  0  0  0  0  0
  179.3450  180.6280  142.3920 O   0  0  0  0  0  0  0  0  0  0  0  0
  190.5180  176.1760  143.0810 O   0  0  0  0  0  0  0  0  0  0  0  0
  190.8400  174.8430  143.4500 C   0  0  0  0  0  1  0  0  0  0  0  0
  185.9250  179.0520  138.6560 C   0  0  0  0  0  2  0  0  0  0  0  0
  184.5030  178.7240  139.1000 C   0  0  0  0  0  2  0  0  0  0  0  0
  182.6640  180.2660  138.9930 F   0  0  0  0  0  0  0  0  0  0  0  0
  183.4540  179.4180  138.2300 C   0  0  2  0  0  3  0  0  0  0  0  0
  182.5930  178.3960  137.4600 C   0  0  1  0  0  3  0  0  0  0  0  0
  181.1120  178.7870  137.4110 C   0  0  0  0  0  1  0  0  0  0  0  0
  183.1150  178.0790  136.1790 O   0  0  0  0  0  0  0  0  0  0  0  0
  183.1420  176.6790  136.0460 C   0  0  0  0  0  2  0  0  0  0  0  0
  186.3660  173.7400  135.9270 C   0  0  0  0  0  2  0  0  0  0  0  0
  185.9970  174.9530  134.5950 S   0  0  0  0  0  0  0  0  0  0  0  0
  184.4040  176.1020  136.6620 C   0  0  1  0  0  3  0  0  0  0  0  0
  185.5970  173.9560  137.2410 C   0  0  0  0  0  2  0  0  0  0  0  0
  183.4370  174.4910  138.3210 C   0  0  0  0  0  1  0  0  0  0  0  0
  184.2330  174.6210  137.0340 C   0  0  1  0  0  3  0  0  0  0  0  0
  186.1650  177.3340  135.6910 O   0  0  0  0  0  0  0  0  0  0  0  0
  185.5370  176.2890  135.6990 C   0  0  0  0  0  0  0  0  0  0  0  0
  189.8340  178.0640  145.4240 C   0  0  0  0  0  2  0  0  0  0  0  0
  189.9060  177.8850  146.9330 C   0  0  0  0  0  2  0  0  0  0  0  0
  191.2870  175.8670  147.2900 C   0  0  1  0  0  3  0  0  0  0  0  0
  192.3100  175.3630  148.1880 N   0  0  0  0  0  1  0  0  0  0  0  0
  191.2780  177.3820  147.3520 C   0  0  1  0  0  3  0  0  0  0  0  0
  191.9330  176.6740  146.1860 C   0  0  0  0  0  2  0  0  0  0  0  0
  190.6440  177.4570  139.4590 C   0  0  1  0  0  3  0  0  0  0  0  0
  191.6070  178.1790  141.6900 F   0  0  0  0  0  0  0  0  0  0  0  0
  193.6830  176.3890  141.6110 C   0  0  0  0  0  1  0  0  0  0  0  0
  192.9040  176.5600  140.3190 C   0  0  1  0  0  3  0  0  0  0  0  0
  191.7920  177.5310  140.4750 C   0  0  1  0  0  0  0  0  0  0  0  0
  193.0110  177.8950  139.8750 O   0  0  0  0  0  0  0  0  0  0  0  0
  190.5730  176.0660  138.8310 C   0  0  0  0  0  2  0  0  0  0  0  0
  194.0740  173.6980  136.9250 C   0  0  0  0  0  0  0  0  0  0  0  0
  192.8390  175.3910  135.9190 N   0  0  0  0  0  0  0  0  0  0  0  0
  191.0860  176.0710  137.4700 N   0  0  0  0  0  2  0  0  0  0  0  0
  192.8640  174.0330  138.0490 S   0  0  0  0  0  0  0  0  0  0  0  0
  193.8880  174.5290  135.8220 C   0  0  0  0  0  0  0  0  0  0  0  0
  192.1840  175.2390  137.0890 C   0  0  0  0  0  0  0  0  0  0  0  0
  194.7770  174.5240  134.6280 C   0  0  0  0  0  1  0  0  0  0  0  0
  195.1570  172.6780  137.0950 C   0  0  2  0  0  3  0  0  0  0  0  0
  193.3110  171.3560  136.3670 O   0  0  0  0  0  1  0  0  0  0  0  0
  194.6220  171.2810  136.8410 C   0  0  0  0  0  2  0  0  0  0  0  0
  195.7090  172.7540  138.4380 N   0  0  0  0  0  2  0  0  0  0  0  0
  195.8350  174.1610  138.7670 C   0  0  0  0  0  2  0  0  0  0  0  0
  197.2470  174.4380  139.2550 C   0  0  0  0  0  2  0  0  0  0  0  0
  198.0000  175.1930  141.3930 O   0  0  0  0  0  1  0  0  0  0  0  0
  197.2450  175.5610  140.2780 C   0  0  0  0  0  2  0  0  0  0  0  0
  2  4  1  0  0  0  0
  3 12  1  6  0  0  0
  3  9  1  0  0  0  0
  3  5  1  0  0  0  0
  4  9  1  0  0  0  0
  5  1  1  1  0  0  0
  6 10  1  0  0  0  0
  7 27  1  6  0  0  0
  7  2  1  0  0  0  0
  8  7  1  0  0  0  0
  8 13  1  0  0  0  0
  9 16  1  1  0  0  0
  9  5  1  0  0  0  0
 10  1  1  0  0  0  0
 10 43  1  6  0  0  0
 11 12  1  0  0  0  0
 12  6  2  0  0  0  0
 13 49  1  6  0  0  0
 13 11  1  0  0  0  0
 15 14  1  0  0  0  0
 16 15  2  0  0  0  0
 17 16  1  0  0  0  0
 17 18  1  0  0  0  0
 18 19  1  6  0  0  0
 18 14  1  0  0  0  0
 19 23  1  0  0  0  0
 20 23  1  0  0  0  0
 21 22  1  0  0  0  0
 21 24  1  0  0  0  0
 22 19  1  0  0  0  0
 24 20  1  0  0  0  0
 25  6  1  0  0  0  0
 25 26  1  0  0  0  0
 27 28  1  0  0  0  0
 30 29  1  1  0  0  0
 30 28  1  0  0  0  0
 31 32  1  6  0  0  0
 31 30  1  0  0  0  0
 33 31  1  0  0  0  0
 34 33  1  0  0  0  0
 35 38  1  0  0  0  0
 36 42  1  0  0  0  0
 36 35  1  0  0  0  0
 37 34  1  6  0  0  0
 37 40  1  0  0  0  0
 40 38  1  0  0  0  0
 40 39  1  1  0  0  0
 41 42  2  0  0  0  0
 42 37  1  0  0  0  0
 43 44  1  0  0  0  0
 45 47  1  0  0  0  0
 45 46  1  1  0  0  0
 47 44  1  6  0  0  0
 48 45  1  0  0  0  0
 48 47  1  0  0  0  0
 49 55  1  1  0  0  0
 49 53  1  0  0  0  0
 52 53  1  0  0  0  0
 52 51  1  1  0  0  0
 53 50  1  1  0  0  0
 54 52  1  0  0  0  0
 54 53  1  0  0  0  0
 56 63  1  0  0  0  0
 56 59  1  0  0  0  0
 57 61  2  0  0  0  0
 58 55  1  0  0  0  0
 60 57  1  0  0  0  0
 60 56  2  0  0  0  0
 61 58  1  0  0  0  0
 61 59  1  0  0  0  0
 62 60  1  0  0  0  0
 63 65  1  1  0  0  0
 63 66  1  0  0  0  0
 64 65  1  0  0  0  0
 66 67  1  0  0  0  0
 67 68  1  0  0  0  0
 68 70  1  0  0  0  0
 70 69  1  0  0  0  0
M  END
>  <MODEL>
8

>  <REMARK>
 VINA RESULT:      -2.3      3.439     10.233
  Name = 
  23 active torsions:
  status: ('A' for Active; 'I' for Inactive)
    1  A    between atoms: C_1  and  C_60
    2  A    between atoms: C_1  and  C_62
    3  A    between atoms: C_2  and  C_8
    4  A    between atoms: C_2  and  C_66
    5  A    between atoms: C_2  and  C_68
    6  A    between atoms: C_7  and  C_43
    7  A    between atoms: C_7  and  C_48
    8  A    between atoms: C_8  and  N_35
    9  A    between atoms: C_9  and  C_47
   10  A    between atoms: C_14  and  C_49
   11  A    between atoms: C_14  and  C_51
   12  A    between atoms: C_17  and  CA_40
   13  A    between atoms: C_20  and  O_36
   14  A    between atoms: C_21  and  CA_40
   15  A    between atoms: C_25  and  O_38
   16  A    between atoms: C_25  and  C_48
   17  A    between atoms: C_27  and  C_33
   18  A    between atoms: C_29  and  C_56
   19  A    between atoms: C_30  and  C_43
   20  A    between atoms: O_38  and  C_56
   21  A    between atoms: C_39  and  C_51
   22  A    between atoms: CA_40  and  N_42
   23  A    between atoms: N_42  and  C_60
                            x       y       z     vdW  Elec       q    Type
                         _______ _______ _______ _____ _____    ______ ____

>  <TORSDO>
F 23

$$$$
