=
 OpenBabel11042411263D

 55 61  0  0  1  0  0  0  0  0999 V2000
  185.8210  178.5880  145.9980 C   0  0  0  0  0  3  0  0  0  0  0  0
  184.6850  178.9960  143.6840 C   0  0  2  0  0  0  0  0  0  0  0  0
  185.0950  180.2900  143.4040 F   0  0  0  0  0  0  0  0  0  0  0  0
  186.9690  177.8550  146.3020 C   0  0  0  0  0  0  0  0  0  0  0  0
  185.6630  178.3830  144.6420 C   0  0  0  0  0  0  0  0  0  0  0  0
  186.0710  177.7760  141.8690 C   0  0  2  0  0  3  0  0  0  0  0  0
  184.6670  178.1640  142.3800 C   0  0  0  0  0  2  0  0  0  0  0  0
  187.4650  177.2690  145.2360 O   0  0  0  0  0  0  0  0  0  0  0  0
  186.6980  177.5930  144.2310 C   0  0  0  0  0  0  0  0  0  0  0  0
  186.8770  177.2030  142.9070 O   0  0  0  0  0  0  0  0  0  0  0  0
  183.2840  179.0170  144.3040 C   0  0  0  0  0  2  0  0  0  0  0  0
  182.1970  179.4480  143.3180 C   0  0  0  0  0  2  0  0  0  0  0  0
  180.8750  178.8400  143.6550 C   0  0  0  0  0  0  0  0  0  0  0  0
  180.8030  177.9500  144.4880 O   0  0  0  0  0  0  0  0  0  0  0  0
  179.6380  179.3380  142.9840 C   0  0  0  0  0  2  0  0  0  0  0  0
  179.7040  179.0980  141.5530 N   0  0  0  0  0  0  0  0  0  0  0  0
  178.9310  177.5140  138.7690 O   0  0  0  0  0  1  0  0  0  0  0  0
  179.8640  177.7860  140.9560 C   0  0  0  0  0  2  0  0  0  0  0  0
  180.0340  178.0280  139.4480 C   0  0  2  0  0  3  0  0  0  0  0  0
  180.1090  179.5450  139.2240 C   0  0  1  0  0  3  0  0  0  0  0  0
  179.7630  181.3280  140.8230 O   0  0  0  0  0  0  0  0  0  0  0  0
  179.8570  180.0980  140.5710 C   0  0  0  0  0  0  0  0  0  0  0  0
  182.0620  179.2410  137.4050 O   0  0  0  0  0  0  0  0  0  0  0  0
  182.7520  179.6730  139.7240 O   0  0  0  0  0  0  0  0  0  0  0  0
  181.7420  179.9990  138.6620 S   0  0  0  0  0  0  0  0  0  0  0  0
  180.2170  181.5930  136.5910 O   0  0  0  0  0  0  0  0  0  0  0  0
  181.7690  181.6990  138.3320 N   0  0  0  0  0  2  0  0  0  0  0  0
  180.9870  182.2930  137.2990 C   0  0  0  0  0  0  0  0  0  0  0  0
  181.0540  183.7620  137.0820 C   0  0  0  0  0  2  0  0  0  0  0  0
  182.2650  184.2510  137.5710 O   0  0  0  0  0  1  0  0  0  0  0  0
  186.7740  178.9780  141.2470 C   0  0  0  0  0  2  0  0  0  0  0  0
  187.3220  178.6320  139.9620 N   0  0  0  0  0  0  0  0  0  0  0  0
  188.5910  178.5470  139.7920 C   0  0  0  0  0  3  0  0  0  0  0  0
  190.2740  176.2620  134.9870 C   0  0  0  0  0  2  0  0  0  0  0  0
  191.3000  175.3940  136.9820 N   0  0  0  0  0  0  0  0  0  0  0  0
  189.1500  178.2080  138.4500 C   0  0  2  0  0  3  0  0  0  0  0  0
  191.2880  175.2600  135.5310 C   0  0  0  0  0  2  0  0  0  0  0  0
  189.9300  177.1130  136.1070 N   0  0  1  0  0  0  0  0  0  0  0  0
  187.3860  179.2510  137.1810 O   0  0  0  0  0  1  0  0  0  0  0  0
  188.0190  178.0280  137.4130 C   0  0  1  0  0  3  0  0  0  0  0  0
  188.5070  177.4460  136.0650 C   0  0  0  0  0  2  0  0  0  0  0  0
  192.5160  176.1300  137.3120 C   0  0  0  0  0  1  0  0  0  0  0  0
  190.1210  176.2190  137.2320 C   0  0  2  0  0  3  0  0  0  0  0  0
  190.0750  176.9780  138.5620 C   0  0  0  0  0  2  0  0  0  0  0  0
  187.5820  177.7250  147.6570 C   0  0  0  0  0  2  0  0  0  0  0  0
  188.8310  176.8530  147.6400 C   0  0  0  0  0  2  0  0  0  0  0  0
  191.1690  176.7370  147.8060 C   0  0  0  0  0  2  0  0  0  0  0  0
  190.9730  177.4430  146.5480 C   0  0  2  0  0  3  0  0  0  0  0  0
  190.0420  177.6750  147.6860 N   0  0  0  0  0  0  0  0  0  0  0  0
  190.4710  176.4760  145.4750 C   0  0  0  0  0  2  0  0  0  0  0  0
  190.7990  175.6400  143.3080 C   0  0  0  0  0  2  0  0  0  0  0  0
  191.4020  176.4640  144.3560 N   0  0  0  0  0  0  0  0  0  0  0  0
  191.2760  177.7680  142.3410 C   0  0  0  0  0  2  0  0  0  0  0  0
  190.4420  176.5350  142.1370 C   0  0  0  0  0  2  0  0  0  0  0  0
  191.4710  177.8290  143.8380 C   0  0  0  0  0  2  0  0  0  0  0  0
  1  4  2  0  0  0  0
  2  3  1  6  0  0  0
  2 11  1  0  0  0  0
  2  5  1  0  0  0  0
  4 45  1  0  0  0  0
  5  1  1  0  0  0  0
  6 31  1  1  0  0  0
  6  7  1  0  0  0  0
  6 10  1  0  0  0  0
  7  2  1  0  0  0  0
  8  4  1  0  0  0  0
  9  5  2  0  0  0  0
  9  8  1  0  0  0  0
 10  9  1  0  0  0  0
 12 13  1  0  0  0  0
 12 11  1  0  0  0  0
 13 14  2  0  0  0  0
 15 13  1  0  0  0  0
 16 15  1  0  0  0  0
 18 16  1  0  0  0  0
 19 17  1  6  0  0  0
 19 18  1  0  0  0  0
 20 25  1  1  0  0  0
 20 19  1  0  0  0  0
 20 22  1  0  0  0  0
 22 21  2  0  0  0  0
 22 16  1  0  0  0  0
 23 25  2  0  0  0  0
 25 24  2  0  0  0  0
 26 28  2  0  0  0  0
 27 25  1  0  0  0  0
 28 27  1  0  0  0  0
 29 28  1  0  0  0  0
 29 30  1  0  0  0  0
 32 31  1  0  0  0  0
 33 32  2  0  0  0  0
 34 37  1  0  0  0  0
 35 43  1  0  0  0  0
 35 42  1  0  0  0  0
 36 44  1  0  0  0  0
 36 33  1  1  0  0  0
 37 35  1  0  0  0  0
 38 34  1  6  0  0  0
 38 43  1  0  0  0  0
 40 39  1  6  0  0  0
 40 36  1  0  0  0  0
 41 38  1  0  0  0  0
 41 40  1  0  0  0  0
 43 44  1  1  0  0  0
 46 45  1  0  0  0  0
 46 49  1  0  0  0  0
 48 50  1  6  0  0  0
 48 49  1  0  0  0  0
 48 47  1  0  0  0  0
 49 47  1  0  0  0  0
 51 52  1  0  0  0  0
 52 50  1  0  0  0  0
 53 55  1  0  0  0  0
 54 53  1  0  0  0  0
 54 51  1  0  0  0  0
 55 52  1  0  0  0  0
M  END
>  <MODEL>
1

>  <REMARK>
 VINA RESULT:      -8.7      0.000      0.000
  Name = 
  16 active torsions:
  status: ('A' for Active; 'I' for Inactive)
    1  A    between atoms: C_1  and  C_6
    2  A    between atoms: C_1  and  C_46
    3  A    between atoms: C_9  and  C_22
    4  A    between atoms: C_10  and  C_13
    5  A    between atoms: C_10  and  C_46
    6  A    between atoms: C_11  and  C_32
    7  A    between atoms: C_13  and  N_15
    8  A    between atoms: C_14  and  C_43
    9  A    between atoms: N_17  and  C_30
   10  A    between atoms: C_22  and  C_41
   11  A    between atoms: C_26  and  C_30
   12  A    between atoms: N_28  and  S_54
   13  A    between atoms: C_31  and  C_40
   14  A    between atoms: C_36  and  S_54
   15  A    between atoms: N_39  and  C_40
   16  A    between atoms: C_41  and  N_53
                            x       y       z     vdW  Elec       q    Type
                         _______ _______ _______ _____ _____    ______ ____

>  <TORSDO>
F 16

$$$$
=
 OpenBabel11042411263D

 55 61  0  0  1  0  0  0  0  0999 V2000
  187.3480  177.4660  145.1620 C   0  0  0  0  0  3  0  0  0  0  0  0
  185.8090  178.2720  143.2140 C   0  0  2  0  0  0  0  0  0  0  0  0
  185.0220  177.1510  143.0080 F   0  0  0  0  0  0  0  0  0  0  0  0
  187.2790  177.7650  146.5230 C   0  0  0  0  0  0  0  0  0  0  0  0
  186.3360  178.2320  144.6180 C   0  0  0  0  0  0  0  0  0  0  0  0
  183.9840  179.8190  144.2030 C   0  0  2  0  0  3  0  0  0  0  0  0
  184.9530  179.5470  143.0320 C   0  0  0  0  0  2  0  0  0  0  0  0
  186.3170  178.6210  146.7830 O   0  0  0  0  0  0  0  0  0  0  0  0
  185.7340  178.8950  145.6480 C   0  0  0  0  0  0  0  0  0  0  0  0
  184.6460  179.7450  145.4720 O   0  0  0  0  0  0  0  0  0  0  0  0
  186.9720  178.2820  142.2160 C   0  0  0  0  0  2  0  0  0  0  0  0
  186.5420  178.6550  140.7960 C   0  0  0  0  0  2  0  0  0  0  0  0
  187.5310  178.1880  139.7790 C   0  0  0  0  0  0  0  0  0  0  0  0
  188.6260  177.7770  140.1320 O   0  0  0  0  0  0  0  0  0  0  0  0
  187.1710  178.2070  138.3310 C   0  0  0  0  0  2  0  0  0  0  0  0
  187.8450  177.1310  137.6250 N   0  0  0  0  0  0  0  0  0  0  0  0
  187.9750  174.5130  135.6280 O   0  0  0  0  0  1  0  0  0  0  0  0
  187.3620  175.7650  137.5730 C   0  0  0  0  0  2  0  0  0  0  0  0
  188.4560  174.9580  136.8590 C   0  0  2  0  0  3  0  0  0  0  0  0
  189.6520  175.8930  136.6310 C   0  0  1  0  0  3  0  0  0  0  0  0
  189.8060  178.2750  137.0280 O   0  0  0  0  0  0  0  0  0  0  0  0
  189.1530  177.2010  137.1020 C   0  0  0  0  0  0  0  0  0  0  0  0
  191.2060  173.8760  137.4900 O   0  0  0  0  0  0  0  0  0  0  0  0
  190.7960  175.7190  139.0630 O   0  0  0  0  0  0  0  0  0  0  0  0
  191.0390  175.3630  137.6240 S   0  0  0  0  0  0  0  0  0  0  0  0
  192.7250  174.7990  135.1770 O   0  0  0  0  0  0  0  0  0  0  0  0
  192.4690  176.1570  137.0590 N   0  0  0  0  0  2  0  0  0  0  0  0
  193.1560  175.7520  135.8770 C   0  0  0  0  0  0  0  0  0  0  0  0
  194.3740  176.4890  135.4480 C   0  0  0  0  0  2  0  0  0  0  0  0
  195.4890  175.9720  136.1060 O   0  0  0  0  0  1  0  0  0  0  0  0
  182.7990  178.8600  144.1600 C   0  0  0  0  0  2  0  0  0  0  0  0
  182.2030  178.8530  142.8500 N   0  0  0  0  0  0  0  0  0  0  0  0
  180.9380  178.6880  142.7060 C   0  0  0  0  0  3  0  0  0  0  0  0
  179.6730  178.2010  137.2930 C   0  0  0  0  0  2  0  0  0  0  0  0
  181.3710  179.8150  137.8360 N   0  0  0  0  0  0  0  0  0  0  0  0
  180.3330  178.6630  141.3420 C   0  0  2  0  0  3  0  0  0  0  0  0
  180.6290  179.2430  136.7200 C   0  0  0  0  0  2  0  0  0  0  0  0
  179.7070  178.3900  138.7280 N   0  0  1  0  0  0  0  0  0  0  0  0
  179.0360  176.6610  141.6880 O   0  0  0  0  0  1  0  0  0  0  0  0
  180.0450  177.2120  140.8950 C   0  0  1  0  0  3  0  0  0  0  0  0
  179.6410  177.0970  139.4060 C   0  0  0  0  0  2  0  0  0  0  0  0
  180.7900  181.1310  138.0790 C   0  0  0  0  0  1  0  0  0  0  0  0
  181.0480  178.9040  138.9310 C   0  0  2  0  0  3  0  0  0  0  0  0
  181.2310  179.4370  140.3550 C   0  0  0  0  0  2  0  0  0  0  0  0
  188.1740  177.2060  147.5810 C   0  0  0  0  0  2  0  0  0  0  0  0
  189.3320  176.4120  146.9900 C   0  0  0  0  0  2  0  0  0  0  0  0
  191.5480  175.8250  147.4920 C   0  0  0  0  0  2  0  0  0  0  0  0
  191.7110  176.8070  146.4290 C   0  0  2  0  0  3  0  0  0  0  0  0
  190.6170  176.9630  147.4250 N   0  0  0  0  0  0  0  0  0  0  0  0
  191.2950  176.2020  145.0860 C   0  0  0  0  0  2  0  0  0  0  0  0
  190.5720  177.2000  143.0900 C   0  0  0  0  0  2  0  0  0  0  0  0
  191.7080  177.0840  144.0050 N   0  0  0  0  0  0  0  0  0  0  0  0
  191.1780  179.4140  143.7420 C   0  0  0  0  0  2  0  0  0  0  0  0
  190.0460  178.6200  143.1540 C   0  0  0  0  0  2  0  0  0  0  0  0
  191.9230  178.4080  144.5880 C   0  0  0  0  0  2  0  0  0  0  0  0
  1  4  2  0  0  0  0
  2  3  1  6  0  0  0
  2  5  1  0  0  0  0
  4  8  1  0  0  0  0
  4 45  1  0  0  0  0
  5  1  1  0  0  0  0
  5  9  2  0  0  0  0
  6 31  1  1  0  0  0
  6 10  1  0  0  0  0
  7  2  1  0  0  0  0
  7  6  1  0  0  0  0
  9  8  1  0  0  0  0
 10  9  1  0  0  0  0
 11  2  1  0  0  0  0
 12 11  1  0  0  0  0
 13 14  2  0  0  0  0
 13 12  1  0  0  0  0
 15 13  1  0  0  0  0
 16 15  1  0  0  0  0
 18 16  1  0  0  0  0
 19 17  1  6  0  0  0
 19 18  1  0  0  0  0
 20 19  1  0  0  0  0
 20 22  1  0  0  0  0
 20 25  1  1  0  0  0
 21 22  2  0  0  0  0
 22 16  1  0  0  0  0
 23 25  2  0  0  0  0
 25 24  2  0  0  0  0
 26 28  2  0  0  0  0
 27 25  1  0  0  0  0
 28 27  1  0  0  0  0
 29 28  1  0  0  0  0
 29 30  1  0  0  0  0
 32 31  1  0  0  0  0
 33 32  2  0  0  0  0
 35 42  1  0  0  0  0
 35 43  1  0  0  0  0
 36 33  1  1  0  0  0
 37 34  1  0  0  0  0
 37 35  1  0  0  0  0
 38 34  1  6  0  0  0
 38 43  1  0  0  0  0
 38 41  1  0  0  0  0
 40 36  1  0  0  0  0
 40 39  1  1  0  0  0
 41 40  1  0  0  0  0
 43 44  1  1  0  0  0
 44 36  1  0  0  0  0
 46 49  1  0  0  0  0
 46 45  1  0  0  0  0
 48 50  1  6  0  0  0
 48 49  1  0  0  0  0
 48 47  1  0  0  0  0
 49 47  1  0  0  0  0
 51 54  1  0  0  0  0
 51 52  1  0  0  0  0
 52 55  1  0  0  0  0
 52 50  1  0  0  0  0
 53 55  1  0  0  0  0
 54 53  1  0  0  0  0
M  END
>  <MODEL>
2

>  <REMARK>
 VINA RESULT:      -8.5      2.980      8.158
  Name = 
  16 active torsions:
  status: ('A' for Active; 'I' for Inactive)
    1  A    between atoms: C_1  and  C_6
    2  A    between atoms: C_1  and  C_46
    3  A    between atoms: C_9  and  C_22
    4  A    between atoms: C_10  and  C_13
    5  A    between atoms: C_10  and  C_46
    6  A    between atoms: C_11  and  C_32
    7  A    between atoms: C_13  and  N_15
    8  A    between atoms: C_14  and  C_43
    9  A    between atoms: N_17  and  C_30
   10  A    between atoms: C_22  and  C_41
   11  A    between atoms: C_26  and  C_30
   12  A    between atoms: N_28  and  S_54
   13  A    between atoms: C_31  and  C_40
   14  A    between atoms: C_36  and  S_54
   15  A    between atoms: N_39  and  C_40
   16  A    between atoms: C_41  and  N_53
                            x       y       z     vdW  Elec       q    Type
                         _______ _______ _______ _____ _____    ______ ____

>  <TORSDO>
F 16

$$$$
=
 OpenBabel11042411263D

 55 61  0  0  1  0  0  0  0  0999 V2000
  189.8200  177.8150  139.3530 C   0  0  0  0  0  3  0  0  0  0  0  0
  188.7860  177.1010  137.0650 C   0  0  2  0  0  0  0  0  0  0  0  0
  189.4950  177.9030  136.1850 F   0  0  0  0  0  0  0  0  0  0  0  0
  190.7590  177.1520  140.1440 C   0  0  0  0  0  0  0  0  0  0  0  0
  189.6000  176.9320  138.3140 C   0  0  0  0  0  0  0  0  0  0  0  0
  189.8120  174.8230  136.3830 C   0  0  2  0  0  3  0  0  0  0  0  0
  188.5500  175.7130  136.4250 C   0  0  0  0  0  2  0  0  0  0  0  0
  191.0850  175.9860  139.6330 O   0  0  0  0  0  0  0  0  0  0  0  0
  190.4070  175.8520  138.5270 C   0  0  0  0  0  0  0  0  0  0  0  0
  190.4680  174.7680  137.6560 O   0  0  0  0  0  0  0  0  0  0  0  0
  187.4410  177.7540  137.3970 C   0  0  0  0  0  2  0  0  0  0  0  0
  186.2420  176.8820  137.0240 C   0  0  0  0  0  2  0  0  0  0  0  0
  184.9490  177.5350  137.3900 C   0  0  0  0  0  0  0  0  0  0  0  0
  183.9850  177.4470  136.6460 O   0  0  0  0  0  0  0  0  0  0  0  0
  184.8340  178.2790  138.6790 C   0  0  0  0  0  2  0  0  0  0  0  0
  183.4690  178.7350  138.8830 N   0  0  0  0  0  0  0  0  0  0  0  0
  180.7340  180.3780  138.0630 O   0  0  0  0  0  1  0  0  0  0  0  0
  183.0300  180.1010  138.6760 C   0  0  0  0  0  2  0  0  0  0  0  0
  181.5710  180.1520  139.1540 C   0  0  2  0  0  3  0  0  0  0  0  0
  181.2380  178.7900  139.7790 C   0  0  1  0  0  3  0  0  0  0  0  0
  182.5780  176.7750  139.8180 O   0  0  0  0  0  0  0  0  0  0  0  0
  182.4550  177.9930  139.5230 C   0  0  0  0  0  0  0  0  0  0  0  0
  180.1050  177.8500  142.0270 O   0  0  0  0  0  0  0  0  0  0  0  0
  180.3050  180.2890  141.8130 O   0  0  0  0  0  0  0  0  0  0  0  0
  180.9730  178.9730  141.5360 S   0  0  0  0  0  0  0  0  0  0  0  0
  181.5950  178.7600  144.4890 O   0  0  0  0  0  0  0  0  0  0  0  0
  182.5030  178.9140  142.3430 N   0  0  0  0  0  2  0  0  0  0  0  0
  182.6200  178.8240  143.7610 C   0  0  0  0  0  0  0  0  0  0  0  0
  183.9690  178.7670  144.3830 C   0  0  0  0  0  2  0  0  0  0  0  0
  183.8700  179.0660  145.7410 O   0  0  0  0  0  1  0  0  0  0  0  0
  190.7770  175.3020  135.3030 C   0  0  0  0  0  2  0  0  0  0  0  0
  192.1400  175.1030  135.7210 N   0  0  0  0  0  0  0  0  0  0  0  0
  192.9810  176.0720  135.6940 C   0  0  0  0  0  3  0  0  0  0  0  0
  198.3270  174.6040  136.3370 C   0  0  0  0  0  2  0  0  0  0  0  0
  196.7180  172.8250  136.5150 N   0  0  0  0  0  0  0  0  0  0  0  0
  194.3980  175.8500  136.1110 C   0  0  2  0  0  3  0  0  0  0  0  0
  198.1460  173.1080  136.5790 C   0  0  0  0  0  2  0  0  0  0  0  0
  196.9960  175.1710  136.4010 N   0  0  1  0  0  0  0  0  0  0  0  0
  195.2150  177.9830  135.3410 O   0  0  0  0  0  1  0  0  0  0  0  0
  195.3700  176.6050  135.1770 C   0  0  1  0  0  3  0  0  0  0  0  0
  196.8540  176.2310  135.4030 C   0  0  0  0  0  2  0  0  0  0  0  0
  196.2750  172.6500  137.8940 C   0  0  0  0  0  1  0  0  0  0  0  0
  196.1750  174.0620  135.9580 C   0  0  2  0  0  3  0  0  0  0  0  0
  194.6880  174.3370  136.1980 C   0  0  0  0  0  2  0  0  0  0  0  0
  191.3410  177.6690  141.4180 C   0  0  0  0  0  2  0  0  0  0  0  0
  190.6240  177.1120  142.6420 C   0  0  0  0  0  2  0  0  0  0  0  0
  191.6240  178.4620  144.2810 C   0  0  0  0  0  2  0  0  0  0  0  0
  190.8790  177.4940  145.0750 C   0  0  2  0  0  3  0  0  0  0  0  0
  191.5210  177.0750  143.8000 N   0  0  0  0  0  0  0  0  0  0  0  0
  189.3800  177.7870  144.9910 C   0  0  0  0  0  2  0  0  0  0  0  0
  189.5600  177.1930  147.2530 C   0  0  0  0  0  2  0  0  0  0  0  0
  188.6900  177.1110  146.0800 N   0  0  0  0  0  0  0  0  0  0  0  0
  187.4540  178.1280  147.8740 C   0  0  0  0  0  2  0  0  0  0  0  0
  188.9000  178.0930  148.2800 C   0  0  0  0  0  2  0  0  0  0  0  0
  187.4920  177.8950  146.3810 C   0  0  0  0  0  2  0  0  0  0  0  0
  1  4  2  0  0  0  0
  2  3  1  6  0  0  0
  2 11  1  0  0  0  0
  2  5  1  0  0  0  0
  4 45  1  0  0  0  0
  5  9  2  0  0  0  0
  5  1  1  0  0  0  0
  6 31  1  6  0  0  0
  6  7  1  0  0  0  0
  6 10  1  0  0  0  0
  7  2  1  0  0  0  0
  8  4  1  0  0  0  0
  9  8  1  0  0  0  0
 10  9  1  0  0  0  0
 12 13  1  0  0  0  0
 12 11  1  0  0  0  0
 13 15  1  0  0  0  0
 14 13  2  0  0  0  0
 15 16  1  0  0  0  0
 16 22  1  0  0  0  0
 18 16  1  0  0  0  0
 18 19  1  0  0  0  0
 19 17  1  6  0  0  0
 19 20  1  0  0  0  0
 20 25  1  1  0  0  0
 22 20  1  0  0  0  0
 22 21  2  0  0  0  0
 25 24  2  0  0  0  0
 25 23  2  0  0  0  0
 25 27  1  0  0  0  0
 27 28  1  0  0  0  0
 28 29  1  0  0  0  0
 28 26  2  0  0  0  0
 29 30  1  0  0  0  0
 31 32  1  0  0  0  0
 33 32  2  0  0  0  0
 34 38  1  0  0  0  0
 34 37  1  0  0  0  0
 35 37  1  0  0  0  0
 35 42  1  0  0  0  0
 36 33  1  6  0  0  0
 36 44  1  0  0  0  0
 38 41  1  6  0  0  0
 40 39  1  1  0  0  0
 40 41  1  0  0  0  0
 40 36  1  0  0  0  0
 43 44  1  1  0  0  0
 43 38  1  0  0  0  0
 43 35  1  0  0  0  0
 45 46  1  0  0  0  0
 46 49  1  0  0  0  0
 47 48  1  0  0  0  0
 48 50  1  6  0  0  0
 49 47  1  0  0  0  0
 49 48  1  0  0  0  0
 50 52  1  0  0  0  0
 51 54  1  0  0  0  0
 52 55  1  0  0  0  0
 52 51  1  0  0  0  0
 53 54  1  0  0  0  0
 55 53  1  0  0  0  0
M  END
>  <MODEL>
3

>  <REMARK>
 VINA RESULT:      -8.4      3.300      6.512
  Name = 
  16 active torsions:
  status: ('A' for Active; 'I' for Inactive)
    1  A    between atoms: C_1  and  C_6
    2  A    between atoms: C_1  and  C_46
    3  A    between atoms: C_9  and  C_22
    4  A    between atoms: C_10  and  C_13
    5  A    between atoms: C_10  and  C_46
    6  A    between atoms: C_11  and  C_32
    7  A    between atoms: C_13  and  N_15
    8  A    between atoms: C_14  and  C_43
    9  A    between atoms: N_17  and  C_30
   10  A    between atoms: C_22  and  C_41
   11  A    between atoms: C_26  and  C_30
   12  A    between atoms: N_28  and  S_54
   13  A    between atoms: C_31  and  C_40
   14  A    between atoms: C_36  and  S_54
   15  A    between atoms: N_39  and  C_40
   16  A    between atoms: C_41  and  N_53
                            x       y       z     vdW  Elec       q    Type
                         _______ _______ _______ _____ _____    ______ ____

>  <TORSDO>
F 16

$$$$
=
 OpenBabel11042411263D

 55 61  0  0  1  0  0  0  0  0999 V2000
  189.5610  178.0260  139.3890 C   0  0  0  0  0  3  0  0  0  0  0  0
  188.6000  177.7840  136.9730 C   0  0  2  0  0  0  0  0  0  0  0  0
  189.4590  178.6030  136.2570 F   0  0  0  0  0  0  0  0  0  0  0  0
  190.3570  177.1400  140.1150 C   0  0  0  0  0  0  0  0  0  0  0  0
  189.3020  177.3350  138.2210 C   0  0  0  0  0  0  0  0  0  0  0  0
  189.3800  175.5110  136.0100 C   0  0  2  0  0  3  0  0  0  0  0  0
  188.2380  176.5440  136.1240 C   0  0  0  0  0  2  0  0  0  0  0  0
  190.5700  176.0260  139.4530 O   0  0  0  0  0  0  0  0  0  0  0  0
  189.9540  176.1390  138.3090 C   0  0  0  0  0  0  0  0  0  0  0  0
  189.9390  175.1900  137.2900 O   0  0  0  0  0  0  0  0  0  0  0  0
  187.3270  178.5560  137.3350 C   0  0  0  0  0  2  0  0  0  0  0  0
  186.1100  177.6490  137.5240 C   0  0  0  0  0  2  0  0  0  0  0  0
  185.1300  178.2360  138.4870 C   0  0  0  0  0  0  0  0  0  0  0  0
  185.2860  179.3720  138.9060 O   0  0  0  0  0  0  0  0  0  0  0  0
  183.9470  177.4350  138.9210 C   0  0  0  0  0  2  0  0  0  0  0  0
  182.7170  178.0450  138.4450 N   0  0  0  0  0  0  0  0  0  0  0  0
  179.9530  178.1450  136.6550 O   0  0  0  0  0  1  0  0  0  0  0  0
  182.3120  178.0730  137.0530 C   0  0  0  0  0  2  0  0  0  0  0  0
  181.0440  178.9400  137.0020 C   0  0  2  0  0  3  0  0  0  0  0  0
  180.8230  179.5260  138.4030 C   0  0  1  0  0  3  0  0  0  0  0  0
  182.0140  179.0370  140.4520 O   0  0  0  0  0  0  0  0  0  0  0  0
  181.8800  178.8820  139.2100 C   0  0  0  0  0  0  0  0  0  0  0  0
  182.4860  181.6120  138.7170 O   0  0  0  0  0  0  0  0  0  0  0  0
  180.1380  181.9500  139.3570 O   0  0  0  0  0  0  0  0  0  0  0  0
  181.0600  181.2960  138.3680 S   0  0  0  0  0  0  0  0  0  0  0  0
  181.1000  184.1220  137.2900 O   0  0  0  0  0  0  0  0  0  0  0  0
  180.7130  181.8780  136.7750 N   0  0  0  0  0  2  0  0  0  0  0  0
  180.7690  183.2610  136.4340 C   0  0  0  0  0  0  0  0  0  0  0  0
  180.4690  183.6850  135.0410 C   0  0  0  0  0  2  0  0  0  0  0  0
  180.8330  185.0210  134.8710 O   0  0  0  0  0  1  0  0  0  0  0  0
  190.4660  176.0060  135.0600 C   0  0  0  0  0  2  0  0  0  0  0  0
  191.7490  175.9910  135.7100 N   0  0  0  0  0  0  0  0  0  0  0  0
  192.8250  175.8060  135.0350 C   0  0  0  0  0  3  0  0  0  0  0  0
  197.9950  174.8400  136.9000 C   0  0  0  0  0  2  0  0  0  0  0  0
  196.4030  173.0700  137.2440 N   0  0  0  0  0  0  0  0  0  0  0  0
  194.1490  175.7710  135.7220 C   0  0  2  0  0  3  0  0  0  0  0  0
  197.7940  173.4400  137.4720 C   0  0  0  0  0  2  0  0  0  0  0  0
  196.6660  175.3300  136.5990 N   0  0  1  0  0  0  0  0  0  0  0  0
  195.0600  177.6970  134.5940 O   0  0  0  0  0  1  0  0  0  0  0  0
  195.2600  176.3310  134.8050 C   0  0  1  0  0  3  0  0  0  0  0  0
  196.6860  176.1070  135.3600 C   0  0  0  0  0  2  0  0  0  0  0  0
  195.7290  173.2090  138.5300 C   0  0  0  0  0  1  0  0  0  0  0  0
  195.9500  174.1020  136.3160 C   0  0  2  0  0  3  0  0  0  0  0  0
  194.4400  174.3440  136.2300 C   0  0  0  0  0  2  0  0  0  0  0  0
  190.9120  177.3910  141.4790 C   0  0  0  0  0  2  0  0  0  0  0  0
  189.8740  177.9920  142.4190 C   0  0  0  0  0  2  0  0  0  0  0  0
  188.9540  175.9770  143.1950 C   0  0  0  0  0  2  0  0  0  0  0  0
  188.0680  176.9770  143.7740 C   0  0  2  0  0  3  0  0  0  0  0  0
  188.6480  177.1910  142.4210 N   0  0  0  0  0  0  0  0  0  0  0  0
  188.7770  177.7080  144.9160 C   0  0  0  0  0  2  0  0  0  0  0  0
  189.6030  177.3520  147.0820 C   0  0  0  0  0  2  0  0  0  0  0  0
  188.5020  177.0310  146.1740 N   0  0  0  0  0  0  0  0  0  0  0  0
  187.5830  177.9930  148.1760 C   0  0  0  0  0  2  0  0  0  0  0  0
  189.0680  178.2220  148.2010 C   0  0  0  0  0  2  0  0  0  0  0  0
  187.2960  177.6390  146.7360 C   0  0  0  0  0  2  0  0  0  0  0  0
  1  4  2  0  0  0  0
  2  3  1  6  0  0  0
  2 11  1  0  0  0  0
  2  5  1  0  0  0  0
  4 45  1  0  0  0  0
  5  9  2  0  0  0  0
  5  1  1  0  0  0  0
  6 31  1  6  0  0  0
  6  7  1  0  0  0  0
  6 10  1  0  0  0  0
  7  2  1  0  0  0  0
  8  4  1  0  0  0  0
  9  8  1  0  0  0  0
 10  9  1  0  0  0  0
 11 12  1  0  0  0  0
 12 13  1  0  0  0  0
 13 14  2  0  0  0  0
 13 15  1  0  0  0  0
 16 15  1  0  0  0  0
 16 22  1  0  0  0  0
 18 16  1  0  0  0  0
 19 17  1  1  0  0  0
 19 18  1  0  0  0  0
 19 20  1  0  0  0  0
 20 25  1  6  0  0  0
 20 22  1  0  0  0  0
 22 21  2  0  0  0  0
 25 23  2  0  0  0  0
 25 24  2  0  0  0  0
 27 25  1  0  0  0  0
 28 27  1  0  0  0  0
 28 26  2  0  0  0  0
 29 28  1  0  0  0  0
 30 29  1  0  0  0  0
 31 32  1  0  0  0  0
 33 32  2  0  0  0  0
 34 37  1  0  0  0  0
 35 37  1  0  0  0  0
 35 42  1  0  0  0  0
 36 33  1  6  0  0  0
 36 44  1  0  0  0  0
 38 41  1  6  0  0  0
 38 34  1  0  0  0  0
 40 39  1  1  0  0  0
 40 41  1  0  0  0  0
 40 36  1  0  0  0  0
 43 44  1  1  0  0  0
 43 38  1  0  0  0  0
 43 35  1  0  0  0  0
 45 46  1  0  0  0  0
 46 49  1  0  0  0  0
 47 48  1  0  0  0  0
 48 50  1  1  0  0  0
 49 47  1  0  0  0  0
 49 48  1  0  0  0  0
 50 52  1  0  0  0  0
 51 54  1  0  0  0  0
 52 55  1  0  0  0  0
 52 51  1  0  0  0  0
 53 54  1  0  0  0  0
 55 53  1  0  0  0  0
M  END
>  <MODEL>
4

>  <REMARK>
 VINA RESULT:      -8.0      3.184      5.875
  Name = 
  16 active torsions:
  status: ('A' for Active; 'I' for Inactive)
    1  A    between atoms: C_1  and  C_6
    2  A    between atoms: C_1  and  C_46
    3  A    between atoms: C_9  and  C_22
    4  A    between atoms: C_10  and  C_13
    5  A    between atoms: C_10  and  C_46
    6  A    between atoms: C_11  and  C_32
    7  A    between atoms: C_13  and  N_15
    8  A    between atoms: C_14  and  C_43
    9  A    between atoms: N_17  and  C_30
   10  A    between atoms: C_22  and  C_41
   11  A    between atoms: C_26  and  C_30
   12  A    between atoms: N_28  and  S_54
   13  A    between atoms: C_31  and  C_40
   14  A    between atoms: C_36  and  S_54
   15  A    between atoms: N_39  and  C_40
   16  A    between atoms: C_41  and  N_53
                            x       y       z     vdW  Elec       q    Type
                         _______ _______ _______ _____ _____    ______ ____

>  <TORSDO>
F 16

$$$$
=
 OpenBabel11042411263D

 55 61  0  0  1  0  0  0  0  0999 V2000
  188.4800  177.6420  139.0810 C   0  0  0  0  0  3  0  0  0  0  0  0
  188.3320  176.7880  136.6180 C   0  0  2  0  0  0  0  0  0  0  0  0
  188.8870  177.8550  135.9270 F   0  0  0  0  0  0  0  0  0  0  0  0
  189.3850  177.2930  140.0830 C   0  0  0  0  0  0  0  0  0  0  0  0
  188.8390  176.8210  138.0300 C   0  0  0  0  0  0  0  0  0  0  0  0
  190.2380  175.0780  136.2320 C   0  0  2  0  0  3  0  0  0  0  0  0
  188.7670  175.4600  135.9560 C   0  0  0  0  0  2  0  0  0  0  0  0
  190.2180  176.3600  139.6810 O   0  0  0  0  0  0  0  0  0  0  0  0
  189.9090  176.0810  138.4450 C   0  0  0  0  0  0  0  0  0  0  0  0
  190.5560  175.1590  137.6280 O   0  0  0  0  0  0  0  0  0  0  0  0
  186.8040  176.8980  136.6050 C   0  0  0  0  0  2  0  0  0  0  0  0
  186.1050  175.5770  136.9280 C   0  0  0  0  0  2  0  0  0  0  0  0
  185.0060  175.2830  135.9590 C   0  0  0  0  0  0  0  0  0  0  0  0
  185.2330  175.2720  134.7600 O   0  0  0  0  0  0  0  0  0  0  0  0
  183.6340  174.9820  136.4640 C   0  0  0  0  0  2  0  0  0  0  0  0
  183.0110  176.1840  136.9910 N   0  0  0  0  0  0  0  0  0  0  0  0
  180.8680  178.6860  136.9340 O   0  0  0  0  0  1  0  0  0  0  0  0
  182.7200  177.3630  136.1970 C   0  0  0  0  0  2  0  0  0  0  0  0
  182.2130  178.4220  137.1870 C   0  0  2  0  0  3  0  0  0  0  0  0
  182.3610  177.8470  138.6030 C   0  0  1  0  0  3  0  0  0  0  0  0
  183.0030  175.6100  139.2670 O   0  0  0  0  0  0  0  0  0  0  0  0
  182.8210  176.4640  138.3590 C   0  0  0  0  0  0  0  0  0  0  0  0
  183.4550  180.2270  139.2040 O   0  0  0  0  0  0  0  0  0  0  0  0
  184.9700  178.2940  139.1030 O   0  0  0  0  0  0  0  0  0  0  0  0
  183.6010  178.7630  139.5060 S   0  0  0  0  0  0  0  0  0  0  0  0
  185.3150  179.6150  141.8480 O   0  0  0  0  0  0  0  0  0  0  0  0
  183.3690  178.4990  141.2010 N   0  0  0  0  0  2  0  0  0  0  0  0
  184.2920  178.9640  142.1840 C   0  0  0  0  0  0  0  0  0  0  0  0
  184.0210  178.7080  143.6230 C   0  0  0  0  0  2  0  0  0  0  0  0
  184.8100  179.5520  144.4040 O   0  0  0  0  0  1  0  0  0  0  0  0
  191.1870  175.9480  135.4150 C   0  0  0  0  0  2  0  0  0  0  0  0
  192.5240  175.8680  135.9420 N   0  0  0  0  0  0  0  0  0  0  0  0
  193.4340  175.2070  135.3230 C   0  0  0  0  0  3  0  0  0  0  0  0
  198.8360  174.3890  136.4600 C   0  0  0  0  0  2  0  0  0  0  0  0
  197.5090  172.4040  136.1670 N   0  0  0  0  0  0  0  0  0  0  0  0
  194.8120  175.1140  135.8900 C   0  0  2  0  0  3  0  0  0  0  0  0
  198.8610  172.8630  136.4600 C   0  0  0  0  0  2  0  0  0  0  0  0
  197.4350  174.7540  136.4250 N   0  0  1  0  0  0  0  0  0  0  0  0
  195.3740  177.4330  135.5470 O   0  0  0  0  0  1  0  0  0  0  0  0
  195.7560  176.1320  135.2110 C   0  0  1  0  0  3  0  0  0  0  0  0
  197.2450  175.9300  135.5780 C   0  0  0  0  0  2  0  0  0  0  0  0
  196.9480  171.9530  137.4350 C   0  0  0  0  0  1  0  0  0  0  0  0
  196.8490  173.6290  135.7230 C   0  0  2  0  0  3  0  0  0  0  0  0
  195.3200  173.6600  135.8000 C   0  0  0  0  0  2  0  0  0  0  0  0
  189.4290  177.8820  141.4550 C   0  0  0  0  0  2  0  0  0  0  0  0
  189.1750  176.8380  142.5350 C   0  0  0  0  0  2  0  0  0  0  0  0
  191.1090  177.7760  143.4790 C   0  0  0  0  0  2  0  0  0  0  0  0
  190.5120  177.0730  144.6060 C   0  0  2  0  0  3  0  0  0  0  0  0
  190.4160  176.5010  143.2360 N   0  0  0  0  0  0  0  0  0  0  0  0
  189.2690  177.8210  145.0940 C   0  0  0  0  0  2  0  0  0  0  0  0
  189.6230  177.2750  147.3480 C   0  0  0  0  0  2  0  0  0  0  0  0
  188.6920  177.1180  146.2300 N   0  0  0  0  0  0  0  0  0  0  0  0
  187.5010  178.0770  148.0840 C   0  0  0  0  0  2  0  0  0  0  0  0
  188.9680  178.1440  148.4020 C   0  0  0  0  0  2  0  0  0  0  0  0
  187.4650  177.8250  146.5950 C   0  0  0  0  0  2  0  0  0  0  0  0
  1  4  2  0  0  0  0
  2  3  1  6  0  0  0
  2  5  1  0  0  0  0
  4 45  1  0  0  0  0
  5  9  2  0  0  0  0
  5  1  1  0  0  0  0
  6 31  1  6  0  0  0
  6 10  1  0  0  0  0
  7  6  1  0  0  0  0
  7  2  1  0  0  0  0
  8  4  1  0  0  0  0
  9  8  1  0  0  0  0
 10  9  1  0  0  0  0
 11  2  1  0  0  0  0
 11 12  1  0  0  0  0
 13 15  1  0  0  0  0
 13 12  1  0  0  0  0
 14 13  2  0  0  0  0
 15 16  1  0  0  0  0
 16 22  1  0  0  0  0
 18 16  1  0  0  0  0
 18 19  1  0  0  0  0
 19 17  1  6  0  0  0
 19 20  1  0  0  0  0
 20 25  1  1  0  0  0
 22 20  1  0  0  0  0
 22 21  2  0  0  0  0
 23 25  2  0  0  0  0
 24 25  2  0  0  0  0
 25 27  1  0  0  0  0
 26 28  2  0  0  0  0
 27 28  1  0  0  0  0
 28 29  1  0  0  0  0
 29 30  1  0  0  0  0
 31 32  1  0  0  0  0
 33 32  2  0  0  0  0
 35 37  1  0  0  0  0
 35 42  1  0  0  0  0
 36 33  1  6  0  0  0
 37 34  1  0  0  0  0
 38 41  1  6  0  0  0
 38 34  1  0  0  0  0
 40 39  1  1  0  0  0
 40 41  1  0  0  0  0
 40 36  1  0  0  0  0
 43 44  1  1  0  0  0
 43 35  1  0  0  0  0
 43 38  1  0  0  0  0
 44 36  1  0  0  0  0
 45 46  1  0  0  0  0
 46 49  1  0  0  0  0
 47 48  1  0  0  0  0
 48 50  1  6  0  0  0
 49 47  1  0  0  0  0
 49 48  1  0  0  0  0
 50 52  1  0  0  0  0
 51 54  1  0  0  0  0
 52 55  1  0  0  0  0
 52 51  1  0  0  0  0
 53 54  1  0  0  0  0
 55 53  1  0  0  0  0
M  END
>  <MODEL>
5

>  <REMARK>
 VINA RESULT:      -7.9      3.770      6.799
  Name = 
  16 active torsions:
  status: ('A' for Active; 'I' for Inactive)
    1  A    between atoms: C_1  and  C_6
    2  A    between atoms: C_1  and  C_46
    3  A    between atoms: C_9  and  C_22
    4  A    between atoms: C_10  and  C_13
    5  A    between atoms: C_10  and  C_46
    6  A    between atoms: C_11  and  C_32
    7  A    between atoms: C_13  and  N_15
    8  A    between atoms: C_14  and  C_43
    9  A    between atoms: N_17  and  C_30
   10  A    between atoms: C_22  and  C_41
   11  A    between atoms: C_26  and  C_30
   12  A    between atoms: N_28  and  S_54
   13  A    between atoms: C_31  and  C_40
   14  A    between atoms: C_36  and  S_54
   15  A    between atoms: N_39  and  C_40
   16  A    between atoms: C_41  and  N_53
                            x       y       z     vdW  Elec       q    Type
                         _______ _______ _______ _____ _____    ______ ____

>  <TORSDO>
F 16

$$$$
=
 OpenBabel11042411263D

 55 61  0  0  1  0  0  0  0  0999 V2000
  188.6580  177.7730  139.0540 C   0  0  0  0  0  3  0  0  0  0  0  0
  188.6020  177.0190  136.5560 C   0  0  2  0  0  0  0  0  0  0  0  0
  189.2770  178.0620  135.9420 F   0  0  0  0  0  0  0  0  0  0  0  0
  189.4700  177.3220  140.0950 C   0  0  0  0  0  0  0  0  0  0  0  0
  189.0200  176.9640  137.9950 C   0  0  0  0  0  0  0  0  0  0  0  0
  190.3940  175.1800  136.2190 C   0  0  2  0  0  3  0  0  0  0  0  0
  188.9770  175.6850  135.8700 C   0  0  0  0  0  2  0  0  0  0  0  0
  190.2540  176.3420  139.7070 O   0  0  0  0  0  0  0  0  0  0  0  0
  190.0030  176.1300  138.4450 C   0  0  0  0  0  0  0  0  0  0  0  0
  190.6300  175.1890  137.6320 O   0  0  0  0  0  0  0  0  0  0  0  0
  187.0900  177.2470  136.4550 C   0  0  0  0  0  2  0  0  0  0  0  0
  186.2750  175.9700  136.6690 C   0  0  0  0  0  2  0  0  0  0  0  0
  184.8090  176.2240  136.5400 C   0  0  0  0  0  0  0  0  0  0  0  0
  184.3340  176.5510  135.4640 O   0  0  0  0  0  0  0  0  0  0  0  0
  183.9210  176.0570  137.7280 C   0  0  0  0  0  2  0  0  0  0  0  0
  183.6250  177.3460  138.3290 N   0  0  0  0  0  0  0  0  0  0  0  0
  184.1830  180.5360  138.9370 O   0  0  0  0  0  1  0  0  0  0  0  0
  184.6130  178.1820  138.9830 C   0  0  0  0  0  2  0  0  0  0  0  0
  183.8320  179.3570  139.5930 C   0  0  2  0  0  3  0  0  0  0  0  0
  182.3370  179.0830  139.3830 C   0  0  1  0  0  3  0  0  0  0  0  0
  181.2880  177.3110  138.1100 O   0  0  0  0  0  0  0  0  0  0  0  0
  182.3300  177.8500  138.5680 C   0  0  0  0  0  0  0  0  0  0  0  0
  180.9940  177.3940  140.9840 O   0  0  0  0  0  0  0  0  0  0  0  0
  180.4300  179.7790  141.1520 O   0  0  0  0  0  0  0  0  0  0  0  0
  181.5440  178.7910  140.9560 S   0  0  0  0  0  0  0  0  0  0  0  0
  181.1960  178.6240  143.9570 O   0  0  0  0  0  0  0  0  0  0  0  0
  182.7150  178.9750  142.2180 N   0  0  0  0  0  2  0  0  0  0  0  0
  182.3760  178.8760  143.6000 C   0  0  0  0  0  0  0  0  0  0  0  0
  183.4390  179.0340  144.6270 C   0  0  0  0  0  2  0  0  0  0  0  0
  184.5400  178.2510  144.2850 O   0  0  0  0  0  1  0  0  0  0  0  0
  191.4550  176.0020  135.4940 C   0  0  0  0  0  2  0  0  0  0  0  0
  192.7700  175.4860  135.7720 N   0  0  0  0  0  0  0  0  0  0  0  0
  193.1000  174.3010  135.4070 C   0  0  0  0  0  3  0  0  0  0  0  0
  198.0960  172.9430  137.4900 C   0  0  0  0  0  2  0  0  0  0  0  0
  197.8130  175.2440  136.8480 N   0  0  0  0  0  0  0  0  0  0  0  0
  194.4600  173.7690  135.7190 C   0  0  2  0  0  3  0  0  0  0  0  0
  198.7790  174.3050  137.4050 C   0  0  0  0  0  2  0  0  0  0  0  0
  196.8610  173.0810  136.7460 N   0  0  1  0  0  0  0  0  0  0  0  0
  193.7070  171.6050  136.4690 O   0  0  0  0  0  1  0  0  0  0  0  0
  194.3980  172.7490  136.8780 C   0  0  1  0  0  3  0  0  0  0  0  0
  195.7910  172.3370  137.4090 C   0  0  0  0  0  2  0  0  0  0  0  0
  198.2050  175.4560  135.4600 C   0  0  0  0  0  1  0  0  0  0  0  0
  196.5640  174.4900  136.9160 C   0  0  2  0  0  3  0  0  0  0  0  0
  195.4310  174.9370  135.9870 C   0  0  0  0  0  2  0  0  0  0  0  0
  189.4720  177.8580  141.4890 C   0  0  0  0  0  2  0  0  0  0  0  0
  189.2620  176.7610  142.5250 C   0  0  0  0  0  2  0  0  0  0  0  0
  191.2450  177.6720  143.3890 C   0  0  0  0  0  2  0  0  0  0  0  0
  190.6880  176.9730  144.5380 C   0  0  2  0  0  3  0  0  0  0  0  0
  190.5270  176.4060  143.1720 N   0  0  0  0  0  0  0  0  0  0  0  0
  189.4760  177.7350  145.0800 C   0  0  0  0  0  2  0  0  0  0  0  0
  189.7900  177.2820  147.3600 C   0  0  0  0  0  2  0  0  0  0  0  0
  188.9170  177.0170  146.2160 N   0  0  0  0  0  0  0  0  0  0  0  0
  187.5830  177.9230  147.9980 C   0  0  0  0  0  2  0  0  0  0  0  0
  189.0270  178.1210  148.3650 C   0  0  0  0  0  2  0  0  0  0  0  0
  187.6240  177.6290  146.5170 C   0  0  0  0  0  2  0  0  0  0  0  0
  1  4  2  0  0  0  0
  2  3  1  6  0  0  0
  2  5  1  0  0  0  0
  4 45  1  0  0  0  0
  5  9  2  0  0  0  0
  5  1  1  0  0  0  0
  6 31  1  6  0  0  0
  6 10  1  0  0  0  0
  7  6  1  0  0  0  0
  7  2  1  0  0  0  0
  8  4  1  0  0  0  0
  9  8  1  0  0  0  0
 10  9  1  0  0  0  0
 11  2  1  0  0  0  0
 11 12  1  0  0  0  0
 13 12  1  0  0  0  0
 13 15  1  0  0  0  0
 14 13  2  0  0  0  0
 15 16  1  0  0  0  0
 16 22  1  0  0  0  0
 16 18  1  0  0  0  0
 18 19  1  0  0  0  0
 19 17  1  6  0  0  0
 20 19  1  0  0  0  0
 20 25  1  1  0  0  0
 21 22  2  0  0  0  0
 22 20  1  0  0  0  0
 25 23  2  0  0  0  0
 25 24  2  0  0  0  0
 25 27  1  0  0  0  0
 27 28  1  0  0  0  0
 28 26  2  0  0  0  0
 28 29  1  0  0  0  0
 30 29  1  0  0  0  0
 31 32  1  0  0  0  0
 33 32  2  0  0  0  0
 35 43  1  0  0  0  0
 35 37  1  0  0  0  0
 36 33  1  1  0  0  0
 36 44  1  0  0  0  0
 36 40  1  0  0  0  0
 37 34  1  0  0  0  0
 38 43  1  0  0  0  0
 38 41  1  1  0  0  0
 38 34  1  0  0  0  0
 40 39  1  6  0  0  0
 40 41  1  0  0  0  0
 42 35  1  0  0  0  0
 43 44  1  6  0  0  0
 45 46  1  0  0  0  0
 46 49  1  0  0  0  0
 47 48  1  0  0  0  0
 48 50  1  6  0  0  0
 49 47  1  0  0  0  0
 49 48  1  0  0  0  0
 50 52  1  0  0  0  0
 51 54  1  0  0  0  0
 52 55  1  0  0  0  0
 52 51  1  0  0  0  0
 53 54  1  0  0  0  0
 55 53  1  0  0  0  0
M  END
>  <MODEL>
6

>  <REMARK>
 VINA RESULT:      -7.9      3.575      6.806
  Name = 
  16 active torsions:
  status: ('A' for Active; 'I' for Inactive)
    1  A    between atoms: C_1  and  C_6
    2  A    between atoms: C_1  and  C_46
    3  A    between atoms: C_9  and  C_22
    4  A    between atoms: C_10  and  C_13
    5  A    between atoms: C_10  and  C_46
    6  A    between atoms: C_11  and  C_32
    7  A    between atoms: C_13  and  N_15
    8  A    between atoms: C_14  and  C_43
    9  A    between atoms: N_17  and  C_30
   10  A    between atoms: C_22  and  C_41
   11  A    between atoms: C_26  and  C_30
   12  A    between atoms: N_28  and  S_54
   13  A    between atoms: C_31  and  C_40
   14  A    between atoms: C_36  and  S_54
   15  A    between atoms: N_39  and  C_40
   16  A    between atoms: C_41  and  N_53
                            x       y       z     vdW  Elec       q    Type
                         _______ _______ _______ _____ _____    ______ ____

>  <TORSDO>
F 16

$$$$
=
 OpenBabel11042411263D

 55 61  0  0  1  0  0  0  0  0999 V2000
  185.6320  178.5890  145.9020 C   0  0  0  0  0  3  0  0  0  0  0  0
  184.6760  179.0500  143.5170 C   0  0  2  0  0  0  0  0  0  0  0  0
  185.0810  180.3600  143.3110 F   0  0  0  0  0  0  0  0  0  0  0  0
  186.7670  177.8680  146.2750 C   0  0  0  0  0  0  0  0  0  0  0  0
  185.5880  178.4250  144.5320 C   0  0  0  0  0  0  0  0  0  0  0  0
  186.2290  177.9150  141.7830 C   0  0  2  0  0  3  0  0  0  0  0  0
  184.7800  178.2610  142.1920 C   0  0  0  0  0  2  0  0  0  0  0  0
  187.3590  177.3260  145.2350 O   0  0  0  0  0  0  0  0  0  0  0  0
  186.6680  177.6680  144.1820 C   0  0  0  0  0  0  0  0  0  0  0  0
  186.9600  177.3240  142.8650 O   0  0  0  0  0  0  0  0  0  0  0  0
  183.2300  179.0270  144.0230 C   0  0  0  0  0  2  0  0  0  0  0  0
  182.1990  179.0200  142.8940 C   0  0  0  0  0  2  0  0  0  0  0  0
  180.8150  178.8060  143.4130 C   0  0  0  0  0  0  0  0  0  0  0  0
  180.6410  178.4010  144.5520 O   0  0  0  0  0  0  0  0  0  0  0  0
  179.6420  179.1090  142.5410 C   0  0  0  0  0  2  0  0  0  0  0  0
  179.6950  178.3190  141.3230 N   0  0  0  0  0  0  0  0  0  0  0  0
  178.9460  175.7290  139.4280 O   0  0  0  0  0  1  0  0  0  0  0  0
  179.9000  176.8830  141.2950 C   0  0  0  0  0  2  0  0  0  0  0  0
  180.0370  176.5070  139.8120 C   0  0  2  0  0  3  0  0  0  0  0  0
  180.0460  177.8080  138.9980 C   0  0  1  0  0  3  0  0  0  0  0  0
  179.6520  180.0710  139.7620 O   0  0  0  0  0  0  0  0  0  0  0  0
  179.7920  178.8460  140.0190 C   0  0  0  0  0  0  0  0  0  0  0  0
  182.5710  178.6920  139.2510 O   0  0  0  0  0  0  0  0  0  0  0  0
  181.5180  178.9320  137.0430 O   0  0  0  0  0  0  0  0  0  0  0  0
  181.6500  178.0510  138.2520 S   0  0  0  0  0  0  0  0  0  0  0  0
  183.8150  177.3840  136.2460 O   0  0  0  0  0  0  0  0  0  0  0  0
  182.2900  176.5110  137.7840 N   0  0  0  0  0  2  0  0  0  0  0  0
  183.3140  176.3720  136.8020 C   0  0  0  0  0  0  0  0  0  0  0  0
  183.8220  175.0170  136.4590 C   0  0  0  0  0  2  0  0  0  0  0  0
  184.4340  174.4520  137.5770 O   0  0  0  0  0  1  0  0  0  0  0  0
  186.9530  179.1490  141.2570 C   0  0  0  0  0  2  0  0  0  0  0  0
  187.8560  178.7890  140.1960 N   0  0  0  0  0  0  0  0  0  0  0  0
  187.5070  177.9420  139.2970 C   0  0  0  0  0  3  0  0  0  0  0  0
  190.9010  175.4770  135.6150 C   0  0  0  0  0  2  0  0  0  0  0  0
  191.5710  175.3400  137.9210 N   0  0  0  0  0  0  0  0  0  0  0  0
  188.4600  177.5610  138.2120 C   0  0  2  0  0  3  0  0  0  0  0  0
  191.9660  174.9530  136.5730 C   0  0  0  0  0  2  0  0  0  0  0  0
  190.0720  176.3640  136.4050 N   0  0  1  0  0  0  0  0  0  0  0  0
  186.8710  177.7620  136.4100 O   0  0  0  0  0  1  0  0  0  0  0  0
  187.7190  176.8570  137.0530 C   0  0  1  0  0  3  0  0  0  0  0  0
  188.6710  176.2260  136.0090 C   0  0  0  0  0  2  0  0  0  0  0  0
  192.4260  176.4630  138.2900 C   0  0  0  0  0  1  0  0  0  0  0  0
  190.1940  175.7890  137.7300 C   0  0  2  0  0  3  0  0  0  0  0  0
  189.6120  176.7200  138.7980 C   0  0  0  0  0  2  0  0  0  0  0  0
  187.2720  177.7060  147.6710 C   0  0  0  0  0  2  0  0  0  0  0  0
  188.5910  176.9440  147.7180 C   0  0  0  0  0  2  0  0  0  0  0  0
  190.9360  177.0300  147.7600 C   0  0  0  0  0  2  0  0  0  0  0  0
  190.6150  177.6730  146.4940 C   0  0  2  0  0  3  0  0  0  0  0  0
  189.7280  177.8660  147.6720 N   0  0  0  0  0  0  0  0  0  0  0  0
  190.1430  176.6310  145.4790 C   0  0  0  0  0  2  0  0  0  0  0  0
  190.4980  175.9130  143.2740 C   0  0  0  0  0  2  0  0  0  0  0  0
  191.1680  176.4390  144.4630 N   0  0  0  0  0  0  0  0  0  0  0  0
  191.6690  177.8820  142.6080 C   0  0  0  0  0  2  0  0  0  0  0  0
  190.5570  176.9650  142.1830 C   0  0  0  0  0  2  0  0  0  0  0  0
  191.6800  177.7630  144.1140 C   0  0  0  0  0  2  0  0  0  0  0  0
  1  4  2  0  0  0  0
  2  3  1  6  0  0  0
  2 11  1  0  0  0  0
  2  5  1  0  0  0  0
  4 45  1  0  0  0  0
  5  1  1  0  0  0  0
  6 31  1  1  0  0  0
  6  7  1  0  0  0  0
  6 10  1  0  0  0  0
  7  2  1  0  0  0  0
  8  4  1  0  0  0  0
  9  5  2  0  0  0  0
  9  8  1  0  0  0  0
 10  9  1  0  0  0  0
 12 13  1  0  0  0  0
 12 11  1  0  0  0  0
 13 14  2  0  0  0  0
 15 13  1  0  0  0  0
 16 15  1  0  0  0  0
 18 16  1  0  0  0  0
 19 17  1  6  0  0  0
 19 18  1  0  0  0  0
 20 25  1  1  0  0  0
 20 19  1  0  0  0  0
 20 22  1  0  0  0  0
 21 22  2  0  0  0  0
 22 16  1  0  0  0  0
 24 25  2  0  0  0  0
 25 23  2  0  0  0  0
 26 28  2  0  0  0  0
 27 25  1  0  0  0  0
 28 27  1  0  0  0  0
 29 28  1  0  0  0  0
 29 30  1  0  0  0  0
 32 31  1  0  0  0  0
 33 32  2  0  0  0  0
 34 37  1  0  0  0  0
 35 42  1  0  0  0  0
 36 44  1  0  0  0  0
 36 33  1  1  0  0  0
 37 35  1  0  0  0  0
 38 34  1  6  0  0  0
 38 43  1  0  0  0  0
 40 39  1  6  0  0  0
 40 36  1  0  0  0  0
 41 38  1  0  0  0  0
 41 40  1  0  0  0  0
 43 35  1  0  0  0  0
 43 44  1  1  0  0  0
 45 46  1  0  0  0  0
 48 50  1  6  0  0  0
 48 49  1  0  0  0  0
 48 47  1  0  0  0  0
 49 46  1  0  0  0  0
 49 47  1  0  0  0  0
 51 52  1  0  0  0  0
 52 50  1  0  0  0  0
 53 55  1  0  0  0  0
 54 53  1  0  0  0  0
 54 51  1  0  0  0  0
 55 52  1  0  0  0  0
M  END
>  <MODEL>
7

>  <REMARK>
 VINA RESULT:      -7.8      1.660      2.470
  Name = 
  16 active torsions:
  status: ('A' for Active; 'I' for Inactive)
    1  A    between atoms: C_1  and  C_6
    2  A    between atoms: C_1  and  C_46
    3  A    between atoms: C_9  and  C_22
    4  A    between atoms: C_10  and  C_13
    5  A    between atoms: C_10  and  C_46
    6  A    between atoms: C_11  and  C_32
    7  A    between atoms: C_13  and  N_15
    8  A    between atoms: C_14  and  C_43
    9  A    between atoms: N_17  and  C_30
   10  A    between atoms: C_22  and  C_41
   11  A    between atoms: C_26  and  C_30
   12  A    between atoms: N_28  and  S_54
   13  A    between atoms: C_31  and  C_40
   14  A    between atoms: C_36  and  S_54
   15  A    between atoms: N_39  and  C_40
   16  A    between atoms: C_41  and  N_53
                            x       y       z     vdW  Elec       q    Type
                         _______ _______ _______ _____ _____    ______ ____

>  <TORSDO>
F 16

$$$$
=
 OpenBabel11042411263D

 55 61  0  0  1  0  0  0  0  0999 V2000
  189.8350  177.9880  139.0270 C   0  0  0  0  0  3  0  0  0  0  0  0
  188.8120  177.3920  136.7010 C   0  0  2  0  0  0  0  0  0  0  0  0
  189.6820  178.0490  135.8450 F   0  0  0  0  0  0  0  0  0  0  0  0
  190.6160  177.2030  139.8760 C   0  0  0  0  0  0  0  0  0  0  0  0
  189.5260  177.1260  137.9930 C   0  0  0  0  0  0  0  0  0  0  0  0
  189.4890  174.9630  136.1110 C   0  0  2  0  0  3  0  0  0  0  0  0
  188.3870  176.0440  136.0730 C   0  0  0  0  0  2  0  0  0  0  0  0
  190.7740  175.9880  139.4030 O   0  0  0  0  0  0  0  0  0  0  0  0
  190.1370  175.9360  138.2650 C   0  0  0  0  0  0  0  0  0  0  0  0
  190.0650  174.8350  137.4170 O   0  0  0  0  0  0  0  0  0  0  0  0
  187.5750  178.2600  136.9520 C   0  0  0  0  0  2  0  0  0  0  0  0
  186.4580  177.5150  137.6840 C   0  0  0  0  0  2  0  0  0  0  0  0
  185.8190  178.3700  138.7300 C   0  0  0  0  0  0  0  0  0  0  0  0
  186.4170  178.6240  139.7640 O   0  0  0  0  0  0  0  0  0  0  0  0
  184.4550  178.9300  138.4990 C   0  0  0  0  0  2  0  0  0  0  0  0
  183.4480  177.8910  138.6370 N   0  0  0  0  0  0  0  0  0  0  0  0
  182.0770  174.9750  137.9510 O   0  0  0  0  0  1  0  0  0  0  0  0
  182.8320  177.2040  137.5180 C   0  0  0  0  0  2  0  0  0  0  0  0
  181.7350  176.3150  138.1230 C   0  0  2  0  0  3  0  0  0  0  0  0
  181.6530  176.6300  139.6230 C   0  0  1  0  0  3  0  0  0  0  0  0
  183.1020  178.0400  140.9530 O   0  0  0  0  0  0  0  0  0  0  0  0
  182.7680  177.5770  139.8310 C   0  0  0  0  0  0  0  0  0  0  0  0
  178.9720  176.5870  139.4400 O   0  0  0  0  0  0  0  0  0  0  0  0
  180.0610  178.7900  139.3850 O   0  0  0  0  0  0  0  0  0  0  0  0
  180.0930  177.4180  139.9960 S   0  0  0  0  0  0  0  0  0  0  0  0
  180.4320  179.8170  141.8070 O   0  0  0  0  0  0  0  0  0  0  0  0
  179.9230  177.5400  141.7140 N   0  0  0  0  0  2  0  0  0  0  0  0
  180.1330  178.7600  142.4220 C   0  0  0  0  0  0  0  0  0  0  0  0
  179.9570  178.7910  143.8980 C   0  0  0  0  0  2  0  0  0  0  0  0
  179.6940  177.5030  144.3630 O   0  0  0  0  0  1  0  0  0  0  0  0
  190.5700  175.2540  135.0750 C   0  0  0  0  0  2  0  0  0  0  0  0
  191.8780  175.0610  135.6430 N   0  0  0  0  0  0  0  0  0  0  0  0
  192.7430  176.0080  135.6340 C   0  0  0  0  0  3  0  0  0  0  0  0
  197.9640  174.5040  136.9100 C   0  0  0  0  0  2  0  0  0  0  0  0
  196.3100  172.7600  137.0140 N   0  0  0  0  0  0  0  0  0  0  0  0
  194.1040  175.7900  136.2070 C   0  0  2  0  0  3  0  0  0  0  0  0
  197.7290  173.0270  137.2110 C   0  0  0  0  0  2  0  0  0  0  0  0
  196.6450  175.0930  136.8030 N   0  0  1  0  0  0  0  0  0  0  0  0
  195.0390  177.8660  135.4130 O   0  0  0  0  0  1  0  0  0  0  0  0
  195.1830  176.4780  135.3410 C   0  0  1  0  0  3  0  0  0  0  0  0
  196.6280  176.0970  135.7410 C   0  0  0  0  0  2  0  0  0  0  0  0
  195.7240  172.6690  138.3460 C   0  0  0  0  0  1  0  0  0  0  0  0
  195.8530  173.9720  136.3380 C   0  0  2  0  0  3  0  0  0  0  0  0
  194.3540  174.2810  136.4060 C   0  0  0  0  0  2  0  0  0  0  0  0
  191.2110  177.6530  141.1700 C   0  0  0  0  0  2  0  0  0  0  0  0
  190.6710  176.8600  142.3550 C   0  0  0  0  0  2  0  0  0  0  0  0
  191.5030  178.0430  144.2030 C   0  0  0  0  0  2  0  0  0  0  0  0
  191.0640  176.7880  144.7980 C   0  0  2  0  0  3  0  0  0  0  0  0
  191.6580  176.7980  143.4340 N   0  0  0  0  0  0  0  0  0  0  0  0
  189.5360  176.7370  144.8480 C   0  0  0  0  0  2  0  0  0  0  0  0
  187.6840  178.1540  145.1080 C   0  0  0  0  0  2  0  0  0  0  0  0
  189.0330  177.8770  145.6010 N   0  0  0  0  0  0  0  0  0  0  0  0
  187.5190  177.8370  147.4670 C   0  0  0  0  0  2  0  0  0  0  0  0
  186.6940  177.8360  146.2110 C   0  0  0  0  0  2  0  0  0  0  0  0
  188.9000  177.4470  146.9930 C   0  0  0  0  0  2  0  0  0  0  0  0
  1  4  2  0  0  0  0
  2  3  1  6  0  0  0
  2 11  1  0  0  0  0
  2  5  1  0  0  0  0
  4 45  1  0  0  0  0
  5  9  2  0  0  0  0
  5  1  1  0  0  0  0
  6 31  1  6  0  0  0
  6 10  1  0  0  0  0
  7  6  1  0  0  0  0
  7  2  1  0  0  0  0
  8  4  1  0  0  0  0
  9  8  1  0  0  0  0
 10  9  1  0  0  0  0
 11 12  1  0  0  0  0
 12 13  1  0  0  0  0
 13 14  2  0  0  0  0
 15 16  1  0  0  0  0
 15 13  1  0  0  0  0
 16 22  1  0  0  0  0
 18 19  1  0  0  0  0
 18 16  1  0  0  0  0
 19 17  1  1  0  0  0
 19 20  1  0  0  0  0
 20 22  1  0  0  0  0
 20 25  1  6  0  0  0
 22 21  2  0  0  0  0
 23 25  2  0  0  0  0
 24 25  2  0  0  0  0
 25 27  1  0  0  0  0
 26 28  2  0  0  0  0
 27 28  1  0  0  0  0
 28 29  1  0  0  0  0
 29 30  1  0  0  0  0
 31 32  1  0  0  0  0
 33 32  2  0  0  0  0
 34 37  1  0  0  0  0
 35 37  1  0  0  0  0
 35 42  1  0  0  0  0
 36 33  1  6  0  0  0
 36 44  1  0  0  0  0
 38 41  1  6  0  0  0
 38 34  1  0  0  0  0
 40 39  1  1  0  0  0
 40 41  1  0  0  0  0
 40 36  1  0  0  0  0
 43 44  1  1  0  0  0
 43 38  1  0  0  0  0
 43 35  1  0  0  0  0
 45 46  1  0  0  0  0
 46 49  1  0  0  0  0
 47 48  1  0  0  0  0
 48 50  1  6  0  0  0
 49 47  1  0  0  0  0
 49 48  1  0  0  0  0
 50 52  1  0  0  0  0
 51 52  1  0  0  0  0
 51 54  1  0  0  0  0
 52 55  1  0  0  0  0
 54 53  1  0  0  0  0
 55 53  1  0  0  0  0
M  END
>  <MODEL>
8

>  <REMARK>
 VINA RESULT:      -7.7      3.217      6.338
  Name = 
  16 active torsions:
  status: ('A' for Active; 'I' for Inactive)
    1  A    between atoms: C_1  and  C_6
    2  A    between atoms: C_1  and  C_46
    3  A    between atoms: C_9  and  C_22
    4  A    between atoms: C_10  and  C_13
    5  A    between atoms: C_10  and  C_46
    6  A    between atoms: C_11  and  C_32
    7  A    between atoms: C_13  and  N_15
    8  A    between atoms: C_14  and  C_43
    9  A    between atoms: N_17  and  C_30
   10  A    between atoms: C_22  and  C_41
   11  A    between atoms: C_26  and  C_30
   12  A    between atoms: N_28  and  S_54
   13  A    between atoms: C_31  and  C_40
   14  A    between atoms: C_36  and  S_54
   15  A    between atoms: N_39  and  C_40
   16  A    between atoms: C_41  and  N_53
                            x       y       z     vdW  Elec       q    Type
                         _______ _______ _______ _____ _____    ______ ____

>  <TORSDO>
F 16

$$$$
=
 OpenBabel11042411263D

 55 61  0  0  1  0  0  0  0  0999 V2000
  189.4980  178.2530  142.4540 C   0  0  0  0  0  3  0  0  0  0  0  0
  188.5180  178.1500  140.0370 C   0  0  2  0  0  0  0  0  0  0  0  0
  189.0840  179.2790  139.4660 F   0  0  0  0  0  0  0  0  0  0  0  0
  190.5400  177.5160  143.0170 C   0  0  0  0  0  0  0  0  0  0  0  0
  189.3770  177.7170  141.1870 C   0  0  0  0  0  0  0  0  0  0  0  0
  189.8350  176.3670  138.6980 C   0  0  2  0  0  3  0  0  0  0  0  0
  188.4620  177.0130  138.9910 C   0  0  0  0  0  2  0  0  0  0  0  0
  191.0130  176.6260  142.1740 O   0  0  0  0  0  0  0  0  0  0  0  0
  190.3330  176.7490  141.0680 C   0  0  0  0  0  0  0  0  0  0  0  0
  190.5240  176.0110  139.9030 O   0  0  0  0  0  0  0  0  0  0  0  0
  187.1030  178.4710  140.5290 C   0  0  0  0  0  2  0  0  0  0  0  0
  186.0910  178.6200  139.3920 C   0  0  0  0  0  2  0  0  0  0  0  0
  184.7200  178.9160  139.9080 C   0  0  0  0  0  0  0  0  0  0  0  0
  184.3650  178.4790  140.9920 O   0  0  0  0  0  0  0  0  0  0  0  0
  183.7930  179.7660  139.1050 C   0  0  0  0  0  2  0  0  0  0  0  0
  182.5320  179.0780  138.8880 N   0  0  0  0  0  0  0  0  0  0  0  0
  179.2550  178.9100  138.5890 O   0  0  0  0  0  1  0  0  0  0  0  0
  181.3440  179.2870  139.6930 C   0  0  0  0  0  2  0  0  0  0  0  0
  180.3180  178.2530  139.2060 C   0  0  2  0  0  3  0  0  0  0  0  0
  181.0180  177.3460  138.1850 C   0  0  1  0  0  3  0  0  0  0  0  0
  183.2330  177.5670  137.2340 O   0  0  0  0  0  0  0  0  0  0  0  0
  182.3520  177.9650  138.0410 C   0  0  0  0  0  0  0  0  0  0  0  0
  179.8790  175.3000  139.5030 O   0  0  0  0  0  0  0  0  0  0  0  0
  182.2880  175.6450  139.8430 O   0  0  0  0  0  0  0  0  0  0  0  0
  181.1700  175.6920  138.8420 S   0  0  0  0  0  0  0  0  0  0  0  0
  183.7990  174.4820  137.9620 O   0  0  0  0  0  0  0  0  0  0  0  0
  181.5050  174.6000  137.5410 N   0  0  0  0  0  2  0  0  0  0  0  0
  182.8210  174.1310  137.2530 C   0  0  0  0  0  0  0  0  0  0  0  0
  183.0300  173.1850  136.1250 C   0  0  0  0  0  2  0  0  0  0  0  0
  184.3910  173.1030  135.8320 O   0  0  0  0  0  1  0  0  0  0  0  0
  190.6960  177.2900  137.8420 C   0  0  0  0  0  2  0  0  0  0  0  0
  191.8610  176.5930  137.3640 N   0  0  0  0  0  0  0  0  0  0  0  0
  191.7430  175.5430  136.6350 C   0  0  0  0  0  3  0  0  0  0  0  0
  196.6120  172.9090  135.9300 C   0  0  0  0  0  2  0  0  0  0  0  0
  196.7500  175.2310  136.5420 N   0  0  0  0  0  0  0  0  0  0  0  0
  192.9580  174.8160  136.1620 C   0  0  2  0  0  3  0  0  0  0  0  0
  197.5640  174.0640  136.2270 C   0  0  0  0  0  2  0  0  0  0  0  0
  195.2970  173.5060  135.8280 N   0  0  1  0  0  0  0  0  0  0  0  0
  191.9220  172.6410  136.0730 O   0  0  0  0  0  1  0  0  0  0  0  0
  192.9600  173.3580  136.6730 C   0  0  1  0  0  3  0  0  0  0  0  0
  194.2960  172.6200  136.4210 C   0  0  0  0  0  2  0  0  0  0  0  0
  196.7910  176.0860  135.3610 C   0  0  0  0  0  1  0  0  0  0  0  0
  195.4190  174.6530  136.7070 C   0  0  2  0  0  3  0  0  0  0  0  0
  194.2260  175.6010  136.5560 C   0  0  0  0  0  2  0  0  0  0  0  0
  191.0750  177.6860  144.4010 C   0  0  0  0  0  2  0  0  0  0  0  0
  189.9710  177.9740  145.4100 C   0  0  0  0  0  2  0  0  0  0  0  0
  189.8270  177.4530  147.6940 C   0  0  0  0  0  2  0  0  0  0  0  0
  188.5780  176.9240  147.1670 C   0  0  2  0  0  3  0  0  0  0  0  0
  189.8180  176.8590  146.3480 N   0  0  0  0  0  0  0  0  0  0  0  0
  187.6240  178.0700  146.8250 C   0  0  0  0  0  2  0  0  0  0  0  0
  185.3210  178.4500  146.5900 C   0  0  0  0  0  2  0  0  0  0  0  0
  186.4040  177.5320  146.2400 N   0  0  0  0  0  0  0  0  0  0  0  0
  185.3240  178.2420  144.2140 C   0  0  0  0  0  2  0  0  0  0  0  0
  184.8360  179.1290  145.3240 C   0  0  0  0  0  2  0  0  0  0  0  0
  186.5620  177.5920  144.7870 C   0  0  0  0  0  2  0  0  0  0  0  0
  1  4  2  0  0  0  0
  2  3  1  6  0  0  0
  2 11  1  0  0  0  0
  2  5  1  0  0  0  0
  4 45  1  0  0  0  0
  5  1  1  0  0  0  0
  6 31  1  1  0  0  0
  6  7  1  0  0  0  0
  6 10  1  0  0  0  0
  7  2  1  0  0  0  0
  8  4  1  0  0  0  0
  9  5  2  0  0  0  0
  9  8  1  0  0  0  0
 10  9  1  0  0  0  0
 12 13  1  0  0  0  0
 12 11  1  0  0  0  0
 13 14  2  0  0  0  0
 15 13  1  0  0  0  0
 16 15  1  0  0  0  0
 16 18  1  0  0  0  0
 19 17  1  6  0  0  0
 19 18  1  0  0  0  0
 20 25  1  1  0  0  0
 20 19  1  0  0  0  0
 21 22  2  0  0  0  0
 22 20  1  0  0  0  0
 22 16  1  0  0  0  0
 25 23  2  0  0  0  0
 25 24  2  0  0  0  0
 27 25  1  0  0  0  0
 28 27  1  0  0  0  0
 28 26  2  0  0  0  0
 29 28  1  0  0  0  0
 30 29  1  0  0  0  0
 32 31  1  0  0  0  0
 33 32  2  0  0  0  0
 34 37  1  0  0  0  0
 35 43  1  0  0  0  0
 36 44  1  0  0  0  0
 36 33  1  1  0  0  0
 36 40  1  0  0  0  0
 37 35  1  0  0  0  0
 38 34  1  1  0  0  0
 38 41  1  0  0  0  0
 38 43  1  0  0  0  0
 40 39  1  6  0  0  0
 41 40  1  0  0  0  0
 42 35  1  0  0  0  0
 43 44  1  6  0  0  0
 45 46  1  0  0  0  0
 46 49  1  0  0  0  0
 48 50  1  6  0  0  0
 48 47  1  0  0  0  0
 49 48  1  0  0  0  0
 49 47  1  0  0  0  0
 52 51  1  0  0  0  0
 52 50  1  0  0  0  0
 53 55  1  0  0  0  0
 53 54  1  0  0  0  0
 54 51  1  0  0  0  0
 55 52  1  0  0  0  0
M  END
>  <MODEL>
9

>  <REMARK>
 VINA RESULT:      -7.7      3.403      5.666
  Name = 
  16 active torsions:
  status: ('A' for Active; 'I' for Inactive)
    1  A    between atoms: C_1  and  C_6
    2  A    between atoms: C_1  and  C_46
    3  A    between atoms: C_9  and  C_22
    4  A    between atoms: C_10  and  C_13
    5  A    between atoms: C_10  and  C_46
    6  A    between atoms: C_11  and  C_32
    7  A    between atoms: C_13  and  N_15
    8  A    between atoms: C_14  and  C_43
    9  A    between atoms: N_17  and  C_30
   10  A    between atoms: C_22  and  C_41
   11  A    between atoms: C_26  and  C_30
   12  A    between atoms: N_28  and  S_54
   13  A    between atoms: C_31  and  C_40
   14  A    between atoms: C_36  and  S_54
   15  A    between atoms: N_39  and  C_40
   16  A    between atoms: C_41  and  N_53
                            x       y       z     vdW  Elec       q    Type
                         _______ _______ _______ _____ _____    ______ ____

>  <TORSDO>
F 16

$$$$
