=
 OpenBabel11042411583D

 28 33  0  0  1  0  0  0  0  0999 V2000
  183.8140  178.8370  145.4370 O   0  0  0  0  0  1  0  0  0  0  0  0
  181.4160  178.9800  136.8560 C   0  0  0  0  0  2  0  0  0  0  0  0
  181.6940  179.0830  142.4920 C   0  0  0  0  0  0  0  0  0  0  0  0
  180.5310  175.0400  138.7710 C   0  0  0  0  0  0  0  0  0  0  0  0
  183.3740  178.8000  144.1210 C   0  0  0  0  0  0  0  0  0  0  0  0
  181.5220  178.8900  140.5460 C   0  0  1  0  0  0  0  0  0  0  0  0
  181.6230  177.2070  138.5600 C   0  0  0  0  0  0  0  0  0  0  0  0
  181.1580  180.3640  137.4500 C   0  0  2  0  0  3  0  0  0  0  0  0
  182.0320  179.1520  143.8290 C   0  0  0  0  0  3  0  0  0  0  0  0
  180.0800  175.3870  140.0410 C   0  0  0  0  0  3  0  0  0  0  0  0
  180.3930  176.6350  140.5750 C   0  0  0  0  0  3  0  0  0  0  0  0
  183.9060  178.3440  141.7280 C   0  0  0  0  0  3  0  0  0  0  0  0
  180.7150  180.2790  138.9030 C   0  0  0  0  0  2  0  0  0  0  0  0
  180.2120  173.7940  138.2460 O   0  0  0  0  0  1  0  0  0  0  0  0
  181.1530  177.5710  139.8520 C   0  0  0  0  0  0  0  0  0  0  0  0
  181.7360  175.5830  136.7570 O   0  0  0  0  0  1  0  0  0  0  0  0
  182.3920  178.1610  137.6940 C   0  0  0  0  0  2  0  0  0  0  0  0
  181.2990  175.9440  138.0280 C   0  0  0  0  0  0  0  0  0  0  0  0
  184.2880  178.4060  143.0910 C   0  0  0  0  0  3  0  0  0  0  0  0
  180.5890  179.2760  141.5520 N   0  0  0  0  0  2  0  0  0  0  0  0
  182.5920  178.6940  141.4840 C   0  0  0  0  0  0  0  0  0  0  0  0
  181.8340  179.9750  139.6950 O   0  0  0  0  0  0  0  0  0  0  0  0
  180.0900  181.0800  136.6450 C   0  0  0  0  0  2  0  0  0  0  0  0
  180.8210  183.0630  135.6310 C   0  0  1  0  0  3  0  0  0  0  0  0
  180.1950  182.5160  136.8430 N   0  0  0  0  0  0  0  0  0  0  0  0
  179.4540  184.6540  135.9400 C   0  0  0  0  0  2  0  0  0  0  0  0
  179.3710  183.1480  135.8020 C   0  0  1  0  0  3  0  0  0  0  0  0
  180.9480  184.5660  135.7640 C   0  0  0  0  0  2  0  0  0  0  0  0
  2  8  1  0  0  0  0
  2 17  1  0  0  0  0
  3  9  1  0  0  0  0
  4 10  1  0  0  0  0
  5  1  1  0  0  0  0
  6 22  1  6  0  0  0
  6 21  1  0  0  0  0
  6 20  1  0  0  0  0
  7 15  2  0  0  0  0
  8 23  1  6  0  0  0
  8 13  1  0  0  0  0
  9  5  2  0  0  0  0
 10 11  2  0  0  0  0
 12 19  2  0  0  0  0
 13 22  1  0  0  0  0
 14  4  1  0  0  0  0
 15  6  1  0  0  0  0
 15 11  1  0  0  0  0
 16 18  1  0  0  0  0
 17  7  1  0  0  0  0
 18  7  1  0  0  0  0
 18  4  2  0  0  0  0
 19  5  1  0  0  0  0
 20  3  1  0  0  0  0
 21 12  1  0  0  0  0
 21  3  2  0  0  0  0
 23 25  1  0  0  0  0
 24 28  1  1  0  0  0
 24 27  1  0  0  0  0
 24 25  1  0  0  0  0
 27 26  1  1  0  0  0
 27 25  1  0  0  0  0
 28 26  1  0  0  0  0
M  END
>  <MODEL>
1

>  <REMARK>
 VINA RESULT:      -7.0      0.000      0.000
  Name = 
  2 active torsions:
  status: ('A' for Active; 'I' for Inactive)
    1  A    between atoms: N_3  and  C_10
    2  A    between atoms: C_10  and  C_12
                            x       y       z     vdW  Elec       q    Type
                         _______ _______ _______ _____ _____    ______ ____

>  <TORSDO>
F 2

$$$$
=
 OpenBabel11042411583D

 28 33  0  0  1  0  0  0  0  0999 V2000
  190.2450  177.3010  136.4300 O   0  0  0  0  0  1  0  0  0  0  0  0
  186.5610  177.4770  144.5420 C   0  0  0  0  0  2  0  0  0  0  0  0
  188.9350  178.6280  139.5520 C   0  0  0  0  0  0  0  0  0  0  0  0
  191.0080  177.8870  144.7190 C   0  0  0  0  0  0  0  0  0  0  0  0
  189.7400  177.3820  137.7200 C   0  0  0  0  0  0  0  0  0  0  0  0
  188.2630  178.2660  141.3610 C   0  0  1  0  0  0  0  0  0  0  0  0
  188.8750  177.2990  143.7010 C   0  0  0  0  0  0  0  0  0  0  0  0
  185.6160  178.1820  143.5690 C   0  0  2  0  0  3  0  0  0  0  0  0
  189.4310  178.6550  138.2640 C   0  0  0  0  0  3  0  0  0  0  0  0
  191.3050  178.7030  143.6320 C   0  0  0  0  0  3  0  0  0  0  0  0
  190.3980  178.8240  142.5820 C   0  0  0  0  0  3  0  0  0  0  0  0
  189.0350  176.1880  139.7920 C   0  0  0  0  0  3  0  0  0  0  0  0
  186.3790  178.9380  142.4920 C   0  0  0  0  0  2  0  0  0  0  0  0
  191.9190  177.7740  145.7620 O   0  0  0  0  0  1  0  0  0  0  0  0
  189.1680  178.1430  142.5950 C   0  0  0  0  0  0  0  0  0  0  0  0
  189.5140  176.3780  145.8570 O   0  0  0  0  0  1  0  0  0  0  0  0
  187.5650  176.5780  143.8280 C   0  0  0  0  0  2  0  0  0  0  0  0
  189.7980  177.1860  144.7590 C   0  0  0  0  0  0  0  0  0  0  0  0
  189.5450  176.1780  138.4710 C   0  0  0  0  0  3  0  0  0  0  0  0
  188.4560  179.4810  140.6410 N   0  0  0  0  0  2  0  0  0  0  0  0
  188.7450  177.4450  140.2870 C   0  0  0  0  0  0  0  0  0  0  0  0
  186.8890  178.0100  141.5700 O   0  0  0  0  0  0  0  0  0  0  0  0
  184.7280  179.1530  144.3260 C   0  0  0  0  0  2  0  0  0  0  0  0
  183.0380  178.3520  142.9120 C   0  0  1  0  0  3  0  0  0  0  0  0
  183.6210  179.5740  143.4840 N   0  0  0  0  0  0  0  0  0  0  0  0
  181.2070  179.3780  143.2180 C   0  0  0  0  0  2  0  0  0  0  0  0
  182.4030  178.9910  144.0640 C   0  0  1  0  0  3  0  0  0  0  0  0
  181.8620  178.7180  142.0320 C   0  0  0  0  0  2  0  0  0  0  0  0
  1  5  1  0  0  0  0
  3 21  1  0  0  0  0
  3 20  1  0  0  0  0
  4 18  1  0  0  0  0
  4 14  1  0  0  0  0
  5  9  1  0  0  0  0
  5 19  2  0  0  0  0
  6 21  1  6  0  0  0
  6 22  1  0  0  0  0
  6 15  1  0  0  0  0
  7 17  1  0  0  0  0
  7 18  2  0  0  0  0
  8 23  1  1  0  0  0
  8  2  1  0  0  0  0
  9  3  2  0  0  0  0
 10  4  2  0  0  0  0
 11 15  2  0  0  0  0
 11 10  1  0  0  0  0
 12 21  2  0  0  0  0
 13  8  1  0  0  0  0
 15  7  1  0  0  0  0
 17  2  1  0  0  0  0
 18 16  1  0  0  0  0
 19 12  1  0  0  0  0
 20  6  1  0  0  0  0
 22 13  1  0  0  0  0
 24 28  1  6  0  0  0
 24 25  1  0  0  0  0
 24 27  1  0  0  0  0
 25 27  1  0  0  0  0
 25 23  1  0  0  0  0
 27 26  1  6  0  0  0
 28 26  1  0  0  0  0
M  END
>  <MODEL>
2

>  <REMARK>
 VINA RESULT:      -6.3      5.293      9.274
  Name = 
  2 active torsions:
  status: ('A' for Active; 'I' for Inactive)
    1  A    between atoms: N_3  and  C_10
    2  A    between atoms: C_10  and  C_12
                            x       y       z     vdW  Elec       q    Type
                         _______ _______ _______ _____ _____    ______ ____

>  <TORSDO>
F 2

$$$$
=
 OpenBabel11042411583D

 28 33  0  0  1  0  0  0  0  0999 V2000
  178.9550  182.1010  140.1960 O   0  0  0  0  0  1  0  0  0  0  0  0
  185.1840  176.3660  137.4170 C   0  0  0  0  0  2  0  0  0  0  0  0
  181.0220  179.1110  140.0620 C   0  0  0  0  0  0  0  0  0  0  0  0
  186.5550  178.7380  140.9480 C   0  0  0  0  0  0  0  0  0  0  0  0
  179.9550  181.2020  139.8490 C   0  0  0  0  0  0  0  0  0  0  0  0
  182.5710  178.1940  139.2790 C   0  0  1  0  0  0  0  0  0  0  0  0
  185.1610  178.2500  139.0110 C   0  0  0  0  0  0  0  0  0  0  0  0
  183.8130  175.7160  137.2290 C   0  0  2  0  0  3  0  0  0  0  0  0
  179.9900  179.9300  140.4750 C   0  0  0  0  0  3  0  0  0  0  0  0
  185.4190  178.8200  141.7480 C   0  0  0  0  0  3  0  0  0  0  0  0
  184.1590  178.6190  141.1920 C   0  0  0  0  0  3  0  0  0  0  0  0
  181.9730  180.7160  138.4680 C   0  0  0  0  0  3  0  0  0  0  0  0
  182.8430  176.1190  138.3290 C   0  0  0  0  0  2  0  0  0  0  0  0
  187.8090  178.9390  141.5120 O   0  0  0  0  0  1  0  0  0  0  0  0
  184.0000  178.3190  139.8280 C   0  0  0  0  0  0  0  0  0  0  0  0
  187.5790  178.3680  138.7990 O   0  0  0  0  0  1  0  0  0  0  0  0
  185.0930  177.8810  137.5580 C   0  0  0  0  0  2  0  0  0  0  0  0
  186.4320  178.4530  139.5840 C   0  0  0  0  0  0  0  0  0  0  0  0
  180.9260  181.5830  138.8680 C   0  0  0  0  0  3  0  0  0  0  0  0
  181.6230  177.7920  140.2650 N   0  0  0  0  0  2  0  0  0  0  0  0
  181.9740  179.4880  139.1000 C   0  0  0  0  0  0  0  0  0  0  0  0
  182.4240  177.4390  138.0930 O   0  0  0  0  0  0  0  0  0  0  0  0
  183.9560  174.2050  137.2210 C   0  0  0  0  0  2  0  0  0  0  0  0
  185.8840  172.9240  137.5940 C   0  0  1  0  0  3  0  0  0  0  0  0
  185.2320  173.8290  136.6360 N   0  0  0  0  0  0  0  0  0  0  0  0
  186.5050  171.9110  135.8380 C   0  0  0  0  0  2  0  0  0  0  0  0
  185.1910  172.3730  136.4300 C   0  0  1  0  0  3  0  0  0  0  0  0
  187.2200  172.4780  137.0370 C   0  0  0  0  0  2  0  0  0  0  0  0
  2 17  1  0  0  0  0
  3 20  1  0  0  0  0
  3  9  1  0  0  0  0
  4 14  1  0  0  0  0
  4 10  1  0  0  0  0
  5  1  1  0  0  0  0
  5  9  2  0  0  0  0
  6 22  1  6  0  0  0
  6 15  1  0  0  0  0
  6 20  1  0  0  0  0
  7 18  1  0  0  0  0
  7 15  2  0  0  0  0
  8 23  1  1  0  0  0
  8  2  1  0  0  0  0
  8 13  1  0  0  0  0
 11 10  2  0  0  0  0
 12 19  2  0  0  0  0
 12 21  1  0  0  0  0
 15 11  1  0  0  0  0
 16 18  1  0  0  0  0
 17  7  1  0  0  0  0
 18  4  2  0  0  0  0
 19  5  1  0  0  0  0
 21  6  1  0  0  0  0
 21  3  2  0  0  0  0
 22 13  1  0  0  0  0
 24 28  1  6  0  0  0
 25 23  1  0  0  0  0
 25 24  1  0  0  0  0
 26 28  1  0  0  0  0
 27 26  1  6  0  0  0
 27 25  1  0  0  0  0
 27 24  1  0  0  0  0
M  END
>  <MODEL>
3

>  <REMARK>
 VINA RESULT:      -6.1      3.832      7.179
  Name = 
  2 active torsions:
  status: ('A' for Active; 'I' for Inactive)
    1  A    between atoms: N_3  and  C_10
    2  A    between atoms: C_10  and  C_12
                            x       y       z     vdW  Elec       q    Type
                         _______ _______ _______ _____ _____    ______ ____

>  <TORSDO>
F 2

$$$$
=
 OpenBabel11042411583D

 28 33  0  0  1  0  0  0  0  0999 V2000
  183.7670  179.3330  145.3040 O   0  0  0  0  0  1  0  0  0  0  0  0
  180.2870  176.6820  137.5400 C   0  0  0  0  0  2  0  0  0  0  0  0
  183.5750  178.4030  141.7940 C   0  0  0  0  0  0  0  0  0  0  0  0
  180.8710  181.1110  137.6830 C   0  0  0  0  0  0  0  0  0  0  0  0
  183.2670  178.9910  144.0550 C   0  0  0  0  0  0  0  0  0  0  0  0
  182.4460  177.9660  140.2490 C   0  0  1  0  0  0  0  0  0  0  0  0
  180.6280  178.8760  138.6190 C   0  0  0  0  0  0  0  0  0  0  0  0
  181.2730  175.6140  138.0160 C   0  0  2  0  0  3  0  0  0  0  0  0
  184.1720  178.7350  142.9940 C   0  0  0  0  0  3  0  0  0  0  0  0
  182.0850  181.2600  138.3460 C   0  0  0  0  0  3  0  0  0  0  0  0
  182.5760  180.2290  139.1420 C   0  0  0  0  0  3  0  0  0  0  0  0
  181.2710  178.5640  142.6230 C   0  0  0  0  0  3  0  0  0  0  0  0
  182.4590  176.2280  138.7450 C   0  0  0  0  0  2  0  0  0  0  0  0
  180.3900  182.1460  136.8900 O   0  0  0  0  0  1  0  0  0  0  0  0
  181.8750  179.0190  139.2870 C   0  0  0  0  0  0  0  0  0  0  0  0
  178.9310  179.7890  137.1390 O   0  0  0  0  0  1  0  0  0  0  0  0
  179.8380  177.6010  138.6710 C   0  0  0  0  0  2  0  0  0  0  0  0
  180.1410  179.9240  137.8150 C   0  0  0  0  0  0  0  0  0  0  0  0
  181.8490  178.9060  143.8710 C   0  0  0  0  0  3  0  0  0  0  0  0
  183.8600  178.0520  140.4020 N   0  0  0  0  0  2  0  0  0  0  0  0
  182.1830  178.3220  141.6150 C   0  0  0  0  0  0  0  0  0  0  0  0
  182.0380  176.6310  140.0220 O   0  0  0  0  0  0  0  0  0  0  0  0
  181.7780  174.8150  136.8290 C   0  0  0  0  0  2  0  0  0  0  0  0
  182.2840  172.5480  136.5140 C   0  0  1  0  0  3  0  0  0  0  0  0
  182.6500  173.7450  137.2840 N   0  0  0  0  0  0  0  0  0  0  0  0
  184.3760  172.2010  136.5280 C   0  0  0  0  0  2  0  0  0  0  0  0
  183.4550  173.3340  136.1250 C   0  0  1  0  0  3  0  0  0  0  0  0
  183.1700  171.3920  136.9290 C   0  0  0  0  0  2  0  0  0  0  0  0
  2  8  1  0  0  0  0
  2 17  1  0  0  0  0
  3  9  1  0  0  0  0
  4 18  2  0  0  0  0
  4 10  1  0  0  0  0
  5  1  1  0  0  0  0
  6 15  1  6  0  0  0
  6 20  1  0  0  0  0
  6 21  1  0  0  0  0
  7 17  1  0  0  0  0
  7 15  2  0  0  0  0
  8 23  1  6  0  0  0
  8 13  1  0  0  0  0
  9  5  2  0  0  0  0
 10 11  2  0  0  0  0
 11 15  1  0  0  0  0
 12 19  2  0  0  0  0
 13 22  1  0  0  0  0
 14  4  1  0  0  0  0
 16 18  1  0  0  0  0
 18  7  1  0  0  0  0
 19  5  1  0  0  0  0
 20  3  1  0  0  0  0
 21  3  2  0  0  0  0
 21 12  1  0  0  0  0
 22  6  1  0  0  0  0
 23 25  1  0  0  0  0
 24 28  1  1  0  0  0
 24 25  1  0  0  0  0
 26 28  1  0  0  0  0
 27 24  1  0  0  0  0
 27 26  1  1  0  0  0
 27 25  1  0  0  0  0
M  END
>  <MODEL>
4

>  <REMARK>
 VINA RESULT:      -6.0      2.746      6.097
  Name = 
  2 active torsions:
  status: ('A' for Active; 'I' for Inactive)
    1  A    between atoms: N_3  and  C_10
    2  A    between atoms: C_10  and  C_12
                            x       y       z     vdW  Elec       q    Type
                         _______ _______ _______ _____ _____    ______ ____

>  <TORSDO>
F 2

$$$$
=
 OpenBabel11042411583D

 28 33  0  0  1  0  0  0  0  0999 V2000
  188.2570  178.8470  140.2620 O   0  0  0  0  0  1  0  0  0  0  0  0
  179.5330  177.0740  140.6590 C   0  0  0  0  0  2  0  0  0  0  0  0
  184.8860  178.0480  139.1570 C   0  0  0  0  0  0  0  0  0  0  0  0
  180.3230  181.3090  139.4690 C   0  0  0  0  0  0  0  0  0  0  0  0
  186.8860  178.6340  140.2590 C   0  0  0  0  0  0  0  0  0  0  0  0
  182.9860  177.8670  139.6130 C   0  0  1  0  0  0  0  0  0  0  0  0
  180.8660  179.1390  140.4340 C   0  0  0  0  0  0  0  0  0  0  0  0
  180.2540  175.8290  140.1420 C   0  0  2  0  0  3  0  0  0  0  0  0
  186.2500  178.2350  139.0550 C   0  0  0  0  0  3  0  0  0  0  0  0
  181.4250  181.2110  138.6230 C   0  0  0  0  0  3  0  0  0  0  0  0
  182.2460  180.0880  138.6750 C   0  0  0  0  0  3  0  0  0  0  0  0
  184.7460  178.6220  141.5380 C   0  0  0  0  0  3  0  0  0  0  0  0
  181.4490  176.1910  139.2730 C   0  0  0  0  0  2  0  0  0  0  0  0
  179.5090  182.4330  139.4090 O   0  0  0  0  0  1  0  0  0  0  0  0
  181.9840  179.0290  139.5620 C   0  0  0  0  0  0  0  0  0  0  0  0
  178.9310  180.3890  141.2060 O   0  0  0  0  0  1  0  0  0  0  0  0
  180.4770  178.0360  141.3730 C   0  0  0  0  0  2  0  0  0  0  0  0
  180.0400  180.2780  140.3720 C   0  0  0  0  0  0  0  0  0  0  0  0
  186.1470  178.8220  141.4710 C   0  0  0  0  0  3  0  0  0  0  0  0
  183.6940  177.6810  138.3900 N   0  0  0  0  0  2  0  0  0  0  0  0
  184.1630  178.2350  140.3470 C   0  0  0  0  0  0  0  0  0  0  0  0
  182.4880  176.6380  140.1060 O   0  0  0  0  0  0  0  0  0  0  0  0
  179.2940  174.9750  139.3350 C   0  0  0  0  0  2  0  0  0  0  0  0
  179.8660  172.9320  138.3390 C   0  0  1  0  0  3  0  0  0  0  0  0
  179.9830  174.3910  138.1970 N   0  0  0  0  0  0  0  0  0  0  0  0
  179.6330  172.9930  136.2320 C   0  0  0  0  0  2  0  0  0  0  0  0
  178.9730  173.6480  137.4270 C   0  0  1  0  0  3  0  0  0  0  0  0
  180.5530  172.2560  137.1710 C   0  0  0  0  0  2  0  0  0  0  0  0
  2 17  1  0  0  0  0
  3 21  1  0  0  0  0
  4 18  1  0  0  0  0
  5  1  1  0  0  0  0
  5 19  2  0  0  0  0
  6 20  1  6  0  0  0
  6 22  1  0  0  0  0
  6 21  1  0  0  0  0
  7 17  1  0  0  0  0
  8 23  1  6  0  0  0
  8  2  1  0  0  0  0
  9  3  2  0  0  0  0
  9  5  1  0  0  0  0
 10 11  1  0  0  0  0
 10  4  2  0  0  0  0
 11 15  2  0  0  0  0
 13 22  1  0  0  0  0
 13  8  1  0  0  0  0
 14  4  1  0  0  0  0
 15  6  1  0  0  0  0
 15  7  1  0  0  0  0
 18  7  2  0  0  0  0
 18 16  1  0  0  0  0
 19 12  1  0  0  0  0
 20  3  1  0  0  0  0
 21 12  2  0  0  0  0
 24 28  1  6  0  0  0
 25 24  1  0  0  0  0
 25 23  1  0  0  0  0
 26 28  1  0  0  0  0
 27 26  1  6  0  0  0
 27 25  1  0  0  0  0
 27 24  1  0  0  0  0
M  END
>  <MODEL>
5

>  <REMARK>
 VINA RESULT:      -5.5      3.072      6.377
  Name = 
  2 active torsions:
  status: ('A' for Active; 'I' for Inactive)
    1  A    between atoms: N_3  and  C_10
    2  A    between atoms: C_10  and  C_12
                            x       y       z     vdW  Elec       q    Type
                         _______ _______ _______ _____ _____    ______ ____

>  <TORSDO>
F 2

$$$$
=
 OpenBabel11042411583D

 28 33  0  0  1  0  0  0  0  0999 V2000
  192.4300  176.7530  146.7960 O   0  0  0  0  0  1  0  0  0  0  0  0
  186.2320  179.1400  140.8550 C   0  0  0  0  0  2  0  0  0  0  0  0
  189.6880  176.4620  144.4250 C   0  0  0  0  0  0  0  0  0  0  0  0
  189.8440  177.3910  138.8880 C   0  0  0  0  0  0  0  0  0  0  0  0
  191.4950  177.0580  145.8160 C   0  0  0  0  0  0  0  0  0  0  0  0
  188.5780  177.3210  143.0530 C   0  0  1  0  0  0  0  0  0  0  0  0
  188.5920  178.4350  140.6970 C   0  0  0  0  0  0  0  0  0  0  0  0
  185.5240  178.6110  142.1030 C   0  0  2  0  0  3  0  0  0  0  0  0
  190.5760  176.0590  145.4020 C   0  0  0  0  0  3  0  0  0  0  0  0
  190.2060  176.3480  139.7350 C   0  0  0  0  0  3  0  0  0  0  0  0
  189.7680  176.3400  141.0570 C   0  0  0  0  0  3  0  0  0  0  0  0
  190.5560  178.7510  144.2450 C   0  0  0  0  0  3  0  0  0  0  0  0
  186.3040  177.4800  142.7550 C   0  0  0  0  0  2  0  0  0  0  0  0
  190.2850  177.3890  137.5700 O   0  0  0  0  0  1  0  0  0  0  0  0
  188.9480  177.3640  141.5630 C   0  0  0  0  0  0  0  0  0  0  0  0
  188.6800  179.4640  138.4980 O   0  0  0  0  0  1  0  0  0  0  0  0
  187.6770  179.5410  141.1330 C   0  0  0  0  0  2  0  0  0  0  0  0
  189.0390  178.4320  139.3610 C   0  0  0  0  0  0  0  0  0  0  0  0
  191.4820  178.3720  145.2480 C   0  0  0  0  0  3  0  0  0  0  0  0
  188.5740  176.0030  143.5940 N   0  0  0  0  0  2  0  0  0  0  0  0
  189.6780  177.7520  143.8680 C   0  0  0  0  0  0  0  0  0  0  0  0
  187.4110  178.0280  143.4240 O   0  0  0  0  0  0  0  0  0  0  0  0
  184.1380  178.1130  141.7370 C   0  0  0  0  0  2  0  0  0  0  0  0
  183.0460  177.6450  139.7160 C   0  0  1  0  0  3  0  0  0  0  0  0
  183.7100  178.7100  140.4820 N   0  0  0  0  0  0  0  0  0  0  0  0
  181.7310  179.2100  139.1530 C   0  0  0  0  0  2  0  0  0  0  0  0
  182.2430  178.6220  140.4510 C   0  0  1  0  0  3  0  0  0  0  0  0
  182.5590  178.2040  138.3960 C   0  0  0  0  0  2  0  0  0  0  0  0
  2 17  1  0  0  0  0
  2  8  1  0  0  0  0
  3  9  1  0  0  0  0
  4 18  2  0  0  0  0
  4 10  1  0  0  0  0
  5  1  1  0  0  0  0
  6 15  1  6  0  0  0
  6 22  1  0  0  0  0
  6 20  1  0  0  0  0
  6 21  1  0  0  0  0
  7 17  1  0  0  0  0
  7 15  2  0  0  0  0
  8 23  1  6  0  0  0
  8 13  1  0  0  0  0
  9  5  2  0  0  0  0
 10 11  2  0  0  0  0
 11 15  1  0  0  0  0
 12 19  2  0  0  0  0
 13 22  1  0  0  0  0
 14  4  1  0  0  0  0
 16 18  1  0  0  0  0
 18  7  1  0  0  0  0
 19  5  1  0  0  0  0
 20  3  1  0  0  0  0
 21 12  1  0  0  0  0
 21  3  2  0  0  0  0
 24 28  1  6  0  0  0
 24 27  1  0  0  0  0
 24 25  1  0  0  0  0
 25 23  1  0  0  0  0
 27 26  1  6  0  0  0
 27 25  1  0  0  0  0
 28 26  1  0  0  0  0
M  END
>  <MODEL>
6

>  <REMARK>
 VINA RESULT:      -5.5      5.524      7.972
  Name = 
  2 active torsions:
  status: ('A' for Active; 'I' for Inactive)
    1  A    between atoms: N_3  and  C_10
    2  A    between atoms: C_10  and  C_12
                            x       y       z     vdW  Elec       q    Type
                         _______ _______ _______ _____ _____    ______ ____

>  <TORSDO>
F 2

$$$$
=
 OpenBabel11042411583D

 28 33  0  0  1  0  0  0  0  0999 V2000
  190.4490  178.2840  144.5090 O   0  0  0  0  0  1  0  0  0  0  0  0
  190.1220  174.4500  136.4710 C   0  0  0  0  0  2  0  0  0  0  0  0
  191.2310  177.5960  141.0250 C   0  0  0  0  0  0  0  0  0  0  0  0
  187.8960  178.3250  136.5640 C   0  0  0  0  0  0  0  0  0  0  0  0
  190.3920  177.7700  143.2210 C   0  0  0  0  0  0  0  0  0  0  0  0
  190.7660  176.6420  139.3730 C   0  0  1  0  0  0  0  0  0  0  0  0
  188.9530  176.3520  137.5250 C   0  0  0  0  0  0  0  0  0  0  0  0
  191.4950  174.1690  137.0830 C   0  0  2  0  0  3  0  0  0  0  0  0
  191.3750  178.1620  142.2760 C   0  0  0  0  0  3  0  0  0  0  0  0
  188.6960  179.1430  137.3570 C   0  0  0  0  0  3  0  0  0  0  0  0
  189.6220  178.5780  138.2300 C   0  0  0  0  0  3  0  0  0  0  0  0
  189.2240  176.2970  141.5820 C   0  0  0  0  0  3  0  0  0  0  0  0
  191.9840  175.3370  137.9260 C   0  0  0  0  0  2  0  0  0  0  0  0
  186.9760  178.8990  135.6950 O   0  0  0  0  0  1  0  0  0  0  0  0
  189.7820  177.1840  138.3260 C   0  0  0  0  0  0  0  0  0  0  0  0
  187.2180  176.1300  135.8380 O   0  0  0  0  0  1  0  0  0  0  0  0
  189.0920  174.8580  137.5190 C   0  0  0  0  0  2  0  0  0  0  0  0
  188.0210  176.9340  136.6430 C   0  0  0  0  0  0  0  0  0  0  0  0
  189.3430  176.8580  142.8780 C   0  0  0  0  0  3  0  0  0  0  0  0
  191.8160  177.5550  139.6830 N   0  0  0  0  0  2  0  0  0  0  0  0
  190.1990  176.7020  140.6910 C   0  0  0  0  0  0  0  0  0  0  0  0
  191.2730  175.3440  139.1360 O   0  0  0  0  0  0  0  0  0  0  0  0
  192.5020  173.8930  135.9820 C   0  0  0  0  0  2  0  0  0  0  0  0
  194.5890  173.0300  136.6120 C   0  0  1  0  0  3  0  0  0  0  0  0
  193.8340  174.2770  136.4190 N   0  0  0  0  0  0  0  0  0  0  0  0
  196.1850  174.1590  135.7920 C   0  0  0  0  0  2  0  0  0  0  0  0
  194.7690  173.8080  135.3860 C   0  0  1  0  0  3  0  0  0  0  0  0
  195.9990  173.3580  137.0540 C   0  0  0  0  0  2  0  0  0  0  0  0
  2  8  1  0  0  0  0
  2 17  1  0  0  0  0
  3  9  1  0  0  0  0
  4 18  2  0  0  0  0
  4 10  1  0  0  0  0
  5  1  1  0  0  0  0
  6 15  1  6  0  0  0
  6 20  1  0  0  0  0
  6 21  1  0  0  0  0
  7 15  2  0  0  0  0
  8 23  1  6  0  0  0
  8 13  1  0  0  0  0
  9  5  2  0  0  0  0
 10 11  2  0  0  0  0
 11 15  1  0  0  0  0
 12 19  2  0  0  0  0
 13 22  1  0  0  0  0
 14  4  1  0  0  0  0
 16 18  1  0  0  0  0
 17  7  1  0  0  0  0
 18  7  1  0  0  0  0
 19  5  1  0  0  0  0
 20  3  1  0  0  0  0
 21  3  2  0  0  0  0
 21 12  1  0  0  0  0
 22  6  1  0  0  0  0
 23 25  1  0  0  0  0
 24 28  1  1  0  0  0
 25 24  1  0  0  0  0
 26 28  1  0  0  0  0
 27 26  1  1  0  0  0
 27 25  1  0  0  0  0
 27 24  1  0  0  0  0
M  END
>  <MODEL>
7

>  <REMARK>
 VINA RESULT:      -5.3      9.061     11.276
  Name = 
  2 active torsions:
  status: ('A' for Active; 'I' for Inactive)
    1  A    between atoms: N_3  and  C_10
    2  A    between atoms: C_10  and  C_12
                            x       y       z     vdW  Elec       q    Type
                         _______ _______ _______ _____ _____    ______ ____

>  <TORSDO>
F 2

$$$$
=
 OpenBabel11042411583D

 28 33  0  0  1  0  0  0  0  0999 V2000
  184.9010  177.4930  135.6970 O   0  0  0  0  0  1  0  0  0  0  0  0
  193.0500  173.9130  135.2620 C   0  0  0  0  0  2  0  0  0  0  0  0
  187.7120  175.3120  136.4490 C   0  0  0  0  0  0  0  0  0  0  0  0
  192.6560  176.7550  138.6890 C   0  0  0  0  0  0  0  0  0  0  0  0
  186.1760  176.9440  135.7200 C   0  0  0  0  0  0  0  0  0  0  0  0
  189.6130  174.9000  136.1880 C   0  0  1  0  0  0  0  0  0  0  0  0
  192.0450  175.7630  136.5500 C   0  0  0  0  0  0  0  0  0  0  0  0
  192.0350  172.8540  134.8320 C   0  0  2  0  0  3  0  0  0  0  0  0
  186.4130  175.7790  136.4930 C   0  0  0  0  0  3  0  0  0  0  0  0
  191.3750  176.5090  139.1730 C   0  0  0  0  0  3  0  0  0  0  0  0
  190.4280  175.8930  138.3580 C   0  0  0  0  0  3  0  0  0  0  0  0
  188.5420  177.0620  134.9420 C   0  0  0  0  0  3  0  0  0  0  0  0
  190.7300  172.9780  135.6040 C   0  0  0  0  0  2  0  0  0  0  0  0
  193.5940  177.3700  139.5100 O   0  0  0  0  0  1  0  0  0  0  0  0
  190.7380  175.4970  137.0460 C   0  0  0  0  0  0  0  0  0  0  0  0
  194.2840  176.6330  136.9160 O   0  0  0  0  0  1  0  0  0  0  0  0
  192.4820  175.3260  135.1830 C   0  0  0  0  0  2  0  0  0  0  0  0
  192.9960  176.3840  137.3830 C   0  0  0  0  0  0  0  0  0  0  0  0
  187.2190  177.5690  134.9630 C   0  0  0  0  0  3  0  0  0  0  0  0
  188.5970  174.2630  136.9580 N   0  0  0  0  0  2  0  0  0  0  0  0
  188.7340  175.9270  135.7070 C   0  0  0  0  0  0  0  0  0  0  0  0
  190.0210  174.0840  135.1080 O   0  0  0  0  0  0  0  0  0  0  0  0
  192.6130  171.4680  135.0510 C   0  0  0  0  0  2  0  0  0  0  0  0
  193.9290  170.1430  136.4690 C   0  0  1  0  0  3  0  0  0  0  0  0
  193.6860  171.5250  136.0300 N   0  0  0  0  0  0  0  0  0  0  0  0
  195.9590  170.7590  136.4580 C   0  0  0  0  0  2  0  0  0  0  0  0
  194.8090  170.7560  135.4730 C   0  0  1  0  0  3  0  0  0  0  0  0
  195.0530  170.1280  137.4830 C   0  0  0  0  0  2  0  0  0  0  0  0
  1  5  1  0  0  0  0
  3  9  1  0  0  0  0
  3 20  1  0  0  0  0
  4 10  1  0  0  0  0
  4 14  1  0  0  0  0
  5  9  2  0  0  0  0
  6 22  1  6  0  0  0
  6 20  1  0  0  0  0
  6 15  1  0  0  0  0
  7 15  2  0  0  0  0
  7 18  1  0  0  0  0
  8 23  1  1  0  0  0
  8  2  1  0  0  0  0
  8 13  1  0  0  0  0
 11 10  2  0  0  0  0
 12 19  2  0  0  0  0
 12 21  1  0  0  0  0
 15 11  1  0  0  0  0
 16 18  1  0  0  0  0
 17  2  1  0  0  0  0
 17  7  1  0  0  0  0
 18  4  2  0  0  0  0
 19  5  1  0  0  0  0
 21  6  1  0  0  0  0
 21  3  2  0  0  0  0
 22 13  1  0  0  0  0
 23 25  1  0  0  0  0
 24 28  1  1  0  0  0
 25 24  1  0  0  0  0
 26 28  1  0  0  0  0
 27 25  1  0  0  0  0
 27 26  1  1  0  0  0
 27 24  1  0  0  0  0
M  END
>  <MODEL>
8

>  <REMARK>
 VINA RESULT:      -5.1     10.369     13.080
  Name = 
  2 active torsions:
  status: ('A' for Active; 'I' for Inactive)
    1  A    between atoms: N_3  and  C_10
    2  A    between atoms: C_10  and  C_12
                            x       y       z     vdW  Elec       q    Type
                         _______ _______ _______ _____ _____    ______ ____

>  <TORSDO>
F 2

$$$$
=
 OpenBabel11042411583D

 28 33  0  0  1  0  0  0  0  0999 V2000
  185.7630  177.2740  134.6500 O   0  0  0  0  0  1  0  0  0  0  0  0
  193.9100  175.0930  137.5270 C   0  0  0  0  0  2  0  0  0  0  0  0
  188.3950  175.4600  136.3830 C   0  0  0  0  0  0  0  0  0  0  0  0
  191.5710  177.2830  140.6420 C   0  0  0  0  0  0  0  0  0  0  0  0
  186.9980  176.9300  135.1830 C   0  0  0  0  0  0  0  0  0  0  0  0
  190.2750  175.3880  136.9430 C   0  0  1  0  0  0  0  0  0  0  0  0
  192.1100  176.5480  138.3840 C   0  0  0  0  0  0  0  0  0  0  0  0
  193.4020  173.9690  136.6230 C   0  0  2  0  0  3  0  0  0  0  0  0
  187.1280  175.7100  135.8950 C   0  0  0  0  0  3  0  0  0  0  0  0
  190.2830  176.7720  140.5050 C   0  0  0  0  0  3  0  0  0  0  0  0
  189.9030  176.1500  139.3180 C   0  0  0  0  0  3  0  0  0  0  0  0
  189.3950  177.5260  135.5170 C   0  0  0  0  0  3  0  0  0  0  0  0
  191.9000  173.7730  136.7610 C   0  0  0  0  0  2  0  0  0  0  0  0
  191.9410  177.9000  141.8310 O   0  0  0  0  0  1  0  0  0  0  0  0
  190.8000  176.0120  138.2440 C   0  0  0  0  0  0  0  0  0  0  0  0
  193.7710  177.6830  139.7460 O   0  0  0  0  0  1  0  0  0  0  0  0
  193.1500  176.3980  137.3130 C   0  0  0  0  0  2  0  0  0  0  0  0
  192.4850  177.1730  139.5890 C   0  0  0  0  0  0  0  0  0  0  0  0
  188.1080  177.8150  135.0000 C   0  0  0  0  0  3  0  0  0  0  0  0
  189.1850  174.4930  137.1480 N   0  0  0  0  0  2  0  0  0  0  0  0
  189.4830  176.3310  136.2040 C   0  0  0  0  0  0  0  0  0  0  0  0
  191.2480  174.8200  136.0890 O   0  0  0  0  0  0  0  0  0  0  0  0
  194.1080  172.6710  136.9690 C   0  0  0  0  0  2  0  0  0  0  0  0
  196.4060  172.3790  137.3290 C   0  0  1  0  0  3  0  0  0  0  0  0
  195.3910  172.6060  136.2900 N   0  0  0  0  0  0  0  0  0  0  0  0
  197.2780  171.1270  135.8560 C   0  0  0  0  0  2  0  0  0  0  0  0
  195.9250  171.2560  136.5240 C   0  0  1  0  0  3  0  0  0  0  0  0
  197.7730  172.2840  136.6860 C   0  0  0  0  0  2  0  0  0  0  0  0
  1  5  1  0  0  0  0
  3 20  1  0  0  0  0
  4 14  1  0  0  0  0
  5  9  1  0  0  0  0
  6 22  1  6  0  0  0
  6 20  1  0  0  0  0
  6 15  1  0  0  0  0
  7 18  1  0  0  0  0
  8 13  1  0  0  0  0
  8 23  1  1  0  0  0
  8  2  1  0  0  0  0
  9  3  2  0  0  0  0
 10  4  1  0  0  0  0
 11 10  2  0  0  0  0
 12 21  2  0  0  0  0
 15  7  2  0  0  0  0
 15 11  1  0  0  0  0
 17  2  1  0  0  0  0
 17  7  1  0  0  0  0
 18 16  1  0  0  0  0
 18  4  2  0  0  0  0
 19  5  2  0  0  0  0
 19 12  1  0  0  0  0
 21  3  1  0  0  0  0
 21  6  1  0  0  0  0
 22 13  1  0  0  0  0
 24 28  1  6  0  0  0
 25 27  1  0  0  0  0
 25 23  1  0  0  0  0
 25 24  1  0  0  0  0
 26 28  1  0  0  0  0
 27 26  1  6  0  0  0
 27 24  1  0  0  0  0
M  END
>  <MODEL>
9

>  <REMARK>
 VINA RESULT:      -5.1     10.408     13.291
  Name = 
  2 active torsions:
  status: ('A' for Active; 'I' for Inactive)
    1  A    between atoms: N_3  and  C_10
    2  A    between atoms: C_10  and  C_12
                            x       y       z     vdW  Elec       q    Type
                         _______ _______ _______ _____ _____    ______ ____

>  <TORSDO>
F 2

$$$$
