=
 OpenBabel11042412243D

 60 71  0  0  1  0  0  0  0  0999 V2000
  184.6610  176.7520  136.4180 N   0  0  0  0  0  0  0  0  0  0  0  0
  183.5760  174.3860  136.5040 C   0  0  1  0  0  3  0  0  0  0  0  0
  183.1920  176.0250  134.5970 C   0  0  0  0  0  1  0  0  0  0  0  0
  183.5160  175.8760  136.0790 C   0  0  2  0  0  0  0  0  0  0  0  0
  184.3030  172.2350  135.8770 C   0  0  2  0  0  3  0  0  0  0  0  0
  184.0740  177.8110  138.6800 C   0  0  0  0  0  1  0  0  0  0  0  0
  181.3730  173.5480  137.1590 C   0  0  1  0  0  3  0  0  0  0  0  0
  179.5890  175.4060  137.2990 N   0  0  0  0  0  0  0  0  0  0  0  0
  182.8220  172.3530  135.6150 C   0  0  0  0  0  2  0  0  0  0  0  0
  182.5340  176.7060  136.9070 C   0  0  1  0  0  3  0  0  0  0  0  0
  182.3620  173.6780  136.0550 N   0  0  2  0  0  0  0  0  0  0  0  0
  181.9820  175.9780  138.1420 C   0  0  0  0  0  2  0  0  0  0  0  0
  184.7690  173.6550  135.9330 C   0  0  0  0  0  2  0  0  0  0  0  0
  180.9320  174.9370  137.7320 C   0  0  2  0  0  0  0  0  0  0  0  0
  183.7350  177.6060  137.1920 C   0  0  2  0  0  3  0  0  0  0  0  0
  179.8180  174.9080  138.6700 C   0  0  0  0  0  2  0  0  0  0  0  0
  186.1950  170.7550  135.3970 C   0  0  0  0  0  2  0  0  0  0  0  0
  185.0630  171.4890  134.7910 C   0  0  1  0  0  3  0  0  0  0  0  0
  185.0220  170.0970  135.0030 O   0  0  0  0  0  0  0  0  0  0  0  0
  179.8200  171.6000  137.3260 C   0  0  0  0  0  2  0  0  0  0  0  0
  180.1650  172.7360  136.7270 C   0  0  0  0  0  3  0  0  0  0  0  0
  185.7160  176.1370  137.2330 C   0  0  0  0  0  2  0  0  0  0  0  0
  189.6180  176.0380  136.9670 C   0  0  2  0  0  0  0  0  0  0  0  0
  188.2580  175.9880  134.8270 C   0  0  0  0  0  2  0  0  0  0  0  0
  187.7720  175.3530  136.1210 C   0  0  1  0  0  0  0  0  0  0  0  0
  188.1990  176.0620  137.4650 C   0  0  2  0  0  0  0  0  0  0  0  0
  189.0210  177.2870  137.4010 N   0  0  0  0  0  2  0  0  0  0  0  0
  187.0510  176.5440  136.6410 C   0  0  2  0  0  3  0  0  0  0  0  0
  189.2410  175.3110  135.7110 C   0  0  2  0  0  3  0  0  0  0  0  0
  190.4500  175.3520  137.9420 N   0  0  0  0  0  2  0  0  0  0  0  0
  191.7330  176.0520  137.9420 C   0  0  2  0  0  3  0  0  0  0  0  0
  193.9010  173.1710  136.4060 C   0  0  0  0  0  2  0  0  0  0  0  0
  194.0350  175.2500  138.3490 C   0  0  0  0  0  3  0  0  0  0  0  0
  192.6260  173.9280  136.7760 C   0  0  0  0  0  2  0  0  0  0  0  0
  192.8860  175.1280  137.6500 C   0  0  0  0  0  0  0  0  0  0  0  0
  195.8610  172.1740  137.3200 O   0  0  0  0  0  1  0  0  0  0  0  0
  195.1990  174.3040  138.1860 C   0  0  1  0  0  3  0  0  0  0  0  0
  195.8350  174.1500  139.4010 F   0  0  0  0  0  0  0  0  0  0  0  0
  194.7490  172.9490  137.6480 C   0  0  1  0  0  3  0  0  0  0  0  0
  191.9100  176.8480  139.1590 N   0  0  0  0  0  2  0  0  0  0  0  0
  191.4240  177.0900  141.3620 N   0  0  0  0  0  2  0  0  0  0  0  0
  190.2910  177.5030  140.6110 C   0  0  1  0  0  3  0  0  0  0  0  0
  191.0470  176.3820  140.1700 N   0  0  0  0  0  0  0  0  0  0  0  0
  189.0880  177.0670  141.3080 N   0  0  0  0  0  2  0  0  0  0  0  0
  186.7560  177.1260  143.4730 C   0  0  0  0  0  2  0  0  0  0  0  0
  188.0640  177.9040  143.4270 C   0  0  0  0  0  2  0  0  0  0  0  0
  186.0450  179.0860  141.9630 C   0  0  0  0  0  2  0  0  0  0  0  0
  187.2570  178.6790  141.1180 C   0  0  0  0  0  2  0  0  0  0  0  0
  185.5900  177.9460  142.8890 C   0  0  0  0  0  2  0  0  0  0  0  0
  188.4590  178.2180  141.9690 C   0  0  0  0  0  3  0  0  0  0  0  0
  179.4270  176.8550  137.4020 C   0  0  0  0  0  2  0  0  0  0  0  0
  178.9350  177.2030  138.7950 C   0  0  0  0  0  2  0  0  0  0  0  0
  179.0800  178.6950  139.0940 C   0  0  0  0  0  2  0  0  0  0  0  0
  180.5410  179.1440  139.1800 C   0  0  1  0  0  3  0  0  0  0  0  0
  181.9240  181.0580  138.6450 O   0  0  0  0  0  1  0  0  0  0  0  0
  180.9720  179.8750  136.9340 O   0  0  0  0  0  1  0  0  0  0  0  0
  180.8010  180.3290  138.2430 C   0  0  0  0  0  3  0  0  0  0  0  0
  180.9650  179.4390  140.6220 C   0  0  0  0  0  2  0  0  0  0  0  0
  182.0470  178.7930  142.4400 C   0  0  0  0  0  1  0  0  0  0  0  0
  181.7310  178.3910  141.1410 O   0  0  0  0  0  0  0  0  0  0  0  0
  1 15  1  0  0  0  0
  1 22  1  0  0  0  0
  2 13  1  6  0  0  0
  4  3  1  6  0  0  0
  4  1  1  0  0  0  0
  4  2  1  0  0  0  0
  4 10  1  0  0  0  0
  5  9  1  6  0  0  0
  5 13  1  0  0  0  0
  7 21  1  6  0  0  0
  7 14  1  0  0  0  0
  8 51  1  0  0  0  0
  8 14  1  0  0  0  0
  8 16  1  0  0  0  0
 10 15  1  0  0  0  0
 10 12  1  1  0  0  0
 11  9  1  1  0  0  0
 11  2  1  0  0  0  0
 11  7  1  0  0  0  0
 14 12  1  1  0  0  0
 14 16  1  0  0  0  0
 15  6  1  1  0  0  0
 18 19  1  0  0  0  0
 18 17  1  1  0  0  0
 18  5  1  0  0  0  0
 19 17  1  0  0  0  0
 21 20  2  0  0  0  0
 23 27  1  0  0  0  0
 23 26  1  0  0  0  0
 23 30  1  1  0  0  0
 25 24  1  6  0  0  0
 25 28  1  0  0  0  0
 25 26  1  0  0  0  0
 26 27  1  6  0  0  0
 28 22  1  1  0  0  0
 28 26  1  0  0  0  0
 29 24  1  6  0  0  0
 29 25  1  0  0  0  0
 29 23  1  0  0  0  0
 31 30  1  1  0  0  0
 31 40  1  0  0  0  0
 32 34  1  0  0  0  0
 32 39  1  0  0  0  0
 34 35  1  0  0  0  0
 35 31  1  0  0  0  0
 35 33  2  0  0  0  0
 37 33  1  0  0  0  0
 37 38  1  1  0  0  0
 39 36  1  6  0  0  0
 39 37  1  0  0  0  0
 40 43  1  0  0  0  0
 42 44  1  1  0  0  0
 42 41  1  0  0  0  0
 43 42  1  0  0  0  0
 43 41  1  0  0  0  0
 44 50  1  0  0  0  0
 46 45  1  0  0  0  0
 47 49  1  0  0  0  0
 48 47  1  0  0  0  0
 48 50  1  0  0  0  0
 49 45  1  0  0  0  0
 50 46  1  0  0  0  0
 51 52  1  0  0  0  0
 52 53  1  0  0  0  0
 54 53  1  1  0  0  0
 54 58  1  0  0  0  0
 56 57  1  0  0  0  0
 57 55  1  0  0  0  0
 57 54  1  0  0  0  0
 58 60  1  0  0  0  0
 60 59  1  0  0  0  0
M  END
>  <MODEL>
1

>  <REMARK>
 VINA RESULT:      -6.0      0.000      0.000
  Name = 
  18 active torsions:
  status: ('A' for Active; 'I' for Inactive)
    1  A    between atoms: N_1  and  C_28
    2  A    between atoms: C_3  and  C_29
    3  A    between atoms: C_3  and  C_38
    4  A    between atoms: C_3  and  C_47
    5  A    between atoms: N_7  and  C_36
    6  A    between atoms: N_7  and  C_53
    7  A    between atoms: C_10  and  C_11
    8  A    between atoms: C_10  and  C_47
    9  A    between atoms: C_11  and  N_25
   10  A    between atoms: C_15  and  N_30
   11  A    between atoms: C_17  and  C_58
   12  A    between atoms: C_20  and  C_35
   13  A    between atoms: C_21  and  C_39
   14  A    between atoms: C_28  and  C_56
   15  A    between atoms: C_29  and  O_51
   16  A    between atoms: N_30  and  C_35
   17  A    between atoms: C_35  and  N_42
   18  A    between atoms: N_42  and  N_55
                            x       y       z     vdW  Elec       q    Type
                         _______ _______ _______ _____ _____    ______ ____

>  <TORSDO>
F 18

$$$$
=
 OpenBabel11042412243D

 60 71  0  0  1  0  0  0  0  0999 V2000
  185.0660  177.0550  136.6680 N   0  0  0  0  0  0  0  0  0  0  0  0
  183.3940  175.0580  136.6790 C   0  0  1  0  0  3  0  0  0  0  0  0
  183.4070  176.8530  134.8770 C   0  0  0  0  0  1  0  0  0  0  0  0
  183.7200  176.5340  136.3340 C   0  0  2  0  0  0  0  0  0  0  0  0
  183.5050  172.8330  135.9130 C   0  0  2  0  0  3  0  0  0  0  0  0
  184.8460  178.0910  139.0050 C   0  0  0  0  0  1  0  0  0  0  0  0
  181.0670  174.7930  137.3850 C   0  0  1  0  0  3  0  0  0  0  0  0
  179.8460  177.0440  137.6970 N   0  0  0  0  0  0  0  0  0  0  0  0
  182.1020  173.3540  135.7210 C   0  0  0  0  0  2  0  0  0  0  0  0
  183.0190  177.5420  137.2460 C   0  0  1  0  0  3  0  0  0  0  0  0
  182.0240  174.7240  136.2470 N   0  0  2  0  0  0  0  0  0  0  0  0
  182.3280  176.9120  138.4640 C   0  0  0  0  0  2  0  0  0  0  0  0
  184.3340  174.0740  136.0210 C   0  0  0  0  0  2  0  0  0  0  0  0
  181.0270  176.2110  138.0470 C   0  0  2  0  0  0  0  0  0  0  0  0
  184.4230  178.0740  137.5240 C   0  0  2  0  0  3  0  0  0  0  0  0
  179.9720  176.4200  139.0290 C   0  0  0  0  0  2  0  0  0  0  0  0
  184.8040  170.8520  135.2880 C   0  0  0  0  0  2  0  0  0  0  0  0
  184.0090  171.9810  134.7570 C   0  0  1  0  0  3  0  0  0  0  0  0
  183.4920  170.6720  134.8270 O   0  0  0  0  0  0  0  0  0  0  0  0
  178.9310  173.5410  137.7060 C   0  0  0  0  0  2  0  0  0  0  0  0
  179.6750  174.3560  136.9650 C   0  0  0  0  0  3  0  0  0  0  0  0
  185.9420  176.1350  137.4040 C   0  0  0  0  0  2  0  0  0  0  0  0
  189.5930  177.4300  137.9510 C   0  0  2  0  0  0  0  0  0  0  0  0
  189.2610  175.2130  136.7650 C   0  0  0  0  0  2  0  0  0  0  0  0
  188.3270  175.7040  137.8600 C   0  0  1  0  0  0  0  0  0  0  0  0
  188.0990  177.2620  137.9550 C   0  0  2  0  0  0  0  0  0  0  0  0
  188.7800  178.1480  136.9890 N   0  0  0  0  0  2  0  0  0  0  0  0
  187.3690  176.4110  136.9700 C   0  0  2  0  0  3  0  0  0  0  0  0
  189.8310  175.9500  137.9220 C   0  0  2  0  0  3  0  0  0  0  0  0
  189.9900  178.1720  139.1370 N   0  0  0  0  0  2  0  0  0  0  0  0
  190.3580  177.1710  140.1350 C   0  0  2  0  0  3  0  0  0  0  0  0
  187.2230  177.8420  142.3900 C   0  0  0  0  0  2  0  0  0  0  0  0
  189.7010  176.4360  142.4020 C   0  0  0  0  0  3  0  0  0  0  0  0
  188.2280  178.0940  141.2680 C   0  0  0  0  0  2  0  0  0  0  0  0
  189.3900  177.1340  141.2890 C   0  0  0  0  0  0  0  0  0  0  0  0
  187.0290  177.5430  144.7450 O   0  0  0  0  0  1  0  0  0  0  0  0
  188.8330  176.4280  143.6350 C   0  0  1  0  0  3  0  0  0  0  0  0
  189.6330  176.3360  144.7560 F   0  0  0  0  0  0  0  0  0  0  0  0
  187.9560  177.6750  143.7110 C   0  0  1  0  0  3  0  0  0  0  0  0
  191.7570  177.3120  140.5460 N   0  0  0  0  0  2  0  0  0  0  0  0
  193.8920  177.3000  139.7780 N   0  0  0  0  0  2  0  0  0  0  0  0
  193.1060  176.4890  138.9150 C   0  0  1  0  0  3  0  0  0  0  0  0
  192.5490  177.6860  139.4440 N   0  0  0  0  0  0  0  0  0  0  0  0
  193.5580  176.6950  137.5460 N   0  0  0  0  0  2  0  0  0  0  0  0
  195.5310  174.3040  138.2690 C   0  0  0  0  0  2  0  0  0  0  0  0
  194.0560  174.2710  137.8900 C   0  0  0  0  0  2  0  0  0  0  0  0
  195.7400  174.3260  135.7030 C   0  0  0  0  0  2  0  0  0  0  0  0
  194.8040  175.5380  135.7860 C   0  0  0  0  0  2  0  0  0  0  0  0
  196.4340  174.0520  137.0470 C   0  0  0  0  0  2  0  0  0  0  0  0
  193.7280  175.3940  136.8840 C   0  0  0  0  0  3  0  0  0  0  0  0
  180.0780  178.4750  137.8800 C   0  0  0  0  0  2  0  0  0  0  0  0
  179.8540  179.1880  136.5580 C   0  0  0  0  0  2  0  0  0  0  0  0
  180.8150  180.3650  136.3770 C   0  0  0  0  0  2  0  0  0  0  0  0
  180.3470  181.6300  137.1010 C   0  0  1  0  0  3  0  0  0  0  0  0
  180.4100  181.6030  139.5210 O   0  0  0  0  0  1  0  0  0  0  0  0
  182.3040  181.0490  138.3650 O   0  0  0  0  0  1  0  0  0  0  0  0
  181.1680  181.8600  138.3760 C   0  0  0  0  0  3  0  0  0  0  0  0
  180.3510  182.8510  136.1790 C   0  0  0  0  0  2  0  0  0  0  0  0
  180.4610  185.0140  136.6320 C   0  0  0  0  0  1  0  0  0  0  0  0
  181.2140  183.8390  136.6620 O   0  0  0  0  0  0  0  0  0  0  0  0
  1 22  1  0  0  0  0
  1 15  1  0  0  0  0
  2 13  1  6  0  0  0
  4  3  1  6  0  0  0
  4  1  1  0  0  0  0
  4  2  1  0  0  0  0
  4 10  1  0  0  0  0
  5  9  1  6  0  0  0
  5 13  1  0  0  0  0
  7 21  1  6  0  0  0
  7 14  1  0  0  0  0
  8 51  1  0  0  0  0
  8 14  1  0  0  0  0
  8 16  1  0  0  0  0
 10 15  1  0  0  0  0
 10 12  1  1  0  0  0
 11  9  1  1  0  0  0
 11  2  1  0  0  0  0
 11  7  1  0  0  0  0
 14 12  1  1  0  0  0
 14 16  1  0  0  0  0
 15  6  1  1  0  0  0
 18 19  1  0  0  0  0
 18 17  1  1  0  0  0
 18  5  1  0  0  0  0
 19 17  1  0  0  0  0
 21 20  2  0  0  0  0
 23 26  1  0  0  0  0
 23 30  1  1  0  0  0
 25 24  1  6  0  0  0
 25 29  1  0  0  0  0
 25 26  1  0  0  0  0
 26 27  1  6  0  0  0
 27 23  1  0  0  0  0
 28 22  1  1  0  0  0
 28 25  1  0  0  0  0
 28 26  1  0  0  0  0
 29 24  1  6  0  0  0
 29 23  1  0  0  0  0
 31 30  1  6  0  0  0
 31 40  1  0  0  0  0
 31 35  1  0  0  0  0
 32 39  1  0  0  0  0
 33 37  1  0  0  0  0
 34 35  1  0  0  0  0
 34 32  1  0  0  0  0
 35 33  2  0  0  0  0
 37 39  1  0  0  0  0
 37 38  1  1  0  0  0
 39 36  1  1  0  0  0
 42 44  1  6  0  0  0
 42 43  1  0  0  0  0
 42 41  1  0  0  0  0
 43 41  1  0  0  0  0
 43 40  1  0  0  0  0
 46 45  1  0  0  0  0
 47 48  1  0  0  0  0
 47 49  1  0  0  0  0
 48 50  1  0  0  0  0
 49 45  1  0  0  0  0
 50 44  1  0  0  0  0
 50 46  1  0  0  0  0
 52 51  1  0  0  0  0
 53 52  1  0  0  0  0
 53 54  1  0  0  0  0
 54 58  1  6  0  0  0
 54 57  1  0  0  0  0
 56 57  1  0  0  0  0
 57 55  1  0  0  0  0
 58 60  1  0  0  0  0
 59 60  1  0  0  0  0
M  END
>  <MODEL>
2

>  <REMARK>
 VINA RESULT:      -5.9      2.514      5.239
  Name = 
  18 active torsions:
  status: ('A' for Active; 'I' for Inactive)
    1  A    between atoms: N_1  and  C_28
    2  A    between atoms: C_3  and  C_29
    3  A    between atoms: C_3  and  C_38
    4  A    between atoms: C_3  and  C_47
    5  A    between atoms: N_7  and  C_36
    6  A    between atoms: N_7  and  C_53
    7  A    between atoms: C_10  and  C_11
    8  A    between atoms: C_10  and  C_47
    9  A    between atoms: C_11  and  N_25
   10  A    between atoms: C_15  and  N_30
   11  A    between atoms: C_17  and  C_58
   12  A    between atoms: C_20  and  C_35
   13  A    between atoms: C_21  and  C_39
   14  A    between atoms: C_28  and  C_56
   15  A    between atoms: C_29  and  O_51
   16  A    between atoms: N_30  and  C_35
   17  A    between atoms: C_35  and  N_42
   18  A    between atoms: N_42  and  N_55
                            x       y       z     vdW  Elec       q    Type
                         _______ _______ _______ _____ _____    ______ ____

>  <TORSDO>
F 18

$$$$
=
 OpenBabel11042412243D

 60 71  0  0  1  0  0  0  0  0999 V2000
  188.9330  176.8020  141.8100 N   0  0  0  0  0  0  0  0  0  0  0  0
  189.1310  177.3050  144.3570 C   0  0  1  0  0  3  0  0  0  0  0  0
  187.9930  175.2260  143.4330 C   0  0  0  0  0  1  0  0  0  0  0  0
  188.3550  176.6830  143.1680 C   0  0  2  0  0  0  0  0  0  0  0  0
  190.8060  176.9280  145.9690 C   0  0  2  0  0  3  0  0  0  0  0  0
  187.9170  178.9340  140.8090 C   0  0  0  0  0  1  0  0  0  0  0  0
  187.6120  178.2490  146.0260 C   0  0  1  0  0  3  0  0  0  0  0  0
  185.1520  178.2740  145.2510 N   0  0  0  0  0  0  0  0  0  0  0  0
  189.4520  176.7740  146.6170 C   0  0  0  0  0  2  0  0  0  0  0  0
  187.0970  177.4650  142.7850 C   0  0  1  0  0  3  0  0  0  0  0  0
  188.4100  177.0600  145.6200 N   0  0  2  0  0  0  0  0  0  0  0  0
  186.9720  178.8300  143.4780 C   0  0  0  0  0  2  0  0  0  0  0  0
  190.5270  176.7460  144.5110 C   0  0  0  0  0  2  0  0  0  0  0  0
  186.5560  178.6570  144.9450 C   0  0  2  0  0  0  0  0  0  0  0  0
  187.7130  177.5220  141.3880 C   0  0  2  0  0  3  0  0  0  0  0  0
  185.5990  179.6770  145.3500 C   0  0  0  0  0  2  0  0  0  0  0  0
  192.4640  176.3560  147.6800 C   0  0  0  0  0  2  0  0  0  0  0  0
  191.8280  175.8970  146.4260 C   0  0  1  0  0  3  0  0  0  0  0  0
  191.4810  175.3560  147.6800 O   0  0  0  0  0  0  0  0  0  0  0  0
  187.4240  178.5680  148.4960 C   0  0  0  0  0  2  0  0  0  0  0  0
  186.9470  178.0350  147.3740 C   0  0  0  0  0  3  0  0  0  0  0  0
  190.1580  177.6050  141.7050 C   0  0  0  0  0  2  0  0  0  0  0  0
  191.7990  176.4920  138.3320 C   0  0  2  0  0  0  0  0  0  0  0  0
  193.3130  177.0460  140.2900 C   0  0  0  0  0  2  0  0  0  0  0  0
  191.9860  177.7510  140.0570 C   0  0  1  0  0  0  0  0  0  0  0  0
  190.8300  176.8930  139.4100 C   0  0  2  0  0  0  0  0  0  0  0  0
  191.0840  175.4760  139.0800 N   0  0  0  0  0  2  0  0  0  0  0  0
  191.1510  176.8250  140.8660 C   0  0  2  0  0  3  0  0  0  0  0  0
  192.8930  177.3480  138.8980 C   0  0  2  0  0  3  0  0  0  0  0  0
  191.2410  176.8470  137.0370 N   0  0  0  0  0  2  0  0  0  0  0  0
  191.2350  175.6170  136.2500 C   0  0  2  0  0  3  0  0  0  0  0  0
  194.4720  173.4700  135.7270 C   0  0  0  0  0  2  0  0  0  0  0  0
  193.4460  176.0850  135.2500 C   0  0  0  0  0  3  0  0  0  0  0  0
  193.1350  173.8710  136.3490 C   0  0  0  0  0  2  0  0  0  0  0  0
  192.6220  175.1940  135.8410 C   0  0  0  0  0  0  0  0  0  0  0  0
  196.6820  174.2450  135.2930 O   0  0  0  0  0  1  0  0  0  0  0  0
  194.8800  175.7700  134.9010 C   0  0  1  0  0  3  0  0  0  0  0  0
  195.6450  176.9100  135.0450 F   0  0  0  0  0  0  0  0  0  0  0  0
  195.4350  174.6460  135.7710 C   0  0  1  0  0  3  0  0  0  0  0  0
  190.2930  175.7000  135.1310 N   0  0  0  0  0  2  0  0  0  0  0  0
  188.0540  175.3640  134.9720 N   0  0  0  0  0  2  0  0  0  0  0  0
  188.4380  175.1560  136.3240 C   0  0  1  0  0  3  0  0  0  0  0  0
  189.0540  176.1990  135.5780 N   0  0  0  0  0  0  0  0  0  0  0  0
  187.3970  175.6910  137.1900 N   0  0  0  0  0  2  0  0  0  0  0  0
  185.5280  178.0910  138.1270 C   0  0  0  0  0  2  0  0  0  0  0  0
  186.4300  177.9770  136.9060 C   0  0  0  0  0  2  0  0  0  0  0  0
  183.9370  176.8550  136.5240 C   0  0  0  0  0  2  0  0  0  0  0  0
  185.0870  175.8500  136.3970 C   0  0  0  0  0  2  0  0  0  0  0  0
  184.0720  177.7150  137.7910 C   0  0  0  0  0  2  0  0  0  0  0  0
  186.4780  176.5200  136.3990 C   0  0  0  0  0  3  0  0  0  0  0  0
  184.3090  178.1860  144.0600 C   0  0  0  0  0  2  0  0  0  0  0  0
  183.1720  179.1850  144.1820 C   0  0  0  0  0  2  0  0  0  0  0  0
  181.8050  178.5030  144.1060 C   0  0  0  0  0  2  0  0  0  0  0  0
  181.0040  178.9120  142.8670 C   0  0  1  0  0  3  0  0  0  0  0  0
  179.8640  180.8440  141.9560 O   0  0  0  0  0  1  0  0  0  0  0  0
  179.0270  179.8610  143.8450 O   0  0  0  0  0  1  0  0  0  0  0  0
  180.1900  180.1820  143.1430 C   0  0  0  0  0  3  0  0  0  0  0  0
  181.8960  179.0510  141.6310 C   0  0  0  0  0  2  0  0  0  0  0  0
  180.5000  177.5670  140.7670 C   0  0  0  0  0  1  0  0  0  0  0  0
  181.8560  177.8880  140.8540 O   0  0  0  0  0  0  0  0  0  0  0  0
  1  4  1  0  0  0  0
  2 13  1  1  0  0  0
  2 11  1  0  0  0  0
  4  3  1  1  0  0  0
  4  2  1  0  0  0  0
  5 13  1  6  0  0  0
  5 18  1  0  0  0  0
  5  9  1  0  0  0  0
  7 21  1  1  0  0  0
  8 16  1  0  0  0  0
 10  4  1  0  0  0  0
 10 12  1  1  0  0  0
 11  7  1  0  0  0  0
 11  9  1  1  0  0  0
 14 12  1  6  0  0  0
 14  8  1  0  0  0  0
 14 16  1  0  0  0  0
 14  7  1  0  0  0  0
 15  6  1  1  0  0  0
 15  1  1  0  0  0  0
 15 10  1  0  0  0  0
 18 19  1  0  0  0  0
 18 17  1  1  0  0  0
 19 17  1  0  0  0  0
 21 20  2  0  0  0  0
 22  1  1  0  0  0  0
 23 30  1  6  0  0  0
 23 29  1  0  0  0  0
 23 27  1  0  0  0  0
 23 26  1  0  0  0  0
 25 24  1  6  0  0  0
 25 28  1  0  0  0  0
 26 27  1  1  0  0  0
 26 25  1  0  0  0  0
 26 28  1  0  0  0  0
 28 22  1  1  0  0  0
 29 25  1  0  0  0  0
 29 24  1  1  0  0  0
 31 40  1  6  0  0  0
 31 30  1  0  0  0  0
 32 39  1  0  0  0  0
 32 34  1  0  0  0  0
 33 35  2  0  0  0  0
 35 31  1  0  0  0  0
 35 34  1  0  0  0  0
 37 38  1  1  0  0  0
 37 33  1  0  0  0  0
 37 39  1  0  0  0  0
 39 36  1  6  0  0  0
 40 43  1  0  0  0  0
 41 43  1  0  0  0  0
 41 42  1  0  0  0  0
 42 44  1  1  0  0  0
 43 42  1  0  0  0  0
 46 45  1  0  0  0  0
 47 49  1  0  0  0  0
 48 50  1  0  0  0  0
 48 47  1  0  0  0  0
 49 45  1  0  0  0  0
 50 46  1  0  0  0  0
 50 44  1  0  0  0  0
 51 52  1  0  0  0  0
 51  8  1  0  0  0  0
 53 52  1  0  0  0  0
 54 58  1  6  0  0  0
 54 57  1  0  0  0  0
 54 53  1  0  0  0  0
 55 57  1  0  0  0  0
 57 56  1  0  0  0  0
 59 60  1  0  0  0  0
 60 58  1  0  0  0  0
M  END
>  <MODEL>
3

>  <REMARK>
 VINA RESULT:      -5.6      3.191      7.696
  Name = 
  18 active torsions:
  status: ('A' for Active; 'I' for Inactive)
    1  A    between atoms: N_1  and  C_28
    2  A    between atoms: C_3  and  C_29
    3  A    between atoms: C_3  and  C_38
    4  A    between atoms: C_3  and  C_47
    5  A    between atoms: N_7  and  C_36
    6  A    between atoms: N_7  and  C_53
    7  A    between atoms: C_10  and  C_11
    8  A    between atoms: C_10  and  C_47
    9  A    between atoms: C_11  and  N_25
   10  A    between atoms: C_15  and  N_30
   11  A    between atoms: C_17  and  C_58
   12  A    between atoms: C_20  and  C_35
   13  A    between atoms: C_21  and  C_39
   14  A    between atoms: C_28  and  C_56
   15  A    between atoms: C_29  and  O_51
   16  A    between atoms: N_30  and  C_35
   17  A    between atoms: C_35  and  N_42
   18  A    between atoms: N_42  and  N_55
                            x       y       z     vdW  Elec       q    Type
                         _______ _______ _______ _____ _____    ______ ____

>  <TORSDO>
F 18

$$$$
=
 OpenBabel11042412243D

 60 71  0  0  1  0  0  0  0  0999 V2000
  187.2940  177.8190  137.4800 N   0  0  0  0  0  0  0  0  0  0  0  0
  186.2630  175.7100  136.3510 C   0  0  1  0  0  3  0  0  0  0  0  0
  186.7770  177.8560  135.0850 C   0  0  0  0  0  1  0  0  0  0  0  0
  186.4100  177.2510  136.4350 C   0  0  2  0  0  0  0  0  0  0  0  0
  187.1740  173.7380  135.4400 C   0  0  2  0  0  3  0  0  0  0  0  0
  185.7770  178.2760  139.4970 C   0  0  0  0  0  1  0  0  0  0  0  0
  183.9910  175.0570  135.7250 C   0  0  1  0  0  3  0  0  0  0  0  0
  182.3450  177.0420  135.6880 N   0  0  0  0  0  0  0  0  0  0  0  0
  185.9630  174.1410  134.6360 C   0  0  0  0  0  2  0  0  0  0  0  0
  185.1710  177.9520  136.9950 C   0  0  1  0  0  3  0  0  0  0  0  0
  185.3670  175.3430  135.2380 N   0  0  2  0  0  0  0  0  0  0  0  0
  184.1230  176.9960  137.5860 C   0  0  0  0  0  2  0  0  0  0  0  0
  187.5800  175.0010  136.1310 C   0  0  0  0  0  2  0  0  0  0  0  0
  183.3540  176.2780  136.4680 C   0  0  2  0  0  0  0  0  0  0  0  0
  186.1290  178.5490  138.0230 C   0  0  2  0  0  3  0  0  0  0  0  0
  181.9400  176.1520  136.7930 C   0  0  0  0  0  2  0  0  0  0  0  0
  189.2820  172.4900  135.4590 C   0  0  0  0  0  2  0  0  0  0  0  0
  188.3300  173.2230  134.5960 C   0  0  1  0  0  3  0  0  0  0  0  0
  188.3880  171.8160  134.6150 O   0  0  0  0  0  0  0  0  0  0  0  0
  182.3550  173.4810  134.6860 C   0  0  0  0  0  2  0  0  0  0  0  0
  183.0920  174.5850  134.5960 C   0  0  0  0  0  3  0  0  0  0  0  0
  187.8750  176.8520  138.4190 C   0  0  0  0  0  2  0  0  0  0  0  0
  189.7510  177.4920  141.7920 C   0  0  2  0  0  0  0  0  0  0  0  0
  191.0560  177.6840  139.6270 C   0  0  0  0  0  2  0  0  0  0  0  0
  189.9080  176.7030  139.8060 C   0  0  1  0  0  0  0  0  0  0  0  0
  188.7240  177.1580  140.7450 C   0  0  2  0  0  0  0  0  0  0  0  0
  188.7830  178.4900  141.3810 N   0  0  0  0  0  2  0  0  0  0  0  0
  188.8300  177.6050  139.3250 C   0  0  2  0  0  3  0  0  0  0  0  0
  190.8850  177.0080  140.9380 C   0  0  2  0  0  3  0  0  0  0  0  0
  189.4400  176.7610  143.0100 N   0  0  0  0  0  2  0  0  0  0  0  0
  189.6480  177.7000  144.1100 C   0  0  2  0  0  3  0  0  0  0  0  0
  192.3560  175.5050  145.9010 C   0  0  0  0  0  2  0  0  0  0  0  0
  190.6000  177.6940  146.3910 C   0  0  0  0  0  3  0  0  0  0  0  0
  191.2980  175.8600  144.8570 C   0  0  0  0  0  2  0  0  0  0  0  0
  190.5910  177.1570  145.1520 C   0  0  0  0  0  0  0  0  0  0  0  0
  192.7170  175.2550  148.2420 O   0  0  0  0  0  1  0  0  0  0  0  0
  191.4410  177.1450  147.5170 C   0  0  1  0  0  3  0  0  0  0  0  0
  190.7680  177.3100  148.7110 F   0  0  0  0  0  0  0  0  0  0  0  0
  191.7790  175.6740  147.2980 C   0  0  1  0  0  3  0  0  0  0  0  0
  188.3760  178.1760  144.6580 N   0  0  0  0  0  2  0  0  0  0  0  0
  186.3130  177.3610  145.1380 N   0  0  0  0  0  2  0  0  0  0  0  0
  186.1810  178.3120  144.0900 C   0  0  1  0  0  3  0  0  0  0  0  0
  187.3080  177.4440  144.1040 N   0  0  0  0  0  0  0  0  0  0  0  0
  185.1760  177.8310  143.1510 N   0  0  0  0  0  2  0  0  0  0  0  0
  182.5510  178.8610  144.6280 C   0  0  0  0  0  2  0  0  0  0  0  0
  183.7090  179.6510  144.0330 C   0  0  0  0  0  2  0  0  0  0  0  0
  181.7850  178.9750  142.1730 C   0  0  0  0  0  2  0  0  0  0  0  0
  183.1650  178.3800  141.8700 C   0  0  0  0  0  2  0  0  0  0  0  0
  181.3770  178.7470  143.6370 C   0  0  0  0  0  2  0  0  0  0  0  0
  184.2750  178.9330  142.7890 C   0  0  0  0  0  3  0  0  0  0  0  0
  182.1670  178.4120  136.1660 C   0  0  0  0  0  2  0  0  0  0  0  0
  180.9520  179.0210  135.4880 C   0  0  0  0  0  2  0  0  0  0  0  0
  179.7530  179.1000  136.4340 C   0  0  0  0  0  2  0  0  0  0  0  0
  179.6080  180.4740  137.0950 C   0  0  1  0  0  3  0  0  0  0  0  0
  181.2070  180.0790  138.8700 O   0  0  0  0  0  1  0  0  0  0  0  0
  179.5180  181.5810  139.2240 O   0  0  0  0  0  1  0  0  0  0  0  0
  179.8680  180.3800  138.6030 C   0  0  0  0  0  3  0  0  0  0  0  0
  180.4850  181.5300  136.4180 C   0  0  0  0  0  2  0  0  0  0  0  0
  180.3510  183.2400  135.0210 C   0  0  0  0  0  1  0  0  0  0  0  0
  179.9430  181.9150  135.1880 O   0  0  0  0  0  0  0  0  0  0  0  0
  1 15  1  0  0  0  0
  1 22  1  0  0  0  0
  2 13  1  6  0  0  0
  2  4  1  0  0  0  0
  4  3  1  6  0  0  0
  4 10  1  0  0  0  0
  4  1  1  0  0  0  0
  5  9  1  6  0  0  0
  5 13  1  0  0  0  0
  7 21  1  6  0  0  0
  7 14  1  0  0  0  0
  8 51  1  0  0  0  0
  8 14  1  0  0  0  0
  8 16  1  0  0  0  0
 10 12  1  1  0  0  0
 10 15  1  0  0  0  0
 11  9  1  1  0  0  0
 11  7  1  0  0  0  0
 11  2  1  0  0  0  0
 14 16  1  1  0  0  0
 14 12  1  0  0  0  0
 15  6  1  1  0  0  0
 18 19  1  0  0  0  0
 18  5  1  0  0  0  0
 18 17  1  1  0  0  0
 19 17  1  0  0  0  0
 21 20  2  0  0  0  0
 23 30  1  1  0  0  0
 25 24  1  1  0  0  0
 25 26  1  0  0  0  0
 25 29  1  0  0  0  0
 26 27  1  6  0  0  0
 26 23  1  0  0  0  0
 27 23  1  0  0  0  0
 28 22  1  6  0  0  0
 28 25  1  0  0  0  0
 28 26  1  0  0  0  0
 29 24  1  6  0  0  0
 29 23  1  0  0  0  0
 31 30  1  6  0  0  0
 31 40  1  0  0  0  0
 31 35  1  0  0  0  0
 32 39  1  0  0  0  0
 33 37  1  0  0  0  0
 34 35  1  0  0  0  0
 34 32  1  0  0  0  0
 35 33  2  0  0  0  0
 37 38  1  1  0  0  0
 39 37  1  0  0  0  0
 39 36  1  1  0  0  0
 42 44  1  6  0  0  0
 42 43  1  0  0  0  0
 42 41  1  0  0  0  0
 43 40  1  0  0  0  0
 43 41  1  0  0  0  0
 46 45  1  0  0  0  0
 47 49  1  0  0  0  0
 48 47  1  0  0  0  0
 48 50  1  0  0  0  0
 49 45  1  0  0  0  0
 50 44  1  0  0  0  0
 50 46  1  0  0  0  0
 52 51  1  0  0  0  0
 52 53  1  0  0  0  0
 53 54  1  0  0  0  0
 54 58  1  6  0  0  0
 54 57  1  0  0  0  0
 57 55  1  0  0  0  0
 57 56  1  0  0  0  0
 59 60  1  0  0  0  0
 60 58  1  0  0  0  0
M  END
>  <MODEL>
4

>  <REMARK>
 VINA RESULT:      -5.4      3.264      5.408
  Name = 
  18 active torsions:
  status: ('A' for Active; 'I' for Inactive)
    1  A    between atoms: N_1  and  C_28
    2  A    between atoms: C_3  and  C_29
    3  A    between atoms: C_3  and  C_38
    4  A    between atoms: C_3  and  C_47
    5  A    between atoms: N_7  and  C_36
    6  A    between atoms: N_7  and  C_53
    7  A    between atoms: C_10  and  C_11
    8  A    between atoms: C_10  and  C_47
    9  A    between atoms: C_11  and  N_25
   10  A    between atoms: C_15  and  N_30
   11  A    between atoms: C_17  and  C_58
   12  A    between atoms: C_20  and  C_35
   13  A    between atoms: C_21  and  C_39
   14  A    between atoms: C_28  and  C_56
   15  A    between atoms: C_29  and  O_51
   16  A    between atoms: N_30  and  C_35
   17  A    between atoms: C_35  and  N_42
   18  A    between atoms: N_42  and  N_55
                            x       y       z     vdW  Elec       q    Type
                         _______ _______ _______ _____ _____    ______ ____

>  <TORSDO>
F 18

$$$$
=
 OpenBabel11042412243D

 60 71  0  0  1  0  0  0  0  0999 V2000
  188.3780  176.3530  136.0380 N   0  0  0  0  0  0  0  0  0  0  0  0
  189.6820  176.6880  138.2670 C   0  0  1  0  0  3  0  0  0  0  0  0
  189.5660  178.4580  136.4430 C   0  0  0  0  0  1  0  0  0  0  0  0
  189.5240  176.9650  136.7500 C   0  0  2  0  0  0  0  0  0  0  0  0
  189.0660  177.3990  140.4270 C   0  0  2  0  0  3  0  0  0  0  0  0
  189.2490  174.1250  135.1110 C   0  0  0  0  0  1  0  0  0  0  0  0
  192.0360  176.4970  138.9050 C   0  0  1  0  0  3  0  0  0  0  0  0
  193.6310  176.4690  136.8770 N   0  0  0  0  0  0  0  0  0  0  0  0
  190.4600  177.8900  140.1230 C   0  0  0  0  0  2  0  0  0  0  0  0
  190.5510  176.2320  135.8860 C   0  0  1  0  0  3  0  0  0  0  0  0
  190.8600  177.4020  138.7950 N   0  0  2  0  0  0  0  0  0  0  0  0
  191.3790  175.1860  136.6480 C   0  0  0  0  0  2  0  0  0  0  0  0
  188.4820  177.1240  139.0770 C   0  0  0  0  0  2  0  0  0  0  0  0
  192.4360  175.8680  137.5280 C   0  0  2  0  0  0  0  0  0  0  0  0
  189.3390  175.6620  135.1530 C   0  0  2  0  0  3  0  0  0  0  0  0
  193.6950  175.1360  137.5100 C   0  0  0  0  0  2  0  0  0  0  0  0
  187.6030  177.7790  142.3550 C   0  0  0  0  0  2  0  0  0  0  0  0
  188.2010  178.4140  141.1600 C   0  0  1  0  0  3  0  0  0  0  0  0
  188.6910  178.6570  142.4580 O   0  0  0  0  0  0  0  0  0  0  0  0
  193.5990  176.9740  140.7920 C   0  0  0  0  0  2  0  0  0  0  0  0
  193.2210  177.2030  139.5390 C   0  0  0  0  0  3  0  0  0  0  0  0
  187.5460  175.4410  136.8320 C   0  0  0  0  0  2  0  0  0  0  0  0
  183.6520  175.6300  137.1610 C   0  0  2  0  0  0  0  0  0  0  0  0
  184.7940  177.1060  135.4440 C   0  0  0  0  0  2  0  0  0  0  0  0
  185.4470  176.7330  136.7660 C   0  0  1  0  0  0  0  0  0  0  0  0
  185.1090  175.3050  137.3480 C   0  0  2  0  0  0  0  0  0  0  0  0
  184.2040  174.4170  136.5910 N   0  0  0  0  0  2  0  0  0  0  0  0
  186.1340  175.5070  136.2830 C   0  0  2  0  0  3  0  0  0  0  0  0
  183.9500  177.0130  136.6630 C   0  0  2  0  0  3  0  0  0  0  0  0
  182.9680  175.4860  138.4360 N   0  0  0  0  0  2  0  0  0  0  0  0
  181.8580  176.4360  138.4080 C   0  0  2  0  0  3  0  0  0  0  0  0
  183.1940  178.6310  141.3680 C   0  0  0  0  0  2  0  0  0  0  0  0
  180.7840  178.0160  139.9760 C   0  0  0  0  0  3  0  0  0  0  0  0
  183.1880  177.4850  140.3570 C   0  0  0  0  0  2  0  0  0  0  0  0
  181.9160  177.4140  139.5520 C   0  0  0  0  0  0  0  0  0  0  0  0
  181.9370  179.6270  143.1280 O   0  0  0  0  0  1  0  0  0  0  0  0
  180.7420  178.9310  141.1750 C   0  0  1  0  0  3  0  0  0  0  0  0
  179.5270  178.7900  141.8140 F   0  0  0  0  0  0  0  0  0  0  0  0
  181.8860  178.6420  142.1430 C   0  0  1  0  0  3  0  0  0  0  0  0
  180.5690  175.7510  138.2850 N   0  0  0  0  0  2  0  0  0  0  0  0
  179.5200  173.8350  138.8990 N   0  0  0  0  0  2  0  0  0  0  0  0
  179.7960  173.7630  137.5060 C   0  0  1  0  0  3  0  0  0  0  0  0
  180.7510  174.3580  138.3750 N   0  0  0  0  0  0  0  0  0  0  0  0
  180.1800  172.3960  137.1800 N   0  0  0  0  0  2  0  0  0  0  0  0
  181.1010  170.7370  134.6240 C   0  0  0  0  0  2  0  0  0  0  0  0
  181.3070  172.2090  134.9580 C   0  0  0  0  0  2  0  0  0  0  0  0
  183.2140  170.5620  136.0840 C   0  0  0  0  0  2  0  0  0  0  0  0
  182.3830  171.3320  137.1170 C   0  0  0  0  0  2  0  0  0  0  0  0
  182.3240  169.8910  135.0260 C   0  0  0  0  0  2  0  0  0  0  0  0
  181.4720  172.4040  136.4800 C   0  0  0  0  0  3  0  0  0  0  0  0
  193.6680  176.2490  135.4320 C   0  0  0  0  0  2  0  0  0  0  0  0
  195.0920  175.9270  135.0160 C   0  0  0  0  0  2  0  0  0  0  0  0
  195.3450  174.4190  134.9720 C   0  0  0  0  0  2  0  0  0  0  0  0
  196.7840  174.0470  135.3400 C   0  0  1  0  0  3  0  0  0  0  0  0
  197.1450  174.3910  137.7090 O   0  0  0  0  0  1  0  0  0  0  0  0
  198.6660  175.2450  136.2280 O   0  0  0  0  0  1  0  0  0  0  0  0
  197.3150  174.9660  136.4470 C   0  0  0  0  0  3  0  0  0  0  0  0
  196.9160  172.5650  135.7020 C   0  0  0  0  0  2  0  0  0  0  0  0
  195.4680  170.8940  135.7670 C   0  0  0  0  0  1  0  0  0  0  0  0
  196.0960  171.7770  134.8880 O   0  0  0  0  0  0  0  0  0  0  0  0
  1  4  1  0  0  0  0
  1 22  1  0  0  0  0
  2 11  1  0  0  0  0
  2 13  1  1  0  0  0
  4  3  1  6  0  0  0
  4  2  1  0  0  0  0
  5 13  1  6  0  0  0
  5 18  1  0  0  0  0
  7 21  1  6  0  0  0
  8 16  1  0  0  0  0
  8 14  1  0  0  0  0
  9  5  1  0  0  0  0
 10 12  1  1  0  0  0
 10  4  1  0  0  0  0
 11  7  1  0  0  0  0
 11  9  1  1  0  0  0
 14 12  1  6  0  0  0
 14  7  1  0  0  0  0
 15  6  1  1  0  0  0
 15 10  1  0  0  0  0
 15  1  1  0  0  0  0
 16 14  1  0  0  0  0
 17 19  1  0  0  0  0
 18 17  1  1  0  0  0
 18 19  1  0  0  0  0
 21 20  2  0  0  0  0
 23 26  1  0  0  0  0
 23 30  1  1  0  0  0
 25 24  1  6  0  0  0
 25 26  1  0  0  0  0
 26 27  1  6  0  0  0
 27 23  1  0  0  0  0
 28 25  1  0  0  0  0
 28 22  1  1  0  0  0
 28 26  1  0  0  0  0
 29 24  1  6  0  0  0
 29 25  1  0  0  0  0
 29 23  1  0  0  0  0
 31 40  1  1  0  0  0
 31 30  1  0  0  0  0
 31 35  1  0  0  0  0
 32 39  1  0  0  0  0
 33 37  1  0  0  0  0
 34 32  1  0  0  0  0
 35 33  2  0  0  0  0
 35 34  1  0  0  0  0
 37 38  1  1  0  0  0
 37 39  1  0  0  0  0
 39 36  1  1  0  0  0
 40 43  1  0  0  0  0
 42 44  1  1  0  0  0
 42 43  1  0  0  0  0
 42 41  1  0  0  0  0
 43 41  1  0  0  0  0
 45 46  1  0  0  0  0
 45 49  1  0  0  0  0
 46 50  1  0  0  0  0
 47 48  1  0  0  0  0
 49 47  1  0  0  0  0
 50 48  1  0  0  0  0
 50 44  1  0  0  0  0
 51  8  1  0  0  0  0
 52 51  1  0  0  0  0
 53 52  1  0  0  0  0
 54 53  1  1  0  0  0
 54 58  1  0  0  0  0
 54 57  1  0  0  0  0
 56 57  1  0  0  0  0
 57 55  1  0  0  0  0
 60 58  1  0  0  0  0
 60 59  1  0  0  0  0
M  END
>  <MODEL>
5

>  <REMARK>
 VINA RESULT:      -5.1      3.308     11.812
  Name = 
  18 active torsions:
  status: ('A' for Active; 'I' for Inactive)
    1  A    between atoms: N_1  and  C_28
    2  A    between atoms: C_3  and  C_29
    3  A    between atoms: C_3  and  C_38
    4  A    between atoms: C_3  and  C_47
    5  A    between atoms: N_7  and  C_36
    6  A    between atoms: N_7  and  C_53
    7  A    between atoms: C_10  and  C_11
    8  A    between atoms: C_10  and  C_47
    9  A    between atoms: C_11  and  N_25
   10  A    between atoms: C_15  and  N_30
   11  A    between atoms: C_17  and  C_58
   12  A    between atoms: C_20  and  C_35
   13  A    between atoms: C_21  and  C_39
   14  A    between atoms: C_28  and  C_56
   15  A    between atoms: C_29  and  O_51
   16  A    between atoms: N_30  and  C_35
   17  A    between atoms: C_35  and  N_42
   18  A    between atoms: N_42  and  N_55
                            x       y       z     vdW  Elec       q    Type
                         _______ _______ _______ _____ _____    ______ ____

>  <TORSDO>
F 18

$$$$
=
 OpenBabel11042412243D

 60 71  0  0  1  0  0  0  0  0999 V2000
  188.8120  176.8760  142.1340 N   0  0  0  0  0  0  0  0  0  0  0  0
  189.1910  177.3020  144.6750 C   0  0  1  0  0  3  0  0  0  0  0  0
  188.0470  175.2180  143.7680 C   0  0  0  0  0  1  0  0  0  0  0  0
  188.3440  176.6940  143.5270 C   0  0  2  0  0  0  0  0  0  0  0  0
  190.9960  176.9260  146.1400 C   0  0  2  0  0  3  0  0  0  0  0  0
  187.6590  179.0060  141.2890 C   0  0  0  0  0  1  0  0  0  0  0  0
  187.7790  178.1410  146.4870 C   0  0  1  0  0  3  0  0  0  0  0  0
  185.2660  178.1130  145.9030 N   0  0  0  0  0  0  0  0  0  0  0  0
  189.7020  176.7080  146.8830 C   0  0  0  0  0  2  0  0  0  0  0  0
  187.0380  177.4480  143.2690 C   0  0  1  0  0  3  0  0  0  0  0  0
  188.5770  176.9930  145.9800 N   0  0  2  0  0  0  0  0  0  0  0  0
  186.9270  178.7850  144.0160 C   0  0  0  0  0  2  0  0  0  0  0  0
  190.6110  176.7830  144.7020 C   0  0  0  0  0  2  0  0  0  0  0  0
  186.6300  178.5500  145.5040 C   0  0  2  0  0  0  0  0  0  0  0  0
  187.5420  177.5700  141.8320 C   0  0  2  0  0  3  0  0  0  0  0  0
  185.6780  179.5260  146.0170 C   0  0  0  0  0  2  0  0  0  0  0  0
  192.4580  176.0580  147.9040 C   0  0  0  0  0  2  0  0  0  0  0  0
  192.0810  175.9150  146.4810 C   0  0  1  0  0  3  0  0  0  0  0  0
  191.6400  175.0080  147.4650 O   0  0  0  0  0  0  0  0  0  0  0  0
  187.9300  178.0890  148.9790 C   0  0  0  0  0  2  0  0  0  0  0  0
  187.2270  177.8630  147.8730 C   0  0  0  0  0  3  0  0  0  0  0  0
  190.0000  177.7210  141.9640 C   0  0  0  0  0  2  0  0  0  0  0  0
  191.6870  176.6470  138.6020 C   0  0  2  0  0  0  0  0  0  0  0  0
  193.1740  177.1630  140.5900 C   0  0  0  0  0  2  0  0  0  0  0  0
  191.8550  177.8790  140.3460 C   0  0  1  0  0  0  0  0  0  0  0  0
  190.7040  177.0380  139.6700 C   0  0  2  0  0  0  0  0  0  0  0  0
  190.9550  175.6250  139.3240 N   0  0  0  0  0  2  0  0  0  0  0  0
  191.0020  176.9470  141.1290 C   0  0  2  0  0  3  0  0  0  0  0  0
  192.7780  177.4880  139.1960 C   0  0  2  0  0  3  0  0  0  0  0  0
  191.1520  177.0240  137.3030 N   0  0  0  0  0  2  0  0  0  0  0  0
  191.1610  175.8070  136.4940 C   0  0  2  0  0  3  0  0  0  0  0  0
  194.4530  173.7950  135.8040 C   0  0  0  0  0  2  0  0  0  0  0  0
  193.3130  176.3790  135.4220 C   0  0  0  0  0  3  0  0  0  0  0  0
  193.1270  174.1330  136.4840 C   0  0  0  0  0  2  0  0  0  0  0  0
  192.5460  175.4460  136.0250 C   0  0  0  0  0  0  0  0  0  0  0  0
  196.6140  174.6610  135.3020 O   0  0  0  0  0  1  0  0  0  0  0  0
  194.7430  176.1250  135.0120 C   0  0  1  0  0  3  0  0  0  0  0  0
  195.4710  177.2890  135.1510 F   0  0  0  0  0  0  0  0  0  0  0  0
  195.3720  175.0050  135.8360 C   0  0  1  0  0  3  0  0  0  0  0  0
  190.1730  175.8730  135.4140 N   0  0  0  0  0  2  0  0  0  0  0  0
  189.2070  174.1610  136.5470 N   0  0  0  0  0  2  0  0  0  0  0  0
  188.2290  174.7310  135.6880 C   0  0  1  0  0  3  0  0  0  0  0  0
  189.5710  174.6130  135.2330 N   0  0  0  0  0  0  0  0  0  0  0  0
  187.4070  173.6580  135.1440 N   0  0  0  0  0  2  0  0  0  0  0  0
  184.9290  171.6620  135.2370 C   0  0  0  0  0  2  0  0  0  0  0  0
  186.3620  171.4600  135.7100 C   0  0  0  0  0  2  0  0  0  0  0  0
  184.7690  172.7190  137.5790 C   0  0  0  0  0  2  0  0  0  0  0  0
  185.9550  173.5710  137.1120 C   0  0  0  0  0  2  0  0  0  0  0  0
  184.0100  172.1040  136.3920 C   0  0  0  0  0  2  0  0  0  0  0  0
  186.9540  172.7850  136.2350 C   0  0  0  0  0  3  0  0  0  0  0  0
  184.3370  178.0370  144.7770 C   0  0  0  0  0  2  0  0  0  0  0  0
  183.5480  179.3320  144.6960 C   0  0  0  0  0  2  0  0  0  0  0  0
  183.2990  179.7570  143.2480 C   0  0  0  0  0  2  0  0  0  0  0  0
  182.7270  178.6260  142.3880 C   0  0  1  0  0  3  0  0  0  0  0  0
  180.9700  178.2260  140.7720 O   0  0  0  0  0  1  0  0  0  0  0  0
  180.3900  178.7620  142.9190 O   0  0  0  0  0  1  0  0  0  0  0  0
  181.3170  178.9770  141.8980 C   0  0  0  0  0  3  0  0  0  0  0  0
  183.6660  178.2530  141.2380 C   0  0  0  0  0  2  0  0  0  0  0  0
  184.1480  179.4400  139.4350 C   0  0  0  0  0  1  0  0  0  0  0  0
  184.3950  179.3660  140.8070 O   0  0  0  0  0  0  0  0  0  0  0  0
  1  4  1  0  0  0  0
  2 13  1  1  0  0  0
  2 11  1  0  0  0  0
  4  3  1  1  0  0  0
  4  2  1  0  0  0  0
  5 13  1  6  0  0  0
  5 18  1  0  0  0  0
  5  9  1  0  0  0  0
  7 21  1  1  0  0  0
  8 16  1  0  0  0  0
 10  4  1  0  0  0  0
 10 12  1  1  0  0  0
 11  7  1  0  0  0  0
 11  9  1  1  0  0  0
 14 12  1  6  0  0  0
 14  8  1  0  0  0  0
 14 16  1  0  0  0  0
 14  7  1  0  0  0  0
 15  6  1  1  0  0  0
 15  1  1  0  0  0  0
 15 10  1  0  0  0  0
 18 19  1  0  0  0  0
 18 17  1  1  0  0  0
 19 17  1  0  0  0  0
 21 20  2  0  0  0  0
 22  1  1  0  0  0  0
 23 30  1  6  0  0  0
 23 29  1  0  0  0  0
 23 27  1  0  0  0  0
 23 26  1  0  0  0  0
 25 24  1  6  0  0  0
 25 28  1  0  0  0  0
 26 27  1  1  0  0  0
 26 25  1  0  0  0  0
 26 28  1  0  0  0  0
 28 22  1  1  0  0  0
 29 25  1  0  0  0  0
 29 24  1  1  0  0  0
 31 40  1  6  0  0  0
 31 30  1  0  0  0  0
 32 39  1  0  0  0  0
 32 34  1  0  0  0  0
 33 35  2  0  0  0  0
 35 34  1  0  0  0  0
 35 31  1  0  0  0  0
 37 38  1  1  0  0  0
 37 33  1  0  0  0  0
 37 39  1  0  0  0  0
 39 36  1  6  0  0  0
 42 44  1  6  0  0  0
 42 41  1  0  0  0  0
 43 40  1  0  0  0  0
 43 42  1  0  0  0  0
 43 41  1  0  0  0  0
 44 50  1  0  0  0  0
 45 46  1  0  0  0  0
 45 49  1  0  0  0  0
 46 50  1  0  0  0  0
 48 47  1  0  0  0  0
 49 47  1  0  0  0  0
 50 48  1  0  0  0  0
 51  8  1  0  0  0  0
 52 51  1  0  0  0  0
 53 52  1  0  0  0  0
 54 58  1  6  0  0  0
 54 53  1  0  0  0  0
 55 57  1  0  0  0  0
 57 54  1  0  0  0  0
 57 56  1  0  0  0  0
 59 60  1  0  0  0  0
 60 58  1  0  0  0  0
M  END
>  <MODEL>
6

>  <REMARK>
 VINA RESULT:      -5.0      3.259      8.139
  Name = 
  18 active torsions:
  status: ('A' for Active; 'I' for Inactive)
    1  A    between atoms: N_1  and  C_28
    2  A    between atoms: C_3  and  C_29
    3  A    between atoms: C_3  and  C_38
    4  A    between atoms: C_3  and  C_47
    5  A    between atoms: N_7  and  C_36
    6  A    between atoms: N_7  and  C_53
    7  A    between atoms: C_10  and  C_11
    8  A    between atoms: C_10  and  C_47
    9  A    between atoms: C_11  and  N_25
   10  A    between atoms: C_15  and  N_30
   11  A    between atoms: C_17  and  C_58
   12  A    between atoms: C_20  and  C_35
   13  A    between atoms: C_21  and  C_39
   14  A    between atoms: C_28  and  C_56
   15  A    between atoms: C_29  and  O_51
   16  A    between atoms: N_30  and  C_35
   17  A    between atoms: C_35  and  N_42
   18  A    between atoms: N_42  and  N_55
                            x       y       z     vdW  Elec       q    Type
                         _______ _______ _______ _____ _____    ______ ____

>  <TORSDO>
F 18

$$$$
=
 OpenBabel11042412243D

 60 71  0  0  1  0  0  0  0  0999 V2000
  185.6190  176.7620  136.3010 N   0  0  0  0  0  0  0  0  0  0  0  0
  183.8290  174.8930  136.5920 C   0  0  1  0  0  3  0  0  0  0  0  0
  183.8770  176.4750  134.6010 C   0  0  0  0  0  1  0  0  0  0  0  0
  184.2310  176.2970  136.0730 C   0  0  2  0  0  0  0  0  0  0  0  0
  183.7710  172.5950  136.0760 C   0  0  2  0  0  3  0  0  0  0  0  0
  185.5600  178.0600  138.5130 C   0  0  0  0  0  1  0  0  0  0  0  0
  181.5220  174.8590  137.4030 C   0  0  1  0  0  3  0  0  0  0  0  0
  180.4550  177.2060  137.5030 N   0  0  0  0  0  0  0  0  0  0  0  0
  182.3960  173.1820  135.8760 C   0  0  0  0  0  2  0  0  0  0  0  0
  183.6310  177.4430  136.8900 C   0  0  1  0  0  3  0  0  0  0  0  0
  182.4240  174.6040  136.2480 N   0  0  2  0  0  0  0  0  0  0  0  0
  182.9540  176.9960  138.1950 C   0  0  0  0  0  2  0  0  0  0  0  0
  184.6790  173.7830  136.0160 C   0  0  0  0  0  2  0  0  0  0  0  0
  181.5970  176.3410  137.9030 C   0  0  2  0  0  0  0  0  0  0  0  0
  185.0760  177.9090  137.0590 C   0  0  2  0  0  3  0  0  0  0  0  0
  180.5980  176.7250  138.8910 C   0  0  0  0  0  2  0  0  0  0  0  0
  184.1250  170.2240  135.5710 C   0  0  0  0  0  2  0  0  0  0  0  0
  184.1740  171.5900  135.0060 C   0  0  1  0  0  3  0  0  0  0  0  0
  183.1190  170.7010  134.7200 O   0  0  0  0  0  0  0  0  0  0  0  0
  179.6800  173.2060  137.0710 C   0  0  0  0  0  2  0  0  0  0  0  0
  180.0890  174.4710  137.0820 C   0  0  0  0  0  3  0  0  0  0  0  0
  186.4660  175.8730  137.1040 C   0  0  0  0  0  2  0  0  0  0  0  0
  189.7870  177.5350  138.3360 C   0  0  2  0  0  0  0  0  0  0  0  0
  189.9320  175.3680  137.0260 C   0  0  0  0  0  2  0  0  0  0  0  0
  188.7730  175.6860  137.9570 C   0  0  1  0  0  0  0  0  0  0  0  0
  188.3450  177.2010  138.0700 C   0  0  2  0  0  0  0  0  0  0  0  0
  189.0690  178.2120  137.2740 N   0  0  0  0  0  2  0  0  0  0  0  0
  187.9020  176.3320  136.9400 C   0  0  2  0  0  3  0  0  0  0  0  0
  190.2040  176.0950  138.2930 C   0  0  2  0  0  3  0  0  0  0  0  0
  189.8820  178.2450  139.6010 N   0  0  0  0  0  2  0  0  0  0  0  0
  189.6710  177.2440  140.6440 C   0  0  2  0  0  3  0  0  0  0  0  0
  187.0420  177.1190  143.5480 C   0  0  0  0  0  2  0  0  0  0  0  0
  187.8060  178.7190  141.3180 C   0  0  0  0  0  3  0  0  0  0  0  0
  188.0740  176.5760  142.5600 C   0  0  0  0  0  2  0  0  0  0  0  0
  188.5320  177.6070  141.5610 C   0  0  0  0  0  0  0  0  0  0  0  0
  184.9730  178.2890  143.6950 O   0  0  0  0  0  1  0  0  0  0  0  0
  186.5920  179.0990  142.1290 C   0  0  1  0  0  3  0  0  0  0  0  0
  185.6740  179.7240  141.3100 F   0  0  0  0  0  0  0  0  0  0  0  0
  185.9610  177.8810  142.7990 C   0  0  1  0  0  3  0  0  0  0  0  0
  190.9170  176.9320  141.3490 N   0  0  0  0  0  2  0  0  0  0  0  0
  192.0070  176.9490  143.3390 N   0  0  0  0  0  2  0  0  0  0  0  0
  191.2630  178.1550  143.2310 C   0  0  1  0  0  3  0  0  0  0  0  0
  190.7010  176.9450  142.7400 N   0  0  0  0  0  0  0  0  0  0  0  0
  190.7140  178.4810  144.5410 N   0  0  0  0  0  2  0  0  0  0  0  0
  189.1180  178.0340  147.2580 C   0  0  0  0  0  2  0  0  0  0  0  0
  189.1230  177.2030  145.9810 C   0  0  0  0  0  2  0  0  0  0  0  0
  191.1990  176.5810  147.6900 C   0  0  0  0  0  2  0  0  0  0  0  0
  191.6640  177.1050  146.3270 C   0  0  0  0  0  2  0  0  0  0  0  0
  190.1060  177.4740  148.2990 C   0  0  0  0  0  2  0  0  0  0  0  0
  190.5120  177.2460  145.3100 C   0  0  0  0  0  3  0  0  0  0  0  0
  180.7820  178.6310  137.5170 C   0  0  0  0  0  2  0  0  0  0  0  0
  179.7270  179.3910  136.7330 C   0  0  0  0  0  2  0  0  0  0  0  0
  180.1510  180.8350  136.4610 C   0  0  0  0  0  2  0  0  0  0  0  0
  179.4450  181.8420  137.3730 C   0  0  1  0  0  3  0  0  0  0  0  0
  179.8810  181.3400  139.7010 O   0  0  0  0  0  1  0  0  0  0  0  0
  181.6390  181.8980  138.3480 O   0  0  0  0  0  1  0  0  0  0  0  0
  180.2890  182.1280  138.6210 C   0  0  0  0  0  3  0  0  0  0  0  0
  179.0630  183.1210  136.6240 C   0  0  0  0  0  2  0  0  0  0  0  0
  179.7510  185.2180  136.4640 C   0  0  0  0  0  1  0  0  0  0  0  0
  179.3520  184.2540  137.3920 O   0  0  0  0  0  0  0  0  0  0  0  0
  1 15  1  0  0  0  0
  1 22  1  0  0  0  0
  2 13  1  6  0  0  0
  4  3  1  6  0  0  0
  4  1  1  0  0  0  0
  4  2  1  0  0  0  0
  4 10  1  0  0  0  0
  5  9  1  6  0  0  0
  7 21  1  6  0  0  0
  7 14  1  0  0  0  0
  8 51  1  0  0  0  0
  8 14  1  0  0  0  0
  8 16  1  0  0  0  0
 10 15  1  0  0  0  0
 10 12  1  1  0  0  0
 11  9  1  1  0  0  0
 11  2  1  0  0  0  0
 11  7  1  0  0  0  0
 13  5  1  0  0  0  0
 14 12  1  1  0  0  0
 14 16  1  0  0  0  0
 15  6  1  1  0  0  0
 18 17  1  1  0  0  0
 18  5  1  0  0  0  0
 19 18  1  0  0  0  0
 19 17  1  0  0  0  0
 20 21  2  0  0  0  0
 23 30  1  1  0  0  0
 25 24  1  6  0  0  0
 25 26  1  0  0  0  0
 25 29  1  0  0  0  0
 26 27  1  6  0  0  0
 26 23  1  0  0  0  0
 27 23  1  0  0  0  0
 28 22  1  1  0  0  0
 28 25  1  0  0  0  0
 28 26  1  0  0  0  0
 29 24  1  6  0  0  0
 29 23  1  0  0  0  0
 31 30  1  6  0  0  0
 31 40  1  0  0  0  0
 31 35  1  0  0  0  0
 33 35  2  0  0  0  0
 33 37  1  0  0  0  0
 34 32  1  0  0  0  0
 35 34  1  0  0  0  0
 37 38  1  6  0  0  0
 37 39  1  0  0  0  0
 39 32  1  0  0  0  0
 39 36  1  1  0  0  0
 40 43  1  0  0  0  0
 42 41  1  0  0  0  0
 42 44  1  1  0  0  0
 43 42  1  0  0  0  0
 43 41  1  0  0  0  0
 44 50  1  0  0  0  0
 45 49  1  0  0  0  0
 46 45  1  0  0  0  0
 47 49  1  0  0  0  0
 48 47  1  0  0  0  0
 50 46  1  0  0  0  0
 50 48  1  0  0  0  0
 52 51  1  0  0  0  0
 53 52  1  0  0  0  0
 54 53  1  6  0  0  0
 54 57  1  0  0  0  0
 56 57  1  0  0  0  0
 57 55  1  0  0  0  0
 58 54  1  0  0  0  0
 58 60  1  0  0  0  0
 59 60  1  0  0  0  0
M  END
>  <MODEL>
7

>  <REMARK>
 VINA RESULT:      -4.9      3.051      4.862
  Name = 
  18 active torsions:
  status: ('A' for Active; 'I' for Inactive)
    1  A    between atoms: N_1  and  C_28
    2  A    between atoms: C_3  and  C_29
    3  A    between atoms: C_3  and  C_38
    4  A    between atoms: C_3  and  C_47
    5  A    between atoms: N_7  and  C_36
    6  A    between atoms: N_7  and  C_53
    7  A    between atoms: C_10  and  C_11
    8  A    between atoms: C_10  and  C_47
    9  A    between atoms: C_11  and  N_25
   10  A    between atoms: C_15  and  N_30
   11  A    between atoms: C_17  and  C_58
   12  A    between atoms: C_20  and  C_35
   13  A    between atoms: C_21  and  C_39
   14  A    between atoms: C_28  and  C_56
   15  A    between atoms: C_29  and  O_51
   16  A    between atoms: N_30  and  C_35
   17  A    between atoms: C_35  and  N_42
   18  A    between atoms: N_42  and  N_55
                            x       y       z     vdW  Elec       q    Type
                         _______ _______ _______ _____ _____    ______ ____

>  <TORSDO>
F 18

$$$$
=
 OpenBabel11042412243D

 60 71  0  0  1  0  0  0  0  0999 V2000
  188.3270  177.1180  141.9510 N   0  0  0  0  0  0  0  0  0  0  0  0
  188.9680  177.4450  144.4540 C   0  0  1  0  0  3  0  0  0  0  0  0
  187.8500  175.3390  143.5670 C   0  0  0  0  0  1  0  0  0  0  0  0
  188.0320  176.8400  143.3760 C   0  0  2  0  0  0  0  0  0  0  0  0
  190.9480  177.1130  145.6870 C   0  0  2  0  0  3  0  0  0  0  0  0
  186.9640  179.2100  141.3580 C   0  0  0  0  0  1  0  0  0  0  0  0
  187.7270  178.1050  146.4550 C   0  0  1  0  0  3  0  0  0  0  0  0
  185.1700  177.9460  146.1540 N   0  0  0  0  0  0  0  0  0  0  0  0
  189.7610  176.7780  146.5560 C   0  0  0  0  0  2  0  0  0  0  0  0
  186.6640  177.5220  143.3060 C   0  0  1  0  0  3  0  0  0  0  0  0
  188.5270  177.0350  145.8000 N   0  0  2  0  0  0  0  0  0  0  0  0
  186.5630  178.8120  144.1340 C   0  0  0  0  0  2  0  0  0  0  0  0
  190.4090  177.0160  144.2950 C   0  0  0  0  0  2  0  0  0  0  0  0
  186.4520  178.4870  145.6300 C   0  0  2  0  0  0  0  0  0  0  0  0
  186.9930  177.7450  141.8320 C   0  0  2  0  0  3  0  0  0  0  0  0
  185.5110  179.3750  146.2980 C   0  0  0  0  0  2  0  0  0  0  0  0
  192.4140  175.9780  147.2880 C   0  0  0  0  0  2  0  0  0  0  0  0
  192.1200  176.1570  145.8490 C   0  0  1  0  0  3  0  0  0  0  0  0
  191.7380  174.9960  146.5500 O   0  0  0  0  0  0  0  0  0  0  0  0
  187.9670  178.2440  148.9370 C   0  0  0  0  0  2  0  0  0  0  0  0
  187.3540  177.7260  147.8770 C   0  0  0  0  0  3  0  0  0  0  0  0
  189.4380  178.0440  141.6980 C   0  0  0  0  0  2  0  0  0  0  0  0
  189.2850  176.3730  138.1630 C   0  0  2  0  0  0  0  0  0  0  0  0
  189.8040  178.8510  138.3090 C   0  0  0  0  0  2  0  0  0  0  0  0
  188.8860  178.1480  139.2960 C   0  0  1  0  0  0  0  0  0  0  0  0
  189.2300  176.6470  139.6410 C   0  0  2  0  0  0  0  0  0  0  0  0
  190.4060  176.0160  139.0100 N   0  0  0  0  0  2  0  0  0  0  0  0
  189.9350  177.7920  140.2870 C   0  0  2  0  0  3  0  0  0  0  0  0
  188.9010  177.7810  137.8150 C   0  0  2  0  0  3  0  0  0  0  0  0
  188.3540  175.3020  137.8450 N   0  0  0  0  0  2  0  0  0  0  0  0
  188.5230  175.0310  136.4190 C   0  0  2  0  0  3  0  0  0  0  0  0
  191.9300  173.1240  136.0850 C   0  0  0  0  0  2  0  0  0  0  0  0
  190.7190  175.6240  135.4510 C   0  0  0  0  0  3  0  0  0  0  0  0
  190.5500  173.4480  136.6530 C   0  0  0  0  0  2  0  0  0  0  0  0
  189.9500  174.7000  136.0660 C   0  0  0  0  0  0  0  0  0  0  0  0
  194.0850  174.0480  135.6640 O   0  0  0  0  0  1  0  0  0  0  0  0
  192.1810  175.4060  135.1530 C   0  0  1  0  0  3  0  0  0  0  0  0
  192.8520  176.6080  135.2570 F   0  0  0  0  0  0  0  0  0  0  0  0
  192.7970  174.3730  136.0920 C   0  0  1  0  0  3  0  0  0  0  0  0
  187.9470  176.0990  135.5980 N   0  0  0  0  0  2  0  0  0  0  0  0
  185.9860  176.9130  134.7970 N   0  0  0  0  0  2  0  0  0  0  0  0
  185.8230  175.5220  135.0390 C   0  0  1  0  0  3  0  0  0  0  0  0
  186.5970  176.3000  135.9440 N   0  0  0  0  0  0  0  0  0  0  0  0
  184.4850  175.2980  135.5710 N   0  0  0  0  0  2  0  0  0  0  0  0
  185.6000  173.0820  137.5660 C   0  0  0  0  0  2  0  0  0  0  0  0
  184.1840  173.3110  137.0550 C   0  0  0  0  0  2  0  0  0  0  0  0
  185.7330  171.8120  135.3310 C   0  0  0  0  0  2  0  0  0  0  0  0
  185.2420  173.1300  134.7230 C   0  0  0  0  0  2  0  0  0  0  0  0
  186.3390  172.0210  136.7280 C   0  0  0  0  0  2  0  0  0  0  0  0
  184.2080  173.8560  135.6110 C   0  0  0  0  0  3  0  0  0  0  0  0
  184.1240  177.8660  145.1350 C   0  0  0  0  0  2  0  0  0  0  0  0
  183.2870  179.1320  145.1830 C   0  0  0  0  0  2  0  0  0  0  0  0
  182.8220  179.5590  143.7900 C   0  0  0  0  0  2  0  0  0  0  0  0
  181.7540  178.6270  143.2090 C   0  0  1  0  0  3  0  0  0  0  0  0
  179.7140  179.9280  143.1550 O   0  0  0  0  0  1  0  0  0  0  0  0
  179.6110  177.7490  143.8440 O   0  0  0  0  0  1  0  0  0  0  0  0
  180.3850  178.9110  143.8390 C   0  0  0  0  0  3  0  0  0  0  0  0
  181.7140  178.6860  141.6800 C   0  0  0  0  0  2  0  0  0  0  0  0
  183.4210  177.7230  140.6540 C   0  0  0  0  0  1  0  0  0  0  0  0
  182.9840  178.9500  141.1580 O   0  0  0  0  0  0  0  0  0  0  0  0
  1  4  1  0  0  0  0
  2 13  1  6  0  0  0
  2 11  1  0  0  0  0
  4  3  1  1  0  0  0
  4  2  1  0  0  0  0
  5 13  1  6  0  0  0
  5 18  1  0  0  0  0
  5  9  1  0  0  0  0
  7 21  1  1  0  0  0
  8 16  1  0  0  0  0
 10  4  1  0  0  0  0
 10 12  1  1  0  0  0
 11  7  1  0  0  0  0
 11  9  1  1  0  0  0
 14 12  1  6  0  0  0
 14  8  1  0  0  0  0
 14 16  1  0  0  0  0
 14  7  1  0  0  0  0
 15  6  1  1  0  0  0
 15  1  1  0  0  0  0
 15 10  1  0  0  0  0
 18 19  1  0  0  0  0
 18 17  1  1  0  0  0
 19 17  1  0  0  0  0
 21 20  2  0  0  0  0
 22  1  1  0  0  0  0
 23 30  1  6  0  0  0
 23 27  1  0  0  0  0
 23 26  1  0  0  0  0
 25 24  1  6  0  0  0
 25 26  1  0  0  0  0
 25 28  1  0  0  0  0
 26 27  1  6  0  0  0
 26 28  1  0  0  0  0
 28 22  1  1  0  0  0
 29 23  1  0  0  0  0
 29 24  1  6  0  0  0
 29 25  1  0  0  0  0
 31 40  1  6  0  0  0
 31 30  1  0  0  0  0
 32 39  1  0  0  0  0
 32 34  1  0  0  0  0
 33 35  2  0  0  0  0
 35 31  1  0  0  0  0
 35 34  1  0  0  0  0
 37 38  1  1  0  0  0
 37 33  1  0  0  0  0
 37 39  1  0  0  0  0
 39 36  1  6  0  0  0
 40 43  1  0  0  0  0
 41 42  1  0  0  0  0
 41 43  1  0  0  0  0
 42 44  1  1  0  0  0
 42 43  1  0  0  0  0
 44 50  1  0  0  0  0
 46 45  1  0  0  0  0
 47 49  1  0  0  0  0
 48 47  1  0  0  0  0
 48 50  1  0  0  0  0
 49 45  1  0  0  0  0
 50 46  1  0  0  0  0
 51 52  1  0  0  0  0
 51  8  1  0  0  0  0
 53 52  1  0  0  0  0
 54 58  1  6  0  0  0
 54 53  1  0  0  0  0
 54 57  1  0  0  0  0
 55 57  1  0  0  0  0
 57 56  1  0  0  0  0
 59 60  1  0  0  0  0
 60 58  1  0  0  0  0
M  END
>  <MODEL>
8

>  <REMARK>
 VINA RESULT:      -4.5      2.987      8.082
  Name = 
  18 active torsions:
  status: ('A' for Active; 'I' for Inactive)
    1  A    between atoms: N_1  and  C_28
    2  A    between atoms: C_3  and  C_29
    3  A    between atoms: C_3  and  C_38
    4  A    between atoms: C_3  and  C_47
    5  A    between atoms: N_7  and  C_36
    6  A    between atoms: N_7  and  C_53
    7  A    between atoms: C_10  and  C_11
    8  A    between atoms: C_10  and  C_47
    9  A    between atoms: C_11  and  N_25
   10  A    between atoms: C_15  and  N_30
   11  A    between atoms: C_17  and  C_58
   12  A    between atoms: C_20  and  C_35
   13  A    between atoms: C_21  and  C_39
   14  A    between atoms: C_28  and  C_56
   15  A    between atoms: C_29  and  O_51
   16  A    between atoms: N_30  and  C_35
   17  A    between atoms: C_35  and  N_42
   18  A    between atoms: N_42  and  N_55
                            x       y       z     vdW  Elec       q    Type
                         _______ _______ _______ _____ _____    ______ ____

>  <TORSDO>
F 18

$$$$
=
 OpenBabel11042412243D

 60 71  0  0  1  0  0  0  0  0999 V2000
  187.2840  178.0680  138.0130 N   0  0  0  0  0  0  0  0  0  0  0  0
  186.8090  175.8170  136.7910 C   0  0  1  0  0  3  0  0  0  0  0  0
  187.1510  178.0210  135.5670 C   0  0  0  0  0  1  0  0  0  0  0  0
  186.6830  177.3610  136.8590 C   0  0  2  0  0  0  0  0  0  0  0  0
  188.1670  174.0280  136.0820 C   0  0  2  0  0  3  0  0  0  0  0  0
  185.4140  178.2590  139.7590 C   0  0  0  0  0  1  0  0  0  0  0  0
  184.8050  174.7920  135.8360 C   0  0  1  0  0  3  0  0  0  0  0  0
  182.8780  176.4720  135.4940 N   0  0  0  0  0  0  0  0  0  0  0  0
  187.0480  174.2230  135.0900 C   0  0  0  0  0  2  0  0  0  0  0  0
  185.2710  177.8420  137.2010 C   0  0  1  0  0  3  0  0  0  0  0  0
  186.1730  175.3070  135.5620 N   0  0  2  0  0  0  0  0  0  0  0  0
  184.3180  176.7230  137.6460 C   0  0  0  0  0  2  0  0  0  0  0  0
  188.2440  175.3400  136.7970 C   0  0  0  0  0  2  0  0  0  0  0  0
  183.8640  175.8880  136.4410 C   0  0  2  0  0  0  0  0  0  0  0  0
  185.9430  178.5900  138.3510 C   0  0  2  0  0  3  0  0  0  0  0  0
  182.4570  175.5240  136.5450 C   0  0  0  0  0  2  0  0  0  0  0  0
  190.3850  173.0450  136.4280 C   0  0  0  0  0  2  0  0  0  0  0  0
  189.5120  173.7160  135.4410 C   0  0  1  0  0  3  0  0  0  0  0  0
  189.7490  172.3280  135.4040 O   0  0  0  0  0  0  0  0  0  0  0  0
  183.5050  173.0350  134.6270 C   0  0  0  0  0  2  0  0  0  0  0  0
  184.1860  174.1770  134.5940 C   0  0  0  0  0  3  0  0  0  0  0  0
  187.8620  177.2110  139.0560 C   0  0  0  0  0  2  0  0  0  0  0  0
  188.0360  177.9810  142.8870 C   0  0  2  0  0  0  0  0  0  0  0  0
  189.9980  178.6530  141.4280 C   0  0  0  0  0  2  0  0  0  0  0  0
  189.1530  177.4210  141.1470 C   0  0  1  0  0  0  0  0  0  0  0  0
  187.6220  177.5080  141.5210 C   0  0  2  0  0  0  0  0  0  0  0  0
  187.0960  178.7590  142.1040 N   0  0  0  0  0  2  0  0  0  0  0  0
  188.1650  178.0860  140.2570 C   0  0  2  0  0  3  0  0  0  0  0  0
  189.4960  177.8470  142.5710 C   0  0  2  0  0  3  0  0  0  0  0  0
  187.4610  177.0980  143.8890 N   0  0  0  0  0  2  0  0  0  0  0  0
  187.4830  177.8430  145.1460 C   0  0  2  0  0  3  0  0  0  0  0  0
  191.1550  176.7910  146.0280 C   0  0  0  0  0  2  0  0  0  0  0  0
  188.9480  178.2440  147.0960 C   0  0  0  0  0  3  0  0  0  0  0  0
  189.8030  176.7200  145.3200 C   0  0  0  0  0  2  0  0  0  0  0  0
  188.7960  177.6970  145.8700 C   0  0  0  0  0  0  0  0  0  0  0  0
  192.1880  176.7600  148.1730 O   0  0  0  0  0  1  0  0  0  0  0  0
  190.1940  178.0610  147.9260 C   0  0  1  0  0  3  0  0  0  0  0  0
  189.8500  178.0190  149.2620 F   0  0  0  0  0  0  0  0  0  0  0  0
  190.9490  176.7940  147.5340 C   0  0  1  0  0  3  0  0  0  0  0  0
  186.3170  177.5320  145.9750 N   0  0  0  0  0  2  0  0  0  0  0  0
  184.3470  178.6280  146.2400 N   0  0  0  0  0  2  0  0  0  0  0  0
  185.1000  179.3050  145.2430 C   0  0  1  0  0  3  0  0  0  0  0  0
  185.1340  177.8840  145.2960 N   0  0  0  0  0  0  0  0  0  0  0  0
  184.1880  179.7570  144.2010 N   0  0  0  0  0  2  0  0  0  0  0  0
  182.9630  178.9970  141.3630 C   0  0  0  0  0  2  0  0  0  0  0  0
  183.5630  178.1010  142.4370 C   0  0  0  0  0  2  0  0  0  0  0  0
  180.8990  178.6760  142.8670 C   0  0  0  0  0  2  0  0  0  0  0  0
  181.8210  179.1760  143.9850 C   0  0  0  0  0  2  0  0  0  0  0  0
  181.4280  179.0660  141.4780 C   0  0  0  0  0  2  0  0  0  0  0  0
  183.2710  178.6660  143.8430 C   0  0  0  0  0  3  0  0  0  0  0  0
  182.4010  177.7920  135.9050 C   0  0  0  0  0  2  0  0  0  0  0  0
  181.2410  178.2000  135.0140 C   0  0  0  0  0  2  0  0  0  0  0  0
  180.0190  178.6220  135.8310 C   0  0  0  0  0  2  0  0  0  0  0  0
  180.3420  178.8470  137.3110 C   0  0  1  0  0  3  0  0  0  0  0  0
  181.6090  180.7250  138.1650 O   0  0  0  0  0  1  0  0  0  0  0  0
  180.0950  181.0900  136.4890 O   0  0  0  0  0  1  0  0  0  0  0  0
  180.3720  180.3450  137.6370 C   0  0  0  0  0  3  0  0  0  0  0  0
  179.3940  178.0710  138.2280 C   0  0  0  0  0  2  0  0  0  0  0  0
  179.0390  176.2110  139.3720 C   0  0  0  0  0  1  0  0  0  0  0  0
  179.7480  176.7190  138.2820 O   0  0  0  0  0  0  0  0  0  0  0  0
  1 15  1  0  0  0  0
  1 22  1  0  0  0  0
  2 13  1  6  0  0  0
  2  4  1  0  0  0  0
  4  3  1  6  0  0  0
  4 10  1  0  0  0  0
  4  1  1  0  0  0  0
  5  9  1  6  0  0  0
  5 13  1  0  0  0  0
  7 21  1  6  0  0  0
  7 14  1  0  0  0  0
  8 51  1  0  0  0  0
  8 14  1  0  0  0  0
  8 16  1  0  0  0  0
 10 12  1  1  0  0  0
 10 15  1  0  0  0  0
 11  9  1  1  0  0  0
 11  7  1  0  0  0  0
 11  2  1  0  0  0  0
 14 16  1  1  0  0  0
 14 12  1  0  0  0  0
 15  6  1  1  0  0  0
 18  5  1  0  0  0  0
 18 17  1  1  0  0  0
 19 18  1  0  0  0  0
 19 17  1  0  0  0  0
 21 20  2  0  0  0  0
 23 30  1  1  0  0  0
 25 24  1  1  0  0  0
 25 26  1  0  0  0  0
 25 29  1  0  0  0  0
 26 27  1  1  0  0  0
 26 23  1  0  0  0  0
 27 23  1  0  0  0  0
 28 22  1  6  0  0  0
 28 25  1  0  0  0  0
 28 26  1  0  0  0  0
 29 24  1  6  0  0  0
 29 23  1  0  0  0  0
 31 30  1  6  0  0  0
 31 35  1  0  0  0  0
 31 40  1  0  0  0  0
 32 39  1  0  0  0  0
 33 37  1  0  0  0  0
 34 35  1  0  0  0  0
 34 32  1  0  0  0  0
 35 33  2  0  0  0  0
 37 38  1  1  0  0  0
 39 37  1  0  0  0  0
 39 36  1  1  0  0  0
 42 44  1  6  0  0  0
 42 43  1  0  0  0  0
 42 41  1  0  0  0  0
 43 40  1  0  0  0  0
 43 41  1  0  0  0  0
 45 49  1  0  0  0  0
 45 46  1  0  0  0  0
 46 50  1  0  0  0  0
 47 48  1  0  0  0  0
 49 47  1  0  0  0  0
 50 48  1  0  0  0  0
 50 44  1  0  0  0  0
 52 53  1  0  0  0  0
 52 51  1  0  0  0  0
 54 53  1  6  0  0  0
 54 57  1  0  0  0  0
 54 58  1  0  0  0  0
 56 57  1  0  0  0  0
 57 55  1  0  0  0  0
 58 60  1  0  0  0  0
 60 59  1  0  0  0  0
M  END
>  <MODEL>
9

>  <REMARK>
 VINA RESULT:      -4.4      3.462      6.111
  Name = 
  18 active torsions:
  status: ('A' for Active; 'I' for Inactive)
    1  A    between atoms: N_1  and  C_28
    2  A    between atoms: C_3  and  C_29
    3  A    between atoms: C_3  and  C_38
    4  A    between atoms: C_3  and  C_47
    5  A    between atoms: N_7  and  C_36
    6  A    between atoms: N_7  and  C_53
    7  A    between atoms: C_10  and  C_11
    8  A    between atoms: C_10  and  C_47
    9  A    between atoms: C_11  and  N_25
   10  A    between atoms: C_15  and  N_30
   11  A    between atoms: C_17  and  C_58
   12  A    between atoms: C_20  and  C_35
   13  A    between atoms: C_21  and  C_39
   14  A    between atoms: C_28  and  C_56
   15  A    between atoms: C_29  and  O_51
   16  A    between atoms: N_30  and  C_35
   17  A    between atoms: C_35  and  N_42
   18  A    between atoms: N_42  and  N_55
                            x       y       z     vdW  Elec       q    Type
                         _______ _______ _______ _____ _____    ______ ____

>  <TORSDO>
F 18

$$$$
