=
 OpenBabel11042411363D

 35 37  0  0  1  0  0  0  0  0999 V2000
  182.7770  178.4450  139.6060 C   0  0  2  0  0  3  0  0  0  0  0  0
  181.2670  179.5240  143.5460 C   0  0  0  0  0  3  0  0  0  0  0  0
  180.4510  179.5760  142.4810 C   0  0  0  0  0  3  0  0  0  0  0  0
  183.8980  178.9540  145.5060 N   0  0  0  0  0  0  0  0  0  0  0  0
  180.8210  179.0320  141.1010 C   0  0  1  0  0  3  0  0  0  0  0  0
  184.6660  178.3000  143.4360 C   0  0  0  0  0  0  0  0  0  0  0  0
  182.2540  178.7000  140.9470 N   0  0  0  0  0  0  0  0  0  0  0  0
  183.6630  178.7660  144.1900 C   0  0  0  0  0  0  0  0  0  0  0  0
  184.3390  178.1860  142.1690 O   0  0  0  0  0  0  0  0  0  0  0  0
  183.0780  178.6000  142.1170 C   0  0  0  0  0  0  0  0  0  0  0  0
  182.6020  178.9700  143.3570 C   0  0  0  0  0  0  0  0  0  0  0  0
  180.0160  177.8550  140.8210 N   0  0  0  0  0  1  0  0  0  0  0  0
  186.0360  178.0360  144.3550 S   0  0  0  0  0  0  0  0  0  0  0  0
  185.1880  178.5810  145.7520 C   0  0  0  0  0  0  0  0  0  0  0  0
  185.8030  178.6650  147.1040 C   0  0  0  0  0  2  0  0  0  0  0  0
  187.1340  178.2530  147.0420 O   0  0  0  0  0  1  0  0  0  0  0  0
  183.0270  176.9540  139.4080 C   0  0  0  0  0  2  0  0  0  0  0  0
  181.5620  175.3690  138.9240 C   0  0  0  0  0  1  0  0  0  0  0  0
  182.2160  176.4740  138.3790 O   0  0  0  0  0  0  0  0  0  0  0  0
  184.0320  179.2830  139.3610 C   0  0  0  0  0  2  0  0  0  0  0  0
  185.0900  178.5110  138.5900 C   0  0  0  0  0  2  0  0  0  0  0  0
  186.3860  178.6950  139.2240 N   0  0  0  0  0  2  0  0  0  0  0  0
  187.3200  178.4830  138.2620 O   0  0  0  0  0  0  0  0  0  0  0  0
  188.1040  177.4450  138.7690 C   0  0  0  0  0  2  0  0  0  0  0  0
  189.5650  177.8670  138.8140 C   0  0  1  0  0  3  0  0  0  0  0  0
  189.2540  177.5620  141.2120 C   0  0  0  0  0  3  0  0  0  0  0  0
  191.4800  177.4460  140.3610 O   0  0  0  0  0  1  0  0  0  0  0  0
  190.1080  177.6140  140.1860 C   0  0  0  0  0  0  0  0  0  0  0  0
  189.6120  177.2820  142.5760 N   0  0  0  0  0  0  0  0  0  0  0  0
  189.6730  175.8930  142.9880 C   0  0  0  0  0  1  0  0  0  0  0  0
  190.0120  177.7040  144.9460 C   0  0  0  0  0  1  0  0  0  0  0  0
  189.9760  178.3040  143.5540 C   0  0  0  0  0  2  0  0  0  0  0  0
  190.3590  177.0990  137.7660 C   0  0  0  0  0  2  0  0  0  0  0  0
  190.6670  174.7970  138.1250 O   0  0  0  0  0  0  0  0  0  0  0  0
  189.9240  175.6720  137.7170 C   0  0  0  0  0  3  0  0  0  0  0  0
  1 20  1  1  0  0  0
  1  7  1  0  0  0  0
  3  2  2  0  0  0  0
  4 14  2  0  0  0  0
  5 12  1  1  0  0  0
  5  3  1  0  0  0  0
  6  8  2  0  0  0  0
  6 13  1  0  0  0  0
  7  5  1  0  0  0  0
  7 10  1  0  0  0  0
  8  4  1  0  0  0  0
  9  6  1  0  0  0  0
 10  9  1  0  0  0  0
 10 11  2  0  0  0  0
 11  2  1  0  0  0  0
 11  8  1  0  0  0  0
 13 14  1  0  0  0  0
 14 15  1  0  0  0  0
 16 15  1  0  0  0  0
 17  1  1  0  0  0  0
 19 18  1  0  0  0  0
 19 17  1  0  0  0  0
 21 22  1  0  0  0  0
 21 20  1  0  0  0  0
 23 24  1  0  0  0  0
 23 22  1  0  0  0  0
 24 25  1  0  0  0  0
 25 33  1  6  0  0  0
 25 28  1  0  0  0  0
 26 29  1  0  0  0  0
 28 27  1  0  0  0  0
 28 26  2  0  0  0  0
 29 30  1  0  0  0  0
 29 32  1  0  0  0  0
 32 31  1  0  0  0  0
 35 33  1  0  0  0  0
 35 34  2  0  0  0  0
M  END
>  <MODEL>
1

>  <REMARK>
 VINA RESULT:      -6.8      0.000      0.000
  Name = 
  15 active torsions:
  status: ('A' for Active; 'I' for Inactive)
    1  A    between atoms: N_3  and  C_25
    2  A    between atoms: N_3  and  O_34
    3  A    between atoms: C_6  and  N_10
    4  A    between atoms: C_8  and  C_16
    5  A    between atoms: C_8  and  O_17
    6  A    between atoms: C_9  and  C_35
    7  A    between atoms: N_10  and  C_30
    8  A    between atoms: C_12  and  C_15
    9  A    between atoms: C_15  and  C_21
   10  A    between atoms: C_16  and  N_18
   11  A    between atoms: C_16  and  C_32
   12  A    between atoms: C_21  and  C_29
   13  A    between atoms: C_21  and  C_31
   14  A    between atoms: C_25  and  C_32
   15  A    between atoms: C_31  and  O_34
                            x       y       z     vdW  Elec       q    Type
                         _______ _______ _______ _____ _____    ______ ____

>  <TORSDO>
F 15

$$$$
=
 OpenBabel11042411363D

 35 37  0  0  1  0  0  0  0  0999 V2000
  189.2540  177.0690  145.2730 C   0  0  2  0  0  3  0  0  0  0  0  0
  185.5720  178.3930  147.1860 C   0  0  0  0  0  3  0  0  0  0  0  0
  186.6630  178.1520  147.9310 C   0  0  0  0  0  3  0  0  0  0  0  0
  183.5390  178.8590  144.5910 N   0  0  0  0  0  0  0  0  0  0  0  0
  188.0480  177.8800  147.3450 C   0  0  1  0  0  3  0  0  0  0  0  0
  185.5120  178.2450  143.5750 C   0  0  0  0  0  0  0  0  0  0  0  0
  188.0470  177.6160  145.8890 N   0  0  0  0  0  0  0  0  0  0  0  0
  184.8410  178.5170  144.7000 C   0  0  0  0  0  0  0  0  0  0  0  0
  186.7580  177.8920  143.8000 O   0  0  0  0  0  0  0  0  0  0  0  0
  186.8800  177.9410  145.1210 C   0  0  0  0  0  0  0  0  0  0  0  0
  185.7090  178.3320  145.7360 C   0  0  0  0  0  0  0  0  0  0  0  0
  188.9190  179.0070  147.6340 N   0  0  0  0  0  1  0  0  0  0  0  0
  184.5320  178.4160  142.2330 S   0  0  0  0  0  0  0  0  0  0  0  0
  183.2220  178.8520  143.2630 C   0  0  0  0  0  0  0  0  0  0  0  0
  181.8570  179.1710  142.7630 C   0  0  0  0  0  2  0  0  0  0  0  0
  181.7200  178.7230  141.4490 O   0  0  0  0  0  1  0  0  0  0  0  0
  190.1230  176.3840  146.3220 C   0  0  0  0  0  2  0  0  0  0  0  0
  192.1780  175.8950  146.9780 C   0  0  0  0  0  1  0  0  0  0  0  0
  191.4600  176.7330  146.1250 O   0  0  0  0  0  0  0  0  0  0  0  0
  190.0070  178.1670  144.5210 C   0  0  0  0  0  2  0  0  0  0  0  0
  190.1170  177.8690  143.0360 C   0  0  0  0  0  2  0  0  0  0  0  0
  189.7100  176.4970  142.7820 N   0  0  0  0  0  2  0  0  0  0  0  0
  190.3780  176.0940  141.6720 O   0  0  0  0  0  0  0  0  0  0  0  0
  190.2630  177.1720  140.7920 C   0  0  0  0  0  2  0  0  0  0  0  0
  190.0080  176.6700  139.3790 C   0  0  1  0  0  3  0  0  0  0  0  0
  188.1600  176.9120  137.8080 C   0  0  0  0  0  3  0  0  0  0  0  0
  188.6960  178.7860  139.1840 O   0  0  0  0  0  1  0  0  0  0  0  0
  188.9090  177.4760  138.7610 C   0  0  0  0  0  0  0  0  0  0  0  0
  187.0420  177.5350  137.1540 N   0  0  0  0  0  0  0  0  0  0  0  0
  187.3130  178.3730  136.0020 C   0  0  0  0  0  1  0  0  0  0  0  0
  185.1950  178.4440  138.4640 C   0  0  0  0  0  1  0  0  0  0  0  0
  185.6490  177.3310  137.5410 C   0  0  0  0  0  2  0  0  0  0  0  0
  191.2850  176.7710  138.5540 C   0  0  0  0  0  2  0  0  0  0  0  0
  190.8810  174.4990  138.1100 O   0  0  0  0  0  0  0  0  0  0  0  0
  191.6070  175.4580  137.9210 C   0  0  0  0  0  3  0  0  0  0  0  0
  1 20  1  1  0  0  0
  1  7  1  0  0  0  0
  1 17  1  0  0  0  0
  2  3  2  0  0  0  0
  4  8  1  0  0  0  0
  5 12  1  6  0  0  0
  5  3  1  0  0  0  0
  6  9  1  0  0  0  0
  6  8  2  0  0  0  0
  7  5  1  0  0  0  0
  8 11  1  0  0  0  0
  9 10  1  0  0  0  0
 10 11  2  0  0  0  0
 10  7  1  0  0  0  0
 11  2  1  0  0  0  0
 13 14  1  0  0  0  0
 13  6  1  0  0  0  0
 14  4  2  0  0  0  0
 15 14  1  0  0  0  0
 16 15  1  0  0  0  0
 19 17  1  0  0  0  0
 19 18  1  0  0  0  0
 21 20  1  0  0  0  0
 22 21  1  0  0  0  0
 23 22  1  0  0  0  0
 24 23  1  0  0  0  0
 25 33  1  6  0  0  0
 25 24  1  0  0  0  0
 26 28  2  0  0  0  0
 28 27  1  0  0  0  0
 28 25  1  0  0  0  0
 29 32  1  0  0  0  0
 29 26  1  0  0  0  0
 30 29  1  0  0  0  0
 32 31  1  0  0  0  0
 35 34  2  0  0  0  0
 35 33  1  0  0  0  0
M  END
>  <MODEL>
2

>  <REMARK>
 VINA RESULT:      -6.7      2.153      6.480
  Name = 
  15 active torsions:
  status: ('A' for Active; 'I' for Inactive)
    1  A    between atoms: N_3  and  C_25
    2  A    between atoms: N_3  and  O_34
    3  A    between atoms: C_6  and  N_10
    4  A    between atoms: C_8  and  C_16
    5  A    between atoms: C_8  and  O_17
    6  A    between atoms: C_9  and  C_35
    7  A    between atoms: N_10  and  C_30
    8  A    between atoms: C_12  and  C_15
    9  A    between atoms: C_15  and  C_21
   10  A    between atoms: C_16  and  N_18
   11  A    between atoms: C_16  and  C_32
   12  A    between atoms: C_21  and  C_29
   13  A    between atoms: C_21  and  C_31
   14  A    between atoms: C_25  and  C_32
   15  A    between atoms: C_31  and  O_34
                            x       y       z     vdW  Elec       q    Type
                         _______ _______ _______ _____ _____    ______ ____

>  <TORSDO>
F 15

$$$$
=
 OpenBabel11042411363D

 35 37  0  0  1  0  0  0  0  0999 V2000
  188.8680  176.7280  142.6050 C   0  0  2  0  0  3  0  0  0  0  0  0
  186.2640  177.8910  145.8970 C   0  0  0  0  0  3  0  0  0  0  0  0
  187.5310  177.5240  146.1460 C   0  0  0  0  0  3  0  0  0  0  0  0
  183.4580  178.7520  144.3240 N   0  0  0  0  0  0  0  0  0  0  0  0
  188.5770  177.2930  145.0550 C   0  0  1  0  0  3  0  0  0  0  0  0
  184.8650  178.2230  142.5800 C   0  0  0  0  0  0  0  0  0  0  0  0
  188.0190  177.2230  143.6870 N   0  0  0  0  0  0  0  0  0  0  0  0
  184.6780  178.3620  143.8980 C   0  0  0  0  0  0  0  0  0  0  0  0
  186.0750  177.8080  142.2790 O   0  0  0  0  0  0  0  0  0  0  0  0
  186.6790  177.6780  143.4550 C   0  0  0  0  0  0  0  0  0  0  0  0
  185.8510  178.0180  144.5040 C   0  0  0  0  0  0  0  0  0  0  0  0
  189.5760  178.3460  145.1210 N   0  0  0  0  0  1  0  0  0  0  0  0
  183.4740  178.5960  141.7330 S   0  0  0  0  0  0  0  0  0  0  0  0
  182.6730  178.9300  143.2210 C   0  0  0  0  0  0  0  0  0  0  0  0
  181.2480  179.3500  143.3100 C   0  0  0  0  0  2  0  0  0  0  0  0
  180.8740  179.9940  142.1300 O   0  0  0  0  0  1  0  0  0  0  0  0
  189.8320  175.6690  143.1290 C   0  0  0  0  0  2  0  0  0  0  0  0
  191.8130  175.5760  144.1090 C   0  0  0  0  0  1  0  0  0  0  0  0
  191.1440  176.1310  143.0180 O   0  0  0  0  0  0  0  0  0  0  0  0
  189.5950  177.8920  141.9310 C   0  0  0  0  0  2  0  0  0  0  0  0
  189.4940  177.8250  140.4160 C   0  0  0  0  0  2  0  0  0  0  0  0
  190.6720  177.1640  139.8780 N   0  0  0  0  0  2  0  0  0  0  0  0
  190.2230  176.1390  139.1100 O   0  0  0  0  0  0  0  0  0  0  0  0
  189.1250  176.6730  138.4320 C   0  0  0  0  0  2  0  0  0  0  0  0
  189.2580  176.4170  136.9390 C   0  0  1  0  0  3  0  0  0  0  0  0
  187.0440  175.4500  137.2610 C   0  0  0  0  0  3  0  0  0  0  0  0
  188.2350  174.8540  135.2810 O   0  0  0  0  0  1  0  0  0  0  0  0
  188.1290  175.5450  136.4860 C   0  0  0  0  0  0  0  0  0  0  0  0
  185.8630  174.6950  136.9440 N   0  0  0  0  0  0  0  0  0  0  0  0
  184.8930  175.2990  136.0500 C   0  0  0  0  0  1  0  0  0  0  0  0
  186.0940  172.3270  136.3990 C   0  0  0  0  0  1  0  0  0  0  0  0
  185.6050  173.3380  137.4180 C   0  0  0  0  0  2  0  0  0  0  0  0
  189.2570  177.7400  136.1840 C   0  0  0  0  0  2  0  0  0  0  0  0
  187.6200  179.2760  136.8770 O   0  0  0  0  0  0  0  0  0  0  0  0
  188.7440  178.8410  137.0520 C   0  0  0  0  0  3  0  0  0  0  0  0
  1 20  1  1  0  0  0
  1 17  1  0  0  0  0
  1  7  1  0  0  0  0
  2  3  2  0  0  0  0
  5 12  1  6  0  0  0
  5  3  1  0  0  0  0
  6  8  2  0  0  0  0
  7  5  1  0  0  0  0
  8  4  1  0  0  0  0
  8 11  1  0  0  0  0
  9  6  1  0  0  0  0
  9 10  1  0  0  0  0
 10  7  1  0  0  0  0
 10 11  2  0  0  0  0
 11  2  1  0  0  0  0
 13  6  1  0  0  0  0
 13 14  1  0  0  0  0
 14 15  1  0  0  0  0
 14  4  2  0  0  0  0
 16 15  1  0  0  0  0
 19 17  1  0  0  0  0
 19 18  1  0  0  0  0
 21 20  1  0  0  0  0
 22 21  1  0  0  0  0
 23 22  1  0  0  0  0
 24 23  1  0  0  0  0
 25 33  1  6  0  0  0
 25 24  1  0  0  0  0
 27 28  1  0  0  0  0
 28 25  1  0  0  0  0
 28 26  2  0  0  0  0
 29 26  1  0  0  0  0
 29 32  1  0  0  0  0
 30 29  1  0  0  0  0
 31 32  1  0  0  0  0
 33 35  1  0  0  0  0
 34 35  2  0  0  0  0
M  END
>  <MODEL>
3

>  <REMARK>
 VINA RESULT:      -6.6      2.652      6.338
  Name = 
  15 active torsions:
  status: ('A' for Active; 'I' for Inactive)
    1  A    between atoms: N_3  and  C_25
    2  A    between atoms: N_3  and  O_34
    3  A    between atoms: C_6  and  N_10
    4  A    between atoms: C_8  and  C_16
    5  A    between atoms: C_8  and  O_17
    6  A    between atoms: C_9  and  C_35
    7  A    between atoms: N_10  and  C_30
    8  A    between atoms: C_12  and  C_15
    9  A    between atoms: C_15  and  C_21
   10  A    between atoms: C_16  and  N_18
   11  A    between atoms: C_16  and  C_32
   12  A    between atoms: C_21  and  C_29
   13  A    between atoms: C_21  and  C_31
   14  A    between atoms: C_25  and  C_32
   15  A    between atoms: C_31  and  O_34
                            x       y       z     vdW  Elec       q    Type
                         _______ _______ _______ _____ _____    ______ ____

>  <TORSDO>
F 15

$$$$
=
 OpenBabel11042411363D

 35 37  0  0  1  0  0  0  0  0999 V2000
  188.6620  176.7340  142.5920 C   0  0  2  0  0  3  0  0  0  0  0  0
  186.0950  177.9560  145.8910 C   0  0  0  0  0  3  0  0  0  0  0  0
  187.3610  177.5790  146.1340 C   0  0  0  0  0  3  0  0  0  0  0  0
  183.2850  178.8270  144.3320 N   0  0  0  0  0  0  0  0  0  0  0  0
  188.3960  177.3270  145.0380 C   0  0  1  0  0  3  0  0  0  0  0  0
  184.6730  178.2660  142.5830 C   0  0  0  0  0  0  0  0  0  0  0  0
  187.8260  177.2480  143.6750 N   0  0  0  0  0  0  0  0  0  0  0  0
  184.4980  178.4210  143.9000 C   0  0  0  0  0  0  0  0  0  0  0  0
  185.8770  177.8370  142.2770 O   0  0  0  0  0  0  0  0  0  0  0  0
  186.4890  177.7140  143.4490 C   0  0  0  0  0  0  0  0  0  0  0  0
  185.6730  178.0720  144.5010 C   0  0  0  0  0  0  0  0  0  0  0  0
  189.4050  178.3710  145.0840 N   0  0  0  0  0  1  0  0  0  0  0  0
  183.2790  178.6430  141.7430 S   0  0  0  0  0  0  0  0  0  0  0  0
  182.4930  179.0000  143.2340 C   0  0  0  0  0  0  0  0  0  0  0  0
  181.0730  179.4350  143.3290 C   0  0  0  0  0  2  0  0  0  0  0  0
  180.3520  178.5210  144.0960 O   0  0  0  0  0  1  0  0  0  0  0  0
  189.6770  175.7320  143.1330 C   0  0  0  0  0  2  0  0  0  0  0  0
  191.7170  175.7980  143.9860 C   0  0  0  0  0  1  0  0  0  0  0  0
  190.9710  176.1870  142.8740 O   0  0  0  0  0  0  0  0  0  0  0  0
  189.3290  177.8900  141.8450 C   0  0  0  0  0  2  0  0  0  0  0  0
  189.0890  177.8140  140.3470 C   0  0  0  0  0  2  0  0  0  0  0  0
  188.0920  178.8000  139.9620 N   0  0  0  0  0  2  0  0  0  0  0  0
  187.8950  178.6510  138.6280 O   0  0  0  0  0  0  0  0  0  0  0  0
  189.1730  178.4210  138.1160 C   0  0  0  0  0  2  0  0  0  0  0  0
  189.0900  178.0740  136.6370 C   0  0  1  0  0  3  0  0  0  0  0  0
  190.2980  176.1020  137.4070 C   0  0  0  0  0  3  0  0  0  0  0  0
  190.2660  176.5360  135.0610 O   0  0  0  0  0  1  0  0  0  0  0  0
  189.9150  176.8540  136.3700 C   0  0  0  0  0  0  0  0  0  0  0  0
  191.0490  174.8800  137.3110 N   0  0  0  0  0  0  0  0  0  0  0  0
  190.3430  173.6830  136.8960 C   0  0  0  0  0  1  0  0  0  0  0  0
  193.0750  176.1590  137.7720 C   0  0  0  0  0  1  0  0  0  0  0  0
  192.4860  174.7810  137.5490 C   0  0  0  0  0  2  0  0  0  0  0  0
  187.6370  177.8450  136.2390 C   0  0  0  0  0  2  0  0  0  0  0  0
  186.5150  175.9880  137.1420 O   0  0  0  0  0  0  0  0  0  0  0  0
  187.2980  176.3920  136.3010 C   0  0  0  0  0  3  0  0  0  0  0  0
  1 20  1  1  0  0  0
  1 17  1  0  0  0  0
  1  7  1  0  0  0  0
  2  3  2  0  0  0  0
  5 12  1  6  0  0  0
  5  3  1  0  0  0  0
  6  8  2  0  0  0  0
  7  5  1  0  0  0  0
  8  4  1  0  0  0  0
  8 11  1  0  0  0  0
  9  6  1  0  0  0  0
  9 10  1  0  0  0  0
 10  7  1  0  0  0  0
 10 11  2  0  0  0  0
 11  2  1  0  0  0  0
 13  6  1  0  0  0  0
 13 14  1  0  0  0  0
 14 15  1  0  0  0  0
 14  4  2  0  0  0  0
 15 16  1  0  0  0  0
 19 17  1  0  0  0  0
 19 18  1  0  0  0  0
 21 20  1  0  0  0  0
 22 21  1  0  0  0  0
 23 22  1  0  0  0  0
 24 23  1  0  0  0  0
 25 33  1  1  0  0  0
 25 24  1  0  0  0  0
 27 28  1  0  0  0  0
 28 25  1  0  0  0  0
 28 26  2  0  0  0  0
 29 26  1  0  0  0  0
 29 32  1  0  0  0  0
 30 29  1  0  0  0  0
 32 31  1  0  0  0  0
 33 35  1  0  0  0  0
 35 34  2  0  0  0  0
M  END
>  <MODEL>
4

>  <REMARK>
 VINA RESULT:      -6.6      2.606      5.780
  Name = 
  15 active torsions:
  status: ('A' for Active; 'I' for Inactive)
    1  A    between atoms: N_3  and  C_25
    2  A    between atoms: N_3  and  O_34
    3  A    between atoms: C_6  and  N_10
    4  A    between atoms: C_8  and  C_16
    5  A    between atoms: C_8  and  O_17
    6  A    between atoms: C_9  and  C_35
    7  A    between atoms: N_10  and  C_30
    8  A    between atoms: C_12  and  C_15
    9  A    between atoms: C_15  and  C_21
   10  A    between atoms: C_16  and  N_18
   11  A    between atoms: C_16  and  C_32
   12  A    between atoms: C_21  and  C_29
   13  A    between atoms: C_21  and  C_31
   14  A    between atoms: C_25  and  C_32
   15  A    between atoms: C_31  and  O_34
                            x       y       z     vdW  Elec       q    Type
                         _______ _______ _______ _____ _____    ______ ____

>  <TORSDO>
F 15

$$$$
=
 OpenBabel11042411363D

 35 37  0  0  1  0  0  0  0  0999 V2000
  189.3720  177.0460  145.3810 C   0  0  2  0  0  3  0  0  0  0  0  0
  185.6150  178.4280  147.0960 C   0  0  0  0  0  3  0  0  0  0  0  0
  186.6730  178.2110  147.8940 C   0  0  0  0  0  3  0  0  0  0  0  0
  183.6930  178.8140  144.4050 N   0  0  0  0  0  0  0  0  0  0  0  0
  188.0810  177.9210  147.3740 C   0  0  1  0  0  3  0  0  0  0  0  0
  185.7070  178.1690  143.4920 C   0  0  0  0  0  0  0  0  0  0  0  0
  188.1410  177.6120  145.9290 N   0  0  0  0  0  0  0  0  0  0  0  0
  184.9890  178.4750  144.5790 C   0  0  0  0  0  0  0  0  0  0  0  0
  186.9410  177.8230  143.7800 O   0  0  0  0  0  0  0  0  0  0  0  0
  187.0070  177.9120  145.1030 C   0  0  0  0  0  0  0  0  0  0  0  0
  185.8120  178.3220  145.6560 C   0  0  0  0  0  0  0  0  0  0  0  0
  188.9410  179.0560  147.6660 N   0  0  0  0  0  1  0  0  0  0  0  0
  184.7840  178.2970  142.1060 S   0  0  0  0  0  0  0  0  0  0  0  0
  183.4310  178.7660  143.0650 C   0  0  0  0  0  0  0  0  0  0  0  0
  182.0890  179.0690  142.4990 C   0  0  0  0  0  2  0  0  0  0  0  0
  181.1050  178.7960  143.4490 O   0  0  0  0  0  1  0  0  0  0  0  0
  190.2710  176.5410  146.5050 C   0  0  0  0  0  2  0  0  0  0  0  0
  192.2550  175.6790  146.9680 C   0  0  0  0  0  1  0  0  0  0  0  0
  191.5980  176.5220  146.0720 O   0  0  0  0  0  0  0  0  0  0  0  0
  190.0740  178.0720  144.4910 C   0  0  0  0  0  2  0  0  0  0  0  0
  190.2150  177.5840  143.0600 C   0  0  0  0  0  2  0  0  0  0  0  0
  191.6060  177.2580  142.7900 N   0  0  0  0  0  2  0  0  0  0  0  0
  191.8270  177.5560  141.4850 O   0  0  0  0  0  0  0  0  0  0  0  0
  190.7120  177.0400  140.8210 C   0  0  0  0  0  2  0  0  0  0  0  0
  190.7710  177.3990  139.3440 C   0  0  1  0  0  3  0  0  0  0  0  0
  192.6560  176.5530  138.0510 C   0  0  0  0  0  3  0  0  0  0  0  0
  190.8510  175.0550  138.4870 O   0  0  0  0  0  1  0  0  0  0  0  0
  191.4630  176.3010  138.5980 C   0  0  0  0  0  0  0  0  0  0  0  0
  193.4650  175.5950  137.3480 N   0  0  0  0  0  0  0  0  0  0  0  0
  193.2610  175.4570  135.9180 C   0  0  0  0  0  1  0  0  0  0  0  0
  195.4640  174.2650  136.9140 C   0  0  0  0  0  1  0  0  0  0  0  0
  194.5160  174.7960  137.9710 C   0  0  0  0  0  2  0  0  0  0  0  0
  189.3620  177.6160  138.8070 C   0  0  0  0  0  2  0  0  0  0  0  0
  187.3420  178.5160  139.6000 O   0  0  0  0  0  0  0  0  0  0  0  0
  188.5380  178.3850  139.7860 C   0  0  0  0  0  3  0  0  0  0  0  0
  1 20  1  1  0  0  0
  1  7  1  0  0  0  0
  1 17  1  0  0  0  0
  2  3  2  0  0  0  0
  4  8  1  0  0  0  0
  5 12  1  6  0  0  0
  5  3  1  0  0  0  0
  6  9  1  0  0  0  0
  6  8  2  0  0  0  0
  7  5  1  0  0  0  0
  8 11  1  0  0  0  0
  9 10  1  0  0  0  0
 10 11  2  0  0  0  0
 10  7  1  0  0  0  0
 11  2  1  0  0  0  0
 13 14  1  0  0  0  0
 13  6  1  0  0  0  0
 14  4  2  0  0  0  0
 15 14  1  0  0  0  0
 15 16  1  0  0  0  0
 19 17  1  0  0  0  0
 19 18  1  0  0  0  0
 21 20  1  0  0  0  0
 22 21  1  0  0  0  0
 23 22  1  0  0  0  0
 24 23  1  0  0  0  0
 25 33  1  6  0  0  0
 25 24  1  0  0  0  0
 26 28  2  0  0  0  0
 27 28  1  0  0  0  0
 28 25  1  0  0  0  0
 29 32  1  0  0  0  0
 29 26  1  0  0  0  0
 30 29  1  0  0  0  0
 31 32  1  0  0  0  0
 33 35  1  0  0  0  0
 34 35  2  0  0  0  0
M  END
>  <MODEL>
5

>  <REMARK>
 VINA RESULT:      -6.5      2.764      6.775
  Name = 
  15 active torsions:
  status: ('A' for Active; 'I' for Inactive)
    1  A    between atoms: N_3  and  C_25
    2  A    between atoms: N_3  and  O_34
    3  A    between atoms: C_6  and  N_10
    4  A    between atoms: C_8  and  C_16
    5  A    between atoms: C_8  and  O_17
    6  A    between atoms: C_9  and  C_35
    7  A    between atoms: N_10  and  C_30
    8  A    between atoms: C_12  and  C_15
    9  A    between atoms: C_15  and  C_21
   10  A    between atoms: C_16  and  N_18
   11  A    between atoms: C_16  and  C_32
   12  A    between atoms: C_21  and  C_29
   13  A    between atoms: C_21  and  C_31
   14  A    between atoms: C_25  and  C_32
   15  A    between atoms: C_31  and  O_34
                            x       y       z     vdW  Elec       q    Type
                         _______ _______ _______ _____ _____    ______ ____

>  <TORSDO>
F 15

$$$$
=
 OpenBabel11042411363D

 35 37  0  0  1  0  0  0  0  0999 V2000
  188.6070  176.7660  142.5760 C   0  0  2  0  0  3  0  0  0  0  0  0
  185.9760  177.9400  145.8410 C   0  0  0  0  0  3  0  0  0  0  0  0
  187.2380  177.5660  146.1030 C   0  0  0  0  0  3  0  0  0  0  0  0
  183.1910  178.8200  144.2410 N   0  0  0  0  0  0  0  0  0  0  0  0
  188.2940  177.3300  145.0230 C   0  0  1  0  0  3  0  0  0  0  0  0
  184.6130  178.2830  142.5110 C   0  0  0  0  0  0  0  0  0  0  0  0
  187.7500  177.2650  143.6490 N   0  0  0  0  0  0  0  0  0  0  0  0
  184.4130  178.4230  143.8270 C   0  0  0  0  0  0  0  0  0  0  0  0
  185.8240  177.8630  142.2220 O   0  0  0  0  0  0  0  0  0  0  0  0
  186.4150  177.7280  143.4040 C   0  0  0  0  0  0  0  0  0  0  0  0
  185.5780  178.0710  144.4450 C   0  0  0  0  0  0  0  0  0  0  0  0
  189.2980  178.3770  145.1000 N   0  0  0  0  0  1  0  0  0  0  0  0
  183.2330  178.6660  141.6500 S   0  0  0  0  0  0  0  0  0  0  0  0
  182.4190  179.0030  143.1300 C   0  0  0  0  0  0  0  0  0  0  0  0
  180.9960  179.4310  143.2040 C   0  0  0  0  0  2  0  0  0  0  0  0
  180.4190  178.9480  144.3790 O   0  0  0  0  0  1  0  0  0  0  0  0
  189.6540  175.8080  143.1340 C   0  0  0  0  0  2  0  0  0  0  0  0
  191.6870  175.9080  144.0000 C   0  0  0  0  0  1  0  0  0  0  0  0
  190.9310  176.3220  142.9030 O   0  0  0  0  0  0  0  0  0  0  0  0
  189.2350  177.9350  141.8160 C   0  0  0  0  0  2  0  0  0  0  0  0
  188.7450  178.0100  140.3800 C   0  0  0  0  0  2  0  0  0  0  0  0
  189.8720  177.8700  139.4720 N   0  0  0  0  0  2  0  0  0  0  0  0
  189.3620  177.8990  138.2150 O   0  0  0  0  0  0  0  0  0  0  0  0
  190.2950  177.1970  137.4500 C   0  0  0  0  0  2  0  0  0  0  0  0
  190.5110  175.8080  138.0320 C   0  0  1  0  0  3  0  0  0  0  0  0
  188.4140  175.2830  136.9060 C   0  0  0  0  0  3  0  0  0  0  0  0
  189.9860  173.5120  137.2000 O   0  0  0  0  0  1  0  0  0  0  0  0
  189.5940  174.8400  137.3500 C   0  0  0  0  0  0  0  0  0  0  0  0
  187.4480  174.4930  136.1920 N   0  0  0  0  0  0  0  0  0  0  0  0
  187.5100  174.4950  134.7420 C   0  0  0  0  0  1  0  0  0  0  0  0
  185.2250  174.4630  137.1970 C   0  0  0  0  0  1  0  0  0  0  0  0
  186.4480  173.6450  136.8330 C   0  0  0  0  0  2  0  0  0  0  0  0
  191.9650  175.3920  137.8570 C   0  0  0  0  0  2  0  0  0  0  0  0
  193.8420  176.7560  137.4810 O   0  0  0  0  0  0  0  0  0  0  0  0
  192.8800  176.5240  138.1920 C   0  0  0  0  0  3  0  0  0  0  0  0
  1 20  1  1  0  0  0
  1 17  1  0  0  0  0
  1  7  1  0  0  0  0
  2  3  2  0  0  0  0
  5 12  1  6  0  0  0
  5  3  1  0  0  0  0
  6  8  2  0  0  0  0
  7  5  1  0  0  0  0
  8  4  1  0  0  0  0
  8 11  1  0  0  0  0
  9  6  1  0  0  0  0
  9 10  1  0  0  0  0
 10  7  1  0  0  0  0
 10 11  2  0  0  0  0
 11  2  1  0  0  0  0
 13  6  1  0  0  0  0
 13 14  1  0  0  0  0
 14 15  1  0  0  0  0
 14  4  2  0  0  0  0
 15 16  1  0  0  0  0
 19 17  1  0  0  0  0
 19 18  1  0  0  0  0
 21 20  1  0  0  0  0
 22 21  1  0  0  0  0
 23 22  1  0  0  0  0
 24 23  1  0  0  0  0
 25 24  1  6  0  0  0
 26 28  2  0  0  0  0
 27 28  1  0  0  0  0
 28 25  1  0  0  0  0
 29 32  1  0  0  0  0
 29 26  1  0  0  0  0
 30 29  1  0  0  0  0
 32 31  1  0  0  0  0
 33 25  1  0  0  0  0
 33 35  1  0  0  0  0
 34 35  2  0  0  0  0
M  END
>  <MODEL>
6

>  <REMARK>
 VINA RESULT:      -6.4      2.618      6.032
  Name = 
  15 active torsions:
  status: ('A' for Active; 'I' for Inactive)
    1  A    between atoms: N_3  and  C_25
    2  A    between atoms: N_3  and  O_34
    3  A    between atoms: C_6  and  N_10
    4  A    between atoms: C_8  and  C_16
    5  A    between atoms: C_8  and  O_17
    6  A    between atoms: C_9  and  C_35
    7  A    between atoms: N_10  and  C_30
    8  A    between atoms: C_12  and  C_15
    9  A    between atoms: C_15  and  C_21
   10  A    between atoms: C_16  and  N_18
   11  A    between atoms: C_16  and  C_32
   12  A    between atoms: C_21  and  C_29
   13  A    between atoms: C_21  and  C_31
   14  A    between atoms: C_25  and  C_32
   15  A    between atoms: C_31  and  O_34
                            x       y       z     vdW  Elec       q    Type
                         _______ _______ _______ _____ _____    ______ ____

>  <TORSDO>
F 15

$$$$
=
 OpenBabel11042411363D

 35 37  0  0  1  0  0  0  0  0999 V2000
  182.9710  179.0350  139.9090 C   0  0  2  0  0  3  0  0  0  0  0  0
  181.3810  178.9440  143.9630 C   0  0  0  0  0  3  0  0  0  0  0  0
  180.5400  178.9810  142.9160 C   0  0  0  0  0  3  0  0  0  0  0  0
  184.1400  178.7160  145.8130 N   0  0  0  0  0  0  0  0  0  0  0  0
  180.9860  178.8140  141.4640 C   0  0  1  0  0  3  0  0  0  0  0  0
  184.9730  178.6750  143.6670 C   0  0  0  0  0  0  0  0  0  0  0  0
  182.4500  178.8960  141.2680 N   0  0  0  0  0  0  0  0  0  0  0  0
  183.9130  178.7210  144.4820 C   0  0  0  0  0  0  0  0  0  0  0  0
  184.6400  178.7170  142.3970 O   0  0  0  0  0  0  0  0  0  0  0  0
  183.3140  178.7960  142.4080 C   0  0  0  0  0  0  0  0  0  0  0  0
  182.8050  178.7960  143.6890 C   0  0  0  0  0  0  0  0  0  0  0  0
  180.4970  177.5430  140.9570 N   0  0  0  0  0  1  0  0  0  0  0  0
  186.3980  178.6060  144.5370 S   0  0  0  0  0  0  0  0  0  0  0  0
  185.4900  178.6480  146.0010 C   0  0  0  0  0  0  0  0  0  0  0  0
  186.1130  178.6360  147.3530 C   0  0  0  0  0  2  0  0  0  0  0  0
  187.3170  177.9340  147.3100 O   0  0  0  0  0  1  0  0  0  0  0  0
  181.9120  179.6420  138.9940 C   0  0  0  0  0  2  0  0  0  0  0  0
  181.2580  181.4090  137.8360 C   0  0  0  0  0  1  0  0  0  0  0  0
  182.1840  180.9960  138.7940 O   0  0  0  0  0  0  0  0  0  0  0  0
  183.4780  177.6870  139.3970 C   0  0  0  0  0  2  0  0  0  0  0  0
  184.5870  177.8480  138.3720 C   0  0  0  0  0  2  0  0  0  0  0  0
  185.4180  178.9870  138.7250 N   0  0  0  0  0  2  0  0  0  0  0  0
  186.5170  178.9250  137.9320 O   0  0  0  0  0  0  0  0  0  0  0  0
  187.2300  177.8280  138.4170 C   0  0  0  0  0  2  0  0  0  0  0  0
  188.6040  178.2680  138.9000 C   0  0  1  0  0  3  0  0  0  0  0  0
  189.7280  177.3900  140.8760 C   0  0  0  0  0  3  0  0  0  0  0  0
  187.6970  178.5980  141.2030 O   0  0  0  0  0  1  0  0  0  0  0  0
  188.6910  178.0730  140.3810 C   0  0  0  0  0  0  0  0  0  0  0  0
  189.9780  177.1600  142.2730 N   0  0  0  0  0  0  0  0  0  0  0  0
  189.1280  176.2100  142.9650 C   0  0  0  0  0  1  0  0  0  0  0  0
  191.4040  176.9400  144.2410 C   0  0  0  0  0  1  0  0  0  0  0  0
  191.0690  177.7770  143.0220 C   0  0  0  0  0  2  0  0  0  0  0  0
  189.6860  177.4700  138.1830 C   0  0  0  0  0  2  0  0  0  0  0  0
  189.3680  176.3100  136.1640 O   0  0  0  0  0  0  0  0  0  0  0  0
  189.0780  176.3950  137.3440 C   0  0  0  0  0  3  0  0  0  0  0  0
  1 17  1  6  0  0  0
  1  7  1  0  0  0  0
  3  2  2  0  0  0  0
  4 14  2  0  0  0  0
  5 12  1  1  0  0  0
  5  3  1  0  0  0  0
  6  8  2  0  0  0  0
  6 13  1  0  0  0  0
  7  5  1  0  0  0  0
  7 10  1  0  0  0  0
  8  4  1  0  0  0  0
  9 10  1  0  0  0  0
  9  6  1  0  0  0  0
 10 11  2  0  0  0  0
 11  2  1  0  0  0  0
 11  8  1  0  0  0  0
 13 14  1  0  0  0  0
 14 15  1  0  0  0  0
 16 15  1  0  0  0  0
 18 19  1  0  0  0  0
 19 17  1  0  0  0  0
 20  1  1  0  0  0  0
 21 22  1  0  0  0  0
 21 20  1  0  0  0  0
 23 24  1  0  0  0  0
 23 22  1  0  0  0  0
 24 25  1  0  0  0  0
 25 33  1  6  0  0  0
 25 28  1  0  0  0  0
 26 29  1  0  0  0  0
 28 26  2  0  0  0  0
 28 27  1  0  0  0  0
 29 30  1  0  0  0  0
 29 32  1  0  0  0  0
 32 31  1  0  0  0  0
 34 35  2  0  0  0  0
 35 33  1  0  0  0  0
M  END
>  <MODEL>
7

>  <REMARK>
 VINA RESULT:      -6.2      1.455      1.805
  Name = 
  15 active torsions:
  status: ('A' for Active; 'I' for Inactive)
    1  A    between atoms: N_3  and  C_25
    2  A    between atoms: N_3  and  O_34
    3  A    between atoms: C_6  and  N_10
    4  A    between atoms: C_8  and  C_16
    5  A    between atoms: C_8  and  O_17
    6  A    between atoms: C_9  and  C_35
    7  A    between atoms: N_10  and  C_30
    8  A    between atoms: C_12  and  C_15
    9  A    between atoms: C_15  and  C_21
   10  A    between atoms: C_16  and  N_18
   11  A    between atoms: C_16  and  C_32
   12  A    between atoms: C_21  and  C_29
   13  A    between atoms: C_21  and  C_31
   14  A    between atoms: C_25  and  C_32
   15  A    between atoms: C_31  and  O_34
                            x       y       z     vdW  Elec       q    Type
                         _______ _______ _______ _____ _____    ______ ____

>  <TORSDO>
F 15

$$$$
=
 OpenBabel11042411363D

 35 37  0  0  1  0  0  0  0  0999 V2000
  189.4320  177.1480  139.5640 C   0  0  2  0  0  3  0  0  0  0  0  0
  189.1840  176.6240  143.8800 C   0  0  0  0  0  3  0  0  0  0  0  0
  190.2870  176.2330  143.2220 C   0  0  0  0  0  3  0  0  0  0  0  0
  186.2330  177.9880  144.6020 N   0  0  0  0  0  0  0  0  0  0  0  0
  190.5560  176.5510  141.7510 C   0  0  1  0  0  3  0  0  0  0  0  0
  186.4060  178.3440  142.3340 C   0  0  0  0  0  0  0  0  0  0  0  0
  189.3810  177.0770  141.0230 N   0  0  0  0  0  0  0  0  0  0  0  0
  186.9500  177.8750  143.4630 C   0  0  0  0  0  0  0  0  0  0  0  0
  187.1720  178.1530  141.2840 O   0  0  0  0  0  0  0  0  0  0  0  0
  188.2450  177.5370  141.7670 C   0  0  0  0  0  0  0  0  0  0  0  0
  188.1600  177.3420  143.1300 C   0  0  0  0  0  0  0  0  0  0  0  0
  191.6500  177.5020  141.6610 N   0  0  0  0  0  1  0  0  0  0  0  0
  184.8980  179.0020  142.6210 S   0  0  0  0  0  0  0  0  0  0  0  0
  185.0580  178.6080  144.2900 C   0  0  0  0  0  0  0  0  0  0  0  0
  184.0060  178.8900  145.3040 C   0  0  0  0  0  2  0  0  0  0  0  0
  184.5820  178.9620  146.5720 O   0  0  0  0  0  1  0  0  0  0  0  0
  190.6430  176.3860  139.0370 C   0  0  0  0  0  2  0  0  0  0  0  0
  190.8840  175.3130  137.1170 C   0  0  0  0  0  1  0  0  0  0  0  0
  190.2190  175.2520  138.3420 O   0  0  0  0  0  0  0  0  0  0  0  0
  189.4210  178.6070  139.1060 C   0  0  0  0  0  2  0  0  0  0  0  0
  189.3340  178.7300  137.5940 C   0  0  0  0  0  2  0  0  0  0  0  0
  187.9520  178.9490  137.2010 N   0  0  0  0  0  2  0  0  0  0  0  0
  187.5440  177.8160  136.5750 O   0  0  0  0  0  0  0  0  0  0  0  0
  186.1620  177.9720  136.4480 C   0  0  0  0  0  2  0  0  0  0  0  0
  185.4490  177.2620  137.5890 C   0  0  1  0  0  3  0  0  0  0  0  0
  183.2950  178.0820  138.3820 C   0  0  0  0  0  3  0  0  0  0  0  0
  185.2410  179.3260  138.9790 O   0  0  0  0  0  1  0  0  0  0  0  0
  184.6200  178.2540  138.3440 C   0  0  0  0  0  0  0  0  0  0  0  0
  182.3710  178.9160  139.1020 N   0  0  0  0  0  0  0  0  0  0  0  0
  181.9280  180.1420  138.4640 C   0  0  0  0  0  1  0  0  0  0  0  0
  180.8790  177.3860  140.2800 C   0  0  0  0  0  1  0  0  0  0  0  0
  181.8060  178.5790  140.4050 C   0  0  0  0  0  2  0  0  0  0  0  0
  184.5820  176.1370  137.0390 C   0  0  0  0  0  2  0  0  0  0  0  0
  184.6590  173.8910  137.7240 O   0  0  0  0  0  0  0  0  0  0  0  0
  185.2590  174.8180  137.2110 C   0  0  0  0  0  3  0  0  0  0  0  0
  1 17  1  1  0  0  0
  1  7  1  0  0  0  0
  3  2  2  0  0  0  0
  5 12  1  1  0  0  0
  5  3  1  0  0  0  0
  6 13  1  0  0  0  0
  6  8  2  0  0  0  0
  7  5  1  0  0  0  0
  7 10  1  0  0  0  0
  8  4  1  0  0  0  0
  9 10  1  0  0  0  0
  9  6  1  0  0  0  0
 10 11  2  0  0  0  0
 11  8  1  0  0  0  0
 11  2  1  0  0  0  0
 13 14  1  0  0  0  0
 14  4  2  0  0  0  0
 14 15  1  0  0  0  0
 15 16  1  0  0  0  0
 18 19  1  0  0  0  0
 19 17  1  0  0  0  0
 20  1  1  0  0  0  0
 21 20  1  0  0  0  0
 22 21  1  0  0  0  0
 23 22  1  0  0  0  0
 24 23  1  0  0  0  0
 25 24  1  6  0  0  0
 25 28  1  0  0  0  0
 26 29  1  0  0  0  0
 28 26  2  0  0  0  0
 28 27  1  0  0  0  0
 29 32  1  0  0  0  0
 30 29  1  0  0  0  0
 31 32  1  0  0  0  0
 33 35  1  0  0  0  0
 33 25  1  0  0  0  0
 35 34  2  0  0  0  0
M  END
>  <MODEL>
8

>  <REMARK>
 VINA RESULT:      -6.2      2.057      6.540
  Name = 
  15 active torsions:
  status: ('A' for Active; 'I' for Inactive)
    1  A    between atoms: N_3  and  C_25
    2  A    between atoms: N_3  and  O_34
    3  A    between atoms: C_6  and  N_10
    4  A    between atoms: C_8  and  C_16
    5  A    between atoms: C_8  and  O_17
    6  A    between atoms: C_9  and  C_35
    7  A    between atoms: N_10  and  C_30
    8  A    between atoms: C_12  and  C_15
    9  A    between atoms: C_15  and  C_21
   10  A    between atoms: C_16  and  N_18
   11  A    between atoms: C_16  and  C_32
   12  A    between atoms: C_21  and  C_29
   13  A    between atoms: C_21  and  C_31
   14  A    between atoms: C_25  and  C_32
   15  A    between atoms: C_31  and  O_34
                            x       y       z     vdW  Elec       q    Type
                         _______ _______ _______ _____ _____    ______ ____

>  <TORSDO>
F 15

$$$$
=
 OpenBabel11042411363D

 35 37  0  0  1  0  0  0  0  0999 V2000
  187.5780  177.3900  144.9150 C   0  0  2  0  0  3  0  0  0  0  0  0
  183.4960  178.8410  144.4730 C   0  0  0  0  0  3  0  0  0  0  0  0
  184.0000  178.6280  145.6990 C   0  0  0  0  0  3  0  0  0  0  0  0
  183.2110  179.1960  141.1750 N   0  0  0  0  0  0  0  0  0  0  0  0
  185.4710  178.3140  145.9690 C   0  0  1  0  0  3  0  0  0  0  0  0
  185.3970  178.5140  141.4170 C   0  0  0  0  0  0  0  0  0  0  0  0
  186.2490  177.9780  144.7570 N   0  0  0  0  0  0  0  0  0  0  0  0
  184.2330  178.8470  141.9860 C   0  0  0  0  0  0  0  0  0  0  0  0
  186.3100  178.1620  142.2940 O   0  0  0  0  0  0  0  0  0  0  0  0
  185.6970  178.2740  143.4670 C   0  0  0  0  0  0  0  0  0  0  0  0
  184.3940  178.7060  143.3330 C   0  0  0  0  0  0  0  0  0  0  0  0
  186.0840  179.4460  146.6440 N   0  0  0  0  0  1  0  0  0  0  0  0
  185.3070  178.6260  139.7520 S   0  0  0  0  0  0  0  0  0  0  0  0
  183.6640  179.1260  139.8880 C   0  0  0  0  0  0  0  0  0  0  0  0
  182.8000  179.4320  138.7160 C   0  0  0  0  0  2  0  0  0  0  0  0
  182.8320  178.3660  137.8170 O   0  0  0  0  0  1  0  0  0  0  0  0
  187.9180  177.2340  146.3940 C   0  0  0  0  0  2  0  0  0  0  0  0
  189.8850  176.8890  147.3440 C   0  0  0  0  0  1  0  0  0  0  0  0
  189.1390  177.8510  146.6640 O   0  0  0  0  0  0  0  0  0  0  0  0
  188.6170  178.2250  144.1660 C   0  0  0  0  0  2  0  0  0  0  0  0
  189.5420  177.3620  143.3240 C   0  0  0  0  0  2  0  0  0  0  0  0
  190.6720  178.1560  142.8710 N   0  0  0  0  0  2  0  0  0  0  0  0
  191.4060  177.3560  142.0580 O   0  0  0  0  0  0  0  0  0  0  0  0
  190.4730  176.8190  141.1700 C   0  0  0  0  0  2  0  0  0  0  0  0
  190.6310  177.4540  139.7970 C   0  0  1  0  0  3  0  0  0  0  0  0
  192.4720  176.7220  138.3760 C   0  0  0  0  0  3  0  0  0  0  0  0
  190.5560  175.3070  138.5240 O   0  0  0  0  0  1  0  0  0  0  0  0
  191.2540  176.4630  138.8640 C   0  0  0  0  0  0  0  0  0  0  0  0
  193.2210  175.8520  137.5120 N   0  0  0  0  0  0  0  0  0  0  0  0
  193.0320  175.9930  136.0800 C   0  0  0  0  0  1  0  0  0  0  0  0
  194.2990  173.7230  137.0020 C   0  0  0  0  0  1  0  0  0  0  0  0
  194.2000  174.8760  137.9810 C   0  0  0  0  0  2  0  0  0  0  0  0
  189.2740  177.9100  139.2770 C   0  0  0  0  0  2  0  0  0  0  0  0
  189.0540  179.6280  137.6880 O   0  0  0  0  0  0  0  0  0  0  0  0
  189.4010  178.4800  137.9030 C   0  0  0  0  0  3  0  0  0  0  0  0
  1 20  1  1  0  0  0
  1 17  1  0  0  0  0
  2  3  2  0  0  0  0
  3  5  1  0  0  0  0
  4  8  1  0  0  0  0
  5 12  1  6  0  0  0
  6  8  2  0  0  0  0
  6  9  1  0  0  0  0
  7  1  1  0  0  0  0
  7  5  1  0  0  0  0
  8 11  1  0  0  0  0
  9 10  1  0  0  0  0
 10  7  1  0  0  0  0
 11 10  2  0  0  0  0
 11  2  1  0  0  0  0
 13 14  1  0  0  0  0
 13  6  1  0  0  0  0
 14  4  2  0  0  0  0
 15 14  1  0  0  0  0
 16 15  1  0  0  0  0
 17 19  1  0  0  0  0
 19 18  1  0  0  0  0
 21 20  1  0  0  0  0
 22 21  1  0  0  0  0
 23 22  1  0  0  0  0
 24 23  1  0  0  0  0
 25 33  1  6  0  0  0
 25 24  1  0  0  0  0
 26 28  2  0  0  0  0
 27 28  1  0  0  0  0
 28 25  1  0  0  0  0
 29 32  1  0  0  0  0
 29 26  1  0  0  0  0
 30 29  1  0  0  0  0
 31 32  1  0  0  0  0
 34 35  2  0  0  0  0
 35 33  1  0  0  0  0
M  END
>  <MODEL>
9

>  <REMARK>
 VINA RESULT:      -6.1      2.381      6.210
  Name = 
  15 active torsions:
  status: ('A' for Active; 'I' for Inactive)
    1  A    between atoms: N_3  and  C_25
    2  A    between atoms: N_3  and  O_34
    3  A    between atoms: C_6  and  N_10
    4  A    between atoms: C_8  and  C_16
    5  A    between atoms: C_8  and  O_17
    6  A    between atoms: C_9  and  C_35
    7  A    between atoms: N_10  and  C_30
    8  A    between atoms: C_12  and  C_15
    9  A    between atoms: C_15  and  C_21
   10  A    between atoms: C_16  and  N_18
   11  A    between atoms: C_16  and  C_32
   12  A    between atoms: C_21  and  C_29
   13  A    between atoms: C_21  and  C_31
   14  A    between atoms: C_25  and  C_32
   15  A    between atoms: C_31  and  O_34
                            x       y       z     vdW  Elec       q    Type
                         _______ _______ _______ _____ _____    ______ ____

>  <TORSDO>
F 15

$$$$
