=
 OpenBabel11042413343D

 41 45  0  0  1  0  0  0  0  0999 V2000
  186.8420  178.5760  142.1520 C   0  0  2  0  0  3  0  0  0  0  0  0
  181.9460  178.5280  142.2090 O   0  0  0  0  0  1  0  0  0  0  0  0
  184.3020  179.0830  139.4280 C   0  0  0  0  0  3  0  0  0  0  0  0
  185.5340  178.7200  141.4270 C   0  0  0  0  0  0  0  0  0  0  0  0
  184.3470  178.5670  142.1460 C   0  0  0  0  0  3  0  0  0  0  0  0
  183.1240  178.6780  141.4890 C   0  0  0  0  0  0  0  0  0  0  0  0
  185.4840  178.9570  140.0860 N   0  0  0  0  0  0  0  0  0  0  0  0
  183.0870  178.9420  140.1140 C   0  0  0  0  0  0  0  0  0  0  0  0
  181.8150  179.1170  139.4680 N   0  0  0  0  0  2  0  0  0  0  0  0
  180.8380  181.8990  136.4090 C   0  0  0  0  0  0  0  0  0  0  0  0
  181.1560  182.3300  137.7060 C   0  0  0  0  0  3  0  0  0  0  0  0
  180.8290  180.5290  136.1280 C   0  0  0  0  0  3  0  0  0  0  0  0
  181.1460  179.6000  137.1240 C   0  0  0  0  0  3  0  0  0  0  0  0
  181.4690  180.0330  138.4190 C   0  0  0  0  0  0  0  0  0  0  0  0
  181.4640  181.4010  138.7030 C   0  0  0  0  0  3  0  0  0  0  0  0
  180.8020  184.1960  135.4970 C   0  0  0  0  0  1  0  0  0  0  0  0
  180.5540  182.8000  135.3810 O   0  0  0  0  0  0  0  0  0  0  0  0
  190.0710  177.0230  141.4550 C   0  0  0  0  0  3  0  0  0  0  0  0
  188.0480  178.6600  141.2530 C   0  0  0  0  0  3  0  0  0  0  0  0
  189.0540  177.8300  141.3480 C   0  0  0  0  0  0  0  0  0  0  0  0
  191.2080  177.1630  140.5550 C   0  0  0  0  0  3  0  0  0  0  0  0
  191.1890  176.5840  139.3640 C   0  0  0  0  0  3  0  0  0  0  0  0
  193.4520  177.2150  139.1100 O   0  0  0  0  0  1  0  0  0  0  0  0
  192.3390  176.7270  138.4180 C   0  0  1  0  0  3  0  0  0  0  0  0
  193.7040  175.5370  136.6560 C   0  0  0  0  0  0  0  0  0  0  0  0
  191.4220  174.5640  137.3770 C   0  0  0  0  0  2  0  0  0  0  0  0
  191.5490  174.4080  134.9260 C   0  0  0  0  0  2  0  0  0  0  0  0
  192.6790  175.3820  137.7650 C   0  0  2  0  0  3  0  0  0  0  0  0
  194.9170  175.3740  136.9410 O   0  0  0  0  0  0  0  0  0  0  0  0
  192.0410  175.8230  134.7910 C   0  0  1  0  0  3  0  0  0  0  0  0
  191.1260  176.3030  135.7390 O   0  0  0  0  0  0  0  0  0  0  0  0
  193.3650  175.8950  135.3330 O   0  0  0  0  0  0  0  0  0  0  0  0
  190.7510  174.9870  136.0610 C   0  0  2  0  0  3  0  0  0  0  0  0
  186.8440  177.3370  143.0520 C   0  0  0  0  0  2  0  0  0  0  0  0
  187.1400  178.2860  147.5870 C   0  0  0  0  0  3  0  0  0  0  0  0
  188.7980  177.0030  146.1960 C   0  0  0  0  0  2  0  0  0  0  0  0
  188.5850  177.7380  144.8920 C   0  0  0  0  0  2  0  0  0  0  0  0
  186.1190  177.9850  145.2700 C   0  0  0  0  0  3  0  0  0  0  0  0
  188.5850  178.0010  147.3110 C   0  0  0  0  0  2  0  0  0  0  0  0
  186.1210  178.3000  146.7160 C   0  0  0  0  0  3  0  0  0  0  0  0
  187.1500  177.6990  144.4680 C   0  0  0  0  0  0  0  0  0  0  0  0
  1 19  1  6  0  0  0
  1 34  1  0  0  0  0
  3  7  2  0  0  0  0
  3  8  1  0  0  0  0
  4  5  2  0  0  0  0
  4  1  1  0  0  0  0
  6  5  1  0  0  0  0
  6  2  1  0  0  0  0
  7  4  1  0  0  0  0
  8  6  2  0  0  0  0
  9  8  1  0  0  0  0
 10 11  1  0  0  0  0
 11 15  2  0  0  0  0
 12 10  2  0  0  0  0
 12 13  1  0  0  0  0
 13 14  2  0  0  0  0
 14 15  1  0  0  0  0
 14  9  1  0  0  0  0
 17 16  1  0  0  0  0
 17 10  1  0  0  0  0
 19 20  2  0  0  0  0
 20 18  2  0  0  0  0
 21 18  1  0  0  0  0
 22 21  2  0  0  0  0
 24 23  1  1  0  0  0
 24 22  1  0  0  0  0
 25 29  2  0  0  0  0
 25 28  1  0  0  0  0
 26 28  1  0  0  0  0
 28 24  1  6  0  0  0
 30 27  1  1  0  0  0
 30 32  1  0  0  0  0
 30 31  1  0  0  0  0
 31 33  1  0  0  0  0
 32 25  1  0  0  0  0
 33 27  1  6  0  0  0
 33 26  1  0  0  0  0
 34 41  1  0  0  0  0
 36 39  1  0  0  0  0
 37 36  1  0  0  0  0
 38 40  1  0  0  0  0
 39 35  1  0  0  0  0
 40 35  2  0  0  0  0
 41 37  1  0  0  0  0
 41 38  2  0  0  0  0
M  END
>  <MODEL>
1

>  <REMARK>
 VINA RESULT:      -9.2      0.000      0.000
  Name = 
  10 active torsions:
  status: ('A' for Active; 'I' for Inactive)
    1  A    between atoms: C_2  and  O_26
    2  A    between atoms: C_3  and  C_4
    3  A    between atoms: C_8  and  C_38
    4  A    between atoms: C_10  and  C_34
    5  A    between atoms: C_10  and  C_41
    6  A    between atoms: C_15  and  C_34
    7  A    between atoms: C_18  and  N_28
    8  A    between atoms: C_21  and  C_34
    9  A    between atoms: C_22  and  C_38
   10  A    between atoms: N_28  and  C_37
                            x       y       z     vdW  Elec       q    Type
                         _______ _______ _______ _____ _____    ______ ____

>  <TORSDO>
F 10

$$$$
=
 OpenBabel11042413343D

 41 45  0  0  1  0  0  0  0  0999 V2000
  187.1510  178.5910  142.0480 C   0  0  2  0  0  3  0  0  0  0  0  0
  182.2590  178.6230  141.8210 O   0  0  0  0  0  1  0  0  0  0  0  0
  184.7820  178.8210  139.1390 C   0  0  0  0  0  3  0  0  0  0  0  0
  185.8900  178.6710  141.2360 C   0  0  0  0  0  0  0  0  0  0  0  0
  184.6610  178.6190  141.8960 C   0  0  0  0  0  3  0  0  0  0  0  0
  183.4800  178.6720  141.1600 C   0  0  0  0  0  0  0  0  0  0  0  0
  185.9210  178.7540  139.8760 N   0  0  0  0  0  0  0  0  0  0  0  0
  183.5270  178.7780  139.7640 C   0  0  0  0  0  0  0  0  0  0  0  0
  182.2980  178.8970  139.0280 N   0  0  0  0  0  2  0  0  0  0  0  0
  180.7600  182.2000  136.8420 C   0  0  0  0  0  0  0  0  0  0  0  0
  180.5160  180.8810  136.4290 C   0  0  0  0  0  3  0  0  0  0  0  0
  181.5370  182.4260  137.9830 C   0  0  0  0  0  3  0  0  0  0  0  0
  182.0530  181.3490  138.7130 C   0  0  0  0  0  3  0  0  0  0  0  0
  181.8020  180.0310  138.3020 C   0  0  0  0  0  0  0  0  0  0  0  0
  181.0380  179.8060  137.1540 C   0  0  0  0  0  3  0  0  0  0  0  0
  180.9450  184.5150  135.9950 C   0  0  0  0  0  1  0  0  0  0  0  0
  180.2300  183.2970  136.1600 O   0  0  0  0  0  0  0  0  0  0  0  0
  189.8380  176.7900  140.3580 C   0  0  0  0  0  3  0  0  0  0  0  0
  188.4080  178.7860  141.2420 C   0  0  0  0  0  3  0  0  0  0  0  0
  189.1150  177.7840  140.7880 C   0  0  0  0  0  0  0  0  0  0  0  0
  191.0460  177.0510  139.5860 C   0  0  0  0  0  3  0  0  0  0  0  0
  191.4380  176.1960  138.6540 C   0  0  0  0  0  3  0  0  0  0  0  0
  193.7660  176.5950  138.6910 O   0  0  0  0  0  1  0  0  0  0  0  0
  192.6670  176.4520  137.8400 C   0  0  1  0  0  3  0  0  0  0  0  0
  194.1250  174.4740  137.2510 C   0  0  0  0  0  0  0  0  0  0  0  0
  192.9030  175.7630  135.3750 C   0  0  0  0  0  2  0  0  0  0  0  0
  195.1920  175.3190  134.5940 C   0  0  0  0  0  2  0  0  0  0  0  0
  192.9170  175.3030  136.8540 C   0  0  2  0  0  3  0  0  0  0  0  0
  193.9360  173.4450  137.9480 O   0  0  0  0  0  0  0  0  0  0  0  0
  195.7990  175.7700  135.8940 C   0  0  1  0  0  3  0  0  0  0  0  0
  194.9470  176.8810  135.9840 O   0  0  0  0  0  0  0  0  0  0  0  0
  195.4490  174.8230  136.9100 O   0  0  0  0  0  0  0  0  0  0  0  0
  194.2060  176.4150  134.8840 C   0  0  2  0  0  3  0  0  0  0  0  0
  187.1760  177.3260  142.9100 C   0  0  0  0  0  2  0  0  0  0  0  0
  187.2860  178.0980  147.4870 C   0  0  0  0  0  3  0  0  0  0  0  0
  189.0990  177.0670  146.0800 C   0  0  0  0  0  2  0  0  0  0  0  0
  188.8300  177.8320  144.8040 C   0  0  0  0  0  2  0  0  0  0  0  0
  186.3460  177.7910  145.1370 C   0  0  0  0  0  3  0  0  0  0  0  0
  188.7590  177.9860  147.2320 C   0  0  0  0  0  2  0  0  0  0  0  0
  186.2880  178.0390  146.5940 C   0  0  0  0  0  3  0  0  0  0  0  0
  187.4160  177.6550  144.3470 C   0  0  0  0  0  0  0  0  0  0  0  0
  1 19  1  6  0  0  0
  1 34  1  0  0  0  0
  3  8  2  0  0  0  0
  3  7  1  0  0  0  0
  4  5  1  0  0  0  0
  4  1  1  0  0  0  0
  6  2  1  0  0  0  0
  6  5  2  0  0  0  0
  7  4  2  0  0  0  0
  8  6  1  0  0  0  0
  9  8  1  0  0  0  0
 10 12  1  0  0  0  0
 11 10  2  0  0  0  0
 11 15  1  0  0  0  0
 12 13  2  0  0  0  0
 14 13  1  0  0  0  0
 14  9  1  0  0  0  0
 15 14  2  0  0  0  0
 16 17  1  0  0  0  0
 17 10  1  0  0  0  0
 18 20  2  0  0  0  0
 20 19  2  0  0  0  0
 21 18  1  0  0  0  0
 22 21  2  0  0  0  0
 24 22  1  0  0  0  0
 24 23  1  1  0  0  0
 25 29  2  0  0  0  0
 26 28  1  0  0  0  0
 28 25  1  0  0  0  0
 28 24  1  1  0  0  0
 30 27  1  6  0  0  0
 30 31  1  0  0  0  0
 30 32  1  0  0  0  0
 32 25  1  0  0  0  0
 33 27  1  1  0  0  0
 33 26  1  0  0  0  0
 33 31  1  0  0  0  0
 34 41  1  0  0  0  0
 36 39  1  0  0  0  0
 37 36  1  0  0  0  0
 38 40  1  0  0  0  0
 39 35  1  0  0  0  0
 40 35  2  0  0  0  0
 41 37  1  0  0  0  0
 41 38  2  0  0  0  0
M  END
>  <MODEL>
2

>  <REMARK>
 VINA RESULT:      -8.9      1.043      1.686
  Name = 
  10 active torsions:
  status: ('A' for Active; 'I' for Inactive)
    1  A    between atoms: C_2  and  O_26
    2  A    between atoms: C_3  and  C_4
    3  A    between atoms: C_8  and  C_38
    4  A    between atoms: C_10  and  C_34
    5  A    between atoms: C_10  and  C_41
    6  A    between atoms: C_15  and  C_34
    7  A    between atoms: C_18  and  N_28
    8  A    between atoms: C_21  and  C_34
    9  A    between atoms: C_22  and  C_38
   10  A    between atoms: N_28  and  C_37
                            x       y       z     vdW  Elec       q    Type
                         _______ _______ _______ _____ _____    ______ ____

>  <TORSDO>
F 10

$$$$
=
 OpenBabel11042413343D

 41 45  0  0  1  0  0  0  0  0999 V2000
  189.4280  177.5720  142.1260 C   0  0  2  0  0  3  0  0  0  0  0  0
  193.8830  177.4770  140.0940 O   0  0  0  0  0  1  0  0  0  0  0  0
  190.6340  176.3110  138.7970 C   0  0  0  0  0  3  0  0  0  0  0  0
  190.3220  177.2070  140.9750 C   0  0  0  0  0  0  0  0  0  0  0  0
  191.6840  177.4990  141.0640 C   0  0  0  0  0  3  0  0  0  0  0  0
  192.5270  177.1870  140.0000 C   0  0  0  0  0  0  0  0  0  0  0  0
  189.8280  176.6370  139.8400 N   0  0  0  0  0  0  0  0  0  0  0  0
  192.0090  176.5820  138.8480 C   0  0  0  0  0  0  0  0  0  0  0  0
  192.9060  176.2090  137.7880 N   0  0  0  0  0  2  0  0  0  0  0  0
  194.7380  172.4290  137.1530 C   0  0  0  0  0  0  0  0  0  0  0  0
  195.2700  173.3460  138.0730 C   0  0  0  0  0  3  0  0  0  0  0  0
  193.5960  172.7760  136.4240 C   0  0  0  0  0  3  0  0  0  0  0  0
  192.9820  174.0170  136.6200 C   0  0  0  0  0  3  0  0  0  0  0  0
  193.5110  174.9310  137.5440 C   0  0  0  0  0  0  0  0  0  0  0  0
  194.6600  174.5900  138.2620 C   0  0  0  0  0  3  0  0  0  0  0  0
  195.2440  170.1430  137.9460 C   0  0  0  0  0  1  0  0  0  0  0  0
  195.3030  171.1660  136.9600 O   0  0  0  0  0  0  0  0  0  0  0  0
  186.0370  178.0410  143.3930 C   0  0  0  0  0  3  0  0  0  0  0  0
  188.0330  177.9620  141.7130 C   0  0  0  0  0  3  0  0  0  0  0  0
  187.0380  178.0140  142.5590 C   0  0  0  0  0  0  0  0  0  0  0  0
  184.7120  178.4240  142.9240 C   0  0  0  0  0  3  0  0  0  0  0  0
  184.2500  177.9530  141.7750 C   0  0  0  0  0  3  0  0  0  0  0  0
  182.2330  179.0860  142.2520 O   0  0  0  0  0  1  0  0  0  0  0  0
  182.8870  178.3220  141.2820 C   0  0  1  0  0  3  0  0  0  0  0  0
  181.6240  179.2260  139.2880 C   0  0  0  0  0  0  0  0  0  0  0  0
  184.1270  178.6280  139.0510 C   0  0  0  0  0  2  0  0  0  0  0  0
  182.9740  177.7820  137.0510 C   0  0  0  0  0  2  0  0  0  0  0  0
  182.9770  179.1110  139.9700 C   0  0  2  0  0  3  0  0  0  0  0  0
  180.9300  180.2490  139.5160 O   0  0  0  0  0  0  0  0  0  0  0  0
  181.8660  177.1690  137.8630 C   0  0  1  0  0  3  0  0  0  0  0  0
  182.7560  176.6620  138.8200 O   0  0  0  0  0  0  0  0  0  0  0  0
  181.0950  178.2250  138.4460 O   0  0  0  0  0  0  0  0  0  0  0  0
  183.8160  177.3690  138.2250 C   0  0  2  0  0  3  0  0  0  0  0  0
  190.0960  178.5990  143.0440 C   0  0  0  0  0  2  0  0  0  0  0  0
  189.9920  176.7690  147.3090 C   0  0  0  0  0  3  0  0  0  0  0  0
  191.6770  176.3010  145.5010 C   0  0  0  0  0  2  0  0  0  0  0  0
  191.6620  177.6650  144.8470 C   0  0  0  0  0  2  0  0  0  0  0  0
  189.1980  177.9630  145.2010 C   0  0  0  0  0  3  0  0  0  0  0  0
  191.4310  176.5110  146.9770 C   0  0  0  0  0  2  0  0  0  0  0  0
  189.0750  177.4020  146.5640 C   0  0  0  0  0  3  0  0  0  0  0  0
  190.2800  178.0540  144.4220 C   0  0  0  0  0  0  0  0  0  0  0  0
  1 19  1  6  0  0  0
  1 34  1  0  0  0  0
  3  8  2  0  0  0  0
  3  7  1  0  0  0  0
  4  5  1  0  0  0  0
  4  1  1  0  0  0  0
  6  2  1  0  0  0  0
  6  5  2  0  0  0  0
  7  4  2  0  0  0  0
  8  6  1  0  0  0  0
  9  8  1  0  0  0  0
 10 11  1  0  0  0  0
 11 15  2  0  0  0  0
 12 13  1  0  0  0  0
 12 10  2  0  0  0  0
 13 14  2  0  0  0  0
 14  9  1  0  0  0  0
 14 15  1  0  0  0  0
 17 10  1  0  0  0  0
 17 16  1  0  0  0  0
 19 20  2  0  0  0  0
 20 18  2  0  0  0  0
 21 18  1  0  0  0  0
 22 21  2  0  0  0  0
 24 22  1  0  0  0  0
 24 23  1  1  0  0  0
 25 29  2  0  0  0  0
 25 28  1  0  0  0  0
 26 28  1  0  0  0  0
 28 24  1  1  0  0  0
 30 27  1  6  0  0  0
 30 32  1  0  0  0  0
 30 31  1  0  0  0  0
 32 25  1  0  0  0  0
 33 27  1  6  0  0  0
 33 31  1  0  0  0  0
 33 26  1  0  0  0  0
 34 41  1  0  0  0  0
 36 39  1  0  0  0  0
 37 36  1  0  0  0  0
 38 40  1  0  0  0  0
 39 35  1  0  0  0  0
 40 35  2  0  0  0  0
 41 37  1  0  0  0  0
 41 38  2  0  0  0  0
M  END
>  <MODEL>
3

>  <REMARK>
 VINA RESULT:      -8.9      2.866     10.218
  Name = 
  10 active torsions:
  status: ('A' for Active; 'I' for Inactive)
    1  A    between atoms: C_2  and  O_26
    2  A    between atoms: C_3  and  C_4
    3  A    between atoms: C_8  and  C_38
    4  A    between atoms: C_10  and  C_34
    5  A    between atoms: C_10  and  C_41
    6  A    between atoms: C_15  and  C_34
    7  A    between atoms: C_18  and  N_28
    8  A    between atoms: C_21  and  C_34
    9  A    between atoms: C_22  and  C_38
   10  A    between atoms: N_28  and  C_37
                            x       y       z     vdW  Elec       q    Type
                         _______ _______ _______ _____ _____    ______ ____

>  <TORSDO>
F 10

$$$$
=
 OpenBabel11042413343D

 41 45  0  0  1  0  0  0  0  0999 V2000
  186.8390  178.1570  142.8360 C   0  0  2  0  0  3  0  0  0  0  0  0
  182.2650  179.2890  144.1700 O   0  0  0  0  0  1  0  0  0  0  0  0
  183.6010  178.1520  140.9280 C   0  0  0  0  0  3  0  0  0  0  0  0
  185.3860  178.3130  142.4870 C   0  0  0  0  0  0  0  0  0  0  0  0
  184.4990  178.7340  143.4790 C   0  0  0  0  0  3  0  0  0  0  0  0
  183.1450  178.8660  143.1810 C   0  0  0  0  0  0  0  0  0  0  0  0
  184.9150  178.0160  141.2430 N   0  0  0  0  0  0  0  0  0  0  0  0
  182.6780  178.5780  141.8930 C   0  0  0  0  0  0  0  0  0  0  0  0
  181.2870  178.7830  141.5880 N   0  0  0  0  0  2  0  0  0  0  0  0
  179.5480  181.8790  139.2560 C   0  0  0  0  0  0  0  0  0  0  0  0
  180.5870  181.0840  138.7470 C   0  0  0  0  0  3  0  0  0  0  0  0
  179.0920  181.6540  140.5600 C   0  0  0  0  0  3  0  0  0  0  0  0
  179.6560  180.6400  141.3410 C   0  0  0  0  0  3  0  0  0  0  0  0
  180.6900  179.8430  140.8280 C   0  0  0  0  0  0  0  0  0  0  0  0
  181.1550  180.0770  139.5310 C   0  0  0  0  0  3  0  0  0  0  0  0
  179.6690  183.9290  137.8810 C   0  0  0  0  0  1  0  0  0  0  0  0
  178.9370  182.8740  138.4900 O   0  0  0  0  0  0  0  0  0  0  0  0
  189.9840  177.0050  141.3840 C   0  0  0  0  0  3  0  0  0  0  0  0
  187.7700  178.3580  141.6690 C   0  0  0  0  0  3  0  0  0  0  0  0
  188.8720  177.6690  141.5210 C   0  0  0  0  0  0  0  0  0  0  0  0
  190.8400  177.2540  140.2320 C   0  0  0  0  0  3  0  0  0  0  0  0
  190.9890  176.3240  139.3000 C   0  0  0  0  0  3  0  0  0  0  0  0
  193.1700  176.7770  138.5130 O   0  0  0  0  0  1  0  0  0  0  0  0
  191.8510  176.5640  138.1010 C   0  0  1  0  0  3  0  0  0  0  0  0
  192.2400  175.7530  135.7390 C   0  0  0  0  0  0  0  0  0  0  0  0
  190.4440  174.6100  137.2040 C   0  0  0  0  0  2  0  0  0  0  0  0
  189.4830  174.9140  134.9610 C   0  0  0  0  0  2  0  0  0  0  0  0
  191.7920  175.3710  137.1390 C   0  0  2  0  0  3  0  0  0  0  0  0
  193.4440  175.5680  135.4300 O   0  0  0  0  0  0  0  0  0  0  0  0
  189.9520  176.3400  134.8760 C   0  0  1  0  0  3  0  0  0  0  0  0
  189.5710  176.6150  136.1970 O   0  0  0  0  0  0  0  0  0  0  0  0
  191.3810  176.3420  134.7860 O   0  0  0  0  0  0  0  0  0  0  0  0
  189.2940  175.2540  136.4120 C   0  0  2  0  0  3  0  0  0  0  0  0
  187.0920  176.8490  143.5910 C   0  0  0  0  0  2  0  0  0  0  0  0
  189.0260  177.8430  147.6930 C   0  0  0  0  0  3  0  0  0  0  0  0
  186.7460  178.5350  146.8860 C   0  0  0  0  0  2  0  0  0  0  0  0
  186.4540  177.3230  146.0290 C   0  0  0  0  0  2  0  0  0  0  0  0
  188.8300  177.1220  145.2550 C   0  0  0  0  0  3  0  0  0  0  0  0
  187.5880  178.0660  148.0510 C   0  0  0  0  0  2  0  0  0  0  0  0
  189.5290  177.4230  146.5240 C   0  0  0  0  0  3  0  0  0  0  0  0
  187.5180  177.1110  144.9980 C   0  0  0  0  0  0  0  0  0  0  0  0
  1 19  1  6  0  0  0
  1 34  1  0  0  0  0
  3  7  2  0  0  0  0
  3  8  1  0  0  0  0
  4  1  1  0  0  0  0
  4  5  2  0  0  0  0
  6  5  1  0  0  0  0
  6  2  1  0  0  0  0
  7  4  1  0  0  0  0
  8  6  2  0  0  0  0
  9  8  1  0  0  0  0
 10 12  1  0  0  0  0
 11 10  2  0  0  0  0
 11 15  1  0  0  0  0
 12 13  2  0  0  0  0
 14 13  1  0  0  0  0
 14  9  1  0  0  0  0
 15 14  2  0  0  0  0
 16 17  1  0  0  0  0
 17 10  1  0  0  0  0
 18 20  2  0  0  0  0
 20 19  2  0  0  0  0
 21 18  1  0  0  0  0
 22 21  2  0  0  0  0
 24 23  1  1  0  0  0
 24 22  1  0  0  0  0
 25 28  1  0  0  0  0
 28 26  1  0  0  0  0
 28 24  1  1  0  0  0
 29 25  2  0  0  0  0
 30 27  1  1  0  0  0
 30 31  1  0  0  0  0
 31 33  1  0  0  0  0
 32 30  1  0  0  0  0
 32 25  1  0  0  0  0
 33 27  1  6  0  0  0
 33 26  1  0  0  0  0
 34 41  1  0  0  0  0
 35 39  1  0  0  0  0
 36 39  1  0  0  0  0
 37 36  1  0  0  0  0
 38 40  1  0  0  0  0
 40 35  2  0  0  0  0
 41 38  2  0  0  0  0
 41 37  1  0  0  0  0
M  END
>  <MODEL>
4

>  <REMARK>
 VINA RESULT:      -8.6      1.498      2.108
  Name = 
  10 active torsions:
  status: ('A' for Active; 'I' for Inactive)
    1  A    between atoms: C_2  and  O_26
    2  A    between atoms: C_3  and  C_4
    3  A    between atoms: C_8  and  C_38
    4  A    between atoms: C_10  and  C_34
    5  A    between atoms: C_10  and  C_41
    6  A    between atoms: C_15  and  C_34
    7  A    between atoms: C_18  and  N_28
    8  A    between atoms: C_21  and  C_34
    9  A    between atoms: C_22  and  C_38
   10  A    between atoms: N_28  and  C_37
                            x       y       z     vdW  Elec       q    Type
                         _______ _______ _______ _____ _____    ______ ____

>  <TORSDO>
F 10

$$$$
=
 OpenBabel11042413343D

 41 45  0  0  1  0  0  0  0  0999 V2000
  186.6340  178.2530  142.9990 C   0  0  2  0  0  3  0  0  0  0  0  0
  181.9160  179.0100  144.0730 O   0  0  0  0  0  1  0  0  0  0  0  0
  183.5630  178.3810  140.8350 C   0  0  0  0  0  3  0  0  0  0  0  0
  185.2070  178.3980  142.5500 C   0  0  0  0  0  0  0  0  0  0  0  0
  184.2230  178.6440  143.5090 C   0  0  0  0  0  3  0  0  0  0  0  0
  182.8920  178.7620  143.1160 C   0  0  0  0  0  0  0  0  0  0  0  0
  184.8530  178.2550  141.2410 N   0  0  0  0  0  0  0  0  0  0  0  0
  182.5450  178.6340  141.7650 C   0  0  0  0  0  0  0  0  0  0  0  0
  181.1750  178.8240  141.3720 N   0  0  0  0  0  2  0  0  0  0  0  0
  179.5160  182.0120  139.1060 C   0  0  0  0  0  0  0  0  0  0  0  0
  180.5790  181.2440  138.6060 C   0  0  0  0  0  3  0  0  0  0  0  0
  179.0090  181.7290  140.3790 C   0  0  0  0  0  3  0  0  0  0  0  0
  179.5450  180.6840  141.1380 C   0  0  0  0  0  3  0  0  0  0  0  0
  180.6040  179.9140  140.6340 C   0  0  0  0  0  0  0  0  0  0  0  0
  181.1200  180.2060  139.3690 C   0  0  0  0  0  3  0  0  0  0  0  0
  179.6810  183.8670  137.4810 C   0  0  0  0  0  1  0  0  0  0  0  0
  178.9320  183.0370  138.3590 O   0  0  0  0  0  0  0  0  0  0  0  0
  189.8650  176.9040  141.9680 C   0  0  0  0  0  3  0  0  0  0  0  0
  187.6300  178.2480  141.8690 C   0  0  0  0  0  3  0  0  0  0  0  0
  188.7420  177.5620  141.9150 C   0  0  0  0  0  0  0  0  0  0  0  0
  190.7850  176.9460  140.8400 C   0  0  0  0  0  3  0  0  0  0  0  0
  190.3500  176.6890  139.6150 C   0  0  0  0  0  3  0  0  0  0  0  0
  191.7540  175.4570  138.1700 O   0  0  0  0  0  1  0  0  0  0  0  0
  191.2730  176.7420  138.4400 C   0  0  1  0  0  3  0  0  0  0  0  0
  189.2200  177.9290  137.5670 C   0  0  0  0  0  0  0  0  0  0  0  0
  190.4990  176.2910  136.0310 C   0  0  0  0  0  2  0  0  0  0  0  0
  188.0970  175.8580  135.7330 C   0  0  0  0  0  2  0  0  0  0  0  0
  190.5550  177.3000  137.2050 C   0  0  2  0  0  3  0  0  0  0  0  0
  189.1870  179.1660  137.7840 O   0  0  0  0  0  0  0  0  0  0  0  0
  187.8420  175.8550  137.2160 C   0  0  1  0  0  3  0  0  0  0  0  0
  188.9920  175.0970  137.4810 O   0  0  0  0  0  0  0  0  0  0  0  0
  188.0280  177.1870  137.7100 O   0  0  0  0  0  0  0  0  0  0  0  0
  189.3980  175.2250  136.1410 C   0  0  2  0  0  3  0  0  0  0  0  0
  186.7980  177.0680  143.9540 C   0  0  0  0  0  2  0  0  0  0  0  0
  187.9890  178.2550  148.2810 C   0  0  0  0  0  3  0  0  0  0  0  0
  189.3400  176.8860  146.6590 C   0  0  0  0  0  2  0  0  0  0  0  0
  188.8700  177.5520  145.3860 C   0  0  0  0  0  2  0  0  0  0  0  0
  186.5280  177.8390  146.2340 C   0  0  0  0  0  3  0  0  0  0  0  0
  189.3520  177.9440  147.7390 C   0  0  0  0  0  2  0  0  0  0  0  0
  186.8180  178.2310  147.6310 C   0  0  0  0  0  3  0  0  0  0  0  0
  187.3790  177.5020  145.2590 C   0  0  0  0  0  0  0  0  0  0  0  0
  1 19  1  6  0  0  0
  1 34  1  0  0  0  0
  3  7  2  0  0  0  0
  3  8  1  0  0  0  0
  4  1  1  0  0  0  0
  4  5  2  0  0  0  0
  6  5  1  0  0  0  0
  6  2  1  0  0  0  0
  7  4  1  0  0  0  0
  8  6  2  0  0  0  0
  9  8  1  0  0  0  0
 10 12  1  0  0  0  0
 11 10  2  0  0  0  0
 11 15  1  0  0  0  0
 12 13  2  0  0  0  0
 14 13  1  0  0  0  0
 14  9  1  0  0  0  0
 15 14  2  0  0  0  0
 16 17  1  0  0  0  0
 17 10  1  0  0  0  0
 19 20  2  0  0  0  0
 20 18  2  0  0  0  0
 21 18  1  0  0  0  0
 22 21  2  0  0  0  0
 24 23  1  6  0  0  0
 24 22  1  0  0  0  0
 25 32  1  0  0  0  0
 25 29  2  0  0  0  0
 26 33  1  0  0  0  0
 26 28  1  0  0  0  0
 28 25  1  0  0  0  0
 28 24  1  1  0  0  0
 30 27  1  6  0  0  0
 30 31  1  0  0  0  0
 30 32  1  0  0  0  0
 33 27  1  6  0  0  0
 33 31  1  0  0  0  0
 34 41  1  0  0  0  0
 36 39  1  0  0  0  0
 37 36  1  0  0  0  0
 38 40  1  0  0  0  0
 39 35  1  0  0  0  0
 40 35  2  0  0  0  0
 41 37  1  0  0  0  0
 41 38  2  0  0  0  0
M  END
>  <MODEL>
5

>  <REMARK>
 VINA RESULT:      -8.5      1.948      2.673
  Name = 
  10 active torsions:
  status: ('A' for Active; 'I' for Inactive)
    1  A    between atoms: C_2  and  O_26
    2  A    between atoms: C_3  and  C_4
    3  A    between atoms: C_8  and  C_38
    4  A    between atoms: C_10  and  C_34
    5  A    between atoms: C_10  and  C_41
    6  A    between atoms: C_15  and  C_34
    7  A    between atoms: C_18  and  N_28
    8  A    between atoms: C_21  and  C_34
    9  A    between atoms: C_22  and  C_38
   10  A    between atoms: N_28  and  C_37
                            x       y       z     vdW  Elec       q    Type
                         _______ _______ _______ _____ _____    ______ ____

>  <TORSDO>
F 10

$$$$
=
 OpenBabel11042413343D

 41 45  0  0  1  0  0  0  0  0999 V2000
  187.9140  178.2980  142.9370 C   0  0  2  0  0  3  0  0  0  0  0  0
  184.8130  179.4850  139.3380 O   0  0  0  0  0  1  0  0  0  0  0  0
  184.1600  178.2550  142.7520 C   0  0  0  0  0  3  0  0  0  0  0  0
  186.5070  178.4240  142.4250 C   0  0  0  0  0  0  0  0  0  0  0  0
  186.3050  178.8860  141.1230 C   0  0  0  0  0  3  0  0  0  0  0  0
  185.0090  179.0280  140.6350 C   0  0  0  0  0  0  0  0  0  0  0  0
  185.4320  178.1370  143.2120 N   0  0  0  0  0  0  0  0  0  0  0  0
  183.9140  178.7090  141.4480 C   0  0  0  0  0  0  0  0  0  0  0  0
  182.5860  178.8010  140.9050 N   0  0  0  0  0  2  0  0  0  0  0  0
  180.1070  175.5900  139.6440 C   0  0  0  0  0  0  0  0  0  0  0  0
  181.4850  175.5880  139.3790 C   0  0  0  0  0  3  0  0  0  0  0  0
  179.5420  176.6760  140.3210 C   0  0  0  0  0  3  0  0  0  0  0  0
  180.3450  177.7430  140.7410 C   0  0  0  0  0  3  0  0  0  0  0  0
  181.7230  177.7370  140.4800 C   0  0  0  0  0  0  0  0  0  0  0  0
  182.2840  176.6580  139.7910 C   0  0  0  0  0  3  0  0  0  0  0  0
  179.7200  173.4860  138.4060 C   0  0  0  0  0  1  0  0  0  0  0  0
  179.2830  174.5250  139.2740 O   0  0  0  0  0  0  0  0  0  0  0  0
  189.2470  176.7390  139.9180 C   0  0  0  0  0  3  0  0  0  0  0  0
  188.9660  178.4480  141.8700 C   0  0  0  0  0  3  0  0  0  0  0  0
  189.0960  177.5980  140.8860 C   0  0  0  0  0  0  0  0  0  0  0  0
  190.2900  176.9440  138.9220 C   0  0  0  0  0  3  0  0  0  0  0  0
  191.4620  176.3400  139.0510 C   0  0  0  0  0  3  0  0  0  0  0  0
  193.6510  177.1250  138.6340 O   0  0  0  0  0  1  0  0  0  0  0  0
  192.5410  176.5250  138.0320 C   0  0  1  0  0  3  0  0  0  0  0  0
  194.4040  174.8520  137.6900 C   0  0  0  0  0  0  0  0  0  0  0  0
  192.5160  175.0380  135.9360 C   0  0  0  0  0  2  0  0  0  0  0  0
  194.6420  174.8600  134.7140 C   0  0  0  0  0  2  0  0  0  0  0  0
  192.9470  175.1790  137.4170 C   0  0  2  0  0  3  0  0  0  0  0  0
  194.6770  174.1440  138.6920 O   0  0  0  0  0  0  0  0  0  0  0  0
  195.3100  175.8880  135.5850 C   0  0  1  0  0  3  0  0  0  0  0  0
  194.1890  176.7310  135.5680 O   0  0  0  0  0  0  0  0  0  0  0  0
  195.4670  175.3360  136.8970 O   0  0  0  0  0  0  0  0  0  0  0  0
  193.4370  175.7340  134.9210 C   0  0  2  0  0  3  0  0  0  0  0  0
  188.0860  177.0320  143.7810 C   0  0  0  0  0  2  0  0  0  0  0  0
  188.2510  177.8460  148.3490 C   0  0  0  0  0  3  0  0  0  0  0  0
  190.0200  176.7420  146.9420 C   0  0  0  0  0  2  0  0  0  0  0  0
  189.7680  177.5020  145.6590 C   0  0  0  0  0  2  0  0  0  0  0  0
  187.2860  177.5470  146.0090 C   0  0  0  0  0  3  0  0  0  0  0  0
  189.7180  177.6830  148.0860 C   0  0  0  0  0  2  0  0  0  0  0  0
  187.2460  177.8120  147.4640 C   0  0  0  0  0  3  0  0  0  0  0  0
  188.3450  177.3680  145.2130 C   0  0  0  0  0  0  0  0  0  0  0  0
  1 19  1  6  0  0  0
  1 34  1  0  0  0  0
  2  6  1  0  0  0  0
  3  7  1  0  0  0  0
  4  1  1  0  0  0  0
  4  7  2  0  0  0  0
  5  4  1  0  0  0  0
  6  5  2  0  0  0  0
  6  8  1  0  0  0  0
  8  3  2  0  0  0  0
  9  8  1  0  0  0  0
 10 12  1  0  0  0  0
 11 10  2  0  0  0  0
 11 15  1  0  0  0  0
 12 13  2  0  0  0  0
 14 13  1  0  0  0  0
 14  9  1  0  0  0  0
 15 14  2  0  0  0  0
 16 17  1  0  0  0  0
 17 10  1  0  0  0  0
 18 20  2  0  0  0  0
 20 19  2  0  0  0  0
 21 22  2  0  0  0  0
 21 18  1  0  0  0  0
 24 23  1  1  0  0  0
 24 22  1  0  0  0  0
 25 29  2  0  0  0  0
 26 28  1  0  0  0  0
 28 25  1  0  0  0  0
 28 24  1  6  0  0  0
 30 27  1  6  0  0  0
 30 32  1  0  0  0  0
 31 30  1  0  0  0  0
 32 25  1  0  0  0  0
 33 27  1  1  0  0  0
 33 31  1  0  0  0  0
 33 26  1  0  0  0  0
 34 41  1  0  0  0  0
 36 39  1  0  0  0  0
 37 36  1  0  0  0  0
 38 40  1  0  0  0  0
 39 35  1  0  0  0  0
 40 35  2  0  0  0  0
 41 37  1  0  0  0  0
 41 38  2  0  0  0  0
M  END
>  <MODEL>
6

>  <REMARK>
 VINA RESULT:      -8.5      2.799      3.612
  Name = 
  10 active torsions:
  status: ('A' for Active; 'I' for Inactive)
    1  A    between atoms: C_2  and  O_26
    2  A    between atoms: C_3  and  C_4
    3  A    between atoms: C_8  and  C_38
    4  A    between atoms: C_10  and  C_34
    5  A    between atoms: C_10  and  C_41
    6  A    between atoms: C_15  and  C_34
    7  A    between atoms: C_18  and  N_28
    8  A    between atoms: C_21  and  C_34
    9  A    between atoms: C_22  and  C_38
   10  A    between atoms: N_28  and  C_37
                            x       y       z     vdW  Elec       q    Type
                         _______ _______ _______ _____ _____    ______ ____

>  <TORSDO>
F 10

$$$$
=
 OpenBabel11042413343D

 41 45  0  0  1  0  0  0  0  0999 V2000
  184.3660  178.9550  139.7080 C   0  0  2  0  0  3  0  0  0  0  0  0
  185.0360  176.1670  135.7370 O   0  0  0  0  0  1  0  0  0  0  0  0
  187.4670  178.0200  137.7990 C   0  0  0  0  0  3  0  0  0  0  0  0
  185.2860  178.3590  138.6800 C   0  0  0  0  0  0  0  0  0  0  0  0
  184.7430  177.5480  137.6820 C   0  0  0  0  0  3  0  0  0  0  0  0
  185.5810  176.9710  136.7310 C   0  0  0  0  0  0  0  0  0  0  0  0
  186.6330  178.5610  138.7250 N   0  0  0  0  0  0  0  0  0  0  0  0
  186.9610  177.2050  136.7770 C   0  0  0  0  0  0  0  0  0  0  0  0
  187.8010  176.6520  135.7480 N   0  0  0  0  0  2  0  0  0  0  0  0
  191.4130  174.4560  136.1740 C   0  0  0  0  0  0  0  0  0  0  0  0
  191.3520  175.6030  135.3660 C   0  0  0  0  0  3  0  0  0  0  0  0
  190.2580  174.0240  136.8340 C   0  0  0  0  0  3  0  0  0  0  0  0
  189.0600  174.7350  136.7030 C   0  0  0  0  0  3  0  0  0  0  0  0
  189.0030  175.8840  135.9000 C   0  0  0  0  0  0  0  0  0  0  0  0
  190.1530  176.3070  135.2290 C   0  0  0  0  0  3  0  0  0  0  0  0
  193.6510  174.2140  137.1940 C   0  0  0  0  0  1  0  0  0  0  0  0
  192.6000  173.7460  136.3580 O   0  0  0  0  0  0  0  0  0  0  0  0
  183.5030  178.7460  143.2480 C   0  0  0  0  0  3  0  0  0  0  0  0
  184.9540  179.0050  141.0940 C   0  0  0  0  0  3  0  0  0  0  0  0
  184.2270  178.8610  142.1710 C   0  0  0  0  0  0  0  0  0  0  0  0
  184.1370  178.8090  144.5580 C   0  0  0  0  0  3  0  0  0  0  0  0
  185.4540  178.7120  144.6670 C   0  0  0  0  0  3  0  0  0  0  0  0
  185.1680  179.0180  146.9910 O   0  0  0  0  0  1  0  0  0  0  0  0
  186.1270  178.7890  146.0000 C   0  0  1  0  0  3  0  0  0  0  0  0
  188.0100  177.7180  147.3010 C   0  0  0  0  0  0  0  0  0  0  0  0
  187.3060  176.7250  145.0220 C   0  0  0  0  0  2  0  0  0  0  0  0
  189.7640  176.7560  145.0850 C   0  0  0  0  0  2  0  0  0  0  0  0
  186.8890  177.4920  146.3020 C   0  0  2  0  0  3  0  0  0  0  0  0
  187.7700  177.5150  148.5180 O   0  0  0  0  0  0  0  0  0  0  0  0
  189.8030  178.1700  145.5970 C   0  0  1  0  0  3  0  0  0  0  0  0
  188.7980  178.5900  144.7140 O   0  0  0  0  0  0  0  0  0  0  0  0
  189.2920  178.1810  146.9350 O   0  0  0  0  0  0  0  0  0  0  0  0
  188.5680  177.2580  144.3250 C   0  0  2  0  0  3  0  0  0  0  0  0
  182.9830  178.2990  139.6610 C   0  0  0  0  0  2  0  0  0  0  0  0
  179.5490  181.4190  139.8080 C   0  0  0  0  0  3  0  0  0  0  0  0
  181.7320  181.6270  138.5750 C   0  0  0  0  0  2  0  0  0  0  0  0
  181.9260  180.1620  138.2510 C   0  0  0  0  0  2  0  0  0  0  0  0
  180.9770  179.4060  140.4450 C   0  0  0  0  0  3  0  0  0  0  0  0
  180.2440  181.8930  138.5670 C   0  0  0  0  0  2  0  0  0  0  0  0
  179.8530  180.3600  140.5700 C   0  0  0  0  0  3  0  0  0  0  0  0
  181.9070  179.3200  139.4880 C   0  0  0  0  0  0  0  0  0  0  0  0
  1 34  1  1  0  0  0
  1 19  1  0  0  0  0
  2  6  1  0  0  0  0
  3  7  1  0  0  0  0
  4  7  2  0  0  0  0
  4  1  1  0  0  0  0
  5  4  1  0  0  0  0
  6  8  1  0  0  0  0
  6  5  2  0  0  0  0
  8  3  2  0  0  0  0
  9 14  1  0  0  0  0
  9  8  1  0  0  0  0
 10 17  1  0  0  0  0
 10 12  1  0  0  0  0
 11 10  2  0  0  0  0
 13 12  2  0  0  0  0
 14 13  1  0  0  0  0
 15 11  1  0  0  0  0
 15 14  2  0  0  0  0
 17 16  1  0  0  0  0
 18 21  1  0  0  0  0
 19 20  2  0  0  0  0
 20 18  2  0  0  0  0
 21 22  2  0  0  0  0
 22 24  1  0  0  0  0
 24 23  1  1  0  0  0
 25 29  2  0  0  0  0
 26 28  1  0  0  0  0
 28 24  1  6  0  0  0
 28 25  1  0  0  0  0
 30 27  1  6  0  0  0
 30 32  1  0  0  0  0
 31 30  1  0  0  0  0
 32 25  1  0  0  0  0
 33 31  1  0  0  0  0
 33 26  1  1  0  0  0
 33 27  1  0  0  0  0
 35 40  2  0  0  0  0
 37 36  1  0  0  0  0
 37 41  1  0  0  0  0
 38 40  1  0  0  0  0
 39 36  1  0  0  0  0
 39 35  1  0  0  0  0
 41 34  1  0  0  0  0
 41 38  2  0  0  0  0
M  END
>  <MODEL>
7

>  <REMARK>
 VINA RESULT:      -8.4      3.201      9.549
  Name = 
  10 active torsions:
  status: ('A' for Active; 'I' for Inactive)
    1  A    between atoms: C_2  and  O_26
    2  A    between atoms: C_3  and  C_4
    3  A    between atoms: C_8  and  C_38
    4  A    between atoms: C_10  and  C_34
    5  A    between atoms: C_10  and  C_41
    6  A    between atoms: C_15  and  C_34
    7  A    between atoms: C_18  and  N_28
    8  A    between atoms: C_21  and  C_34
    9  A    between atoms: C_22  and  C_38
   10  A    between atoms: N_28  and  C_37
                            x       y       z     vdW  Elec       q    Type
                         _______ _______ _______ _____ _____    ______ ____

>  <TORSDO>
F 10

$$$$
=
 OpenBabel11042413343D

 41 45  0  0  1  0  0  0  0  0999 V2000
  187.1120  177.6680  142.9030 C   0  0  2  0  0  3  0  0  0  0  0  0
  188.5700  179.0000  138.4220 O   0  0  0  0  0  1  0  0  0  0  0  0
  190.0880  176.6660  140.8380 C   0  0  0  0  0  3  0  0  0  0  0  0
  188.1070  177.5780  141.7820 C   0  0  0  0  0  0  0  0  0  0  0  0
  187.8890  178.3310  140.6270 C   0  0  0  0  0  3  0  0  0  0  0  0
  188.7900  178.2470  139.5680 C   0  0  0  0  0  0  0  0  0  0  0  0
  189.1900  176.7520  141.8530 N   0  0  0  0  0  0  0  0  0  0  0  0
  189.9090  177.4100  139.6640 C   0  0  0  0  0  0  0  0  0  0  0  0
  190.8610  177.3860  138.5860 N   0  0  0  0  0  2  0  0  0  0  0  0
  193.4030  174.1980  137.3930 C   0  0  0  0  0  0  0  0  0  0  0  0
  193.9270  175.3670  137.9670 C   0  0  0  0  0  3  0  0  0  0  0  0
  192.0220  174.0930  137.1980 C   0  0  0  0  0  3  0  0  0  0  0  0
  191.1720  175.1350  137.5840 C   0  0  0  0  0  3  0  0  0  0  0  0
  191.6970  176.3000  138.1620 C   0  0  0  0  0  0  0  0  0  0  0  0
  193.0780  176.4110  138.3430 C   0  0  0  0  0  3  0  0  0  0  0  0
  195.3760  172.7590  137.7740 C   0  0  0  0  0  1  0  0  0  0  0  0
  194.2190  173.1240  137.0320 O   0  0  0  0  0  0  0  0  0  0  0  0
  183.8320  178.8030  144.0330 C   0  0  0  0  0  3  0  0  0  0  0  0
  185.6970  177.9060  142.4430 C   0  0  0  0  0  3  0  0  0  0  0  0
  184.7680  178.3690  143.2380 C   0  0  0  0  0  0  0  0  0  0  0  0
  182.4830  179.0070  143.5230 C   0  0  0  0  0  3  0  0  0  0  0  0
  182.1720  178.6280  142.2920 C   0  0  0  0  0  3  0  0  0  0  0  0
  180.4520  180.1700  141.7990 O   0  0  0  0  0  1  0  0  0  0  0  0
  180.7900  178.8140  141.7530 C   0  0  1  0  0  3  0  0  0  0  0  0
  181.5350  177.0560  140.0980 C   0  0  0  0  0  0  0  0  0  0  0  0
  180.9090  179.4170  139.2570 C   0  0  0  0  0  2  0  0  0  0  0  0
  182.9560  178.7340  138.0790 C   0  0  0  0  0  2  0  0  0  0  0  0
  180.6930  178.3010  140.3100 C   0  0  2  0  0  3  0  0  0  0  0  0
  180.9800  175.9350  140.2230 O   0  0  0  0  0  0  0  0  0  0  0  0
  183.6120  178.2590  139.3470 C   0  0  1  0  0  3  0  0  0  0  0  0
  183.1750  179.3770  140.0720 O   0  0  0  0  0  0  0  0  0  0  0  0
  182.9160  177.0950  139.8070 O   0  0  0  0  0  0  0  0  0  0  0  0
  182.3770  179.7830  138.9870 C   0  0  2  0  0  3  0  0  0  0  0  0
  187.5730  178.6580  143.9760 C   0  0  0  0  0  2  0  0  0  0  0  0
  189.9880  176.7320  147.4420 C   0  0  0  0  0  3  0  0  0  0  0  0
  187.7550  177.8790  147.6060 C   0  0  0  0  0  2  0  0  0  0  0  0
  187.2280  177.5020  146.2390 C   0  0  0  0  0  2  0  0  0  0  0  0
  189.4760  177.7340  145.1540 C   0  0  0  0  0  3  0  0  0  0  0  0
  188.6300  176.7400  148.0780 C   0  0  0  0  0  2  0  0  0  0  0  0
  190.3220  177.1280  146.2060 C   0  0  0  0  0  3  0  0  0  0  0  0
  188.1570  177.9470  145.1530 C   0  0  0  0  0  0  0  0  0  0  0  0
  1 19  1  6  0  0  0
  1 34  1  0  0  0  0
  2  6  1  0  0  0  0
  3  7  1  0  0  0  0
  4  7  2  0  0  0  0
  4  1  1  0  0  0  0
  5  4  1  0  0  0  0
  6  8  1  0  0  0  0
  6  5  2  0  0  0  0
  8  3  2  0  0  0  0
  9  8  1  0  0  0  0
 10 11  1  0  0  0  0
 11 15  2  0  0  0  0
 12 10  2  0  0  0  0
 12 13  1  0  0  0  0
 13 14  2  0  0  0  0
 14 15  1  0  0  0  0
 14  9  1  0  0  0  0
 17 10  1  0  0  0  0
 17 16  1  0  0  0  0
 19 20  2  0  0  0  0
 20 18  2  0  0  0  0
 21 18  1  0  0  0  0
 22 21  2  0  0  0  0
 24 23  1  6  0  0  0
 24 22  1  0  0  0  0
 25 29  2  0  0  0  0
 25 28  1  0  0  0  0
 26 28  1  0  0  0  0
 28 24  1  1  0  0  0
 30 27  1  6  0  0  0
 30 32  1  0  0  0  0
 30 31  1  0  0  0  0
 32 25  1  0  0  0  0
 33 27  1  6  0  0  0
 33 26  1  0  0  0  0
 33 31  1  0  0  0  0
 34 41  1  0  0  0  0
 35 39  1  0  0  0  0
 36 39  1  0  0  0  0
 37 36  1  0  0  0  0
 38 40  1  0  0  0  0
 40 35  2  0  0  0  0
 41 38  2  0  0  0  0
 41 37  1  0  0  0  0
M  END
>  <MODEL>
8

>  <REMARK>
 VINA RESULT:      -8.1      2.774      9.606
  Name = 
  10 active torsions:
  status: ('A' for Active; 'I' for Inactive)
    1  A    between atoms: C_2  and  O_26
    2  A    between atoms: C_3  and  C_4
    3  A    between atoms: C_8  and  C_38
    4  A    between atoms: C_10  and  C_34
    5  A    between atoms: C_10  and  C_41
    6  A    between atoms: C_15  and  C_34
    7  A    between atoms: C_18  and  N_28
    8  A    between atoms: C_21  and  C_34
    9  A    between atoms: C_22  and  C_38
   10  A    between atoms: N_28  and  C_37
                            x       y       z     vdW  Elec       q    Type
                         _______ _______ _______ _____ _____    ______ ____

>  <TORSDO>
F 10

$$$$
=
 OpenBabel11042413343D

 41 45  0  0  1  0  0  0  0  0999 V2000
  187.5760  177.5910  143.1630 C   0  0  2  0  0  3  0  0  0  0  0  0
  188.6750  179.0000  138.6030 O   0  0  0  0  0  1  0  0  0  0  0  0
  190.3030  176.5300  140.8030 C   0  0  0  0  0  3  0  0  0  0  0  0
  188.4600  177.4940  141.9520 C   0  0  0  0  0  0  0  0  0  0  0  0
  188.1700  178.2920  140.8430 C   0  0  0  0  0  3  0  0  0  0  0  0
  188.9650  178.2030  139.7030 C   0  0  0  0  0  0  0  0  0  0  0  0
  189.5060  176.6220  141.8990 N   0  0  0  0  0  0  0  0  0  0  0  0
  190.0500  177.3170  139.6710 C   0  0  0  0  0  0  0  0  0  0  0  0
  190.8960  177.2870  138.5090 N   0  0  0  0  0  2  0  0  0  0  0  0
  193.3430  174.1050  137.1180 C   0  0  0  0  0  0  0  0  0  0  0  0
  193.9080  175.2950  137.6000 C   0  0  0  0  0  3  0  0  0  0  0  0
  191.9510  173.9750  137.0810 C   0  0  0  0  0  3  0  0  0  0  0  0
  191.1310  175.0140  137.5340 C   0  0  0  0  0  3  0  0  0  0  0  0
  191.6980  176.2020  138.0210 C   0  0  0  0  0  0  0  0  0  0  0  0
  193.0880  176.3370  138.0440 C   0  0  0  0  0  3  0  0  0  0  0  0
  195.2820  173.2050  135.8780 C   0  0  0  0  0  1  0  0  0  0  0  0
  194.1310  173.0330  136.6950 O   0  0  0  0  0  0  0  0  0  0  0  0
  184.4390  178.8910  144.5010 C   0  0  0  0  0  3  0  0  0  0  0  0
  186.1180  177.7810  142.8390 C   0  0  0  0  0  3  0  0  0  0  0  0
  185.2820  178.3500  143.6680 C   0  0  0  0  0  0  0  0  0  0  0  0
  183.0400  179.0400  144.1240 C   0  0  0  0  0  3  0  0  0  0  0  0
  182.6740  178.9100  142.8570 C   0  0  0  0  0  3  0  0  0  0  0  0
  180.6270  180.0300  143.2280 O   0  0  0  0  0  1  0  0  0  0  0  0
  181.2410  179.0440  142.4500 C   0  0  1  0  0  3  0  0  0  0  0  0
  179.6810  179.4900  140.5120 C   0  0  0  0  0  0  0  0  0  0  0  0
  182.0430  178.5450  140.0590 C   0  0  0  0  0  2  0  0  0  0  0  0
  180.4680  177.3110  138.6290 C   0  0  0  0  0  2  0  0  0  0  0  0
  181.1290  179.4090  140.9640 C   0  0  2  0  0  3  0  0  0  0  0  0
  179.1160  180.6120  140.5300 O   0  0  0  0  0  0  0  0  0  0  0  0
  179.4990  177.0980  139.7600 C   0  0  1  0  0  3  0  0  0  0  0  0
  180.5220  176.7790  140.6660 O   0  0  0  0  0  0  0  0  0  0  0  0
  178.9300  178.3630  140.1140 O   0  0  0  0  0  0  0  0  0  0  0  0
  181.4920  177.1510  139.7180 C   0  0  2  0  0  3  0  0  0  0  0  0
  188.1130  178.6220  144.1600 C   0  0  0  0  0  2  0  0  0  0  0  0
  190.5920  176.3490  147.3610 C   0  0  0  0  0  3  0  0  0  0  0  0
  191.1840  176.6770  144.9380 C   0  0  0  0  0  2  0  0  0  0  0  0
  190.5380  178.0320  144.7490 C   0  0  0  0  0  2  0  0  0  0  0  0
  188.5980  177.4700  146.2350 C   0  0  0  0  0  3  0  0  0  0  0  0
  191.6800  176.6130  146.3640 C   0  0  0  0  0  2  0  0  0  0  0  0
  189.3100  176.7370  147.3040 C   0  0  0  0  0  3  0  0  0  0  0  0
  189.0850  178.0010  145.1090 C   0  0  0  0  0  0  0  0  0  0  0  0
  1 19  1  6  0  0  0
  1 34  1  0  0  0  0
  2  6  1  0  0  0  0
  3  7  1  0  0  0  0
  4  1  1  0  0  0  0
  5  4  1  0  0  0  0
  6  5  2  0  0  0  0
  7  4  2  0  0  0  0
  8  6  1  0  0  0  0
  8  3  2  0  0  0  0
  9  8  1  0  0  0  0
 10 11  1  0  0  0  0
 11 15  2  0  0  0  0
 12 10  2  0  0  0  0
 12 13  1  0  0  0  0
 13 14  2  0  0  0  0
 14 15  1  0  0  0  0
 14  9  1  0  0  0  0
 16 17  1  0  0  0  0
 17 10  1  0  0  0  0
 19 20  2  0  0  0  0
 20 18  2  0  0  0  0
 21 18  1  0  0  0  0
 22 21  2  0  0  0  0
 24 22  1  0  0  0  0
 24 23  1  1  0  0  0
 25 29  2  0  0  0  0
 25 28  1  0  0  0  0
 26 28  1  0  0  0  0
 28 24  1  1  0  0  0
 30 27  1  6  0  0  0
 30 32  1  0  0  0  0
 30 31  1  0  0  0  0
 32 25  1  0  0  0  0
 33 27  1  6  0  0  0
 33 26  1  0  0  0  0
 33 31  1  0  0  0  0
 34 41  1  0  0  0  0
 36 39  1  0  0  0  0
 37 36  1  0  0  0  0
 37 41  1  0  0  0  0
 38 40  1  0  0  0  0
 39 35  1  0  0  0  0
 40 35  2  0  0  0  0
 41 38  2  0  0  0  0
M  END
>  <MODEL>
9

>  <REMARK>
 VINA RESULT:      -8.1      3.072     10.103
  Name = 
  10 active torsions:
  status: ('A' for Active; 'I' for Inactive)
    1  A    between atoms: C_2  and  O_26
    2  A    between atoms: C_3  and  C_4
    3  A    between atoms: C_8  and  C_38
    4  A    between atoms: C_10  and  C_34
    5  A    between atoms: C_10  and  C_41
    6  A    between atoms: C_15  and  C_34
    7  A    between atoms: C_18  and  N_28
    8  A    between atoms: C_21  and  C_34
    9  A    between atoms: C_22  and  C_38
   10  A    between atoms: N_28  and  C_37
                            x       y       z     vdW  Elec       q    Type
                         _______ _______ _______ _____ _____    ______ ____

>  <TORSDO>
F 10

$$$$
