=
 OpenBabel11042411363D

 35 37  0  0  1  0  0  0  0  0999 V2000
  190.0960  177.4230  144.6420 C   0  0  1  0  0  3  0  0  0  0  0  0
  187.6370  177.0250  144.5160 C   0  0  0  0  0  3  0  0  0  0  0  0
  186.3410  177.2530  144.7190 C   0  0  0  0  0  3  0  0  0  0  0  0
  185.7920  178.2460  145.6630 C   0  0  0  0  0  0  0  0  0  0  0  0
  187.7340  177.9250  148.8810 C   0  0  0  0  0  1  0  0  0  0  0  0
  188.7160  177.8290  145.1720 C   0  0  1  0  0  3  0  0  0  0  0  0
  187.6060  178.0170  147.4030 C   0  0  0  0  0  0  0  0  0  0  0  0
  188.6600  177.6750  146.6610 C   0  0  0  0  0  3  0  0  0  0  0  0
  186.3380  178.5380  146.8520 C   0  0  0  0  0  3  0  0  0  0  0  0
  183.4690  179.2610  145.1200 N   0  0  0  0  0  0  0  0  0  0  0  0
  184.5060  178.8080  145.3630 C   0  0  0  0  0  0  0  0  0  0  0  0
  190.5730  179.1520  143.0560 O   0  0  0  0  0  0  0  0  0  0  0  0
  190.2340  177.0250  142.1540 N   0  0  0  0  0  2  0  0  0  0  0  0
  190.3180  177.9330  143.2520 C   0  0  0  0  0  0  0  0  0  0  0  0
  190.5080  176.3260  139.9470 O   0  0  0  0  0  0  0  0  0  0  0  0
  190.4430  177.4560  140.7810 C   0  0  1  0  0  3  0  0  0  0  0  0
  189.2940  177.0390  139.9490 C   0  0  1  0  0  3  0  0  0  0  0  0
  189.2240  177.9050  138.7060 C   0  0  0  0  0  2  0  0  0  0  0  0
  188.0430  177.5670  137.9260 N   0  0  0  0  0  2  0  0  0  0  0  0
  184.1830  178.5860  139.0770 N   0  0  0  0  0  0  0  0  0  0  0  0
  185.0620  179.5370  140.9600 O   0  0  0  0  0  0  0  0  0  0  0  0
  185.2410  178.9210  139.8760 C   0  0  0  0  0  0  0  0  0  0  0  0
  184.3880  177.9280  137.9330 N   0  0  0  0  0  0  0  0  0  0  0  0
  186.7190  177.9230  138.3310 C   0  0  0  0  0  0  0  0  0  0  0  0
  185.6360  177.5830  137.5280 C   0  0  0  0  0  3  0  0  0  0  0  0
  186.4990  178.5860  139.4960 N   0  0  0  0  0  0  0  0  0  0  0  0
  182.3560  180.1580  138.7210 C   0  0  0  0  0  1  0  0  0  0  0  0
  182.8180  178.9170  139.4620 C   0  0  0  0  0  2  0  0  0  0  0  0
  191.1030  177.9150  145.4770 O   0  0  0  0  0  0  0  0  0  0  0  0
  192.1140  177.0150  145.3660 N   0  0  0  0  0  2  0  0  0  0  0  0
  192.3380  174.5560  145.3610 C   0  0  0  0  0  1  0  0  0  0  0  0
  191.7160  175.7740  146.0320 C   0  0  1  0  0  3  0  0  0  0  0  0
  191.5440  177.0120  148.0880 F   0  0  0  0  0  0  0  0  0  0  0  0
  191.9910  175.8250  147.5350 C   0  0  2  0  0  3  0  0  0  0  0  0
  193.3590  175.6830  147.7730 O   0  0  0  0  0  1  0  0  0  0  0  0
  1 14  1  6  0  0  0
  1 29  1  0  0  0  0
  2  3  2  0  0  0  0
  2  6  1  0  0  0  0
  3  4  1  0  0  0  0
  4  9  2  0  0  0  0
  6  1  1  6  0  0  0
  6  8  1  0  0  0  0
  7  5  1  0  0  0  0
  8  7  2  0  0  0  0
  9  7  1  0  0  0  0
 10 11  3  0  0  0  0
 11  4  1  0  0  0  0
 12 14  2  0  0  0  0
 13 14  1  0  0  0  0
 15 17  1  0  0  0  0
 15 16  1  0  0  0  0
 16 13  1  1  0  0  0
 17 18  1  6  0  0  0
 17 16  1  0  0  0  0
 19 24  1  0  0  0  0
 19 18  1  0  0  0  0
 20 28  1  0  0  0  0
 20 22  1  0  0  0  0
 22 21  2  0  0  0  0
 23 20  1  0  0  0  0
 24 26  2  0  0  0  0
 25 23  2  0  0  0  0
 25 24  1  0  0  0  0
 26 22  1  0  0  0  0
 27 28  1  0  0  0  0
 30 29  1  0  0  0  0
 30 32  1  0  0  0  0
 32 31  1  6  0  0  0
 32 34  1  0  0  0  0
 34 35  1  6  0  0  0
 34 33  1  0  0  0  0
M  END
>  <MODEL>
1

>  <REMARK>
 VINA RESULT:      -8.5      0.000      0.000
  Name = 
  11 active torsions:
  status: ('A' for Active; 'I' for Inactive)
    1  A    between atoms: C_1  and  N_4
    2  A    between atoms: C_1  and  C_22
    3  A    between atoms: N_7  and  C_32
    4  A    between atoms: N_11  and  C_16
    5  A    between atoms: C_12  and  C_25
    6  A    between atoms: C_20  and  C_24
    7  A    between atoms: C_23  and  C_26
    8  A    between atoms: C_24  and  O_30
    9  A    between atoms: C_24  and  C_34
   10  A    between atoms: C_26  and  N_31
   11  A    between atoms: O_30  and  N_31
                            x       y       z     vdW  Elec       q    Type
                         _______ _______ _______ _____ _____    ______ ____

>  <TORSDO>
F 11

$$$$
=
 OpenBabel11042411363D

 35 37  0  0  1  0  0  0  0  0999 V2000
  187.9730  177.8090  143.5920 C   0  0  1  0  0  3  0  0  0  0  0  0
  190.2250  177.8560  144.6610 C   0  0  0  0  0  3  0  0  0  0  0  0
  191.1840  177.5320  145.5270 C   0  0  0  0  0  3  0  0  0  0  0  0
  190.9810  176.7620  146.7690 C   0  0  0  0  0  0  0  0  0  0  0  0
  187.9060  178.1490  148.4580 C   0  0  0  0  0  1  0  0  0  0  0  0
  188.8090  177.3900  144.8050 C   0  0  1  0  0  3  0  0  0  0  0  0
  188.6790  177.6580  147.2870 C   0  0  0  0  0  0  0  0  0  0  0  0
  188.2040  177.9200  146.0680 C   0  0  0  0  0  3  0  0  0  0  0  0
  189.8950  176.8600  147.5480 C   0  0  0  0  0  3  0  0  0  0  0  0
  192.9770  175.3640  147.6540 N   0  0  0  0  0  0  0  0  0  0  0  0
  192.0860  175.9880  147.2590 C   0  0  0  0  0  0  0  0  0  0  0  0
  188.6260  175.8400  142.3960 O   0  0  0  0  0  0  0  0  0  0  0  0
  188.5560  177.8060  141.1360 N   0  0  0  0  0  2  0  0  0  0  0  0
  188.4010  177.0810  142.3560 C   0  0  0  0  0  0  0  0  0  0  0  0
  189.5850  178.1020  139.0660 O   0  0  0  0  0  0  0  0  0  0  0  0
  188.9660  177.1570  139.9010 C   0  0  1  0  0  3  0  0  0  0  0  0
  190.4360  177.2280  139.7670 C   0  0  1  0  0  3  0  0  0  0  0  0
  190.9150  176.1390  138.8260 C   0  0  0  0  0  2  0  0  0  0  0  0
  191.8360  176.6940  137.8460 N   0  0  0  0  0  2  0  0  0  0  0  0
  195.4170  174.8690  136.7920 N   0  0  0  0  0  0  0  0  0  0  0  0
  194.9460  173.2150  138.2980 O   0  0  0  0  0  0  0  0  0  0  0  0
  194.6140  174.2950  137.7390 C   0  0  0  0  0  0  0  0  0  0  0  0
  195.0550  176.0160  136.2120 N   0  0  0  0  0  0  0  0  0  0  0  0
  193.0660  176.0580  137.4900 C   0  0  0  0  0  0  0  0  0  0  0  0
  193.8910  176.6350  136.5320 C   0  0  0  0  0  3  0  0  0  0  0  0
  193.4460  174.8950  138.0790 N   0  0  0  0  0  0  0  0  0  0  0  0
  197.5930  175.2980  135.7860 C   0  0  0  0  0  1  0  0  0  0  0  0
  196.6840  174.2590  136.4130 C   0  0  0  0  0  2  0  0  0  0  0  0
  186.6170  177.5590  143.8240 O   0  0  0  0  0  0  0  0  0  0  0  0
  185.9740  178.6380  143.3090 N   0  0  0  0  0  2  0  0  0  0  0  0
  183.7280  178.9730  144.2770 C   0  0  0  0  0  1  0  0  0  0  0  0
  184.5520  178.3210  143.1740 C   0  0  1  0  0  3  0  0  0  0  0  0
  183.7390  177.4950  141.0660 F   0  0  0  0  0  0  0  0  0  0  0  0
  184.0290  178.6480  141.7760 C   0  0  2  0  0  3  0  0  0  0  0  0
  184.9730  179.4020  141.0780 O   0  0  0  0  0  1  0  0  0  0  0  0
  1 14  1  6  0  0  0
  1 29  1  0  0  0  0
  2  6  1  0  0  0  0
  2  3  2  0  0  0  0
  3  4  1  0  0  0  0
  4 11  1  0  0  0  0
  4  9  2  0  0  0  0
  6  1  1  6  0  0  0
  6  8  1  0  0  0  0
  7  9  1  0  0  0  0
  7  5  1  0  0  0  0
  8  7  2  0  0  0  0
 11 10  3  0  0  0  0
 13 14  1  0  0  0  0
 14 12  2  0  0  0  0
 15 17  1  0  0  0  0
 15 16  1  0  0  0  0
 16 13  1  1  0  0  0
 17 18  1  6  0  0  0
 17 16  1  0  0  0  0
 19 18  1  0  0  0  0
 20 22  1  0  0  0  0
 22 26  1  0  0  0  0
 22 21  2  0  0  0  0
 23 25  2  0  0  0  0
 23 20  1  0  0  0  0
 24 19  1  0  0  0  0
 24 26  2  0  0  0  0
 25 24  1  0  0  0  0
 27 28  1  0  0  0  0
 28 20  1  0  0  0  0
 30 29  1  0  0  0  0
 32 30  1  0  0  0  0
 32 31  1  1  0  0  0
 34 33  1  6  0  0  0
 34 32  1  0  0  0  0
 35 34  1  0  0  0  0
M  END
>  <MODEL>
2

>  <REMARK>
 VINA RESULT:      -8.3      4.220      7.718
  Name = 
  11 active torsions:
  status: ('A' for Active; 'I' for Inactive)
    1  A    between atoms: C_1  and  N_4
    2  A    between atoms: C_1  and  C_22
    3  A    between atoms: N_7  and  C_32
    4  A    between atoms: N_11  and  C_16
    5  A    between atoms: C_12  and  C_25
    6  A    between atoms: C_20  and  C_24
    7  A    between atoms: C_23  and  C_26
    8  A    between atoms: C_24  and  O_30
    9  A    between atoms: C_24  and  C_34
   10  A    between atoms: C_26  and  N_31
   11  A    between atoms: O_30  and  N_31
                            x       y       z     vdW  Elec       q    Type
                         _______ _______ _______ _____ _____    ______ ____

>  <TORSDO>
F 11

$$$$
=
 OpenBabel11042411363D

 35 37  0  0  1  0  0  0  0  0999 V2000
  187.9280  177.7800  143.6750 C   0  0  1  0  0  3  0  0  0  0  0  0
  190.1940  177.8260  144.7150 C   0  0  0  0  0  3  0  0  0  0  0  0
  191.1600  177.5090  145.5760 C   0  0  0  0  0  3  0  0  0  0  0  0
  190.9650  176.7660  146.8360 C   0  0  0  0  0  0  0  0  0  0  0  0
  187.9260  178.2170  148.5330 C   0  0  0  0  0  1  0  0  0  0  0  0
  188.7760  177.3770  144.8860 C   0  0  1  0  0  3  0  0  0  0  0  0
  188.6780  177.6950  147.3630 C   0  0  0  0  0  0  0  0  0  0  0  0
  188.1910  177.9380  146.1460 C   0  0  0  0  0  3  0  0  0  0  0  0
  189.8900  176.8900  147.6250 C   0  0  0  0  0  3  0  0  0  0  0  0
  192.9580  175.3640  147.7230 N   0  0  0  0  0  0  0  0  0  0  0  0
  192.0690  175.9900  147.3270 C   0  0  0  0  0  0  0  0  0  0  0  0
  188.7610  176.0310  142.2680 O   0  0  0  0  0  0  0  0  0  0  0  0
  188.8010  178.1730  141.3390 N   0  0  0  0  0  2  0  0  0  0  0  0
  188.5160  177.2610  142.4000 C   0  0  0  0  0  0  0  0  0  0  0  0
  188.3890  177.0370  139.3460 O   0  0  0  0  0  0  0  0  0  0  0  0
  189.3690  177.7320  140.0760 C   0  0  1  0  0  3  0  0  0  0  0  0
  188.6420  178.3650  138.9560 C   0  0  1  0  0  3  0  0  0  0  0  0
  189.5150  178.3610  137.7150 C   0  0  0  0  0  2  0  0  0  0  0  0
  189.4770  177.0520  137.0810 N   0  0  0  0  0  2  0  0  0  0  0  0
  192.7090  174.4410  137.0460 N   0  0  0  0  0  0  0  0  0  0  0  0
  193.9120  176.0130  138.1900 O   0  0  0  0  0  0  0  0  0  0  0  0
  192.8300  175.6650  137.6450 C   0  0  0  0  0  0  0  0  0  0  0  0
  191.5590  174.0880  136.4680 N   0  0  0  0  0  0  0  0  0  0  0  0
  190.5950  176.1600  137.0750 C   0  0  0  0  0  0  0  0  0  0  0  0
  190.4840  174.9170  136.4650 C   0  0  0  0  0  3  0  0  0  0  0  0
  191.7720  176.5130  137.6530 N   0  0  0  0  0  0  0  0  0  0  0  0
  193.4740  172.3060  136.1570 C   0  0  0  0  0  1  0  0  0  0  0  0
  193.8300  173.5110  137.0060 C   0  0  0  0  0  2  0  0  0  0  0  0
  186.6240  177.2950  143.8080 O   0  0  0  0  0  0  0  0  0  0  0  0
  185.8340  178.2950  143.3400 N   0  0  0  0  0  2  0  0  0  0  0  0
  184.7820  178.8120  145.5130 C   0  0  0  0  0  1  0  0  0  0  0  0
  184.5800  178.2980  144.0940 C   0  0  1  0  0  3  0  0  0  0  0  0
  182.2860  179.0230  144.0610 F   0  0  0  0  0  0  0  0  0  0  0  0
  183.4730  179.0440  143.3490 C   0  0  2  0  0  3  0  0  0  0  0  0
  183.2750  178.4710  142.0920 O   0  0  0  0  0  1  0  0  0  0  0  0
  1 14  1  6  0  0  0
  1 29  1  0  0  0  0
  2  6  1  0  0  0  0
  2  3  2  0  0  0  0
  3  4  1  0  0  0  0
  4 11  1  0  0  0  0
  4  9  2  0  0  0  0
  6  1  1  6  0  0  0
  6  8  1  0  0  0  0
  7  9  1  0  0  0  0
  7  5  1  0  0  0  0
  8  7  2  0  0  0  0
 11 10  3  0  0  0  0
 12 14  2  0  0  0  0
 13 14  1  0  0  0  0
 15 16  1  0  0  0  0
 16 13  1  1  0  0  0
 17 18  1  6  0  0  0
 17 15  1  0  0  0  0
 17 16  1  0  0  0  0
 19 18  1  0  0  0  0
 20 22  1  0  0  0  0
 22 26  1  0  0  0  0
 22 21  2  0  0  0  0
 23 20  1  0  0  0  0
 24 19  1  0  0  0  0
 24 26  2  0  0  0  0
 25 23  2  0  0  0  0
 25 24  1  0  0  0  0
 27 28  1  0  0  0  0
 28 20  1  0  0  0  0
 30 29  1  0  0  0  0
 30 32  1  0  0  0  0
 32 31  1  1  0  0  0
 34 35  1  6  0  0  0
 34 33  1  0  0  0  0
 34 32  1  0  0  0  0
M  END
>  <MODEL>
3

>  <REMARK>
 VINA RESULT:      -8.0      3.453      6.815
  Name = 
  11 active torsions:
  status: ('A' for Active; 'I' for Inactive)
    1  A    between atoms: C_1  and  N_4
    2  A    between atoms: C_1  and  C_22
    3  A    between atoms: N_7  and  C_32
    4  A    between atoms: N_11  and  C_16
    5  A    between atoms: C_12  and  C_25
    6  A    between atoms: C_20  and  C_24
    7  A    between atoms: C_23  and  C_26
    8  A    between atoms: C_24  and  O_30
    9  A    between atoms: C_24  and  C_34
   10  A    between atoms: C_26  and  N_31
   11  A    between atoms: O_30  and  N_31
                            x       y       z     vdW  Elec       q    Type
                         _______ _______ _______ _____ _____    ______ ____

>  <TORSDO>
F 11

$$$$
=
 OpenBabel11042411363D

 35 37  0  0  1  0  0  0  0  0999 V2000
  187.8650  177.7520  143.7500 C   0  0  1  0  0  3  0  0  0  0  0  0
  190.1540  177.8080  144.7380 C   0  0  0  0  0  3  0  0  0  0  0  0
  191.1420  177.4950  145.5750 C   0  0  0  0  0  3  0  0  0  0  0  0
  190.9800  176.7480  146.8380 C   0  0  0  0  0  0  0  0  0  0  0  0
  187.9730  178.1790  148.6080 C   0  0  0  0  0  1  0  0  0  0  0  0
  188.7430  177.3510  144.9400 C   0  0  1  0  0  3  0  0  0  0  0  0
  188.7010  177.6640  147.4200 C   0  0  0  0  0  0  0  0  0  0  0  0
  188.1850  177.9070  146.2140 C   0  0  0  0  0  3  0  0  0  0  0  0
  189.9230  176.8650  147.6520 C   0  0  0  0  0  3  0  0  0  0  0  0
  193.0000  175.3550  147.6750 N   0  0  0  0  0  0  0  0  0  0  0  0
  192.0990  175.9780  147.3010 C   0  0  0  0  0  0  0  0  0  0  0  0
  188.6810  175.9940  142.3440 O   0  0  0  0  0  0  0  0  0  0  0  0
  188.6400  178.1190  141.3760 N   0  0  0  0  0  2  0  0  0  0  0  0
  188.4160  177.2210  142.4630 C   0  0  0  0  0  0  0  0  0  0  0  0
  188.1130  177.1820  139.3080 O   0  0  0  0  0  0  0  0  0  0  0  0
  189.1690  177.6650  140.1000 C   0  0  1  0  0  3  0  0  0  0  0  0
  188.5880  178.4720  139.0060 C   0  0  1  0  0  3  0  0  0  0  0  0
  189.4870  178.3990  137.7870 C   0  0  0  0  0  2  0  0  0  0  0  0
  188.7660  177.8080  136.6690 N   0  0  0  0  0  2  0  0  0  0  0  0
  189.0830  173.8020  135.6140 N   0  0  0  0  0  0  0  0  0  0  0  0
  190.5770  173.5340  137.3230 O   0  0  0  0  0  0  0  0  0  0  0  0
  189.8100  174.2870  136.6660 C   0  0  0  0  0  0  0  0  0  0  0  0
  188.2780  174.6130  134.9230 N   0  0  0  0  0  0  0  0  0  0  0  0
  188.8820  176.4280  136.3140 C   0  0  0  0  0  0  0  0  0  0  0  0
  188.1510  175.9260  135.2440 C   0  0  0  0  0  3  0  0  0  0  0  0
  189.7030  175.5960  137.0060 N   0  0  0  0  0  0  0  0  0  0  0  0
  187.9940  171.6270  135.7380 C   0  0  0  0  0  1  0  0  0  0  0  0
  189.1840  172.4050  135.2130 C   0  0  0  0  0  2  0  0  0  0  0  0
  186.5620  177.2760  143.9220 O   0  0  0  0  0  0  0  0  0  0  0  0
  185.7650  178.3040  143.5340 N   0  0  0  0  0  2  0  0  0  0  0  0
  184.8540  178.9330  145.7400 C   0  0  0  0  0  1  0  0  0  0  0  0
  184.5690  178.3180  144.3760 C   0  0  1  0  0  3  0  0  0  0  0  0
  182.1820  178.5840  144.2280 F   0  0  0  0  0  0  0  0  0  0  0  0
  183.3850  178.9770  143.6680 C   0  0  2  0  0  3  0  0  0  0  0  0
  183.3990  178.6510  142.3120 O   0  0  0  0  0  1  0  0  0  0  0  0
  1 14  1  6  0  0  0
  1 29  1  0  0  0  0
  2  6  1  0  0  0  0
  2  3  2  0  0  0  0
  3  4  1  0  0  0  0
  4 11  1  0  0  0  0
  4  9  2  0  0  0  0
  6  1  1  6  0  0  0
  6  8  1  0  0  0  0
  7  9  1  0  0  0  0
  7  5  1  0  0  0  0
  8  7  2  0  0  0  0
 11 10  3  0  0  0  0
 12 14  2  0  0  0  0
 13 14  1  0  0  0  0
 15 16  1  0  0  0  0
 16 13  1  1  0  0  0
 17 18  1  6  0  0  0
 17 15  1  0  0  0  0
 17 16  1  0  0  0  0
 19 18  1  0  0  0  0
 20 22  1  0  0  0  0
 22 26  1  0  0  0  0
 22 21  2  0  0  0  0
 23 25  2  0  0  0  0
 23 20  1  0  0  0  0
 24 19  1  0  0  0  0
 24 26  2  0  0  0  0
 25 24  1  0  0  0  0
 28 20  1  0  0  0  0
 28 27  1  0  0  0  0
 30 29  1  0  0  0  0
 30 32  1  0  0  0  0
 32 31  1  1  0  0  0
 34 35  1  6  0  0  0
 34 33  1  0  0  0  0
 34 32  1  0  0  0  0
M  END
>  <MODEL>
4

>  <REMARK>
 VINA RESULT:      -8.0      3.282      6.198
  Name = 
  11 active torsions:
  status: ('A' for Active; 'I' for Inactive)
    1  A    between atoms: C_1  and  N_4
    2  A    between atoms: C_1  and  C_22
    3  A    between atoms: N_7  and  C_32
    4  A    between atoms: N_11  and  C_16
    5  A    between atoms: C_12  and  C_25
    6  A    between atoms: C_20  and  C_24
    7  A    between atoms: C_23  and  C_26
    8  A    between atoms: C_24  and  O_30
    9  A    between atoms: C_24  and  C_34
   10  A    between atoms: C_26  and  N_31
   11  A    between atoms: O_30  and  N_31
                            x       y       z     vdW  Elec       q    Type
                         _______ _______ _______ _____ _____    ______ ____

>  <TORSDO>
F 11

$$$$
=
 OpenBabel11042411363D

 35 37  0  0  1  0  0  0  0  0999 V2000
  188.5420  176.8800  142.8860 C   0  0  1  0  0  3  0  0  0  0  0  0
  190.5320  177.3760  144.3050 C   0  0  0  0  0  3  0  0  0  0  0  0
  191.3240  177.3300  145.3750 C   0  0  0  0  0  3  0  0  0  0  0  0
  190.9370  176.7930  146.6940 C   0  0  0  0  0  0  0  0  0  0  0  0
  187.5000  178.1310  147.4850 C   0  0  0  0  0  1  0  0  0  0  0  0
  189.1530  176.7940  144.2890 C   0  0  1  0  0  3  0  0  0  0  0  0
  188.5200  177.5130  146.5970 C   0  0  0  0  0  0  0  0  0  0  0  0
  188.2750  177.4860  145.2870 C   0  0  0  0  0  3  0  0  0  0  0  0
  189.7150  176.9170  147.2300 C   0  0  0  0  0  3  0  0  0  0  0  0
  192.8160  175.8150  148.1890 N   0  0  0  0  0  0  0  0  0  0  0  0
  191.9770  176.2510  147.5210 C   0  0  0  0  0  0  0  0  0  0  0  0
  186.3620  177.1450  143.8390 O   0  0  0  0  0  0  0  0  0  0  0  0
  186.7780  178.4020  141.9150 N   0  0  0  0  0  2  0  0  0  0  0  0
  187.1670  177.4710  142.9250 C   0  0  0  0  0  0  0  0  0  0  0  0
  185.2850  179.7050  140.6880 O   0  0  0  0  0  0  0  0  0  0  0  0
  185.4590  179.0140  141.8990 C   0  0  1  0  0  3  0  0  0  0  0  0
  184.6620  178.4480  140.7900 C   0  0  1  0  0  3  0  0  0  0  0  0
  183.1850  178.6460  141.0710 C   0  0  0  0  0  2  0  0  0  0  0  0
  182.3940  178.1710  139.9460 N   0  0  0  0  0  2  0  0  0  0  0  0
  180.8240  180.6900  137.0390 N   0  0  0  0  0  0  0  0  0  0  0  0
  181.7320  182.4580  138.1670 O   0  0  0  0  0  0  0  0  0  0  0  0
  181.5400  181.2160  138.0780 C   0  0  0  0  0  0  0  0  0  0  0  0
  180.6230  179.3720  136.9600 N   0  0  0  0  0  0  0  0  0  0  0  0
  181.8580  179.0460  138.9500 C   0  0  0  0  0  0  0  0  0  0  0  0
  181.1240  178.5230  137.8920 C   0  0  0  0  0  3  0  0  0  0  0  0
  182.0500  180.3890  139.0250 N   0  0  0  0  0  0  0  0  0  0  0  0
  180.8090  181.1800  134.6520 C   0  0  0  0  0  1  0  0  0  0  0  0
  180.2490  181.5500  136.0130 C   0  0  0  0  0  2  0  0  0  0  0  0
  189.3500  177.6540  142.0480 O   0  0  0  0  0  0  0  0  0  0  0  0
  189.7660  176.7970  141.0810 N   0  0  0  0  0  2  0  0  0  0  0  0
  191.6580  176.9420  139.5010 C   0  0  0  0  0  1  0  0  0  0  0  0
  190.3580  177.5700  139.9890 C   0  0  1  0  0  3  0  0  0  0  0  0
  189.9940  177.8660  137.6290 F   0  0  0  0  0  0  0  0  0  0  0  0
  189.3580  177.8080  138.8570 C   0  0  2  0  0  3  0  0  0  0  0  0
  188.6620  178.9960  139.0800 O   0  0  0  0  0  1  0  0  0  0  0  0
  1 29  1  6  0  0  0
  1 14  1  0  0  0  0
  2  3  2  0  0  0  0
  3  4  1  0  0  0  0
  4  9  2  0  0  0  0
  4 11  1  0  0  0  0
  6  1  1  6  0  0  0
  6  2  1  0  0  0  0
  6  8  1  0  0  0  0
  7  9  1  0  0  0  0
  7  5  1  0  0  0  0
  8  7  2  0  0  0  0
 11 10  3  0  0  0  0
 13 14  1  0  0  0  0
 14 12  2  0  0  0  0
 15 17  1  0  0  0  0
 15 16  1  0  0  0  0
 16 13  1  6  0  0  0
 17 18  1  1  0  0  0
 17 16  1  0  0  0  0
 19 18  1  0  0  0  0
 20 22  1  0  0  0  0
 22 21  2  0  0  0  0
 22 26  1  0  0  0  0
 23 20  1  0  0  0  0
 23 25  2  0  0  0  0
 24 26  2  0  0  0  0
 24 19  1  0  0  0  0
 25 24  1  0  0  0  0
 27 28  1  0  0  0  0
 28 20  1  0  0  0  0
 30 29  1  0  0  0  0
 32 31  1  6  0  0  0
 32 30  1  0  0  0  0
 34 33  1  6  0  0  0
 34 35  1  0  0  0  0
 34 32  1  0  0  0  0
M  END
>  <MODEL>
5

>  <REMARK>
 VINA RESULT:      -7.4      3.042      5.643
  Name = 
  11 active torsions:
  status: ('A' for Active; 'I' for Inactive)
    1  A    between atoms: C_1  and  N_4
    2  A    between atoms: C_1  and  C_22
    3  A    between atoms: N_7  and  C_32
    4  A    between atoms: N_11  and  C_16
    5  A    between atoms: C_12  and  C_25
    6  A    between atoms: C_20  and  C_24
    7  A    between atoms: C_23  and  C_26
    8  A    between atoms: C_24  and  O_30
    9  A    between atoms: C_24  and  C_34
   10  A    between atoms: C_26  and  N_31
   11  A    between atoms: O_30  and  N_31
                            x       y       z     vdW  Elec       q    Type
                         _______ _______ _______ _____ _____    ______ ____

>  <TORSDO>
F 11

$$$$
=
 OpenBabel11042411363D

 35 37  0  0  1  0  0  0  0  0999 V2000
  188.9380  177.6790  141.9970 C   0  0  1  0  0  3  0  0  0  0  0  0
  186.4720  177.5490  142.3480 C   0  0  0  0  0  3  0  0  0  0  0  0
  185.2870  177.8420  142.8810 C   0  0  0  0  0  3  0  0  0  0  0  0
  185.0820  178.6330  144.1100 C   0  0  0  0  0  0  0  0  0  0  0  0
  187.5610  177.3940  146.6690 C   0  0  0  0  0  1  0  0  0  0  0  0
  187.7620  178.0760  142.8970 C   0  0  1  0  0  3  0  0  0  0  0  0
  187.1560  177.8400  145.3100 C   0  0  0  0  0  0  0  0  0  0  0  0
  187.9820  177.5840  144.2950 C   0  0  0  0  0  3  0  0  0  0  0  0
  185.8890  178.5900  145.1790 C   0  0  0  0  0  3  0  0  0  0  0  0
  182.8630  179.9570  144.3270 N   0  0  0  0  0  0  0  0  0  0  0  0
  183.8540  179.3670  144.2300 C   0  0  0  0  0  0  0  0  0  0  0  0
  188.3050  179.2530  140.3090 O   0  0  0  0  0  0  0  0  0  0  0  0
  188.9200  177.1380  139.5320 N   0  0  0  0  0  2  0  0  0  0  0  0
  188.7000  178.0860  140.5770 C   0  0  0  0  0  0  0  0  0  0  0  0
  189.2290  176.4420  137.3290 O   0  0  0  0  0  0  0  0  0  0  0  0
  188.7100  177.4720  138.1330 C   0  0  1  0  0  3  0  0  0  0  0  0
  187.8330  176.4600  137.5060 C   0  0  1  0  0  3  0  0  0  0  0  0
  187.1830  177.0470  136.2680 C   0  0  0  0  0  2  0  0  0  0  0  0
  185.7500  176.7920  136.2880 N   0  0  0  0  0  2  0  0  0  0  0  0
  183.1380  178.6590  138.9250 N   0  0  0  0  0  0  0  0  0  0  0  0
  184.9300  179.7520  139.8290 O   0  0  0  0  0  0  0  0  0  0  0  0
  184.4760  178.9350  138.9840 C   0  0  0  0  0  0  0  0  0  0  0  0
  182.6720  177.7870  138.0280 N   0  0  0  0  0  0  0  0  0  0  0  0
  184.8590  177.4400  137.1990 C   0  0  0  0  0  0  0  0  0  0  0  0
  183.4980  177.1620  137.1520 C   0  0  0  0  0  3  0  0  0  0  0  0
  185.3240  178.3230  138.1200 N   0  0  0  0  0  0  0  0  0  0  0  0
  181.9210  178.3610  141.0140 C   0  0  0  0  0  1  0  0  0  0  0  0
  182.2010  179.2870  139.8470 C   0  0  0  0  0  2  0  0  0  0  0  0
  190.1210  178.2690  142.4510 O   0  0  0  0  0  0  0  0  0  0  0  0
  191.0850  177.3460  142.2020 N   0  0  0  0  0  2  0  0  0  0  0  0
  191.6160  178.1460  144.4770 C   0  0  0  0  0  1  0  0  0  0  0  0
  191.7650  177.0240  143.4570 C   0  0  1  0  0  3  0  0  0  0  0  0
  192.4180  174.8880  144.3520 F   0  0  0  0  0  0  0  0  0  0  0  0
  191.3270  175.6670  144.0060 C   0  0  2  0  0  3  0  0  0  0  0  0
  190.5550  174.9950  143.0570 O   0  0  0  0  0  1  0  0  0  0  0  0
  1 14  1  6  0  0  0
  1 29  1  0  0  0  0
  2  3  2  0  0  0  0
  2  6  1  0  0  0  0
  3  4  1  0  0  0  0
  4 11  1  0  0  0  0
  4  9  2  0  0  0  0
  6  1  1  6  0  0  0
  6  8  1  0  0  0  0
  7  5  1  0  0  0  0
  8  7  2  0  0  0  0
  9  7  1  0  0  0  0
 11 10  3  0  0  0  0
 12 14  2  0  0  0  0
 13 14  1  0  0  0  0
 15 17  1  0  0  0  0
 15 16  1  0  0  0  0
 16 13  1  1  0  0  0
 17 18  1  6  0  0  0
 17 16  1  0  0  0  0
 18 19  1  0  0  0  0
 19 24  1  0  0  0  0
 20 22  1  0  0  0  0
 20 28  1  0  0  0  0
 22 21  2  0  0  0  0
 23 20  1  0  0  0  0
 24 26  2  0  0  0  0
 25 24  1  0  0  0  0
 25 23  2  0  0  0  0
 26 22  1  0  0  0  0
 28 27  1  0  0  0  0
 30 29  1  0  0  0  0
 30 32  1  0  0  0  0
 32 34  1  0  0  0  0
 32 31  1  1  0  0  0
 34 35  1  6  0  0  0
 34 33  1  0  0  0  0
M  END
>  <MODEL>
6

>  <REMARK>
 VINA RESULT:      -7.4      2.081      2.749
  Name = 
  11 active torsions:
  status: ('A' for Active; 'I' for Inactive)
    1  A    between atoms: C_1  and  N_4
    2  A    between atoms: C_1  and  C_22
    3  A    between atoms: N_7  and  C_32
    4  A    between atoms: N_11  and  C_16
    5  A    between atoms: C_12  and  C_25
    6  A    between atoms: C_20  and  C_24
    7  A    between atoms: C_23  and  C_26
    8  A    between atoms: C_24  and  O_30
    9  A    between atoms: C_24  and  C_34
   10  A    between atoms: C_26  and  N_31
   11  A    between atoms: O_30  and  N_31
                            x       y       z     vdW  Elec       q    Type
                         _______ _______ _______ _____ _____    ______ ____

>  <TORSDO>
F 11

$$$$
=
 OpenBabel11042411363D

 35 37  0  0  1  0  0  0  0  0999 V2000
  189.9430  177.1780  141.1280 C   0  0  1  0  0  3  0  0  0  0  0  0
  187.9490  178.6180  141.5440 C   0  0  0  0  0  3  0  0  0  0  0  0
  186.6890  179.0370  141.4380 C   0  0  0  0  0  3  0  0  0  0  0  0
  185.7220  178.5700  140.4270 C   0  0  0  0  0  0  0  0  0  0  0  0
  187.5150  178.5000  137.1090 C   0  0  0  0  0  1  0  0  0  0  0  0
  188.5190  177.5320  140.6850 C   0  0  1  0  0  3  0  0  0  0  0  0
  187.3950  178.2350  138.5660 C   0  0  0  0  0  0  0  0  0  0  0  0
  188.5050  177.9370  139.2430 C   0  0  0  0  0  3  0  0  0  0  0  0
  186.0420  178.2610  139.1630 C   0  0  0  0  0  3  0  0  0  0  0  0
  183.2070  178.6390  141.0510 N   0  0  0  0  0  0  0  0  0  0  0  0
  184.3290  178.6080  140.7720 C   0  0  0  0  0  0  0  0  0  0  0  0
  189.0670  175.7990  142.8780 O   0  0  0  0  0  0  0  0  0  0  0  0
  190.9870  177.0130  143.4200 N   0  0  0  0  0  2  0  0  0  0  0  0
  189.9580  176.6140  142.5150 C   0  0  0  0  0  0  0  0  0  0  0  0
  191.9340  177.3030  145.5300 O   0  0  0  0  0  0  0  0  0  0  0  0
  191.0600  176.4990  144.7780 C   0  0  1  0  0  3  0  0  0  0  0  0
  190.5570  177.5190  145.7230 C   0  0  1  0  0  3  0  0  0  0  0  0
  190.1240  176.8490  147.0130 C   0  0  0  0  0  2  0  0  0  0  0  0
  189.0800  177.6310  147.6570 N   0  0  0  0  0  2  0  0  0  0  0  0
  185.3940  178.4020  145.8990 N   0  0  0  0  0  0  0  0  0  0  0  0
  186.0950  177.2330  144.0640 O   0  0  0  0  0  0  0  0  0  0  0  0
  186.3330  177.6750  145.2200 C   0  0  0  0  0  0  0  0  0  0  0  0
  185.6620  178.8680  147.1210 N   0  0  0  0  0  0  0  0  0  0  0  0
  187.8140  177.8900  147.0440 C   0  0  0  0  0  0  0  0  0  0  0  0
  186.8550  178.6320  147.7240 C   0  0  0  0  0  3  0  0  0  0  0  0
  187.5340  177.4270  145.7980 N   0  0  0  0  0  0  0  0  0  0  0  0
  184.2570  179.7420  144.2130 C   0  0  0  0  0  1  0  0  0  0  0  0
  184.0990  178.6990  145.3030 C   0  0  0  0  0  2  0  0  0  0  0  0
  190.5110  176.2510  140.2510 O   0  0  0  0  0  0  0  0  0  0  0  0
  191.3980  176.9700  139.5160 N   0  0  0  0  0  2  0  0  0  0  0  0
  191.0040  176.6220  137.1030 C   0  0  0  0  0  1  0  0  0  0  0  0
  191.7810  176.1880  138.3400 C   0  0  1  0  0  3  0  0  0  0  0  0
  193.7820  174.9180  137.9230 F   0  0  0  0  0  0  0  0  0  0  0  0
  193.2940  176.1990  138.1200 C   0  0  2  0  0  3  0  0  0  0  0  0
  193.9300  176.7790  139.2170 O   0  0  0  0  0  1  0  0  0  0  0  0
  1 29  1  6  0  0  0
  1 14  1  0  0  0  0
  3  2  2  0  0  0  0
  4 11  1  0  0  0  0
  4  3  1  0  0  0  0
  5  7  1  0  0  0  0
  6  1  1  1  0  0  0
  6  2  1  0  0  0  0
  7  9  1  0  0  0  0
  7  8  2  0  0  0  0
  8  6  1  0  0  0  0
  9  4  2  0  0  0  0
 11 10  3  0  0  0  0
 14 12  2  0  0  0  0
 14 13  1  0  0  0  0
 15 17  1  0  0  0  0
 16 13  1  6  0  0  0
 16 15  1  0  0  0  0
 16 17  1  0  0  0  0
 17 18  1  1  0  0  0
 18 19  1  0  0  0  0
 20 23  1  0  0  0  0
 21 22  2  0  0  0  0
 22 26  1  0  0  0  0
 22 20  1  0  0  0  0
 23 25  2  0  0  0  0
 24 19  1  0  0  0  0
 24 25  1  0  0  0  0
 26 24  2  0  0  0  0
 27 28  1  0  0  0  0
 28 20  1  0  0  0  0
 30 29  1  0  0  0  0
 32 31  1  6  0  0  0
 32 30  1  0  0  0  0
 34 33  1  1  0  0  0
 34 32  1  0  0  0  0
 34 35  1  0  0  0  0
M  END
>  <MODEL>
7

>  <REMARK>
 VINA RESULT:      -7.4      2.852      6.931
  Name = 
  11 active torsions:
  status: ('A' for Active; 'I' for Inactive)
    1  A    between atoms: C_1  and  N_4
    2  A    between atoms: C_1  and  C_22
    3  A    between atoms: N_7  and  C_32
    4  A    between atoms: N_11  and  C_16
    5  A    between atoms: C_12  and  C_25
    6  A    between atoms: C_20  and  C_24
    7  A    between atoms: C_23  and  C_26
    8  A    between atoms: C_24  and  O_30
    9  A    between atoms: C_24  and  C_34
   10  A    between atoms: C_26  and  N_31
   11  A    between atoms: O_30  and  N_31
                            x       y       z     vdW  Elec       q    Type
                         _______ _______ _______ _____ _____    ______ ____

>  <TORSDO>
F 11

$$$$
=
 OpenBabel11042411363D

 35 37  0  0  1  0  0  0  0  0999 V2000
  188.7120  177.7290  142.9680 C   0  0  1  0  0  3  0  0  0  0  0  0
  190.6530  177.8880  144.5260 C   0  0  0  0  0  3  0  0  0  0  0  0
  191.4120  177.5970  145.5810 C   0  0  0  0  0  3  0  0  0  0  0  0
  190.9910  176.7680  146.7270 C   0  0  0  0  0  0  0  0  0  0  0  0
  187.5180  177.8760  147.6950 C   0  0  0  0  0  1  0  0  0  0  0  0
  189.2810  177.3210  144.3310 C   0  0  1  0  0  3  0  0  0  0  0  0
  188.5700  177.4840  146.7220 C   0  0  0  0  0  0  0  0  0  0  0  0
  188.3660  177.7610  145.4340 C   0  0  0  0  0  3  0  0  0  0  0  0
  189.7520  176.7610  147.2380 C   0  0  0  0  0  3  0  0  0  0  0  0
  192.8330  175.4760  148.0140 N   0  0  0  0  0  0  0  0  0  0  0  0
  192.0100  176.0520  147.4390 C   0  0  0  0  0  0  0  0  0  0  0  0
  190.1820  176.1010  142.0080 O   0  0  0  0  0  0  0  0  0  0  0  0
  189.5680  177.8590  140.5970 N   0  0  0  0  0  2  0  0  0  0  0  0
  189.5300  177.1690  141.8460 C   0  0  0  0  0  0  0  0  0  0  0  0
  190.0320  176.0110  139.2540 O   0  0  0  0  0  0  0  0  0  0  0  0
  190.3410  177.3660  139.4690 C   0  0  1  0  0  3  0  0  0  0  0  0
  189.4260  176.9400  138.3880 C   0  0  1  0  0  3  0  0  0  0  0  0
  190.1660  176.9420  137.0640 C   0  0  0  0  0  2  0  0  0  0  0  0
  189.3950  176.2250  136.0600 N   0  0  0  0  0  2  0  0  0  0  0  0
  185.2600  176.4830  135.7440 N   0  0  0  0  0  0  0  0  0  0  0  0
  185.2720  177.8870  137.5470 O   0  0  0  0  0  0  0  0  0  0  0  0
  185.9110  177.1710  136.7300 C   0  0  0  0  0  0  0  0  0  0  0  0
  185.9500  175.7240  134.8880 N   0  0  0  0  0  0  0  0  0  0  0  0
  187.9720  176.3200  135.9590 C   0  0  0  0  0  0  0  0  0  0  0  0
  187.3010  175.6210  134.9630 C   0  0  0  0  0  3  0  0  0  0  0  0
  187.2610  177.0830  136.8280 N   0  0  0  0  0  0  0  0  0  0  0  0
  183.1950  175.2330  136.0720 C   0  0  0  0  0  1  0  0  0  0  0  0
  183.8100  176.5430  135.6180 C   0  0  0  0  0  2  0  0  0  0  0  0
  187.3930  177.2870  142.8370 O   0  0  0  0  0  0  0  0  0  0  0  0
  186.6940  178.3890  142.4630 N   0  0  0  0  0  2  0  0  0  0  0  0
  184.8020  178.6230  144.0310 C   0  0  0  0  0  1  0  0  0  0  0  0
  185.2680  178.1360  142.6650 C   0  0  1  0  0  3  0  0  0  0  0  0
  183.7530  177.6890  140.8490 F   0  0  0  0  0  0  0  0  0  0  0  0
  184.4250  178.6970  141.5200 C   0  0  2  0  0  3  0  0  0  0  0  0
  185.2390  179.3920  140.6250 O   0  0  0  0  0  1  0  0  0  0  0  0
  1 14  1  6  0  0  0
  2  3  2  0  0  0  0
  3  4  1  0  0  0  0
  4  9  2  0  0  0  0
  4 11  1  0  0  0  0
  6  1  1  6  0  0  0
  6  2  1  0  0  0  0
  6  8  1  0  0  0  0
  7  9  1  0  0  0  0
  7  5  1  0  0  0  0
  8  7  2  0  0  0  0
 11 10  3  0  0  0  0
 13 14  1  0  0  0  0
 14 12  2  0  0  0  0
 15 16  1  0  0  0  0
 16 13  1  1  0  0  0
 17 18  1  6  0  0  0
 17 15  1  0  0  0  0
 17 16  1  0  0  0  0
 19 18  1  0  0  0  0
 20 22  1  0  0  0  0
 22 26  1  0  0  0  0
 22 21  2  0  0  0  0
 23 25  2  0  0  0  0
 23 20  1  0  0  0  0
 24 19  1  0  0  0  0
 24 26  2  0  0  0  0
 25 24  1  0  0  0  0
 28 20  1  0  0  0  0
 28 27  1  0  0  0  0
 29  1  1  0  0  0  0
 30 32  1  0  0  0  0
 30 29  1  0  0  0  0
 32 31  1  1  0  0  0
 33 34  1  0  0  0  0
 34 35  1  6  0  0  0
 34 32  1  0  0  0  0
M  END
>  <MODEL>
8

>  <REMARK>
 VINA RESULT:      -7.3      2.990      5.326
  Name = 
  11 active torsions:
  status: ('A' for Active; 'I' for Inactive)
    1  A    between atoms: C_1  and  N_4
    2  A    between atoms: C_1  and  C_22
    3  A    between atoms: N_7  and  C_32
    4  A    between atoms: N_11  and  C_16
    5  A    between atoms: C_12  and  C_25
    6  A    between atoms: C_20  and  C_24
    7  A    between atoms: C_23  and  C_26
    8  A    between atoms: C_24  and  O_30
    9  A    between atoms: C_24  and  C_34
   10  A    between atoms: C_26  and  N_31
   11  A    between atoms: O_30  and  N_31
                            x       y       z     vdW  Elec       q    Type
                         _______ _______ _______ _____ _____    ______ ____

>  <TORSDO>
F 11

$$$$
=
 OpenBabel11042411363D

 35 37  0  0  1  0  0  0  0  0999 V2000
  189.3150  177.1490  141.5510 C   0  0  1  0  0  3  0  0  0  0  0  0
  187.4980  176.8380  143.2310 C   0  0  0  0  0  3  0  0  0  0  0  0
  186.8050  177.0500  144.3480 C   0  0  0  0  0  3  0  0  0  0  0  0
  187.2720  177.8480  145.4980 C   0  0  0  0  0  0  0  0  0  0  0  0
  190.8480  176.8550  146.1720 C   0  0  0  0  0  1  0  0  0  0  0  0
  188.8290  177.4730  142.9670 C   0  0  1  0  0  3  0  0  0  0  0  0
  189.7140  177.2410  145.2930 C   0  0  0  0  0  0  0  0  0  0  0  0
  189.8370  177.0280  143.9820 C   0  0  0  0  0  3  0  0  0  0  0  0
  188.5430  177.8880  145.9220 C   0  0  0  0  0  3  0  0  0  0  0  0
  185.4750  179.0020  146.9670 N   0  0  0  0  0  0  0  0  0  0  0  0
  186.2770  178.4870  146.3110 C   0  0  0  0  0  0  0  0  0  0  0  0
  187.8290  178.8640  140.7870 O   0  0  0  0  0  0  0  0  0  0  0  0
  188.3420  177.2070  139.2220 N   0  0  0  0  0  2  0  0  0  0  0  0
  188.4530  177.8020  140.5160 C   0  0  0  0  0  0  0  0  0  0  0  0
  188.1560  177.5990  136.9320 O   0  0  0  0  0  0  0  0  0  0  0  0
  187.5250  177.7930  138.1730 C   0  0  1  0  0  3  0  0  0  0  0  0
  187.0860  176.7370  137.2360 C   0  0  1  0  0  3  0  0  0  0  0  0
  185.8480  177.2000  136.4910 C   0  0  0  0  0  2  0  0  0  0  0  0
  184.6600  176.5900  137.0680 N   0  0  0  0  0  2  0  0  0  0  0  0
  181.9810  178.6550  139.4820 N   0  0  0  0  0  0  0  0  0  0  0  0
  183.3080  180.5040  139.2670 O   0  0  0  0  0  0  0  0  0  0  0  0
  183.0880  179.2930  138.9940 C   0  0  0  0  0  0  0  0  0  0  0  0
  181.7640  177.3710  139.1890 N   0  0  0  0  0  0  0  0  0  0  0  0
  183.7430  177.3090  137.8980 C   0  0  0  0  0  0  0  0  0  0  0  0
  182.6180  176.6690  138.4030 C   0  0  0  0  0  3  0  0  0  0  0  0
  183.9590  178.6140  138.2070 N   0  0  0  0  0  0  0  0  0  0  0  0
  181.2000  178.8900  141.7770 C   0  0  0  0  0  1  0  0  0  0  0  0
  181.0320  179.3500  140.3420 C   0  0  0  0  0  2  0  0  0  0  0  0
  190.6360  177.5720  141.3790 O   0  0  0  0  0  0  0  0  0  0  0  0
  191.2370  176.5610  140.7000 N   0  0  0  0  0  2  0  0  0  0  0  0
  193.4620  177.2800  139.9070 C   0  0  0  0  0  1  0  0  0  0  0  0
  191.9830  177.1260  139.5750 C   0  0  1  0  0  3  0  0  0  0  0  0
  191.1610  177.1290  137.3140 F   0  0  0  0  0  0  0  0  0  0  0  0
  191.7470  176.3380  138.2870 C   0  0  2  0  0  3  0  0  0  0  0  0
  190.9340  175.2340  138.5450 O   0  0  0  0  0  1  0  0  0  0  0  0
  1 14  1  6  0  0  0
  2  3  2  0  0  0  0
  3  4  1  0  0  0  0
  4  9  2  0  0  0  0
  4 11  1  0  0  0  0
  6  1  1  6  0  0  0
  6  2  1  0  0  0  0
  6  8  1  0  0  0  0
  7  9  1  0  0  0  0
  7  5  1  0  0  0  0
  8  7  2  0  0  0  0
 11 10  3  0  0  0  0
 13 14  1  0  0  0  0
 14 12  2  0  0  0  0
 15 17  1  0  0  0  0
 15 16  1  0  0  0  0
 16 13  1  1  0  0  0
 17 18  1  6  0  0  0
 17 16  1  0  0  0  0
 18 19  1  0  0  0  0
 19 24  1  0  0  0  0
 20 28  1  0  0  0  0
 22 21  2  0  0  0  0
 22 20  1  0  0  0  0
 23 20  1  0  0  0  0
 24 26  2  0  0  0  0
 24 25  1  0  0  0  0
 25 23  2  0  0  0  0
 26 22  1  0  0  0  0
 28 27  1  0  0  0  0
 29  1  1  0  0  0  0
 30 29  1  0  0  0  0
 32 31  1  1  0  0  0
 32 30  1  0  0  0  0
 34 33  1  6  0  0  0
 34 35  1  0  0  0  0
 34 32  1  0  0  0  0
M  END
>  <MODEL>
9

>  <REMARK>
 VINA RESULT:      -7.3      2.905      4.376
  Name = 
  11 active torsions:
  status: ('A' for Active; 'I' for Inactive)
    1  A    between atoms: C_1  and  N_4
    2  A    between atoms: C_1  and  C_22
    3  A    between atoms: N_7  and  C_32
    4  A    between atoms: N_11  and  C_16
    5  A    between atoms: C_12  and  C_25
    6  A    between atoms: C_20  and  C_24
    7  A    between atoms: C_23  and  C_26
    8  A    between atoms: C_24  and  O_30
    9  A    between atoms: C_24  and  C_34
   10  A    between atoms: C_26  and  N_31
   11  A    between atoms: O_30  and  N_31
                            x       y       z     vdW  Elec       q    Type
                         _______ _______ _______ _____ _____    ______ ____

>  <TORSDO>
F 11

$$$$
