=
 OpenBabel11042410233D

 29 32  0  0  1  0  0  0  0  0999 V2000
  188.6360  177.2950  144.9650 C   0  0  2  0  0  0  0  0  0  0  0  0
  189.3830  177.5690  143.6560 C   0  0  1  0  0  3  0  0  0  0  0  0
  188.7070  176.2260  143.8880 C   0  0  0  0  0  2  0  0  0  0  0  0
  185.7110  179.1110  146.5760 C   0  0  0  0  0  3  0  0  0  0  0  0
  187.2710  177.8840  145.2020 C   0  0  0  0  0  0  0  0  0  0  0  0
  184.7900  179.0510  145.5760 N   0  0  0  0  0  0  0  0  0  0  0  0
  186.9690  178.5340  146.4050 C   0  0  0  0  0  3  0  0  0  0  0  0
  185.0600  178.4400  144.3910 C   0  0  0  0  0  0  0  0  0  0  0  0
  186.3150  177.8540  144.1820 C   0  0  0  0  0  3  0  0  0  0  0  0
  184.0160  178.4140  143.3230 C   0  0  2  0  0  3  0  0  0  0  0  0
  184.4990  179.0220  142.1620 O   0  0  0  0  0  1  0  0  0  0  0  0
  182.7500  179.1120  143.7960 C   0  0  0  0  0  2  0  0  0  0  0  0
  181.6460  178.9510  142.7700 C   0  0  0  0  0  1  0  0  0  0  0  0
  188.9340  176.7550  147.3430 C   0  0  0  0  0  2  0  0  0  0  0  0
  189.4970  177.0120  146.1610 C   0  0  0  0  0  0  0  0  0  0  0  0
  190.9800  176.8990  146.0020 C   0  0  0  0  0  2  0  0  0  0  0  0
  191.6220  176.8910  147.3060 N   0  0  0  0  0  2  0  0  0  0  0  0
  192.4140  175.6770  147.3720 C   0  0  0  0  0  1  0  0  0  0  0  0
  188.4220  178.5090  142.4230 S   0  0  0  0  0  0  0  0  0  0  0  0
  191.1790  177.0030  139.9160 C   0  0  0  0  0  3  0  0  0  0  0  0
  190.1050  177.2730  137.6480 C   0  0  0  0  0  2  0  0  0  0  0  0
  186.7700  178.7430  137.0820 N   0  0  0  0  0  1  0  0  0  0  0  0
  190.7020  177.3460  141.1900 C   0  0  0  0  0  2  0  0  0  0  0  0
  187.9280  178.2810  137.7670 C   0  0  0  0  0  0  0  0  0  0  0  0
  190.1930  177.3690  139.0250 C   0  0  0  0  0  0  0  0  0  0  0  0
  189.1100  177.9370  139.7470 C   0  0  0  0  0  0  0  0  0  0  0  0
  188.9660  177.7350  137.0520 N   0  0  0  0  0  0  0  0  0  0  0  0
  189.4340  177.9150  141.0740 C   0  0  0  0  0  0  0  0  0  0  0  0
  187.9940  178.3850  139.1290 N   0  0  0  0  0  2  0  0  0  0  0  0
  1  5  1  0  0  0  0
  1 15  1  1  0  0  0
  2 19  1  6  0  0  0
  2  3  1  0  0  0  0
  2  1  1  0  0  0  0
  3  1  1  0  0  0  0
  5  7  2  0  0  0  0
  6  4  2  0  0  0  0
  7  4  1  0  0  0  0
  8  6  1  0  0  0  0
  9  8  2  0  0  0  0
  9  5  1  0  0  0  0
 10 11  1  6  0  0  0
 10 12  1  0  0  0  0
 10  8  1  0  0  0  0
 13 12  1  0  0  0  0
 15 14  2  0  0  0  0
 16 15  1  0  0  0  0
 16 17  1  0  0  0  0
 17 18  1  0  0  0  0
 20 23  1  0  0  0  0
 21 25  1  0  0  0  0
 22 24  1  0  0  0  0
 24 29  1  0  0  0  0
 25 26  1  0  0  0  0
 25 20  2  0  0  0  0
 26 28  2  0  0  0  0
 27 21  1  0  0  0  0
 27 24  2  0  0  0  0
 28 23  1  0  0  0  0
 28 19  1  0  0  0  0
 29 26  1  0  0  0  0
M  END
>  <MODEL>
1

>  <REMARK>
 VINA RESULT:      -8.6      0.000      0.000
  Name = 
  8 active torsions:
  status: ('A' for Active; 'I' for Inactive)
    1  A    between atoms: C_1  and  C_17
    2  A    between atoms: C_1  and  C_26
    3  A    between atoms: N_2  and  C_28
    4  A    between atoms: C_4  and  C_9
    5  A    between atoms: C_4  and  C_25
    6  A    between atoms: C_6  and  S_16
    7  A    between atoms: S_16  and  C_20
    8  A    between atoms: C_25  and  C_28
                            x       y       z     vdW  Elec       q    Type
                         _______ _______ _______ _____ _____    ______ ____

>  <TORSDO>
F 8

$$$$
=
 OpenBabel11042410233D

 29 32  0  0  1  0  0  0  0  0999 V2000
  189.8040  177.2360  143.7060 C   0  0  2  0  0  0  0  0  0  0  0  0
  189.9170  177.3550  142.1840 C   0  0  1  0  0  3  0  0  0  0  0  0
  189.8570  175.9870  142.8450 C   0  0  0  0  0  2  0  0  0  0  0  0
  187.1830  177.7980  146.4020 C   0  0  0  0  0  3  0  0  0  0  0  0
  188.4900  177.4910  144.3960 C   0  0  0  0  0  0  0  0  0  0  0  0
  186.0870  178.0640  145.6420 N   0  0  0  0  0  0  0  0  0  0  0  0
  188.4050  177.5120  145.7930 C   0  0  0  0  0  3  0  0  0  0  0  0
  186.1430  178.0650  144.2830 C   0  0  0  0  0  0  0  0  0  0  0  0
  187.3540  177.7880  143.6370 C   0  0  0  0  0  3  0  0  0  0  0  0
  184.9100  178.3760  143.4980 C   0  0  2  0  0  3  0  0  0  0  0  0
  185.1990  179.3060  142.4970 O   0  0  0  0  0  1  0  0  0  0  0  0
  183.8150  178.9060  144.4110 C   0  0  0  0  0  2  0  0  0  0  0  0
  182.4930  178.9580  143.6690 C   0  0  0  0  0  1  0  0  0  0  0  0
  191.5920  178.7240  144.4970 C   0  0  0  0  0  2  0  0  0  0  0  0
  191.0650  177.4990  144.4770 C   0  0  0  0  0  0  0  0  0  0  0  0
  191.6630  176.4170  145.3180 C   0  0  0  0  0  2  0  0  0  0  0  0
  191.8070  176.8740  146.6910 N   0  0  0  0  0  2  0  0  0  0  0  0
  192.2630  175.7340  147.4640 C   0  0  0  0  0  1  0  0  0  0  0  0
  188.3340  177.6710  141.3330 S   0  0  0  0  0  0  0  0  0  0  0  0
  190.6210  177.1100  138.0760 C   0  0  0  0  0  3  0  0  0  0  0  0
  188.9440  177.0970  136.1900 C   0  0  0  0  0  2  0  0  0  0  0  0
  185.3070  177.5190  136.6300 N   0  0  0  0  0  1  0  0  0  0  0  0
  190.4290  177.2680  139.4570 C   0  0  0  0  0  2  0  0  0  0  0  0
  186.6890  177.4070  136.9520 C   0  0  0  0  0  0  0  0  0  0  0  0
  189.3700  177.1850  137.5030 C   0  0  0  0  0  0  0  0  0  0  0  0
  188.4070  177.3880  138.5270 C   0  0  0  0  0  0  0  0  0  0  0  0
  187.6050  177.2110  135.9480 N   0  0  0  0  0  0  0  0  0  0  0  0
  189.0700  177.4350  139.7210 C   0  0  0  0  0  0  0  0  0  0  0  0
  187.0870  177.4970  138.2570 N   0  0  0  0  0  2  0  0  0  0  0  0
  1  5  1  0  0  0  0
  1 15  1  1  0  0  0
  2 19  1  6  0  0  0
  2  3  1  0  0  0  0
  2  1  1  0  0  0  0
  3  1  1  0  0  0  0
  5  7  2  0  0  0  0
  6  4  2  0  0  0  0
  7  4  1  0  0  0  0
  8  6  1  0  0  0  0
  9  8  2  0  0  0  0
  9  5  1  0  0  0  0
 10 11  1  6  0  0  0
 10  8  1  0  0  0  0
 10 12  1  0  0  0  0
 13 12  1  0  0  0  0
 15 14  2  0  0  0  0
 15 16  1  0  0  0  0
 16 17  1  0  0  0  0
 17 18  1  0  0  0  0
 20 23  1  0  0  0  0
 21 25  1  0  0  0  0
 22 24  1  0  0  0  0
 23 28  1  0  0  0  0
 24 29  1  0  0  0  0
 25 20  2  0  0  0  0
 25 26  1  0  0  0  0
 26 28  2  0  0  0  0
 27 21  1  0  0  0  0
 27 24  2  0  0  0  0
 28 19  1  0  0  0  0
 29 26  1  0  0  0  0
M  END
>  <MODEL>
2

>  <REMARK>
 VINA RESULT:      -8.5      1.241      1.722
  Name = 
  8 active torsions:
  status: ('A' for Active; 'I' for Inactive)
    1  A    between atoms: C_1  and  C_17
    2  A    between atoms: C_1  and  C_26
    3  A    between atoms: N_2  and  C_28
    4  A    between atoms: C_4  and  C_9
    5  A    between atoms: C_4  and  C_25
    6  A    between atoms: C_6  and  S_16
    7  A    between atoms: S_16  and  C_20
    8  A    between atoms: C_25  and  C_28
                            x       y       z     vdW  Elec       q    Type
                         _______ _______ _______ _____ _____    ______ ____

>  <TORSDO>
F 8

$$$$
=
 OpenBabel11042410233D

 29 32  0  0  1  0  0  0  0  0999 V2000
  189.9770  177.6380  143.6050 C   0  0  2  0  0  0  0  0  0  0  0  0
  188.8390  177.0990  144.4770 C   0  0  1  0  0  3  0  0  0  0  0  0
  188.9510  178.5890  144.1950 C   0  0  0  0  0  2  0  0  0  0  0  0
  190.7860  176.5450  140.0550 C   0  0  0  0  0  3  0  0  0  0  0  0
  189.9300  177.4820  142.1090 C   0  0  0  0  0  0  0  0  0  0  0  0
  189.7650  177.1260  139.3700 N   0  0  0  0  0  0  0  0  0  0  0  0
  190.8840  176.7080  141.4370 C   0  0  0  0  0  3  0  0  0  0  0  0
  188.8160  177.8710  139.9970 C   0  0  0  0  0  0  0  0  0  0  0  0
  188.8790  178.0520  141.3850 C   0  0  0  0  0  3  0  0  0  0  0  0
  187.7090  178.4760  139.1960 C   0  0  2  0  0  3  0  0  0  0  0  0
  186.5710  178.6350  139.9900 O   0  0  0  0  0  1  0  0  0  0  0  0
  187.3920  177.6110  137.9860 C   0  0  0  0  0  2  0  0  0  0  0  0
  187.4330  178.4450  136.7190 C   0  0  0  0  0  1  0  0  0  0  0  0
  192.0280  178.8430  144.2190 C   0  0  0  0  0  2  0  0  0  0  0  0
  191.3240  177.7110  144.2630 C   0  0  0  0  0  0  0  0  0  0  0  0
  191.8230  176.5550  145.0700 C   0  0  0  0  0  2  0  0  0  0  0  0
  191.7920  176.8830  146.4850 N   0  0  0  0  0  2  0  0  0  0  0  0
  192.2640  175.7100  147.1960 C   0  0  0  0  0  1  0  0  0  0  0  0
  187.4260  176.4240  143.5400 S   0  0  0  0  0  0  0  0  0  0  0  0
  185.2250  178.5370  146.1550 C   0  0  0  0  0  3  0  0  0  0  0  0
  183.3220  179.4030  144.7420 C   0  0  0  0  0  2  0  0  0  0  0  0
  182.9230  178.7180  141.1390 N   0  0  0  0  0  1  0  0  0  0  0  0
  186.3210  177.7340  145.8060 C   0  0  0  0  0  2  0  0  0  0  0  0
  183.4770  178.7010  142.4500 C   0  0  0  0  0  0  0  0  0  0  0  0
  184.4900  178.7100  145.0020 C   0  0  0  0  0  0  0  0  0  0  0  0
  185.1300  178.0150  143.9420 C   0  0  0  0  0  0  0  0  0  0  0  0
  182.8430  179.3790  143.4620 N   0  0  0  0  0  0  0  0  0  0  0  0
  186.2530  177.4230  144.4480 C   0  0  0  0  0  0  0  0  0  0  0  0
  184.6330  178.0110  142.6850 N   0  0  0  0  0  2  0  0  0  0  0  0
  1  3  1  0  0  0  0
  1 15  1  1  0  0  0
  1  2  1  0  0  0  0
  2 19  1  6  0  0  0
  3  2  1  0  0  0  0
  4  7  1  0  0  0  0
  5  1  1  0  0  0  0
  6  8  1  0  0  0  0
  6  4  2  0  0  0  0
  7  5  2  0  0  0  0
  8  9  2  0  0  0  0
  9  5  1  0  0  0  0
 10 11  1  1  0  0  0
 10  8  1  0  0  0  0
 12 10  1  0  0  0  0
 13 12  1  0  0  0  0
 14 15  2  0  0  0  0
 15 16  1  0  0  0  0
 16 17  1  0  0  0  0
 17 18  1  0  0  0  0
 19 28  1  0  0  0  0
 21 25  1  0  0  0  0
 22 24  1  0  0  0  0
 23 20  1  0  0  0  0
 24 29  1  0  0  0  0
 24 27  2  0  0  0  0
 25 20  2  0  0  0  0
 26 28  2  0  0  0  0
 26 25  1  0  0  0  0
 27 21  1  0  0  0  0
 28 23  1  0  0  0  0
 29 26  1  0  0  0  0
M  END
>  <MODEL>
3

>  <REMARK>
 VINA RESULT:      -8.5      1.774      5.845
  Name = 
  8 active torsions:
  status: ('A' for Active; 'I' for Inactive)
    1  A    between atoms: C_1  and  C_17
    2  A    between atoms: C_1  and  C_26
    3  A    between atoms: N_2  and  C_28
    4  A    between atoms: C_4  and  C_9
    5  A    between atoms: C_4  and  C_25
    6  A    between atoms: C_6  and  S_16
    7  A    between atoms: S_16  and  C_20
    8  A    between atoms: C_25  and  C_28
                            x       y       z     vdW  Elec       q    Type
                         _______ _______ _______ _____ _____    ______ ____

>  <TORSDO>
F 8

$$$$
=
 OpenBabel11042410233D

 29 32  0  0  1  0  0  0  0  0999 V2000
  189.8510  177.3030  143.3030 C   0  0  2  0  0  0  0  0  0  0  0  0
  190.1970  177.2840  141.8120 C   0  0  1  0  0  3  0  0  0  0  0  0
  190.0100  175.9810  142.5740 C   0  0  0  0  0  2  0  0  0  0  0  0
  186.1030  177.9390  143.2990 C   0  0  0  0  0  3  0  0  0  0  0  0
  188.4520  177.6270  143.7570 C   0  0  0  0  0  0  0  0  0  0  0  0
  185.8730  178.1230  144.6270 N   0  0  0  0  0  0  0  0  0  0  0  0
  187.3950  177.6830  142.8400 C   0  0  0  0  0  3  0  0  0  0  0  0
  186.8770  178.0610  145.5420 C   0  0  0  0  0  0  0  0  0  0  0  0
  188.1870  177.8000  145.1190 C   0  0  0  0  0  3  0  0  0  0  0  0
  186.5650  178.2580  146.9890 C   0  0  2  0  0  3  0  0  0  0  0  0
  185.7030  179.3450  147.1520 O   0  0  0  0  0  1  0  0  0  0  0  0
  187.8420  178.4730  147.7870 C   0  0  0  0  0  2  0  0  0  0  0  0
  188.2260  177.2010  148.5180 C   0  0  0  0  0  1  0  0  0  0  0  0
  191.3980  178.8880  144.3670 C   0  0  0  0  0  2  0  0  0  0  0  0
  190.9840  177.6270  144.2320 C   0  0  0  0  0  0  0  0  0  0  0  0
  191.5680  176.5550  145.0970 C   0  0  0  0  0  2  0  0  0  0  0  0
  191.5880  176.9890  146.4840 N   0  0  0  0  0  2  0  0  0  0  0  0
  192.0830  175.8700  147.2640 C   0  0  0  0  0  1  0  0  0  0  0  0
  188.7690  177.5310  140.7030 S   0  0  0  0  0  0  0  0  0  0  0  0
  191.4450  176.3790  137.9340 C   0  0  0  0  0  3  0  0  0  0  0  0
  190.1700  176.6090  135.7690 C   0  0  0  0  0  2  0  0  0  0  0  0
  186.6740  177.7590  135.5200 N   0  0  0  0  0  1  0  0  0  0  0  0
  191.0430  176.6350  139.2540 C   0  0  0  0  0  2  0  0  0  0  0  0
  187.9230  177.3930  136.0950 C   0  0  0  0  0  0  0  0  0  0  0  0
  190.3600  176.6720  137.1370 C   0  0  0  0  0  0  0  0  0  0  0  0
  189.2890  177.1090  137.9620 C   0  0  0  0  0  0  0  0  0  0  0  0
  188.9470  176.9740  135.2810 N   0  0  0  0  0  0  0  0  0  0  0  0
  189.7210  177.0800  139.2580 C   0  0  0  0  0  0  0  0  0  0  0  0
  188.0890  177.4630  137.4500 N   0  0  0  0  0  2  0  0  0  0  0  0
  1  5  1  0  0  0  0
  1 15  1  1  0  0  0
  2 19  1  6  0  0  0
  2  3  1  0  0  0  0
  2  1  1  0  0  0  0
  3  1  1  0  0  0  0
  4  6  1  0  0  0  0
  5  9  2  0  0  0  0
  6  8  2  0  0  0  0
  7  4  2  0  0  0  0
  7  5  1  0  0  0  0
  8 10  1  0  0  0  0
  9  8  1  0  0  0  0
 10 11  1  6  0  0  0
 10 12  1  0  0  0  0
 12 13  1  0  0  0  0
 15 14  2  0  0  0  0
 15 16  1  0  0  0  0
 16 17  1  0  0  0  0
 17 18  1  0  0  0  0
 20 23  1  0  0  0  0
 21 25  1  0  0  0  0
 22 24  1  0  0  0  0
 23 28  1  0  0  0  0
 24 29  1  0  0  0  0
 25 20  2  0  0  0  0
 25 26  1  0  0  0  0
 26 28  2  0  0  0  0
 27 21  1  0  0  0  0
 27 24  2  0  0  0  0
 28 19  1  0  0  0  0
 29 26  1  0  0  0  0
M  END
>  <MODEL>
4

>  <REMARK>
 VINA RESULT:      -8.5      1.903      3.176
  Name = 
  8 active torsions:
  status: ('A' for Active; 'I' for Inactive)
    1  A    between atoms: C_1  and  C_17
    2  A    between atoms: C_1  and  C_26
    3  A    between atoms: N_2  and  C_28
    4  A    between atoms: C_4  and  C_9
    5  A    between atoms: C_4  and  C_25
    6  A    between atoms: C_6  and  S_16
    7  A    between atoms: S_16  and  C_20
    8  A    between atoms: C_25  and  C_28
                            x       y       z     vdW  Elec       q    Type
                         _______ _______ _______ _____ _____    ______ ____

>  <TORSDO>
F 8

$$$$
=
 OpenBabel11042410233D

 29 32  0  0  1  0  0  0  0  0999 V2000
  190.1270  177.3330  141.1610 C   0  0  2  0  0  0  0  0  0  0  0  0
  190.1410  176.5170  142.4570 C   0  0  1  0  0  3  0  0  0  0  0  0
  190.5410  177.9840  142.4690 C   0  0  0  0  0  2  0  0  0  0  0  0
  187.3780  178.2230  138.6920 C   0  0  0  0  0  3  0  0  0  0  0  0
  188.8260  177.8190  140.5800 C   0  0  0  0  0  0  0  0  0  0  0  0
  186.3900  178.6200  139.5390 N   0  0  0  0  0  0  0  0  0  0  0  0
  188.6110  177.8110  139.1970 C   0  0  0  0  0  3  0  0  0  0  0  0
  186.5660  178.6240  140.8880 C   0  0  0  0  0  0  0  0  0  0  0  0
  187.7890  178.2110  141.4320 C   0  0  0  0  0  3  0  0  0  0  0  0
  185.4430  179.0580  141.7730 C   0  0  2  0  0  3  0  0  0  0  0  0
  185.8190  178.9550  143.1140 O   0  0  0  0  0  1  0  0  0  0  0  0
  184.2000  178.2210  141.5080 C   0  0  0  0  0  2  0  0  0  0  0  0
  183.0720  178.6520  142.4250 C   0  0  0  0  0  1  0  0  0  0  0  0
  192.4740  177.5880  140.4790 C   0  0  0  0  0  2  0  0  0  0  0  0
  191.2670  177.0800  140.2190 C   0  0  0  0  0  0  0  0  0  0  0  0
  191.0820  176.1610  139.0540 C   0  0  0  0  0  2  0  0  0  0  0  0
  192.1570  176.3490  138.0940 N   0  0  0  0  0  2  0  0  0  0  0  0
  192.2270  175.1340  137.3040 C   0  0  0  0  0  1  0  0  0  0  0  0
  188.5090  176.3430  143.2550 S   0  0  0  0  0  0  0  0  0  0  0  0
  190.6110  177.0490  146.6070 C   0  0  0  0  0  3  0  0  0  0  0  0
  188.9210  178.1440  148.1280 C   0  0  0  0  0  3  0  0  0  0  0  0
  185.4120  178.8090  147.2080 N   0  0  0  0  0  1  0  0  0  0  0  0
  190.4740  176.5710  145.2950 C   0  0  0  0  0  3  0  0  0  0  0  0
  186.7620  178.3710  147.1020 C   0  0  0  0  0  0  0  0  0  0  0  0
  189.3780  177.5500  146.9660 C   0  0  0  0  0  0  0  0  0  0  0  0
  188.4810  177.3820  145.8790 C   0  0  0  0  0  0  0  0  0  0  0  0
  187.6150  178.5420  148.1650 N   0  0  0  0  0  0  0  0  0  0  0  0
  189.1660  176.7820  144.8590 C   0  0  0  0  0  0  0  0  0  0  0  0
  187.1930  177.7870  145.9440 N   0  0  0  0  0  2  0  0  0  0  0  0
  1 15  1  6  0  0  0
  1  2  1  0  0  0  0
  1  3  1  0  0  0  0
  2  3  1  0  0  0  0
  2 19  1  1  0  0  0
  4  7  2  0  0  0  0
  4  6  1  0  0  0  0
  5  1  1  0  0  0  0
  5  9  2  0  0  0  0
  6  8  2  0  0  0  0
  7  5  1  0  0  0  0
  8  9  1  0  0  0  0
  8 10  1  0  0  0  0
 10 11  1  1  0  0  0
 12 10  1  0  0  0  0
 12 13  1  0  0  0  0
 15 14  2  0  0  0  0
 16 15  1  0  0  0  0
 17 16  1  0  0  0  0
 18 17  1  0  0  0  0
 19 28  1  0  0  0  0
 20 25  1  0  0  0  0
 21 27  1  0  0  0  0
 23 20  2  0  0  0  0
 24 22  1  0  0  0  0
 24 27  2  0  0  0  0
 25 21  2  0  0  0  0
 26 29  1  0  0  0  0
 26 25  1  0  0  0  0
 28 23  1  0  0  0  0
 28 26  2  0  0  0  0
 29 24  1  0  0  0  0
M  END
>  <MODEL>
5

>  <REMARK>
 VINA RESULT:      -8.1      1.861      6.574
  Name = 
  8 active torsions:
  status: ('A' for Active; 'I' for Inactive)
    1  A    between atoms: C_1  and  C_17
    2  A    between atoms: C_1  and  C_26
    3  A    between atoms: N_2  and  C_28
    4  A    between atoms: C_4  and  C_9
    5  A    between atoms: C_4  and  C_25
    6  A    between atoms: C_6  and  S_16
    7  A    between atoms: S_16  and  C_20
    8  A    between atoms: C_25  and  C_28
                            x       y       z     vdW  Elec       q    Type
                         _______ _______ _______ _____ _____    ______ ____

>  <TORSDO>
F 8

$$$$
=
 OpenBabel11042410233D

 29 32  0  0  1  0  0  0  0  0999 V2000
  188.4800  177.8280  142.5260 C   0  0  2  0  0  0  0  0  0  0  0  0
  188.6860  177.2500  141.1230 C   0  0  1  0  0  3  0  0  0  0  0  0
  188.5360  178.7500  141.3210 C   0  0  0  0  0  2  0  0  0  0  0  0
  191.6690  179.0180  144.2200 C   0  0  0  0  0  3  0  0  0  0  0  0
  189.6380  177.9420  143.4820 C   0  0  0  0  0  0  0  0  0  0  0  0
  191.7020  178.2010  145.3060 N   0  0  0  0  0  0  0  0  0  0  0  0
  190.6340  178.9070  143.2910 C   0  0  0  0  0  3  0  0  0  0  0  0
  190.7410  177.2640  145.5250 C   0  0  0  0  0  0  0  0  0  0  0  0
  189.6830  177.1270  144.6170 C   0  0  0  0  0  3  0  0  0  0  0  0
  190.8210  176.4010  146.7420 C   0  0  2  0  0  3  0  0  0  0  0  0
  190.6260  177.1700  147.8920 O   0  0  0  0  0  1  0  0  0  0  0  0
  192.1630  175.6880  146.8050 C   0  0  0  0  0  2  0  0  0  0  0  0
  192.7320  175.7630  148.2090 C   0  0  0  0  0  1  0  0  0  0  0  0
  186.9270  176.9350  144.2070 C   0  0  0  0  0  2  0  0  0  0  0  0
  187.1050  177.6650  143.1050 C   0  0  0  0  0  0  0  0  0  0  0  0
  185.9550  178.4170  142.5160 C   0  0  0  0  0  2  0  0  0  0  0  0
  184.7910  178.3070  143.3810 N   0  0  0  0  0  2  0  0  0  0  0  0
  184.5180  179.6400  143.8840 C   0  0  0  0  0  1  0  0  0  0  0  0
  190.4230  176.8780  140.7090 S   0  0  0  0  0  0  0  0  0  0  0  0
  188.8670  176.4930  137.0240 C   0  0  0  0  0  3  0  0  0  0  0  0
  190.8980  176.1070  135.5770 C   0  0  0  0  0  2  0  0  0  0  0  0
  194.3620  175.9790  136.8380 N   0  0  0  0  0  1  0  0  0  0  0  0
  188.7670  176.6980  138.4080 C   0  0  0  0  0  2  0  0  0  0  0  0
  192.9450  176.1040  136.8340 C   0  0  0  0  0  0  0  0  0  0  0  0
  190.2090  176.3340  136.7540 C   0  0  0  0  0  0  0  0  0  0  0  0
  190.9370  176.4400  137.9690 C   0  0  0  0  0  0  0  0  0  0  0  0
  192.2580  175.9980  135.6490 N   0  0  0  0  0  0  0  0  0  0  0  0
  190.0400  176.6650  138.9750 C   0  0  0  0  0  0  0  0  0  0  0  0
  192.2840  176.3280  138.0100 N   0  0  0  0  0  2  0  0  0  0  0  0
  1 15  1  1  0  0  0
  1  5  1  0  0  0  0
  2 19  1  1  0  0  0
  2  3  1  0  0  0  0
  2  1  1  0  0  0  0
  3  1  1  0  0  0  0
  4  6  1  0  0  0  0
  5  9  2  0  0  0  0
  6  8  2  0  0  0  0
  7  5  1  0  0  0  0
  7  4  2  0  0  0  0
  8 10  1  0  0  0  0
  9  8  1  0  0  0  0
 10 12  1  0  0  0  0
 10 11  1  1  0  0  0
 12 13  1  0  0  0  0
 15 14  2  0  0  0  0
 16 15  1  0  0  0  0
 16 17  1  0  0  0  0
 17 18  1  0  0  0  0
 20 23  1  0  0  0  0
 21 27  1  0  0  0  0
 21 25  1  0  0  0  0
 23 28  1  0  0  0  0
 24 22  1  0  0  0  0
 24 29  1  0  0  0  0
 25 20  2  0  0  0  0
 25 26  1  0  0  0  0
 26 29  1  0  0  0  0
 26 28  2  0  0  0  0
 27 24  2  0  0  0  0
 28 19  1  0  0  0  0
M  END
>  <MODEL>
6

>  <REMARK>
 VINA RESULT:      -8.1      2.832      5.945
  Name = 
  8 active torsions:
  status: ('A' for Active; 'I' for Inactive)
    1  A    between atoms: C_1  and  C_17
    2  A    between atoms: C_1  and  C_26
    3  A    between atoms: N_2  and  C_28
    4  A    between atoms: C_4  and  C_9
    5  A    between atoms: C_4  and  C_25
    6  A    between atoms: C_6  and  S_16
    7  A    between atoms: S_16  and  C_20
    8  A    between atoms: C_25  and  C_28
                            x       y       z     vdW  Elec       q    Type
                         _______ _______ _______ _____ _____    ______ ____

>  <TORSDO>
F 8

$$$$
=
 OpenBabel11042410233D

 29 32  0  0  1  0  0  0  0  0999 V2000
  189.9550  177.3350  141.1590 C   0  0  2  0  0  0  0  0  0  0  0  0
  190.0320  176.5020  142.4420 C   0  0  1  0  0  3  0  0  0  0  0  0
  190.3810  177.9810  142.4650 C   0  0  0  0  0  2  0  0  0  0  0  0
  186.5140  178.9260  140.8860 C   0  0  0  0  0  3  0  0  0  0  0  0
  188.6230  177.7830  140.6190 C   0  0  0  0  0  0  0  0  0  0  0  0
  186.2250  178.6880  139.5780 N   0  0  0  0  0  0  0  0  0  0  0  0
  187.7200  178.4830  141.4290 C   0  0  0  0  0  3  0  0  0  0  0  0
  187.0890  178.0230  138.7650 C   0  0  0  0  0  0  0  0  0  0  0  0
  188.3120  177.5680  139.2740 C   0  0  0  0  0  3  0  0  0  0  0  0
  186.7250  177.8000  137.3330 C   0  0  2  0  0  3  0  0  0  0  0  0
  186.6610  176.4320  137.0600 O   0  0  0  0  0  1  0  0  0  0  0  0
  187.7320  178.4750  136.4140 C   0  0  0  0  0  2  0  0  0  0  0  0
  187.8940  177.6760  135.1360 C   0  0  0  0  0  1  0  0  0  0  0  0
  192.2810  177.6550  140.4340 C   0  0  0  0  0  2  0  0  0  0  0  0
  191.0780  177.1350  140.1840 C   0  0  0  0  0  0  0  0  0  0  0  0
  190.8820  176.2540  138.9910 C   0  0  0  0  0  2  0  0  0  0  0  0
  192.0350  176.3420  138.1110 N   0  0  0  0  0  2  0  0  0  0  0  0
  192.3670  174.9840  137.7220 C   0  0  0  0  0  1  0  0  0  0  0  0
  188.4290  176.2590  143.2800 S   0  0  0  0  0  0  0  0  0  0  0  0
  190.5700  177.0630  146.5850 C   0  0  0  0  0  3  0  0  0  0  0  0
  188.8860  178.1600  148.1110 C   0  0  0  0  0  3  0  0  0  0  0  0
  185.3520  178.7510  147.2320 N   0  0  0  0  0  1  0  0  0  0  0  0
  190.4200  176.5580  145.2840 C   0  0  0  0  0  3  0  0  0  0  0  0
  186.7070  178.3330  147.1140 C   0  0  0  0  0  0  0  0  0  0  0  0
  189.3350  177.5510  146.9530 C   0  0  0  0  0  0  0  0  0  0  0  0
  188.4240  177.3480  145.8830 C   0  0  0  0  0  0  0  0  0  0  0  0
  187.5740  178.5380  148.1600 N   0  0  0  0  0  0  0  0  0  0  0  0
  189.1030  176.7400  144.8650 C   0  0  0  0  0  0  0  0  0  0  0  0
  187.1300  177.7330  145.9600 N   0  0  0  0  0  2  0  0  0  0  0  0
  1 15  1  6  0  0  0
  1  2  1  0  0  0  0
  1  3  1  0  0  0  0
  2  3  1  0  0  0  0
  2 19  1  1  0  0  0
  4  7  1  0  0  0  0
  5  1  1  0  0  0  0
  5  7  2  0  0  0  0
  6  4  2  0  0  0  0
  8  9  2  0  0  0  0
  8  6  1  0  0  0  0
  9  5  1  0  0  0  0
 10 11  1  6  0  0  0
 10  8  1  0  0  0  0
 12 10  1  0  0  0  0
 13 12  1  0  0  0  0
 15 14  2  0  0  0  0
 16 15  1  0  0  0  0
 17 16  1  0  0  0  0
 18 17  1  0  0  0  0
 19 28  1  0  0  0  0
 20 25  1  0  0  0  0
 21 27  1  0  0  0  0
 23 20  2  0  0  0  0
 24 22  1  0  0  0  0
 24 27  2  0  0  0  0
 25 21  2  0  0  0  0
 26 29  1  0  0  0  0
 26 25  1  0  0  0  0
 28 23  1  0  0  0  0
 28 26  2  0  0  0  0
 29 24  1  0  0  0  0
M  END
>  <MODEL>
7

>  <REMARK>
 VINA RESULT:      -8.1      2.593      7.100
  Name = 
  8 active torsions:
  status: ('A' for Active; 'I' for Inactive)
    1  A    between atoms: C_1  and  C_17
    2  A    between atoms: C_1  and  C_26
    3  A    between atoms: N_2  and  C_28
    4  A    between atoms: C_4  and  C_9
    5  A    between atoms: C_4  and  C_25
    6  A    between atoms: C_6  and  S_16
    7  A    between atoms: S_16  and  C_20
    8  A    between atoms: C_25  and  C_28
                            x       y       z     vdW  Elec       q    Type
                         _______ _______ _______ _____ _____    ______ ____

>  <TORSDO>
F 8

$$$$
=
 OpenBabel11042410233D

 29 32  0  0  1  0  0  0  0  0999 V2000
  189.8640  177.4980  142.7440 C   0  0  2  0  0  0  0  0  0  0  0  0
  190.7300  177.2230  141.5110 C   0  0  1  0  0  3  0  0  0  0  0  0
  190.1440  176.0710  142.3100 C   0  0  0  0  0  2  0  0  0  0  0  0
  186.6320  178.8160  141.2360 C   0  0  0  0  0  3  0  0  0  0  0  0
  188.4370  177.9540  142.5870 C   0  0  0  0  0  0  0  0  0  0  0  0
  185.7860  178.6900  142.2930 N   0  0  0  0  0  0  0  0  0  0  0  0
  187.9720  178.4450  141.3620 C   0  0  0  0  0  3  0  0  0  0  0  0
  186.2070  178.2020  143.4910 C   0  0  0  0  0  0  0  0  0  0  0  0
  187.5440  177.8150  143.6530 C   0  0  0  0  0  3  0  0  0  0  0  0
  185.2320  178.0730  144.6150 C   0  0  2  0  0  3  0  0  0  0  0  0
  184.4800  179.2440  144.7380 O   0  0  0  0  0  1  0  0  0  0  0  0
  185.9550  177.7720  145.9190 C   0  0  0  0  0  2  0  0  0  0  0  0
  185.7560  178.9070  146.9050 C   0  0  0  0  0  1  0  0  0  0  0  0
  191.2210  179.0970  144.0240 C   0  0  0  0  0  2  0  0  0  0  0  0
  190.6030  177.9150  143.9810 C   0  0  0  0  0  0  0  0  0  0  0  0
  190.5470  177.0610  145.2070 C   0  0  0  0  0  2  0  0  0  0  0  0
  191.8280  177.0880  145.8940 N   0  0  0  0  0  2  0  0  0  0  0  0
  191.6300  176.4280  147.1710 C   0  0  0  0  0  1  0  0  0  0  0  0
  189.8420  177.3540  139.9220 S   0  0  0  0  0  0  0  0  0  0  0  0
  193.2730  176.1110  138.2380 C   0  0  0  0  0  3  0  0  0  0  0  0
  192.5410  174.1690  136.8020 C   0  0  0  0  0  2  0  0  0  0  0  0
  189.0610  172.9820  136.5190 N   0  0  0  0  0  1  0  0  0  0  0  0
  192.5240  176.9550  139.0710 C   0  0  0  0  0  2  0  0  0  0  0  0
  190.1790  173.7600  136.9320 C   0  0  0  0  0  0  0  0  0  0  0  0
  192.3780  175.2200  137.6860 C   0  0  0  0  0  0  0  0  0  0  0  0
  191.0780  175.5120  138.1770 C   0  0  0  0  0  0  0  0  0  0  0  0
  191.4280  173.4620  136.4460 N   0  0  0  0  0  0  0  0  0  0  0  0
  191.1820  176.5770  139.0270 C   0  0  0  0  0  0  0  0  0  0  0  0
  189.9950  174.7940  137.8070 N   0  0  0  0  0  2  0  0  0  0  0  0
  1 15  1  1  0  0  0
  2 19  1  6  0  0  0
  2  3  1  0  0  0  0
  2  1  1  0  0  0  0
  3  1  1  0  0  0  0
  4  7  2  0  0  0  0
  4  6  1  0  0  0  0
  5  1  1  0  0  0  0
  5  9  2  0  0  0  0
  6  8  2  0  0  0  0
  7  5  1  0  0  0  0
  8  9  1  0  0  0  0
  8 10  1  0  0  0  0
 10 11  1  1  0  0  0
 10 12  1  0  0  0  0
 12 13  1  0  0  0  0
 15 14  2  0  0  0  0
 15 16  1  0  0  0  0
 16 17  1  0  0  0  0
 17 18  1  0  0  0  0
 20 23  1  0  0  0  0
 21 25  1  0  0  0  0
 22 24  1  0  0  0  0
 24 29  1  0  0  0  0
 25 26  1  0  0  0  0
 25 20  2  0  0  0  0
 26 28  2  0  0  0  0
 27 21  1  0  0  0  0
 27 24  2  0  0  0  0
 28 23  1  0  0  0  0
 28 19  1  0  0  0  0
 29 26  1  0  0  0  0
M  END
>  <MODEL>
8

>  <REMARK>
 VINA RESULT:      -8.0      2.453      3.588
  Name = 
  8 active torsions:
  status: ('A' for Active; 'I' for Inactive)
    1  A    between atoms: C_1  and  C_17
    2  A    between atoms: C_1  and  C_26
    3  A    between atoms: N_2  and  C_28
    4  A    between atoms: C_4  and  C_9
    5  A    between atoms: C_4  and  C_25
    6  A    between atoms: C_6  and  S_16
    7  A    between atoms: S_16  and  C_20
    8  A    between atoms: C_25  and  C_28
                            x       y       z     vdW  Elec       q    Type
                         _______ _______ _______ _____ _____    ______ ____

>  <TORSDO>
F 8

$$$$
=
 OpenBabel11042410233D

 29 32  0  0  1  0  0  0  0  0999 V2000
  187.9380  178.0510  140.6220 C   0  0  2  0  0  0  0  0  0  0  0  0
  188.7600  177.1290  141.5280 C   0  0  1  0  0  3  0  0  0  0  0  0
  189.0180  178.6280  141.5190 C   0  0  0  0  0  2  0  0  0  0  0  0
  184.2660  178.9980  140.3700 C   0  0  0  0  0  3  0  0  0  0  0  0
  186.5260  178.4200  140.9900 C   0  0  0  0  0  0  0  0  0  0  0  0
  183.9100  178.9960  141.6830 N   0  0  0  0  0  0  0  0  0  0  0  0
  185.5780  178.7050  139.9990 C   0  0  0  0  0  3  0  0  0  0  0  0
  184.8060  178.7090  142.6660 C   0  0  0  0  0  0  0  0  0  0  0  0
  186.1310  178.4040  142.3310 C   0  0  0  0  0  3  0  0  0  0  0  0
  184.3570  178.7090  144.0910 C   0  0  2  0  0  3  0  0  0  0  0  0
  183.4550  179.7520  144.3120 O   0  0  0  0  0  1  0  0  0  0  0  0
  185.5500  178.8350  145.0260 C   0  0  0  0  0  2  0  0  0  0  0  0
  185.1370  178.5110  146.4490 C   0  0  0  0  0  1  0  0  0  0  0  0
  189.0550  179.0030  138.6520 C   0  0  0  0  0  2  0  0  0  0  0  0
  188.3030  178.0290  139.1670 C   0  0  0  0  0  0  0  0  0  0  0  0
  187.9260  176.8540  138.3210 C   0  0  0  0  0  2  0  0  0  0  0  0
  187.2620  177.3050  137.1090 N   0  0  0  0  0  2  0  0  0  0  0  0
  187.8530  176.5630  136.0100 C   0  0  0  0  0  1  0  0  0  0  0  0
  187.9350  176.6800  143.0930 S   0  0  0  0  0  0  0  0  0  0  0  0
  191.6890  175.9990  144.3570 C   0  0  0  0  0  3  0  0  0  0  0  0
  191.6100  176.6710  146.7880 C   0  0  0  0  0  3  0  0  0  0  0  0
  188.6030  177.9460  148.5020 N   0  0  0  0  0  1  0  0  0  0  0  0
  190.6820  176.0120  143.3810 C   0  0  0  0  0  3  0  0  0  0  0  0
  189.4390  177.4420  147.4670 C   0  0  0  0  0  0  0  0  0  0  0  0
  191.1080  176.4660  145.5160 C   0  0  0  0  0  0  0  0  0  0  0  0
  189.7440  176.7650  145.2570 C   0  0  0  0  0  0  0  0  0  0  0  0
  190.7550  177.1580  147.7360 N   0  0  0  0  0  0  0  0  0  0  0  0
  189.4960  176.4840  143.9430 C   0  0  0  0  0  0  0  0  0  0  0  0
  188.9210  177.2460  146.2160 N   0  0  0  0  0  2  0  0  0  0  0  0
  1 15  1  6  0  0  0
  1  5  1  0  0  0  0
  1  3  1  0  0  0  0
  1  2  1  0  0  0  0
  2 19  1  1  0  0  0
  3  2  1  0  0  0  0
  4  6  1  0  0  0  0
  5  9  2  0  0  0  0
  6  8  2  0  0  0  0
  7  4  2  0  0  0  0
  7  5  1  0  0  0  0
  8 10  1  0  0  0  0
  9  8  1  0  0  0  0
 10 11  1  6  0  0  0
 10 12  1  0  0  0  0
 12 13  1  0  0  0  0
 14 15  2  0  0  0  0
 16 15  1  0  0  0  0
 17 16  1  0  0  0  0
 18 17  1  0  0  0  0
 19 28  1  0  0  0  0
 20 25  1  0  0  0  0
 21 27  1  0  0  0  0
 23 28  1  0  0  0  0
 23 20  2  0  0  0  0
 24 27  2  0  0  0  0
 24 22  1  0  0  0  0
 25 21  2  0  0  0  0
 26 25  1  0  0  0  0
 26 29  1  0  0  0  0
 28 26  2  0  0  0  0
 29 24  1  0  0  0  0
M  END
>  <MODEL>
9

>  <REMARK>
 VINA RESULT:      -8.0      1.976      6.653
  Name = 
  8 active torsions:
  status: ('A' for Active; 'I' for Inactive)
    1  A    between atoms: C_1  and  C_17
    2  A    between atoms: C_1  and  C_26
    3  A    between atoms: N_2  and  C_28
    4  A    between atoms: C_4  and  C_9
    5  A    between atoms: C_4  and  C_25
    6  A    between atoms: C_6  and  S_16
    7  A    between atoms: S_16  and  C_20
    8  A    between atoms: C_25  and  C_28
                            x       y       z     vdW  Elec       q    Type
                         _______ _______ _______ _____ _____    ______ ____

>  <TORSDO>
F 8

$$$$
