=
 OpenBabel11032420203D

 32 37  0  0  1  0  0  0  0  0999 V2000
  188.3250  177.9770  140.5910 C   0  0  0  0  0  0  0  0  0  0  0  0
  189.5520  177.6460  140.8910 N   0  0  0  0  0  0  0  0  0  0  0  0
  183.1190  179.6410  144.2150 N   0  0  0  0  0  1  0  0  0  0  0  0
  186.4930  178.0570  143.9000 C   0  0  0  0  0  0  0  0  0  0  0  0
  186.6860  177.6440  145.2180 C   0  0  0  0  0  3  0  0  0  0  0  0
  185.6960  177.9010  146.1660 C   0  0  0  0  0  3  0  0  0  0  0  0
  186.1040  178.8900  141.2580 C   0  0  0  0  0  3  0  0  0  0  0  0
  187.4720  177.8080  142.9380 C   0  0  0  0  0  3  0  0  0  0  0  0
  187.2760  178.2050  141.6070 C   0  0  0  0  0  0  0  0  0  0  0  0
  185.1200  179.1460  142.2170 C   0  0  0  0  0  3  0  0  0  0  0  0
  184.3350  178.9670  144.5290 C   0  0  0  0  0  0  0  0  0  0  0  0
  185.3040  178.7290  143.5420 C   0  0  0  0  0  0  0  0  0  0  0  0
  184.5550  178.5490  145.8070 N   0  0  0  0  0  0  0  0  0  0  0  0
  188.8970  178.9400  136.9490 N   0  0  0  0  0  2  0  0  0  0  0  0
  188.6060  177.5770  136.5260 C   0  0  2  0  0  3  0  0  0  0  0  0
  189.1420  178.8770  138.3980 C   0  0  0  0  0  2  0  0  0  0  0  0
  187.0550  175.9850  136.2980 C   0  0  0  0  0  2  0  0  0  0  0  0
  187.9700  178.2100  139.1540 C   0  0  1  0  0  3  0  0  0  0  0  0
  188.5390  177.4280  135.0850 N   0  0  0  0  0  0  0  0  0  0  0  0
  187.6660  176.2650  134.9300 C   0  0  0  0  0  2  0  0  0  0  0  0
  189.8600  177.0240  134.6350 C   0  0  0  0  0  1  0  0  0  0  0  0
  187.5430  176.9000  138.4700 C   0  0  0  0  0  2  0  0  0  0  0  0
  187.3230  177.1810  137.0610 N   0  0  1  0  0  0  0  0  0  0  0  0
  190.0750  177.2790  142.1760 C   0  0  0  0  0  0  0  0  0  0  0  0
  191.6660  175.1470  144.4830 C   0  0  0  0  0  3  0  0  0  0  0  0
  192.0660  175.4410  145.7980 C   0  0  0  0  0  3  0  0  0  0  0  0
  190.2070  178.2760  143.3030 C   0  0  0  0  0  2  0  0  0  0  0  0
  190.5800  176.1050  142.4270 N   0  0  0  0  0  0  0  0  0  0  0  0
  191.8460  176.7310  146.3240 C   0  0  0  0  0  3  0  0  0  0  0  0
  191.2460  177.6970  145.5660 N   0  0  0  0  0  0  0  0  0  0  0  0
  191.0590  176.1650  143.7560 C   0  0  0  0  0  0  0  0  0  0  0  0
  190.8630  177.3990  144.2980 C   0  0  0  0  0  0  0  0  0  0  0  0
  1  2  2  0  0  0  0
  1  9  1  0  0  0  0
  2 24  1  0  0  0  0
  3 11  1  0  0  0  0
  4  5  2  0  0  0  0
  5  6  1  0  0  0  0
  7  9  1  0  0  0  0
  7 10  2  0  0  0  0
  8  4  1  0  0  0  0
  9  8  2  0  0  0  0
 10 12  1  0  0  0  0
 11 13  1  0  0  0  0
 12  4  1  0  0  0  0
 12 11  2  0  0  0  0
 13  6  2  0  0  0  0
 14 16  1  0  0  0  0
 15 14  1  6  0  0  0
 15 23  1  0  0  0  0
 16 18  1  0  0  0  0
 18  1  1  1  0  0  0
 19 15  1  0  0  0  0
 20 19  1  0  0  0  0
 20 17  1  0  0  0  0
 21 19  1  0  0  0  0
 22 18  1  0  0  0  0
 23 17  1  6  0  0  0
 23 22  1  0  0  0  0
 24 28  2  0  0  0  0
 24 27  1  0  0  0  0
 25 26  1  0  0  0  0
 26 29  2  0  0  0  0
 27 32  1  0  0  0  0
 28 31  1  0  0  0  0
 30 29  1  0  0  0  0
 31 32  1  0  0  0  0
 31 25  2  0  0  0  0
 32 30  2  0  0  0  0
M  END
>  <MODEL>
1

>  <REMARK>
 VINA RESULT:      -9.3      0.000      0.000
  Name = 
  3 active torsions:
  status: ('A' for Active; 'I' for Inactive)
    1  A    between atoms: C_5  and  N_32
    2  A    between atoms: C_12  and  C_16
    3  A    between atoms: C_16  and  C_17
                            x       y       z     vdW  Elec       q    Type
                         _______ _______ _______ _____ _____    ______ ____

>  <TORSDO>
F 3

$$$$
=
 OpenBabel11032420203D

 32 37  0  0  1  0  0  0  0  0999 V2000
  188.4390  177.9620  141.1700 C   0  0  0  0  0  0  0  0  0  0  0  0
  189.6710  177.5950  141.3950 N   0  0  0  0  0  0  0  0  0  0  0  0
  184.8460  178.2400  146.6490 N   0  0  0  0  0  1  0  0  0  0  0  0
  185.1640  178.6330  142.9420 C   0  0  0  0  0  0  0  0  0  0  0  0
  183.8620  179.0230  142.6310 C   0  0  0  0  0  3  0  0  0  0  0  0
  182.9230  179.1440  143.6550 C   0  0  0  0  0  3  0  0  0  0  0  0
  187.7750  177.8480  143.5690 C   0  0  0  0  0  3  0  0  0  0  0  0
  186.1180  178.5070  141.9310 C   0  0  0  0  0  3  0  0  0  0  0  0
  187.4340  178.1330  142.2410 C   0  0  0  0  0  0  0  0  0  0  0  0
  186.8250  177.9690  144.5870 C   0  0  0  0  0  3  0  0  0  0  0  0
  184.5380  178.5000  145.2810 C   0  0  0  0  0  0  0  0  0  0  0  0
  185.5160  178.3650  144.2840 C   0  0  0  0  0  0  0  0  0  0  0  0
  183.2760  178.8830  144.9430 N   0  0  0  0  0  0  0  0  0  0  0  0
  188.8980  179.0820  137.5570 N   0  0  0  0  0  2  0  0  0  0  0  0
  188.4860  177.7690  137.0800 C   0  0  2  0  0  3  0  0  0  0  0  0
  189.2100  178.9220  138.9850 C   0  0  0  0  0  2  0  0  0  0  0  0
  186.8120  176.3070  136.8540 C   0  0  0  0  0  2  0  0  0  0  0  0
  188.0300  178.2990  139.7680 C   0  0  1  0  0  3  0  0  0  0  0  0
  188.3360  177.7050  135.6390 N   0  0  0  0  0  0  0  0  0  0  0  0
  187.3730  176.6190  135.4710 C   0  0  0  0  0  2  0  0  0  0  0  0
  189.5990  177.2340  135.0980 C   0  0  0  0  0  1  0  0  0  0  0  0
  187.4740  177.0630  139.0410 C   0  0  0  0  0  2  0  0  0  0  0  0
  187.2060  177.4370  137.6620 N   0  0  1  0  0  0  0  0  0  0  0  0
  190.2390  177.1330  142.6300 C   0  0  0  0  0  0  0  0  0  0  0  0
  191.8280  174.7990  144.7350 C   0  0  0  0  0  3  0  0  0  0  0  0
  192.3110  175.0000  146.0390 C   0  0  0  0  0  3  0  0  0  0  0  0
  190.4840  178.0590  143.7980 C   0  0  0  0  0  2  0  0  0  0  0  0
  190.6920  175.9220  142.7930 N   0  0  0  0  0  0  0  0  0  0  0  0
  192.1890  176.2700  146.6420 C   0  0  0  0  0  3  0  0  0  0  0  0
  191.6050  177.3050  145.9680 N   0  0  0  0  0  0  0  0  0  0  0  0
  191.2410  175.8850  144.0940 C   0  0  0  0  0  0  0  0  0  0  0  0
  191.1410  177.0970  144.7100 C   0  0  0  0  0  0  0  0  0  0  0  0
  1  2  2  0  0  0  0
  1  9  1  0  0  0  0
  2 24  1  0  0  0  0
  4 12  1  0  0  0  0
  5  4  2  0  0  0  0
  5  6  1  0  0  0  0
  6 13  2  0  0  0  0
  7 10  2  0  0  0  0
  8  9  2  0  0  0  0
  8  4  1  0  0  0  0
  9  7  1  0  0  0  0
 11  3  1  0  0  0  0
 12 10  1  0  0  0  0
 12 11  2  0  0  0  0
 13 11  1  0  0  0  0
 14 16  1  0  0  0  0
 15 14  1  6  0  0  0
 15 23  1  0  0  0  0
 16 18  1  0  0  0  0
 18  1  1  1  0  0  0
 19 15  1  0  0  0  0
 20 19  1  0  0  0  0
 20 17  1  0  0  0  0
 21 19  1  0  0  0  0
 22 18  1  0  0  0  0
 23 17  1  6  0  0  0
 23 22  1  0  0  0  0
 24 28  2  0  0  0  0
 24 27  1  0  0  0  0
 25 26  1  0  0  0  0
 26 29  2  0  0  0  0
 27 32  1  0  0  0  0
 28 31  1  0  0  0  0
 30 29  1  0  0  0  0
 31 32  1  0  0  0  0
 31 25  2  0  0  0  0
 32 30  2  0  0  0  0
M  END
>  <MODEL>
2

>  <REMARK>
 VINA RESULT:      -8.8      0.749      1.585
  Name = 
  3 active torsions:
  status: ('A' for Active; 'I' for Inactive)
    1  A    between atoms: C_5  and  N_32
    2  A    between atoms: C_12  and  C_16
    3  A    between atoms: C_16  and  C_17
                            x       y       z     vdW  Elec       q    Type
                         _______ _______ _______ _____ _____    ______ ____

>  <TORSDO>
F 3

$$$$
=
 OpenBabel11032420203D

 32 37  0  0  1  0  0  0  0  0999 V2000
  189.2660  177.8410  141.3860 C   0  0  0  0  0  0  0  0  0  0  0  0
  187.9870  178.0490  141.2190 N   0  0  0  0  0  0  0  0  0  0  0  0
  191.6360  177.4770  147.4900 N   0  0  0  0  0  1  0  0  0  0  0  0
  191.1630  175.9940  144.0880 C   0  0  0  0  0  0  0  0  0  0  0  0
  191.8410  174.7870  144.2570 C   0  0  0  0  0  3  0  0  0  0  0  0
  192.4300  174.5030  145.4900 C   0  0  0  0  0  3  0  0  0  0  0  0
  189.8070  178.4170  143.7500 C   0  0  0  0  0  3  0  0  0  0  0  0
  190.5660  176.2950  142.8630 C   0  0  0  0  0  3  0  0  0  0  0  0
  189.8680  177.5000  142.6920 C   0  0  0  0  0  0  0  0  0  0  0  0
  190.4050  178.1240  144.9790 C   0  0  0  0  0  3  0  0  0  0  0  0
  191.6910  176.5830  146.3810 C   0  0  0  0  0  0  0  0  0  0  0  0
  191.0830  176.9110  145.1590 C   0  0  0  0  0  0  0  0  0  0  0  0
  192.3440  175.3950  146.5130 N   0  0  0  0  0  0  0  0  0  0  0  0
  192.3970  177.1410  139.3320 N   0  0  0  0  0  2  0  0  0  0  0  0
  191.6240  176.3370  138.3960 C   0  0  2  0  0  3  0  0  0  0  0  0
  191.5590  177.2970  140.5300 C   0  0  0  0  0  2  0  0  0  0  0  0
  190.0630  176.3220  136.7960 C   0  0  0  0  0  2  0  0  0  0  0  0
  190.1660  177.8780  140.1900 C   0  0  1  0  0  3  0  0  0  0  0  0
  192.3870  175.9170  137.2360 N   0  0  0  0  0  0  0  0  0  0  0  0
  191.3460  175.7260  136.2280 C   0  0  0  0  0  2  0  0  0  0  0  0
  192.9290  174.6030  137.5350 C   0  0  0  0  0  1  0  0  0  0  0  0
  189.5340  177.1390  138.9980 C   0  0  0  0  0  2  0  0  0  0  0  0
  190.5060  177.1180  137.9170 N   0  0  1  0  0  0  0  0  0  0  0  0
  186.9750  178.1620  142.2300 C   0  0  0  0  0  0  0  0  0  0  0  0
  185.6850  177.9050  145.4970 C   0  0  0  0  0  3  0  0  0  0  0  0
  184.4410  178.3520  145.9730 C   0  0  0  0  0  3  0  0  0  0  0  0
  185.6640  178.8680  141.9780 C   0  0  0  0  0  2  0  0  0  0  0  0
  187.1560  177.7750  143.4610 N   0  0  0  0  0  0  0  0  0  0  0  0
  183.5490  179.0030  145.0940 C   0  0  0  0  0  3  0  0  0  0  0  0
  183.8860  179.2010  143.7840 N   0  0  0  0  0  0  0  0  0  0  0  0
  185.9780  178.1300  144.1560 C   0  0  0  0  0  0  0  0  0  0  0  0
  185.0900  178.7620  143.3380 C   0  0  0  0  0  0  0  0  0  0  0  0
  1  9  1  0  0  0  0
  2  1  2  0  0  0  0
  2 24  1  0  0  0  0
  4  5  2  0  0  0  0
  4 12  1  0  0  0  0
  5  6  1  0  0  0  0
  6 13  2  0  0  0  0
  7 10  2  0  0  0  0
  8  4  1  0  0  0  0
  9  8  2  0  0  0  0
  9  7  1  0  0  0  0
 10 12  1  0  0  0  0
 11 13  1  0  0  0  0
 11  3  1  0  0  0  0
 12 11  2  0  0  0  0
 14 16  1  0  0  0  0
 15 14  1  1  0  0  0
 18 16  1  0  0  0  0
 18  1  1  1  0  0  0
 19 21  1  0  0  0  0
 19 15  1  0  0  0  0
 20 17  1  0  0  0  0
 20 19  1  0  0  0  0
 22 18  1  0  0  0  0
 23 17  1  6  0  0  0
 23 15  1  0  0  0  0
 23 22  1  0  0  0  0
 24 28  2  0  0  0  0
 25 26  1  0  0  0  0
 27 24  1  0  0  0  0
 27 32  1  0  0  0  0
 28 31  1  0  0  0  0
 29 26  2  0  0  0  0
 30 29  1  0  0  0  0
 31 25  2  0  0  0  0
 32 30  2  0  0  0  0
 32 31  1  0  0  0  0
M  END
>  <MODEL>
3

>  <REMARK>
 VINA RESULT:      -8.7      2.065      5.484
  Name = 
  3 active torsions:
  status: ('A' for Active; 'I' for Inactive)
    1  A    between atoms: C_5  and  N_32
    2  A    between atoms: C_12  and  C_16
    3  A    between atoms: C_16  and  C_17
                            x       y       z     vdW  Elec       q    Type
                         _______ _______ _______ _____ _____    ______ ____

>  <TORSDO>
F 3

$$$$
=
 OpenBabel11032420203D

 32 37  0  0  1  0  0  0  0  0999 V2000
  184.7310  178.5840  143.1740 C   0  0  0  0  0  0  0  0  0  0  0  0
  184.5400  178.4840  144.4620 N   0  0  0  0  0  0  0  0  0  0  0  0
  190.0370  178.0460  139.3570 N   0  0  0  0  0  1  0  0  0  0  0  0
  188.1570  177.1440  142.4630 C   0  0  0  0  0  0  0  0  0  0  0  0
  189.0690  176.2660  143.0480 C   0  0  0  0  0  3  0  0  0  0  0  0
  190.2750  176.0030  142.3980 C   0  0  0  0  0  3  0  0  0  0  0  0
  186.3270  178.9020  141.2850 C   0  0  0  0  0  3  0  0  0  0  0  0
  186.9450  177.4200  143.0990 C   0  0  0  0  0  3  0  0  0  0  0  0
  186.0310  178.3160  142.5230 C   0  0  0  0  0  0  0  0  0  0  0  0
  187.5360  178.6280  140.6410 C   0  0  0  0  0  3  0  0  0  0  0  0
  189.6870  177.4570  140.6070 C   0  0  0  0  0  0  0  0  0  0  0  0
  188.4610  177.7520  141.2250 C   0  0  0  0  0  0  0  0  0  0  0  0
  190.5550  176.5960  141.2060 N   0  0  0  0  0  0  0  0  0  0  0  0
  182.1730  178.0650  140.3990 N   0  0  0  0  0  2  0  0  0  0  0  0
  181.0920  178.0460  141.3750 C   0  0  2  0  0  3  0  0  0  0  0  0
  183.4170  177.8760  141.1590 C   0  0  0  0  0  2  0  0  0  0  0  0
  179.8840  179.2210  142.8430 C   0  0  0  0  0  2  0  0  0  0  0  0
  183.5650  178.9160  142.2940 C   0  0  1  0  0  3  0  0  0  0  0  0
  179.7750  178.0170  140.7700 N   0  0  0  0  0  0  0  0  0  0  0  0
  178.9400  178.6220  141.8060 C   0  0  0  0  0  2  0  0  0  0  0  0
  179.3800  176.6230  140.6720 C   0  0  0  0  0  1  0  0  0  0  0  0
  182.2680  179.0310  143.1120 C   0  0  0  0  0  2  0  0  0  0  0  0
  181.1690  179.2410  142.1840 N   0  0  1  0  0  0  0  0  0  0  0  0
  185.5270  178.2810  145.4840 C   0  0  0  0  0  0  0  0  0  0  0  0
  188.3500  176.7570  146.9370 C   0  0  0  0  0  3  0  0  0  0  0  0
  189.0260  177.1320  148.1100 C   0  0  0  0  0  3  0  0  0  0  0  0
  185.6820  179.2290  146.6490 C   0  0  0  0  0  2  0  0  0  0  0  0
  186.4300  177.3450  145.4210 N   0  0  0  0  0  0  0  0  0  0  0  0
  188.5850  178.2530  148.8440 C   0  0  0  0  0  3  0  0  0  0  0  0
  187.5040  178.9760  148.4240 N   0  0  0  0  0  0  0  0  0  0  0  0
  187.2560  177.5260  146.5540 C   0  0  0  0  0  0  0  0  0  0  0  0
  186.8580  178.6020  147.2900 C   0  0  0  0  0  0  0  0  0  0  0  0
  1  2  2  0  0  0  0
  2 24  1  0  0  0  0
  3 11  1  0  0  0  0
  4  5  1  0  0  0  0
  4  8  1  0  0  0  0
  6  5  2  0  0  0  0
  7  9  1  0  0  0  0
  9  8  2  0  0  0  0
  9  1  1  0  0  0  0
 10 12  1  0  0  0  0
 10  7  2  0  0  0  0
 11 13  2  0  0  0  0
 11 12  1  0  0  0  0
 12  4  2  0  0  0  0
 13  6  1  0  0  0  0
 14 16  1  0  0  0  0
 15 14  1  6  0  0  0
 15 23  1  0  0  0  0
 16 18  1  0  0  0  0
 18 22  1  0  0  0  0
 18  1  1  1  0  0  0
 19 15  1  0  0  0  0
 19 20  1  0  0  0  0
 20 17  1  0  0  0  0
 21 19  1  0  0  0  0
 23 17  1  1  0  0  0
 23 22  1  0  0  0  0
 24 27  1  0  0  0  0
 25 26  1  0  0  0  0
 26 29  2  0  0  0  0
 27 32  1  0  0  0  0
 28 24  2  0  0  0  0
 28 31  1  0  0  0  0
 30 29  1  0  0  0  0
 31 25  2  0  0  0  0
 31 32  1  0  0  0  0
 32 30  2  0  0  0  0
M  END
>  <MODEL>
4

>  <REMARK>
 VINA RESULT:      -8.6      2.882      6.541
  Name = 
  3 active torsions:
  status: ('A' for Active; 'I' for Inactive)
    1  A    between atoms: C_5  and  N_32
    2  A    between atoms: C_12  and  C_16
    3  A    between atoms: C_16  and  C_17
                            x       y       z     vdW  Elec       q    Type
                         _______ _______ _______ _____ _____    ______ ____

>  <TORSDO>
F 3

$$$$
=
 OpenBabel11032420203D

 32 37  0  0  1  0  0  0  0  0999 V2000
  190.3160  176.6510  138.3530 C   0  0  0  0  0  0  0  0  0  0  0  0
  190.3710  177.0570  139.5930 N   0  0  0  0  0  0  0  0  0  0  0  0
  185.0170  177.5380  134.5940 N   0  0  0  0  0  1  0  0  0  0  0  0
  186.9970  175.4540  136.9870 C   0  0  0  0  0  0  0  0  0  0  0  0
  186.1510  174.3510  137.0990 C   0  0  0  0  0  3  0  0  0  0  0  0
  184.9560  174.3320  136.3800 C   0  0  0  0  0  3  0  0  0  0  0  0
  188.6910  177.6690  136.7620 C   0  0  0  0  0  3  0  0  0  0  0  0
  188.1980  175.4910  137.6980 C   0  0  0  0  0  3  0  0  0  0  0  0
  189.0610  176.5900  137.5750 C   0  0  0  0  0  0  0  0  0  0  0  0
  187.4890  177.6410  136.0490 C   0  0  0  0  0  3  0  0  0  0  0  0
  185.4240  176.4720  135.4470 C   0  0  0  0  0  0  0  0  0  0  0  0
  186.6360  176.5350  136.1520 C   0  0  0  0  0  0  0  0  0  0  0  0
  184.6210  175.3800  135.5790 N   0  0  0  0  0  0  0  0  0  0  0  0
  194.0770  176.2150  137.9240 N   0  0  0  0  0  2  0  0  0  0  0  0
  193.9120  174.7740  137.7930 C   0  0  2  0  0  3  0  0  0  0  0  0
  192.8190  176.7230  138.4910 C   0  0  0  0  0  2  0  0  0  0  0  0
  193.1500  173.0900  136.5380 C   0  0  0  0  0  2  0  0  0  0  0  0
  191.5910  176.2940  137.6530 C   0  0  1  0  0  3  0  0  0  0  0  0
  195.1390  174.0880  137.4360 N   0  0  0  0  0  0  0  0  0  0  0  0
  194.6440  172.8850  136.7710 C   0  0  0  0  0  2  0  0  0  0  0  0
  195.7640  173.6570  138.6740 C   0  0  0  0  0  1  0  0  0  0  0  0
  191.6430  174.7930  137.3240 C   0  0  0  0  0  2  0  0  0  0  0  0
  192.9470  174.5030  136.7520 N   0  0  1  0  0  0  0  0  0  0  0  0
  189.2740  177.3440  140.4740 C   0  0  0  0  0  0  0  0  0  0  0  0
  187.4940  177.1920  143.5080 C   0  0  0  0  0  3  0  0  0  0  0  0
  186.3300  177.8940  143.8630 C   0  0  0  0  0  3  0  0  0  0  0  0
  188.2120  178.3600  140.1280 C   0  0  0  0  0  2  0  0  0  0  0  0
  189.1790  176.8460  141.6730 N   0  0  0  0  0  0  0  0  0  0  0  0
  185.7500  178.7970  142.9470 C   0  0  0  0  0  3  0  0  0  0  0  0
  186.3120  178.9930  141.7160 N   0  0  0  0  0  0  0  0  0  0  0  0
  188.0240  177.4280  142.2450 C   0  0  0  0  0  0  0  0  0  0  0  0
  187.4360  178.3070  141.3860 C   0  0  0  0  0  0  0  0  0  0  0  0
  1  2  2  0  0  0  0
  2 24  1  0  0  0  0
  3 11  1  0  0  0  0
  4  5  1  0  0  0  0
  4  8  1  0  0  0  0
  6  5  2  0  0  0  0
  7  9  1  0  0  0  0
  9  8  2  0  0  0  0
  9  1  1  0  0  0  0
 10 12  1  0  0  0  0
 10  7  2  0  0  0  0
 11 13  2  0  0  0  0
 11 12  1  0  0  0  0
 12  4  2  0  0  0  0
 13  6  1  0  0  0  0
 14 16  1  0  0  0  0
 15 14  1  6  0  0  0
 17 20  1  0  0  0  0
 18  1  1  1  0  0  0
 18 16  1  0  0  0  0
 19 15  1  0  0  0  0
 19 21  1  0  0  0  0
 20 19  1  0  0  0  0
 22 18  1  0  0  0  0
 23 17  1  1  0  0  0
 23 22  1  0  0  0  0
 23 15  1  0  0  0  0
 24 28  2  0  0  0  0
 25 26  1  0  0  0  0
 27 24  1  0  0  0  0
 27 32  1  0  0  0  0
 28 31  1  0  0  0  0
 29 26  2  0  0  0  0
 30 29  1  0  0  0  0
 31 25  2  0  0  0  0
 32 30  2  0  0  0  0
 32 31  1  0  0  0  0
M  END
>  <MODEL>
5

>  <REMARK>
 VINA RESULT:      -8.6      3.494      6.537
  Name = 
  3 active torsions:
  status: ('A' for Active; 'I' for Inactive)
    1  A    between atoms: C_5  and  N_32
    2  A    between atoms: C_12  and  C_16
    3  A    between atoms: C_16  and  C_17
                            x       y       z     vdW  Elec       q    Type
                         _______ _______ _______ _____ _____    ______ ____

>  <TORSDO>
F 3

$$$$
=
 OpenBabel11032420203D

 32 37  0  0  1  0  0  0  0  0999 V2000
  186.6950  178.4510  140.3390 C   0  0  0  0  0  0  0  0  0  0  0  0
  185.7330  178.4830  139.4560 N   0  0  0  0  0  0  0  0  0  0  0  0
  184.6700  178.9710  146.5540 N   0  0  0  0  0  1  0  0  0  0  0  0
  187.1930  177.8320  144.0380 C   0  0  0  0  0  0  0  0  0  0  0  0
  188.1320  177.2500  144.8880 C   0  0  0  0  0  3  0  0  0  0  0  0
  187.9000  177.2520  146.2640 C   0  0  0  0  0  3  0  0  0  0  0  0
  185.3080  179.0040  142.3340 C   0  0  0  0  0  3  0  0  0  0  0  0
  187.4060  177.8390  142.6580 C   0  0  0  0  0  3  0  0  0  0  0  0
  186.4560  178.4080  141.7970 C   0  0  0  0  0  0  0  0  0  0  0  0
  185.0880  179.0040  143.7140 C   0  0  0  0  0  3  0  0  0  0  0  0
  185.8330  178.3950  145.9660 C   0  0  0  0  0  0  0  0  0  0  0  0
  186.0240  178.4160  144.5750 C   0  0  0  0  0  0  0  0  0  0  0  0
  186.7700  177.8170  146.7680 N   0  0  0  0  0  0  0  0  0  0  0  0
  190.2250  177.0530  140.0260 N   0  0  0  0  0  2  0  0  0  0  0  0
  190.0130  176.7870  138.6100 C   0  0  2  0  0  3  0  0  0  0  0  0
  188.8930  177.2740  140.6080 C   0  0  0  0  0  2  0  0  0  0  0  0
  189.7260  177.6550  136.5710 C   0  0  0  0  0  2  0  0  0  0  0  0
  188.1130  178.3810  139.8600 C   0  0  1  0  0  3  0  0  0  0  0  0
  191.2130  176.3450  137.9250 N   0  0  0  0  0  0  0  0  0  0  0  0
  190.9520  176.7480  136.5440 C   0  0  0  0  0  2  0  0  0  0  0  0
  191.2080  174.8930  137.9470 C   0  0  0  0  0  1  0  0  0  0  0  0
  188.1740  178.1700  138.3380 C   0  0  0  0  0  2  0  0  0  0  0  0
  189.5690  178.0010  137.9650 N   0  0  1  0  0  0  0  0  0  0  0  0
  184.3280  178.6550  139.6920 C   0  0  0  0  0  0  0  0  0  0  0  0
  181.2540  180.3680  139.5530 C   0  0  0  0  0  3  0  0  0  0  0  0
  179.9830  179.8920  139.9140 C   0  0  0  0  0  3  0  0  0  0  0  0
  183.4530  177.5270  140.1860 C   0  0  0  0  0  2  0  0  0  0  0  0
  183.6860  179.7460  139.3880 N   0  0  0  0  0  0  0  0  0  0  0  0
  179.8390  178.5710  140.3900 C   0  0  0  0  0  3  0  0  0  0  0  0
  180.9270  177.7520  140.5030 N   0  0  0  0  0  0  0  0  0  0  0  0
  182.3280  179.4940  139.6880 C   0  0  0  0  0  0  0  0  0  0  0  0
  182.1500  178.2260  140.1530 C   0  0  0  0  0  0  0  0  0  0  0  0
  1  9  1  0  0  0  0
  2 24  1  0  0  0  0
  2  1  2  0  0  0  0
  4 12  1  0  0  0  0
  4  5  2  0  0  0  0
  5  6  1  0  0  0  0
  6 13  2  0  0  0  0
  7 10  2  0  0  0  0
  8  4  1  0  0  0  0
  9  7  1  0  0  0  0
  9  8  2  0  0  0  0
 10 12  1  0  0  0  0
 11  3  1  0  0  0  0
 11 13  1  0  0  0  0
 12 11  2  0  0  0  0
 14 16  1  0  0  0  0
 15 14  1  1  0  0  0
 18  1  1  1  0  0  0
 18 16  1  0  0  0  0
 19 21  1  0  0  0  0
 19 15  1  0  0  0  0
 20 17  1  0  0  0  0
 20 19  1  0  0  0  0
 22 18  1  0  0  0  0
 23 17  1  6  0  0  0
 23 22  1  0  0  0  0
 23 15  1  0  0  0  0
 24 27  1  0  0  0  0
 25 31  2  0  0  0  0
 25 26  1  0  0  0  0
 26 29  2  0  0  0  0
 28 31  1  0  0  0  0
 28 24  2  0  0  0  0
 29 30  1  0  0  0  0
 31 32  1  0  0  0  0
 32 27  1  0  0  0  0
 32 30  2  0  0  0  0
M  END
>  <MODEL>
6

>  <REMARK>
 VINA RESULT:      -8.5      2.790      6.098
  Name = 
  3 active torsions:
  status: ('A' for Active; 'I' for Inactive)
    1  A    between atoms: C_5  and  N_32
    2  A    between atoms: C_12  and  C_16
    3  A    between atoms: C_16  and  C_17
                            x       y       z     vdW  Elec       q    Type
                         _______ _______ _______ _____ _____    ______ ____

>  <TORSDO>
F 3

$$$$
=
 OpenBabel11032420203D

 32 37  0  0  1  0  0  0  0  0999 V2000
  189.8850  177.4940  141.6400 C   0  0  0  0  0  0  0  0  0  0  0  0
  190.2340  177.2270  140.4100 N   0  0  0  0  0  0  0  0  0  0  0  0
  183.5990  179.2350  142.3140 N   0  0  0  0  0  1  0  0  0  0  0  0
  186.7730  177.8780  143.7560 C   0  0  0  0  0  0  0  0  0  0  0  0
  186.3630  177.6590  145.0710 C   0  0  0  0  0  3  0  0  0  0  0  0
  185.0520  177.9660  145.4370 C   0  0  0  0  0  3  0  0  0  0  0  0
  187.5920  178.3200  141.1180 C   0  0  0  0  0  3  0  0  0  0  0  0
  188.0790  177.5760  143.3700 C   0  0  0  0  0  3  0  0  0  0  0  0
  188.4920  177.7770  142.0450 C   0  0  0  0  0  0  0  0  0  0  0  0
  186.2830  178.6280  141.4970 C   0  0  0  0  0  3  0  0  0  0  0  0
  184.5530  178.7000  143.2280 C   0  0  0  0  0  0  0  0  0  0  0  0
  185.8620  178.4060  142.8150 C   0  0  0  0  0  0  0  0  0  0  0  0
  184.1850  178.4740  144.5200 N   0  0  0  0  0  0  0  0  0  0  0  0
  191.5320  178.3380  144.9710 N   0  0  0  0  0  2  0  0  0  0  0  0
  191.3940  176.9560  145.4090 C   0  0  2  0  0  3  0  0  0  0  0  0
  190.6390  178.4940  143.8130 C   0  0  0  0  0  2  0  0  0  0  0  0
  192.0550  174.8390  145.1400 C   0  0  0  0  0  2  0  0  0  0  0  0
  190.9280  177.4440  142.7140 C   0  0  1  0  0  3  0  0  0  0  0  0
  192.0560  176.6870  146.6700 N   0  0  0  0  0  0  0  0  0  0  0  0
  192.3310  175.2540  146.5810 C   0  0  0  0  0  2  0  0  0  0  0  0
  191.0650  176.8600  147.7180 C   0  0  0  0  0  1  0  0  0  0  0  0
  191.0400  176.0320  143.3130 C   0  0  0  0  0  2  0  0  0  0  0  0
  191.9850  176.0870  144.4170 N   0  0  1  0  0  0  0  0  0  0  0  0
  189.4260  177.3190  139.2270 C   0  0  0  0  0  0  0  0  0  0  0  0
  187.1850  176.1160  136.7920 C   0  0  0  0  0  3  0  0  0  0  0  0
  186.5610  176.8370  135.7600 C   0  0  0  0  0  3  0  0  0  0  0  0
  189.1750  178.6330  138.5270 C   0  0  0  0  0  2  0  0  0  0  0  0
  188.7590  176.3100  138.7440 N   0  0  0  0  0  0  0  0  0  0  0  0
  186.8050  178.2200  135.6270 C   0  0  0  0  0  3  0  0  0  0  0  0
  187.6450  178.8630  136.4930 N   0  0  0  0  0  0  0  0  0  0  0  0
  188.0300  176.8180  137.6440 C   0  0  0  0  0  0  0  0  0  0  0  0
  188.2430  178.1540  137.4830 C   0  0  0  0  0  0  0  0  0  0  0  0
  1  9  1  0  0  0  0
  2  1  2  0  0  0  0
  3 11  1  0  0  0  0
  4  5  2  0  0  0  0
  5  6  1  0  0  0  0
  7 10  2  0  0  0  0
  7  9  1  0  0  0  0
  8  4  1  0  0  0  0
  9  8  2  0  0  0  0
 10 12  1  0  0  0  0
 11 13  1  0  0  0  0
 12 11  2  0  0  0  0
 12  4  1  0  0  0  0
 13  6  2  0  0  0  0
 15 14  1  6  0  0  0
 15 19  1  0  0  0  0
 16 14  1  0  0  0  0
 17 20  1  0  0  0  0
 18  1  1  6  0  0  0
 18 22  1  0  0  0  0
 18 16  1  0  0  0  0
 19 21  1  0  0  0  0
 20 19  1  0  0  0  0
 23 22  1  6  0  0  0
 23 17  1  0  0  0  0
 23 15  1  0  0  0  0
 24  2  1  0  0  0  0
 25 31  1  0  0  0  0
 26 25  2  0  0  0  0
 27 24  1  0  0  0  0
 28 24  2  0  0  0  0
 29 26  1  0  0  0  0
 29 30  2  0  0  0  0
 30 32  1  0  0  0  0
 31 28  1  0  0  0  0
 32 31  2  0  0  0  0
 32 27  1  0  0  0  0
M  END
>  <MODEL>
7

>  <REMARK>
 VINA RESULT:      -8.4      1.279      6.922
  Name = 
  3 active torsions:
  status: ('A' for Active; 'I' for Inactive)
    1  A    between atoms: C_5  and  N_32
    2  A    between atoms: C_12  and  C_16
    3  A    between atoms: C_16  and  C_17
                            x       y       z     vdW  Elec       q    Type
                         _______ _______ _______ _____ _____    ______ ____

>  <TORSDO>
F 3

$$$$
=
 OpenBabel11032420203D

 32 37  0  0  1  0  0  0  0  0999 V2000
  185.7630  178.6280  140.5900 C   0  0  0  0  0  0  0  0  0  0  0  0
  186.4770  178.5020  139.5040 N   0  0  0  0  0  0  0  0  0  0  0  0
  188.9930  176.8370  146.0090 N   0  0  0  0  0  1  0  0  0  0  0  0
  186.0400  178.4350  144.3580 C   0  0  0  0  0  0  0  0  0  0  0  0
  185.3080  178.8050  145.4860 C   0  0  0  0  0  3  0  0  0  0  0  0
  185.8130  178.5140  146.7530 C   0  0  0  0  0  3  0  0  0  0  0  0
  187.5120  177.6900  142.0980 C   0  0  0  0  0  3  0  0  0  0  0  0
  185.5520  178.7180  143.0820 C   0  0  0  0  0  3  0  0  0  0  0  0
  186.2930  178.3650  141.9440 C   0  0  0  0  0  0  0  0  0  0  0  0
  188.0070  177.4010  143.3730 C   0  0  0  0  0  3  0  0  0  0  0  0
  187.7490  177.5030  145.8060 C   0  0  0  0  0  0  0  0  0  0  0  0
  187.2790  177.7740  144.5110 C   0  0  0  0  0  0  0  0  0  0  0  0
  187.0080  177.8780  146.8850 N   0  0  0  0  0  0  0  0  0  0  0  0
  182.6980  180.1120  138.8800 N   0  0  0  0  0  2  0  0  0  0  0  0
  181.9560  178.8790  139.1010 C   0  0  2  0  0  3  0  0  0  0  0  0
  184.1160  179.7840  139.0940 C   0  0  0  0  0  2  0  0  0  0  0  0
  180.9880  177.5250  140.5930 C   0  0  0  0  0  2  0  0  0  0  0  0
  184.3570  179.1330  140.4760 C   0  0  1  0  0  3  0  0  0  0  0  0
  180.5580  178.9780  138.7330 N   0  0  0  0  0  0  0  0  0  0  0  0
  179.9370  177.9600  139.5780 C   0  0  0  0  0  2  0  0  0  0  0  0
  180.4420  178.5130  137.3620 C   0  0  0  0  0  1  0  0  0  0  0  0
  183.3410  178.0090  140.7440 C   0  0  0  0  0  2  0  0  0  0  0  0
  182.0100  178.5420  140.5060 N   0  0  1  0  0  0  0  0  0  0  0  0
  187.7930  177.9440  139.3770 C   0  0  0  0  0  0  0  0  0  0  0  0
  190.2030  175.7100  138.1110 C   0  0  0  0  0  3  0  0  0  0  0  0
  191.5940  175.7360  138.3100 C   0  0  0  0  0  3  0  0  0  0  0  0
  189.0100  178.6150  139.9670 C   0  0  0  0  0  2  0  0  0  0  0  0
  188.0510  176.8940  138.6510 N   0  0  0  0  0  0  0  0  0  0  0  0
  192.1700  176.7580  139.0930 C   0  0  0  0  0  3  0  0  0  0  0  0
  191.3860  177.7230  139.6600 N   0  0  0  0  0  0  0  0  0  0  0  0
  189.4520  176.7140  138.7110 C   0  0  0  0  0  0  0  0  0  0  0  0
  190.0440  177.6850  139.4620 C   0  0  0  0  0  0  0  0  0  0  0  0
  1  9  1  0  0  0  0
  2  1  2  0  0  0  0
  4 12  1  0  0  0  0
  4  5  2  0  0  0  0
  5  6  1  0  0  0  0
  6 13  2  0  0  0  0
  7 10  2  0  0  0  0
  8  4  1  0  0  0  0
  9  7  1  0  0  0  0
  9  8  2  0  0  0  0
 10 12  1  0  0  0  0
 11  3  1  0  0  0  0
 11 13  1  0  0  0  0
 12 11  2  0  0  0  0
 14 16  1  0  0  0  0
 15 14  1  1  0  0  0
 15 23  1  0  0  0  0
 16 18  1  0  0  0  0
 18  1  1  6  0  0  0
 18 22  1  0  0  0  0
 19 15  1  0  0  0  0
 19 20  1  0  0  0  0
 20 17  1  0  0  0  0
 21 19  1  0  0  0  0
 23 17  1  6  0  0  0
 23 22  1  0  0  0  0
 24  2  1  0  0  0  0
 24 27  1  0  0  0  0
 25 26  2  0  0  0  0
 25 31  1  0  0  0  0
 26 29  1  0  0  0  0
 28 31  1  0  0  0  0
 28 24  2  0  0  0  0
 29 30  2  0  0  0  0
 31 32  2  0  0  0  0
 32 30  1  0  0  0  0
 32 27  1  0  0  0  0
M  END
>  <MODEL>
8

>  <REMARK>
 VINA RESULT:      -8.3      3.111      5.394
  Name = 
  3 active torsions:
  status: ('A' for Active; 'I' for Inactive)
    1  A    between atoms: C_5  and  N_32
    2  A    between atoms: C_12  and  C_16
    3  A    between atoms: C_16  and  C_17
                            x       y       z     vdW  Elec       q    Type
                         _______ _______ _______ _____ _____    ______ ____

>  <TORSDO>
F 3

$$$$
=
 OpenBabel11032420203D

 32 37  0  0  1  0  0  0  0  0999 V2000
  187.1200  178.3830  140.9730 C   0  0  0  0  0  0  0  0  0  0  0  0
  187.5220  178.1770  139.7480 N   0  0  0  0  0  0  0  0  0  0  0  0
  189.6410  176.3670  146.6820 N   0  0  0  0  0  1  0  0  0  0  0  0
  189.9900  178.1830  143.4300 C   0  0  0  0  0  0  0  0  0  0  0  0
  191.3080  178.6260  143.5440 C   0  0  0  0  0  3  0  0  0  0  0  0
  192.0370  178.3090  144.6910 C   0  0  0  0  0  3  0  0  0  0  0  0
  187.3470  177.2960  143.2040 C   0  0  0  0  0  3  0  0  0  0  0  0
  189.2460  178.4890  142.2900 C   0  0  0  0  0  3  0  0  0  0  0  0
  187.9260  178.0310  142.1610 C   0  0  0  0  0  0  0  0  0  0  0  0
  188.0850  176.9870  144.3500 C   0  0  0  0  0  3  0  0  0  0  0  0
  190.1830  177.1290  145.6060 C   0  0  0  0  0  0  0  0  0  0  0  0
  189.4110  177.4240  144.4710 C   0  0  0  0  0  0  0  0  0  0  0  0
  191.4660  177.5770  145.6850 N   0  0  0  0  0  0  0  0  0  0  0  0
  183.5420  179.4480  140.2120 N   0  0  0  0  0  2  0  0  0  0  0  0
  183.0610  178.7300  141.3850 C   0  0  2  0  0  3  0  0  0  0  0  0
  184.9000  178.9480  139.9530 C   0  0  0  0  0  2  0  0  0  0  0  0
  183.0010  178.6300  143.6160 C   0  0  0  0  0  2  0  0  0  0  0  0
  185.8110  179.0750  141.1970 C   0  0  1  0  0  3  0  0  0  0  0  0
  181.6550  178.9570  141.6570 N   0  0  0  0  0  0  0  0  0  0  0  0
  181.5700  178.7120  143.0960 C   0  0  0  0  0  2  0  0  0  0  0  0
  180.9150  177.8900  141.0050 C   0  0  0  0  0  1  0  0  0  0  0  0
  185.1070  178.5390  142.4550 C   0  0  0  0  0  2  0  0  0  0  0  0
  183.8020  179.1720  142.5440 N   0  0  1  0  0  0  0  0  0  0  0  0
  188.6790  177.4470  139.3130 C   0  0  0  0  0  0  0  0  0  0  0  0
  190.3770  174.9020  137.5700 C   0  0  0  0  0  3  0  0  0  0  0  0
  191.7640  174.7430  137.4070 C   0  0  0  0  0  3  0  0  0  0  0  0
  190.0820  177.9550  139.5460 C   0  0  0  0  0  2  0  0  0  0  0  0
  188.6050  176.3670  138.5900 N   0  0  0  0  0  0  0  0  0  0  0  0
  192.6470  175.6860  137.9740 C   0  0  0  0  0  3  0  0  0  0  0  0
  192.1650  176.7510  138.6810 N   0  0  0  0  0  0  0  0  0  0  0  0
  189.9400  176.0020  138.2990 C   0  0  0  0  0  0  0  0  0  0  0  0
  190.8240  176.8910  138.8330 C   0  0  0  0  0  0  0  0  0  0  0  0
  1  9  1  0  0  0  0
  2  1  2  0  0  0  0
  4  5  2  0  0  0  0
  4 12  1  0  0  0  0
  5  6  1  0  0  0  0
  6 13  2  0  0  0  0
  7 10  2  0  0  0  0
  8  4  1  0  0  0  0
  9  8  2  0  0  0  0
  9  7  1  0  0  0  0
 10 12  1  0  0  0  0
 11 13  1  0  0  0  0
 11  3  1  0  0  0  0
 12 11  2  0  0  0  0
 15 14  1  6  0  0  0
 15 19  1  0  0  0  0
 15 23  1  0  0  0  0
 16 14  1  0  0  0  0
 16 18  1  0  0  0  0
 18  1  1  6  0  0  0
 18 22  1  0  0  0  0
 19 20  1  0  0  0  0
 20 17  1  0  0  0  0
 21 19  1  0  0  0  0
 23 22  1  6  0  0  0
 23 17  1  0  0  0  0
 24 27  1  0  0  0  0
 24  2  1  0  0  0  0
 25 31  1  0  0  0  0
 26 25  2  0  0  0  0
 26 29  1  0  0  0  0
 28 24  2  0  0  0  0
 29 30  2  0  0  0  0
 30 32  1  0  0  0  0
 31 28  1  0  0  0  0
 31 32  2  0  0  0  0
 32 27  1  0  0  0  0
M  END
>  <MODEL>
9

>  <REMARK>
 VINA RESULT:      -8.3      2.375      6.193
  Name = 
  3 active torsions:
  status: ('A' for Active; 'I' for Inactive)
    1  A    between atoms: C_5  and  N_32
    2  A    between atoms: C_12  and  C_16
    3  A    between atoms: C_16  and  C_17
                            x       y       z     vdW  Elec       q    Type
                         _______ _______ _______ _____ _____    ______ ____

>  <TORSDO>
F 3

$$$$
