=
 OpenBabel11042411533D

 35 41  0  0  1  0  0  0  0  0999 V2000
  190.1680  177.1560  141.3740 C   0  0  1  0  0  3  0  0  0  0  0  0
  190.4510  177.6940  140.0110 C   0  0  1  0  0  3  0  0  0  0  0  0
  192.4290  177.3790  141.3000 N   0  0  0  0  0  0  0  0  0  0  0  0
  191.2900  177.0180  142.0600 C   0  0  0  0  0  0  0  0  0  0  0  0
  191.9820  177.7970  139.9790 C   0  0  0  0  0  2  0  0  0  0  0  0
  189.9790  178.1200  145.2200 C   0  0  0  0  0  3  0  0  0  0  0  0
  191.1850  175.9770  146.8110 C   0  0  0  0  0  3  0  0  0  0  0  0
  191.3820  176.6580  143.4390 N   0  0  0  0  0  0  0  0  0  0  0  0
  190.3550  176.9680  147.3940 C   0  0  0  0  0  2  0  0  0  0  0  0
  191.3700  176.1130  145.4490 C   0  0  0  0  0  0  0  0  0  0  0  0
  189.7670  178.0150  146.6170 C   0  0  0  0  0  3  0  0  0  0  0  0
  190.7940  177.1380  144.6880 C   0  0  1  0  0  0  0  0  0  0  0  0
  191.9520  175.6330  144.2350 C   0  0  2  0  0  3  0  0  0  0  0  0
  188.6350  176.9740  138.4560 C   0  0  0  0  0  3  0  0  0  0  0  0
  190.7050  175.7220  138.4380 C   0  0  0  0  0  3  0  0  0  0  0  0
  189.9330  176.7810  138.9380 C   0  0  0  0  0  0  0  0  0  0  0  0
  188.8890  175.0700  136.9670 C   0  0  0  0  0  0  0  0  0  0  0  0
  190.1850  174.8740  137.4550 C   0  0  0  0  0  3  0  0  0  0  0  0
  188.1140  176.1250  137.4750 C   0  0  0  0  0  3  0  0  0  0  0  0
  188.4020  174.2130  135.9770 O   0  0  0  0  0  0  0  0  0  0  0  0
  187.0760  173.6990  135.9920 C   0  0  0  0  0  2  0  0  0  0  0  0
  186.9210  172.7500  137.1260 C   0  0  0  0  0  0  0  0  0  0  0  0
  185.8470  172.8790  137.9950 O   0  0  0  0  0  1  0  0  0  0  0  0
  187.7430  171.8080  137.2790 O   0  0  0  0  0  0  0  0  0  0  0  0
  188.6400  175.7980  142.6800 O   0  0  0  0  0  0  0  0  0  0  0  0
  187.1480  177.5470  143.0490 C   0  0  0  0  0  0  0  0  0  0  0  0
  187.6200  176.2330  143.5620 C   0  0  0  0  0  2  0  0  0  0  0  0
  187.9110  177.8980  142.0550 C   0  0  0  0  0  3  0  0  0  0  0  0
  188.8500  176.8620  141.8540 N   0  0  0  0  0  0  0  0  0  0  0  0
  183.6440  178.9430  143.3920 N   0  0  0  0  0  0  0  0  0  0  0  0
  184.5980  178.8260  145.5970 C   0  0  0  0  0  2  0  0  0  0  0  0
  186.0200  178.3790  143.5840 C   0  0  2  0  0  3  0  0  0  0  0  0
  185.7670  178.0490  145.0590 C   0  0  0  0  0  2  0  0  0  0  0  0
  184.7260  178.1610  142.7970 C   0  0  0  0  0  2  0  0  0  0  0  0
  183.5980  179.2120  144.7990 C   0  0  0  0  0  3  0  0  0  0  0  0
  1 29  1  1  0  0  0
  1  4  1  0  0  0  0
  2 16  1  6  0  0  0
  2  1  1  0  0  0  0
  3  4  2  0  0  0  0
  4  8  1  0  0  0  0
  5  2  1  0  0  0  0
  5  3  1  0  0  0  0
  6 11  2  0  0  0  0
  7  9  1  0  0  0  0
  8 13  1  0  0  0  0
  8 12  1  0  0  0  0
 10  7  2  0  0  0  0
 11  9  1  0  0  0  0
 12  6  1  6  0  0  0
 12 10  1  0  0  0  0
 13 12  1  0  0  0  0
 13 10  1  6  0  0  0
 14 16  1  0  0  0  0
 15 16  2  0  0  0  0
 17 18  2  0  0  0  0
 17 19  1  0  0  0  0
 18 15  1  0  0  0  0
 19 14  2  0  0  0  0
 20 21  1  0  0  0  0
 20 17  1  0  0  0  0
 21 22  1  0  0  0  0
 22 24  2  0  0  0  0
 22 23  1  0  0  0  0
 25 27  1  0  0  0  0
 26 27  1  0  0  0  0
 28 26  2  0  0  0  0
 29 28  1  0  0  0  0
 29 25  1  0  0  0  0
 30 35  2  0  0  0  0
 32 26  1  6  0  0  0
 32 33  1  0  0  0  0
 33 31  1  0  0  0  0
 34 30  1  0  0  0  0
 34 32  1  0  0  0  0
 35 31  1  0  0  0  0
M  END
>  <MODEL>
1

>  <REMARK>
 VINA RESULT:      -8.5      0.000      0.000
  Name = 
  7 active torsions:
  status: ('A' for Active; 'I' for Inactive)
    1  A    between atoms: C_3  and  N_26
    2  A    between atoms: N_5  and  C_33
    3  A    between atoms: C_6  and  C_19
    4  A    between atoms: C_10  and  C_12
    5  A    between atoms: O_13  and  C_24
    6  A    between atoms: O_13  and  C_27
    7  A    between atoms: C_25  and  C_27
                            x       y       z     vdW  Elec       q    Type
                         _______ _______ _______ _____ _____    ______ ____

>  <TORSDO>
F 7

$$$$
=
 OpenBabel11042411533D

 35 41  0  0  1  0  0  0  0  0999 V2000
  182.4560  178.3710  141.0710 C   0  0  0  0  0  0  0  0  0  0  0  0
  181.0350  178.7210  140.7800 C   0  0  1  0  0  3  0  0  0  0  0  0
  181.7620  179.5300  142.8990 N   0  0  0  0  0  0  0  0  0  0  0  0
  182.8090  178.8200  142.2640 C   0  0  0  0  0  0  0  0  0  0  0  0
  180.6080  179.5320  142.0110 C   0  0  0  0  0  3  0  0  0  0  0  0
  184.1150  178.7280  145.6110 C   0  0  0  0  0  3  0  0  0  0  0  0
  186.7840  177.7760  144.8680 C   0  0  0  0  0  3  0  0  0  0  0  0
  184.0490  178.5500  142.9210 N   0  0  0  0  0  0  0  0  0  0  0  0
  186.4150  177.9960  146.2200 C   0  0  0  0  0  2  0  0  0  0  0  0
  185.7880  178.0470  143.9510 C   0  0  0  0  0  0  0  0  0  0  0  0
  185.1120  178.4610  146.5830 C   0  0  0  0  0  3  0  0  0  0  0  0
  184.5110  178.5030  144.3060 C   0  0  1  0  0  0  0  0  0  0  0  0
  185.3470  178.0880  142.5920 C   0  0  1  0  0  3  0  0  0  0  0  0
  181.4590  180.8080  139.4770 C   0  0  0  0  0  3  0  0  0  0  0  0
  180.2290  179.0270  138.3950 C   0  0  0  0  0  3  0  0  0  0  0  0
  180.9110  179.5220  139.5170 C   0  0  0  0  0  0  0  0  0  0  0  0
  180.6650  181.0910  137.1970 C   0  0  0  0  0  0  0  0  0  0  0  0
  180.1110  179.8070  137.2410 C   0  0  0  0  0  3  0  0  0  0  0  0
  181.3390  181.5890  138.3230 C   0  0  0  0  0  3  0  0  0  0  0  0
  180.5400  181.8430  136.0260 O   0  0  0  0  0  0  0  0  0  0  0  0
  179.8270  183.0720  135.9760 C   0  0  0  0  0  2  0  0  0  0  0  0
  180.7730  184.1890  135.7150 C   0  0  0  0  0  0  0  0  0  0  0  0
  181.6750  184.5740  136.6960 O   0  0  0  0  0  1  0  0  0  0  0  0
  180.7800  184.7610  134.5940 O   0  0  0  0  0  0  0  0  0  0  0  0
  182.8740  176.4300  139.6780 O   0  0  0  0  0  0  0  0  0  0  0  0
  184.2830  177.5790  138.2220 C   0  0  0  0  0  0  0  0  0  0  0  0
  183.3910  176.3960  138.3590 C   0  0  0  0  0  2  0  0  0  0  0  0
  184.1810  178.2960  139.3030 C   0  0  0  0  0  3  0  0  0  0  0  0
  183.2920  177.6290  140.1740 N   0  0  0  0  0  0  0  0  0  0  0  0
  187.3990  178.4140  136.2380 N   0  0  0  0  0  2  0  0  0  0  0  0
  185.9240  177.1820  134.7900 C   0  0  0  0  0  3  0  0  0  0  0  0
  185.1320  177.9440  137.0410 C   0  0  2  0  0  3  0  0  0  0  0  0
  185.0290  176.8670  135.9570 C   0  0  0  0  0  2  0  0  0  0  0  0
  186.6020  178.1200  137.4280 C   0  0  0  0  0  2  0  0  0  0  0  0
  187.0470  177.8870  134.9520 C   0  0  0  0  0  3  0  0  0  0  0  0
  1  4  2  0  0  0  0
  2 16  1  6  0  0  0
  2  1  1  0  0  0  0
  2  5  1  0  0  0  0
  4  3  1  0  0  0  0
  4  8  1  0  0  0  0
  5  3  2  0  0  0  0
  6 11  2  0  0  0  0
  7  9  1  0  0  0  0
  8 12  1  0  0  0  0
  9 11  1  0  0  0  0
 10 12  1  0  0  0  0
 10  7  2  0  0  0  0
 12  6  1  1  0  0  0
 13  8  1  0  0  0  0
 13 10  1  6  0  0  0
 13 12  1  0  0  0  0
 14 16  1  0  0  0  0
 15 16  2  0  0  0  0
 17 18  2  0  0  0  0
 17 19  1  0  0  0  0
 18 15  1  0  0  0  0
 19 14  2  0  0  0  0
 20 17  1  0  0  0  0
 21 20  1  0  0  0  0
 22 21  1  0  0  0  0
 22 23  1  0  0  0  0
 24 22  2  0  0  0  0
 25 29  1  0  0  0  0
 26 27  1  0  0  0  0
 26 28  2  0  0  0  0
 27 25  1  0  0  0  0
 28 29  1  0  0  0  0
 29  1  1  0  0  0  0
 30 34  1  0  0  0  0
 31 35  2  0  0  0  0
 31 33  1  0  0  0  0
 32 34  1  0  0  0  0
 32 26  1  1  0  0  0
 33 32  1  0  0  0  0
 35 30  1  0  0  0  0
M  END
>  <MODEL>
2

>  <REMARK>
 VINA RESULT:      -7.6      5.666      8.946
  Name = 
  7 active torsions:
  status: ('A' for Active; 'I' for Inactive)
    1  A    between atoms: C_3  and  N_26
    2  A    between atoms: N_5  and  C_33
    3  A    between atoms: C_6  and  C_19
    4  A    between atoms: C_10  and  C_12
    5  A    between atoms: O_13  and  C_24
    6  A    between atoms: O_13  and  C_27
    7  A    between atoms: C_25  and  C_27
                            x       y       z     vdW  Elec       q    Type
                         _______ _______ _______ _____ _____    ______ ____

>  <TORSDO>
F 7

$$$$
=
 OpenBabel11042411533D

 35 41  0  0  1  0  0  0  0  0999 V2000
  188.6920  177.8100  139.9520 C   0  0  0  0  0  0  0  0  0  0  0  0
  189.3200  177.7950  138.5980 C   0  0  1  0  0  3  0  0  0  0  0  0
  190.4490  176.3810  140.1480 N   0  0  0  0  0  0  0  0  0  0  0  0
  189.3640  177.0300  140.7830 C   0  0  0  0  0  0  0  0  0  0  0  0
  190.4760  176.7960  138.7520 C   0  0  0  0  0  3  0  0  0  0  0  0
  190.6370  178.4040  143.8500 C   0  0  0  0  0  3  0  0  0  0  0  0
  188.7160  177.0570  145.6040 C   0  0  0  0  0  3  0  0  0  0  0  0
  189.1270  176.9120  142.1870 N   0  0  0  0  0  0  0  0  0  0  0  0
  189.6960  177.9500  146.1090 C   0  0  0  0  0  2  0  0  0  0  0  0
  188.7500  176.8840  144.2350 C   0  0  0  0  0  0  0  0  0  0  0  0
  190.6340  178.6060  145.2530 C   0  0  0  0  0  3  0  0  0  0  0  0
  189.6690  177.5280  143.3950 C   0  0  1  0  0  0  0  0  0  0  0  0
  188.2100  176.2750  143.0600 C   0  0  1  0  0  3  0  0  0  0  0  0
  187.9670  178.2730  136.5550 C   0  0  0  0  0  3  0  0  0  0  0  0
  187.7840  176.0730  137.5460 C   0  0  0  0  0  3  0  0  0  0  0  0
  188.3460  177.3590  137.5420 C   0  0  0  0  0  0  0  0  0  0  0  0
  186.4860  176.6170  135.5700 C   0  0  0  0  0  0  0  0  0  0  0  0
  186.8610  175.7060  136.5620 C   0  0  0  0  0  3  0  0  0  0  0  0
  187.0420  177.9060  135.5730 C   0  0  0  0  0  3  0  0  0  0  0  0
  185.5690  176.2160  134.5940 O   0  0  0  0  0  0  0  0  0  0  0  0
  184.2380  175.8270  134.9060 C   0  0  0  0  0  2  0  0  0  0  0  0
  183.4820  176.9980  135.4220 C   0  0  0  0  0  0  0  0  0  0  0  0
  183.3600  177.1960  136.7890 O   0  0  0  0  0  1  0  0  0  0  0  0
  182.9810  177.8300  134.6200 O   0  0  0  0  0  0  0  0  0  0  0  0
  186.4400  178.5720  139.4750 O   0  0  0  0  0  0  0  0  0  0  0  0
  185.9170  178.9360  141.7160 C   0  0  0  0  0  0  0  0  0  0  0  0
  185.3440  178.6730  140.3680 C   0  0  0  0  0  2  0  0  0  0  0  0
  187.2130  178.8570  141.6320 C   0  0  0  0  0  3  0  0  0  0  0  0
  187.5370  178.5900  140.2830 N   0  0  0  0  0  0  0  0  0  0  0  0
  183.0460  178.9400  144.1850 N   0  0  0  0  0  0  0  0  0  0  0  0
  185.0850  178.7270  145.4430 C   0  0  0  0  0  2  0  0  0  0  0  0
  185.1660  179.2040  142.9850 C   0  0  2  0  0  3  0  0  0  0  0  0
  185.8590  178.5240  144.1700 C   0  0  0  0  0  2  0  0  0  0  0  0
  183.7190  178.7130  142.9070 C   0  0  0  0  0  2  0  0  0  0  0  0
  183.7600  178.8930  145.4270 C   0  0  0  0  0  3  0  0  0  0  0  0
  1 29  1  0  0  0  0
  1  4  2  0  0  0  0
  2 16  1  6  0  0  0
  2  5  1  0  0  0  0
  2  1  1  0  0  0  0
  3  4  1  0  0  0  0
  4  8  1  0  0  0  0
  5  3  2  0  0  0  0
  6 11  2  0  0  0  0
  7  9  1  0  0  0  0
  8 13  1  0  0  0  0
  8 12  1  0  0  0  0
 10  7  2  0  0  0  0
 11  9  1  0  0  0  0
 12  6  1  6  0  0  0
 12 10  1  0  0  0  0
 13 12  1  0  0  0  0
 13 10  1  1  0  0  0
 14 16  1  0  0  0  0
 16 15  2  0  0  0  0
 17 19  1  0  0  0  0
 17 18  2  0  0  0  0
 18 15  1  0  0  0  0
 19 14  2  0  0  0  0
 20 21  1  0  0  0  0
 20 17  1  0  0  0  0
 21 22  1  0  0  0  0
 22 23  1  0  0  0  0
 24 22  2  0  0  0  0
 25 29  1  0  0  0  0
 25 27  1  0  0  0  0
 27 26  1  0  0  0  0
 28 26  2  0  0  0  0
 29 28  1  0  0  0  0
 30 35  2  0  0  0  0
 32 26  1  6  0  0  0
 32 33  1  0  0  0  0
 33 31  1  0  0  0  0
 34 32  1  0  0  0  0
 34 30  1  0  0  0  0
 35 31  1  0  0  0  0
M  END
>  <MODEL>
3

>  <REMARK>
 VINA RESULT:      -7.6      2.481      3.132
  Name = 
  7 active torsions:
  status: ('A' for Active; 'I' for Inactive)
    1  A    between atoms: C_3  and  N_26
    2  A    between atoms: N_5  and  C_33
    3  A    between atoms: C_6  and  C_19
    4  A    between atoms: C_10  and  C_12
    5  A    between atoms: O_13  and  C_24
    6  A    between atoms: O_13  and  C_27
    7  A    between atoms: C_25  and  C_27
                            x       y       z     vdW  Elec       q    Type
                         _______ _______ _______ _____ _____    ______ ____

>  <TORSDO>
F 7

$$$$
=
 OpenBabel11042411533D

 35 41  0  0  1  0  0  0  0  0999 V2000
  186.7670  178.4190  140.3320 C   0  0  0  0  0  0  0  0  0  0  0  0
  187.6700  178.5020  139.1460 C   0  0  1  0  0  3  0  0  0  0  0  0
  188.8090  177.7990  141.1170 N   0  0  0  0  0  0  0  0  0  0  0  0
  187.4460  178.0480  141.4050 C   0  0  0  0  0  0  0  0  0  0  0  0
  189.0260  178.0420  139.6970 C   0  0  0  0  0  3  0  0  0  0  0  0
  188.6520  177.4190  144.7320 C   0  0  0  0  0  3  0  0  0  0  0  0
  186.1180  177.9860  146.0850 C   0  0  0  0  0  3  0  0  0  0  0  0
  186.9310  177.9970  142.7370 N   0  0  0  0  0  0  0  0  0  0  0  0
  187.2910  177.6390  146.8030 C   0  0  0  0  0  2  0  0  0  0  0  0
  186.2770  178.0310  144.7140 C   0  0  0  0  0  0  0  0  0  0  0  0
  188.5280  177.3610  146.1420 C   0  0  0  0  0  3  0  0  0  0  0  0
  187.4890  177.7590  144.0660 C   0  0  1  0  0  0  0  0  0  0  0  0
  185.7190  178.2670  143.4190 C   0  0  1  0  0  3  0  0  0  0  0  0
  186.2960  178.1370  137.0930 C   0  0  0  0  0  3  0  0  0  0  0  0
  187.6050  176.2800  137.9260 C   0  0  0  0  0  3  0  0  0  0  0  0
  187.1960  177.6180  138.0290 C   0  0  0  0  0  0  0  0  0  0  0  0
  186.2320  175.9950  135.9460 C   0  0  0  0  0  0  0  0  0  0  0  0
  187.1270  175.4760  136.8860 C   0  0  0  0  0  3  0  0  0  0  0  0
  185.8160  177.3320  136.0560 C   0  0  0  0  0  3  0  0  0  0  0  0
  185.7800  175.1700  134.9130 O   0  0  0  0  0  0  0  0  0  0  0  0
  185.3510  173.8320  135.1320 C   0  0  0  0  0  2  0  0  0  0  0  0
  184.1070  173.8330  135.9460 C   0  0  0  0  0  0  0  0  0  0  0  0
  184.1100  173.2710  137.2140 O   0  0  0  0  0  1  0  0  0  0  0  0
  183.0610  174.3730  135.5000 O   0  0  0  0  0  0  0  0  0  0  0  0
  184.9400  179.8990  139.7340 O   0  0  0  0  0  0  0  0  0  0  0  0
  183.3960  178.1680  139.5240 C   0  0  0  0  0  0  0  0  0  0  0  0
  183.7110  179.5630  139.1140 C   0  0  0  0  0  2  0  0  0  0  0  0
  184.4070  177.7000  140.1970 C   0  0  0  0  0  3  0  0  0  0  0  0
  185.3690  178.7300  140.2900 N   0  0  0  0  0  0  0  0  0  0  0  0
  181.2350  175.1770  138.6710 N   0  0  0  0  0  0  0  0  0  0  0  0
  179.9350  176.6370  140.0730 C   0  0  0  0  0  2  0  0  0  0  0  0
  182.1600  177.3830  139.1990 C   0  0  2  0  0  3  0  0  0  0  0  0
  181.1550  177.4700  140.3520 C   0  0  0  0  0  2  0  0  0  0  0  0
  182.4740  175.9110  138.9220 C   0  0  0  0  0  2  0  0  0  0  0  0
  180.0030  175.5480  139.3020 C   0  0  0  0  0  3  0  0  0  0  0  0
  1  4  2  0  0  0  0
  2 16  1  6  0  0  0
  2  5  1  0  0  0  0
  2  1  1  0  0  0  0
  3  4  1  0  0  0  0
  4  8  1  0  0  0  0
  5  3  2  0  0  0  0
  6 11  2  0  0  0  0
  7  9  1  0  0  0  0
  8 13  1  0  0  0  0
  8 12  1  0  0  0  0
 10  7  2  0  0  0  0
 11  9  1  0  0  0  0
 12 10  1  0  0  0  0
 12  6  1  1  0  0  0
 13 12  1  0  0  0  0
 13 10  1  6  0  0  0
 14 16  1  0  0  0  0
 15 16  2  0  0  0  0
 17 19  1  0  0  0  0
 17 18  2  0  0  0  0
 18 15  1  0  0  0  0
 19 14  2  0  0  0  0
 20 21  1  0  0  0  0
 20 17  1  0  0  0  0
 21 22  1  0  0  0  0
 22 23  1  0  0  0  0
 24 22  2  0  0  0  0
 25 29  1  0  0  0  0
 26 28  2  0  0  0  0
 27 26  1  0  0  0  0
 27 25  1  0  0  0  0
 28 29  1  0  0  0  0
 29  1  1  0  0  0  0
 30 34  1  0  0  0  0
 30 35  2  0  0  0  0
 31 33  1  0  0  0  0
 32 26  1  1  0  0  0
 32 33  1  0  0  0  0
 34 32  1  0  0  0  0
 35 31  1  0  0  0  0
M  END
>  <MODEL>
4

>  <REMARK>
 VINA RESULT:      -7.2      3.246      4.590
  Name = 
  7 active torsions:
  status: ('A' for Active; 'I' for Inactive)
    1  A    between atoms: C_3  and  N_26
    2  A    between atoms: N_5  and  C_33
    3  A    between atoms: C_6  and  C_19
    4  A    between atoms: C_10  and  C_12
    5  A    between atoms: O_13  and  C_24
    6  A    between atoms: O_13  and  C_27
    7  A    between atoms: C_25  and  C_27
                            x       y       z     vdW  Elec       q    Type
                         _______ _______ _______ _____ _____    ______ ____

>  <TORSDO>
F 7

$$$$
=
 OpenBabel11042411533D

 35 41  0  0  1  0  0  0  0  0999 V2000
  190.0870  177.4260  138.7860 C   0  0  1  0  0  3  0  0  0  0  0  0
  189.2430  178.6550  138.7020 C   0  0  1  0  0  3  0  0  0  0  0  0
  189.3250  177.4580  136.6440 N   0  0  0  0  0  0  0  0  0  0  0  0
  190.1210  176.8080  137.6170 C   0  0  0  0  0  0  0  0  0  0  0  0
  188.7150  178.6280  137.2610 C   0  0  0  0  0  2  0  0  0  0  0  0
  193.5680  176.1020  136.8850 C   0  0  0  0  0  3  0  0  0  0  0  0
  193.2510  173.1950  136.7140 C   0  0  0  0  0  3  0  0  0  0  0  0
  190.9360  175.6790  137.2980 N   0  0  0  0  0  0  0  0  0  0  0  0
  194.5130  173.8230  136.5530 C   0  0  0  0  0  2  0  0  0  0  0  0
  192.2050  174.0630  136.9530 C   0  0  0  0  0  0  0  0  0  0  0  0
  194.6670  175.2420  136.6360 C   0  0  0  0  0  3  0  0  0  0  0  0
  192.3560  175.4540  137.0350 C   0  0  1  0  0  0  0  0  0  0  0  0
  190.8140  174.2700  137.2110 C   0  0  1  0  0  3  0  0  0  0  0  0
  186.8470  178.2530  139.2790 C   0  0  0  0  0  3  0  0  0  0  0  0
  188.3270  179.0010  141.0410 C   0  0  0  0  0  3  0  0  0  0  0  0
  188.1260  178.6270  139.7040 C   0  0  0  0  0  0  0  0  0  0  0  0
  185.9820  178.6060  141.5220 C   0  0  0  0  0  0  0  0  0  0  0  0
  187.2600  178.9860  141.9450 C   0  0  0  0  0  3  0  0  0  0  0  0
  185.7800  178.2410  140.1820 C   0  0  0  0  0  3  0  0  0  0  0  0
  184.9380  178.5910  142.4510 O   0  0  0  0  0  0  0  0  0  0  0  0
  185.1490  178.3620  143.8390 C   0  0  0  0  0  2  0  0  0  0  0  0
  184.0760  179.0270  144.6240 C   0  0  0  0  0  0  0  0  0  0  0  0
  183.0190  179.6420  143.9690 O   0  0  0  0  0  0  0  0  0  0  0  0
  184.1070  179.0020  145.8830 O   0  0  0  0  0  1  0  0  0  0  0  0
  192.0160  177.4970  140.2540 O   0  0  0  0  0  0  0  0  0  0  0  0
  190.7810  176.9920  142.1630 C   0  0  0  0  0  0  0  0  0  0  0  0
  192.0350  177.6190  141.6660 C   0  0  0  0  0  2  0  0  0  0  0  0
  190.0500  176.6670  141.1370 C   0  0  0  0  0  3  0  0  0  0  0  0
  190.7730  177.0130  139.9740 N   0  0  0  0  0  0  0  0  0  0  0  0
  191.1310  176.3770  145.8840 N   0  0  0  0  0  2  0  0  0  0  0  0
  189.2750  177.8750  145.5670 C   0  0  0  0  0  3  0  0  0  0  0  0
  190.3710  176.7910  143.5920 C   0  0  2  0  0  3  0  0  0  0  0  0
  189.6390  178.0310  144.1160 C   0  0  0  0  0  2  0  0  0  0  0  0
  191.5710  176.5040  144.4960 C   0  0  0  0  0  2  0  0  0  0  0  0
  190.0080  177.1150  146.3850 C   0  0  0  0  0  3  0  0  0  0  0  0
  1 29  1  6  0  0  0
  2  1  1  0  0  0  0
  2 16  1  1  0  0  0
  3  5  1  0  0  0  0
  3  4  2  0  0  0  0
  4  1  1  0  0  0  0
  5  2  1  0  0  0  0
  7 10  2  0  0  0  0
  8  4  1  0  0  0  0
  9 11  1  0  0  0  0
  9  7  1  0  0  0  0
 10 12  1  0  0  0  0
 11  6  2  0  0  0  0
 12  6  1  1  0  0  0
 12 13  1  0  0  0  0
 12  8  1  0  0  0  0
 13 10  1  6  0  0  0
 13  8  1  0  0  0  0
 14 16  2  0  0  0  0
 14 19  1  0  0  0  0
 15 18  2  0  0  0  0
 16 15  1  0  0  0  0
 17 18  1  0  0  0  0
 17 20  1  0  0  0  0
 19 17  2  0  0  0  0
 20 21  1  0  0  0  0
 21 22  1  0  0  0  0
 22 24  1  0  0  0  0
 23 22  2  0  0  0  0
 25 27  1  0  0  0  0
 27 26  1  0  0  0  0
 28 26  2  0  0  0  0
 29 25  1  0  0  0  0
 29 28  1  0  0  0  0
 30 35  1  0  0  0  0
 31 35  2  0  0  0  0
 32 26  1  6  0  0  0
 32 33  1  0  0  0  0
 32 34  1  0  0  0  0
 33 31  1  0  0  0  0
 34 30  1  0  0  0  0
M  END
>  <MODEL>
5

>  <REMARK>
 VINA RESULT:      -6.9      3.115      7.024
  Name = 
  7 active torsions:
  status: ('A' for Active; 'I' for Inactive)
    1  A    between atoms: C_3  and  N_26
    2  A    between atoms: N_5  and  C_33
    3  A    between atoms: C_6  and  C_19
    4  A    between atoms: C_10  and  C_12
    5  A    between atoms: O_13  and  C_24
    6  A    between atoms: O_13  and  C_27
    7  A    between atoms: C_25  and  C_27
                            x       y       z     vdW  Elec       q    Type
                         _______ _______ _______ _____ _____    ______ ____

>  <TORSDO>
F 7

$$$$
=
 OpenBabel11042411533D

 35 41  0  0  1  0  0  0  0  0999 V2000
  189.4290  176.3120  137.9900 C   0  0  1  0  0  3  0  0  0  0  0  0
  189.5330  177.6520  138.6390 C   0  0  1  0  0  3  0  0  0  0  0  0
  187.3750  177.2450  137.7150 N   0  0  0  0  0  0  0  0  0  0  0  0
  188.2240  176.1390  137.4730 C   0  0  0  0  0  0  0  0  0  0  0  0
  188.1240  178.2390  138.4710 C   0  0  0  0  0  2  0  0  0  0  0  0
  185.8270  173.4630  137.5840 C   0  0  0  0  0  3  0  0  0  0  0  0
  186.4250  172.4110  134.9170 C   0  0  0  0  0  3  0  0  0  0  0  0
  187.8170  175.0340  136.6640 N   0  0  0  0  0  0  0  0  0  0  0  0
  185.4150  171.8460  135.7380 C   0  0  0  0  0  2  0  0  0  0  0  0
  187.0890  173.4820  135.4810 C   0  0  0  0  0  0  0  0  0  0  0  0
  185.1240  172.3600  137.0400 C   0  0  0  0  0  3  0  0  0  0  0  0
  186.8040  173.9860  136.7570 C   0  0  1  0  0  0  0  0  0  0  0  0
  188.0840  174.5030  135.3780 C   0  0  2  0  0  3  0  0  0  0  0  0
  191.2740  177.5100  140.4230 C   0  0  0  0  0  3  0  0  0  0  0  0
  188.9510  177.4190  141.0960 C   0  0  0  0  0  3  0  0  0  0  0  0
  189.9170  177.5370  140.0860 C   0  0  0  0  0  0  0  0  0  0  0  0
  190.6990  177.2700  142.7730 C   0  0  0  0  0  0  0  0  0  0  0  0
  189.3420  177.2900  142.4320 C   0  0  0  0  0  3  0  0  0  0  0  0
  191.6650  177.3780  141.7590 C   0  0  0  0  0  3  0  0  0  0  0  0
  191.0580  177.1500  144.1180 O   0  0  0  0  0  0  0  0  0  0  0  0
  190.1920  177.5290  145.1800 C   0  0  0  0  0  2  0  0  0  0  0  0
  190.6830  176.9470  146.4570 C   0  0  0  0  0  0  0  0  0  0  0  0
  192.0430  176.7560  146.6530 O   0  0  0  0  0  0  0  0  0  0  0  0
  189.8700  176.6600  147.3740 O   0  0  0  0  0  1  0  0  0  0  0  0
  190.2750  174.0740  137.5900 O   0  0  0  0  0  0  0  0  0  0  0  0
  192.3890  174.8140  136.9530 C   0  0  0  0  0  0  0  0  0  0  0  0
  191.4190  173.6920  136.8460 C   0  0  0  0  0  2  0  0  0  0  0  0
  191.8120  175.7980  137.5790 C   0  0  0  0  0  3  0  0  0  0  0  0
  190.5110  175.3730  137.9290 N   0  0  0  0  0  0  0  0  0  0  0  0
  195.6350  176.2960  135.6830 N   0  0  0  0  0  0  0  0  0  0  0  0
  196.1760  174.2820  136.8820 C   0  0  0  0  0  2  0  0  0  0  0  0
  193.7860  174.8620  136.4090 C   0  0  2  0  0  3  0  0  0  0  0  0
  194.7610  174.1890  137.3800 C   0  0  0  0  0  2  0  0  0  0  0  0
  194.2510  176.2970  136.1530 C   0  0  0  0  0  2  0  0  0  0  0  0
  196.5710  175.2970  136.1080 C   0  0  0  0  0  3  0  0  0  0  0  0
  1 29  1  6  0  0  0
  1  2  1  0  0  0  0
  2 16  1  1  0  0  0
  3  5  1  0  0  0  0
  4  3  2  0  0  0  0
  4  1  1  0  0  0  0
  5  2  1  0  0  0  0
  7 10  2  0  0  0  0
  7  9  1  0  0  0  0
  8 12  1  0  0  0  0
  8  4  1  0  0  0  0
  9 11  1  0  0  0  0
 10 12  1  0  0  0  0
 11  6  2  0  0  0  0
 12  6  1  6  0  0  0
 13 10  1  6  0  0  0
 13  8  1  0  0  0  0
 13 12  1  0  0  0  0
 14 19  1  0  0  0  0
 15 18  2  0  0  0  0
 16 14  2  0  0  0  0
 16 15  1  0  0  0  0
 17 20  1  0  0  0  0
 18 17  1  0  0  0  0
 19 17  2  0  0  0  0
 20 21  1  0  0  0  0
 21 22  1  0  0  0  0
 22 23  2  0  0  0  0
 22 24  1  0  0  0  0
 25 29  1  0  0  0  0
 26 28  2  0  0  0  0
 27 26  1  0  0  0  0
 27 25  1  0  0  0  0
 28 29  1  0  0  0  0
 30 35  2  0  0  0  0
 30 34  1  0  0  0  0
 31 33  1  0  0  0  0
 32 26  1  1  0  0  0
 32 33  1  0  0  0  0
 34 32  1  0  0  0  0
 35 31  1  0  0  0  0
M  END
>  <MODEL>
6

>  <REMARK>
 VINA RESULT:      -6.8      3.145      9.448
  Name = 
  7 active torsions:
  status: ('A' for Active; 'I' for Inactive)
    1  A    between atoms: C_3  and  N_26
    2  A    between atoms: N_5  and  C_33
    3  A    between atoms: C_6  and  C_19
    4  A    between atoms: C_10  and  C_12
    5  A    between atoms: O_13  and  C_24
    6  A    between atoms: O_13  and  C_27
    7  A    between atoms: C_25  and  C_27
                            x       y       z     vdW  Elec       q    Type
                         _______ _______ _______ _____ _____    ______ ____

>  <TORSDO>
F 7

$$$$
=
 OpenBabel11042411533D

 35 41  0  0  1  0  0  0  0  0999 V2000
  186.3330  178.2740  139.6730 C   0  0  0  0  0  0  0  0  0  0  0  0
  186.5480  179.0020  140.9590 C   0  0  1  0  0  3  0  0  0  0  0  0
  184.2780  178.3520  140.6420 N   0  0  0  0  0  0  0  0  0  0  0  0
  185.0570  177.9540  139.5300 C   0  0  0  0  0  0  0  0  0  0  0  0
  185.1550  179.0040  141.6040 C   0  0  0  0  0  3  0  0  0  0  0  0
  182.4540  175.6180  138.7030 C   0  0  0  0  0  3  0  0  0  0  0  0
  182.6780  175.9320  135.7990 C   0  0  0  0  0  3  0  0  0  0  0  0
  184.4720  177.3750  138.3620 N   0  0  0  0  0  0  0  0  0  0  0  0
  181.7120  175.0780  136.3890 C   0  0  0  0  0  2  0  0  0  0  0  0
  183.4900  176.5890  136.7020 C   0  0  0  0  0  0  0  0  0  0  0  0
  181.6030  174.9240  137.8070 C   0  0  0  0  0  3  0  0  0  0  0  0
  183.3840  176.4390  138.0910 C   0  0  1  0  0  0  0  0  0  0  0  0
  184.5560  177.5070  136.9540 C   0  0  1  0  0  3  0  0  0  0  0  0
  187.1100  177.4370  142.8210 C   0  0  0  0  0  3  0  0  0  0  0  0
  188.9350  178.5390  141.6770 C   0  0  0  0  0  3  0  0  0  0  0  0
  187.5590  178.3070  141.8240 C   0  0  0  0  0  0  0  0  0  0  0  0
  189.4040  177.0180  143.5080 C   0  0  0  0  0  0  0  0  0  0  0  0
  189.8510  177.8940  142.5140 C   0  0  0  0  0  3  0  0  0  0  0  0
  188.0260  176.7940  143.6600 C   0  0  0  0  0  3  0  0  0  0  0  0
  190.3440  176.3800  144.3220 O   0  0  0  0  0  0  0  0  0  0  0  0
  191.2670  177.0950  145.1330 C   0  0  0  0  0  2  0  0  0  0  0  0
  190.9980  176.8100  146.5670 C   0  0  0  0  0  0  0  0  0  0  0  0
  192.0550  176.6580  147.4530 O   0  0  0  0  0  1  0  0  0  0  0  0
  189.8130  176.7410  146.9860 O   0  0  0  0  0  0  0  0  0  0  0  0
  188.1720  179.0050  138.2710 O   0  0  0  0  0  0  0  0  0  0  0  0
  189.2610  176.9490  138.3520 C   0  0  0  0  0  0  0  0  0  0  0  0
  189.4470  178.4060  138.1190 C   0  0  0  0  0  2  0  0  0  0  0  0
  188.0340  176.7470  138.7350 C   0  0  0  0  0  3  0  0  0  0  0  0
  187.3780  177.9980  138.7320 N   0  0  0  0  0  0  0  0  0  0  0  0
  190.9380  173.7970  137.0880 N   0  0  0  0  0  0  0  0  0  0  0  0
  192.6690  175.3910  137.5840 C   0  0  0  0  0  2  0  0  0  0  0  0
  190.2950  175.8700  138.2250 C   0  0  2  0  0  3  0  0  0  0  0  0
  191.6350  176.4650  137.7800 C   0  0  0  0  0  2  0  0  0  0  0  0
  189.8750  174.7910  137.2240 C   0  0  0  0  0  2  0  0  0  0  0  0
  192.3190  174.1510  137.2320 C   0  0  0  0  0  3  0  0  0  0  0  0
  1  2  1  0  0  0  0
  2  5  1  0  0  0  0
  2 16  1  1  0  0  0
  3  5  2  0  0  0  0
  4  1  2  0  0  0  0
  4  3  1  0  0  0  0
  7  9  1  0  0  0  0
  7 10  2  0  0  0  0
  8  4  1  0  0  0  0
  9 11  1  0  0  0  0
 10 12  1  0  0  0  0
 11  6  2  0  0  0  0
 12  8  1  0  0  0  0
 12  6  1  1  0  0  0
 13 10  1  6  0  0  0
 13 12  1  0  0  0  0
 13  8  1  0  0  0  0
 14 19  1  0  0  0  0
 15 16  1  0  0  0  0
 15 18  2  0  0  0  0
 16 14  2  0  0  0  0
 17 19  2  0  0  0  0
 17 20  1  0  0  0  0
 18 17  1  0  0  0  0
 20 21  1  0  0  0  0
 21 22  1  0  0  0  0
 22 24  2  0  0  0  0
 22 23  1  0  0  0  0
 25 29  1  0  0  0  0
 26 28  2  0  0  0  0
 27 25  1  0  0  0  0
 27 26  1  0  0  0  0
 29 28  1  0  0  0  0
 29  1  1  0  0  0  0
 30 34  1  0  0  0  0
 30 35  2  0  0  0  0
 31 33  1  0  0  0  0
 32 26  1  6  0  0  0
 33 32  1  0  0  0  0
 34 32  1  0  0  0  0
 35 31  1  0  0  0  0
M  END
>  <MODEL>
7

>  <REMARK>
 VINA RESULT:      -6.8      3.380      8.922
  Name = 
  7 active torsions:
  status: ('A' for Active; 'I' for Inactive)
    1  A    between atoms: C_3  and  N_26
    2  A    between atoms: N_5  and  C_33
    3  A    between atoms: C_6  and  C_19
    4  A    between atoms: C_10  and  C_12
    5  A    between atoms: O_13  and  C_24
    6  A    between atoms: O_13  and  C_27
    7  A    between atoms: C_25  and  C_27
                            x       y       z     vdW  Elec       q    Type
                         _______ _______ _______ _____ _____    ______ ____

>  <TORSDO>
F 7

$$$$
=
 OpenBabel11042411533D

 35 41  0  0  1  0  0  0  0  0999 V2000
  189.9480  176.4530  137.7430 C   0  0  0  0  0  0  0  0  0  0  0  0
  190.0960  175.5830  136.5390 C   0  0  1  0  0  3  0  0  0  0  0  0
  191.5760  174.9680  138.3020 N   0  0  0  0  0  0  0  0  0  0  0  0
  190.8030  176.0900  138.6850 C   0  0  0  0  0  0  0  0  0  0  0  0
  191.1710  174.5710  136.9610 C   0  0  0  0  0  3  0  0  0  0  0  0
  189.0540  176.7830  141.7470 C   0  0  0  0  0  3  0  0  0  0  0  0
  191.2780  178.1650  143.0590 C   0  0  0  0  0  3  0  0  0  0  0  0
  191.0310  176.7840  139.9130 N   0  0  0  0  0  0  0  0  0  0  0  0
  190.0360  177.9550  143.7110 C   0  0  0  0  0  2  0  0  0  0  0  0
  191.3410  177.6680  141.7730 C   0  0  0  0  0  0  0  0  0  0  0  0
  188.9500  177.2810  143.0700 C   0  0  0  0  0  3  0  0  0  0  0  0
  190.2770  177.0080  141.1440 C   0  0  1  0  0  0  0  0  0  0  0  0
  192.0890  177.4560  140.5730 C   0  0  2  0  0  3  0  0  0  0  0  0
  187.9980  175.4680  135.1900 C   0  0  0  0  0  3  0  0  0  0  0  0
  188.3730  173.7500  136.8530 C   0  0  0  0  0  3  0  0  0  0  0  0
  188.8040  174.9060  136.1850 C   0  0  0  0  0  0  0  0  0  0  0  0
  186.3490  173.7130  135.5160 C   0  0  0  0  0  0  0  0  0  0  0  0
  187.1530  173.1560  136.5150 C   0  0  0  0  0  3  0  0  0  0  0  0
  186.7770  174.8750  134.8550 C   0  0  0  0  0  3  0  0  0  0  0  0
  185.1400  173.0900  135.1940 O   0  0  0  0  0  0  0  0  0  0  0  0
  183.8760  173.6920  135.4450 C   0  0  0  0  0  2  0  0  0  0  0  0
  183.3220  173.1780  136.7250 C   0  0  0  0  0  0  0  0  0  0  0  0
  182.2760  173.8460  137.3450 O   0  0  0  0  0  1  0  0  0  0  0  0
  183.7780  172.1180  137.2290 O   0  0  0  0  0  0  0  0  0  0  0  0
  189.0810  178.5710  136.9370 O   0  0  0  0  0  0  0  0  0  0  0  0
  186.9220  178.1630  137.7110 C   0  0  0  0  0  0  0  0  0  0  0  0
  187.7280  178.9390  136.7310 C   0  0  0  0  0  2  0  0  0  0  0  0
  187.7120  177.3310  138.3250 C   0  0  0  0  0  3  0  0  0  0  0  0
  189.0180  177.5410  137.8280 N   0  0  0  0  0  0  0  0  0  0  0  0
  183.2980  177.0800  137.8940 N   0  0  0  0  0  0  0  0  0  0  0  0
  183.6840  178.6300  139.6930 C   0  0  0  0  0  2  0  0  0  0  0  0
  185.4450  178.2590  137.9500 C   0  0  2  0  0  3  0  0  0  0  0  0
  185.1620  178.5920  139.4190 C   0  0  0  0  0  2  0  0  0  0  0  0
  184.7220  176.9600  137.5870 C   0  0  0  0  0  2  0  0  0  0  0  0
  182.8300  177.8890  138.9810 C   0  0  0  0  0  3  0  0  0  0  0  0
  1 29  1  0  0  0  0
  1  4  2  0  0  0  0
  2 16  1  1  0  0  0
  2  5  1  0  0  0  0
  2  1  1  0  0  0  0
  3  4  1  0  0  0  0
  4  8  1  0  0  0  0
  5  3  2  0  0  0  0
  6 11  2  0  0  0  0
  7  9  1  0  0  0  0
  8 13  1  0  0  0  0
  8 12  1  0  0  0  0
 10  7  2  0  0  0  0
 11  9  1  0  0  0  0
 12  6  1  1  0  0  0
 12 10  1  0  0  0  0
 13 12  1  0  0  0  0
 13 10  1  1  0  0  0
 14 16  1  0  0  0  0
 16 15  2  0  0  0  0
 17 18  2  0  0  0  0
 18 15  1  0  0  0  0
 19 14  2  0  0  0  0
 19 17  1  0  0  0  0
 20 21  1  0  0  0  0
 20 17  1  0  0  0  0
 21 22  1  0  0  0  0
 22 24  2  0  0  0  0
 22 23  1  0  0  0  0
 25 29  1  0  0  0  0
 26 28  2  0  0  0  0
 27 25  1  0  0  0  0
 27 26  1  0  0  0  0
 29 28  1  0  0  0  0
 30 35  2  0  0  0  0
 32 26  1  1  0  0  0
 32 33  1  0  0  0  0
 33 31  1  0  0  0  0
 34 30  1  0  0  0  0
 34 32  1  0  0  0  0
 35 31  1  0  0  0  0
M  END
>  <MODEL>
8

>  <REMARK>
 VINA RESULT:      -6.8      2.924      4.439
  Name = 
  7 active torsions:
  status: ('A' for Active; 'I' for Inactive)
    1  A    between atoms: C_3  and  N_26
    2  A    between atoms: N_5  and  C_33
    3  A    between atoms: C_6  and  C_19
    4  A    between atoms: C_10  and  C_12
    5  A    between atoms: O_13  and  C_24
    6  A    between atoms: O_13  and  C_27
    7  A    between atoms: C_25  and  C_27
                            x       y       z     vdW  Elec       q    Type
                         _______ _______ _______ _____ _____    ______ ____

>  <TORSDO>
F 7

$$$$
=
 OpenBabel11042411533D

 35 41  0  0  1  0  0  0  0  0999 V2000
  186.4500  177.5190  137.5710 C   0  0  1  0  0  3  0  0  0  0  0  0
  185.2990  178.4060  137.9100 C   0  0  1  0  0  3  0  0  0  0  0  0
  184.7280  176.7330  136.3130 N   0  0  0  0  0  0  0  0  0  0  0  0
  186.0930  176.6220  136.6670 C   0  0  0  0  0  0  0  0  0  0  0  0
  184.1460  177.8280  137.0770 C   0  0  0  0  0  2  0  0  0  0  0  0
  187.1220  173.1930  136.9900 C   0  0  0  0  0  3  0  0  0  0  0  0
  188.8120  173.1580  134.5980 C   0  0  0  0  0  3  0  0  0  0  0  0
  186.9720  175.7030  136.0150 N   0  0  0  0  0  0  0  0  0  0  0  0
  188.6250  172.0050  135.4030 C   0  0  0  0  0  2  0  0  0  0  0  0
  188.1370  174.2790  135.0390 C   0  0  0  0  0  0  0  0  0  0  0  0
  187.8010  172.0220  136.5710 C   0  0  0  0  0  3  0  0  0  0  0  0
  187.3280  174.2970  136.1830 C   0  0  1  0  0  0  0  0  0  0  0  0
  187.7960  175.6560  134.8630 C   0  0  1  0  0  3  0  0  0  0  0  0
  183.8820  177.6500  139.8220 C   0  0  0  0  0  3  0  0  0  0  0  0
  185.7690  179.0860  140.3070 C   0  0  0  0  0  3  0  0  0  0  0  0
  184.9920  178.3760  139.3790 C   0  0  0  0  0  0  0  0  0  0  0  0
  184.3370  178.3250  142.1120 C   0  0  0  0  0  0  0  0  0  0  0  0
  185.4430  179.0550  141.6670 C   0  0  0  0  0  3  0  0  0  0  0  0
  183.5550  177.6230  141.1810 C   0  0  0  0  0  3  0  0  0  0  0  0
  184.0430  178.3060  143.4780 O   0  0  0  0  0  0  0  0  0  0  0  0
  184.4400  179.3450  144.3630 C   0  0  0  0  0  2  0  0  0  0  0  0
  185.3230  178.7900  145.4230 C   0  0  0  0  0  0  0  0  0  0  0  0
  185.0280  179.0180  146.7590 O   0  0  0  0  0  1  0  0  0  0  0  0
  186.3180  178.0850  145.1100 O   0  0  0  0  0  0  0  0  0  0  0  0
  188.3420  178.8870  138.2290 O   0  0  0  0  0  0  0  0  0  0  0  0
  188.9990  177.4410  139.9330 C   0  0  0  0  0  0  0  0  0  0  0  0
  189.0700  178.8440  139.4440 C   0  0  0  0  0  2  0  0  0  0  0  0
  188.1970  176.7760  139.1540 C   0  0  0  0  0  3  0  0  0  0  0  0
  187.7570  177.6590  138.1430 N   0  0  0  0  0  0  0  0  0  0  0  0
  191.6750  176.9100  142.5590 N   0  0  0  0  0  0  0  0  0  0  0  0
  189.5410  176.6000  143.6250 C   0  0  0  0  0  2  0  0  0  0  0  0
  189.6800  176.8640  141.1380 C   0  0  2  0  0  3  0  0  0  0  0  0
  188.8440  177.1150  142.3960 C   0  0  0  0  0  2  0  0  0  0  0  0
  191.0760  177.4560  141.3430 C   0  0  0  0  0  2  0  0  0  0  0  0
  190.8740  176.5390  143.6880 C   0  0  0  0  0  3  0  0  0  0  0  0
  1  2  1  0  0  0  0
  1 29  1  6  0  0  0
  2 16  1  1  0  0  0
  3  4  2  0  0  0  0
  3  5  1  0  0  0  0
  4  1  1  0  0  0  0
  5  2  1  0  0  0  0
  7 10  2  0  0  0  0
  7  9  1  0  0  0  0
  8 12  1  0  0  0  0
  8  4  1  0  0  0  0
  9 11  1  0  0  0  0
 10 12  1  0  0  0  0
 11  6  2  0  0  0  0
 12  6  1  6  0  0  0
 13 10  1  1  0  0  0
 13  8  1  0  0  0  0
 13 12  1  0  0  0  0
 14 19  1  0  0  0  0
 15 18  2  0  0  0  0
 16 14  2  0  0  0  0
 16 15  1  0  0  0  0
 17 20  1  0  0  0  0
 18 17  1  0  0  0  0
 19 17  2  0  0  0  0
 20 21  1  0  0  0  0
 21 22  1  0  0  0  0
 22 23  1  0  0  0  0
 24 22  2  0  0  0  0
 25 27  1  0  0  0  0
 27 26  1  0  0  0  0
 28 26  2  0  0  0  0
 29 25  1  0  0  0  0
 29 28  1  0  0  0  0
 30 35  2  0  0  0  0
 31 35  1  0  0  0  0
 32 26  1  6  0  0  0
 32 34  1  0  0  0  0
 32 33  1  0  0  0  0
 33 31  1  0  0  0  0
 34 30  1  0  0  0  0
M  END
>  <MODEL>
9

>  <REMARK>
 VINA RESULT:      -6.8      3.071      8.195
  Name = 
  7 active torsions:
  status: ('A' for Active; 'I' for Inactive)
    1  A    between atoms: C_3  and  N_26
    2  A    between atoms: N_5  and  C_33
    3  A    between atoms: C_6  and  C_19
    4  A    between atoms: C_10  and  C_12
    5  A    between atoms: O_13  and  C_24
    6  A    between atoms: O_13  and  C_27
    7  A    between atoms: C_25  and  C_27
                            x       y       z     vdW  Elec       q    Type
                         _______ _______ _______ _____ _____    ______ ____

>  <TORSDO>
F 7

$$$$
