=
 OpenBabel11042410593D

 29 31  0  0  1  0  0  0  0  0999 V2000
  187.1570  178.2920  139.7090 C   0  0  0  0  0  0  0  0  0  0  0  0
  189.9910  177.9200  138.8570 C   0  0  2  0  0  3  0  0  0  0  0  0
  189.3160  179.1470  136.9140 O   0  0  0  0  0  0  0  0  0  0  0  0
  185.9320  178.2950  139.9920 O   0  0  0  0  0  0  0  0  0  0  0  0
  187.5890  178.7340  138.4190 N   0  0  0  0  0  2  0  0  0  0  0  0
  188.9630  178.6390  138.0120 C   0  0  0  0  0  0  0  0  0  0  0  0
  188.1770  177.8100  140.6510 C   0  0  0  0  0  0  0  0  0  0  0  0
  190.1940  177.0920  141.2950 C   0  0  0  0  0  3  0  0  0  0  0  0
  189.3560  176.9500  142.3460 N   0  0  0  0  0  0  0  0  0  0  0  0
  188.1320  177.3810  141.9760 C   0  0  0  0  0  0  0  0  0  0  0  0
  190.3890  176.6190  138.1790 C   0  0  0  0  0  1  0  0  0  0  0  0
  189.4810  177.6370  140.2430 C   0  0  0  0  0  0  0  0  0  0  0  0
  189.6890  176.3710  143.6460 C   0  0  1  0  0  3  0  0  0  0  0  0
  190.6810  175.2250  143.4920 C   0  0  0  0  0  1  0  0  0  0  0  0
  191.2650  176.9620  145.5620 C   0  0  0  0  0  2  0  0  0  0  0  0
  190.1350  177.4370  144.6580 C   0  0  2  0  0  3  0  0  0  0  0  0
  189.5060  177.9090  146.8570 C   0  0  1  0  0  3  0  0  0  0  0  0
  190.6950  176.9790  146.9540 C   0  0  0  0  0  2  0  0  0  0  0  0
  189.0060  177.8430  145.4900 N   0  0  0  0  0  2  0  0  0  0  0  0
  188.6670  178.1040  149.0810 F   0  0  0  0  0  0  0  0  0  0  0  0
  187.1900  177.9950  147.3870 F   0  0  0  0  0  0  0  0  0  0  0  0
  188.4080  177.5300  147.8490 C   0  0  0  0  0  0  0  0  0  0  0  0
  188.3400  176.1540  147.9960 F   0  0  0  0  0  0  0  0  0  0  0  0
  187.0380  177.3570  142.8510 O   0  0  0  0  0  0  0  0  0  0  0  0
  186.2740  178.5000  143.1930 C   0  0  0  0  0  2  0  0  0  0  0  0
  183.8490  179.8030  144.0770 O   0  0  0  0  0  0  0  0  0  0  0  0
  185.7640  178.3530  144.5440 N   0  0  0  0  0  2  0  0  0  0  0  0
  184.5620  179.0000  144.9590 C   0  0  0  0  0  0  0  0  0  0  0  0
  184.1430  178.8430  146.1360 O   0  0  0  0  0  1  0  0  0  0  0  0
  1  4  2  0  0  0  0
  1  7  1  0  0  0  0
  2 11  1  6  0  0  0
  2 12  1  0  0  0  0
  3  6  2  0  0  0  0
  5  1  1  0  0  0  0
  6  5  1  0  0  0  0
  6  2  1  0  0  0  0
  7 10  2  0  0  0  0
  8  9  1  0  0  0  0
  9 13  1  0  0  0  0
 10  9  1  0  0  0  0
 10 24  1  0  0  0  0
 12  7  1  0  0  0  0
 12  8  2  0  0  0  0
 13 14  1  6  0  0  0
 15 18  1  0  0  0  0
 16 13  1  6  0  0  0
 16 19  1  0  0  0  0
 16 15  1  0  0  0  0
 17 18  1  0  0  0  0
 17 22  1  1  0  0  0
 19 17  1  0  0  0  0
 21 22  1  0  0  0  0
 22 23  1  0  0  0  0
 22 20  1  0  0  0  0
 24 25  1  0  0  0  0
 25 27  1  0  0  0  0
 26 28  2  0  0  0  0
 27 28  1  0  0  0  0
 28 29  1  0  0  0  0
M  END
>  <MODEL>
1

>  <REMARK>
 VINA RESULT:      -8.4      0.000      0.000
  Name = 
  6 active torsions:
  status: ('A' for Active; 'I' for Inactive)
    1  A    between atoms: C_8  and  C_12
    2  A    between atoms: N_10  and  C_14
    3  A    between atoms: C_11  and  C_13
    4  A    between atoms: C_13  and  N_25
    5  A    between atoms: C_14  and  O_18
    6  A    between atoms: O_18  and  C_26
                            x       y       z     vdW  Elec       q    Type
                         _______ _______ _______ _____ _____    ______ ____

>  <TORSDO>
F 6

$$$$
=
 OpenBabel11042410593D

 29 31  0  0  1  0  0  0  0  0999 V2000
  186.9050  178.6660  138.6690 C   0  0  0  0  0  0  0  0  0  0  0  0
  189.5790  177.3980  138.3010 C   0  0  2  0  0  3  0  0  0  0  0  0
  189.2860  178.0100  136.0040 O   0  0  0  0  0  0  0  0  0  0  0  0
  185.7110  179.0400  138.7980 O   0  0  0  0  0  0  0  0  0  0  0  0
  187.4690  178.5330  137.3610 N   0  0  0  0  0  2  0  0  0  0  0  0
  188.7870  177.9990  137.1600 C   0  0  0  0  0  0  0  0  0  0  0  0
  187.7460  178.3160  139.8220 C   0  0  0  0  0  0  0  0  0  0  0  0
  189.5010  177.4260  140.8820 C   0  0  0  0  0  3  0  0  0  0  0  0
  188.6260  177.8410  141.8230 N   0  0  0  0  0  0  0  0  0  0  0  0
  187.5580  178.3850  141.2010 C   0  0  0  0  0  0  0  0  0  0  0  0
  189.6600  175.8910  138.1270 C   0  0  0  0  0  1  0  0  0  0  0  0
  188.9760  177.7260  139.6380 C   0  0  0  0  0  0  0  0  0  0  0  0
  188.7670  177.6790  143.2680 C   0  0  1  0  0  3  0  0  0  0  0  0
  188.1760  176.3510  143.7270 C   0  0  0  0  0  1  0  0  0  0  0  0
  191.1630  176.8050  143.2800 C   0  0  0  0  0  2  0  0  0  0  0  0
  190.2130  177.9020  143.7380 C   0  0  2  0  0  3  0  0  0  0  0  0
  191.4050  177.1920  145.6160 C   0  0  1  0  0  3  0  0  0  0  0  0
  191.6640  176.1580  144.5430 C   0  0  0  0  0  2  0  0  0  0  0  0
  190.2590  177.9870  145.1950 N   0  0  0  0  0  2  0  0  0  0  0  0
  191.5790  177.3790  147.9870 F   0  0  0  0  0  0  0  0  0  0  0  0
  189.7820  176.3340  147.1250 F   0  0  0  0  0  0  0  0  0  0  0  0
  191.1400  176.5440  146.9740 C   0  0  0  0  0  0  0  0  0  0  0  0
  191.7990  175.3300  147.0690 F   0  0  0  0  0  0  0  0  0  0  0  0
  186.4690  178.9060  141.9110 O   0  0  0  0  0  0  0  0  0  0  0  0
  185.3560  178.1360  142.3300 C   0  0  0  0  0  2  0  0  0  0  0  0
  182.7950  179.0910  143.2740 O   0  0  0  0  0  0  0  0  0  0  0  0
  185.0940  178.3910  143.7360 N   0  0  0  0  0  2  0  0  0  0  0  0
  183.8220  178.8570  144.1810 C   0  0  0  0  0  0  0  0  0  0  0  0
  183.6260  179.0580  145.4080 O   0  0  0  0  0  1  0  0  0  0  0  0
  1  4  2  0  0  0  0
  1  7  1  0  0  0  0
  2 11  1  6  0  0  0
  2 12  1  0  0  0  0
  3  6  2  0  0  0  0
  5  1  1  0  0  0  0
  6  5  1  0  0  0  0
  6  2  1  0  0  0  0
  7 10  2  0  0  0  0
  8  9  1  0  0  0  0
  9 13  1  0  0  0  0
 10  9  1  0  0  0  0
 10 24  1  0  0  0  0
 12  7  1  0  0  0  0
 12  8  2  0  0  0  0
 13 14  1  6  0  0  0
 15 16  1  0  0  0  0
 15 18  1  0  0  0  0
 16 13  1  1  0  0  0
 16 19  1  0  0  0  0
 17 22  1  1  0  0  0
 18 17  1  0  0  0  0
 19 17  1  0  0  0  0
 22 23  1  0  0  0  0
 22 21  1  0  0  0  0
 22 20  1  0  0  0  0
 24 25  1  0  0  0  0
 25 27  1  0  0  0  0
 26 28  2  0  0  0  0
 27 28  1  0  0  0  0
 28 29  1  0  0  0  0
M  END
>  <MODEL>
2

>  <REMARK>
 VINA RESULT:      -8.0      1.529      1.859
  Name = 
  6 active torsions:
  status: ('A' for Active; 'I' for Inactive)
    1  A    between atoms: C_8  and  C_12
    2  A    between atoms: N_10  and  C_14
    3  A    between atoms: C_11  and  C_13
    4  A    between atoms: C_13  and  N_25
    5  A    between atoms: C_14  and  O_18
    6  A    between atoms: O_18  and  C_26
                            x       y       z     vdW  Elec       q    Type
                         _______ _______ _______ _____ _____    ______ ____

>  <TORSDO>
F 6

$$$$
=
 OpenBabel11042410593D

 29 31  0  0  1  0  0  0  0  0999 V2000
  185.5180  179.0550  142.0200 C   0  0  0  0  0  0  0  0  0  0  0  0
  184.7880  178.0150  144.7180 C   0  0  2  0  0  3  0  0  0  0  0  0
  182.5710  178.6890  144.1140 O   0  0  0  0  0  0  0  0  0  0  0  0
  185.8590  179.6460  140.9630 O   0  0  0  0  0  0  0  0  0  0  0  0
  184.1830  179.1980  142.5140 N   0  0  0  0  0  2  0  0  0  0  0  0
  183.7830  178.6390  143.7740 C   0  0  0  0  0  0  0  0  0  0  0  0
  186.4600  178.2420  142.8010 C   0  0  0  0  0  0  0  0  0  0  0  0
  187.2100  177.1260  144.5870 C   0  0  0  0  0  3  0  0  0  0  0  0
  188.2140  177.1710  143.6840 N   0  0  0  0  0  0  0  0  0  0  0  0
  187.7780  177.8410  142.5960 C   0  0  0  0  0  0  0  0  0  0  0  0
  184.9790  178.9140  145.9280 C   0  0  0  0  0  1  0  0  0  0  0  0
  186.1120  177.7730  144.0490 C   0  0  0  0  0  0  0  0  0  0  0  0
  189.5650  176.6450  143.8660 C   0  0  1  0  0  3  0  0  0  0  0  0
  190.3040  176.5740  142.5350 C   0  0  0  0  0  1  0  0  0  0  0  0
  191.2180  176.4870  145.8020 C   0  0  0  0  0  2  0  0  0  0  0  0
  190.3390  177.3990  144.9580 C   0  0  2  0  0  3  0  0  0  0  0  0
  189.8800  177.8750  147.1980 C   0  0  1  0  0  3  0  0  0  0  0  0
  190.6690  176.5840  147.1990 C   0  0  0  0  0  2  0  0  0  0  0  0
  189.4100  178.1020  145.8370 N   0  0  0  0  0  2  0  0  0  0  0  0
  189.1090  178.2460  149.4230 F   0  0  0  0  0  0  0  0  0  0  0  0
  187.6960  178.6540  147.7200 F   0  0  0  0  0  0  0  0  0  0  0  0
  188.7040  177.8210  148.1710 C   0  0  0  0  0  0  0  0  0  0  0  0
  188.2130  176.5290  148.2670 F   0  0  0  0  0  0  0  0  0  0  0  0
  188.5960  178.0590  141.4810 O   0  0  0  0  0  0  0  0  0  0  0  0
  188.3280  177.5410  140.1900 C   0  0  0  0  0  2  0  0  0  0  0  0
  190.0060  177.6430  137.8360 O   0  0  0  0  0  1  0  0  0  0  0  0
  188.2590  178.6340  139.2350 N   0  0  0  0  0  2  0  0  0  0  0  0
  189.0910  178.6630  138.0780 C   0  0  0  0  0  0  0  0  0  0  0  0
  188.9970  179.6190  137.2660 O   0  0  0  0  0  0  0  0  0  0  0  0
  1  5  1  0  0  0  0
  1  7  1  0  0  0  0
  2 11  1  1  0  0  0
  4  1  2  0  0  0  0
  5  6  1  0  0  0  0
  6  3  2  0  0  0  0
  6  2  1  0  0  0  0
  7 12  1  0  0  0  0
  9 13  1  0  0  0  0
  9  8  1  0  0  0  0
 10  7  2  0  0  0  0
 10  9  1  0  0  0  0
 12  8  2  0  0  0  0
 12  2  1  0  0  0  0
 13 14  1  6  0  0  0
 15 18  1  0  0  0  0
 16 13  1  6  0  0  0
 16 15  1  0  0  0  0
 16 19  1  0  0  0  0
 17 18  1  0  0  0  0
 17 22  1  1  0  0  0
 19 17  1  0  0  0  0
 21 22  1  0  0  0  0
 22 23  1  0  0  0  0
 22 20  1  0  0  0  0
 24 10  1  0  0  0  0
 25 24  1  0  0  0  0
 26 28  1  0  0  0  0
 27 25  1  0  0  0  0
 28 27  1  0  0  0  0
 29 28  2  0  0  0  0
M  END
>  <MODEL>
3

>  <REMARK>
 VINA RESULT:      -7.9      1.320      4.991
  Name = 
  6 active torsions:
  status: ('A' for Active; 'I' for Inactive)
    1  A    between atoms: C_8  and  C_12
    2  A    between atoms: N_10  and  C_14
    3  A    between atoms: C_11  and  C_13
    4  A    between atoms: C_13  and  N_25
    5  A    between atoms: C_14  and  O_18
    6  A    between atoms: O_18  and  C_26
                            x       y       z     vdW  Elec       q    Type
                         _______ _______ _______ _____ _____    ______ ____

>  <TORSDO>
F 6

$$$$
=
 OpenBabel11042410593D

 29 31  0  0  1  0  0  0  0  0999 V2000
  184.5760  178.5830  139.0010 C   0  0  0  0  0  0  0  0  0  0  0  0
  182.1490  177.8850  140.5870 C   0  0  2  0  0  3  0  0  0  0  0  0
  181.2320  177.2670  138.4630 O   0  0  0  0  0  0  0  0  0  0  0  0
  185.5320  179.0390  138.3240 O   0  0  0  0  0  0  0  0  0  0  0  0
  183.3790  178.1590  138.3430 N   0  0  0  0  0  2  0  0  0  0  0  0
  182.2210  177.7420  139.0820 C   0  0  0  0  0  0  0  0  0  0  0  0
  184.6240  178.5020  140.4680 C   0  0  0  0  0  0  0  0  0  0  0  0
  183.8020  178.2700  142.5340 C   0  0  0  0  0  3  0  0  0  0  0  0
  185.1040  178.6130  142.6490 N   0  0  0  0  0  0  0  0  0  0  0  0
  185.6190  178.7560  141.4100 C   0  0  0  0  0  0  0  0  0  0  0  0
  181.1660  178.9860  140.9490 C   0  0  0  0  0  1  0  0  0  0  0  0
  183.4940  178.1840  141.1880 C   0  0  0  0  0  0  0  0  0  0  0  0
  185.8280  178.8540  143.8950 C   0  0  1  0  0  3  0  0  0  0  0  0
  184.9490  179.5870  144.9020 C   0  0  0  0  0  1  0  0  0  0  0  0
  186.4480  177.5160  145.9770 C   0  0  0  0  0  2  0  0  0  0  0  0
  186.4620  177.5710  144.4550 C   0  0  2  0  0  3  0  0  0  0  0  0
  188.6270  177.0340  145.1470 C   0  0  1  0  0  3  0  0  0  0  0  0
  187.8950  177.4960  146.3880 C   0  0  0  0  0  2  0  0  0  0  0  0
  187.8410  177.4500  143.9920 N   0  0  0  0  0  2  0  0  0  0  0  0
  189.9800  178.9510  144.7230 F   0  0  0  0  0  0  0  0  0  0  0  0
  190.6460  177.5030  146.3110 F   0  0  0  0  0  0  0  0  0  0  0  0
  190.0380  177.6140  145.0740 C   0  0  0  0  0  0  0  0  0  0  0  0
  190.7950  176.9310  144.1360 F   0  0  0  0  0  0  0  0  0  0  0  0
  186.9560  179.1130  141.1960 O   0  0  0  0  0  0  0  0  0  0  0  0
  187.9500  178.2160  140.7340 C   0  0  0  0  0  2  0  0  0  0  0  0
  188.3380  176.7840  138.2510 O   0  0  0  0  0  1  0  0  0  0  0  0
  188.6410  178.8040  139.5990 N   0  0  0  0  0  2  0  0  0  0  0  0
  188.8170  178.0830  138.3820 C   0  0  0  0  0  0  0  0  0  0  0  0
  189.4120  178.6260  137.4150 O   0  0  0  0  0  0  0  0  0  0  0  0
  1  7  1  0  0  0  0
  2 11  1  6  0  0  0
  2 12  1  0  0  0  0
  3  6  2  0  0  0  0
  4  1  2  0  0  0  0
  5  1  1  0  0  0  0
  5  6  1  0  0  0  0
  6  2  1  0  0  0  0
  7 12  1  0  0  0  0
  7 10  2  0  0  0  0
  8  9  1  0  0  0  0
  9 13  1  0  0  0  0
 10  9  1  0  0  0  0
 12  8  2  0  0  0  0
 13 14  1  1  0  0  0
 15 18  1  0  0  0  0
 16 13  1  1  0  0  0
 16 15  1  0  0  0  0
 17 22  1  6  0  0  0
 17 18  1  0  0  0  0
 19 16  1  0  0  0  0
 19 17  1  0  0  0  0
 20 22  1  0  0  0  0
 22 21  1  0  0  0  0
 23 22  1  0  0  0  0
 24 10  1  0  0  0  0
 25 24  1  0  0  0  0
 26 28  1  0  0  0  0
 27 25  1  0  0  0  0
 28 27  1  0  0  0  0
 29 28  2  0  0  0  0
M  END
>  <MODEL>
4

>  <REMARK>
 VINA RESULT:      -7.9      2.916      5.590
  Name = 
  6 active torsions:
  status: ('A' for Active; 'I' for Inactive)
    1  A    between atoms: C_8  and  C_12
    2  A    between atoms: N_10  and  C_14
    3  A    between atoms: C_11  and  C_13
    4  A    between atoms: C_13  and  N_25
    5  A    between atoms: C_14  and  O_18
    6  A    between atoms: O_18  and  C_26
                            x       y       z     vdW  Elec       q    Type
                         _______ _______ _______ _____ _____    ______ ____

>  <TORSDO>
F 6

$$$$
=
 OpenBabel11042410593D

 29 31  0  0  1  0  0  0  0  0999 V2000
  184.8940  178.4860  138.7390 C   0  0  0  0  0  0  0  0  0  0  0  0
  182.3000  177.9460  140.1070 C   0  0  2  0  0  3  0  0  0  0  0  0
  181.5760  177.2400  137.9360 O   0  0  0  0  0  0  0  0  0  0  0  0
  185.9280  178.8760  138.1390 O   0  0  0  0  0  0  0  0  0  0  0  0
  183.7540  178.0620  137.9870 N   0  0  0  0  0  2  0  0  0  0  0  0
  182.5150  177.7190  138.6260 C   0  0  0  0  0  0  0  0  0  0  0  0
  184.7940  178.4830  140.2060 C   0  0  0  0  0  0  0  0  0  0  0  0
  183.7640  178.3890  142.1880 C   0  0  0  0  0  3  0  0  0  0  0  0
  185.0590  178.6990  142.4160 N   0  0  0  0  0  0  0  0  0  0  0  0
  185.6990  178.7590  141.2280 C   0  0  0  0  0  0  0  0  0  0  0  0
  181.3240  179.0930  140.3110 C   0  0  0  0  0  1  0  0  0  0  0  0
  183.5880  178.2380  140.8240 C   0  0  0  0  0  0  0  0  0  0  0  0
  185.6640  178.9870  143.7140 C   0  0  1  0  0  3  0  0  0  0  0  0
  184.7470  179.8610  144.5600 C   0  0  0  0  0  1  0  0  0  0  0  0
  185.9250  177.7700  145.9410 C   0  0  0  0  0  2  0  0  0  0  0  0
  186.1280  177.7100  144.4330 C   0  0  2  0  0  3  0  0  0  0  0  0
  188.1470  177.0860  145.4280 C   0  0  1  0  0  3  0  0  0  0  0  0
  187.3060  177.6860  146.5330 C   0  0  0  0  0  2  0  0  0  0  0  0
  187.5400  177.4640  144.1580 N   0  0  0  0  0  2  0  0  0  0  0  0
  189.9510  177.8060  146.8110 F   0  0  0  0  0  0  0  0  0  0  0  0
  190.4270  176.5850  144.9820 F   0  0  0  0  0  0  0  0  0  0  0  0
  189.5960  177.5640  145.4950 C   0  0  0  0  0  0  0  0  0  0  0  0
  189.7580  178.7270  144.7600 F   0  0  0  0  0  0  0  0  0  0  0  0
  187.0620  179.0660  141.1320 O   0  0  0  0  0  0  0  0  0  0  0  0
  188.0490  178.1490  140.6960 C   0  0  0  0  0  2  0  0  0  0  0  0
  190.2900  176.3320  140.4900 O   0  0  0  0  0  0  0  0  0  0  0  0
  189.2270  178.2710  141.5380 N   0  0  0  0  0  2  0  0  0  0  0  0
  190.3240  177.3680  141.4160 C   0  0  0  0  0  0  0  0  0  0  0  0
  191.3330  177.5100  142.1550 O   0  0  0  0  0  1  0  0  0  0  0  0
  1  7  1  0  0  0  0
  2 11  1  6  0  0  0
  2 12  1  0  0  0  0
  3  6  2  0  0  0  0
  4  1  2  0  0  0  0
  5  6  1  0  0  0  0
  5  1  1  0  0  0  0
  6  2  1  0  0  0  0
  7 12  1  0  0  0  0
  7 10  2  0  0  0  0
  8  9  1  0  0  0  0
  9 13  1  0  0  0  0
 10  9  1  0  0  0  0
 12  8  2  0  0  0  0
 13 14  1  1  0  0  0
 15 18  1  0  0  0  0
 16 13  1  6  0  0  0
 16 15  1  0  0  0  0
 17 22  1  6  0  0  0
 17 18  1  0  0  0  0
 19 16  1  0  0  0  0
 19 17  1  0  0  0  0
 21 22  1  0  0  0  0
 22 20  1  0  0  0  0
 23 22  1  0  0  0  0
 24 10  1  0  0  0  0
 25 24  1  0  0  0  0
 25 27  1  0  0  0  0
 26 28  2  0  0  0  0
 28 27  1  0  0  0  0
 28 29  1  0  0  0  0
M  END
>  <MODEL>
5

>  <REMARK>
 VINA RESULT:      -7.8      3.002      5.338
  Name = 
  6 active torsions:
  status: ('A' for Active; 'I' for Inactive)
    1  A    between atoms: C_8  and  C_12
    2  A    between atoms: N_10  and  C_14
    3  A    between atoms: C_11  and  C_13
    4  A    between atoms: C_13  and  N_25
    5  A    between atoms: C_14  and  O_18
    6  A    between atoms: O_18  and  C_26
                            x       y       z     vdW  Elec       q    Type
                         _______ _______ _______ _____ _____    ______ ____

>  <TORSDO>
F 6

$$$$
=
 OpenBabel11042410593D

 29 31  0  0  1  0  0  0  0  0999 V2000
  184.5000  179.2060  140.2130 C   0  0  0  0  0  0  0  0  0  0  0  0
  183.4470  178.3610  142.8720 C   0  0  2  0  0  3  0  0  0  0  0  0
  181.3030  178.6020  141.8320 O   0  0  0  0  0  0  0  0  0  0  0  0
  184.9400  179.7260  139.1560 O   0  0  0  0  0  0  0  0  0  0  0  0
  183.0910  179.1870  140.4610 N   0  0  0  0  0  2  0  0  0  0  0  0
  182.5520  178.7100  141.7030 C   0  0  0  0  0  0  0  0  0  0  0  0
  185.3900  178.6440  141.2390 C   0  0  0  0  0  0  0  0  0  0  0  0
  185.9520  177.8620  143.2560 C   0  0  0  0  0  3  0  0  0  0  0  0
  187.0860  177.9690  142.5300 N   0  0  0  0  0  0  0  0  0  0  0  0
  186.7660  178.4390  141.3060 C   0  0  0  0  0  0  0  0  0  0  0  0
  183.2900  179.4050  143.9650 C   0  0  0  0  0  1  0  0  0  0  0  0
  184.8910  178.2630  142.4650 C   0  0  0  0  0  0  0  0  0  0  0  0
  188.4420  177.6890  142.9970 C   0  0  1  0  0  3  0  0  0  0  0  0
  189.2940  178.9520  142.9820 C   0  0  0  0  0  1  0  0  0  0  0  0
  188.1360  177.8780  145.5230 C   0  0  0  0  0  2  0  0  0  0  0  0
  188.4510  176.9600  144.3500 C   0  0  2  0  0  3  0  0  0  0  0  0
  190.1040  176.6130  145.9630 C   0  0  1  0  0  3  0  0  0  0  0  0
  189.3740  177.8710  146.3780 C   0  0  0  0  0  2  0  0  0  0  0  0
  189.7510  176.3370  144.5760 N   0  0  0  0  0  2  0  0  0  0  0  0
  192.2470  175.6030  145.6880 F   0  0  0  0  0  0  0  0  0  0  0  0
  192.0550  177.8180  145.3390 F   0  0  0  0  0  0  0  0  0  0  0  0
  191.6170  176.7590  146.1140 C   0  0  0  0  0  0  0  0  0  0  0  0
  191.9510  176.9980  147.4370 F   0  0  0  0  0  0  0  0  0  0  0  0
  187.7330  178.6630  140.3190 O   0  0  0  0  0  0  0  0  0  0  0  0
  188.2930  177.6410  139.5130 C   0  0  0  0  0  2  0  0  0  0  0  0
  189.0370  179.5910  137.5110 O   0  0  0  0  0  1  0  0  0  0  0  0
  187.6800  177.6740  138.1970 N   0  0  0  0  0  2  0  0  0  0  0  0
  188.0650  178.6400  137.2210 C   0  0  0  0  0  0  0  0  0  0  0  0
  187.5210  178.6330  136.0870 O   0  0  0  0  0  0  0  0  0  0  0  0
  1  5  1  0  0  0  0
  1  7  1  0  0  0  0
  2 11  1  1  0  0  0
  4  1  2  0  0  0  0
  5  6  1  0  0  0  0
  6  3  2  0  0  0  0
  6  2  1  0  0  0  0
  7 10  2  0  0  0  0
  7 12  1  0  0  0  0
  9 13  1  0  0  0  0
  9  8  1  0  0  0  0
 10  9  1  0  0  0  0
 12  2  1  0  0  0  0
 12  8  2  0  0  0  0
 13 14  1  1  0  0  0
 15 18  1  0  0  0  0
 16 13  1  6  0  0  0
 16 19  1  0  0  0  0
 16 15  1  0  0  0  0
 17 22  1  6  0  0  0
 17 18  1  0  0  0  0
 19 17  1  0  0  0  0
 20 22  1  0  0  0  0
 21 22  1  0  0  0  0
 22 23  1  0  0  0  0
 24 10  1  0  0  0  0
 25 24  1  0  0  0  0
 27 25  1  0  0  0  0
 28 26  1  0  0  0  0
 28 27  1  0  0  0  0
 29 28  2  0  0  0  0
M  END
>  <MODEL>
6

>  <REMARK>
 VINA RESULT:      -7.6      2.477      5.425
  Name = 
  6 active torsions:
  status: ('A' for Active; 'I' for Inactive)
    1  A    between atoms: C_8  and  C_12
    2  A    between atoms: N_10  and  C_14
    3  A    between atoms: C_11  and  C_13
    4  A    between atoms: C_13  and  N_25
    5  A    between atoms: C_14  and  O_18
    6  A    between atoms: O_18  and  C_26
                            x       y       z     vdW  Elec       q    Type
                         _______ _______ _______ _____ _____    ______ ____

>  <TORSDO>
F 6

$$$$
=
 OpenBabel11042410593D

 29 31  0  0  1  0  0  0  0  0999 V2000
  188.1350  178.3120  137.7170 C   0  0  0  0  0  0  0  0  0  0  0  0
  190.5190  176.5360  137.9480 C   0  0  2  0  0  3  0  0  0  0  0  0
  190.7040  176.8770  135.5850 O   0  0  0  0  0  0  0  0  0  0  0  0
  187.0370  178.9140  137.5990 O   0  0  0  0  0  0  0  0  0  0  0  0
  188.8490  177.9040  136.5470 N   0  0  0  0  0  2  0  0  0  0  0  0
  190.0450  177.1140  136.6320 C   0  0  0  0  0  0  0  0  0  0  0  0
  188.7050  177.9720  139.0280 C   0  0  0  0  0  0  0  0  0  0  0  0
  190.0630  176.9230  140.4610 C   0  0  0  0  0  3  0  0  0  0  0  0
  189.1600  177.6160  141.1880 N   0  0  0  0  0  0  0  0  0  0  0  0
  188.3300  178.2580  140.3390 C   0  0  0  0  0  0  0  0  0  0  0  0
  190.3160  175.0300  137.9460 C   0  0  0  0  0  1  0  0  0  0  0  0
  189.8030  177.1450  139.1210 C   0  0  0  0  0  0  0  0  0  0  0  0
  189.0470  177.6260  142.6450 C   0  0  1  0  0  3  0  0  0  0  0  0
  188.3380  176.3740  143.1450 C   0  0  0  0  0  1  0  0  0  0  0  0
  191.3970  176.7500  143.1120 C   0  0  0  0  0  2  0  0  0  0  0  0
  190.4000  177.8790  143.3300 C   0  0  2  0  0  3  0  0  0  0  0  0
  191.2590  177.3020  145.4230 C   0  0  1  0  0  3  0  0  0  0  0  0
  191.6750  176.1940  144.4810 C   0  0  0  0  0  2  0  0  0  0  0  0
  190.2090  178.0680  144.7640 N   0  0  0  0  0  2  0  0  0  0  0  0
  189.3930  176.5890  146.7250 F   0  0  0  0  0  0  0  0  0  0  0  0
  191.3570  175.5250  146.9990 F   0  0  0  0  0  0  0  0  0  0  0  0
  190.7670  176.7530  146.7610 C   0  0  0  0  0  0  0  0  0  0  0  0
  191.0930  177.6200  147.7900 F   0  0  0  0  0  0  0  0  0  0  0  0
  187.2770  179.0620  140.7930 O   0  0  0  0  0  0  0  0  0  0  0  0
  185.9310  178.6300  140.8720 C   0  0  0  0  0  2  0  0  0  0  0  0
  183.8650  178.0010  138.9480 O   0  0  0  0  0  1  0  0  0  0  0  0
  185.0620  179.6480  140.3060 N   0  0  0  0  0  2  0  0  0  0  0  0
  184.0460  179.3160  139.3620 C   0  0  0  0  0  0  0  0  0  0  0  0
  183.3050  180.2220  138.9000 O   0  0  0  0  0  0  0  0  0  0  0  0
  1  7  1  0  0  0  0
  2 11  1  6  0  0  0
  2 12  1  0  0  0  0
  3  6  2  0  0  0  0
  4  1  2  0  0  0  0
  5  6  1  0  0  0  0
  5  1  1  0  0  0  0
  6  2  1  0  0  0  0
  7 12  1  0  0  0  0
  7 10  2  0  0  0  0
  8  9  1  0  0  0  0
  9 13  1  0  0  0  0
 10 24  1  0  0  0  0
 10  9  1  0  0  0  0
 12  8  2  0  0  0  0
 13 14  1  1  0  0  0
 15 16  1  0  0  0  0
 15 18  1  0  0  0  0
 16 13  1  6  0  0  0
 16 19  1  0  0  0  0
 17 22  1  1  0  0  0
 18 17  1  0  0  0  0
 19 17  1  0  0  0  0
 20 22  1  0  0  0  0
 22 21  1  0  0  0  0
 22 23  1  0  0  0  0
 24 25  1  0  0  0  0
 26 28  1  0  0  0  0
 27 25  1  0  0  0  0
 28 27  1  0  0  0  0
 29 28  2  0  0  0  0
M  END
>  <MODEL>
7

>  <REMARK>
 VINA RESULT:      -7.5      2.445      3.107
  Name = 
  6 active torsions:
  status: ('A' for Active; 'I' for Inactive)
    1  A    between atoms: C_8  and  C_12
    2  A    between atoms: N_10  and  C_14
    3  A    between atoms: C_11  and  C_13
    4  A    between atoms: C_13  and  N_25
    5  A    between atoms: C_14  and  O_18
    6  A    between atoms: O_18  and  C_26
                            x       y       z     vdW  Elec       q    Type
                         _______ _______ _______ _____ _____    ______ ____

>  <TORSDO>
F 6

$$$$
=
 OpenBabel11042410593D

 29 31  0  0  1  0  0  0  0  0999 V2000
  191.9410  176.9000  139.3620 C   0  0  0  0  0  0  0  0  0  0  0  0
  189.4660  176.6610  137.7140 C   0  0  2  0  0  3  0  0  0  0  0  0
  190.9030  175.5530  136.1500 O   0  0  0  0  0  0  0  0  0  0  0  0
  193.0060  177.1550  139.9790 O   0  0  0  0  0  0  0  0  0  0  0  0
  192.0000  176.3480  138.0440 N   0  0  0  0  0  2  0  0  0  0  0  0
  190.8150  176.1480  137.2570 C   0  0  0  0  0  0  0  0  0  0  0  0
  190.6160  177.1840  139.9330 C   0  0  0  0  0  0  0  0  0  0  0  0
  188.4020  177.4880  139.9170 C   0  0  0  0  0  3  0  0  0  0  0  0
  188.8500  177.8240  141.1460 N   0  0  0  0  0  0  0  0  0  0  0  0
  190.1880  177.6450  141.1750 C   0  0  0  0  0  0  0  0  0  0  0  0
  189.0470  177.8360  136.8450 C   0  0  0  0  0  1  0  0  0  0  0  0
  189.4830  177.0760  139.1580 C   0  0  0  0  0  0  0  0  0  0  0  0
  188.0460  178.3540  142.2450 C   0  0  1  0  0  3  0  0  0  0  0  0
  186.9360  179.2560  141.7210 C   0  0  0  0  0  1  0  0  0  0  0  0
  186.1420  177.5070  143.7160 C   0  0  0  0  0  2  0  0  0  0  0  0
  187.5440  177.2450  143.1830 C   0  0  2  0  0  3  0  0  0  0  0  0
  187.6210  176.9600  145.5000 C   0  0  1  0  0  3  0  0  0  0  0  0
  186.3010  177.6370  145.2070 C   0  0  0  0  0  2  0  0  0  0  0  0
  188.4560  177.0910  144.3120 N   0  0  0  0  0  2  0  0  0  0  0  0
  187.3940  178.2600  147.4850 F   0  0  0  0  0  0  0  0  0  0  0  0
  188.8750  176.5670  147.4800 F   0  0  0  0  0  0  0  0  0  0  0  0
  188.3150  177.5730  146.7140 C   0  0  0  0  0  0  0  0  0  0  0  0
  189.3130  178.4460  146.3140 F   0  0  0  0  0  0  0  0  0  0  0  0
  190.9490  177.9140  142.3200 O   0  0  0  0  0  0  0  0  0  0  0  0
  191.6130  176.9190  143.0790 C   0  0  0  0  0  2  0  0  0  0  0  0
  192.0570  175.0250  145.2180 O   0  0  0  0  0  0  0  0  0  0  0  0
  191.6450  177.3200  144.4750 N   0  0  0  0  0  2  0  0  0  0  0  0
  191.8720  176.3700  145.5150 C   0  0  0  0  0  0  0  0  0  0  0  0
  191.9040  176.7540  146.7130 O   0  0  0  0  0  1  0  0  0  0  0  0
  1  7  1  0  0  0  0
  1  4  2  0  0  0  0
  2 11  1  6  0  0  0
  2 12  1  0  0  0  0
  3  6  2  0  0  0  0
  5  1  1  0  0  0  0
  6  2  1  0  0  0  0
  6  5  1  0  0  0  0
  7 10  2  0  0  0  0
  8  9  1  0  0  0  0
  9 10  1  0  0  0  0
  9 13  1  0  0  0  0
 10 24  1  0  0  0  0
 12  8  2  0  0  0  0
 12  7  1  0  0  0  0
 13 14  1  6  0  0  0
 15 18  1  0  0  0  0
 16 13  1  6  0  0  0
 16 15  1  0  0  0  0
 16 19  1  0  0  0  0
 17 22  1  1  0  0  0
 18 17  1  0  0  0  0
 19 17  1  0  0  0  0
 22 21  1  0  0  0  0
 22 20  1  0  0  0  0
 23 22  1  0  0  0  0
 24 25  1  0  0  0  0
 25 27  1  0  0  0  0
 26 28  2  0  0  0  0
 27 28  1  0  0  0  0
 28 29  1  0  0  0  0
M  END
>  <MODEL>
8

>  <REMARK>
 VINA RESULT:      -7.5      2.915      4.504
  Name = 
  6 active torsions:
  status: ('A' for Active; 'I' for Inactive)
    1  A    between atoms: C_8  and  C_12
    2  A    between atoms: N_10  and  C_14
    3  A    between atoms: C_11  and  C_13
    4  A    between atoms: C_13  and  N_25
    5  A    between atoms: C_14  and  O_18
    6  A    between atoms: O_18  and  C_26
                            x       y       z     vdW  Elec       q    Type
                         _______ _______ _______ _____ _____    ______ ____

>  <TORSDO>
F 6

$$$$
=
 OpenBabel11042410593D

 29 31  0  0  1  0  0  0  0  0999 V2000
  191.5560  176.0000  144.4880 C   0  0  0  0  0  0  0  0  0  0  0  0
  190.0520  177.4830  146.5930 C   0  0  2  0  0  3  0  0  0  0  0  0
  191.8500  176.8010  148.0200 O   0  0  0  0  0  0  0  0  0  0  0  0
  192.0920  175.2370  143.6440 O   0  0  0  0  0  0  0  0  0  0  0  0
  192.0070  175.9850  145.8450 N   0  0  0  0  0  2  0  0  0  0  0  0
  191.3490  176.7530  146.8650 C   0  0  0  0  0  0  0  0  0  0  0  0
  190.4420  176.8930  144.1400 C   0  0  0  0  0  0  0  0  0  0  0  0
  188.7090  178.2530  144.5260 C   0  0  0  0  0  3  0  0  0  0  0  0
  188.7620  178.0280  143.1940 N   0  0  0  0  0  0  0  0  0  0  0  0
  189.8050  177.2090  142.9410 C   0  0  0  0  0  0  0  0  0  0  0  0
  188.9110  176.7820  147.3130 C   0  0  0  0  0  1  0  0  0  0  0  0
  189.7520  177.5670  145.1230 C   0  0  0  0  0  0  0  0  0  0  0  0
  187.8210  178.5280  142.1950 C   0  0  1  0  0  3  0  0  0  0  0  0
  188.3070  178.2110  140.7850 C   0  0  0  0  0  1  0  0  0  0  0  0
  185.3420  179.1280  142.1600 C   0  0  0  0  0  2  0  0  0  0  0  0
  186.3830  178.0600  142.4670 C   0  0  2  0  0  3  0  0  0  0  0  0
  184.9830  178.2160  144.3300 C   0  0  1  0  0  3  0  0  0  0  0  0
  184.6790  179.4280  143.4770 C   0  0  0  0  0  2  0  0  0  0  0  0
  186.2430  177.6540  143.8620 N   0  0  0  0  0  2  0  0  0  0  0  0
  185.8230  177.6260  146.4810 F   0  0  0  0  0  0  0  0  0  0  0  0
  185.6800  179.8080  145.9510 F   0  0  0  0  0  0  0  0  0  0  0  0
  185.0700  178.5740  145.8120 C   0  0  0  0  0  0  0  0  0  0  0  0
  183.8050  178.6290  146.3740 F   0  0  0  0  0  0  0  0  0  0  0  0
  190.1220  176.7860  141.6440 O   0  0  0  0  0  0  0  0  0  0  0  0
  191.2680  177.2160  140.9310 C   0  0  0  0  0  2  0  0  0  0  0  0
  193.5570  177.0680  139.1700 O   0  0  0  0  0  1  0  0  0  0  0  0
  191.1520  176.8080  139.5410 N   0  0  0  0  0  2  0  0  0  0  0  0
  192.2950  176.7360  138.6910 C   0  0  0  0  0  0  0  0  0  0  0  0
  192.1600  176.3680  137.4950 O   0  0  0  0  0  0  0  0  0  0  0  0
  1  5  1  0  0  0  0
  2  6  1  0  0  0  0
  2 11  1  1  0  0  0
  4  1  2  0  0  0  0
  5  6  1  0  0  0  0
  6  3  2  0  0  0  0
  7  1  1  0  0  0  0
  7 12  1  0  0  0  0
  8 12  2  0  0  0  0
  9  8  1  0  0  0  0
 10  9  1  0  0  0  0
 10  7  2  0  0  0  0
 12  2  1  0  0  0  0
 13 14  1  6  0  0  0
 13  9  1  0  0  0  0
 15 16  1  0  0  0  0
 15 18  1  0  0  0  0
 16 13  1  1  0  0  0
 16 19  1  0  0  0  0
 17 22  1  1  0  0  0
 18 17  1  0  0  0  0
 19 17  1  0  0  0  0
 22 21  1  0  0  0  0
 22 23  1  0  0  0  0
 22 20  1  0  0  0  0
 24 10  1  0  0  0  0
 25 24  1  0  0  0  0
 27 25  1  0  0  0  0
 28 26  1  0  0  0  0
 28 27  1  0  0  0  0
 29 28  2  0  0  0  0
M  END
>  <MODEL>
9

>  <REMARK>
 VINA RESULT:      -7.3      2.967      6.843
  Name = 
  6 active torsions:
  status: ('A' for Active; 'I' for Inactive)
    1  A    between atoms: C_8  and  C_12
    2  A    between atoms: N_10  and  C_14
    3  A    between atoms: C_11  and  C_13
    4  A    between atoms: C_13  and  N_25
    5  A    between atoms: C_14  and  O_18
    6  A    between atoms: O_18  and  C_26
                            x       y       z     vdW  Elec       q    Type
                         _______ _______ _______ _____ _____    ______ ____

>  <TORSDO>
F 6

$$$$
