=
 OpenBabel11042413113D

 32 36  0  0  1  0  0  0  0  0999 V2000
  193.9000  173.5390  137.1850 C   0  0  0  0  0  2  0  0  0  0  0  0
  189.5460  176.8140  138.3700 C   0  0  1  0  0  3  0  0  0  0  0  0
  192.7960  175.6530  137.4590 C   0  0  0  0  0  0  0  0  0  0  0  0
  187.4430  172.7440  138.1020 O   0  0  0  0  0  0  0  0  0  0  0  0
  186.6740  177.6550  136.0460 C   0  0  1  0  0  3  0  0  0  0  0  0
  189.0490  173.3480  136.4830 C   0  0  0  0  0  0  0  0  0  0  0  0
  191.0590  177.1760  140.1570 C   0  0  0  0  0  2  0  0  0  0  0  0
  194.5210  176.9300  136.3840 O   0  0  0  0  0  0  0  0  0  0  0  0
  192.5650  174.1820  137.6340 C   0  0  1  0  0  3  0  0  0  0  0  0
  191.5860  173.5500  135.3770 C   0  0  0  0  0  3  0  0  0  0  0  0
  188.7850  177.3610  139.4240 O   0  0  0  0  0  0  0  0  0  0  0  0
  192.0830  176.6460  137.9930 C   0  0  0  0  0  3  0  0  0  0  0  0
  187.3020  178.8150  136.7800 C   0  0  0  0  0  3  0  0  0  0  0  0
  186.4400  178.0510  134.5940 C   0  0  0  0  0  1  0  0  0  0  0  0
  189.5420  177.7060  137.1070 C   0  0  2  0  0  3  0  0  0  0  0  0
  187.5050  176.3760  136.1630 C   0  0  2  0  0  3  0  0  0  0  0  0
  194.6800  174.5860  136.5300 N   0  0  0  0  0  2  0  0  0  0  0  0
  194.0330  175.8240  136.7410 C   0  0  0  0  0  0  0  0  0  0  0  0
  188.5820  178.8740  137.1930 C   0  0  0  0  0  0  0  0  0  0  0  0
  189.6410  177.5350  140.5320 C   0  0  1  0  0  3  0  0  0  0  0  0
  189.2240  176.6730  135.6350 S   0  0  0  0  0  0  0  0  0  0  0  0
  190.1430  173.6290  137.3040 C   0  0  0  0  0  3  0  0  0  0  0  0
  189.2610  173.1590  135.1120 C   0  0  0  0  0  3  0  0  0  0  0  0
  186.6390  174.1090  136.4030 N   0  0  0  0  0  2  0  0  0  0  0  0
  191.4250  173.7340  136.7590 C   0  0  0  0  0  0  0  0  0  0  0  0
  187.6860  173.3610  137.0320 C   0  0  0  0  0  0  0  0  0  0  0  0
  186.8820  175.1840  135.4460 C   0  0  0  0  0  2  0  0  0  0  0  0
  190.5150  173.2530  134.5940 N   0  0  0  0  0  0  0  0  0  0  0  0
  189.0090  180.0090  137.8040 F   0  0  0  0  0  0  0  0  0  0  0  0
  190.9130  176.3980  138.8950 C   0  0  2  0  0  3  0  0  0  0  0  0
  190.2600  175.9650  142.2140 O   0  0  0  0  0  1  0  0  0  0  0  0
  189.1750  176.6610  141.6820 C   0  0  0  0  0  2  0  0  0  0  0  0
  2 30  1  0  0  0  0
  2 11  1  1  0  0  0
  3  9  1  0  0  0  0
  3 12  2  0  0  0  0
  5 14  1  6  0  0  0
  5 16  1  0  0  0  0
  5 13  1  0  0  0  0
  6 26  1  0  0  0  0
  6 22  1  0  0  0  0
  7 20  1  0  0  0  0
  8 18  2  0  0  0  0
  9  1  1  6  0  0  0
 10 25  1  0  0  0  0
 11 20  1  0  0  0  0
 13 19  2  0  0  0  0
 15 21  1  6  0  0  0
 15 19  1  0  0  0  0
 15  2  1  0  0  0  0
 16 27  1  6  0  0  0
 17 18  1  0  0  0  0
 17  1  1  0  0  0  0
 18  3  1  0  0  0  0
 19 29  1  0  0  0  0
 20 32  1  1  0  0  0
 21 16  1  0  0  0  0
 23  6  2  0  0  0  0
 24 26  1  0  0  0  0
 25 22  2  0  0  0  0
 25  9  1  0  0  0  0
 26  4  2  0  0  0  0
 27 24  1  0  0  0  0
 28 23  1  0  0  0  0
 28 10  2  0  0  0  0
 30 12  1  6  0  0  0
 30  7  1  0  0  0  0
 32 31  1  0  0  0  0
M  END
>  <MODEL>
1

>  <REMARK>
 VINA RESULT:      -7.0      0.000      0.000
  Name = 
  1 active torsions:
  status: ('A' for Active; 'I' for Inactive)
    1  A    between atoms: C_21  and  C_25
                            x       y       z     vdW  Elec       q    Type
                         _______ _______ _______ _____ _____    ______ ____

>  <TORSDO>
F 1

$$$$
=
 OpenBabel11042413113D

 32 36  0  0  1  0  0  0  0  0999 V2000
  186.1040  176.0960  135.9580 C   0  0  0  0  0  2  0  0  0  0  0  0
  180.8860  175.8640  137.9060 C   0  0  1  0  0  3  0  0  0  0  0  0
  184.2570  175.0420  137.0690 C   0  0  0  0  0  0  0  0  0  0  0  0
  181.1780  180.3360  136.9180 O   0  0  0  0  0  0  0  0  0  0  0  0
  179.6300  177.3860  141.1410 C   0  0  1  0  0  3  0  0  0  0  0  0
  182.9650  179.2530  138.0160 C   0  0  0  0  0  0  0  0  0  0  0  0
  180.9140  174.3170  136.1120 C   0  0  0  0  0  2  0  0  0  0  0  0
  185.5620  173.2510  137.9920 O   0  0  0  0  0  0  0  0  0  0  0  0
  184.6110  176.2890  136.3170 C   0  0  1  0  0  3  0  0  0  0  0  0
  185.3390  177.8290  138.2020 C   0  0  0  0  0  3  0  0  0  0  0  0
  179.5390  175.6670  137.5370 O   0  0  0  0  0  0  0  0  0  0  0  0
  183.0320  174.5770  137.3200 C   0  0  0  0  0  3  0  0  0  0  0  0
  179.2220  175.9580  140.8710 C   0  0  0  0  0  3  0  0  0  0  0  0
  180.0540  177.5170  142.5990 C   0  0  0  0  0  1  0  0  0  0  0  0
  181.1730  175.4330  139.3640 C   0  0  2  0  0  3  0  0  0  0  0  0
  180.7200  177.8690  140.1840 C   0  0  2  0  0  3  0  0  0  0  0  0
  186.5870  174.9550  136.7320 N   0  0  0  0  0  2  0  0  0  0  0  0
  185.4770  174.3280  137.3410 C   0  0  0  0  0  0  0  0  0  0  0  0
  179.9270  175.0710  140.1450 C   0  0  0  0  0  0  0  0  0  0  0  0
  179.5170  174.7970  136.4280 C   0  0  1  0  0  3  0  0  0  0  0  0
  182.1440  176.7320  140.2010 S   0  0  0  0  0  0  0  0  0  0  0  0
  183.2250  178.2180  137.1150 C   0  0  0  0  0  3  0  0  0  0  0  0
  183.9220  179.5610  138.9900 C   0  0  0  0  0  3  0  0  0  0  0  0
  180.9040  180.0980  139.2130 N   0  0  0  0  0  2  0  0  0  0  0  0
  184.4160  177.4930  137.1990 C   0  0  0  0  0  0  0  0  0  0  0  0
  181.6620  179.9340  138.0080 C   0  0  0  0  0  0  0  0  0  0  0  0
  181.1360  179.3150  140.4220 C   0  0  0  0  0  2  0  0  0  0  0  0
  185.0820  178.8560  139.0560 N   0  0  0  0  0  0  0  0  0  0  0  0
  179.4460  173.8070  140.0300 F   0  0  0  0  0  0  0  0  0  0  0  0
  181.7960  175.2730  136.8390 C   0  0  2  0  0  3  0  0  0  0  0  0
  178.9310  176.8900  135.4530 O   0  0  0  0  0  1  0  0  0  0  0  0
  178.9330  175.5140  135.2240 C   0  0  0  0  0  2  0  0  0  0  0  0
  1 17  1  0  0  0  0
  2 11  1  6  0  0  0
  2 15  1  0  0  0  0
  3 12  2  0  0  0  0
  3 18  1  0  0  0  0
  4 26  2  0  0  0  0
  5 14  1  1  0  0  0
  6 23  1  0  0  0  0
  7 20  1  0  0  0  0
  9  1  1  1  0  0  0
  9  3  1  0  0  0  0
  9 25  1  0  0  0  0
 10 28  1  0  0  0  0
 13  5  1  0  0  0  0
 15 19  1  1  0  0  0
 15 21  1  0  0  0  0
 16 21  1  0  0  0  0
 16 27  1  1  0  0  0
 16  5  1  0  0  0  0
 17 18  1  0  0  0  0
 18  8  2  0  0  0  0
 19 13  2  0  0  0  0
 20 32  1  6  0  0  0
 20 11  1  0  0  0  0
 22 25  1  0  0  0  0
 22  6  2  0  0  0  0
 23 28  2  0  0  0  0
 24 27  1  0  0  0  0
 25 10  2  0  0  0  0
 26  6  1  0  0  0  0
 26 24  1  0  0  0  0
 29 19  1  0  0  0  0
 30  7  1  1  0  0  0
 30 12  1  0  0  0  0
 30  2  1  0  0  0  0
 32 31  1  0  0  0  0
M  END
>  <MODEL>
2

>  <REMARK>
 VINA RESULT:      -4.8      6.578      9.449
  Name = 
  1 active torsions:
  status: ('A' for Active; 'I' for Inactive)
    1  A    between atoms: C_21  and  C_25
                            x       y       z     vdW  Elec       q    Type
                         _______ _______ _______ _____ _____    ______ ____

>  <TORSDO>
F 1

$$$$
=
 OpenBabel11042413113D

 32 36  0  0  1  0  0  0  0  0999 V2000
  181.3200  172.5630  135.5300 C   0  0  0  0  0  2  0  0  0  0  0  0
  181.7300  177.8980  137.0950 C   0  0  1  0  0  3  0  0  0  0  0  0
  180.7070  174.4890  136.8220 C   0  0  0  0  0  0  0  0  0  0  0  0
  185.5620  177.4940  134.6010 O   0  0  0  0  0  0  0  0  0  0  0  0
  184.2870  179.3420  139.4900 C   0  0  1  0  0  3  0  0  0  0  0  0
  184.9630  175.7930  136.1240 C   0  0  0  0  0  0  0  0  0  0  0  0
  179.6470  177.7710  135.9740 C   0  0  0  0  0  2  0  0  0  0  0  0
  179.3780  173.2650  138.4040 O   0  0  0  0  0  0  0  0  0  0  0  0
  181.6090  174.0740  135.7000 C   0  0  1  0  0  3  0  0  0  0  0  0
  183.7280  173.4520  136.9560 C   0  0  0  0  0  3  0  0  0  0  0  0
  181.3980  179.2200  136.7340 O   0  0  0  0  0  0  0  0  0  0  0  0
  180.3460  175.7320  137.1440 C   0  0  0  0  0  3  0  0  0  0  0  0
  182.8520  179.7470  139.7200 C   0  0  0  0  0  3  0  0  0  0  0  0
  184.9340  179.0110  140.8290 C   0  0  0  0  0  1  0  0  0  0  0  0
  181.8500  177.7090  138.6250 C   0  0  2  0  0  3  0  0  0  0  0  0
  184.4120  178.1870  138.4940 C   0  0  2  0  0  3  0  0  0  0  0  0
  180.5360  172.1430  136.6880 N   0  0  0  0  0  2  0  0  0  0  0  0
  180.1520  173.2970  137.4080 C   0  0  0  0  0  0  0  0  0  0  0  0
  181.7730  179.0070  139.4030 C   0  0  0  0  0  0  0  0  0  0  0  0
  180.1900  179.1800  136.0090 C   0  0  1  0  0  3  0  0  0  0  0  0
  183.3740  176.7800  139.0060 S   0  0  0  0  0  0  0  0  0  0  0  0
  183.6790  175.4870  135.6690 C   0  0  0  0  0  3  0  0  0  0  0  0
  185.6090  174.8970  136.9840 C   0  0  0  0  0  3  0  0  0  0  0  0
  186.1520  177.9170  136.8080 N   0  0  0  0  0  2  0  0  0  0  0  0
  183.0460  174.3120  136.0810 C   0  0  0  0  0  0  0  0  0  0  0  0
  185.5800  177.0850  135.7920 C   0  0  0  0  0  0  0  0  0  0  0  0
  185.8540  177.7720  138.2290 C   0  0  0  0  0  2  0  0  0  0  0  0
  184.9880  173.7510  137.3710 N   0  0  0  0  0  0  0  0  0  0  0  0
  180.5450  179.4930  139.7150 F   0  0  0  0  0  0  0  0  0  0  0  0
  180.8100  176.9270  136.3680 C   0  0  2  0  0  3  0  0  0  0  0  0
  180.8690  180.9990  134.6270 O   0  0  0  0  0  1  0  0  0  0  0  0
  180.4250  179.6770  134.5940 C   0  0  0  0  0  2  0  0  0  0  0  0
  1 17  1  0  0  0  0
  2 11  1  1  0  0  0
  2 15  1  0  0  0  0
  3 12  2  0  0  0  0
  3 18  1  0  0  0  0
  4 26  2  0  0  0  0
  5 13  1  0  0  0  0
  5 14  1  1  0  0  0
  6 23  1  0  0  0  0
  7 20  1  0  0  0  0
  9  1  1  1  0  0  0
  9 25  1  0  0  0  0
  9  3  1  0  0  0  0
 10 28  1  0  0  0  0
 15 21  1  6  0  0  0
 15 19  1  0  0  0  0
 16 27  1  1  0  0  0
 16 21  1  0  0  0  0
 16  5  1  0  0  0  0
 17 18  1  0  0  0  0
 18  8  2  0  0  0  0
 19 29  1  0  0  0  0
 19 13  2  0  0  0  0
 20 32  1  6  0  0  0
 20 11  1  0  0  0  0
 22 25  1  0  0  0  0
 22  6  2  0  0  0  0
 23 28  2  0  0  0  0
 24 27  1  0  0  0  0
 25 10  2  0  0  0  0
 26  6  1  0  0  0  0
 26 24  1  0  0  0  0
 30  7  1  1  0  0  0
 30  2  1  0  0  0  0
 30 12  1  0  0  0  0
 32 31  1  0  0  0  0
M  END
>  <MODEL>
3

>  <REMARK>
 VINA RESULT:      -4.7      5.780      9.233
  Name = 
  1 active torsions:
  status: ('A' for Active; 'I' for Inactive)
    1  A    between atoms: C_21  and  C_25
                            x       y       z     vdW  Elec       q    Type
                         _______ _______ _______ _____ _____    ______ ____

>  <TORSDO>
F 1

$$$$
=
 OpenBabel11042413113D

 32 36  0  0  1  0  0  0  0  0999 V2000
  179.0470  174.9760  138.6360 C   0  0  0  0  0  2  0  0  0  0  0  0
  181.2410  178.8750  141.9620 C   0  0  1  0  0  3  0  0  0  0  0  0
  179.7440  175.8700  140.7510 C   0  0  0  0  0  0  0  0  0  0  0  0
  182.4090  180.5670  137.8580 O   0  0  0  0  0  0  0  0  0  0  0  0
  184.9320  179.5460  142.4990 C   0  0  1  0  0  3  0  0  0  0  0  0
  182.6710  178.2640  138.3010 C   0  0  0  0  0  0  0  0  0  0  0  0
  178.9450  178.8310  142.5410 C   0  0  0  0  0  2  0  0  0  0  0  0
  179.5790  173.7810  141.9250 O   0  0  0  0  0  0  0  0  0  0  0  0
  179.6200  176.2480  139.3060 C   0  0  1  0  0  3  0  0  0  0  0  0
  181.9080  175.5980  138.4130 C   0  0  0  0  0  3  0  0  0  0  0  0
  180.9780  180.0980  142.6120 O   0  0  0  0  0  0  0  0  0  0  0  0
  179.8880  176.6970  141.7870 C   0  0  0  0  0  3  0  0  0  0  0  0
  184.0800  179.4620  143.7420 C   0  0  0  0  0  3  0  0  0  0  0  0
  186.2260  178.7750  142.7270 C   0  0  0  0  0  1  0  0  0  0  0  0
  182.2910  178.0180  142.7070 C   0  0  2  0  0  3  0  0  0  0  0  0
  184.1900  179.0610  141.2520 C   0  0  2  0  0  3  0  0  0  0  0  0
  179.1440  173.8950  139.6130 N   0  0  0  0  0  2  0  0  0  0  0  0
  179.5150  174.4520  140.8580 C   0  0  0  0  0  0  0  0  0  0  0  0
  182.9510  178.7390  143.8640 C   0  0  0  0  0  0  0  0  0  0  0  0
  179.6020  180.1370  142.9200 C   0  0  1  0  0  3  0  0  0  0  0  0
  183.5190  177.3860  141.5130 S   0  0  0  0  0  0  0  0  0  0  0  0
  181.3710  177.9300  138.6860 C   0  0  0  0  0  3  0  0  0  0  0  0
  183.5620  177.2380  137.9630 C   0  0  0  0  0  3  0  0  0  0  0  0
  184.3480  180.0160  139.0150 N   0  0  0  0  0  2  0  0  0  0  0  0
  180.9750  176.5920  138.7470 C   0  0  0  0  0  0  0  0  0  0  0  0
  183.1270  179.6600  138.3560 C   0  0  0  0  0  0  0  0  0  0  0  0
  185.0230  179.1540  139.9800 C   0  0  0  0  0  2  0  0  0  0  0  0
  183.1630  175.9400  138.0160 N   0  0  0  0  0  0  0  0  0  0  0  0
  182.3190  178.7310  145.0660 F   0  0  0  0  0  0  0  0  0  0  0  0
  179.9270  178.1860  141.6260 C   0  0  2  0  0  3  0  0  0  0  0  0
  179.7050  181.6170  141.0550 O   0  0  0  0  0  1  0  0  0  0  0  0
  178.9410  181.2820  142.1740 C   0  0  0  0  0  2  0  0  0  0  0  0
  1 17  1  0  0  0  0
  2 11  1  1  0  0  0
  2 15  1  0  0  0  0
  3 18  1  0  0  0  0
  3 12  2  0  0  0  0
  4 26  2  0  0  0  0
  5 14  1  1  0  0  0
  5 13  1  0  0  0  0
  6 26  1  0  0  0  0
  6 22  1  0  0  0  0
  7 20  1  0  0  0  0
  9  1  1  6  0  0  0
  9  3  1  0  0  0  0
 10 25  1  0  0  0  0
 11 20  1  0  0  0  0
 13 19  2  0  0  0  0
 15 21  1  6  0  0  0
 15 19  1  0  0  0  0
 16 27  1  6  0  0  0
 16 21  1  0  0  0  0
 16  5  1  0  0  0  0
 17 18  1  0  0  0  0
 18  8  2  0  0  0  0
 19 29  1  0  0  0  0
 20 32  1  6  0  0  0
 22 25  2  0  0  0  0
 23 28  1  0  0  0  0
 23  6  2  0  0  0  0
 24 27  1  0  0  0  0
 25  9  1  0  0  0  0
 26 24  1  0  0  0  0
 28 10  2  0  0  0  0
 30 12  1  1  0  0  0
 30  2  1  0  0  0  0
 30  7  1  0  0  0  0
 31 32  1  0  0  0  0
M  END
>  <MODEL>
4

>  <REMARK>
 VINA RESULT:      -4.6      7.639     10.649
  Name = 
  1 active torsions:
  status: ('A' for Active; 'I' for Inactive)
    1  A    between atoms: C_21  and  C_25
                            x       y       z     vdW  Elec       q    Type
                         _______ _______ _______ _____ _____    ______ ____

>  <TORSDO>
F 1

$$$$
=
 OpenBabel11042413113D

 32 36  0  0  1  0  0  0  0  0999 V2000
  186.4900  178.7200  138.0480 C   0  0  0  0  0  2  0  0  0  0  0  0
  181.2760  176.9320  137.2120 C   0  0  1  0  0  3  0  0  0  0  0  0
  184.8380  177.1320  137.3350 C   0  0  0  0  0  0  0  0  0  0  0  0
  180.4550  180.6150  139.8240 O   0  0  0  0  0  0  0  0  0  0  0  0
  178.9700  175.4450  139.8250 C   0  0  1  0  0  3  0  0  0  0  0  0
  182.2020  179.1340  140.3930 C   0  0  0  0  0  0  0  0  0  0  0  0
  182.1380  177.2760  135.0320 C   0  0  0  0  0  2  0  0  0  0  0  0
  186.3810  175.3040  137.1280 O   0  0  0  0  0  0  0  0  0  0  0  0
  184.9650  178.5280  137.8660 C   0  0  1  0  0  3  0  0  0  0  0  0
  184.7910  178.1360  140.3710 C   0  0  0  0  0  3  0  0  0  0  0  0
  180.1570  177.0400  136.3610 O   0  0  0  0  0  0  0  0  0  0  0  0
  183.7780  176.6000  136.7250 C   0  0  0  0  0  3  0  0  0  0  0  0
  179.0640  174.7010  138.5150 C   0  0  0  0  0  3  0  0  0  0  0  0
  179.0150  174.4430  140.9720 C   0  0  0  0  0  1  0  0  0  0  0  0
  181.3580  175.5580  137.9180 C   0  0  2  0  0  3  0  0  0  0  0  0
  180.0500  176.5190  139.9610 C   0  0  2  0  0  3  0  0  0  0  0  0
  187.1080  177.4040  137.9050 N   0  0  0  0  0  2  0  0  0  0  0  0
  186.1260  176.4980  137.4450 C   0  0  0  0  0  0  0  0  0  0  0  0
  180.1350  174.6910  137.7000 C   0  0  0  0  0  0  0  0  0  0  0  0
  180.6280  177.3070  135.0580 C   0  0  1  0  0  3  0  0  0  0  0  0
  181.7060  175.8070  139.6930 S   0  0  0  0  0  0  0  0  0  0  0  0
  182.9390  179.1440  139.2070 C   0  0  0  0  0  3  0  0  0  0  0  0
  182.7960  178.6290  141.5560 C   0  0  0  0  0  3  0  0  0  0  0  0
  179.7790  178.7170  140.9820 N   0  0  0  0  0  2  0  0  0  0  0  0
  184.2430  178.6440  139.1820 C   0  0  0  0  0  0  0  0  0  0  0  0
  180.7910  179.5430  140.3930 C   0  0  0  0  0  0  0  0  0  0  0  0
  179.9650  177.2980  141.2680 C   0  0  0  0  0  2  0  0  0  0  0  0
  184.0700  178.1540  141.5230 N   0  0  0  0  0  0  0  0  0  0  0  0
  180.0800  173.9350  136.5740 F   0  0  0  0  0  0  0  0  0  0  0  0
  182.5250  177.3800  136.4670 C   0  0  2  0  0  3  0  0  0  0  0  0
  179.1970  179.1570  135.5150 O   0  0  0  0  0  1  0  0  0  0  0  0
  180.1320  178.6670  134.6030 C   0  0  0  0  0  2  0  0  0  0  0  0
  2 11  1  6  0  0  0
  2 15  1  0  0  0  0
  3 18  1  0  0  0  0
  3  9  1  0  0  0  0
  4 26  2  0  0  0  0
  5 16  1  0  0  0  0
  5 14  1  1  0  0  0
  6 26  1  0  0  0  0
  6 23  1  0  0  0  0
  7 20  1  0  0  0  0
  8 18  2  0  0  0  0
  9  1  1  1  0  0  0
  9 25  1  0  0  0  0
 10 28  1  0  0  0  0
 12  3  2  0  0  0  0
 13  5  1  0  0  0  0
 15 19  1  1  0  0  0
 15 21  1  0  0  0  0
 16 27  1  1  0  0  0
 17  1  1  0  0  0  0
 18 17  1  0  0  0  0
 19 13  2  0  0  0  0
 20 32  1  1  0  0  0
 20 11  1  0  0  0  0
 21 16  1  0  0  0  0
 22  6  2  0  0  0  0
 24 27  1  0  0  0  0
 25 22  1  0  0  0  0
 25 10  2  0  0  0  0
 26 24  1  0  0  0  0
 28 23  2  0  0  0  0
 29 19  1  0  0  0  0
 30  7  1  6  0  0  0
 30 12  1  0  0  0  0
 30  2  1  0  0  0  0
 32 31  1  0  0  0  0
M  END
>  <MODEL>
5

>  <REMARK>
 VINA RESULT:      -4.6      6.724      9.558
  Name = 
  1 active torsions:
  status: ('A' for Active; 'I' for Inactive)
    1  A    between atoms: C_21  and  C_25
                            x       y       z     vdW  Elec       q    Type
                         _______ _______ _______ _____ _____    ______ ____

>  <TORSDO>
F 1

$$$$
=
 OpenBabel11042413113D

 32 36  0  0  1  0  0  0  0  0999 V2000
  180.6200  181.5740  134.5940 C   0  0  0  0  0  2  0  0  0  0  0  0
  182.0880  178.2310  138.8070 C   0  0  1  0  0  3  0  0  0  0  0  0
  180.7190  180.9210  136.9010 C   0  0  0  0  0  0  0  0  0  0  0  0
  183.0860  175.5190  135.2420 O   0  0  0  0  0  0  0  0  0  0  0  0
  180.3430  175.0320  139.8440 C   0  0  1  0  0  3  0  0  0  0  0  0
  181.0640  176.7360  135.2670 C   0  0  0  0  0  0  0  0  0  0  0  0
  183.3890  180.1860  139.1250 C   0  0  0  0  0  2  0  0  0  0  0  0
  179.0600  182.4940  137.6350 O   0  0  0  0  0  0  0  0  0  0  0  0
  181.2210  180.5140  135.5480 C   0  0  1  0  0  3  0  0  0  0  0  0
  179.4040  178.9080  134.7920 C   0  0  0  0  0  3  0  0  0  0  0  0
  183.1580  177.8580  139.6460 O   0  0  0  0  0  0  0  0  0  0  0  0
  181.1950  180.5310  138.0840 C   0  0  0  0  0  3  0  0  0  0  0  0
  180.6810  175.9990  140.9530 C   0  0  0  0  0  3  0  0  0  0  0  0
  178.9310  174.5010  140.0570 C   0  0  0  0  0  1  0  0  0  0  0  0
  180.7090  178.0470  139.4830 C   0  0  2  0  0  3  0  0  0  0  0  0
  180.5170  175.6540  138.4580 C   0  0  2  0  0  3  0  0  0  0  0  0
  179.6180  182.3160  135.3540 N   0  0  0  0  0  2  0  0  0  0  0  0
  179.7240  181.9450  136.7140 C   0  0  0  0  0  0  0  0  0  0  0  0
  180.7790  177.3350  140.8180 C   0  0  0  0  0  0  0  0  0  0  0  0
  183.9930  178.9830  139.8100 C   0  0  1  0  0  3  0  0  0  0  0  0
  179.5730  177.2070  138.3260 S   0  0  0  0  0  0  0  0  0  0  0  0
  181.5510  178.0320  135.4440 C   0  0  0  0  0  3  0  0  0  0  0  0
  179.7440  176.5600  134.8360 C   0  0  0  0  0  3  0  0  0  0  0  0
  181.3770  174.5340  136.4700 N   0  0  0  0  0  2  0  0  0  0  0  0
  180.7260  179.1340  135.2100 C   0  0  0  0  0  0  0  0  0  0  0  0
  181.8900  175.5760  135.6320 C   0  0  0  0  0  0  0  0  0  0  0  0
  180.2010  174.6910  137.3200 C   0  0  0  0  0  2  0  0  0  0  0  0
  178.9520  177.6400  134.6010 N   0  0  0  0  0  0  0  0  0  0  0  0
  181.0480  178.0750  141.9240 F   0  0  0  0  0  0  0  0  0  0  0  0
  182.3650  179.6040  138.2110 C   0  0  2  0  0  3  0  0  0  0  0  0
  186.3360  178.8390  140.2200 O   0  0  0  0  0  1  0  0  0  0  0  0
  185.3650  178.6940  139.2290 C   0  0  0  0  0  2  0  0  0  0  0  0
  1 17  1  0  0  0  0
  2 15  1  0  0  0  0
  2 11  1  1  0  0  0
  3 12  2  0  0  0  0
  4 26  2  0  0  0  0
  5 14  1  1  0  0  0
  5 13  1  0  0  0  0
  6 22  1  0  0  0  0
  6 26  1  0  0  0  0
  7 20  1  0  0  0  0
  9  1  1  6  0  0  0
  9  3  1  0  0  0  0
 10 25  1  0  0  0  0
 11 20  1  0  0  0  0
 15 21  1  6  0  0  0
 15 19  1  0  0  0  0
 16 27  1  6  0  0  0
 16  5  1  0  0  0  0
 17 18  1  0  0  0  0
 18  3  1  0  0  0  0
 18  8  2  0  0  0  0
 19 13  2  0  0  0  0
 19 29  1  0  0  0  0
 20 32  1  6  0  0  0
 21 16  1  0  0  0  0
 23  6  2  0  0  0  0
 24 27  1  0  0  0  0
 25 22  2  0  0  0  0
 25  9  1  0  0  0  0
 26 24  1  0  0  0  0
 28 10  2  0  0  0  0
 28 23  1  0  0  0  0
 30 12  1  1  0  0  0
 30  2  1  0  0  0  0
 30  7  1  0  0  0  0
 32 31  1  0  0  0  0
M  END
>  <MODEL>
6

>  <REMARK>
 VINA RESULT:      -4.1      7.152     10.296
  Name = 
  1 active torsions:
  status: ('A' for Active; 'I' for Inactive)
    1  A    between atoms: C_21  and  C_25
                            x       y       z     vdW  Elec       q    Type
                         _______ _______ _______ _____ _____    ______ ____

>  <TORSDO>
F 1

$$$$
