=
 OpenBabel11032419103D

 42 45  0  0  1  0  0  0  0  0999 V2000
  190.5340  175.8430  138.7720 C   0  0  0  0  0  2  0  0  0  0  0  0
  189.0270  174.6230  136.6390 C   0  0  0  0  0  3  0  0  0  0  0  0
  185.1870  175.8940  135.5800 O   0  0  0  0  0  1  0  0  0  0  0  0
  188.2700  173.8990  135.7210 C   0  0  0  0  0  3  0  0  0  0  0  0
  188.5050  175.7780  137.2440 C   0  0  0  0  0  0  0  0  0  0  0  0
  186.6200  177.4400  137.5350 C   0  0  0  0  0  0  0  0  0  0  0  0
  185.2430  177.3800  137.9330 N   0  0  0  0  0  2  0  0  0  0  0  0
  188.9680  180.0680  137.2390 O   0  0  0  0  0  0  0  0  0  0  0  0
  186.4590  175.4860  135.9600 C   0  0  0  0  0  0  0  0  0  0  0  0
  189.7630  177.8540  137.4840 C   0  0  0  0  0  2  0  0  0  0  0  0
  189.3350  176.5880  138.1930 C   0  0  2  0  0  3  0  0  0  0  0  0
  188.6580  178.8680  137.4560 C   0  0  0  0  0  0  0  0  0  0  0  0
  187.2800  178.5520  137.7250 N   0  0  0  0  0  0  0  0  0  0  0  0
  187.2150  176.2330  136.8940 C   0  0  0  0  0  0  0  0  0  0  0  0
  186.9890  174.3300  135.3860 C   0  0  0  0  0  3  0  0  0  0  0  0
  184.5440  178.4760  138.5930 C   0  0  0  0  0  2  0  0  0  0  0  0
  183.2610  178.0010  139.1860 C   0  0  0  0  0  0  0  0  0  0  0  0
  182.9240  176.6450  139.1200 C   0  0  0  0  0  3  0  0  0  0  0  0
  181.1910  178.4590  140.3610 C   0  0  0  0  0  3  0  0  0  0  0  0
  180.8540  177.1030  140.2930 C   0  0  0  0  0  3  0  0  0  0  0  0
  182.3950  178.9070  139.8090 C   0  0  0  0  0  3  0  0  0  0  0  0
  181.7200  176.1960  139.6740 C   0  0  0  0  0  3  0  0  0  0  0  0
  193.7840  177.5430  139.8070 N   0  0  0  0  0  1  0  0  0  0  0  0
  192.8570  176.7320  139.0920 C   0  0  0  0  0  0  0  0  0  0  0  0
  191.4550  176.7790  139.4060 N   0  0  0  0  0  0  0  0  0  0  0  0
  193.2820  175.9650  138.1870 O   0  0  0  0  0  0  0  0  0  0  0  0
  190.9390  177.6770  140.4350 C   0  0  0  0  0  2  0  0  0  0  0  0
  189.5580  177.7620  142.4420 N   0  0  0  0  0  0  0  0  0  0  0  0
  191.4590  176.3580  142.4850 C   0  0  0  0  0  2  0  0  0  0  0  0
  190.3640  176.8930  141.6080 C   0  0  2  0  0  3  0  0  0  0  0  0
  190.9690  176.4320  143.8460 N   0  0  0  0  0  2  0  0  0  0  0  0
  189.8470  177.3660  143.8190 C   0  0  1  0  0  3  0  0  0  0  0  0
  190.1790  178.5940  144.6480 C   0  0  0  0  0  2  0  0  0  0  0  0
  191.0600  179.4160  143.9430 O   0  0  0  0  0  1  0  0  0  0  0  0
  188.1670  177.4260  142.1710 C   0  0  0  0  0  2  0  0  0  0  0  0
  187.5310  178.4810  141.2810 C   0  0  0  0  0  2  0  0  0  0  0  0
  185.9260  179.0020  141.9600 S   0  0  0  0  0  0  0  0  0  0  0  0
  186.1080  177.9290  143.4210 C   0  0  0  0  0  2  0  0  0  0  0  0
  185.5160  178.3840  145.8470 C   0  0  0  0  0  0  0  0  0  0  0  0
  184.6500  178.7340  146.6890 O   0  0  0  0  0  0  0  0  0  0  0  0
  186.8810  178.0150  146.3200 C   0  0  0  0  0  1  0  0  0  0  0  0
  185.1720  178.3380  144.4580 N   0  0  0  0  0  2  0  0  0  0  0  0
  1 25  1  0  0  0  0
  2  5  1  0  0  0  0
  3  9  1  0  0  0  0
  4  2  2  0  0  0  0
  5 11  1  0  0  0  0
  6 13  2  0  0  0  0
  6  7  1  0  0  0  0
  7 16  1  0  0  0  0
  8 12  2  0  0  0  0
  9 14  1  0  0  0  0
 10 11  1  0  0  0  0
 11  1  1  6  0  0  0
 12 10  1  0  0  0  0
 12 13  1  0  0  0  0
 14  5  2  0  0  0  0
 14  6  1  0  0  0  0
 15  4  1  0  0  0  0
 15  9  2  0  0  0  0
 16 17  1  0  0  0  0
 17 21  1  0  0  0  0
 18 17  2  0  0  0  0
 18 22  1  0  0  0  0
 20 19  1  0  0  0  0
 21 19  2  0  0  0  0
 22 20  2  0  0  0  0
 24 25  1  0  0  0  0
 24 23  1  0  0  0  0
 25 27  1  0  0  0  0
 26 24  2  0  0  0  0
 28 32  1  0  0  0  0
 29 31  1  0  0  0  0
 30 27  1  6  0  0  0
 30 28  1  0  0  0  0
 30 29  1  0  0  0  0
 32 31  1  0  0  0  0
 32 33  1  1  0  0  0
 34 33  1  0  0  0  0
 35 28  1  0  0  0  0
 36 37  1  0  0  0  0
 36 35  1  0  0  0  0
 37 38  1  0  0  0  0
 38 42  1  0  0  0  0
 39 41  1  0  0  0  0
 39 40  2  0  0  0  0
 42 39  1  0  0  0  0
M  END
>  <MODEL>
1

>  <REMARK>
 VINA RESULT:      -7.6      0.000      0.000
  Name = 
  12 active torsions:
  status: ('A' for Active; 'I' for Inactive)
    1  A    between atoms: C_1  and  C_39
    2  A    between atoms: N_6  and  C_19
    3  A    between atoms: N_6  and  C_37
    4  A    between atoms: C_10  and  C_40
    5  A    between atoms: C_12  and  N_21
    6  A    between atoms: C_12  and  C_24
    7  A    between atoms: S_13  and  C_24
    8  A    between atoms: S_13  and  C_25
    9  A    between atoms: C_19  and  C_33
   10  A    between atoms: C_25  and  N_42
   11  A    between atoms: N_26  and  C_39
   12  A    between atoms: C_28  and  C_37
                            x       y       z     vdW  Elec       q    Type
                         _______ _______ _______ _____ _____    ______ ____

>  <TORSDO>
F 12

$$$$
=
 OpenBabel11032419103D

 42 45  0  0  1  0  0  0  0  0999 V2000
  181.1210  177.0430  139.0910 C   0  0  0  0  0  2  0  0  0  0  0  0
  180.3530  178.1660  141.6320 C   0  0  0  0  0  3  0  0  0  0  0  0
  183.1490  179.3650  144.5020 O   0  0  0  0  0  1  0  0  0  0  0  0
  179.9410  178.5440  142.9080 C   0  0  0  0  0  3  0  0  0  0  0  0
  181.7170  178.1580  141.2950 C   0  0  0  0  0  0  0  0  0  0  0  0
  184.1350  178.5480  141.9280 C   0  0  0  0  0  0  0  0  0  0  0  0
  185.0330  178.0520  142.9310 N   0  0  0  0  0  2  0  0  0  0  0  0
  184.5890  180.2950  138.8870 O   0  0  0  0  0  0  0  0  0  0  0  0
  182.2430  178.9490  143.5340 C   0  0  0  0  0  0  0  0  0  0  0  0
  182.5900  179.0740  139.2090 C   0  0  0  0  0  2  0  0  0  0  0  0
  182.1610  177.8020  139.9090 C   0  0  2  0  0  3  0  0  0  0  0  0
  183.9670  179.4940  139.6310 C   0  0  0  0  0  0  0  0  0  0  0  0
  184.6330  178.9840  140.8010 N   0  0  0  0  0  0  0  0  0  0  0  0
  182.6780  178.5690  142.2440 C   0  0  0  0  0  0  0  0  0  0  0  0
  180.8840  178.9310  143.8560 C   0  0  0  0  0  3  0  0  0  0  0  0
  186.4750  177.9510  142.7450 C   0  0  0  0  0  2  0  0  0  0  0  0
  187.1630  177.7560  144.0530 C   0  0  0  0  0  0  0  0  0  0  0  0
  186.4200  177.7750  145.2390 C   0  0  0  0  0  3  0  0  0  0  0  0
  189.1880  177.3760  145.3280 C   0  0  0  0  0  3  0  0  0  0  0  0
  188.4460  177.3960  146.5130 C   0  0  0  0  0  3  0  0  0  0  0  0
  188.5470  177.5540  144.0980 C   0  0  0  0  0  3  0  0  0  0  0  0
  187.0630  177.5940  146.4680 C   0  0  0  0  0  3  0  0  0  0  0  0
  180.8090  177.6480  135.3410 N   0  0  0  0  0  1  0  0  0  0  0  0
  180.5620  177.7200  136.7420 C   0  0  0  0  0  0  0  0  0  0  0  0
  181.4570  177.0890  137.6730 N   0  0  0  0  0  0  0  0  0  0  0  0
  179.5420  178.3350  137.1550 O   0  0  0  0  0  0  0  0  0  0  0  0
  182.6550  176.3910  137.2160 C   0  0  0  0  0  2  0  0  0  0  0  0
  183.6000  174.1890  136.7680 N   0  0  0  0  0  0  0  0  0  0  0  0
  181.2500  174.3490  136.9530 C   0  0  0  0  0  2  0  0  0  0  0  0
  182.5480  174.8930  137.4740 C   0  0  2  0  0  3  0  0  0  0  0  0
  181.5350  173.0250  136.4400 N   0  0  0  0  0  2  0  0  0  0  0  0
  182.9820  172.9690  136.2530 C   0  0  1  0  0  3  0  0  0  0  0  0
  183.3050  172.8140  134.7780 C   0  0  0  0  0  2  0  0  0  0  0  0
  184.1730  171.7360  134.5950 O   0  0  0  0  0  1  0  0  0  0  0  0
  184.5810  173.7930  137.7700 C   0  0  0  0  0  2  0  0  0  0  0  0
  185.9870  173.8800  137.1970 C   0  0  0  0  0  2  0  0  0  0  0  0
  186.0870  175.2100  135.9610 S   0  0  0  0  0  0  0  0  0  0  0  0
  187.7330  175.7330  136.5420 C   0  0  0  0  0  2  0  0  0  0  0  0
  187.5350  177.8930  137.8590 C   0  0  0  0  0  0  0  0  0  0  0  0
  187.4430  178.4590  138.9780 O   0  0  0  0  0  0  0  0  0  0  0  0
  187.5730  178.7280  136.6240 C   0  0  0  0  0  1  0  0  0  0  0  0
  187.6090  176.4650  137.7930 N   0  0  0  0  0  2  0  0  0  0  0  0
  2  4  1  0  0  0  0
  4 15  2  0  0  0  0
  5  2  2  0  0  0  0
  5 14  1  0  0  0  0
  6 14  1  0  0  0  0
  6  7  1  0  0  0  0
  8 12  2  0  0  0  0
  9 15  1  0  0  0  0
  9  3  1  0  0  0  0
 10 12  1  0  0  0  0
 10 11  1  0  0  0  0
 11  1  1  6  0  0  0
 11  5  1  0  0  0  0
 12 13  1  0  0  0  0
 13  6  2  0  0  0  0
 14  9  2  0  0  0  0
 16  7  1  0  0  0  0
 16 17  1  0  0  0  0
 17 21  2  0  0  0  0
 17 18  1  0  0  0  0
 18 22  2  0  0  0  0
 19 20  2  0  0  0  0
 21 19  1  0  0  0  0
 22 20  1  0  0  0  0
 23 24  1  0  0  0  0
 24 26  2  0  0  0  0
 24 25  1  0  0  0  0
 25  1  1  0  0  0  0
 27 25  1  0  0  0  0
 28 30  1  0  0  0  0
 28 35  1  0  0  0  0
 29 30  1  0  0  0  0
 30 27  1  6  0  0  0
 31 29  1  0  0  0  0
 32 33  1  6  0  0  0
 32 31  1  0  0  0  0
 32 28  1  0  0  0  0
 34 33  1  0  0  0  0
 36 35  1  0  0  0  0
 37 38  1  0  0  0  0
 37 36  1  0  0  0  0
 38 42  1  0  0  0  0
 39 40  2  0  0  0  0
 41 39  1  0  0  0  0
 42 39  1  0  0  0  0
M  END
>  <MODEL>
2

>  <REMARK>
 VINA RESULT:      -7.4      3.224      9.253
  Name = 
  12 active torsions:
  status: ('A' for Active; 'I' for Inactive)
    1  A    between atoms: C_1  and  C_39
    2  A    between atoms: N_6  and  C_19
    3  A    between atoms: N_6  and  C_37
    4  A    between atoms: C_10  and  C_40
    5  A    between atoms: C_12  and  N_21
    6  A    between atoms: C_12  and  C_24
    7  A    between atoms: S_13  and  C_24
    8  A    between atoms: S_13  and  C_25
    9  A    between atoms: C_19  and  C_33
   10  A    between atoms: C_25  and  N_42
   11  A    between atoms: N_26  and  C_39
   12  A    between atoms: C_28  and  C_37
                            x       y       z     vdW  Elec       q    Type
                         _______ _______ _______ _____ _____    ______ ____

>  <TORSDO>
F 12

$$$$
=
 OpenBabel11032419103D

 42 45  0  0  1  0  0  0  0  0999 V2000
  180.8700  177.3490  139.4050 C   0  0  0  0  0  2  0  0  0  0  0  0
  180.3690  178.4950  142.0020 C   0  0  0  0  0  3  0  0  0  0  0  0
  183.4360  179.3760  144.7050 O   0  0  0  0  0  1  0  0  0  0  0  0
  180.0730  178.8860  143.3050 C   0  0  0  0  0  3  0  0  0  0  0  0
  181.7030  178.3640  141.5800 C   0  0  0  0  0  0  0  0  0  0  0  0
  184.1810  178.5150  142.0650 C   0  0  0  0  0  0  0  0  0  0  0  0
  185.0870  177.9190  143.0040 N   0  0  0  0  0  2  0  0  0  0  0  0
  184.6110  180.2650  139.0220 O   0  0  0  0  0  0  0  0  0  0  0  0
  182.4370  179.0630  143.7910 C   0  0  0  0  0  0  0  0  0  0  0  0
  182.5290  179.2300  139.4550 C   0  0  0  0  0  2  0  0  0  0  0  0
  182.0260  177.9930  140.1650 C   0  0  2  0  0  3  0  0  0  0  0  0
  183.9620  179.5120  139.7940 C   0  0  0  0  0  0  0  0  0  0  0  0
  184.6480  178.9220  140.9140 N   0  0  0  0  0  0  0  0  0  0  0  0
  182.7550  178.6670  142.4720 C   0  0  0  0  0  0  0  0  0  0  0  0
  181.1050  179.1670  144.1970 C   0  0  0  0  0  3  0  0  0  0  0  0
  186.5000  177.6860  142.7260 C   0  0  0  0  0  2  0  0  0  0  0  0
  187.2820  177.6250  143.9940 C   0  0  0  0  0  0  0  0  0  0  0  0
  186.6160  177.6440  145.2240 C   0  0  0  0  0  3  0  0  0  0  0  0
  189.4090  177.4920  145.1470 C   0  0  0  0  0  3  0  0  0  0  0  0
  188.7430  177.5120  146.3770 C   0  0  0  0  0  3  0  0  0  0  0  0
  188.6790  177.5460  143.9570 C   0  0  0  0  0  3  0  0  0  0  0  0
  187.3480  177.5870  146.4160 C   0  0  0  0  0  3  0  0  0  0  0  0
  180.1160  173.7330  140.3460 N   0  0  0  0  0  1  0  0  0  0  0  0
  179.9600  175.1360  140.1570 C   0  0  0  0  0  0  0  0  0  0  0  0
  180.9670  175.8950  139.4680 N   0  0  0  0  0  0  0  0  0  0  0  0
  178.9310  175.7060  140.6100 O   0  0  0  0  0  0  0  0  0  0  0  0
  182.1550  175.2510  138.9150 C   0  0  0  0  0  2  0  0  0  0  0  0
  182.7450  176.3930  136.8440 N   0  0  0  0  0  0  0  0  0  0  0  0
  180.6810  175.2430  136.9050 C   0  0  0  0  0  2  0  0  0  0  0  0
  182.1010  175.2160  137.3930 C   0  0  2  0  0  3  0  0  0  0  0  0
  180.6780  176.0330  135.6910 N   0  0  0  0  0  2  0  0  0  0  0  0
  181.9200  176.8000  135.7080 C   0  0  1  0  0  3  0  0  0  0  0  0
  181.6090  178.2830  135.8050 C   0  0  0  0  0  2  0  0  0  0  0  0
  180.2310  178.4850  135.7020 O   0  0  0  0  0  1  0  0  0  0  0  0
  184.0310  175.9570  136.3180 C   0  0  0  0  0  2  0  0  0  0  0  0
  185.1670  176.6390  137.0630 C   0  0  0  0  0  2  0  0  0  0  0  0
  186.7630  176.2450  136.2870 S   0  0  0  0  0  0  0  0  0  0  0  0
  187.3420  177.9670  136.4180 C   0  0  0  0  0  2  0  0  0  0  0  0
  188.3510  178.3360  138.7180 C   0  0  0  0  0  0  0  0  0  0  0  0
  188.1990  178.7320  139.9020 O   0  0  0  0  0  0  0  0  0  0  0  0
  189.6720  177.7830  138.3010 C   0  0  0  0  0  1  0  0  0  0  0  0
  187.2550  178.4170  137.7990 N   0  0  0  0  0  2  0  0  0  0  0  0
  1 25  1  0  0  0  0
  2  4  1  0  0  0  0
  4 15  2  0  0  0  0
  5  2  2  0  0  0  0
  5 14  1  0  0  0  0
  6 14  1  0  0  0  0
  6  7  1  0  0  0  0
  8 12  2  0  0  0  0
  9 15  1  0  0  0  0
  9  3  1  0  0  0  0
 10 12  1  0  0  0  0
 10 11  1  0  0  0  0
 11  1  1  6  0  0  0
 11  5  1  0  0  0  0
 12 13  1  0  0  0  0
 13  6  2  0  0  0  0
 14  9  2  0  0  0  0
 16  7  1  0  0  0  0
 16 17  1  0  0  0  0
 17 18  1  0  0  0  0
 18 22  2  0  0  0  0
 19 20  2  0  0  0  0
 20 22  1  0  0  0  0
 21 17  2  0  0  0  0
 21 19  1  0  0  0  0
 24 23  1  0  0  0  0
 24 26  2  0  0  0  0
 25 24  1  0  0  0  0
 27 25  1  0  0  0  0
 28 30  1  0  0  0  0
 29 30  1  0  0  0  0
 30 27  1  1  0  0  0
 31 32  1  0  0  0  0
 31 29  1  0  0  0  0
 32 33  1  1  0  0  0
 32 28  1  0  0  0  0
 34 33  1  0  0  0  0
 35 28  1  0  0  0  0
 35 36  1  0  0  0  0
 37 38  1  0  0  0  0
 37 36  1  0  0  0  0
 38 42  1  0  0  0  0
 39 40  2  0  0  0  0
 41 39  1  0  0  0  0
 42 39  1  0  0  0  0
M  END
>  <MODEL>
3

>  <REMARK>
 VINA RESULT:      -7.4      3.191      9.313
  Name = 
  12 active torsions:
  status: ('A' for Active; 'I' for Inactive)
    1  A    between atoms: C_1  and  C_39
    2  A    between atoms: N_6  and  C_19
    3  A    between atoms: N_6  and  C_37
    4  A    between atoms: C_10  and  C_40
    5  A    between atoms: C_12  and  N_21
    6  A    between atoms: C_12  and  C_24
    7  A    between atoms: S_13  and  C_24
    8  A    between atoms: S_13  and  C_25
    9  A    between atoms: C_19  and  C_33
   10  A    between atoms: C_25  and  N_42
   11  A    between atoms: N_26  and  C_39
   12  A    between atoms: C_28  and  C_37
                            x       y       z     vdW  Elec       q    Type
                         _______ _______ _______ _____ _____    ______ ____

>  <TORSDO>
F 12

$$$$
=
 OpenBabel11032419103D

 42 45  0  0  1  0  0  0  0  0999 V2000
  185.6160  176.2120  136.3770 C   0  0  0  0  0  2  0  0  0  0  0  0
  183.9500  177.9390  137.9740 C   0  0  0  0  0  3  0  0  0  0  0  0
  185.2980  179.7380  141.5000 O   0  0  0  0  0  1  0  0  0  0  0  0
  183.0650  178.6260  138.8010 C   0  0  0  0  0  3  0  0  0  0  0  0
  185.3060  177.8170  138.3210 C   0  0  0  0  0  0  0  0  0  0  0  0
  187.2130  178.2950  139.9140 C   0  0  0  0  0  0  0  0  0  0  0  0
  187.4910  178.0380  141.2980 N   0  0  0  0  0  2  0  0  0  0  0  0
  189.2080  179.2360  137.1500 O   0  0  0  0  0  0  0  0  0  0  0  0
  184.8740  179.1190  140.3310 C   0  0  0  0  0  0  0  0  0  0  0  0
  187.1330  178.1760  136.7460 C   0  0  0  0  0  2  0  0  0  0  0  0
  186.2720  177.1240  137.4100 C   0  0  2  0  0  3  0  0  0  0  0  0
  188.2180  178.6550  137.6650 C   0  0  0  0  0  0  0  0  0  0  0  0
  188.2160  178.4310  139.0870 N   0  0  0  0  0  0  0  0  0  0  0  0
  185.7860  178.4260  139.5020 C   0  0  0  0  0  0  0  0  0  0  0  0
  183.5270  179.2120  139.9780 C   0  0  0  0  0  3  0  0  0  0  0  0
  188.8370  177.8610  141.8310 C   0  0  0  0  0  2  0  0  0  0  0  0
  188.8010  177.7280  143.3160 C   0  0  0  0  0  0  0  0  0  0  0  0
  187.5770  177.5480  143.9690 C   0  0  0  0  0  3  0  0  0  0  0  0
  189.9500  177.6600  145.4480 C   0  0  0  0  0  3  0  0  0  0  0  0
  188.7260  177.4810  146.1010 C   0  0  0  0  0  3  0  0  0  0  0  0
  189.9880  177.7810  144.0560 C   0  0  0  0  0  3  0  0  0  0  0  0
  187.5400  177.4240  145.3620 C   0  0  0  0  0  3  0  0  0  0  0  0
  186.8020  172.6080  136.7330 N   0  0  0  0  0  1  0  0  0  0  0  0
  186.7970  174.0000  136.4340 C   0  0  0  0  0  0  0  0  0  0  0  0
  185.6800  174.8220  136.8130 N   0  0  0  0  0  0  0  0  0  0  0  0
  187.7790  174.5020  135.8240 O   0  0  0  0  0  0  0  0  0  0  0  0
  184.5430  174.2660  137.5400 C   0  0  0  0  0  2  0  0  0  0  0  0
  182.1150  174.0510  137.5170 N   0  0  0  0  0  0  0  0  0  0  0  0
  183.3000  173.2210  135.6490 C   0  0  0  0  0  2  0  0  0  0  0  0
  183.2790  174.3020  136.6910 C   0  0  2  0  0  3  0  0  0  0  0  0
  181.9370  172.7510  135.5150 N   0  0  0  0  0  2  0  0  0  0  0  0
  181.2370  173.2000  136.7150 C   0  0  1  0  0  3  0  0  0  0  0  0
  180.7970  172.0000  137.5350 C   0  0  0  0  0  2  0  0  0  0  0  0
  179.9670  171.1820  136.7670 O   0  0  0  0  0  1  0  0  0  0  0  0
  181.4430  175.3320  137.6920 C   0  0  0  0  0  2  0  0  0  0  0  0
  181.1370  175.5720  139.1610 C   0  0  0  0  0  2  0  0  0  0  0  0
  179.3830  176.0020  139.3800 S   0  0  0  0  0  0  0  0  0  0  0  0
  179.7870  177.4850  140.3580 C   0  0  0  0  0  2  0  0  0  0  0  0
  179.9180  178.1230  142.8110 C   0  0  0  0  0  0  0  0  0  0  0  0
  179.6190  177.8560  144.0030 O   0  0  0  0  0  0  0  0  0  0  0  0
  180.7410  179.3320  142.5220 C   0  0  0  0  0  1  0  0  0  0  0  0
  179.4720  177.2580  141.7600 N   0  0  0  0  0  2  0  0  0  0  0  0
  1 25  1  0  0  0  0
  2  5  2  0  0  0  0
  2  4  1  0  0  0  0
  4 15  2  0  0  0  0
  5 14  1  0  0  0  0
  6  7  1  0  0  0  0
  7 16  1  0  0  0  0
  8 12  2  0  0  0  0
  9  3  1  0  0  0  0
 10 11  1  0  0  0  0
 10 12  1  0  0  0  0
 11  1  1  6  0  0  0
 11  5  1  0  0  0  0
 12 13  1  0  0  0  0
 13  6  2  0  0  0  0
 14  6  1  0  0  0  0
 14  9  2  0  0  0  0
 15  9  1  0  0  0  0
 16 17  1  0  0  0  0
 17 18  2  0  0  0  0
 17 21  1  0  0  0  0
 18 22  1  0  0  0  0
 19 20  1  0  0  0  0
 21 19  2  0  0  0  0
 22 20  2  0  0  0  0
 24 23  1  0  0  0  0
 24 25  1  0  0  0  0
 25 27  1  0  0  0  0
 26 24  2  0  0  0  0
 28 35  1  0  0  0  0
 29 30  1  0  0  0  0
 30 28  1  0  0  0  0
 30 27  1  1  0  0  0
 31 29  1  0  0  0  0
 31 32  1  0  0  0  0
 32 28  1  0  0  0  0
 32 33  1  1  0  0  0
 34 33  1  0  0  0  0
 35 36  1  0  0  0  0
 36 37  1  0  0  0  0
 37 38  1  0  0  0  0
 38 42  1  0  0  0  0
 39 40  2  0  0  0  0
 41 39  1  0  0  0  0
 42 39  1  0  0  0  0
M  END
>  <MODEL>
4

>  <REMARK>
 VINA RESULT:      -7.3      3.265      7.739
  Name = 
  12 active torsions:
  status: ('A' for Active; 'I' for Inactive)
    1  A    between atoms: C_1  and  C_39
    2  A    between atoms: N_6  and  C_19
    3  A    between atoms: N_6  and  C_37
    4  A    between atoms: C_10  and  C_40
    5  A    between atoms: C_12  and  N_21
    6  A    between atoms: C_12  and  C_24
    7  A    between atoms: S_13  and  C_24
    8  A    between atoms: S_13  and  C_25
    9  A    between atoms: C_19  and  C_33
   10  A    between atoms: C_25  and  N_42
   11  A    between atoms: N_26  and  C_39
   12  A    between atoms: C_28  and  C_37
                            x       y       z     vdW  Elec       q    Type
                         _______ _______ _______ _____ _____    ______ ____

>  <TORSDO>
F 12

$$$$
=
 OpenBabel11032419103D

 42 45  0  0  1  0  0  0  0  0999 V2000
  190.3610  177.6870  139.9040 C   0  0  0  0  0  2  0  0  0  0  0  0
  191.4570  175.7200  138.1040 C   0  0  0  0  0  3  0  0  0  0  0  0
  189.0570  173.2860  135.6950 O   0  0  0  0  0  1  0  0  0  0  0  0
  192.0160  174.6710  137.3790 C   0  0  0  0  0  3  0  0  0  0  0  0
  190.0740  175.9630  138.0600 C   0  0  0  0  0  0  0  0  0  0  0  0
  187.7710  175.3750  137.1930 C   0  0  0  0  0  0  0  0  0  0  0  0
  186.9230  174.2190  137.2180 N   0  0  0  0  0  2  0  0  0  0  0  0
  187.2170  178.8010  136.5100 O   0  0  0  0  0  0  0  0  0  0  0  0
  189.8290  174.1000  136.5140 C   0  0  0  0  0  0  0  0  0  0  0  0
  189.1100  178.1880  137.7870 C   0  0  0  0  0  2  0  0  0  0  0  0
  189.4750  177.1220  138.7980 C   0  0  2  0  0  3  0  0  0  0  0  0
  187.8240  177.8630  137.0880 C   0  0  0  0  0  0  0  0  0  0  0  0
  187.2190  176.5560  137.0980 N   0  0  0  0  0  0  0  0  0  0  0  0
  189.2460  175.1610  137.2440 C   0  0  0  0  0  0  0  0  0  0  0  0
  191.2030  173.8620  136.5890 C   0  0  0  0  0  3  0  0  0  0  0  0
  185.4670  174.2850  137.2000 C   0  0  0  0  0  2  0  0  0  0  0  0
  184.8860  172.9840  136.7600 C   0  0  0  0  0  0  0  0  0  0  0  0
  185.6050  172.1600  135.8870 C   0  0  0  0  0  3  0  0  0  0  0  0
  183.0830  171.3650  136.8000 C   0  0  0  0  0  3  0  0  0  0  0  0
  183.8020  170.5430  135.9270 C   0  0  0  0  0  3  0  0  0  0  0  0
  183.6260  172.5840  137.2190 C   0  0  0  0  0  3  0  0  0  0  0  0
  185.0630  170.9400  135.4710 C   0  0  0  0  0  3  0  0  0  0  0  0
  190.3960  176.3520  143.4740 N   0  0  0  0  0  1  0  0  0  0  0  0
  190.8350  176.9230  142.2450 C   0  0  0  0  0  0  0  0  0  0  0  0
  189.8900  177.2390  141.2100 N   0  0  0  0  0  0  0  0  0  0  0  0
  192.0650  177.1370  142.0730 O   0  0  0  0  0  0  0  0  0  0  0  0
  188.4590  177.0200  141.3980 C   0  0  0  0  0  2  0  0  0  0  0  0
  186.8610  177.8580  143.0380 N   0  0  0  0  0  0  0  0  0  0  0  0
  186.9870  178.9850  140.9640 C   0  0  0  0  0  2  0  0  0  0  0  0
  187.7910  178.2520  141.9980 C   0  0  2  0  0  3  0  0  0  0  0  0
  185.8140  179.4970  141.6420 N   0  0  0  0  0  2  0  0  0  0  0  0
  185.7020  178.7350  142.8820 C   0  0  1  0  0  3  0  0  0  0  0  0
  184.4300  177.9060  142.8640 C   0  0  0  0  0  2  0  0  0  0  0  0
  183.4050  178.6260  142.2480 O   0  0  0  0  0  1  0  0  0  0  0  0
  187.4920  178.1880  144.3080 C   0  0  0  0  0  2  0  0  0  0  0  0
  186.8430  177.4070  145.4400 C   0  0  0  0  0  2  0  0  0  0  0  0
  187.5770  177.8750  147.0370 S   0  0  0  0  0  0  0  0  0  0  0  0
  189.0600  176.8590  146.7420 C   0  0  0  0  0  2  0  0  0  0  0  0
  191.4560  176.7840  147.5770 C   0  0  0  0  0  0  0  0  0  0  0  0
  192.2880  177.0900  148.4680 O   0  0  0  0  0  0  0  0  0  0  0  0
  191.9140  175.9990  146.3940 C   0  0  0  0  0  1  0  0  0  0  0  0
  190.0890  177.1850  147.7180 N   0  0  0  0  0  2  0  0  0  0  0  0
  1 25  1  0  0  0  0
  3  9  1  0  0  0  0
  4  2  2  0  0  0  0
  5  2  1  0  0  0  0
  5 11  1  0  0  0  0
  6  7  1  0  0  0  0
  6 14  1  0  0  0  0
  8 12  2  0  0  0  0
  9 15  2  0  0  0  0
  9 14  1  0  0  0  0
 10 11  1  0  0  0  0
 11  1  1  1  0  0  0
 12 13  1  0  0  0  0
 12 10  1  0  0  0  0
 13  6  2  0  0  0  0
 14  5  2  0  0  0  0
 15  4  1  0  0  0  0
 16  7  1  0  0  0  0
 17 16  1  0  0  0  0
 17 21  1  0  0  0  0
 18 17  2  0  0  0  0
 19 21  2  0  0  0  0
 20 19  1  0  0  0  0
 22 18  1  0  0  0  0
 22 20  2  0  0  0  0
 24 23  1  0  0  0  0
 25 27  1  0  0  0  0
 25 24  1  0  0  0  0
 26 24  2  0  0  0  0
 28 35  1  0  0  0  0
 29 31  1  0  0  0  0
 29 30  1  0  0  0  0
 30 27  1  6  0  0  0
 30 28  1  0  0  0  0
 31 32  1  0  0  0  0
 32 33  1  6  0  0  0
 32 28  1  0  0  0  0
 34 33  1  0  0  0  0
 35 36  1  0  0  0  0
 36 37  1  0  0  0  0
 38 37  1  0  0  0  0
 38 42  1  0  0  0  0
 39 42  1  0  0  0  0
 39 40  2  0  0  0  0
 41 39  1  0  0  0  0
M  END
>  <MODEL>
5

>  <REMARK>
 VINA RESULT:      -7.3      2.809      4.838
  Name = 
  12 active torsions:
  status: ('A' for Active; 'I' for Inactive)
    1  A    between atoms: C_1  and  C_39
    2  A    between atoms: N_6  and  C_19
    3  A    between atoms: N_6  and  C_37
    4  A    between atoms: C_10  and  C_40
    5  A    between atoms: C_12  and  N_21
    6  A    between atoms: C_12  and  C_24
    7  A    between atoms: S_13  and  C_24
    8  A    between atoms: S_13  and  C_25
    9  A    between atoms: C_19  and  C_33
   10  A    between atoms: C_25  and  N_42
   11  A    between atoms: N_26  and  C_39
   12  A    between atoms: C_28  and  C_37
                            x       y       z     vdW  Elec       q    Type
                         _______ _______ _______ _____ _____    ______ ____

>  <TORSDO>
F 12

$$$$
=
 OpenBabel11032419103D

 42 45  0  0  1  0  0  0  0  0999 V2000
  189.7630  175.7510  138.7290 C   0  0  0  0  0  2  0  0  0  0  0  0
  187.9800  174.5620  136.8010 C   0  0  0  0  0  3  0  0  0  0  0  0
  184.2790  176.2410  135.8190 O   0  0  0  0  0  1  0  0  0  0  0  0
  187.0800  173.8680  135.9950 C   0  0  0  0  0  3  0  0  0  0  0  0
  187.6510  175.8260  137.3180 C   0  0  0  0  0  0  0  0  0  0  0  0
  186.0190  177.7460  137.5420 C   0  0  0  0  0  0  0  0  0  0  0  0
  184.6740  177.9070  138.0120 N   0  0  0  0  0  2  0  0  0  0  0  0
  188.6660  179.9960  136.8780 O   0  0  0  0  0  0  0  0  0  0  0  0
  185.5090  175.7010  136.1720 C   0  0  0  0  0  0  0  0  0  0  0  0
  189.1810  177.7260  137.2940 C   0  0  0  0  0  2  0  0  0  0  0  0
  188.6370  176.5970  138.1420 C   0  0  2  0  0  3  0  0  0  0  0  0
  188.2170  178.8730  137.2250 C   0  0  0  0  0  0  0  0  0  0  0  0
  186.8280  178.7720  137.5920 N   0  0  0  0  0  0  0  0  0  0  0  0
  186.4120  176.4180  136.9910 C   0  0  0  0  0  0  0  0  0  0  0  0
  185.8470  174.4370  135.6850 C   0  0  0  0  0  3  0  0  0  0  0  0
  184.1660  179.1420  138.5990 C   0  0  0  0  0  2  0  0  0  0  0  0
  183.9020  178.9630  140.0550 C   0  0  0  0  0  0  0  0  0  0  0  0
  182.5900  178.7980  140.5100 C   0  0  0  0  0  3  0  0  0  0  0  0
  184.7120  178.7930  142.3330 C   0  0  0  0  0  3  0  0  0  0  0  0
  183.4000  178.6290  142.7870 C   0  0  0  0  0  3  0  0  0  0  0  0
  184.9640  178.9570  140.9680 C   0  0  0  0  0  3  0  0  0  0  0  0
  182.3390  178.6310  141.8760 C   0  0  0  0  0  3  0  0  0  0  0  0
  193.3080  177.1120  139.0490 N   0  0  0  0  0  1  0  0  0  0  0  0
  192.1830  176.3860  138.5640 C   0  0  0  0  0  0  0  0  0  0  0  0
  190.8790  176.5990  139.1290 N   0  0  0  0  0  0  0  0  0  0  0  0
  192.3470  175.5460  137.6390 O   0  0  0  0  0  0  0  0  0  0  0  0
  190.6640  177.5840  140.1850 C   0  0  0  0  0  2  0  0  0  0  0  0
  189.6970  177.7560  142.4170 N   0  0  0  0  0  0  0  0  0  0  0  0
  191.7940  176.6840  142.2170 C   0  0  0  0  0  2  0  0  0  0  0  0
  190.4740  176.9060  141.5360 C   0  0  2  0  0  3  0  0  0  0  0  0
  191.5660  176.8850  143.6320 N   0  0  0  0  0  2  0  0  0  0  0  0
  190.3090  177.6200  143.7370 C   0  0  1  0  0  3  0  0  0  0  0  0
  190.5640  178.9950  144.3280 C   0  0  0  0  0  2  0  0  0  0  0  0
  191.8600  179.4100  144.0190 O   0  0  0  0  0  1  0  0  0  0  0  0
  188.3640  177.1730  142.4890 C   0  0  0  0  0  2  0  0  0  0  0  0
  188.0340  176.7830  143.9210 C   0  0  0  0  0  2  0  0  0  0  0  0
  186.7480  177.8790  144.5960 S   0  0  0  0  0  0  0  0  0  0  0  0
  187.1390  177.4100  146.3120 C   0  0  0  0  0  2  0  0  0  0  0  0
  189.4280  177.2740  147.4010 C   0  0  0  0  0  0  0  0  0  0  0  0
  190.5880  176.7890  147.3960 O   0  0  0  0  0  0  0  0  0  0  0  0
  189.0550  178.2540  148.4620 C   0  0  0  0  0  1  0  0  0  0  0  0
  188.4940  176.8850  146.3880 N   0  0  0  0  0  2  0  0  0  0  0  0
  1 25  1  0  0  0  0
  2  5  1  0  0  0  0
  3  9  1  0  0  0  0
  4  2  2  0  0  0  0
  5 11  1  0  0  0  0
  6 13  2  0  0  0  0
  6  7  1  0  0  0  0
  7 16  1  0  0  0  0
  8 12  2  0  0  0  0
  9 14  1  0  0  0  0
 10 11  1  0  0  0  0
 11  1  1  6  0  0  0
 12 10  1  0  0  0  0
 12 13  1  0  0  0  0
 14  5  2  0  0  0  0
 14  6  1  0  0  0  0
 15  4  1  0  0  0  0
 15  9  2  0  0  0  0
 16 17  1  0  0  0  0
 17 18  2  0  0  0  0
 17 21  1  0  0  0  0
 18 22  1  0  0  0  0
 19 20  1  0  0  0  0
 21 19  2  0  0  0  0
 22 20  2  0  0  0  0
 24 23  1  0  0  0  0
 24 25  1  0  0  0  0
 25 27  1  0  0  0  0
 26 24  2  0  0  0  0
 28 35  1  0  0  0  0
 28 32  1  0  0  0  0
 29 31  1  0  0  0  0
 30 27  1  6  0  0  0
 30 29  1  0  0  0  0
 30 28  1  0  0  0  0
 31 32  1  0  0  0  0
 32 33  1  6  0  0  0
 34 33  1  0  0  0  0
 35 36  1  0  0  0  0
 36 37  1  0  0  0  0
 37 38  1  0  0  0  0
 38 42  1  0  0  0  0
 39 41  1  0  0  0  0
 40 39  2  0  0  0  0
 42 39  1  0  0  0  0
M  END
>  <MODEL>
6

>  <REMARK>
 VINA RESULT:      -7.1      1.686      2.129
  Name = 
  12 active torsions:
  status: ('A' for Active; 'I' for Inactive)
    1  A    between atoms: C_1  and  C_39
    2  A    between atoms: N_6  and  C_19
    3  A    between atoms: N_6  and  C_37
    4  A    between atoms: C_10  and  C_40
    5  A    between atoms: C_12  and  N_21
    6  A    between atoms: C_12  and  C_24
    7  A    between atoms: S_13  and  C_24
    8  A    between atoms: S_13  and  C_25
    9  A    between atoms: C_19  and  C_33
   10  A    between atoms: C_25  and  N_42
   11  A    between atoms: N_26  and  C_39
   12  A    between atoms: C_28  and  C_37
                            x       y       z     vdW  Elec       q    Type
                         _______ _______ _______ _____ _____    ______ ____

>  <TORSDO>
F 12

$$$$
=
 OpenBabel11032419103D

 42 45  0  0  1  0  0  0  0  0999 V2000
  182.1980  176.6220  137.7020 C   0  0  0  0  0  2  0  0  0  0  0  0
  180.3960  177.2500  139.8620 C   0  0  0  0  0  3  0  0  0  0  0  0
  181.7080  178.8420  143.5000 O   0  0  0  0  0  1  0  0  0  0  0  0
  179.5180  177.3790  140.9360 C   0  0  0  0  0  3  0  0  0  0  0  0
  181.7430  177.6290  139.9890 C   0  0  0  0  0  0  0  0  0  0  0  0
  183.6340  178.5680  141.3830 C   0  0  0  0  0  0  0  0  0  0  0  0
  184.2740  178.2250  142.6200 N   0  0  0  0  0  2  0  0  0  0  0  0
  184.5100  180.6660  138.6740 O   0  0  0  0  0  0  0  0  0  0  0  0
  181.3020  178.3030  142.2850 C   0  0  0  0  0  0  0  0  0  0  0  0
  182.9320  178.9420  138.3130 C   0  0  0  0  0  2  0  0  0  0  0  0
  182.6780  177.5400  138.8220 C   0  0  2  0  0  3  0  0  0  0  0  0
  183.9350  179.6610  139.1660 C   0  0  0  0  0  0  0  0  0  0  0  0
  184.3170  179.2280  140.4850 N   0  0  0  0  0  0  0  0  0  0  0  0
  182.2060  178.1790  141.2050 C   0  0  0  0  0  0  0  0  0  0  0  0
  179.9720  177.9010  142.1440 C   0  0  0  0  0  3  0  0  0  0  0  0
  185.6710  178.5200  142.9150 C   0  0  0  0  0  2  0  0  0  0  0  0
  185.9330  178.4180  144.3790 C   0  0  0  0  0  0  0  0  0  0  0  0
  185.0520  179.0160  145.2870 C   0  0  0  0  0  3  0  0  0  0  0  0
  187.2990  177.6350  146.2210 C   0  0  0  0  0  3  0  0  0  0  0  0
  186.4180  178.2340  147.1280 C   0  0  0  0  0  3  0  0  0  0  0  0
  187.0550  177.7250  144.8480 C   0  0  0  0  0  3  0  0  0  0  0  0
  185.2950  178.9230  146.6610 C   0  0  0  0  0  3  0  0  0  0  0  0
  183.5610  173.1390  136.9690 N   0  0  0  0  0  1  0  0  0  0  0  0
  182.6750  174.2520  137.0330 C   0  0  0  0  0  0  0  0  0  0  0  0
  183.1420  175.5280  137.5020 N   0  0  0  0  0  0  0  0  0  0  0  0
  181.4740  174.1020  136.6830 O   0  0  0  0  0  0  0  0  0  0  0  0
  184.5350  175.7290  137.8900 C   0  0  0  0  0  2  0  0  0  0  0  0
  186.7770  176.2060  137.0590 N   0  0  0  0  0  0  0  0  0  0  0  0
  184.9510  176.8720  135.7140 C   0  0  0  0  0  2  0  0  0  0  0  0
  185.4370  175.8170  136.6650 C   0  0  2  0  0  3  0  0  0  0  0  0
  186.1310  177.4850  135.1410 N   0  0  0  0  0  2  0  0  0  0  0  0
  187.2370  177.1330  136.0270 C   0  0  1  0  0  3  0  0  0  0  0  0
  187.7950  178.3870  136.6770 C   0  0  0  0  0  2  0  0  0  0  0  0
  186.7630  179.2990  136.9080 O   0  0  0  0  0  1  0  0  0  0  0  0
  187.6010  175.0080  136.9710 C   0  0  0  0  0  2  0  0  0  0  0  0
  188.9640  175.3460  136.3890 C   0  0  0  0  0  2  0  0  0  0  0  0
  190.2800  174.9340  137.5750 S   0  0  0  0  0  0  0  0  0  0  0  0
  190.0440  176.4880  138.4960 C   0  0  0  0  0  2  0  0  0  0  0  0
  190.3170  176.9260  140.9810 C   0  0  0  0  0  0  0  0  0  0  0  0
  191.0530  176.8860  142.0000 O   0  0  0  0  0  0  0  0  0  0  0  0
  188.9330  177.4690  141.1060 C   0  0  0  0  0  1  0  0  0  0  0  0
  190.8230  176.4610  139.7250 N   0  0  0  0  0  2  0  0  0  0  0  0
  2  5  2  0  0  0  0
  2  4  1  0  0  0  0
  4 15  2  0  0  0  0
  5 14  1  0  0  0  0
  6  7  1  0  0  0  0
  7 16  1  0  0  0  0
  8 12  2  0  0  0  0
  9  3  1  0  0  0  0
 10 11  1  0  0  0  0
 10 12  1  0  0  0  0
 11  1  1  6  0  0  0
 11  5  1  0  0  0  0
 12 13  1  0  0  0  0
 13  6  2  0  0  0  0
 14  6  1  0  0  0  0
 14  9  2  0  0  0  0
 15  9  1  0  0  0  0
 16 17  1  0  0  0  0
 17 21  2  0  0  0  0
 17 18  1  0  0  0  0
 18 22  2  0  0  0  0
 19 20  2  0  0  0  0
 21 19  1  0  0  0  0
 22 20  1  0  0  0  0
 23 24  1  0  0  0  0
 24 25  1  0  0  0  0
 25  1  1  0  0  0  0
 25 27  1  0  0  0  0
 26 24  2  0  0  0  0
 29 30  1  0  0  0  0
 30 28  1  0  0  0  0
 30 27  1  1  0  0  0
 31 29  1  0  0  0  0
 31 32  1  0  0  0  0
 32 33  1  1  0  0  0
 32 28  1  0  0  0  0
 33 34  1  0  0  0  0
 35 28  1  0  0  0  0
 36 35  1  0  0  0  0
 36 37  1  0  0  0  0
 37 38  1  0  0  0  0
 38 42  1  0  0  0  0
 39 41  1  0  0  0  0
 39 40  2  0  0  0  0
 42 39  1  0  0  0  0
M  END
>  <MODEL>
7

>  <REMARK>
 VINA RESULT:      -7.0      2.440      7.864
  Name = 
  12 active torsions:
  status: ('A' for Active; 'I' for Inactive)
    1  A    between atoms: C_1  and  C_39
    2  A    between atoms: N_6  and  C_19
    3  A    between atoms: N_6  and  C_37
    4  A    between atoms: C_10  and  C_40
    5  A    between atoms: C_12  and  N_21
    6  A    between atoms: C_12  and  C_24
    7  A    between atoms: S_13  and  C_24
    8  A    between atoms: S_13  and  C_25
    9  A    between atoms: C_19  and  C_33
   10  A    between atoms: C_25  and  N_42
   11  A    between atoms: N_26  and  C_39
   12  A    between atoms: C_28  and  C_37
                            x       y       z     vdW  Elec       q    Type
                         _______ _______ _______ _____ _____    ______ ____

>  <TORSDO>
F 12

$$$$
=
 OpenBabel11032419103D

 42 45  0  0  1  0  0  0  0  0999 V2000
  189.0090  178.5920  138.9000 C   0  0  0  0  0  2  0  0  0  0  0  0
  190.6580  176.3960  138.0230 C   0  0  0  0  0  3  0  0  0  0  0  0
  189.0620  172.8910  136.3920 O   0  0  0  0  0  1  0  0  0  0  0  0
  191.4750  175.2960  137.7710 C   0  0  0  0  0  3  0  0  0  0  0  0
  189.2800  176.3390  137.7570 C   0  0  0  0  0  0  0  0  0  0  0  0
  187.2580  175.0660  136.9250 C   0  0  0  0  0  0  0  0  0  0  0  0
  186.5970  173.8390  137.2680 N   0  0  0  0  0  2  0  0  0  0  0  0
  186.3230  177.9030  135.0330 O   0  0  0  0  0  0  0  0  0  0  0  0
  189.5640  174.0630  136.9470 C   0  0  0  0  0  0  0  0  0  0  0  0
  188.0550  178.1200  136.6270 C   0  0  0  0  0  2  0  0  0  0  0  0
  188.4070  177.5360  137.9780 C   0  0  2  0  0  3  0  0  0  0  0  0
  186.9600  177.3420  135.9610 C   0  0  0  0  0  0  0  0  0  0  0  0
  186.5600  176.0200  136.3680 N   0  0  0  0  0  0  0  0  0  0  0  0
  188.7210  175.1700  137.1960 C   0  0  0  0  0  0  0  0  0  0  0  0
  190.9280  174.1330  137.2370 C   0  0  0  0  0  3  0  0  0  0  0  0
  185.1690  173.6130  137.0830 C   0  0  0  0  0  2  0  0  0  0  0  0
  184.9240  172.2760  136.4680 C   0  0  0  0  0  0  0  0  0  0  0  0
  183.7350  171.5920  136.7430 C   0  0  0  0  0  3  0  0  0  0  0  0
  185.6450  170.4520  135.0460 C   0  0  0  0  0  3  0  0  0  0  0  0
  184.4570  169.7680  135.3220 C   0  0  0  0  0  3  0  0  0  0  0  0
  185.8770  171.7070  135.6160 C   0  0  0  0  0  3  0  0  0  0  0  0
  183.5020  170.3380  136.1690 C   0  0  0  0  0  3  0  0  0  0  0  0
  186.2200  178.8070  141.4880 N   0  0  0  0  0  1  0  0  0  0  0  0
  186.8910  178.6630  140.2400 C   0  0  0  0  0  0  0  0  0  0  0  0
  188.3250  178.5930  140.1870 N   0  0  0  0  0  0  0  0  0  0  0  0
  186.2110  178.6070  139.1800 O   0  0  0  0  0  0  0  0  0  0  0  0
  189.1300  178.6320  141.4050 C   0  0  0  0  0  2  0  0  0  0  0  0
  189.2740  177.5040  143.5610 N   0  0  0  0  0  0  0  0  0  0  0  0
  190.1780  176.3880  141.6850 C   0  0  0  0  0  2  0  0  0  0  0  0
  189.0750  177.2990  142.1400 C   0  0  2  0  0  3  0  0  0  0  0  0
  190.6110  175.6490  142.8530 N   0  0  0  0  0  2  0  0  0  0  0  0
  190.1160  176.3950  144.0060 C   0  0  1  0  0  3  0  0  0  0  0  0
  191.2840  176.9290  144.8140 C   0  0  0  0  0  2  0  0  0  0  0  0
  191.0310  176.7650  146.1770 O   0  0  0  0  0  1  0  0  0  0  0  0
  187.9700  177.3450  144.1910 C   0  0  0  0  0  2  0  0  0  0  0  0
  187.8540  178.2580  145.4020 C   0  0  0  0  0  2  0  0  0  0  0  0
  186.7870  177.5010  146.6660 S   0  0  0  0  0  0  0  0  0  0  0  0
  185.7370  178.9850  146.7820 C   0  0  0  0  0  2  0  0  0  0  0  0
  183.8260  179.0320  145.1120 C   0  0  0  0  0  0  0  0  0  0  0  0
  182.6360  178.7330  144.8410 O   0  0  0  0  0  0  0  0  0  0  0  0
  184.6370  179.7750  144.1040 C   0  0  0  0  0  1  0  0  0  0  0  0
  184.3760  178.6630  146.3820 N   0  0  0  0  0  2  0  0  0  0  0  0
  1 25  1  0  0  0  0
  3  9  1  0  0  0  0
  4  2  1  0  0  0  0
  5 11  1  0  0  0  0
  5  2  2  0  0  0  0
  6 14  1  0  0  0  0
  6  7  1  0  0  0  0
  8 12  2  0  0  0  0
  9 14  2  0  0  0  0
  9 15  1  0  0  0  0
 10 11  1  0  0  0  0
 11  1  1  1  0  0  0
 12 13  1  0  0  0  0
 12 10  1  0  0  0  0
 13  6  2  0  0  0  0
 14  5  1  0  0  0  0
 15  4  2  0  0  0  0
 16  7  1  0  0  0  0
 17 18  1  0  0  0  0
 17 16  1  0  0  0  0
 19 20  2  0  0  0  0
 19 21  1  0  0  0  0
 20 22  1  0  0  0  0
 21 17  2  0  0  0  0
 22 18  2  0  0  0  0
 24 23  1  0  0  0  0
 25 24  1  0  0  0  0
 25 27  1  0  0  0  0
 26 24  2  0  0  0  0
 28 32  1  0  0  0  0
 28 35  1  0  0  0  0
 29 30  1  0  0  0  0
 29 31  1  0  0  0  0
 30 27  1  6  0  0  0
 30 28  1  0  0  0  0
 31 32  1  0  0  0  0
 32 33  1  6  0  0  0
 33 34  1  0  0  0  0
 35 36  1  0  0  0  0
 36 37  1  0  0  0  0
 37 38  1  0  0  0  0
 39 42  1  0  0  0  0
 40 39  2  0  0  0  0
 41 39  1  0  0  0  0
 42 38  1  0  0  0  0
M  END
>  <MODEL>
8

>  <REMARK>
 VINA RESULT:      -7.0      2.875      4.583
  Name = 
  12 active torsions:
  status: ('A' for Active; 'I' for Inactive)
    1  A    between atoms: C_1  and  C_39
    2  A    between atoms: N_6  and  C_19
    3  A    between atoms: N_6  and  C_37
    4  A    between atoms: C_10  and  C_40
    5  A    between atoms: C_12  and  N_21
    6  A    between atoms: C_12  and  C_24
    7  A    between atoms: S_13  and  C_24
    8  A    between atoms: S_13  and  C_25
    9  A    between atoms: C_19  and  C_33
   10  A    between atoms: C_25  and  N_42
   11  A    between atoms: N_26  and  C_39
   12  A    between atoms: C_28  and  C_37
                            x       y       z     vdW  Elec       q    Type
                         _______ _______ _______ _____ _____    ______ ____

>  <TORSDO>
F 12

$$$$
=
 OpenBabel11032419103D

 42 45  0  0  1  0  0  0  0  0999 V2000
  189.6860  178.1380  140.2450 C   0  0  0  0  0  2  0  0  0  0  0  0
  190.5720  175.9990  138.5280 C   0  0  0  0  0  3  0  0  0  0  0  0
  188.1230  174.3070  135.5910 O   0  0  0  0  0  1  0  0  0  0  0  0
  190.9780  174.8590  137.8380 C   0  0  0  0  0  3  0  0  0  0  0  0
  189.3230  176.5860  138.2680 C   0  0  0  0  0  0  0  0  0  0  0  0
  187.1400  176.6200  136.9880 C   0  0  0  0  0  0  0  0  0  0  0  0
  186.0450  175.7150  136.7920 N   0  0  0  0  0  2  0  0  0  0  0  0
  187.5760  180.0880  136.4520 O   0  0  0  0  0  0  0  0  0  0  0  0
  188.9110  174.8810  136.5810 C   0  0  0  0  0  0  0  0  0  0  0  0
  188.9990  178.9870  137.9870 C   0  0  0  0  0  2  0  0  0  0  0  0
  188.9040  177.8410  138.9700 C   0  0  2  0  0  3  0  0  0  0  0  0
  187.8190  179.0140  137.0610 C   0  0  0  0  0  0  0  0  0  0  0  0
  186.9210  177.9040  136.8810 N   0  0  0  0  0  0  0  0  0  0  0  0
  188.4830  176.0380  137.2720 C   0  0  0  0  0  0  0  0  0  0  0  0
  190.1470  174.3010  136.8700 C   0  0  0  0  0  3  0  0  0  0  0  0
  184.6760  176.1480  136.5330 C   0  0  0  0  0  2  0  0  0  0  0  0
  183.9490  176.3860  137.8130 C   0  0  0  0  0  0  0  0  0  0  0  0
  183.1010  175.3990  138.3260 C   0  0  0  0  0  3  0  0  0  0  0  0
  183.4280  177.8150  139.7000 C   0  0  0  0  0  3  0  0  0  0  0  0
  182.5800  176.8280  140.2120 C   0  0  0  0  0  3  0  0  0  0  0  0
  184.1150  177.5930  138.5030 C   0  0  0  0  0  3  0  0  0  0  0  0
  182.4170  175.6200  139.5260 C   0  0  0  0  0  3  0  0  0  0  0  0
  189.6990  175.5820  143.0720 N   0  0  0  0  0  1  0  0  0  0  0  0
  190.1570  176.5150  142.0990 C   0  0  0  0  0  0  0  0  0  0  0  0
  189.2180  177.2930  141.3380 N   0  0  0  0  0  0  0  0  0  0  0  0
  191.3960  176.6430  141.9050 O   0  0  0  0  0  0  0  0  0  0  0  0
  187.7800  177.1770  141.5630 C   0  0  0  0  0  2  0  0  0  0  0  0
  186.3900  177.9890  143.3940 N   0  0  0  0  0  0  0  0  0  0  0  0
  186.3840  179.2340  141.3860 C   0  0  0  0  0  2  0  0  0  0  0  0
  187.2400  178.4000  142.2940 C   0  0  2  0  0  3  0  0  0  0  0  0
  185.3100  179.7610  142.2020 N   0  0  0  0  0  2  0  0  0  0  0  0
  185.2720  178.9300  143.4020 C   0  0  1  0  0  3  0  0  0  0  0  0
  183.9600  178.1670  143.4590 C   0  0  0  0  0  2  0  0  0  0  0  0
  182.9570  178.9890  143.9760 O   0  0  0  0  0  1  0  0  0  0  0  0
  187.1550  178.2070  144.6150 C   0  0  0  0  0  2  0  0  0  0  0  0
  186.3110  177.8740  145.8340 C   0  0  0  0  0  2  0  0  0  0  0  0
  187.3320  177.9000  147.3390 S   0  0  0  0  0  0  0  0  0  0  0  0
  188.8670  177.6230  146.3970 C   0  0  0  0  0  2  0  0  0  0  0  0
  191.1900  176.6880  146.8080 C   0  0  0  0  0  0  0  0  0  0  0  0
  191.9780  176.0800  147.5770 O   0  0  0  0  0  0  0  0  0  0  0  0
  191.6760  177.1240  145.4670 C   0  0  0  0  0  1  0  0  0  0  0  0
  189.8460  176.9410  147.2310 N   0  0  0  0  0  2  0  0  0  0  0  0
  1 25  1  0  0  0  0
  3  9  1  0  0  0  0
  4  2  2  0  0  0  0
  5  2  1  0  0  0  0
  5 11  1  0  0  0  0
  6 14  1  0  0  0  0
  7  6  1  0  0  0  0
  8 12  2  0  0  0  0
  9 15  2  0  0  0  0
  9 14  1  0  0  0  0
 10 11  1  0  0  0  0
 11  1  1  1  0  0  0
 12 10  1  0  0  0  0
 13  6  2  0  0  0  0
 13 12  1  0  0  0  0
 14  5  2  0  0  0  0
 15  4  1  0  0  0  0
 16  7  1  0  0  0  0
 16 17  1  0  0  0  0
 17 18  2  0  0  0  0
 17 21  1  0  0  0  0
 18 22  1  0  0  0  0
 19 20  1  0  0  0  0
 21 19  2  0  0  0  0
 22 20  2  0  0  0  0
 24 23  1  0  0  0  0
 25 27  1  0  0  0  0
 25 24  1  0  0  0  0
 26 24  2  0  0  0  0
 28 32  1  0  0  0  0
 28 35  1  0  0  0  0
 29 31  1  0  0  0  0
 29 30  1  0  0  0  0
 30 27  1  6  0  0  0
 30 28  1  0  0  0  0
 31 32  1  0  0  0  0
 32 33  1  6  0  0  0
 33 34  1  0  0  0  0
 35 36  1  0  0  0  0
 36 37  1  0  0  0  0
 38 42  1  0  0  0  0
 38 37  1  0  0  0  0
 39 42  1  0  0  0  0
 39 40  2  0  0  0  0
 41 39  1  0  0  0  0
M  END
>  <MODEL>
9

>  <REMARK>
 VINA RESULT:      -6.7      2.086      3.975
  Name = 
  12 active torsions:
  status: ('A' for Active; 'I' for Inactive)
    1  A    between atoms: C_1  and  C_39
    2  A    between atoms: N_6  and  C_19
    3  A    between atoms: N_6  and  C_37
    4  A    between atoms: C_10  and  C_40
    5  A    between atoms: C_12  and  N_21
    6  A    between atoms: C_12  and  C_24
    7  A    between atoms: S_13  and  C_24
    8  A    between atoms: S_13  and  C_25
    9  A    between atoms: C_19  and  C_33
   10  A    between atoms: C_25  and  N_42
   11  A    between atoms: N_26  and  C_39
   12  A    between atoms: C_28  and  C_37
                            x       y       z     vdW  Elec       q    Type
                         _______ _______ _______ _____ _____    ______ ____

>  <TORSDO>
F 12

$$$$
