=
 OpenBabel11042410543D

 26 29  0  0  1  0  0  0  0  0999 V2000
  188.5170  177.2750  142.1540 O   0  0  0  0  0  0  0  0  0  0  0  0
  188.6730  177.3910  144.4730 C   0  0  0  0  0  0  0  0  0  0  0  0
  188.9950  177.8110  146.8260 C   0  0  2  0  0  3  0  0  0  0  0  0
  188.1800  177.9370  145.7590 C   0  0  0  0  0  0  0  0  0  0  0  0
  186.5230  177.9280  143.3920 C   0  0  0  0  0  0  0  0  0  0  0  0
  186.7670  178.3770  145.8250 C   0  0  0  0  0  3  0  0  0  0  0  0
  187.7990  177.5200  143.3100 C   0  0  0  0  0  0  0  0  0  0  0  0
  189.9170  177.1490  142.4230 C   0  0  2  0  0  3  0  0  0  0  0  0
  192.4220  175.2980  146.0680 C   0  0  0  0  0  3  0  0  0  0  0  0
  191.1120  177.2480  145.3180 C   0  0  1  0  0  3  0  0  0  0  0  0
  191.6720  175.8910  144.9020 C   0  0  0  0  0  2  0  0  0  0  0  0
  190.8280  176.3550  147.5960 C   0  0  0  0  0  3  0  0  0  0  0  0
  190.2390  178.1950  143.9520 P   0  0  2  0  0  0  0  0  0  0  0  0
  190.3380  177.1610  146.6430 C   0  0  0  0  0  0  0  0  0  0  0  0
  192.0020  175.4960  147.3240 C   0  0  0  0  0  3  0  0  0  0  0  0
  185.9970  178.3580  144.7240 C   0  0  0  0  0  3  0  0  0  0  0  0
  184.1920  178.2680  142.4630 C   0  0  0  0  0  1  0  0  0  0  0  0
  186.1380  178.9910  141.2880 O   0  0  0  0  0  1  0  0  0  0  0  0
  185.6620  177.9980  142.1530 C   0  0  1  0  0  3  0  0  0  0  0  0
  187.7780  177.1320  148.7540 O   0  0  0  0  0  1  0  0  0  0  0  0
  188.5200  178.1800  148.2000 C   0  0  0  0  0  2  0  0  0  0  0  0
  190.7230  177.6870  141.2570 C   0  0  0  0  0  2  0  0  0  0  0  0
  190.1230  177.2350  139.9730 C   0  0  0  0  0  0  0  0  0  0  0  0
  190.3200  176.0540  139.5810 O   0  0  0  0  0  0  0  0  0  0  0  0
  188.7080  177.7460  137.9450 C   0  0  0  0  0  1  0  0  0  0  0  0
  189.3080  178.1330  139.2140 N   0  0  0  0  0  2  0  0  0  0  0  0
  1  8  1  0  0  0  0
  1  7  1  0  0  0  0
  2  4  1  0  0  0  0
  3 21  1  1  0  0  0
  4  6  2  0  0  0  0
  4  3  1  0  0  0  0
  5 16  2  0  0  0  0
  7  5  1  0  0  0  0
  7  2  2  0  0  0  0
  8 22  1  6  0  0  0
  8 13  1  0  0  0  0
  9 15  2  0  0  0  0
 10 11  1  6  0  0  0
 10 14  1  0  0  0  0
 11  9  1  0  0  0  0
 13  2  1  1  0  0  0
 13 10  1  0  0  0  0
 14  3  1  0  0  0  0
 14 12  2  0  0  0  0
 15 12  1  0  0  0  0
 16  6  1  0  0  0  0
 18 19  1  0  0  0  0
 19 17  1  1  0  0  0
 19  5  1  0  0  0  0
 21 20  1  0  0  0  0
 23 22  1  0  0  0  0
 24 23  2  0  0  0  0
 25 26  1  0  0  0  0
 26 23  1  0  0  0  0
M  END
>  <MODEL>
1

>  <REMARK>
 VINA RESULT:      -9.0      0.000      0.000
  Name = 
  4 active torsions:
  status: ('A' for Active; 'I' for Inactive)
    1  A    between atoms: C_3  and  C_7
    2  A    between atoms: C_3  and  C_14
    3  A    between atoms: C_5  and  C_19
    4  A    between atoms: C_10  and  C_25
                            x       y       z     vdW  Elec       q    Type
                         _______ _______ _______ _____ _____    ______ ____

>  <TORSDO>
F 4

$$$$
=
 OpenBabel11042410543D

 26 29  0  0  1  0  0  0  0  0999 V2000
  190.5730  177.0790  143.9760 O   0  0  0  0  0  0  0  0  0  0  0  0
  188.4600  177.5890  144.8080 C   0  0  0  0  0  0  0  0  0  0  0  0
  186.1870  177.7950  145.5900 C   0  0  2  0  0  3  0  0  0  0  0  0
  187.4680  177.5120  145.9050 C   0  0  0  0  0  0  0  0  0  0  0  0
  190.2900  177.1320  146.3960 C   0  0  0  0  0  0  0  0  0  0  0  0
  187.9780  177.3450  147.2860 C   0  0  0  0  0  3  0  0  0  0  0  0
  189.8500  177.2860  145.1370 C   0  0  0  0  0  0  0  0  0  0  0  0
  189.7200  177.0430  142.8280 C   0  0  2  0  0  3  0  0  0  0  0  0
  185.7270  179.4000  141.6100 C   0  0  0  0  0  3  0  0  0  0  0  0
  186.6340  177.5610  142.9790 C   0  0  1  0  0  3  0  0  0  0  0  0
  186.9800  178.6370  141.9550 C   0  0  0  0  0  2  0  0  0  0  0  0
  184.9360  179.0870  143.9050 C   0  0  0  0  0  3  0  0  0  0  0  0
  188.0550  176.4270  143.4460 P   0  0  2  0  0  0  0  0  0  0  0  0
  185.8480  178.1390  144.1660 C   0  0  0  0  0  0  0  0  0  0  0  0
  184.7890  179.6310  142.5370 C   0  0  0  0  0  3  0  0  0  0  0  0
  189.2930  177.1820  147.5090 C   0  0  0  0  0  3  0  0  0  0  0  0
  192.0720  176.7620  148.1550 C   0  0  0  0  0  1  0  0  0  0  0  0
  192.1510  175.6790  146.0310 O   0  0  0  0  0  1  0  0  0  0  0  0
  191.7500  176.8620  146.6670 C   0  0  1  0  0  3  0  0  0  0  0  0
  185.2010  179.1640  147.2660 O   0  0  0  0  0  1  0  0  0  0  0  0
  185.1420  177.9050  146.6590 C   0  0  0  0  0  2  0  0  0  0  0  0
  190.2720  176.0780  141.7980 C   0  0  0  0  0  2  0  0  0  0  0  0
  190.3170  176.7300  140.4620 C   0  0  0  0  0  0  0  0  0  0  0  0
  189.9530  177.9310  140.3480 O   0  0  0  0  0  0  0  0  0  0  0  0
  190.8540  176.5870  137.9980 C   0  0  0  0  0  1  0  0  0  0  0  0
  190.8000  176.0000  139.3300 N   0  0  0  0  0  2  0  0  0  0  0  0
  1  7  1  0  0  0  0
  2  7  2  0  0  0  0
  2  4  1  0  0  0  0
  3  4  1  0  0  0  0
  3 21  1  1  0  0  0
  4  6  2  0  0  0  0
  5 19  1  0  0  0  0
  5 16  2  0  0  0  0
  6 16  1  0  0  0  0
  7  5  1  0  0  0  0
  8 22  1  6  0  0  0
  8 13  1  0  0  0  0
  8  1  1  0  0  0  0
  9 11  1  0  0  0  0
  9 15  2  0  0  0  0
 10 11  1  1  0  0  0
 10 13  1  0  0  0  0
 10 14  1  0  0  0  0
 12 14  2  0  0  0  0
 13  2  1  1  0  0  0
 14  3  1  0  0  0  0
 15 12  1  0  0  0  0
 18 19  1  0  0  0  0
 19 17  1  1  0  0  0
 21 20  1  0  0  0  0
 23 22  1  0  0  0  0
 24 23  2  0  0  0  0
 25 26  1  0  0  0  0
 26 23  1  0  0  0  0
M  END
>  <MODEL>
2

>  <REMARK>
 VINA RESULT:      -8.7      1.948      5.097
  Name = 
  4 active torsions:
  status: ('A' for Active; 'I' for Inactive)
    1  A    between atoms: C_3  and  C_7
    2  A    between atoms: C_3  and  C_14
    3  A    between atoms: C_5  and  C_19
    4  A    between atoms: C_10  and  C_25
                            x       y       z     vdW  Elec       q    Type
                         _______ _______ _______ _____ _____    ______ ____

>  <TORSDO>
F 4

$$$$
=
 OpenBabel11042410543D

 26 29  0  0  1  0  0  0  0  0999 V2000
  187.5810  177.5270  142.2630 O   0  0  0  0  0  0  0  0  0  0  0  0
  188.2480  177.3960  144.4890 C   0  0  0  0  0  0  0  0  0  0  0  0
  189.0900  177.5650  146.7430 C   0  0  2  0  0  3  0  0  0  0  0  0
  188.0610  177.8000  145.9030 C   0  0  0  0  0  0  0  0  0  0  0  0
  185.9220  178.0340  143.9740 C   0  0  0  0  0  0  0  0  0  0  0  0
  186.7060  178.2230  146.3270 C   0  0  0  0  0  3  0  0  0  0  0  0
  187.1410  177.6440  143.5700 C   0  0  0  0  0  0  0  0  0  0  0  0
  189.0030  177.3810  142.2010 C   0  0  2  0  0  3  0  0  0  0  0  0
  192.2180  175.1660  144.9850 C   0  0  0  0  0  3  0  0  0  0  0  0
  190.8100  177.1780  144.7530 C   0  0  1  0  0  3  0  0  0  0  0  0
  191.2400  175.8760  144.0840 C   0  0  0  0  0  2  0  0  0  0  0  0
  191.0210  176.0460  146.9310 C   0  0  0  0  0  3  0  0  0  0  0  0
  189.6740  178.2600  143.7210 P   0  0  2  0  0  0  0  0  0  0  0  0
  190.3470  176.9460  146.2000 C   0  0  0  0  0  0  0  0  0  0  0  0
  192.0900  175.2280  146.3160 C   0  0  0  0  0  3  0  0  0  0  0  0
  185.7120  178.3170  145.4270 C   0  0  0  0  0  3  0  0  0  0  0  0
  183.4850  178.6220  143.6200 C   0  0  0  0  0  1  0  0  0  0  0  0
  185.1690  179.2080  142.0360 O   0  0  0  0  0  1  0  0  0  0  0  0
  184.8100  178.2300  142.9720 C   0  0  1  0  0  3  0  0  0  0  0  0
  189.6690  178.9060  148.6220 O   0  0  0  0  0  1  0  0  0  0  0  0
  188.9370  177.7840  148.2190 C   0  0  0  0  0  2  0  0  0  0  0  0
  189.5410  178.0440  140.9480 C   0  0  0  0  0  2  0  0  0  0  0  0
  190.6890  177.2640  140.4140 C   0  0  0  0  0  0  0  0  0  0  0  0
  190.4690  176.1990  139.7770 O   0  0  0  0  0  0  0  0  0  0  0  0
  193.1830  177.0140  140.1090 C   0  0  0  0  0  1  0  0  0  0  0  0
  192.0240  177.7440  140.6010 N   0  0  0  0  0  2  0  0  0  0  0  0
  1  7  1  0  0  0  0
  2  4  1  0  0  0  0
  3 21  1  1  0  0  0
  4  6  2  0  0  0  0
  4  3  1  0  0  0  0
  5 16  2  0  0  0  0
  7  5  1  0  0  0  0
  7  2  2  0  0  0  0
  8 22  1  6  0  0  0
  8  1  1  0  0  0  0
  8 13  1  0  0  0  0
  9 15  2  0  0  0  0
 10 11  1  6  0  0  0
 10 14  1  0  0  0  0
 11  9  1  0  0  0  0
 13  2  1  1  0  0  0
 13 10  1  0  0  0  0
 14  3  1  0  0  0  0
 14 12  2  0  0  0  0
 15 12  1  0  0  0  0
 16  6  1  0  0  0  0
 18 19  1  0  0  0  0
 19 17  1  1  0  0  0
 19  5  1  0  0  0  0
 21 20  1  0  0  0  0
 23 26  1  0  0  0  0
 23 22  1  0  0  0  0
 24 23  2  0  0  0  0
 25 26  1  0  0  0  0
M  END
>  <MODEL>
3

>  <REMARK>
 VINA RESULT:      -8.6      1.228      1.494
  Name = 
  4 active torsions:
  status: ('A' for Active; 'I' for Inactive)
    1  A    between atoms: C_3  and  C_7
    2  A    between atoms: C_3  and  C_14
    3  A    between atoms: C_5  and  C_19
    4  A    between atoms: C_10  and  C_25
                            x       y       z     vdW  Elec       q    Type
                         _______ _______ _______ _____ _____    ______ ____

>  <TORSDO>
F 4

$$$$
=
 OpenBabel11042410543D

 26 29  0  0  1  0  0  0  0  0999 V2000
  186.7770  178.6290  141.6570 O   0  0  0  0  0  0  0  0  0  0  0  0
  188.2580  177.9580  143.3220 C   0  0  0  0  0  0  0  0  0  0  0  0
  189.6430  176.9540  145.0230 C   0  0  2  0  0  3  0  0  0  0  0  0
  189.5010  177.2540  143.7160 C   0  0  0  0  0  0  0  0  0  0  0  0
  189.0770  178.1610  141.0050 C   0  0  0  0  0  0  0  0  0  0  0  0
  190.5740  177.1290  142.7010 C   0  0  0  0  0  3  0  0  0  0  0  0
  188.0940  178.2890  141.9090 C   0  0  0  0  0  0  0  0  0  0  0  0
  185.9450  178.3820  142.7950 C   0  0  2  0  0  3  0  0  0  0  0  0
  186.6280  178.7660  147.5250 C   0  0  0  0  0  3  0  0  0  0  0  0
  187.0680  177.3710  145.5400 C   0  0  1  0  0  3  0  0  0  0  0  0
  186.3730  178.6300  146.0460 C   0  0  0  0  0  2  0  0  0  0  0  0
  188.8380  177.7620  147.2080 C   0  0  0  0  0  3  0  0  0  0  0  0
  186.7640  176.9720  143.7300 P   0  0  2  0  0  0  0  0  0  0  0  0
  188.5400  177.3200  145.9770 C   0  0  0  0  0  0  0  0  0  0  0  0
  187.7970  178.3830  148.0560 C   0  0  0  0  0  3  0  0  0  0  0  0
  190.3750  177.5650  141.4460 C   0  0  0  0  0  3  0  0  0  0  0  0
  189.7710  177.8350  138.5920 C   0  0  0  0  0  1  0  0  0  0  0  0
  187.5190  178.3310  139.2030 O   0  0  0  0  0  1  0  0  0  0  0  0
  188.8510  178.5640  139.5680 C   0  0  1  0  0  3  0  0  0  0  0  0
  191.8350  177.4280  145.8160 O   0  0  0  0  0  1  0  0  0  0  0  0
  190.9320  176.3950  145.5440 C   0  0  0  0  0  2  0  0  0  0  0  0
  184.5590  177.9620  142.3480 C   0  0  0  0  0  2  0  0  0  0  0  0
  183.5340  178.8280  142.9880 C   0  0  0  0  0  0  0  0  0  0  0  0
  183.8840  179.6420  143.8830 O   0  0  0  0  0  0  0  0  0  0  0  0
  181.1240  179.5620  143.1650 C   0  0  0  0  0  1  0  0  0  0  0  0
  182.1690  178.7470  142.5640 N   0  0  0  0  0  2  0  0  0  0  0  0
  1  7  1  0  0  0  0
  1  8  1  0  0  0  0
  2  4  1  0  0  0  0
  3 21  1  1  0  0  0
  3 14  1  0  0  0  0
  4  3  1  0  0  0  0
  5 16  2  0  0  0  0
  5  7  1  0  0  0  0
  6  4  2  0  0  0  0
  7  2  2  0  0  0  0
  8 22  1  6  0  0  0
  8 13  1  0  0  0  0
  9 15  2  0  0  0  0
 10 14  1  0  0  0  0
 10 11  1  6  0  0  0
 11  9  1  0  0  0  0
 12 15  1  0  0  0  0
 13  2  1  6  0  0  0
 13 10  1  0  0  0  0
 14 12  2  0  0  0  0
 16  6  1  0  0  0  0
 18 19  1  0  0  0  0
 19 17  1  6  0  0  0
 19  5  1  0  0  0  0
 21 20  1  0  0  0  0
 22 23  1  0  0  0  0
 23 24  2  0  0  0  0
 26 23  1  0  0  0  0
 26 25  1  0  0  0  0
M  END
>  <MODEL>
4

>  <REMARK>
 VINA RESULT:      -8.1      2.439      5.139
  Name = 
  4 active torsions:
  status: ('A' for Active; 'I' for Inactive)
    1  A    between atoms: C_3  and  C_7
    2  A    between atoms: C_3  and  C_14
    3  A    between atoms: C_5  and  C_19
    4  A    between atoms: C_10  and  C_25
                            x       y       z     vdW  Elec       q    Type
                         _______ _______ _______ _____ _____    ______ ____

>  <TORSDO>
F 4

$$$$
=
 OpenBabel11042410543D

 26 29  0  0  1  0  0  0  0  0999 V2000
  188.5120  178.1330  142.0690 O   0  0  0  0  0  0  0  0  0  0  0  0
  189.3290  177.5840  144.1780 C   0  0  0  0  0  0  0  0  0  0  0  0
  190.0080  176.7180  146.3240 C   0  0  2  0  0  3  0  0  0  0  0  0
  190.3090  176.8560  145.0170 C   0  0  0  0  0  0  0  0  0  0  0  0
  190.8390  177.4320  142.2350 C   0  0  0  0  0  0  0  0  0  0  0  0
  191.6230  176.5290  144.4160 C   0  0  0  0  0  3  0  0  0  0  0  0
  189.6440  177.7410  142.7610 C   0  0  0  0  0  0  0  0  0  0  0  0
  187.3480  178.0910  142.9010 C   0  0  2  0  0  3  0  0  0  0  0  0
  186.5740  179.0350  147.5380 C   0  0  0  0  0  3  0  0  0  0  0  0
  187.4570  177.3690  145.9480 C   0  0  1  0  0  3  0  0  0  0  0  0
  186.7760  178.7280  146.0760 C   0  0  0  0  0  2  0  0  0  0  0  0
  188.6570  177.8540  148.0450 C   0  0  0  0  0  3  0  0  0  0  0  0
  187.6870  176.7620  144.1870 P   0  0  2  0  0  0  0  0  0  0  0  0
  188.7090  177.2770  146.8350 C   0  0  0  0  0  0  0  0  0  0  0  0
  187.4760  178.6470  148.4490 C   0  0  0  0  0  3  0  0  0  0  0  0
  191.8680  176.8120  143.1250 C   0  0  0  0  0  3  0  0  0  0  0  0
  192.5950  177.5960  140.4190 C   0  0  0  0  0  1  0  0  0  0  0  0
  190.4180  176.7200  139.9950 O   0  0  0  0  0  1  0  0  0  0  0  0
  191.1110  177.6600  140.7680 C   0  0  1  0  0  3  0  0  0  0  0  0
  191.8790  177.1450  147.7300 O   0  0  0  0  0  1  0  0  0  0  0  0
  191.0080  176.1460  147.2830 C   0  0  0  0  0  2  0  0  0  0  0  0
  186.1330  177.7100  142.0800 C   0  0  0  0  0  2  0  0  0  0  0  0
  185.0100  178.6400  142.3730 C   0  0  0  0  0  0  0  0  0  0  0  0
  184.8140  179.6300  141.6200 O   0  0  0  0  0  0  0  0  0  0  0  0
  183.0420  179.2690  143.8260 C   0  0  0  0  0  1  0  0  0  0  0  0
  184.1480  178.3850  143.4870 N   0  0  0  0  0  2  0  0  0  0  0  0
  1  7  1  0  0  0  0
  1  8  1  0  0  0  0
  2  4  1  0  0  0  0
  3 14  1  0  0  0  0
  3 21  1  1  0  0  0
  4  3  1  0  0  0  0
  5  7  1  0  0  0  0
  5 16  2  0  0  0  0
  6  4  2  0  0  0  0
  7  2  2  0  0  0  0
  8 22  1  6  0  0  0
  8 13  1  0  0  0  0
  9 15  2  0  0  0  0
 10 11  1  6  0  0  0
 10 14  1  0  0  0  0
 11  9  1  0  0  0  0
 12 15  1  0  0  0  0
 13  2  1  1  0  0  0
 13 10  1  0  0  0  0
 14 12  2  0  0  0  0
 16  6  1  0  0  0  0
 18 19  1  0  0  0  0
 19 17  1  1  0  0  0
 19  5  1  0  0  0  0
 21 20  1  0  0  0  0
 22 23  1  0  0  0  0
 23 26  1  0  0  0  0
 24 23  2  0  0  0  0
 26 25  1  0  0  0  0
M  END
>  <MODEL>
5

>  <REMARK>
 VINA RESULT:      -8.1      2.026      4.945
  Name = 
  4 active torsions:
  status: ('A' for Active; 'I' for Inactive)
    1  A    between atoms: C_3  and  C_7
    2  A    between atoms: C_3  and  C_14
    3  A    between atoms: C_5  and  C_19
    4  A    between atoms: C_10  and  C_25
                            x       y       z     vdW  Elec       q    Type
                         _______ _______ _______ _____ _____    ______ ____

>  <TORSDO>
F 4

$$$$
=
 OpenBabel11042410543D

 26 29  0  0  1  0  0  0  0  0999 V2000
  185.6290  178.7340  142.9940 O   0  0  0  0  0  0  0  0  0  0  0  0
  187.6260  178.2530  141.9010 C   0  0  0  0  0  0  0  0  0  0  0  0
  189.6270  177.4240  140.8390 C   0  0  2  0  0  3  0  0  0  0  0  0
  188.3360  177.7820  140.6880 C   0  0  0  0  0  0  0  0  0  0  0  0
  185.6260  178.7770  140.5580 C   0  0  0  0  0  0  0  0  0  0  0  0
  187.6520  177.9430  139.3830 C   0  0  0  0  0  3  0  0  0  0  0  0
  186.2280  178.6440  141.7500 C   0  0  0  0  0  0  0  0  0  0  0  0
  186.4920  178.2480  144.0270 C   0  0  2  0  0  3  0  0  0  0  0  0
  191.2330  178.4240  144.7180 C   0  0  0  0  0  3  0  0  0  0  0  0
  189.4250  177.2870  143.4870 C   0  0  1  0  0  3  0  0  0  0  0  0
  189.7380  178.3460  144.5380 C   0  0  0  0  0  2  0  0  0  0  0  0
  191.5190  177.9010  142.3440 C   0  0  0  0  0  3  0  0  0  0  0  0
  187.5960  176.9650  143.2090 P   0  0  2  0  0  0  0  0  0  0  0  0
  190.2480  177.4970  142.2060 C   0  0  0  0  0  0  0  0  0  0  0  0
  192.0580  178.2430  143.6790 C   0  0  0  0  0  3  0  0  0  0  0  0
  186.3970  178.4190  139.3280 C   0  0  0  0  0  3  0  0  0  0  0  0
  183.8070  179.7550  139.0930 C   0  0  0  0  0  1  0  0  0  0  0  0
  183.3290  178.1740  140.8150 O   0  0  0  0  0  1  0  0  0  0  0  0
  184.1870  179.2280  140.4740 C   0  0  1  0  0  3  0  0  0  0  0  0
  190.5470  175.7090  139.4700 O   0  0  0  0  0  1  0  0  0  0  0  0
  190.4740  177.0950  139.6460 C   0  0  0  0  0  2  0  0  0  0  0  0
  185.6760  177.5960  145.1250 C   0  0  0  0  0  2  0  0  0  0  0  0
  186.0760  178.1420  146.4490 C   0  0  0  0  0  0  0  0  0  0  0  0
  185.3150  178.9540  147.0380 O   0  0  0  0  0  0  0  0  0  0  0  0
  187.7480  178.2290  148.3400 C   0  0  0  0  0  1  0  0  0  0  0  0
  187.3030  177.7180  147.0510 N   0  0  0  0  0  2  0  0  0  0  0  0
  1  8  1  0  0  0  0
  3 21  1  6  0  0  0
  3 14  1  0  0  0  0
  4  3  1  0  0  0  0
  4  2  2  0  0  0  0
  5  7  2  0  0  0  0
  6  4  1  0  0  0  0
  7  2  1  0  0  0  0
  7  1  1  0  0  0  0
  8 22  1  1  0  0  0
 10 11  1  1  0  0  0
 11  9  1  0  0  0  0
 12 15  1  0  0  0  0
 13  2  1  6  0  0  0
 13 10  1  0  0  0  0
 13  8  1  0  0  0  0
 14 12  2  0  0  0  0
 14 10  1  0  0  0  0
 15  9  2  0  0  0  0
 16  6  2  0  0  0  0
 16  5  1  0  0  0  0
 19 17  1  6  0  0  0
 19  5  1  0  0  0  0
 19 18  1  0  0  0  0
 20 21  1  0  0  0  0
 22 23  1  0  0  0  0
 23 24  2  0  0  0  0
 23 26  1  0  0  0  0
 26 25  1  0  0  0  0
M  END
>  <MODEL>
6

>  <REMARK>
 VINA RESULT:      -7.6      2.656      5.753
  Name = 
  4 active torsions:
  status: ('A' for Active; 'I' for Inactive)
    1  A    between atoms: C_3  and  C_7
    2  A    between atoms: C_3  and  C_14
    3  A    between atoms: C_5  and  C_19
    4  A    between atoms: C_10  and  C_25
                            x       y       z     vdW  Elec       q    Type
                         _______ _______ _______ _____ _____    ______ ____

>  <TORSDO>
F 4

$$$$
=
 OpenBabel11042410543D

 26 29  0  0  1  0  0  0  0  0999 V2000
  183.7300  178.2420  140.4720 O   0  0  0  0  0  0  0  0  0  0  0  0
  184.3810  178.2530  142.7070 C   0  0  0  0  0  0  0  0  0  0  0  0
  185.1650  178.5850  144.9630 C   0  0  2  0  0  3  0  0  0  0  0  0
  184.1250  178.6590  144.1080 C   0  0  0  0  0  0  0  0  0  0  0  0
  181.9970  178.5580  142.1560 C   0  0  0  0  0  0  0  0  0  0  0  0
  182.7200  178.9040  144.5100 C   0  0  0  0  0  3  0  0  0  0  0  0
  183.2620  178.3280  141.7720 C   0  0  0  0  0  0  0  0  0  0  0  0
  185.1590  178.2890  140.4260 C   0  0  2  0  0  3  0  0  0  0  0  0
  188.6100  176.5920  143.2900 C   0  0  0  0  0  3  0  0  0  0  0  0
  186.9460  178.3890  142.9980 C   0  0  1  0  0  3  0  0  0  0  0  0
  187.5550  177.1430  142.3640 C   0  0  0  0  0  2  0  0  0  0  0  0
  187.2820  177.3450  145.2040 C   0  0  0  0  0  3  0  0  0  0  0  0
  185.6870  179.2840  141.9310 P   0  0  2  0  0  0  0  0  0  0  0  0
  186.5010  178.1300  144.4460 C   0  0  0  0  0  0  0  0  0  0  0  0
  188.4590  176.6660  144.6190 C   0  0  0  0  0  3  0  0  0  0  0  0
  181.7330  178.8430  143.6000 C   0  0  0  0  0  3  0  0  0  0  0  0
  179.6210  177.8640  141.6210 C   0  0  0  0  0  1  0  0  0  0  0  0
  180.5580  179.9000  140.8030 O   0  0  0  0  0  1  0  0  0  0  0  0
  180.8810  178.5790  141.1400 C   0  0  1  0  0  3  0  0  0  0  0  0
  185.7020  179.9260  146.8530 O   0  0  0  0  0  1  0  0  0  0  0  0
  184.9670  178.8140  146.4320 C   0  0  0  0  0  2  0  0  0  0  0  0
  185.6170  178.9900  139.1630 C   0  0  0  0  0  2  0  0  0  0  0  0
  186.7610  178.2550  138.5600 C   0  0  0  0  0  0  0  0  0  0  0  0
  186.5360  177.3300  137.7340 O   0  0  0  0  0  0  0  0  0  0  0  0
  189.2570  177.9290  138.3490 C   0  0  0  0  0  1  0  0  0  0  0  0
  188.1020  178.6220  138.9010 N   0  0  0  0  0  2  0  0  0  0  0  0
  1  7  1  0  0  0  0
  2  4  1  0  0  0  0
  3 21  1  1  0  0  0
  4  6  2  0  0  0  0
  4  3  1  0  0  0  0
  5 16  2  0  0  0  0
  7  5  1  0  0  0  0
  7  2  2  0  0  0  0
  8 22  1  6  0  0  0
  8  1  1  0  0  0  0
  8 13  1  0  0  0  0
  9 15  2  0  0  0  0
 10 11  1  6  0  0  0
 10 14  1  0  0  0  0
 11  9  1  0  0  0  0
 13  2  1  1  0  0  0
 13 10  1  0  0  0  0
 14  3  1  0  0  0  0
 14 12  2  0  0  0  0
 15 12  1  0  0  0  0
 16  6  1  0  0  0  0
 18 19  1  0  0  0  0
 19 17  1  1  0  0  0
 19  5  1  0  0  0  0
 21 20  1  0  0  0  0
 23 26  1  0  0  0  0
 23 22  1  0  0  0  0
 24 23  2  0  0  0  0
 25 26  1  0  0  0  0
M  END
>  <MODEL>
7

>  <REMARK>
 VINA RESULT:      -7.4      2.892      4.547
  Name = 
  4 active torsions:
  status: ('A' for Active; 'I' for Inactive)
    1  A    between atoms: C_3  and  C_7
    2  A    between atoms: C_3  and  C_14
    3  A    between atoms: C_5  and  C_19
    4  A    between atoms: C_10  and  C_25
                            x       y       z     vdW  Elec       q    Type
                         _______ _______ _______ _____ _____    ______ ____

>  <TORSDO>
F 4

$$$$
=
 OpenBabel11042410543D

 26 29  0  0  1  0  0  0  0  0999 V2000
  185.3680  177.8940  144.3170 O   0  0  0  0  0  0  0  0  0  0  0  0
  186.6390  177.9160  142.3670 C   0  0  0  0  0  0  0  0  0  0  0  0
  187.9360  178.2810  140.3670 C   0  0  2  0  0  3  0  0  0  0  0  0
  187.9510  178.0890  141.7020 C   0  0  0  0  0  0  0  0  0  0  0  0
  187.7600  177.4760  144.5190 C   0  0  0  0  0  0  0  0  0  0  0  0
  189.1710  177.8260  142.5010 C   0  0  0  0  0  3  0  0  0  0  0  0
  186.6420  177.7060  143.8130 C   0  0  0  0  0  0  0  0  0  0  0  0
  184.4800  178.4080  143.3200 C   0  0  2  0  0  3  0  0  0  0  0  0
  184.0440  177.6780  138.6010 C   0  0  0  0  0  3  0  0  0  0  0  0
  185.3390  178.8530  140.3390 C   0  0  1  0  0  3  0  0  0  0  0  0
  184.1480  177.9360  140.0830 C   0  0  0  0  0  2  0  0  0  0  0  0
  186.4840  177.7820  138.4390 C   0  0  0  0  0  3  0  0  0  0  0  0
  185.5600  179.3820  142.1270 P   0  0  2  0  0  0  0  0  0  0  0  0
  186.6130  178.3340  139.6540 C   0  0  0  0  0  0  0  0  0  0  0  0
  185.1440  177.5780  137.8450 C   0  0  0  0  0  3  0  0  0  0  0  0
  189.0740  177.5280  143.8090 C   0  0  0  0  0  3  0  0  0  0  0  0
  189.0600  177.1270  146.6640 C   0  0  0  0  0  1  0  0  0  0  0  0
  186.9480  178.2370  146.6330 O   0  0  0  0  0  1  0  0  0  0  0  0
  187.6860  177.2240  146.0060 C   0  0  1  0  0  3  0  0  0  0  0  0
  189.6280  176.9940  139.2990 O   0  0  0  0  0  1  0  0  0  0  0  0
  189.2130  178.3000  139.5820 C   0  0  0  0  0  2  0  0  0  0  0  0
  183.4590  179.3310  143.9550 C   0  0  0  0  0  2  0  0  0  0  0  0
  182.0910  178.9650  143.5000 C   0  0  0  0  0  0  0  0  0  0  0  0
  181.2300  178.6150  144.3490 O   0  0  0  0  0  0  0  0  0  0  0  0
  180.4410  178.6850  141.6090 C   0  0  0  0  0  1  0  0  0  0  0  0
  181.7600  179.0430  142.1090 N   0  0  0  0  0  2  0  0  0  0  0  0
  2  7  1  0  0  0  0
  3 21  1  6  0  0  0
  3  4  1  0  0  0  0
  4  2  2  0  0  0  0
  4  6  1  0  0  0  0
  5 19  1  0  0  0  0
  6 16  2  0  0  0  0
  7  1  1  0  0  0  0
  7  5  2  0  0  0  0
  8 22  1  1  0  0  0
  8  1  1  0  0  0  0
  9 11  1  0  0  0  0
 10 11  1  1  0  0  0
 10 13  1  0  0  0  0
 12 14  2  0  0  0  0
 13  2  1  1  0  0  0
 13  8  1  0  0  0  0
 14 10  1  0  0  0  0
 14  3  1  0  0  0  0
 15 12  1  0  0  0  0
 15  9  2  0  0  0  0
 16  5  1  0  0  0  0
 19 18  1  0  0  0  0
 19 17  1  1  0  0  0
 20 21  1  0  0  0  0
 23 22  1  0  0  0  0
 23 24  2  0  0  0  0
 25 26  1  0  0  0  0
 26 23  1  0  0  0  0
M  END
>  <MODEL>
8

>  <REMARK>
 VINA RESULT:      -7.0      3.022      7.401
  Name = 
  4 active torsions:
  status: ('A' for Active; 'I' for Inactive)
    1  A    between atoms: C_3  and  C_7
    2  A    between atoms: C_3  and  C_14
    3  A    between atoms: C_5  and  C_19
    4  A    between atoms: C_10  and  C_25
                            x       y       z     vdW  Elec       q    Type
                         _______ _______ _______ _____ _____    ______ ____

>  <TORSDO>
F 4

$$$$
=
 OpenBabel11042410543D

 26 29  0  0  1  0  0  0  0  0999 V2000
  186.3700  178.5520  145.2720 O   0  0  0  0  0  0  0  0  0  0  0  0
  187.2050  178.2580  143.1200 C   0  0  0  0  0  0  0  0  0  0  0  0
  188.0200  177.6180  140.9420 C   0  0  2  0  0  3  0  0  0  0  0  0
  186.9620  178.0100  141.6800 C   0  0  0  0  0  0  0  0  0  0  0  0
  184.8840  179.0400  143.4040 C   0  0  0  0  0  0  0  0  0  0  0  0
  185.6500  178.4140  141.1220 C   0  0  0  0  0  3  0  0  0  0  0  0
  186.0670  178.6840  143.9290 C   0  0  0  0  0  0  0  0  0  0  0  0
  187.6160  177.8760  145.4640 C   0  0  2  0  0  3  0  0  0  0  0  0
  191.7690  177.8730  143.0660 C   0  0  0  0  0  3  0  0  0  0  0  0
  189.4630  177.0000  143.0890 C   0  0  1  0  0  3  0  0  0  0  0  0
  190.4800  177.8450  143.8480 C   0  0  0  0  0  2  0  0  0  0  0  0
  190.4780  177.7910  140.9880 C   0  0  0  0  0  3  0  0  0  0  0  0
  187.8240  176.7530  143.9700 P   0  0  2  0  0  0  0  0  0  0  0  0
  189.3500  177.4320  141.6180 C   0  0  0  0  0  0  0  0  0  0  0  0
  191.7570  177.8770  141.7270 C   0  0  0  0  0  3  0  0  0  0  0  0
  184.6920  178.9050  141.9270 C   0  0  0  0  0  3  0  0  0  0  0  0
  182.3810  179.1240  143.7770 C   0  0  0  0  0  1  0  0  0  0  0  0
  183.9260  179.0020  145.5910 O   0  0  0  0  0  1  0  0  0  0  0  0
  183.7620  179.5130  144.2970 C   0  0  1  0  0  3  0  0  0  0  0  0
  188.1870  178.7360  138.8490 O   0  0  0  0  0  1  0  0  0  0  0  0
  187.9140  177.5040  139.4500 C   0  0  0  0  0  2  0  0  0  0  0  0
  187.5690  177.0410  146.7280 C   0  0  0  0  0  2  0  0  0  0  0  0
  188.8320  177.2090  147.4950 C   0  0  0  0  0  0  0  0  0  0  0  0
  188.8180  177.8560  148.5760 O   0  0  0  0  0  0  0  0  0  0  0  0
  191.3060  176.7540  147.7190 C   0  0  0  0  0  1  0  0  0  0  0  0
  190.0410  176.6110  147.0140 N   0  0  0  0  0  2  0  0  0  0  0  0
  1  8  1  0  0  0  0
  2  7  1  0  0  0  0
  3 21  1  6  0  0  0
  3 14  1  0  0  0  0
  3  4  1  0  0  0  0
  4  2  2  0  0  0  0
  5  7  2  0  0  0  0
  5 19  1  0  0  0  0
  6  4  1  0  0  0  0
  6 16  2  0  0  0  0
  7  1  1  0  0  0  0
  8 22  1  1  0  0  0
  9 11  1  0  0  0  0
 10 11  1  1  0  0  0
 10 13  1  0  0  0  0
 12 14  2  0  0  0  0
 12 15  1  0  0  0  0
 13  2  1  6  0  0  0
 13  8  1  0  0  0  0
 14 10  1  0  0  0  0
 15  9  2  0  0  0  0
 16  5  1  0  0  0  0
 19 17  1  6  0  0  0
 19 18  1  0  0  0  0
 20 21  1  0  0  0  0
 22 23  1  0  0  0  0
 23 24  2  0  0  0  0
 26 23  1  0  0  0  0
 26 25  1  0  0  0  0
M  END
>  <MODEL>
9

>  <REMARK>
 VINA RESULT:      -7.0      2.509      5.712
  Name = 
  4 active torsions:
  status: ('A' for Active; 'I' for Inactive)
    1  A    between atoms: C_3  and  C_7
    2  A    between atoms: C_3  and  C_14
    3  A    between atoms: C_5  and  C_19
    4  A    between atoms: C_10  and  C_25
                            x       y       z     vdW  Elec       q    Type
                         _______ _______ _______ _____ _____    ______ ____

>  <TORSDO>
F 4

$$$$
