=
 OpenBabel11032421053D

 59 67  0  0  1  0  0  0  0  0999 V2000
  186.7600  178.1560  136.9190 C   0  0  0  0  0  1  0  0  0  0  0  0
  187.1000  176.6750  136.9470 C   0  0  2  0  0  0  0  0  0  0  0  0
  186.4800  176.0040  135.7110 C   0  0  1  0  0  3  0  0  0  0  0  0
  186.6390  176.1570  138.1610 O   0  0  0  0  0  1  0  0  0  0  0  0
  188.8700  176.3760  135.2960 C   0  0  0  0  0  2  0  0  0  0  0  0
  188.6110  176.5180  136.7900 C   0  0  2  0  0  3  0  0  0  0  0  0
  187.5110  176.2950  134.6160 C   0  0  0  0  0  2  0  0  0  0  0  0
  184.6810  174.0630  135.6830 C   0  0  1  0  0  3  0  0  0  0  0  0
  185.6860  173.7130  134.5940 C   0  0  0  0  0  2  0  0  0  0  0  0
  186.1520  174.4710  135.8290 C   0  0  1  0  0  0  0  0  0  0  0  0
  182.9820  175.8720  136.1350 C   0  0  0  0  0  0  0  0  0  0  0  0
  182.9050  175.4950  137.5120 N   0  0  0  0  0  2  0  0  0  0  0  0
  183.8290  175.1560  135.2380 N   0  0  0  0  0  2  0  0  0  0  0  0
  182.3100  176.8430  135.7030 O   0  0  0  0  0  0  0  0  0  0  0  0
  182.0260  176.1780  138.4520 C   0  0  0  0  0  2  0  0  0  0  0  0
  182.7950  176.6250  139.6880 C   0  0  0  0  0  2  0  0  0  0  0  0
  182.8520  178.5880  141.5710 O   0  0  0  0  0  1  0  0  0  0  0  0
  183.1380  179.4090  139.1170 O   0  0  0  0  0  0  0  0  0  0  0  0
  182.3650  178.3300  140.1650 P   0  0  1  0  0  0  0  0  0  0  0  0
  180.5470  178.5730  140.0780 C   0  0  1  0  0  3  0  0  0  0  0  0
  180.9050  181.0240  139.4430 C   0  0  0  0  0  1  0  0  0  0  0  0
  180.1730  180.3390  141.6910 N   0  0  0  0  0  0  0  0  0  0  0  0
  180.2870  179.0390  143.7410 C   0  0  0  0  0  1  0  0  0  0  0  0
  179.7660  177.6710  141.4340 S   0  0  0  0  0  0  0  0  0  0  0  0
  180.1150  180.0200  140.2730 C   0  0  2  0  0  3  0  0  0  0  0  0
  179.5920  179.2070  142.4050 C   0  0  2  0  0  3  0  0  0  0  0  0
  179.3460  181.3930  141.8960 O   0  0  0  0  0  1  0  0  0  0  0  0
  186.7820  173.6410  136.9060 C   0  0  0  0  0  0  0  0  0  0  0  0
  186.3110  173.6510  138.0740 O   0  0  0  0  0  1  0  0  0  0  0  0
  187.8640  172.8250  136.6050 O   0  0  0  0  0  0  0  0  0  0  0  0
  189.2510  175.0370  137.6490 S   0  0  0  0  0  0  0  0  0  0  0  0
  192.9220  177.2680  139.3810 C   0  0  0  0  0  3  0  0  0  0  0  0
  191.9170  175.8350  137.7190 C   0  0  0  0  0  0  0  0  0  0  0  0
  190.6620  175.9140  138.3280 C   0  0  0  0  0  0  0  0  0  0  0  0
  192.3900  175.1260  136.4890 C   0  0  1  0  0  3  0  0  0  0  0  0
  191.6810  177.3500  140.0290 C   0  0  0  0  0  3  0  0  0  0  0  0
  190.5490  176.6770  139.5130 C   0  0  0  0  0  0  0  0  0  0  0  0
  194.1330  176.2840  137.4130 N   0  0  0  0  0  0  0  0  0  0  0  0
  193.8070  175.5220  136.4460 N   0  0  0  0  0  0  0  0  0  0  0  0
  192.9970  176.5030  138.2230 C   0  0  0  0  0  0  0  0  0  0  0  0
  192.2900  173.6170  136.6690 C   0  0  0  0  0  3  0  0  0  0  0  0
  192.9370  172.9100  135.4900 C   0  0  0  0  0  2  0  0  0  0  0  0
  191.4310  173.0340  135.5620 C   0  0  0  0  0  2  0  0  0  0  0  0
  189.2840  176.7790  140.1780 N   0  0  0  0  0  2  0  0  0  0  0  0
  188.5670  177.9850  140.2240 N   0  0  0  0  0  2  0  0  0  0  0  0
  189.0060  178.6960  141.4110 C   0  0  0  0  0  2  0  0  0  0  0  0
  191.2450  178.7160  143.5090 Cl  0  0  0  0  0  0  0  0  0  0  0  0
  188.7720  177.8200  142.6320 C   0  0  2  0  0  3  0  0  0  0  0  0
  187.9410  177.5830  144.8630 C   0  0  2  0  0  3  0  0  0  0  0  0
  189.5890  176.8060  145.0010 S   0  0  0  0  0  0  0  0  0  0  0  0
  187.8810  178.4890  143.6520 C   0  0  0  0  0  2  0  0  0  0  0  0
  190.0530  177.3860  143.3400 C   0  0  2  0  0  3  0  0  0  0  0  0
  185.9410  177.7160  146.6090 C   0  0  1  0  0  3  0  0  0  0  0  0
  186.2140  179.1700  146.2170 C   0  0  1  0  0  3  0  0  0  0  0  0
  184.9480  177.6060  145.4650 C   0  0  0  0  0  2  0  0  0  0  0  0
  187.3430  178.1430  146.1800 C   0  0  2  0  0  0  0  0  0  0  0  0
  185.2210  179.0400  145.0770 C   0  0  0  0  0  2  0  0  0  0  0  0
  187.9540  177.0600  148.0590 C   0  0  0  0  0  1  0  0  0  0  0  0
  188.2140  178.1960  147.2810 O   0  0  0  0  0  0  0  0  0  0  0  0
  2  1  1  6  0  0  0
  2  4  1  0  0  0  0
  3  7  1  6  0  0  0
  3 10  1  0  0  0  0
  3  2  1  0  0  0  0
  5  6  1  0  0  0  0
  6  2  1  0  0  0  0
  6 31  1  1  0  0  0
  7  5  1  0  0  0  0
  8 13  1  6  0  0  0
  8 10  1  0  0  0  0
  9  8  1  0  0  0  0
  9 10  1  0  0  0  0
 10 28  1  1  0  0  0
 11 12  1  0  0  0  0
 12 15  1  0  0  0  0
 13 11  1  0  0  0  0
 14 11  2  0  0  0  0
 15 16  1  0  0  0  0
 16 19  1  0  0  0  0
 19 18  2  6  0  0  0
 19 17  1  0  0  0  0
 20 19  1  1  0  0  0
 20 25  1  0  0  0  0
 20 24  1  0  0  0  0
 22 27  1  0  0  0  0
 22 26  1  0  0  0  0
 24 26  1  0  0  0  0
 25 21  1  6  0  0  0
 25 22  1  0  0  0  0
 26 23  1  1  0  0  0
 28 29  1  0  0  0  0
 30 28  2  0  0  0  0
 31 34  1  0  0  0  0
 32 36  1  0  0  0  0
 33 40  1  0  0  0  0
 33 34  2  0  0  0  0
 34 37  1  0  0  0  0
 35 41  1  1  0  0  0
 35 33  1  0  0  0  0
 37 36  2  0  0  0  0
 37 44  1  0  0  0  0
 38 40  1  0  0  0  0
 39 35  1  0  0  0  0
 39 38  2  0  0  0  0
 40 32  2  0  0  0  0
 42 43  1  0  0  0  0
 42 41  1  0  0  0  0
 43 41  1  0  0  0  0
 44 45  1  0  0  0  0
 45 46  1  0  0  0  0
 48 46  1  6  0  0  0
 48 52  1  0  0  0  0
 48 51  1  0  0  0  0
 49 51  1  6  0  0  0
 49 50  1  0  0  0  0
 49 56  1  0  0  0  0
 52 47  1  1  0  0  0
 52 50  1  0  0  0  0
 53 55  1  6  0  0  0
 54 57  1  6  0  0  0
 54 53  1  0  0  0  0
 56 54  1  0  0  0  0
 56 53  1  0  0  0  0
 56 59  1  1  0  0  0
 57 55  1  0  0  0  0
 59 58  1  0  0  0  0
M  END
>  <MODEL>
1

>  <REMARK>
 VINA RESULT:      -6.5      0.000      0.000
  Name = 
  16 active torsions:
  status: ('A' for Active; 'I' for Inactive)
    1  A    between atoms: C_1  and  C_15
    2  A    between atoms: C_1  and  P_32
    3  A    between atoms: S_3  and  C_27
    4  A    between atoms: S_3  and  C_54
    5  A    between atoms: C_4  and  N_39
    6  A    between atoms: C_5  and  C_53
    7  A    between atoms: C_10  and  P_32
    8  A    between atoms: N_11  and  N_23
    9  A    between atoms: N_11  and  C_25
   10  A    between atoms: C_13  and  C_25
   11  A    between atoms: C_15  and  N_36
   12  A    between atoms: O_16  and  C_40
   13  A    between atoms: C_19  and  C_28
   14  A    between atoms: C_20  and  C_40
   15  A    between atoms: N_23  and  C_31
   16  A    between atoms: C_43  and  C_53
                            x       y       z     vdW  Elec       q    Type
                         _______ _______ _______ _____ _____    ______ ____

>  <TORSDO>
F 16

$$$$
=
 OpenBabel11032421053D

 59 67  0  0  1  0  0  0  0  0999 V2000
  186.8680  177.5980  137.0550 C   0  0  0  0  0  1  0  0  0  0  0  0
  187.1860  176.1140  136.9730 C   0  0  2  0  0  0  0  0  0  0  0  0
  186.3820  175.5000  135.8160 C   0  0  1  0  0  3  0  0  0  0  0  0
  186.9010  175.5510  138.2200 O   0  0  0  0  0  1  0  0  0  0  0  0
  188.6900  175.8680  135.0680 C   0  0  0  0  0  2  0  0  0  0  0  0
  188.6560  175.9500  136.5890 C   0  0  2  0  0  3  0  0  0  0  0  0
  187.2450  175.8280  134.5940 C   0  0  0  0  0  2  0  0  0  0  0  0
  184.6620  173.5230  135.4460 C   0  0  1  0  0  3  0  0  0  0  0  0
  185.9020  173.1500  134.6440 C   0  0  0  0  0  2  0  0  0  0  0  0
  186.0510  173.9680  135.9200 C   0  0  1  0  0  0  0  0  0  0  0  0
  182.6810  175.0720  135.2460 C   0  0  0  0  0  0  0  0  0  0  0  0
  182.0770  174.4960  136.4070 N   0  0  0  0  0  2  0  0  0  0  0  0
  183.9300  174.5790  134.7630 N   0  0  0  0  0  2  0  0  0  0  0  0
  182.1210  176.0240  134.6440 O   0  0  0  0  0  0  0  0  0  0  0  0
  180.7870  174.9470  136.9110 C   0  0  0  0  0  2  0  0  0  0  0  0
  180.9000  175.4020  138.3600 C   0  0  0  0  0  2  0  0  0  0  0  0
  179.1590  177.4850  138.1890 O   0  0  0  0  0  0  0  0  0  0  0  0
  180.8890  177.6540  140.1270 O   0  0  0  0  0  1  0  0  0  0  0  0
  180.6010  177.1910  138.5260 P   0  0  1  0  0  0  0  0  0  0  0  0
  181.7100  178.1260  137.3990 C   0  0  1  0  0  3  0  0  0  0  0  0
  183.7290  177.4230  138.8040 C   0  0  0  0  0  1  0  0  0  0  0  0
  182.7850  179.6950  138.8970 N   0  0  0  0  0  0  0  0  0  0  0  0
  180.9970  181.3270  139.1150 C   0  0  0  0  0  1  0  0  0  0  0  0
  180.9110  179.6780  136.9380 S   0  0  0  0  0  0  0  0  0  0  0  0
  183.0260  178.5420  138.0440 C   0  0  2  0  0  3  0  0  0  0  0  0
  181.9140  180.5990  138.1530 C   0  0  2  0  0  3  0  0  0  0  0  0
  183.9710  180.3330  139.0480 O   0  0  0  0  0  1  0  0  0  0  0  0
  186.4150  173.1950  137.1520 C   0  0  0  0  0  0  0  0  0  0  0  0
  187.5170  172.5900  137.2200 O   0  0  0  0  0  0  0  0  0  0  0  0
  185.5520  173.1830  138.2390 O   0  0  0  0  0  1  0  0  0  0  0  0
  189.3920  174.4280  137.2840 S   0  0  0  0  0  0  0  0  0  0  0  0
  193.5610  176.3600  137.8720 C   0  0  0  0  0  3  0  0  0  0  0  0
  192.0550  174.9270  136.6450 C   0  0  0  0  0  0  0  0  0  0  0  0
  191.0000  175.1920  137.5210 C   0  0  0  0  0  0  0  0  0  0  0  0
  192.1470  174.0790  135.4160 C   0  0  1  0  0  3  0  0  0  0  0  0
  192.5280  176.6300  138.7820 C   0  0  0  0  0  3  0  0  0  0  0  0
  191.2480  176.0500  138.6170 C   0  0  0  0  0  0  0  0  0  0  0  0
  194.1600  175.1020  135.7840 N   0  0  0  0  0  0  0  0  0  0  0  0
  193.5410  174.3100  135.0010 N   0  0  0  0  0  0  0  0  0  0  0  0
  193.2810  175.5070  136.8110 C   0  0  0  0  0  0  0  0  0  0  0  0
  191.9590  172.6080  135.7650 C   0  0  0  0  0  3  0  0  0  0  0  0
  193.3120  171.9360  135.9270 C   0  0  0  0  0  2  0  0  0  0  0  0
  192.5250  171.7500  134.6490 C   0  0  0  0  0  2  0  0  0  0  0  0
  190.1990  176.3430  139.5470 N   0  0  0  0  0  2  0  0  0  0  0  0
  189.3810  177.4740  139.4090 N   0  0  0  0  0  2  0  0  0  0  0  0
  189.4550  178.2090  140.6590 C   0  0  0  0  0  2  0  0  0  0  0  0
  190.5640  178.3960  143.5140 Cl  0  0  0  0  0  0  0  0  0  0  0  0
  188.6650  177.4630  141.7230 C   0  0  2  0  0  3  0  0  0  0  0  0
  186.9380  177.4660  143.3790 C   0  0  2  0  0  3  0  0  0  0  0  0
  188.3150  176.6760  144.2850 S   0  0  0  0  0  0  0  0  0  0  0  0
  187.4630  178.2480  142.1940 C   0  0  0  0  0  2  0  0  0  0  0  0
  189.4840  177.0790  142.9510 C   0  0  2  0  0  3  0  0  0  0  0  0
  184.3960  178.0960  143.8390 C   0  0  1  0  0  3  0  0  0  0  0  0
  185.1350  179.4370  143.8260 C   0  0  1  0  0  3  0  0  0  0  0  0
  184.1680  178.2200  142.3420 C   0  0  0  0  0  2  0  0  0  0  0  0
  185.8650  178.1660  144.2530 C   0  0  2  0  0  0  0  0  0  0  0  0
  184.8990  179.5410  142.3300 C   0  0  0  0  0  2  0  0  0  0  0  0
  185.7440  179.2690  146.2150 C   0  0  0  0  0  1  0  0  0  0  0  0
  186.0050  178.0160  145.6430 O   0  0  0  0  0  0  0  0  0  0  0  0
  2  1  1  1  0  0  0
  2  4  1  0  0  0  0
  3  7  1  6  0  0  0
  3 10  1  0  0  0  0
  3  2  1  0  0  0  0
  5  6  1  0  0  0  0
  6  2  1  0  0  0  0
  6 31  1  1  0  0  0
  7  5  1  0  0  0  0
  8 13  1  6  0  0  0
  8 10  1  0  0  0  0
  9  8  1  0  0  0  0
  9 10  1  0  0  0  0
 10 28  1  1  0  0  0
 11 12  1  0  0  0  0
 12 15  1  0  0  0  0
 13 11  1  0  0  0  0
 14 11  2  0  0  0  0
 15 16  1  0  0  0  0
 16 19  1  0  0  0  0
 19 17  2  6  0  0  0
 19 18  1  0  0  0  0
 20 25  1  0  0  0  0
 20 19  1  1  0  0  0
 22 27  1  0  0  0  0
 24 20  1  0  0  0  0
 24 26  1  0  0  0  0
 25 21  1  1  0  0  0
 25 22  1  0  0  0  0
 26 22  1  0  0  0  0
 26 23  1  1  0  0  0
 28 29  2  0  0  0  0
 28 30  1  0  0  0  0
 31 34  1  0  0  0  0
 32 36  1  0  0  0  0
 33 40  1  0  0  0  0
 33 34  2  0  0  0  0
 34 37  1  0  0  0  0
 35 41  1  1  0  0  0
 35 33  1  0  0  0  0
 37 36  2  0  0  0  0
 37 44  1  0  0  0  0
 38 40  1  0  0  0  0
 39 35  1  0  0  0  0
 39 38  2  0  0  0  0
 40 32  2  0  0  0  0
 41 42  1  0  0  0  0
 43 41  1  0  0  0  0
 43 42  1  0  0  0  0
 45 44  1  0  0  0  0
 45 46  1  0  0  0  0
 48 46  1  6  0  0  0
 48 51  1  0  0  0  0
 48 52  1  0  0  0  0
 49 51  1  6  0  0  0
 49 56  1  0  0  0  0
 49 50  1  0  0  0  0
 52 47  1  1  0  0  0
 52 50  1  0  0  0  0
 53 55  1  6  0  0  0
 53 56  1  0  0  0  0
 54 57  1  6  0  0  0
 54 53  1  0  0  0  0
 54 56  1  0  0  0  0
 56 59  1  1  0  0  0
 57 55  1  0  0  0  0
 59 58  1  0  0  0  0
M  END
>  <MODEL>
2

>  <REMARK>
 VINA RESULT:      -6.4      1.844      2.451
  Name = 
  16 active torsions:
  status: ('A' for Active; 'I' for Inactive)
    1  A    between atoms: C_1  and  C_15
    2  A    between atoms: C_1  and  P_32
    3  A    between atoms: S_3  and  C_27
    4  A    between atoms: S_3  and  C_54
    5  A    between atoms: C_4  and  N_39
    6  A    between atoms: C_5  and  C_53
    7  A    between atoms: C_10  and  P_32
    8  A    between atoms: N_11  and  N_23
    9  A    between atoms: N_11  and  C_25
   10  A    between atoms: C_13  and  C_25
   11  A    between atoms: C_15  and  N_36
   12  A    between atoms: O_16  and  C_40
   13  A    between atoms: C_19  and  C_28
   14  A    between atoms: C_20  and  C_40
   15  A    between atoms: N_23  and  C_31
   16  A    between atoms: C_43  and  C_53
                            x       y       z     vdW  Elec       q    Type
                         _______ _______ _______ _____ _____    ______ ____

>  <TORSDO>
F 16

$$$$
=
 OpenBabel11032421053D

 59 67  0  0  1  0  0  0  0  0999 V2000
  188.5340  179.6390  141.4720 C   0  0  0  0  0  1  0  0  0  0  0  0
  189.1480  178.3760  142.0540 C   0  0  2  0  0  0  0  0  0  0  0  0
  190.6490  178.3590  141.7220 C   0  0  1  0  0  3  0  0  0  0  0  0
  188.4430  177.2850  141.5370 O   0  0  0  0  0  1  0  0  0  0  0  0
  190.3600  179.0920  144.0460 C   0  0  0  0  0  2  0  0  0  0  0  0
  189.0610  178.4480  143.5770 C   0  0  2  0  0  3  0  0  0  0  0  0
  191.2470  179.2440  142.8190 C   0  0  0  0  0  2  0  0  0  0  0  0
  191.2050  176.1780  140.3300 C   0  0  1  0  0  3  0  0  0  0  0  0
  192.5500  176.7620  140.7420 C   0  0  0  0  0  2  0  0  0  0  0  0
  191.3400  176.9500  141.6470 C   0  0  1  0  0  0  0  0  0  0  0  0
  190.7810  176.6330  137.8850 C   0  0  0  0  0  0  0  0  0  0  0  0
  191.5690  175.5000  137.5080 N   0  0  0  0  0  2  0  0  0  0  0  0
  190.6250  176.9770  139.2600 N   0  0  0  0  0  2  0  0  0  0  0  0
  190.2120  177.3300  137.0070 O   0  0  0  0  0  0  0  0  0  0  0  0
  191.7820  175.1360  136.1140 C   0  0  0  0  0  2  0  0  0  0  0  0
  192.7310  173.9500  136.0020 C   0  0  0  0  0  2  0  0  0  0  0  0
  195.0830  173.3840  134.7580 O   0  0  0  0  0  1  0  0  0  0  0  0
  194.3210  175.8680  134.5940 O   0  0  0  0  0  0  0  0  0  0  0  0
  194.4150  174.4800  135.5550 P   0  0  1  0  0  0  0  0  0  0  0  0
  195.3920  174.8360  137.0690 C   0  0  1  0  0  3  0  0  0  0  0  0
  197.3960  175.4920  135.6220 C   0  0  0  0  0  1  0  0  0  0  0  0
  197.2900  173.3520  136.8360 N   0  0  0  0  0  0  0  0  0  0  0  0
  196.2540  171.2670  137.5310 C   0  0  0  0  0  1  0  0  0  0  0  0
  195.0290  173.5800  138.3140 S   0  0  0  0  0  0  0  0  0  0  0  0
  196.8970  174.7530  136.8580 C   0  0  2  0  0  3  0  0  0  0  0  0
  196.5770  172.6940  137.9250 C   0  0  2  0  0  3  0  0  0  0  0  0
  198.6080  173.3040  137.1480 O   0  0  0  0  0  1  0  0  0  0  0  0
  191.2230  175.9870  142.7900 C   0  0  0  0  0  0  0  0  0  0  0  0
  192.0490  176.0240  143.7400 O   0  0  0  0  0  1  0  0  0  0  0  0
  190.1750  175.0770  142.8220 O   0  0  0  0  0  0  0  0  0  0  0  0
  188.9040  176.7970  144.3460 S   0  0  0  0  0  0  0  0  0  0  0  0
  186.7630  178.4310  148.1140 C   0  0  0  0  0  3  0  0  0  0  0  0
  188.7580  177.6790  146.9820 C   0  0  0  0  0  0  0  0  0  0  0  0
  188.0610  177.4380  145.7950 C   0  0  0  0  0  0  0  0  0  0  0  0
  190.2010  177.5250  147.3440 C   0  0  1  0  0  3  0  0  0  0  0  0
  186.0310  178.1800  146.9440 C   0  0  0  0  0  3  0  0  0  0  0  0
  186.6690  177.6820  145.7840 C   0  0  0  0  0  0  0  0  0  0  0  0
  189.0540  178.3530  149.1410 N   0  0  0  0  0  0  0  0  0  0  0  0
  190.2090  177.9990  148.7380 N   0  0  0  0  0  0  0  0  0  0  0  0
  188.1290  178.1730  148.0890 C   0  0  0  0  0  0  0  0  0  0  0  0
  190.6100  176.0580  147.3040 C   0  0  0  0  0  3  0  0  0  0  0  0
  191.9590  175.8770  147.9790 C   0  0  0  0  0  2  0  0  0  0  0  0
  191.8680  175.9090  146.4690 C   0  0  0  0  0  2  0  0  0  0  0  0
  185.9110  177.4410  144.5920 N   0  0  0  0  0  2  0  0  0  0  0  0
  185.3390  178.4880  143.8540 N   0  0  0  0  0  2  0  0  0  0  0  0
  185.4640  178.1360  142.4510 C   0  0  0  0  0  2  0  0  0  0  0  0
  185.7800  178.3370  139.4050 Cl  0  0  0  0  0  0  0  0  0  0  0  0
  184.2520  178.6580  141.6960 C   0  0  2  0  0  3  0  0  0  0  0  0
  182.2100  178.2140  140.5300 C   0  0  2  0  0  3  0  0  0  0  0  0
  183.0370  179.3800  139.3910 S   0  0  0  0  0  0  0  0  0  0  0  0
  183.2170  177.5810  141.4650 C   0  0  0  0  0  2  0  0  0  0  0  0
  184.5830  179.2860  140.3450 C   0  0  2  0  0  3  0  0  0  0  0  0
  179.8590  177.8430  139.3460 C   0  0  1  0  0  3  0  0  0  0  0  0
  179.8400  176.9030  140.5550 C   0  0  1  0  0  3  0  0  0  0  0  0
  179.2630  178.9430  140.2070 C   0  0  0  0  0  2  0  0  0  0  0  0
  181.1650  177.2650  139.8880 C   0  0  2  0  0  0  0  0  0  0  0  0
  179.2480  178.0170  141.3990 C   0  0  0  0  0  2  0  0  0  0  0  0
  180.9070  176.3210  137.8580 C   0  0  0  0  0  1  0  0  0  0  0  0
  181.6740  176.2750  139.0310 O   0  0  0  0  0  0  0  0  0  0  0  0
  2  1  1  6  0  0  0
  2  6  1  0  0  0  0
  3  2  1  0  0  0  0
  3  7  1  1  0  0  0
  4  2  1  0  0  0  0
  6  5  1  0  0  0  0
  6 31  1  1  0  0  0
  7  5  1  0  0  0  0
  8 13  1  6  0  0  0
  8  9  1  0  0  0  0
  8 10  1  0  0  0  0
  9 10  1  0  0  0  0
 10  3  1  0  0  0  0
 10 28  1  1  0  0  0
 11 13  1  0  0  0  0
 12 11  1  0  0  0  0
 14 11  2  0  0  0  0
 15 12  1  0  0  0  0
 16 15  1  0  0  0  0
 17 19  1  0  0  0  0
 19 18  2  6  0  0  0
 19 16  1  0  0  0  0
 20 19  1  6  0  0  0
 20 24  1  0  0  0  0
 22 25  1  0  0  0  0
 22 27  1  0  0  0  0
 22 26  1  0  0  0  0
 25 21  1  6  0  0  0
 25 20  1  0  0  0  0
 26 23  1  6  0  0  0
 26 24  1  0  0  0  0
 28 30  2  0  0  0  0
 28 29  1  0  0  0  0
 31 34  1  0  0  0  0
 33 35  1  0  0  0  0
 33 40  2  0  0  0  0
 34 33  1  0  0  0  0
 35 41  1  1  0  0  0
 35 39  1  0  0  0  0
 36 32  2  0  0  0  0
 37 34  2  0  0  0  0
 37 36  1  0  0  0  0
 39 38  2  0  0  0  0
 40 32  1  0  0  0  0
 40 38  1  0  0  0  0
 41 42  1  0  0  0  0
 43 41  1  0  0  0  0
 43 42  1  0  0  0  0
 44 37  1  0  0  0  0
 45 44  1  0  0  0  0
 46 45  1  0  0  0  0
 48 46  1  6  0  0  0
 49 51  1  6  0  0  0
 50 52  1  0  0  0  0
 50 49  1  0  0  0  0
 51 48  1  0  0  0  0
 52 47  1  6  0  0  0
 52 48  1  0  0  0  0
 53 56  1  0  0  0  0
 53 55  1  1  0  0  0
 53 54  1  0  0  0  0
 54 57  1  1  0  0  0
 55 57  1  0  0  0  0
 56 59  1  6  0  0  0
 56 49  1  0  0  0  0
 56 54  1  0  0  0  0
 58 59  1  0  0  0  0
M  END
>  <MODEL>
3

>  <REMARK>
 VINA RESULT:      -5.7      4.264     10.837
  Name = 
  16 active torsions:
  status: ('A' for Active; 'I' for Inactive)
    1  A    between atoms: C_1  and  C_15
    2  A    between atoms: C_1  and  P_32
    3  A    between atoms: S_3  and  C_27
    4  A    between atoms: S_3  and  C_54
    5  A    between atoms: C_4  and  N_39
    6  A    between atoms: C_5  and  C_53
    7  A    between atoms: C_10  and  P_32
    8  A    between atoms: N_11  and  N_23
    9  A    between atoms: N_11  and  C_25
   10  A    between atoms: C_13  and  C_25
   11  A    between atoms: C_15  and  N_36
   12  A    between atoms: O_16  and  C_40
   13  A    between atoms: C_19  and  C_28
   14  A    between atoms: C_20  and  C_40
   15  A    between atoms: N_23  and  C_31
   16  A    between atoms: C_43  and  C_53
                            x       y       z     vdW  Elec       q    Type
                         _______ _______ _______ _____ _____    ______ ____

>  <TORSDO>
F 16

$$$$
=
 OpenBabel11032421053D

 59 67  0  0  1  0  0  0  0  0999 V2000
  189.3310  180.5300  142.0700 C   0  0  0  0  0  1  0  0  0  0  0  0
  189.2760  179.0190  142.2290 C   0  0  2  0  0  0  0  0  0  0  0  0
  190.7020  178.4580  142.1030 C   0  0  1  0  0  3  0  0  0  0  0  0
  188.3880  178.5240  141.2710 O   0  0  0  0  0  1  0  0  0  0  0  0
  190.1010  178.5640  144.4790 C   0  0  0  0  0  2  0  0  0  0  0  0
  188.8280  178.6930  143.6530 C   0  0  2  0  0  3  0  0  0  0  0  0
  191.2700  178.6590  143.5110 C   0  0  0  0  0  2  0  0  0  0  0  0
  190.3330  176.6570  140.1980 C   0  0  1  0  0  3  0  0  0  0  0  0
  191.8240  176.6390  140.5030 C   0  0  0  0  0  2  0  0  0  0  0  0
  190.8350  176.9710  141.6120 C   0  0  1  0  0  0  0  0  0  0  0  0
  189.6380  177.7980  138.0570 C   0  0  0  0  0  0  0  0  0  0  0  0
  189.6470  176.5510  137.3570 N   0  0  0  0  0  2  0  0  0  0  0  0
  189.9980  177.8530  139.4370 N   0  0  0  0  0  2  0  0  0  0  0  0
  189.3070  178.8570  137.4660 O   0  0  0  0  0  0  0  0  0  0  0  0
  189.3210  176.4580  135.9400 C   0  0  0  0  0  2  0  0  0  0  0  0
  188.1010  175.5730  135.7210 C   0  0  0  0  0  2  0  0  0  0  0  0
  186.2760  176.6480  137.4290 O   0  0  0  0  0  1  0  0  0  0  0  0
  186.7210  178.0400  135.2730 O   0  0  0  0  0  0  0  0  0  0  0  0
  186.5500  176.4990  135.9510 P   0  0  1  0  0  0  0  0  0  0  0  0
  185.1580  175.6150  135.1430 C   0  0  1  0  0  3  0  0  0  0  0  0
  183.5010  177.2360  136.2240 C   0  0  0  0  0  1  0  0  0  0  0  0
  183.8020  174.9280  137.0270 N   0  0  0  0  0  0  0  0  0  0  0  0
  185.0950  173.0080  137.7690 C   0  0  0  0  0  1  0  0  0  0  0  0
  185.4770  173.8390  135.1940 S   0  0  0  0  0  0  0  0  0  0  0  0
  183.8250  175.7930  135.8580 C   0  0  2  0  0  3  0  0  0  0  0  0
  184.3460  173.6390  136.6130 C   0  0  2  0  0  3  0  0  0  0  0  0
  182.5020  174.7190  137.3420 O   0  0  0  0  0  1  0  0  0  0  0  0
  190.4680  175.8370  142.5210 C   0  0  0  0  0  0  0  0  0  0  0  0
  189.3520  175.2640  142.4040 O   0  0  0  0  0  0  0  0  0  0  0  0
  191.3780  175.3870  143.4680 O   0  0  0  0  0  1  0  0  0  0  0  0
  187.8940  177.1250  143.7490 S   0  0  0  0  0  0  0  0  0  0  0  0
  184.1180  179.1620  145.4940 C   0  0  0  0  0  3  0  0  0  0  0  0
  186.3800  178.3560  145.7340 C   0  0  0  0  0  0  0  0  0  0  0  0
  186.4250  177.9200  144.4070 C   0  0  0  0  0  0  0  0  0  0  0  0
  187.3940  178.3230  146.8340 C   0  0  1  0  0  3  0  0  0  0  0  0
  184.1240  178.7170  144.1640 C   0  0  0  0  0  3  0  0  0  0  0  0
  185.2690  178.0940  143.6140 C   0  0  0  0  0  0  0  0  0  0  0  0
  185.4880  179.3360  147.5910 N   0  0  0  0  0  0  0  0  0  0  0  0
  186.6650  178.9850  147.9280 N   0  0  0  0  0  0  0  0  0  0  0  0
  185.2710  178.9680  146.2450 C   0  0  0  0  0  0  0  0  0  0  0  0
  187.7080  176.8850  147.2300 C   0  0  0  0  0  3  0  0  0  0  0  0
  188.4350  176.8610  148.5630 C   0  0  0  0  0  2  0  0  0  0  0  0
  189.2120  176.6940  147.2760 C   0  0  0  0  0  2  0  0  0  0  0  0
  185.2650  177.6550  142.2500 N   0  0  0  0  0  2  0  0  0  0  0  0
  184.0830  177.5910  141.4960 N   0  0  0  0  0  2  0  0  0  0  0  0
  184.0440  178.7820  140.6670 C   0  0  0  0  0  2  0  0  0  0  0  0
  181.2620  179.1980  141.8930 Cl  0  0  0  0  0  0  0  0  0  0  0  0
  182.8760  178.6780  139.6990 C   0  0  2  0  0  3  0  0  0  0  0  0
  181.3570  179.7450  138.1880 C   0  0  2  0  0  3  0  0  0  0  0  0
  180.2210  178.7220  139.1900 S   0  0  0  0  0  0  0  0  0  0  0  0
  182.6660  179.9550  138.9200 C   0  0  0  0  0  2  0  0  0  0  0  0
  181.5510  178.3100  140.3610 C   0  0  2  0  0  3  0  0  0  0  0  0
  179.4780  180.8290  136.6520 C   0  0  1  0  0  3  0  0  0  0  0  0
  180.8020  181.2560  136.0110 C   0  0  1  0  0  3  0  0  0  0  0  0
  179.4770  179.5790  135.7890 C   0  0  0  0  0  2  0  0  0  0  0  0
  180.7300  180.9920  137.5130 C   0  0  2  0  0  0  0  0  0  0  0  0
  180.7840  180.0000  135.1600 C   0  0  0  0  0  2  0  0  0  0  0  0
  180.8250  183.2420  137.4430 C   0  0  0  0  0  1  0  0  0  0  0  0
  180.6520  182.1500  138.3040 O   0  0  0  0  0  0  0  0  0  0  0  0
  2  1  1  6  0  0  0
  2  6  1  0  0  0  0
  3  2  1  0  0  0  0
  3  7  1  1  0  0  0
  4  2  1  0  0  0  0
  6 31  1  6  0  0  0
  6  5  1  0  0  0  0
  7  5  1  0  0  0  0
  8 13  1  6  0  0  0
  8  9  1  0  0  0  0
  8 10  1  0  0  0  0
  9 10  1  0  0  0  0
 10  3  1  0  0  0  0
 10 28  1  1  0  0  0
 11 13  1  0  0  0  0
 12 11  1  0  0  0  0
 14 11  2  0  0  0  0
 15 12  1  0  0  0  0
 16 15  1  0  0  0  0
 16 19  1  0  0  0  0
 19 18  2  6  0  0  0
 19 17  1  0  0  0  0
 20 24  1  0  0  0  0
 20 25  1  0  0  0  0
 20 19  1  1  0  0  0
 22 27  1  0  0  0  0
 24 26  1  0  0  0  0
 25 21  1  1  0  0  0
 25 22  1  0  0  0  0
 26 22  1  0  0  0  0
 26 23  1  1  0  0  0
 28 30  1  0  0  0  0
 29 28  2  0  0  0  0
 31 34  1  0  0  0  0
 32 40  1  0  0  0  0
 33 40  2  0  0  0  0
 33 35  1  0  0  0  0
 34 33  1  0  0  0  0
 35 41  1  1  0  0  0
 35 39  1  0  0  0  0
 36 32  2  0  0  0  0
 37 36  1  0  0  0  0
 37 34  2  0  0  0  0
 38 39  2  0  0  0  0
 40 38  1  0  0  0  0
 41 43  1  0  0  0  0
 41 42  1  0  0  0  0
 43 42  1  0  0  0  0
 44 37  1  0  0  0  0
 45 44  1  0  0  0  0
 46 45  1  0  0  0  0
 48 52  1  0  0  0  0
 48 46  1  1  0  0  0
 49 51  1  1  0  0  0
 49 50  1  0  0  0  0
 50 52  1  0  0  0  0
 51 48  1  0  0  0  0
 52 47  1  1  0  0  0
 53 55  1  6  0  0  0
 53 56  1  0  0  0  0
 54 57  1  6  0  0  0
 54 53  1  0  0  0  0
 54 56  1  0  0  0  0
 56 49  1  0  0  0  0
 56 59  1  1  0  0  0
 57 55  1  0  0  0  0
 58 59  1  0  0  0  0
M  END
>  <MODEL>
4

>  <REMARK>
 VINA RESULT:      -5.4      3.248      9.119
  Name = 
  16 active torsions:
  status: ('A' for Active; 'I' for Inactive)
    1  A    between atoms: C_1  and  C_15
    2  A    between atoms: C_1  and  P_32
    3  A    between atoms: S_3  and  C_27
    4  A    between atoms: S_3  and  C_54
    5  A    between atoms: C_4  and  N_39
    6  A    between atoms: C_5  and  C_53
    7  A    between atoms: C_10  and  P_32
    8  A    between atoms: N_11  and  N_23
    9  A    between atoms: N_11  and  C_25
   10  A    between atoms: C_13  and  C_25
   11  A    between atoms: C_15  and  N_36
   12  A    between atoms: O_16  and  C_40
   13  A    between atoms: C_19  and  C_28
   14  A    between atoms: C_20  and  C_40
   15  A    between atoms: N_23  and  C_31
   16  A    between atoms: C_43  and  C_53
                            x       y       z     vdW  Elec       q    Type
                         _______ _______ _______ _____ _____    ______ ____

>  <TORSDO>
F 16

$$$$
=
 OpenBabel11032421053D

 59 67  0  0  1  0  0  0  0  0999 V2000
  188.6930  180.1160  141.5480 C   0  0  0  0  0  1  0  0  0  0  0  0
  189.0660  178.7120  141.9960 C   0  0  2  0  0  0  0  0  0  0  0  0
  190.5360  178.4520  141.6280 C   0  0  1  0  0  3  0  0  0  0  0  0
  188.1690  177.8230  141.3990 O   0  0  0  0  0  1  0  0  0  0  0  0
  190.4050  179.0010  144.0150 C   0  0  0  0  0  2  0  0  0  0  0  0
  189.0060  178.6540  143.5220 C   0  0  2  0  0  3  0  0  0  0  0  0
  191.2960  179.1040  142.7860 C   0  0  0  0  0  2  0  0  0  0  0  0
  190.5700  176.3140  140.0680 C   0  0  1  0  0  3  0  0  0  0  0  0
  192.0280  176.6240  140.3780 C   0  0  0  0  0  2  0  0  0  0  0  0
  190.9540  176.9530  141.4070 C   0  0  1  0  0  0  0  0  0  0  0  0
  190.3240  177.1760  137.7090 C   0  0  0  0  0  0  0  0  0  0  0  0
  191.1690  176.1350  137.2110 N   0  0  0  0  0  2  0  0  0  0  0  0
  190.0530  177.2770  139.1060 N   0  0  0  0  0  2  0  0  0  0  0  0
  189.8060  178.0060  136.9200 O   0  0  0  0  0  0  0  0  0  0  0  0
  191.4990  176.0180  135.7970 C   0  0  0  0  0  2  0  0  0  0  0  0
  192.5140  174.9060  135.5660 C   0  0  0  0  0  2  0  0  0  0  0  0
  194.3440  176.7540  136.3660 O   0  0  0  0  0  0  0  0  0  0  0  0
  194.0110  174.7560  138.0020 O   0  0  0  0  0  1  0  0  0  0  0  0
  194.0990  175.2640  136.3910 P   0  0  1  0  0  0  0  0  0  0  0  0
  195.4700  174.3900  135.5370 C   0  0  1  0  0  3  0  0  0  0  0  0
  194.4270  172.1410  136.1640 C   0  0  0  0  0  1  0  0  0  0  0  0
  196.4160  173.0360  137.3060 N   0  0  0  0  0  0  0  0  0  0  0  0
  197.7090  174.7370  138.4630 C   0  0  0  0  0  1  0  0  0  0  0  0
  197.0190  175.2550  135.8700 S   0  0  0  0  0  0  0  0  0  0  0  0
  195.6980  172.9720  136.0420 C   0  0  2  0  0  3  0  0  0  0  0  0
  197.4730  174.0290  137.1440 C   0  0  2  0  0  3  0  0  0  0  0  0
  197.0300  171.8400  137.4750 O   0  0  0  0  0  1  0  0  0  0  0  0
  190.7650  175.9440  142.4990 C   0  0  0  0  0  0  0  0  0  0  0  0
  191.6650  175.7630  143.3610 O   0  0  0  0  0  1  0  0  0  0  0  0
  189.5730  175.2370  142.5880 O   0  0  0  0  0  0  0  0  0  0  0  0
  188.5520  176.9940  144.1390 S   0  0  0  0  0  0  0  0  0  0  0  0
  186.0520  178.6720  147.6590 C   0  0  0  0  0  3  0  0  0  0  0  0
  188.1440  177.8890  146.7430 C   0  0  0  0  0  0  0  0  0  0  0  0
  187.5710  177.6530  145.4910 C   0  0  0  0  0  0  0  0  0  0  0  0
  189.5390  177.7180  147.2540 C   0  0  1  0  0  3  0  0  0  0  0  0
  185.4430  178.4260  146.4200 C   0  0  0  0  0  3  0  0  0  0  0  0
  186.1910  177.9150  145.3340 C   0  0  0  0  0  0  0  0  0  0  0  0
  188.2220  178.5680  148.9190 N   0  0  0  0  0  0  0  0  0  0  0  0
  189.4080  178.1970  148.6400 N   0  0  0  0  0  0  0  0  0  0  0  0
  187.4100  178.3960  147.7780 C   0  0  0  0  0  0  0  0  0  0  0  0
  189.9300  176.2450  147.2610 C   0  0  0  0  0  3  0  0  0  0  0  0
  191.3710  176.0930  147.7180 C   0  0  0  0  0  2  0  0  0  0  0  0
  191.0330  176.0130  146.2460 C   0  0  0  0  0  2  0  0  0  0  0  0
  185.5580  177.6790  144.0710 N   0  0  0  0  0  2  0  0  0  0  0  0
  184.3200  178.2530  143.7450 N   0  0  0  0  0  2  0  0  0  0  0  0
  184.4550  178.8330  142.4200 C   0  0  0  0  0  2  0  0  0  0  0  0
  181.4610  179.3500  141.9920 Cl  0  0  0  0  0  0  0  0  0  0  0  0
  183.7690  177.9300  141.4080 C   0  0  2  0  0  3  0  0  0  0  0  0
  183.0810  177.5210  139.1530 C   0  0  2  0  0  3  0  0  0  0  0  0
  181.5560  177.1260  140.0800 S   0  0  0  0  0  0  0  0  0  0  0  0
  183.9980  178.3890  139.9870 C   0  0  0  0  0  2  0  0  0  0  0  0
  182.2640  177.7900  141.6180 C   0  0  2  0  0  3  0  0  0  0  0  0
  182.3300  176.9250  136.6730 C   0  0  1  0  0  3  0  0  0  0  0  0
  183.7680  177.4310  136.5350 C   0  0  1  0  0  3  0  0  0  0  0  0
  182.8570  175.5140  136.8640 C   0  0  0  0  0  2  0  0  0  0  0  0
  182.8850  177.9390  137.6720 C   0  0  2  0  0  0  0  0  0  0  0  0
  184.2760  176.0140  136.7310 C   0  0  0  0  0  2  0  0  0  0  0  0
  181.3470  179.0680  136.4740 C   0  0  0  0  0  1  0  0  0  0  0  0
  182.3360  179.2130  137.4570 O   0  0  0  0  0  0  0  0  0  0  0  0
  2  1  1  6  0  0  0
  2  6  1  0  0  0  0
  3  2  1  0  0  0  0
  3  7  1  1  0  0  0
  4  2  1  0  0  0  0
  6  5  1  0  0  0  0
  6 31  1  6  0  0  0
  7  5  1  0  0  0  0
  8 13  1  6  0  0  0
  8  9  1  0  0  0  0
  8 10  1  0  0  0  0
  9 10  1  0  0  0  0
 10  3  1  0  0  0  0
 10 28  1  1  0  0  0
 11 13  1  0  0  0  0
 12 11  1  0  0  0  0
 14 11  2  0  0  0  0
 15 12  1  0  0  0  0
 16 15  1  0  0  0  0
 16 19  1  0  0  0  0
 19 17  2  6  0  0  0
 19 18  1  0  0  0  0
 20 24  1  0  0  0  0
 20 25  1  0  0  0  0
 20 19  1  1  0  0  0
 22 27  1  0  0  0  0
 24 26  1  0  0  0  0
 25 21  1  1  0  0  0
 25 22  1  0  0  0  0
 26 22  1  0  0  0  0
 26 23  1  1  0  0  0
 28 30  2  0  0  0  0
 28 29  1  0  0  0  0
 31 34  1  0  0  0  0
 32 40  1  0  0  0  0
 33 35  1  0  0  0  0
 33 40  2  0  0  0  0
 34 33  1  0  0  0  0
 35 41  1  1  0  0  0
 35 39  1  0  0  0  0
 36 32  2  0  0  0  0
 37 34  2  0  0  0  0
 37 36  1  0  0  0  0
 39 38  2  0  0  0  0
 40 38  1  0  0  0  0
 41 42  1  0  0  0  0
 43 41  1  0  0  0  0
 43 42  1  0  0  0  0
 44 37  1  0  0  0  0
 45 44  1  0  0  0  0
 46 45  1  0  0  0  0
 48 52  1  0  0  0  0
 48 46  1  1  0  0  0
 49 51  1  1  0  0  0
 49 50  1  0  0  0  0
 50 52  1  0  0  0  0
 51 48  1  0  0  0  0
 52 47  1  6  0  0  0
 53 55  1  1  0  0  0
 53 56  1  0  0  0  0
 54 53  1  0  0  0  0
 54 57  1  1  0  0  0
 54 56  1  0  0  0  0
 56 59  1  6  0  0  0
 56 49  1  0  0  0  0
 57 55  1  0  0  0  0
 58 59  1  0  0  0  0
M  END
>  <MODEL>
5

>  <REMARK>
 VINA RESULT:      -5.0      4.160     10.899
  Name = 
  16 active torsions:
  status: ('A' for Active; 'I' for Inactive)
    1  A    between atoms: C_1  and  C_15
    2  A    between atoms: C_1  and  P_32
    3  A    between atoms: S_3  and  C_27
    4  A    between atoms: S_3  and  C_54
    5  A    between atoms: C_4  and  N_39
    6  A    between atoms: C_5  and  C_53
    7  A    between atoms: C_10  and  P_32
    8  A    between atoms: N_11  and  N_23
    9  A    between atoms: N_11  and  C_25
   10  A    between atoms: C_13  and  C_25
   11  A    between atoms: C_15  and  N_36
   12  A    between atoms: O_16  and  C_40
   13  A    between atoms: C_19  and  C_28
   14  A    between atoms: C_20  and  C_40
   15  A    between atoms: N_23  and  C_31
   16  A    between atoms: C_43  and  C_53
                            x       y       z     vdW  Elec       q    Type
                         _______ _______ _______ _____ _____    ______ ____

>  <TORSDO>
F 16

$$$$
=
 OpenBabel11032421053D

 59 67  0  0  1  0  0  0  0  0999 V2000
  187.6480  178.3700  139.4230 C   0  0  0  0  0  1  0  0  0  0  0  0
  187.7920  177.2560  138.3990 C   0  0  2  0  0  0  0  0  0  0  0  0
  186.8020  177.5100  137.2510 C   0  0  1  0  0  3  0  0  0  0  0  0
  187.5890  176.0420  139.0620 O   0  0  0  0  0  1  0  0  0  0  0  0
  189.0380  178.2280  136.5410 C   0  0  0  0  0  2  0  0  0  0  0  0
  189.1830  177.3450  137.7740 C   0  0  2  0  0  3  0  0  0  0  0  0
  187.5530  178.5150  136.3730 C   0  0  0  0  0  2  0  0  0  0  0  0
  184.8240  176.1590  136.1260 C   0  0  1  0  0  3  0  0  0  0  0  0
  185.8260  176.4320  135.0130 C   0  0  0  0  0  2  0  0  0  0  0  0
  186.3210  176.2520  136.4410 C   0  0  1  0  0  0  0  0  0  0  0  0
  182.8640  177.3630  137.1640 C   0  0  0  0  0  0  0  0  0  0  0  0
  182.2660  176.1210  137.5440 N   0  0  0  0  0  2  0  0  0  0  0  0
  184.0990  177.3800  136.4490 N   0  0  0  0  0  2  0  0  0  0  0  0
  182.3110  178.4520  137.4620 O   0  0  0  0  0  0  0  0  0  0  0  0
  180.9890  176.0600  138.2430 C   0  0  0  0  0  2  0  0  0  0  0  0
  181.1820  176.2440  139.7430 C   0  0  0  0  0  2  0  0  0  0  0  0
  178.9390  177.7480  139.4140 O   0  0  0  0  0  0  0  0  0  0  0  0
  179.3430  176.8900  141.8390 O   0  0  0  0  0  1  0  0  0  0  0  0
  180.0370  177.4900  140.4180 P   0  0  1  0  0  0  0  0  0  0  0  0
  180.9370  179.0500  140.7760 C   0  0  1  0  0  3  0  0  0  0  0  0
  183.0630  177.7140  141.2580 C   0  0  0  0  0  1  0  0  0  0  0  0
  181.6990  178.7120  143.0480 N   0  0  0  0  0  0  0  0  0  0  0  0
  179.6320  179.1810  144.2370 C   0  0  0  0  0  1  0  0  0  0  0  0
  179.8490  180.1610  141.6950 S   0  0  0  0  0  0  0  0  0  0  0  0
  182.1520  178.8620  141.6740 C   0  0  2  0  0  3  0  0  0  0  0  0
  180.6650  179.7180  143.2670 C   0  0  2  0  0  3  0  0  0  0  0  0
  182.7410  179.0440  143.8490 O   0  0  0  0  0  1  0  0  0  0  0  0
  186.8300  174.8860  136.7890 C   0  0  0  0  0  0  0  0  0  0  0  0
  186.1730  174.1400  137.5630 O   0  0  0  0  0  1  0  0  0  0  0  0
  188.0100  174.4230  136.2220 O   0  0  0  0  0  0  0  0  0  0  0  0
  189.8240  175.7110  137.2630 S   0  0  0  0  0  0  0  0  0  0  0  0
  194.2050  176.7470  138.3530 C   0  0  0  0  0  3  0  0  0  0  0  0
  192.5330  176.0850  136.7420 C   0  0  0  0  0  0  0  0  0  0  0  0
  191.5160  176.1230  137.7000 C   0  0  0  0  0  0  0  0  0  0  0  0
  192.5210  175.7650  135.2810 C   0  0  1  0  0  3  0  0  0  0  0  0
  193.2100  176.7730  139.3420 C   0  0  0  0  0  3  0  0  0  0  0  0
  191.8670  176.4610  139.0260 C   0  0  0  0  0  0  0  0  0  0  0  0
  194.6480  176.3150  135.9190 N   0  0  0  0  0  0  0  0  0  0  0  0
  193.9350  175.9640  134.9240 N   0  0  0  0  0  0  0  0  0  0  0  0
  193.8230  176.4030  137.0610 C   0  0  0  0  0  0  0  0  0  0  0  0
  192.1410  174.3070  135.0560 C   0  0  0  0  0  3  0  0  0  0  0  0
  192.8950  173.4180  136.0290 C   0  0  0  0  0  2  0  0  0  0  0  0
  193.3640  173.5350  134.5960 C   0  0  0  0  0  2  0  0  0  0  0  0
  190.8600  176.5040  140.0440 N   0  0  0  0  0  2  0  0  0  0  0  0
  190.7380  177.5940  140.9200 N   0  0  0  0  0  2  0  0  0  0  0  0
  191.2410  177.1590  142.2110 C   0  0  0  0  0  2  0  0  0  0  0  0
  188.7010  175.5570  142.8430 Cl  0  0  0  0  0  0  0  0  0  0  0  0
  190.3570  177.7310  143.3080 C   0  0  2  0  0  3  0  0  0  0  0  0
  189.7610  177.8320  145.6230 C   0  0  2  0  0  3  0  0  0  0  0  0
  188.1250  177.6380  144.8310 S   0  0  0  0  0  0  0  0  0  0  0  0
  190.8610  177.3780  144.6880 C   0  0  0  0  0  2  0  0  0  0  0  0
  188.8960  177.3010  143.2180 C   0  0  2  0  0  3  0  0  0  0  0  0
  188.6010  176.8910  147.8220 C   0  0  1  0  0  3  0  0  0  0  0  0
  189.3210  178.1640  148.2750 C   0  0  1  0  0  3  0  0  0  0  0  0
  187.3640  177.7150  147.5100 C   0  0  0  0  0  2  0  0  0  0  0  0
  189.8610  177.3580  147.0970 C   0  0  2  0  0  0  0  0  0  0  0  0
  188.0760  178.9710  147.9530 C   0  0  0  0  0  2  0  0  0  0  0  0
  191.7300  177.2320  148.3490 C   0  0  0  0  0  1  0  0  0  0  0  0
  190.9580  176.5370  147.4080 O   0  0  0  0  0  0  0  0  0  0  0  0
  2  4  1  0  0  0  0
  2  1  1  1  0  0  0
  3  7  1  6  0  0  0
  3  2  1  0  0  0  0
  5  6  1  0  0  0  0
  6 31  1  6  0  0  0
  6  2  1  0  0  0  0
  7  5  1  0  0  0  0
  8 10  1  0  0  0  0
  8 13  1  1  0  0  0
  9  8  1  0  0  0  0
  9 10  1  0  0  0  0
 10 28  1  1  0  0  0
 10  3  1  0  0  0  0
 11 14  2  0  0  0  0
 11 12  1  0  0  0  0
 12 15  1  0  0  0  0
 13 11  1  0  0  0  0
 15 16  1  0  0  0  0
 16 19  1  0  0  0  0
 19 17  2  6  0  0  0
 19 18  1  0  0  0  0
 20 19  1  1  0  0  0
 20 25  1  0  0  0  0
 20 24  1  0  0  0  0
 22 26  1  0  0  0  0
 22 27  1  0  0  0  0
 24 26  1  0  0  0  0
 25 21  1  6  0  0  0
 25 22  1  0  0  0  0
 26 23  1  1  0  0  0
 28 29  1  0  0  0  0
 30 28  2  0  0  0  0
 31 34  1  0  0  0  0
 32 36  1  0  0  0  0
 33 40  1  0  0  0  0
 33 34  2  0  0  0  0
 34 37  1  0  0  0  0
 35 41  1  1  0  0  0
 35 33  1  0  0  0  0
 37 36  2  0  0  0  0
 37 44  1  0  0  0  0
 38 40  1  0  0  0  0
 39 35  1  0  0  0  0
 39 38  2  0  0  0  0
 40 32  2  0  0  0  0
 41 42  1  0  0  0  0
 43 41  1  0  0  0  0
 43 42  1  0  0  0  0
 44 45  1  0  0  0  0
 45 46  1  0  0  0  0
 48 46  1  6  0  0  0
 48 51  1  0  0  0  0
 49 51  1  6  0  0  0
 49 56  1  0  0  0  0
 50 49  1  0  0  0  0
 52 47  1  1  0  0  0
 52 48  1  0  0  0  0
 52 50  1  0  0  0  0
 53 55  1  6  0  0  0
 53 54  1  0  0  0  0
 54 57  1  6  0  0  0
 55 57  1  0  0  0  0
 56 59  1  1  0  0  0
 56 53  1  0  0  0  0
 56 54  1  0  0  0  0
 59 58  1  0  0  0  0
M  END
>  <MODEL>
6

>  <REMARK>
 VINA RESULT:      -4.8      1.896      2.465
  Name = 
  16 active torsions:
  status: ('A' for Active; 'I' for Inactive)
    1  A    between atoms: C_1  and  C_15
    2  A    between atoms: C_1  and  P_32
    3  A    between atoms: S_3  and  C_27
    4  A    between atoms: S_3  and  C_54
    5  A    between atoms: C_4  and  N_39
    6  A    between atoms: C_5  and  C_53
    7  A    between atoms: C_10  and  P_32
    8  A    between atoms: N_11  and  N_23
    9  A    between atoms: N_11  and  C_25
   10  A    between atoms: C_13  and  C_25
   11  A    between atoms: C_15  and  N_36
   12  A    between atoms: O_16  and  C_40
   13  A    between atoms: C_19  and  C_28
   14  A    between atoms: C_20  and  C_40
   15  A    between atoms: N_23  and  C_31
   16  A    between atoms: C_43  and  C_53
                            x       y       z     vdW  Elec       q    Type
                         _______ _______ _______ _____ _____    ______ ____

>  <TORSDO>
F 16

$$$$
=
 OpenBabel11032421053D

 59 67  0  0  1  0  0  0  0  0999 V2000
  187.3230  178.3280  138.8390 C   0  0  0  0  0  1  0  0  0  0  0  0
  187.5540  177.1160  137.9510 C   0  0  2  0  0  0  0  0  0  0  0  0
  186.5610  177.1680  136.7780 C   0  0  1  0  0  3  0  0  0  0  0  0
  187.4270  175.9760  138.7480 O   0  0  0  0  0  1  0  0  0  0  0  0
  188.7510  177.9520  135.9960 C   0  0  0  0  0  2  0  0  0  0  0  0
  188.9420  177.2280  137.3230 C   0  0  2  0  0  3  0  0  0  0  0  0
  187.2520  178.1150  135.7920 C   0  0  0  0  0  2  0  0  0  0  0  0
  184.8080  175.7160  135.4280 C   0  0  1  0  0  3  0  0  0  0  0  0
  186.0870  175.6980  134.6010 C   0  0  0  0  0  2  0  0  0  0  0  0
  186.1750  175.7950  136.1180 C   0  0  1  0  0  0  0  0  0  0  0  0
  182.8190  177.2340  135.7450 C   0  0  0  0  0  0  0  0  0  0  0  0
  182.0450  176.1560  136.2780 N   0  0  0  0  0  2  0  0  0  0  0  0
  184.1580  177.0120  135.3060 N   0  0  0  0  0  2  0  0  0  0  0  0
  182.3280  178.3890  135.6640 O   0  0  0  0  0  0  0  0  0  0  0  0
  180.6630  176.3340  136.7040 C   0  0  0  0  0  2  0  0  0  0  0  0
  180.5930  177.1370  137.9960 C   0  0  0  0  0  2  0  0  0  0  0  0
  180.7060  175.0430  139.7290 O   0  0  0  0  0  1  0  0  0  0  0  0
  183.0120  175.8600  138.8370 O   0  0  0  0  0  0  0  0  0  0  0  0
  181.4630  176.2970  139.3570 P   0  0  1  0  0  0  0  0  0  0  0  0
  181.5850  177.4080  140.8140 C   0  0  1  0  0  3  0  0  0  0  0  0
  179.0700  177.8520  140.6870 C   0  0  0  0  0  1  0  0  0  0  0  0
  180.7390  179.5060  139.9520 N   0  0  0  0  0  0  0  0  0  0  0  0
  182.7030  180.2560  138.7320 C   0  0  0  0  0  1  0  0  0  0  0  0
  183.0980  178.3860  140.6840 S   0  0  0  0  0  0  0  0  0  0  0  0
  180.4630  178.4340  140.8950 C   0  0  2  0  0  3  0  0  0  0  0  0
  182.1570  179.8290  140.0790 C   0  0  2  0  0  3  0  0  0  0  0  0
  180.0530  180.5950  140.3740 O   0  0  0  0  0  1  0  0  0  0  0  0
  186.4310  174.5070  136.8410 C   0  0  0  0  0  0  0  0  0  0  0  0
  187.4420  173.8110  136.5620 O   0  0  0  0  0  0  0  0  0  0  0  0
  185.5720  174.1020  137.8530 O   0  0  0  0  0  1  0  0  0  0  0  0
  189.6980  175.5940  137.0060 S   0  0  0  0  0  0  0  0  0  0  0  0
  193.9060  176.9260  138.4120 C   0  0  0  0  0  3  0  0  0  0  0  0
  192.4200  176.0920  136.7020 C   0  0  0  0  0  0  0  0  0  0  0  0
  191.3210  176.1220  137.5640 C   0  0  0  0  0  0  0  0  0  0  0  0
  192.5550  175.6980  135.2660 C   0  0  1  0  0  3  0  0  0  0  0  0
  192.8260  176.9480  139.3080 C   0  0  0  0  0  3  0  0  0  0  0  0
  191.5340  176.5460  138.8950 C   0  0  0  0  0  0  0  0  0  0  0  0
  194.5850  176.3970  136.0530 N   0  0  0  0  0  0  0  0  0  0  0  0
  193.9830  175.9570  135.0210 N   0  0  0  0  0  0  0  0  0  0  0  0
  193.6580  176.4970  137.1130 C   0  0  0  0  0  0  0  0  0  0  0  0
  192.2720  174.2110  135.0890 C   0  0  0  0  0  3  0  0  0  0  0  0
  193.1280  173.4020  136.0480 C   0  0  0  0  0  2  0  0  0  0  0  0
  193.5260  173.5160  134.5940 C   0  0  0  0  0  2  0  0  0  0  0  0
  190.4390  176.5840  139.8180 N   0  0  0  0  0  2  0  0  0  0  0  0
  190.6350  176.4920  141.2040 N   0  0  0  0  0  2  0  0  0  0  0  0
  189.3200  176.4110  141.8150 C   0  0  0  0  0  2  0  0  0  0  0  0
  190.3870  179.1180  142.7900 Cl  0  0  0  0  0  0  0  0  0  0  0  0
  189.4600  176.5600  143.3220 C   0  0  2  0  0  3  0  0  0  0  0  0
  188.5140  177.2160  145.4190 C   0  0  2  0  0  3  0  0  0  0  0  0
  190.1620  178.0040  145.4970 S   0  0  0  0  0  0  0  0  0  0  0  0
  188.1460  176.8970  143.9860 C   0  0  0  0  0  2  0  0  0  0  0  0
  190.4850  177.6060  143.7510 C   0  0  2  0  0  3  0  0  0  0  0  0
  187.7910  178.5310  147.6130 C   0  0  1  0  0  3  0  0  0  0  0  0
  186.9220  177.2700  147.6090 C   0  0  1  0  0  3  0  0  0  0  0  0
  188.8540  177.7830  148.3990 C   0  0  0  0  0  2  0  0  0  0  0  0
  187.4090  177.8680  146.2920 C   0  0  2  0  0  0  0  0  0  0  0  0
  187.9980  176.5380  148.3920 C   0  0  0  0  0  2  0  0  0  0  0  0
  185.4830  179.0090  146.5500 C   0  0  0  0  0  1  0  0  0  0  0  0
  186.4460  178.6250  145.6050 O   0  0  0  0  0  0  0  0  0  0  0  0
  2  4  1  0  0  0  0
  2  1  1  1  0  0  0
  3  7  1  6  0  0  0
  3  2  1  0  0  0  0
  5  6  1  0  0  0  0
  6 31  1  6  0  0  0
  6  2  1  0  0  0  0
  7  5  1  0  0  0  0
  8 13  1  6  0  0  0
  8 10  1  0  0  0  0
  9  8  1  0  0  0  0
  9 10  1  0  0  0  0
 10  3  1  0  0  0  0
 10 28  1  1  0  0  0
 11 12  1  0  0  0  0
 12 15  1  0  0  0  0
 13 11  1  0  0  0  0
 14 11  2  0  0  0  0
 15 16  1  0  0  0  0
 16 19  1  0  0  0  0
 19 18  2  6  0  0  0
 19 17  1  0  0  0  0
 20 19  1  6  0  0  0
 20 25  1  0  0  0  0
 22 26  1  0  0  0  0
 22 27  1  0  0  0  0
 22 25  1  0  0  0  0
 24 20  1  0  0  0  0
 25 21  1  6  0  0  0
 26 23  1  6  0  0  0
 26 24  1  0  0  0  0
 28 30  1  0  0  0  0
 29 28  2  0  0  0  0
 31 34  1  0  0  0  0
 32 36  1  0  0  0  0
 33 40  1  0  0  0  0
 33 34  2  0  0  0  0
 34 37  1  0  0  0  0
 35 41  1  1  0  0  0
 35 33  1  0  0  0  0
 37 36  2  0  0  0  0
 37 44  1  0  0  0  0
 38 40  1  0  0  0  0
 39 35  1  0  0  0  0
 39 38  2  0  0  0  0
 40 32  2  0  0  0  0
 41 42  1  0  0  0  0
 43 41  1  0  0  0  0
 43 42  1  0  0  0  0
 44 45  1  0  0  0  0
 45 46  1  0  0  0  0
 48 46  1  6  0  0  0
 48 52  1  0  0  0  0
 48 51  1  0  0  0  0
 49 51  1  6  0  0  0
 49 50  1  0  0  0  0
 49 56  1  0  0  0  0
 52 47  1  6  0  0  0
 52 50  1  0  0  0  0
 53 55  1  1  0  0  0
 54 53  1  0  0  0  0
 54 57  1  1  0  0  0
 56 59  1  6  0  0  0
 56 54  1  0  0  0  0
 56 53  1  0  0  0  0
 57 55  1  0  0  0  0
 59 58  1  0  0  0  0
M  END
>  <MODEL>
7

>  <REMARK>
 VINA RESULT:      -4.7      1.649      2.312
  Name = 
  16 active torsions:
  status: ('A' for Active; 'I' for Inactive)
    1  A    between atoms: C_1  and  C_15
    2  A    between atoms: C_1  and  P_32
    3  A    between atoms: S_3  and  C_27
    4  A    between atoms: S_3  and  C_54
    5  A    between atoms: C_4  and  N_39
    6  A    between atoms: C_5  and  C_53
    7  A    between atoms: C_10  and  P_32
    8  A    between atoms: N_11  and  N_23
    9  A    between atoms: N_11  and  C_25
   10  A    between atoms: C_13  and  C_25
   11  A    between atoms: C_15  and  N_36
   12  A    between atoms: O_16  and  C_40
   13  A    between atoms: C_19  and  C_28
   14  A    between atoms: C_20  and  C_40
   15  A    between atoms: N_23  and  C_31
   16  A    between atoms: C_43  and  C_53
                            x       y       z     vdW  Elec       q    Type
                         _______ _______ _______ _____ _____    ______ ____

>  <TORSDO>
F 16

$$$$
=
 OpenBabel11032421053D

 59 67  0  0  1  0  0  0  0  0999 V2000
  187.0460  178.6020  138.9220 C   0  0  0  0  0  1  0  0  0  0  0  0
  187.8160  177.9700  140.0690 C   0  0  2  0  0  0  0  0  0  0  0  0
  189.2600  178.4950  140.0420 C   0  0  1  0  0  3  0  0  0  0  0  0
  187.7170  176.5820  139.9340 O   0  0  0  0  0  1  0  0  0  0  0  0
  188.0100  179.7100  141.7680 C   0  0  0  0  0  2  0  0  0  0  0  0
  187.2210  178.4630  141.3870 C   0  0  2  0  0  3  0  0  0  0  0  0
  189.1450  179.8410  140.7630 C   0  0  0  0  0  2  0  0  0  0  0  0
  190.7710  176.3270  139.8780 C   0  0  1  0  0  3  0  0  0  0  0  0
  191.7360  177.4950  140.0270 C   0  0  0  0  0  2  0  0  0  0  0  0
  190.3610  177.5700  140.6770 C   0  0  1  0  0  0  0  0  0  0  0  0
  190.7760  175.5090  137.4910 C   0  0  0  0  0  0  0  0  0  0  0  0
  191.9470  174.7240  137.7340 N   0  0  0  0  0  2  0  0  0  0  0  0
  190.2180  176.3110  138.5310 N   0  0  0  0  0  2  0  0  0  0  0  0
  190.2240  175.4940  136.3620 O   0  0  0  0  0  0  0  0  0  0  0  0
  192.5680  173.9210  136.6890 C   0  0  0  0  0  2  0  0  0  0  0  0
  193.6160  172.9840  137.2770 C   0  0  0  0  0  2  0  0  0  0  0  0
  195.2260  172.1650  135.2430 O   0  0  0  0  0  0  0  0  0  0  0  0
  195.3700  174.7030  135.8050 O   0  0  0  0  0  1  0  0  0  0  0  0
  195.2090  173.1300  136.4050 P   0  0  1  0  0  0  0  0  0  0  0  0
  196.5950  172.7550  137.5490 C   0  0  1  0  0  3  0  0  0  0  0  0
  195.7470  174.5480  139.1640 C   0  0  0  0  0  1  0  0  0  0  0  0
  197.7210  174.8910  137.7330 N   0  0  0  0  0  0  0  0  0  0  0  0
  198.9450  174.8780  135.6340 C   0  0  0  0  0  1  0  0  0  0  0  0
  198.0940  172.4620  136.5860 S   0  0  0  0  0  0  0  0  0  0  0  0
  196.9480  173.9090  138.4780 C   0  0  2  0  0  3  0  0  0  0  0  0
  198.6950  174.1500  136.9390 C   0  0  2  0  0  3  0  0  0  0  0  0
  198.4250  175.6120  138.6380 O   0  0  0  0  0  1  0  0  0  0  0  0
  190.3060  177.2150  142.1330 C   0  0  0  0  0  0  0  0  0  0  0  0
  189.5420  176.2990  142.5350 O   0  0  0  0  0  0  0  0  0  0  0  0
  191.1320  177.8710  143.0350 O   0  0  0  0  0  1  0  0  0  0  0  0
  187.3740  177.2300  142.7280 S   0  0  0  0  0  0  0  0  0  0  0  0
  183.8770  179.0120  145.1870 C   0  0  0  0  0  3  0  0  0  0  0  0
  186.1790  178.3100  144.9980 C   0  0  0  0  0  0  0  0  0  0  0  0
  186.0110  177.9260  143.6640 C   0  0  0  0  0  0  0  0  0  0  0  0
  187.3690  178.2860  145.9030 C   0  0  1  0  0  3  0  0  0  0  0  0
  183.6700  178.6170  143.8570 C   0  0  0  0  0  3  0  0  0  0  0  0
  184.7270  178.0720  143.0910 C   0  0  0  0  0  0  0  0  0  0  0  0
  185.5830  179.1750  147.0220 N   0  0  0  0  0  0  0  0  0  0  0  0
  186.8150  178.8710  147.1350 N   0  0  0  0  0  0  0  0  0  0  0  0
  185.1510  178.8470  145.7190 C   0  0  0  0  0  0  0  0  0  0  0  0
  187.8070  176.8520  146.1740 C   0  0  0  0  0  3  0  0  0  0  0  0
  188.3440  176.7330  147.5900 C   0  0  0  0  0  2  0  0  0  0  0  0
  189.3040  176.8230  146.4240 C   0  0  0  0  0  2  0  0  0  0  0  0
  184.5040  177.6830  141.7300 N   0  0  0  0  0  2  0  0  0  0  0  0
  183.8700  178.5340  140.8110 N   0  0  0  0  0  2  0  0  0  0  0  0
  182.5850  177.9360  140.4960 C   0  0  0  0  0  2  0  0  0  0  0  0
  180.2250  177.1310  138.7080 Cl  0  0  0  0  0  0  0  0  0  0  0  0
  182.8050  176.7070  139.6290 C   0  0  2  0  0  3  0  0  0  0  0  0
  183.5130  175.7580  137.5490 C   0  0  2  0  0  3  0  0  0  0  0  0
  181.9200  174.9040  137.8200 S   0  0  0  0  0  0  0  0  0  0  0  0
  183.5810  177.0270  138.3730 C   0  0  0  0  0  2  0  0  0  0  0  0
  181.5190  175.9970  139.2180 C   0  0  2  0  0  3  0  0  0  0  0  0
  184.9540  174.8150  135.5250 C   0  0  1  0  0  3  0  0  0  0  0  0
  185.4010  176.2710  135.6770 C   0  0  1  0  0  3  0  0  0  0  0  0
  186.0350  174.3920  136.5050 C   0  0  0  0  0  2  0  0  0  0  0  0
  183.9860  175.8600  136.0760 C   0  0  2  0  0  0  0  0  0  0  0  0
  186.4730  175.8290  136.6580 C   0  0  0  0  0  2  0  0  0  0  0  0
  182.7570  177.5590  135.2500 C   0  0  0  0  0  1  0  0  0  0  0  0
  182.9990  176.1830  135.1310 O   0  0  0  0  0  0  0  0  0  0  0  0
  2  1  1  6  0  0  0
  2  6  1  0  0  0  0
  3  2  1  0  0  0  0
  3 10  1  0  0  0  0
  3  7  1  1  0  0  0
  4  2  1  0  0  0  0
  6  5  1  0  0  0  0
  6 31  1  1  0  0  0
  7  5  1  0  0  0  0
  8 13  1  6  0  0  0
  8  9  1  0  0  0  0
  8 10  1  0  0  0  0
  9 10  1  0  0  0  0
 10 28  1  1  0  0  0
 11 12  1  0  0  0  0
 11 13  1  0  0  0  0
 14 11  2  0  0  0  0
 15 16  1  0  0  0  0
 15 12  1  0  0  0  0
 18 19  1  0  0  0  0
 19 17  2  6  0  0  0
 19 16  1  0  0  0  0
 20 19  1  6  0  0  0
 20 25  1  0  0  0  0
 22 25  1  0  0  0  0
 22 27  1  0  0  0  0
 24 26  1  0  0  0  0
 24 20  1  0  0  0  0
 25 21  1  6  0  0  0
 26 23  1  6  0  0  0
 26 22  1  0  0  0  0
 28 29  2  0  0  0  0
 28 30  1  0  0  0  0
 31 34  1  0  0  0  0
 32 40  1  0  0  0  0
 33 40  2  0  0  0  0
 33 35  1  0  0  0  0
 34 33  1  0  0  0  0
 35 41  1  1  0  0  0
 35 39  1  0  0  0  0
 36 32  2  0  0  0  0
 37 34  2  0  0  0  0
 37 36  1  0  0  0  0
 38 39  2  0  0  0  0
 40 38  1  0  0  0  0
 41 43  1  0  0  0  0
 41 42  1  0  0  0  0
 43 42  1  0  0  0  0
 44 37  1  0  0  0  0
 45 44  1  0  0  0  0
 46 45  1  0  0  0  0
 48 46  1  6  0  0  0
 49 50  1  0  0  0  0
 49 51  1  6  0  0  0
 50 52  1  0  0  0  0
 51 48  1  0  0  0  0
 52 47  1  6  0  0  0
 52 48  1  0  0  0  0
 53 54  1  0  0  0  0
 53 56  1  0  0  0  0
 53 55  1  1  0  0  0
 54 56  1  0  0  0  0
 54 57  1  1  0  0  0
 55 57  1  0  0  0  0
 56 59  1  6  0  0  0
 56 49  1  0  0  0  0
 59 58  1  0  0  0  0
M  END
>  <MODEL>
8

>  <REMARK>
 VINA RESULT:      -4.6      4.416     11.323
  Name = 
  16 active torsions:
  status: ('A' for Active; 'I' for Inactive)
    1  A    between atoms: C_1  and  C_15
    2  A    between atoms: C_1  and  P_32
    3  A    between atoms: S_3  and  C_27
    4  A    between atoms: S_3  and  C_54
    5  A    between atoms: C_4  and  N_39
    6  A    between atoms: C_5  and  C_53
    7  A    between atoms: C_10  and  P_32
    8  A    between atoms: N_11  and  N_23
    9  A    between atoms: N_11  and  C_25
   10  A    between atoms: C_13  and  C_25
   11  A    between atoms: C_15  and  N_36
   12  A    between atoms: O_16  and  C_40
   13  A    between atoms: C_19  and  C_28
   14  A    between atoms: C_20  and  C_40
   15  A    between atoms: N_23  and  C_31
   16  A    between atoms: C_43  and  C_53
                            x       y       z     vdW  Elec       q    Type
                         _______ _______ _______ _____ _____    ______ ____

>  <TORSDO>
F 16

$$$$
=
 OpenBabel11032421053D

 59 67  0  0  1  0  0  0  0  0999 V2000
  187.2720  178.6080  138.9070 C   0  0  0  0  0  1  0  0  0  0  0  0
  187.9750  177.9590  140.0870 C   0  0  2  0  0  0  0  0  0  0  0  0
  189.4250  178.4680  140.1380 C   0  0  1  0  0  3  0  0  0  0  0  0
  187.8690  176.5740  139.9350 O   0  0  0  0  0  1  0  0  0  0  0  0
  188.1000  179.6830  141.8080 C   0  0  0  0  0  2  0  0  0  0  0  0
  187.3190  178.4480  141.3770 C   0  0  2  0  0  3  0  0  0  0  0  0
  189.2870  179.8100  140.8640 C   0  0  0  0  0  2  0  0  0  0  0  0
  191.3370  176.6550  139.8940 C   0  0  1  0  0  3  0  0  0  0  0  0
  191.9650  177.8210  140.6440 C   0  0  0  0  0  2  0  0  0  0  0  0
  190.4820  177.5260  140.8210 C   0  0  1  0  0  0  0  0  0  0  0  0
  190.5250  176.1320  137.5630 C   0  0  0  0  0  0  0  0  0  0  0  0
  190.0400  174.8560  137.9870 N   0  0  0  0  0  2  0  0  0  0  0  0
  191.1810  176.9980  138.4870 N   0  0  0  0  0  2  0  0  0  0  0  0
  190.3710  176.5070  136.3720 O   0  0  0  0  0  0  0  0  0  0  0  0
  189.3970  173.9280  137.0660 C   0  0  0  0  0  2  0  0  0  0  0  0
  188.1030  174.5170  136.5190 C   0  0  0  0  0  2  0  0  0  0  0  0
  187.3430  172.0190  135.7550 O   0  0  0  0  0  0  0  0  0  0  0  0
  186.2720  172.8660  137.9720 O   0  0  0  0  0  1  0  0  0  0  0  0
  186.7880  173.2620  136.4110 P   0  0  1  0  0  0  0  0  0  0  0  0
  185.3740  173.9070  135.4320 C   0  0  1  0  0  3  0  0  0  0  0  0
  185.0520  175.7860  137.1360 C   0  0  0  0  0  1  0  0  0  0  0  0
  183.5530  173.8370  137.0260 N   0  0  0  0  0  0  0  0  0  0  0  0
  183.0320  171.4650  136.9330 C   0  0  0  0  0  1  0  0  0  0  0  0
  184.4010  172.5160  134.8150 S   0  0  0  0  0  0  0  0  0  0  0  0
  184.3940  174.7360  136.2510 C   0  0  2  0  0  3  0  0  0  0  0  0
  183.1630  172.7470  136.1370 C   0  0  2  0  0  3  0  0  0  0  0  0
  182.4200  174.5140  137.3300 O   0  0  0  0  0  1  0  0  0  0  0  0
  190.1140  176.7280  142.0350 C   0  0  0  0  0  0  0  0  0  0  0  0
  190.2330  177.2290  143.1850 O   0  0  0  0  0  1  0  0  0  0  0  0
  189.5990  175.4470  141.8900 O   0  0  0  0  0  0  0  0  0  0  0  0
  187.3910  177.2020  142.7130 S   0  0  0  0  0  0  0  0  0  0  0  0
  183.8100  179.0200  145.0210 C   0  0  0  0  0  3  0  0  0  0  0  0
  186.1120  178.2990  144.9290 C   0  0  0  0  0  0  0  0  0  0  0  0
  185.9960  177.9130  143.5910 C   0  0  0  0  0  0  0  0  0  0  0  0
  187.2640  178.2680  145.8830 C   0  0  1  0  0  3  0  0  0  0  0  0
  183.6550  178.6230  143.6850 C   0  0  0  0  0  3  0  0  0  0  0  0
  184.7390  178.0670  142.9650 C   0  0  0  0  0  0  0  0  0  0  0  0
  185.4410  179.1760  146.9250 N   0  0  0  0  0  0  0  0  0  0  0  0
  186.6640  178.8610  147.0900 N   0  0  0  0  0  0  0  0  0  0  0  0
  185.0600  178.8470  145.6060 C   0  0  0  0  0  0  0  0  0  0  0  0
  187.6790  176.8320  146.1750 C   0  0  0  0  0  3  0  0  0  0  0  0
  188.3060  176.7440  147.5560 C   0  0  0  0  0  2  0  0  0  0  0  0
  189.1870  176.7660  146.3270 C   0  0  0  0  0  2  0  0  0  0  0  0
  184.5680  177.6770  141.5970 N   0  0  0  0  0  2  0  0  0  0  0  0
  183.5460  178.2090  140.7960 N   0  0  0  0  0  2  0  0  0  0  0  0
  182.8520  177.0860  140.1910 C   0  0  0  0  0  2  0  0  0  0  0  0
  180.1200  177.7060  141.4420 Cl  0  0  0  0  0  0  0  0  0  0  0  0
  181.7940  177.6110  139.2340 C   0  0  2  0  0  3  0  0  0  0  0  0
  180.7080  179.4700  138.1900 C   0  0  2  0  0  3  0  0  0  0  0  0
  179.2790  178.4690  138.7350 S   0  0  0  0  0  0  0  0  0  0  0  0
  181.9490  179.0900  138.9680 C   0  0  0  0  0  2  0  0  0  0  0  0
  180.3600  177.3660  139.6970 C   0  0  2  0  0  3  0  0  0  0  0  0
  179.3520  181.4440  137.0350 C   0  0  1  0  0  3  0  0  0  0  0  0
  180.8220  181.7550  136.7410 C   0  0  1  0  0  3  0  0  0  0  0  0
  179.2800  180.6300  135.7540 C   0  0  0  0  0  2  0  0  0  0  0  0
  180.4410  180.9860  138.0030 C   0  0  2  0  0  0  0  0  0  0  0  0
  180.7320  180.9350  135.4670 C   0  0  0  0  0  2  0  0  0  0  0  0
  179.1780  182.3830  139.2420 C   0  0  0  0  0  1  0  0  0  0  0  0
  180.4330  181.7610  139.1750 O   0  0  0  0  0  0  0  0  0  0  0  0
  2  1  1  6  0  0  0
  2  3  1  0  0  0  0
  2  6  1  0  0  0  0
  3 10  1  0  0  0  0
  3  7  1  1  0  0  0
  4  2  1  0  0  0  0
  6  5  1  0  0  0  0
  6 31  1  1  0  0  0
  7  5  1  0  0  0  0
  8 13  1  6  0  0  0
  8  9  1  0  0  0  0
  8 10  1  0  0  0  0
  9 10  1  0  0  0  0
 10 28  1  1  0  0  0
 11 12  1  0  0  0  0
 11 13  1  0  0  0  0
 14 11  2  0  0  0  0
 15 12  1  0  0  0  0
 16 15  1  0  0  0  0
 19 17  2  6  0  0  0
 19 16  1  0  0  0  0
 19 18  1  0  0  0  0
 20 25  1  0  0  0  0
 20 19  1  1  0  0  0
 22 27  1  0  0  0  0
 24 20  1  0  0  0  0
 24 26  1  0  0  0  0
 25 22  1  0  0  0  0
 25 21  1  1  0  0  0
 26 23  1  1  0  0  0
 26 22  1  0  0  0  0
 28 29  1  0  0  0  0
 30 28  2  0  0  0  0
 31 34  1  0  0  0  0
 32 40  1  0  0  0  0
 33 40  2  0  0  0  0
 33 35  1  0  0  0  0
 34 33  1  0  0  0  0
 35 41  1  1  0  0  0
 35 39  1  0  0  0  0
 36 32  2  0  0  0  0
 37 34  2  0  0  0  0
 37 36  1  0  0  0  0
 38 39  2  0  0  0  0
 40 38  1  0  0  0  0
 41 43  1  0  0  0  0
 41 42  1  0  0  0  0
 43 42  1  0  0  0  0
 44 37  1  0  0  0  0
 45 44  1  0  0  0  0
 46 45  1  0  0  0  0
 48 52  1  0  0  0  0
 48 46  1  1  0  0  0
 49 50  1  0  0  0  0
 49 51  1  1  0  0  0
 50 52  1  0  0  0  0
 51 48  1  0  0  0  0
 52 47  1  1  0  0  0
 53 55  1  6  0  0  0
 53 56  1  0  0  0  0
 54 57  1  6  0  0  0
 54 53  1  0  0  0  0
 54 56  1  0  0  0  0
 56 49  1  0  0  0  0
 56 59  1  1  0  0  0
 57 55  1  0  0  0  0
 59 58  1  0  0  0  0
M  END
>  <MODEL>
9

>  <REMARK>
 VINA RESULT:      -4.5      3.285      9.074
  Name = 
  16 active torsions:
  status: ('A' for Active; 'I' for Inactive)
    1  A    between atoms: C_1  and  C_15
    2  A    between atoms: C_1  and  P_32
    3  A    between atoms: S_3  and  C_27
    4  A    between atoms: S_3  and  C_54
    5  A    between atoms: C_4  and  N_39
    6  A    between atoms: C_5  and  C_53
    7  A    between atoms: C_10  and  P_32
    8  A    between atoms: N_11  and  N_23
    9  A    between atoms: N_11  and  C_25
   10  A    between atoms: C_13  and  C_25
   11  A    between atoms: C_15  and  N_36
   12  A    between atoms: O_16  and  C_40
   13  A    between atoms: C_19  and  C_28
   14  A    between atoms: C_20  and  C_40
   15  A    between atoms: N_23  and  C_31
   16  A    between atoms: C_43  and  C_53
                            x       y       z     vdW  Elec       q    Type
                         _______ _______ _______ _____ _____    ______ ____

>  <TORSDO>
F 16

$$$$
