=
 OpenBabel11042410363D

 44 50  0  0  1  0  0  0  0  0999 V2000
  186.5520  177.9260  146.0920 C   0  0  0  0  0  3  0  0  0  0  0  0
  187.1890  177.7110  142.6800 C   0  0  0  0  0  0  0  0  0  0  0  0
  185.3470  178.5230  143.9240 C   0  0  0  0  0  3  0  0  0  0  0  0
  189.8060  177.0950  143.5590 C   0  0  0  0  0  0  0  0  0  0  0  0
  187.3590  177.2550  143.8950 C   0  0  0  0  0  0  0  0  0  0  0  0
  189.9660  177.6490  147.7430 N   0  0  0  0  0  2  0  0  0  0  0  0
  185.9820  178.4720  142.5990 N   0  0  0  0  0  0  0  0  0  0  0  0
  186.3300  177.7790  144.7730 C   0  0  0  0  0  0  0  0  0  0  0  0
  188.5500  177.8510  147.8470 C   0  0  0  0  0  0  0  0  0  0  0  0
  188.6190  176.6280  144.3810 C   0  0  0  0  0  0  0  0  0  0  0  0
  187.8530  177.4370  146.6290 C   0  0  0  0  0  0  0  0  0  0  0  0
  190.9990  177.3320  144.1460 C   0  0  0  0  0  3  0  0  0  0  0  0
  188.3100  177.7140  141.7080 C   0  0  0  0  0  3  0  0  0  0  0  0
  188.7930  176.9490  145.8280 C   0  0  0  0  0  0  0  0  0  0  0  0
  191.1620  177.3360  145.6330 C   0  0  0  0  0  3  0  0  0  0  0  0
  187.9990  178.3750  148.8470 O   0  0  0  0  0  0  0  0  0  0  0  0
  190.0930  177.1430  146.4160 C   0  0  0  0  0  0  0  0  0  0  0  0
  189.5590  177.4000  142.1170 C   0  0  0  0  0  0  0  0  0  0  0  0
  190.6780  177.4280  141.1330 C   0  0  0  0  0  2  0  0  0  0  0  0
  190.5280  176.3270  140.1940 N   0  0  0  0  0  2  0  0  0  0  0  0
  189.4220  175.0820  135.8350 C   0  0  0  0  0  2  0  0  0  0  0  0
  187.1760  178.0590  136.2170 C   0  0  0  0  0  0  0  0  0  0  0  0
  186.0450  177.7720  135.7410 O   0  0  0  0  0  0  0  0  0  0  0  0
  188.0810  175.7670  135.6410 C   0  0  0  0  0  2  0  0  0  0  0  0
  188.2180  177.0780  136.2420 N   0  0  0  0  0  0  0  0  0  0  0  0
  191.4270  175.5710  137.6540 S   0  0  0  0  0  0  0  0  0  0  0  0
  190.4270  176.5150  138.7800 C   0  0  0  0  0  0  0  0  0  0  0  0
  189.5530  177.3500  136.7390 C   0  0  2  0  0  3  0  0  0  0  0  0
  190.3990  176.1680  136.2710 C   0  0  2  0  0  3  0  0  0  0  0  0
  189.5520  177.3370  138.2280 C   0  0  0  0  0  3  0  0  0  0  0  0
  187.4040  179.3360  136.7160 O   0  0  0  0  0  1  0  0  0  0  0  0
  185.5680  179.2840  141.4640 C   0  0  0  0  0  2  0  0  0  0  0  0
  184.6420  178.4930  140.5460 C   0  0  0  0  0  2  0  0  0  0  0  0
  184.5850  179.1170  139.1580 C   0  0  0  0  0  2  0  0  0  0  0  0
  183.6250  180.2060  139.1430 N   0  0  0  0  0  2  0  0  0  0  0  0
  182.4110  179.6880  138.5330 C   0  0  0  0  0  2  0  0  0  0  0  0
  181.2460  180.1620  139.2720 N   0  0  0  0  0  0  0  0  0  0  0  0
  181.0220  178.1170  140.5340 C   0  0  0  0  0  2  0  0  0  0  0  0
  180.6420  179.3750  140.3170 C   0  0  0  0  0  0  0  0  0  0  0  0
  180.2800  180.3140  142.5070 N   0  0  0  0  0  1  0  0  0  0  0  0
  179.6410  179.9790  141.2470 C   0  0  0  0  0  2  0  0  0  0  0  0
  180.7430  181.4890  138.9410 C   0  0  0  0  0  2  0  0  0  0  0  0
  181.0870  183.2170  137.4190 C   0  0  0  0  0  1  0  0  0  0  0  0
  180.9840  181.7750  137.5360 N   0  0  0  0  0  2  0  0  0  0  0  0
  1 11  2  0  0  0  0
  2  5  1  0  0  0  0
  3  8  2  0  0  0  0
  4 12  1  0  0  0  0
  4 10  1  0  0  0  0
  5 10  2  0  0  0  0
  5  8  1  0  0  0  0
  6  9  1  0  0  0  0
  7  2  1  0  0  0  0
  7  3  1  0  0  0  0
  8  1  1  0  0  0  0
  9 16  2  0  0  0  0
 10 14  1  0  0  0  0
 11  9  1  0  0  0  0
 12 15  2  0  0  0  0
 13 18  1  0  0  0  0
 13  2  2  0  0  0  0
 14 17  2  0  0  0  0
 14 11  1  0  0  0  0
 15 17  1  0  0  0  0
 17  6  1  0  0  0  0
 18  4  2  0  0  0  0
 19 18  1  0  0  0  0
 20 19  1  0  0  0  0
 22 25  1  0  0  0  0
 22 31  1  0  0  0  0
 23 22  2  0  0  0  0
 24 21  1  0  0  0  0
 24 25  1  0  0  0  0
 25 28  1  0  0  0  0
 26 27  1  0  0  0  0
 27 20  1  0  0  0  0
 28 30  1  1  0  0  0
 29 21  1  1  0  0  0
 29 28  1  0  0  0  0
 29 26  1  0  0  0  0
 30 27  2  0  0  0  0
 32  7  1  0  0  0  0
 33 32  1  0  0  0  0
 34 33  1  0  0  0  0
 35 34  1  0  0  0  0
 36 35  1  0  0  0  0
 36 37  1  0  0  0  0
 37 39  1  0  0  0  0
 39 38  2  0  0  0  0
 39 41  1  0  0  0  0
 41 40  1  0  0  0  0
 42 37  1  0  0  0  0
 43 44  1  0  0  0  0
 44 42  1  0  0  0  0
M  END
>  <MODEL>
1

>  <REMARK>
 VINA RESULT:      -9.2      0.000      0.000
  Name = 
  13 active torsions:
  status: ('A' for Active; 'I' for Inactive)
    1  A    between atoms: C_1  and  N_3
    2  A    between atoms: C_1  and  C_44
    3  A    between atoms: N_3  and  C_29
    4  A    between atoms: C_4  and  N_10
    5  A    between atoms: C_4  and  N_42
    6  A    between atoms: N_10  and  C_19
    7  A    between atoms: C_16  and  N_22
    8  A    between atoms: C_16  and  C_24
    9  A    between atoms: C_19  and  C_24
   10  A    between atoms: N_20  and  C_21
   11  A    between atoms: C_21  and  N_42
   12  A    between atoms: C_31  and  C_32
   13  A    between atoms: C_32  and  N_42
                            x       y       z     vdW  Elec       q    Type
                         _______ _______ _______ _____ _____    ______ ____

>  <TORSDO>
F 13

$$$$
=
 OpenBabel11042410363D

 44 50  0  0  1  0  0  0  0  0999 V2000
  188.0170  177.2530  146.5160 C   0  0  0  0  0  3  0  0  0  0  0  0
  186.6300  177.9020  143.3940 C   0  0  0  0  0  0  0  0  0  0  0  0
  185.7940  178.1020  145.5990 C   0  0  0  0  0  3  0  0  0  0  0  0
  189.2970  177.5530  142.5210 C   0  0  0  0  0  0  0  0  0  0  0  0
  187.4600  177.2250  144.1470 C   0  0  0  0  0  0  0  0  0  0  0  0
  191.7730  177.1920  145.9250 N   0  0  0  0  0  2  0  0  0  0  0  0
  185.5750  178.4500  144.1880 N   0  0  0  0  0  0  0  0  0  0  0  0
  187.0950  177.3640  145.5440 C   0  0  0  0  0  0  0  0  0  0  0  0
  190.6570  177.1280  146.8240 C   0  0  0  0  0  0  0  0  0  0  0  0
  188.7850  176.7260  143.6860 C   0  0  0  0  0  0  0  0  0  0  0  0
  189.4020  176.8810  146.1130 C   0  0  0  0  0  0  0  0  0  0  0  0
  190.6110  177.8500  142.4140 C   0  0  0  0  0  3  0  0  0  0  0  0
  187.0110  178.3060  142.0180 C   0  0  0  0  0  3  0  0  0  0  0  0
  189.7370  176.7440  144.8350 C   0  0  0  0  0  0  0  0  0  0  0  0
  191.5810  177.5550  143.5130 C   0  0  0  0  0  3  0  0  0  0  0  0
  190.7550  177.3200  148.0610 O   0  0  0  0  0  0  0  0  0  0  0  0
  191.1400  177.0190  144.6590 C   0  0  0  0  0  0  0  0  0  0  0  0
  188.2790  178.1220  141.5880 C   0  0  0  0  0  0  0  0  0  0  0  0
  188.6510  178.5510  140.2100 C   0  0  0  0  0  2  0  0  0  0  0  0
  187.5380  178.3050  139.3060 N   0  0  0  0  0  2  0  0  0  0  0  0
  188.4370  177.1760  134.8690 C   0  0  0  0  0  2  0  0  0  0  0  0
  190.9300  174.9660  136.5870 C   0  0  0  0  0  0  0  0  0  0  0  0
  192.0220  175.0310  135.9620 O   0  0  0  0  0  0  0  0  0  0  0  0
  189.8260  176.5710  134.9720 C   0  0  0  0  0  2  0  0  0  0  0  0
  189.8110  175.7540  136.1690 N   0  0  0  0  0  0  0  0  0  0  0  0
  186.5210  177.5820  136.8010 S   0  0  0  0  0  0  0  0  0  0  0  0
  187.6220  177.4190  138.1880 C   0  0  0  0  0  0  0  0  0  0  0  0
  188.5150  175.7010  136.8170 C   0  0  2  0  0  3  0  0  0  0  0  0
  187.5630  176.4170  135.8620 C   0  0  2  0  0  3  0  0  0  0  0  0
  188.5490  176.4830  138.0840 C   0  0  0  0  0  3  0  0  0  0  0  0
  190.8200  174.1200  137.6850 O   0  0  0  0  0  1  0  0  0  0  0  0
  184.5830  179.4110  143.7280 C   0  0  0  0  0  2  0  0  0  0  0  0
  183.3140  179.3180  144.5680 C   0  0  0  0  0  2  0  0  0  0  0  0
  182.1340  178.8520  143.7270 C   0  0  0  0  0  2  0  0  0  0  0  0
  182.4650  178.9420  142.3150 N   0  0  0  0  0  2  0  0  0  0  0  0
  181.2640  178.5890  141.5780 C   0  0  0  0  0  2  0  0  0  0  0  0
  181.5040  178.7280  140.1460 N   0  0  0  0  0  0  0  0  0  0  0  0
  182.8690  176.8210  139.5780 C   0  0  0  0  0  2  0  0  0  0  0  0
  182.6520  178.1330  139.5110 C   0  0  0  0  0  0  0  0  0  0  0  0
  184.3830  179.8100  139.5370 N   0  0  0  0  0  1  0  0  0  0  0  0
  183.5790  178.9580  138.6780 C   0  0  0  0  0  2  0  0  0  0  0  0
  180.5090  179.4590  139.3720 C   0  0  0  0  0  2  0  0  0  0  0  0
  180.6490  181.3940  138.0850 C   0  0  0  0  0  1  0  0  0  0  0  0
  180.7790  180.8860  139.4370 N   0  0  0  0  0  2  0  0  0  0  0  0
  2  5  1  0  0  0  0
  2  7  1  0  0  0  0
  4 10  1  0  0  0  0
  5  8  1  0  0  0  0
  6  9  1  0  0  0  0
  7  3  1  0  0  0  0
  8  3  2  0  0  0  0
  8  1  1  0  0  0  0
  9 16  2  0  0  0  0
 10  5  2  0  0  0  0
 10 14  1  0  0  0  0
 11  1  2  0  0  0  0
 11  9  1  0  0  0  0
 12  4  1  0  0  0  0
 12 15  2  0  0  0  0
 13  2  2  0  0  0  0
 14 11  1  0  0  0  0
 15 17  1  0  0  0  0
 17 14  2  0  0  0  0
 17  6  1  0  0  0  0
 18 13  1  0  0  0  0
 18  4  2  0  0  0  0
 19 18  1  0  0  0  0
 20 19  1  0  0  0  0
 21 24  1  0  0  0  0
 22 31  1  0  0  0  0
 23 22  2  0  0  0  0
 24 25  1  0  0  0  0
 25 22  1  0  0  0  0
 25 28  1  0  0  0  0
 26 27  1  0  0  0  0
 27 20  1  0  0  0  0
 28 30  1  1  0  0  0
 29 21  1  6  0  0  0
 29 26  1  0  0  0  0
 29 28  1  0  0  0  0
 30 27  2  0  0  0  0
 32  7  1  0  0  0  0
 32 33  1  0  0  0  0
 34 33  1  0  0  0  0
 35 34  1  0  0  0  0
 36 35  1  0  0  0  0
 37 36  1  0  0  0  0
 39 38  2  0  0  0  0
 39 37  1  0  0  0  0
 41 39  1  0  0  0  0
 41 40  1  0  0  0  0
 42 44  1  0  0  0  0
 42 37  1  0  0  0  0
 43 44  1  0  0  0  0
M  END
>  <MODEL>
2

>  <REMARK>
 VINA RESULT:      -9.1      2.199      3.028
  Name = 
  13 active torsions:
  status: ('A' for Active; 'I' for Inactive)
    1  A    between atoms: C_1  and  N_3
    2  A    between atoms: C_1  and  C_44
    3  A    between atoms: N_3  and  C_29
    4  A    between atoms: C_4  and  N_10
    5  A    between atoms: C_4  and  N_42
    6  A    between atoms: N_10  and  C_19
    7  A    between atoms: C_16  and  N_22
    8  A    between atoms: C_16  and  C_24
    9  A    between atoms: C_19  and  C_24
   10  A    between atoms: N_20  and  C_21
   11  A    between atoms: C_21  and  N_42
   12  A    between atoms: C_31  and  C_32
   13  A    between atoms: C_32  and  N_42
                            x       y       z     vdW  Elec       q    Type
                         _______ _______ _______ _____ _____    ______ ____

>  <TORSDO>
F 13

$$$$
=
 OpenBabel11042410363D

 44 50  0  0  1  0  0  0  0  0999 V2000
  186.7220  177.8020  146.2380 C   0  0  0  0  0  3  0  0  0  0  0  0
  187.3070  177.6330  142.8150 C   0  0  0  0  0  0  0  0  0  0  0  0
  185.4630  178.3790  144.0960 C   0  0  0  0  0  3  0  0  0  0  0  0
  189.9550  177.0910  143.6440 C   0  0  0  0  0  0  0  0  0  0  0  0
  187.5120  177.1740  144.0230 C   0  0  0  0  0  0  0  0  0  0  0  0
  190.1700  177.6170  147.8300 N   0  0  0  0  0  2  0  0  0  0  0  0
  186.0760  178.3580  142.7610 N   0  0  0  0  0  0  0  0  0  0  0  0
  186.4820  177.6590  144.9230 C   0  0  0  0  0  0  0  0  0  0  0  0
  188.7510  177.7750  147.9590 C   0  0  0  0  0  0  0  0  0  0  0  0
  188.7980  176.5820  144.4830 C   0  0  0  0  0  0  0  0  0  0  0  0
  188.0460  177.3490  146.7500 C   0  0  0  0  0  0  0  0  0  0  0  0
  191.1510  177.3590  144.2130 C   0  0  0  0  0  3  0  0  0  0  0  0
  188.4110  177.6780  141.8240 C   0  0  0  0  0  3  0  0  0  0  0  0
  188.9860  176.8960  145.9290 C   0  0  0  0  0  0  0  0  0  0  0  0
  191.3390  177.3570  145.6970 C   0  0  0  0  0  3  0  0  0  0  0  0
  188.2020  178.2740  148.9730 O   0  0  0  0  0  0  0  0  0  0  0  0
  190.2900  177.1250  146.4970 C   0  0  0  0  0  0  0  0  0  0  0  0
  189.6760  177.3990  142.2090 C   0  0  0  0  0  0  0  0  0  0  0  0
  190.7760  177.4690  141.2070 C   0  0  0  0  0  2  0  0  0  0  0  0
  190.6620  176.3520  140.2810 N   0  0  0  0  0  2  0  0  0  0  0  0
  189.4390  175.0520  135.9700 C   0  0  0  0  0  2  0  0  0  0  0  0
  187.2290  178.0550  136.3620 C   0  0  0  0  0  0  0  0  0  0  0  0
  186.0840  177.7710  135.9180 O   0  0  0  0  0  0  0  0  0  0  0  0
  188.0990  175.7460  135.7990 C   0  0  0  0  0  2  0  0  0  0  0  0
  188.2630  177.0650  136.3760 N   0  0  0  0  0  0  0  0  0  0  0  0
  191.4920  175.5500  137.7320 S   0  0  0  0  0  0  0  0  0  0  0  0
  190.5280  176.5200  138.8680 C   0  0  0  0  0  0  0  0  0  0  0  0
  189.6120  177.3320  136.8360 C   0  0  2  0  0  3  0  0  0  0  0  0
  190.4360  176.1360  136.3660 C   0  0  2  0  0  3  0  0  0  0  0  0
  189.6470  177.3410  138.3250 C   0  0  0  0  0  3  0  0  0  0  0  0
  187.4800  179.3370  136.8360 O   0  0  0  0  0  1  0  0  0  0  0  0
  185.6180  179.1660  141.6390 C   0  0  0  0  0  2  0  0  0  0  0  0
  184.2080  178.7610  141.2250 C   0  0  0  0  0  2  0  0  0  0  0  0
  183.9090  179.2010  139.7990 C   0  0  0  0  0  2  0  0  0  0  0  0
  182.5680  178.7880  139.4230 N   0  0  0  0  0  2  0  0  0  0  0  0
  182.0720  177.9430  140.4960 C   0  0  0  0  0  2  0  0  0  0  0  0
  180.7140  178.3390  140.8490 N   0  0  0  0  0  0  0  0  0  0  0  0
  179.6840  180.4180  141.5160 C   0  0  0  0  0  2  0  0  0  0  0  0
  180.4560  179.3760  141.8170 C   0  0  0  0  0  0  0  0  0  0  0  0
  180.0490  178.4790  144.0160 N   0  0  0  0  0  1  0  0  0  0  0  0
  180.9720  179.2620  143.2140 C   0  0  0  0  0  2  0  0  0  0  0  0
  179.6220  177.6730  140.1500 C   0  0  0  0  0  2  0  0  0  0  0  0
  179.1780  175.4260  140.5660 C   0  0  0  0  0  1  0  0  0  0  0  0
  178.9310  176.7690  141.0540 N   0  0  0  0  0  2  0  0  0  0  0  0
  1 11  2  0  0  0  0
  2  5  1  0  0  0  0
  3  8  2  0  0  0  0
  4 12  1  0  0  0  0
  4 10  1  0  0  0  0
  5 10  2  0  0  0  0
  5  8  1  0  0  0  0
  6  9  1  0  0  0  0
  7  2  1  0  0  0  0
  7  3  1  0  0  0  0
  8  1  1  0  0  0  0
  9 16  2  0  0  0  0
 10 14  1  0  0  0  0
 11  9  1  0  0  0  0
 12 15  2  0  0  0  0
 13 18  1  0  0  0  0
 13  2  2  0  0  0  0
 14 17  2  0  0  0  0
 14 11  1  0  0  0  0
 15 17  1  0  0  0  0
 17  6  1  0  0  0  0
 18  4  2  0  0  0  0
 19 18  1  0  0  0  0
 20 19  1  0  0  0  0
 22 25  1  0  0  0  0
 22 31  1  0  0  0  0
 23 22  2  0  0  0  0
 24 21  1  0  0  0  0
 24 25  1  0  0  0  0
 25 28  1  0  0  0  0
 26 27  1  0  0  0  0
 27 20  1  0  0  0  0
 28 30  1  1  0  0  0
 29 21  1  1  0  0  0
 29 28  1  0  0  0  0
 29 26  1  0  0  0  0
 30 27  2  0  0  0  0
 32  7  1  0  0  0  0
 33 32  1  0  0  0  0
 34 33  1  0  0  0  0
 35 34  1  0  0  0  0
 35 36  1  0  0  0  0
 36 37  1  0  0  0  0
 37 39  1  0  0  0  0
 38 39  2  0  0  0  0
 39 41  1  0  0  0  0
 41 40  1  0  0  0  0
 42 37  1  0  0  0  0
 42 44  1  0  0  0  0
 43 44  1  0  0  0  0
M  END
>  <MODEL>
3

>  <REMARK>
 VINA RESULT:      -9.1      1.293      1.991
  Name = 
  13 active torsions:
  status: ('A' for Active; 'I' for Inactive)
    1  A    between atoms: C_1  and  N_3
    2  A    between atoms: C_1  and  C_44
    3  A    between atoms: N_3  and  C_29
    4  A    between atoms: C_4  and  N_10
    5  A    between atoms: C_4  and  N_42
    6  A    between atoms: N_10  and  C_19
    7  A    between atoms: C_16  and  N_22
    8  A    between atoms: C_16  and  C_24
    9  A    between atoms: C_19  and  C_24
   10  A    between atoms: N_20  and  C_21
   11  A    between atoms: C_21  and  N_42
   12  A    between atoms: C_31  and  C_32
   13  A    between atoms: C_32  and  N_42
                            x       y       z     vdW  Elec       q    Type
                         _______ _______ _______ _____ _____    ______ ____

>  <TORSDO>
F 13

$$$$
=
 OpenBabel11042410363D

 44 50  0  0  1  0  0  0  0  0999 V2000
  186.5400  177.9100  146.1690 C   0  0  0  0  0  3  0  0  0  0  0  0
  187.2110  177.7390  142.7610 C   0  0  0  0  0  0  0  0  0  0  0  0
  185.3660  178.5550  143.9980 C   0  0  0  0  0  3  0  0  0  0  0  0
  189.8090  177.0760  143.6580 C   0  0  0  0  0  0  0  0  0  0  0  0
  187.3620  177.2630  143.9710 C   0  0  0  0  0  0  0  0  0  0  0  0
  189.9320  177.5640  147.8520 N   0  0  0  0  0  2  0  0  0  0  0  0
  186.0140  178.5170  142.6800 N   0  0  0  0  0  0  0  0  0  0  0  0
  186.3300  177.7860  144.8460 C   0  0  0  0  0  0  0  0  0  0  0  0
  188.5180  177.7830  147.9440 C   0  0  0  0  0  0  0  0  0  0  0  0
  188.6080  176.6120  144.4610 C   0  0  0  0  0  0  0  0  0  0  0  0
  187.8280  177.3960  146.7130 C   0  0  0  0  0  0  0  0  0  0  0  0
  191.0000  177.2890  144.2620 C   0  0  0  0  0  3  0  0  0  0  0  0
  188.3420  177.7430  141.8010 C   0  0  0  0  0  3  0  0  0  0  0  0
  188.7700  176.9080  145.9140 C   0  0  0  0  0  0  0  0  0  0  0  0
  191.1470  177.2680  145.7500 C   0  0  0  0  0  3  0  0  0  0  0  0
  187.9630  178.2980  148.9460 O   0  0  0  0  0  0  0  0  0  0  0  0
  190.0670  177.0760  146.5190 C   0  0  0  0  0  0  0  0  0  0  0  0
  189.5820  177.4070  142.2190 C   0  0  0  0  0  0  0  0  0  0  0  0
  190.7120  177.4350  141.2470 C   0  0  0  0  0  2  0  0  0  0  0  0
  190.5410  176.3710  140.2700 N   0  0  0  0  0  2  0  0  0  0  0  0
  189.7000  175.2310  135.8240 C   0  0  0  0  0  2  0  0  0  0  0  0
  187.2940  178.0820  136.1990 C   0  0  0  0  0  0  0  0  0  0  0  0
  186.2020  177.7590  135.6590 O   0  0  0  0  0  0  0  0  0  0  0  0
  188.3370  175.8580  135.5900 C   0  0  0  0  0  2  0  0  0  0  0  0
  188.3810  177.1520  136.2400 N   0  0  0  0  0  0  0  0  0  0  0  0
  191.5920  175.7500  137.7520 S   0  0  0  0  0  0  0  0  0  0  0  0
  190.4960  176.6040  138.8610 C   0  0  0  0  0  0  0  0  0  0  0  0
  189.6770  177.4690  136.8090 C   0  0  2  0  0  3  0  0  0  0  0  0
  190.6010  176.3470  136.3430 C   0  0  2  0  0  3  0  0  0  0  0  0
  189.6080  177.4020  138.2950 C   0  0  0  0  0  3  0  0  0  0  0  0
  187.4350  179.3500  136.7500 O   0  0  0  0  0  1  0  0  0  0  0  0
  185.6230  179.3520  141.5530 C   0  0  0  0  0  2  0  0  0  0  0  0
  184.9260  178.5180  140.4830 C   0  0  0  0  0  2  0  0  0  0  0  0
  183.6050  179.1530  140.0700 C   0  0  0  0  0  2  0  0  0  0  0  0
  182.9390  178.3150  139.0870 N   0  0  0  0  0  2  0  0  0  0  0  0
  183.9750  177.5510  138.4140 C   0  0  0  0  0  2  0  0  0  0  0  0
  183.5010  176.1960  138.1570 N   0  0  0  0  0  0  0  0  0  0  0  0
  183.4790  175.5330  135.8360 C   0  0  0  0  0  2  0  0  0  0  0  0
  184.0030  175.4150  137.0540 C   0  0  0  0  0  0  0  0  0  0  0  0
  184.7700  173.2550  137.7980 N   0  0  0  0  0  1  0  0  0  0  0  0
  185.1890  174.5230  137.2280 C   0  0  0  0  0  2  0  0  0  0  0  0
  182.5280  175.6430  139.0900 C   0  0  0  0  0  2  0  0  0  0  0  0
  180.3430  174.8820  139.3510 C   0  0  0  0  0  1  0  0  0  0  0  0
  181.3740  175.1380  138.3640 N   0  0  0  0  0  2  0  0  0  0  0  0
  1 11  2  0  0  0  0
  2  5  1  0  0  0  0
  3  8  2  0  0  0  0
  4 12  1  0  0  0  0
  4 10  1  0  0  0  0
  5 10  2  0  0  0  0
  5  8  1  0  0  0  0
  6  9  1  0  0  0  0
  7  2  1  0  0  0  0
  7  3  1  0  0  0  0
  8  1  1  0  0  0  0
  9 16  2  0  0  0  0
 10 14  1  0  0  0  0
 11  9  1  0  0  0  0
 12 15  2  0  0  0  0
 13 18  1  0  0  0  0
 13  2  2  0  0  0  0
 14 17  2  0  0  0  0
 14 11  1  0  0  0  0
 15 17  1  0  0  0  0
 17  6  1  0  0  0  0
 18  4  2  0  0  0  0
 19 18  1  0  0  0  0
 20 19  1  0  0  0  0
 22 25  1  0  0  0  0
 22 31  1  0  0  0  0
 23 22  2  0  0  0  0
 24 21  1  0  0  0  0
 24 25  1  0  0  0  0
 25 28  1  0  0  0  0
 26 27  1  0  0  0  0
 27 20  1  0  0  0  0
 28 30  1  1  0  0  0
 29 21  1  1  0  0  0
 29 28  1  0  0  0  0
 29 26  1  0  0  0  0
 30 27  2  0  0  0  0
 32  7  1  0  0  0  0
 33 32  1  0  0  0  0
 34 33  1  0  0  0  0
 35 34  1  0  0  0  0
 36 35  1  0  0  0  0
 37 36  1  0  0  0  0
 37 42  1  0  0  0  0
 38 39  2  0  0  0  0
 39 41  1  0  0  0  0
 39 37  1  0  0  0  0
 41 40  1  0  0  0  0
 44 42  1  0  0  0  0
 44 43  1  0  0  0  0
M  END
>  <MODEL>
4

>  <REMARK>
 VINA RESULT:      -8.7      1.878      3.137
  Name = 
  13 active torsions:
  status: ('A' for Active; 'I' for Inactive)
    1  A    between atoms: C_1  and  N_3
    2  A    between atoms: C_1  and  C_44
    3  A    between atoms: N_3  and  C_29
    4  A    between atoms: C_4  and  N_10
    5  A    between atoms: C_4  and  N_42
    6  A    between atoms: N_10  and  C_19
    7  A    between atoms: C_16  and  N_22
    8  A    between atoms: C_16  and  C_24
    9  A    between atoms: C_19  and  C_24
   10  A    between atoms: N_20  and  C_21
   11  A    between atoms: C_21  and  N_42
   12  A    between atoms: C_31  and  C_32
   13  A    between atoms: C_32  and  N_42
                            x       y       z     vdW  Elec       q    Type
                         _______ _______ _______ _____ _____    ______ ____

>  <TORSDO>
F 13

$$$$
=
 OpenBabel11042410363D

 44 50  0  0  1  0  0  0  0  0999 V2000
  186.5570  177.9750  146.2600 C   0  0  0  0  0  3  0  0  0  0  0  0
  187.2260  177.8150  142.8510 C   0  0  0  0  0  0  0  0  0  0  0  0
  185.3880  178.6400  144.0930 C   0  0  0  0  0  3  0  0  0  0  0  0
  189.8190  177.1280  143.7440 C   0  0  0  0  0  0  0  0  0  0  0  0
  187.3740  177.3320  144.0590 C   0  0  0  0  0  0  0  0  0  0  0  0
  189.9470  177.5950  147.9410 N   0  0  0  0  0  2  0  0  0  0  0  0
  186.0350  178.6030  142.7740 N   0  0  0  0  0  0  0  0  0  0  0  0
  186.3460  177.8600  144.9370 C   0  0  0  0  0  0  0  0  0  0  0  0
  188.5340  177.8240  148.0340 C   0  0  0  0  0  0  0  0  0  0  0  0
  188.6150  176.6690  144.5450 C   0  0  0  0  0  0  0  0  0  0  0  0
  187.8420  177.4490  146.8010 C   0  0  0  0  0  0  0  0  0  0  0  0
  191.0120  177.3280  144.3480 C   0  0  0  0  0  3  0  0  0  0  0  0
  188.3570  177.8150  141.8910 C   0  0  0  0  0  3  0  0  0  0  0  0
  188.7800  176.9570  146.0000 C   0  0  0  0  0  0  0  0  0  0  0  0
  191.1590  177.2990  145.8360 C   0  0  0  0  0  3  0  0  0  0  0  0
  187.9840  178.3400  149.0390 O   0  0  0  0  0  0  0  0  0  0  0  0
  190.0780  177.1130  146.6050 C   0  0  0  0  0  0  0  0  0  0  0  0
  189.5950  177.4660  142.3060 C   0  0  0  0  0  0  0  0  0  0  0  0
  190.7240  177.4910  141.3350 C   0  0  0  0  0  2  0  0  0  0  0  0
  190.5570  176.4170  140.3680 N   0  0  0  0  0  2  0  0  0  0  0  0
  189.6990  175.2430  135.9340 C   0  0  0  0  0  2  0  0  0  0  0  0
  187.3240  178.1240  136.2830 C   0  0  0  0  0  0  0  0  0  0  0  0
  186.2280  177.8070  135.7490 O   0  0  0  0  0  0  0  0  0  0  0  0
  188.3420  175.8820  135.6950 C   0  0  0  0  0  2  0  0  0  0  0  0
  188.4010  177.1820  136.3320 N   0  0  0  0  0  0  0  0  0  0  0  0
  191.5990  175.7600  137.8540 S   0  0  0  0  0  0  0  0  0  0  0  0
  190.5130  176.6370  138.9560 C   0  0  0  0  0  0  0  0  0  0  0  0
  189.7010  177.4900  136.8970 C   0  0  2  0  0  3  0  0  0  0  0  0
  190.6120  176.3540  136.4410 C   0  0  2  0  0  3  0  0  0  0  0  0
  189.6330  177.4390  138.3840 C   0  0  0  0  0  3  0  0  0  0  0  0
  187.4800  179.3950  136.8230 O   0  0  0  0  0  1  0  0  0  0  0  0
  185.6500  179.4460  141.6510 C   0  0  0  0  0  2  0  0  0  0  0  0
  184.9520  178.6220  140.5750 C   0  0  0  0  0  2  0  0  0  0  0  0
  183.6520  178.0280  141.0980 C   0  0  0  0  0  2  0  0  0  0  0  0
  182.6290  178.0860  140.0680 N   0  0  0  0  0  2  0  0  0  0  0  0
  183.3080  178.3880  138.8190 C   0  0  0  0  0  2  0  0  0  0  0  0
  182.3470  178.3850  137.7210 N   0  0  0  0  0  0  0  0  0  0  0  0
  180.0380  178.9800  137.3470 C   0  0  0  0  0  2  0  0  0  0  0  0
  181.2810  179.3520  137.6480 C   0  0  0  0  0  0  0  0  0  0  0  0
  180.8520  181.0990  139.2520 N   0  0  0  0  0  1  0  0  0  0  0  0
  181.5220  180.7830  138.0030 C   0  0  0  0  0  2  0  0  0  0  0  0
  182.5360  177.3900  136.6730 C   0  0  0  0  0  2  0  0  0  0  0  0
  182.7550  175.0730  136.7150 C   0  0  0  0  0  1  0  0  0  0  0  0
  183.3720  176.3060  137.1620 N   0  0  0  0  0  2  0  0  0  0  0  0
  1 11  2  0  0  0  0
  2  5  1  0  0  0  0
  3  8  2  0  0  0  0
  4 12  1  0  0  0  0
  4 10  1  0  0  0  0
  5 10  2  0  0  0  0
  5  8  1  0  0  0  0
  6  9  1  0  0  0  0
  7  2  1  0  0  0  0
  7  3  1  0  0  0  0
  8  1  1  0  0  0  0
  9 16  2  0  0  0  0
 10 14  1  0  0  0  0
 11  9  1  0  0  0  0
 12 15  2  0  0  0  0
 13 18  1  0  0  0  0
 13  2  2  0  0  0  0
 14 17  2  0  0  0  0
 14 11  1  0  0  0  0
 15 17  1  0  0  0  0
 17  6  1  0  0  0  0
 18  4  2  0  0  0  0
 19 18  1  0  0  0  0
 20 19  1  0  0  0  0
 22 25  1  0  0  0  0
 22 31  1  0  0  0  0
 23 22  2  0  0  0  0
 24 21  1  0  0  0  0
 24 25  1  0  0  0  0
 25 28  1  0  0  0  0
 26 27  1  0  0  0  0
 27 20  1  0  0  0  0
 28 30  1  1  0  0  0
 29 21  1  1  0  0  0
 29 28  1  0  0  0  0
 29 26  1  0  0  0  0
 30 27  2  0  0  0  0
 32  7  1  0  0  0  0
 33 34  1  0  0  0  0
 33 32  1  0  0  0  0
 35 34  1  0  0  0  0
 36 35  1  0  0  0  0
 37 36  1  0  0  0  0
 38 39  2  0  0  0  0
 39 37  1  0  0  0  0
 39 41  1  0  0  0  0
 41 40  1  0  0  0  0
 42 44  1  0  0  0  0
 42 37  1  0  0  0  0
 43 44  1  0  0  0  0
M  END
>  <MODEL>
5

>  <REMARK>
 VINA RESULT:      -8.5      1.381      2.129
  Name = 
  13 active torsions:
  status: ('A' for Active; 'I' for Inactive)
    1  A    between atoms: C_1  and  N_3
    2  A    between atoms: C_1  and  C_44
    3  A    between atoms: N_3  and  C_29
    4  A    between atoms: C_4  and  N_10
    5  A    between atoms: C_4  and  N_42
    6  A    between atoms: N_10  and  C_19
    7  A    between atoms: C_16  and  N_22
    8  A    between atoms: C_16  and  C_24
    9  A    between atoms: C_19  and  C_24
   10  A    between atoms: N_20  and  C_21
   11  A    between atoms: C_21  and  N_42
   12  A    between atoms: C_31  and  C_32
   13  A    between atoms: C_32  and  N_42
                            x       y       z     vdW  Elec       q    Type
                         _______ _______ _______ _____ _____    ______ ____

>  <TORSDO>
F 13

$$$$
=
 OpenBabel11042410363D

 44 50  0  0  1  0  0  0  0  0999 V2000
  191.6960  176.8550  144.1660 C   0  0  0  0  0  3  0  0  0  0  0  0
  188.8860  177.9960  142.4640 C   0  0  0  0  0  0  0  0  0  0  0  0
  190.9630  177.1260  141.7370 C   0  0  0  0  0  3  0  0  0  0  0  0
  187.7240  177.9250  145.0410 C   0  0  0  0  0  0  0  0  0  0  0  0
  189.6670  178.0320  143.5130 C   0  0  0  0  0  0  0  0  0  0  0  0
  190.4730  176.1140  147.6890 N   0  0  0  0  0  2  0  0  0  0  0  0
  189.5950  177.4810  141.3350 N   0  0  0  0  0  0  0  0  0  0  0  0
  190.9480  177.4250  143.2040 C   0  0  0  0  0  0  0  0  0  0  0  0
  191.5220  176.1010  146.7110 C   0  0  0  0  0  0  0  0  0  0  0  0
  189.1900  178.2900  144.9000 C   0  0  0  0  0  0  0  0  0  0  0  0
  191.2100  176.9620  145.5700 C   0  0  0  0  0  0  0  0  0  0  0  0
  187.2650  177.3490  146.1740 C   0  0  0  0  0  3  0  0  0  0  0  0
  187.4150  178.1220  142.6100 C   0  0  0  0  0  3  0  0  0  0  0  0
  190.0420  177.5260  145.8560 C   0  0  0  0  0  0  0  0  0  0  0  0
  188.1880  176.8710  147.2490 C   0  0  0  0  0  3  0  0  0  0  0  0
  192.5500  175.3860  146.8120 O   0  0  0  0  0  0  0  0  0  0  0  0
  189.5130  176.9740  147.0770 C   0  0  0  0  0  0  0  0  0  0  0  0
  186.8550  178.1100  143.8400 C   0  0  0  0  0  0  0  0  0  0  0  0
  185.3740  178.2170  143.9680 C   0  0  0  0  0  2  0  0  0  0  0  0
  184.8340  178.9130  142.8110 N   0  0  0  0  0  2  0  0  0  0  0  0
  180.6930  179.9470  140.9250 C   0  0  0  0  0  2  0  0  0  0  0  0
  182.2280  178.0770  138.0610 C   0  0  0  0  0  0  0  0  0  0  0  0
  181.9800  178.7020  136.9950 O   0  0  0  0  0  0  0  0  0  0  0  0
  180.9730  179.7880  139.4410 C   0  0  0  0  0  2  0  0  0  0  0  0
  181.7940  178.6000  139.3210 N   0  0  0  0  0  0  0  0  0  0  0  0
  182.0530  178.9740  143.1100 S   0  0  0  0  0  0  0  0  0  0  0  0
  183.5600  178.6080  142.2410 C   0  0  1  0  0  3  0  0  0  0  0  0
  182.0110  177.9170  140.5820 C   0  0  2  0  0  3  0  0  0  0  0  0
  181.1130  178.6380  141.5840 C   0  0  2  0  0  3  0  0  0  0  0  0
  183.4200  178.1070  141.0260 C   0  0  0  0  0  2  0  0  0  0  0  0
  182.9250  176.8760  138.0030 O   0  0  0  0  0  1  0  0  0  0  0  0
  189.0010  177.1200  140.0550 C   0  0  0  0  0  2  0  0  0  0  0  0
  189.1050  178.2780  139.0690 C   0  0  0  0  0  2  0  0  0  0  0  0
  188.7580  177.8260  137.6570 C   0  0  0  0  0  2  0  0  0  0  0  0
  187.9080  176.6490  137.7080 N   0  0  0  0  0  2  0  0  0  0  0  0
  187.9460  176.0460  136.3860 C   0  0  0  0  0  2  0  0  0  0  0  0
  188.2800  174.6300  136.4990 N   0  0  0  0  0  0  0  0  0  0  0  0
  187.5600  172.3340  136.6830 C   0  0  0  0  0  2  0  0  0  0  0  0
  187.2690  173.6320  136.7410 C   0  0  0  0  0  0  0  0  0  0  0  0
  185.3050  172.9800  137.9760 N   0  0  0  0  0  1  0  0  0  0  0  0
  185.8900  174.0270  137.1580 C   0  0  0  0  0  2  0  0  0  0  0  0
  189.6760  174.2590  136.3100 C   0  0  0  0  0  2  0  0  0  0  0  0
  191.4050  175.1760  137.5730 C   0  0  0  0  0  1  0  0  0  0  0  0
  190.3480  174.1830  137.5970 N   0  0  0  0  0  2  0  0  0  0  0  0
  1 11  2  0  0  0  0
  2 13  2  0  0  0  0
  2  5  1  0  0  0  0
  3  8  2  0  0  0  0
  4 12  1  0  0  0  0
  5 10  2  0  0  0  0
  7  3  1  0  0  0  0
  7  2  1  0  0  0  0
  8  5  1  0  0  0  0
  8  1  1  0  0  0  0
  9 16  2  0  0  0  0
  9  6  1  0  0  0  0
 10  4  1  0  0  0  0
 10 14  1  0  0  0  0
 11 14  1  0  0  0  0
 11  9  1  0  0  0  0
 12 15  2  0  0  0  0
 13 18  1  0  0  0  0
 14 17  2  0  0  0  0
 17 15  1  0  0  0  0
 17  6  1  0  0  0  0
 18 19  1  0  0  0  0
 18  4  2  0  0  0  0
 20 19  1  0  0  0  0
 22 25  1  0  0  0  0
 23 22  2  0  0  0  0
 24 21  1  0  0  0  0
 25 24  1  0  0  0  0
 25 28  1  0  0  0  0
 27 20  1  6  0  0  0
 27 26  1  0  0  0  0
 28 30  1  1  0  0  0
 28 29  1  0  0  0  0
 29 21  1  6  0  0  0
 29 26  1  0  0  0  0
 30 27  1  0  0  0  0
 31 22  1  0  0  0  0
 32  7  1  0  0  0  0
 33 32  1  0  0  0  0
 34 35  1  0  0  0  0
 34 33  1  0  0  0  0
 36 37  1  0  0  0  0
 36 35  1  0  0  0  0
 37 39  1  0  0  0  0
 38 39  2  0  0  0  0
 39 41  1  0  0  0  0
 41 40  1  0  0  0  0
 42 37  1  0  0  0  0
 42 44  1  0  0  0  0
 43 44  1  0  0  0  0
M  END
>  <MODEL>
6

>  <REMARK>
 VINA RESULT:      -8.2      2.717      6.979
  Name = 
  13 active torsions:
  status: ('A' for Active; 'I' for Inactive)
    1  A    between atoms: C_1  and  N_3
    2  A    between atoms: C_1  and  C_44
    3  A    between atoms: N_3  and  C_29
    4  A    between atoms: C_4  and  N_10
    5  A    between atoms: C_4  and  N_42
    6  A    between atoms: N_10  and  C_19
    7  A    between atoms: C_16  and  N_22
    8  A    between atoms: C_16  and  C_24
    9  A    between atoms: C_19  and  C_24
   10  A    between atoms: N_20  and  C_21
   11  A    between atoms: C_21  and  N_42
   12  A    between atoms: C_31  and  C_32
   13  A    between atoms: C_32  and  N_42
                            x       y       z     vdW  Elec       q    Type
                         _______ _______ _______ _____ _____    ______ ____

>  <TORSDO>
F 13

$$$$
=
 OpenBabel11042410363D

 44 50  0  0  1  0  0  0  0  0999 V2000
  186.6620  177.9200  147.1460 C   0  0  0  0  0  3  0  0  0  0  0  0
  185.8330  178.0890  143.7730 C   0  0  0  0  0  0  0  0  0  0  0  0
  184.6380  178.6000  145.7500 C   0  0  0  0  0  3  0  0  0  0  0  0
  188.6040  177.6470  143.4250 C   0  0  0  0  0  0  0  0  0  0  0  0
  186.5140  177.5400  144.7460 C   0  0  0  0  0  0  0  0  0  0  0  0
  190.4630  177.8170  147.2140 N   0  0  0  0  0  2  0  0  0  0  0  0
  184.6660  178.7350  144.2870 N   0  0  0  0  0  0  0  0  0  0  0  0
  185.9190  177.8770  146.0250 C   0  0  0  0  0  0  0  0  0  0  0  0
  189.2100  177.8720  147.9100 C   0  0  0  0  0  0  0  0  0  0  0  0
  187.8910  176.9930  144.5940 C   0  0  0  0  0  0  0  0  0  0  0  0
  188.0900  177.5090  147.0410 C   0  0  0  0  0  0  0  0  0  0  0  0
  189.9210  177.9410  143.4990 C   0  0  0  0  0  3  0  0  0  0  0  0
  186.4470  178.2920  142.4370 C   0  0  0  0  0  3  0  0  0  0  0  0
  188.6350  177.1910  145.8720 C   0  0  0  0  0  0  0  0  0  0  0  0
  190.6870  177.8210  144.7780 C   0  0  0  0  0  3  0  0  0  0  0  0
  189.1000  178.2450  149.1050 O   0  0  0  0  0  0  0  0  0  0  0  0
  190.0510  177.4530  145.8990 C   0  0  0  0  0  0  0  0  0  0  0  0
  187.7660  178.0610  142.2590 C   0  0  0  0  0  0  0  0  0  0  0  0
  188.3720  178.2890  140.9170 C   0  0  0  0  0  2  0  0  0  0  0  0
  187.3280  178.6380  139.9650 N   0  0  0  0  0  2  0  0  0  0  0  0
  188.2430  175.7210  136.4390 C   0  0  0  0  0  2  0  0  0  0  0  0
  184.5110  175.9150  136.1310 C   0  0  0  0  0  0  0  0  0  0  0  0
  184.0640  174.7540  135.9310 O   0  0  0  0  0  0  0  0  0  0  0  0
  186.8920  175.0630  136.2160 C   0  0  0  0  0  2  0  0  0  0  0  0
  185.9130  176.1240  136.3330 N   0  0  0  0  0  0  0  0  0  0  0  0
  188.8900  178.0720  137.7120 S   0  0  0  0  0  0  0  0  0  0  0  0
  187.3540  178.2320  138.5940 C   0  0  1  0  0  3  0  0  0  0  0  0
  186.5010  177.4350  136.5300 C   0  0  2  0  0  3  0  0  0  0  0  0
  188.0030  177.2260  136.3630 C   0  0  2  0  0  3  0  0  0  0  0  0
  186.2660  177.8910  137.9280 C   0  0  0  0  0  2  0  0  0  0  0  0
  183.6320  176.9920  136.1520 O   0  0  0  0  0  1  0  0  0  0  0  0
  183.7790  179.6070  143.5310 C   0  0  0  0  0  2  0  0  0  0  0  0
  182.3320  179.1430  143.6570 C   0  0  0  0  0  2  0  0  0  0  0  0
  181.7980  178.6460  142.3210 C   0  0  0  0  0  2  0  0  0  0  0  0
  180.8270  179.5890  141.7930 N   0  0  0  0  0  2  0  0  0  0  0  0
  180.0570  178.8790  140.7850 C   0  0  0  0  0  2  0  0  0  0  0  0
  180.6930  179.0310  139.4810 N   0  0  0  0  0  0  0  0  0  0  0  0
  182.4800  180.4770  138.7460 C   0  0  0  0  0  2  0  0  0  0  0  0
  181.1900  180.3050  139.0260 C   0  0  0  0  0  0  0  0  0  0  0  0
  180.3330  181.8300  137.3680 N   0  0  0  0  0  1  0  0  0  0  0  0
  180.2540  181.4410  138.7650 C   0  0  0  0  0  2  0  0  0  0  0  0
  180.8470  177.8290  138.6710 C   0  0  0  0  0  2  0  0  0  0  0  0
  181.4230  175.6880  139.3810 C   0  0  0  0  0  1  0  0  0  0  0  0
  181.9460  177.0250  139.1790 N   0  0  0  0  0  2  0  0  0  0  0  0
  2  7  1  0  0  0  0
  2  5  1  0  0  0  0
  3  8  2  0  0  0  0
  4 12  1  0  0  0  0
  4 10  1  0  0  0  0
  5  8  1  0  0  0  0
  6  9  1  0  0  0  0
  7  3  1  0  0  0  0
  8  1  1  0  0  0  0
  9 16  2  0  0  0  0
 10  5  2  0  0  0  0
 10 14  1  0  0  0  0
 11  1  2  0  0  0  0
 11  9  1  0  0  0  0
 12 15  2  0  0  0  0
 13  2  2  0  0  0  0
 14 17  2  0  0  0  0
 14 11  1  0  0  0  0
 15 17  1  0  0  0  0
 17  6  1  0  0  0  0
 18 13  1  0  0  0  0
 18  4  2  0  0  0  0
 19 18  1  0  0  0  0
 20 19  1  0  0  0  0
 22 31  1  0  0  0  0
 22 25  1  0  0  0  0
 23 22  2  0  0  0  0
 24 25  1  0  0  0  0
 24 21  1  0  0  0  0
 25 28  1  0  0  0  0
 26 27  1  0  0  0  0
 27 20  1  1  0  0  0
 28 30  1  1  0  0  0
 29 21  1  1  0  0  0
 29 28  1  0  0  0  0
 29 26  1  0  0  0  0
 30 27  1  0  0  0  0
 32 33  1  0  0  0  0
 32  7  1  0  0  0  0
 34 33  1  0  0  0  0
 35 34  1  0  0  0  0
 36 35  1  0  0  0  0
 37 36  1  0  0  0  0
 38 39  2  0  0  0  0
 39 37  1  0  0  0  0
 40 41  1  0  0  0  0
 41 39  1  0  0  0  0
 42 44  1  0  0  0  0
 42 37  1  0  0  0  0
 44 43  1  0  0  0  0
M  END
>  <MODEL>
7

>  <REMARK>
 VINA RESULT:      -8.2      1.853      2.950
  Name = 
  13 active torsions:
  status: ('A' for Active; 'I' for Inactive)
    1  A    between atoms: C_1  and  N_3
    2  A    between atoms: C_1  and  C_44
    3  A    between atoms: N_3  and  C_29
    4  A    between atoms: C_4  and  N_10
    5  A    between atoms: C_4  and  N_42
    6  A    between atoms: N_10  and  C_19
    7  A    between atoms: C_16  and  N_22
    8  A    between atoms: C_16  and  C_24
    9  A    between atoms: C_19  and  C_24
   10  A    between atoms: N_20  and  C_21
   11  A    between atoms: C_21  and  N_42
   12  A    between atoms: C_31  and  C_32
   13  A    between atoms: C_32  and  N_42
                            x       y       z     vdW  Elec       q    Type
                         _______ _______ _______ _____ _____    ______ ____

>  <TORSDO>
F 13

$$$$
=
 OpenBabel11042410363D

 44 50  0  0  1  0  0  0  0  0999 V2000
  191.6780  177.0560  144.1090 C   0  0  0  0  0  3  0  0  0  0  0  0
  188.9750  177.8610  142.0750 C   0  0  0  0  0  0  0  0  0  0  0  0
  191.1700  177.1090  141.6100 C   0  0  0  0  0  3  0  0  0  0  0  0
  187.5740  177.8690  144.5310 C   0  0  0  0  0  0  0  0  0  0  0  0
  189.6450  178.0270  143.1870 C   0  0  0  0  0  0  0  0  0  0  0  0
  190.1710  176.4540  147.5470 N   0  0  0  0  0  2  0  0  0  0  0  0
  189.8260  177.3300  141.0570 N   0  0  0  0  0  0  0  0  0  0  0  0
  190.9900  177.5020  143.0430 C   0  0  0  0  0  0  0  0  0  0  0  0
  191.3090  176.4590  146.6750 C   0  0  0  0  0  0  0  0  0  0  0  0
  189.0170  178.3370  144.5010 C   0  0  0  0  0  0  0  0  0  0  0  0
  191.0500  177.2160  145.4500 C   0  0  0  0  0  0  0  0  0  0  0  0
  187.0480  177.3340  145.6560 C   0  0  0  0  0  3  0  0  0  0  0  0
  187.4910  177.8810  142.0740 C   0  0  0  0  0  3  0  0  0  0  0  0
  189.8230  177.7050  145.5850 C   0  0  0  0  0  0  0  0  0  0  0  0
  187.8930  177.0010  146.8430 C   0  0  0  0  0  3  0  0  0  0  0  0
  192.3710  175.8340  146.9220 O   0  0  0  0  0  0  0  0  0  0  0  0
  189.2180  177.1950  146.7880 C   0  0  0  0  0  0  0  0  0  0  0  0
  186.8160  177.9070  143.2440 C   0  0  0  0  0  0  0  0  0  0  0  0
  185.3260  177.9060  143.2270 C   0  0  0  0  0  2  0  0  0  0  0  0
  184.8490  178.9910  142.3830 N   0  0  0  0  0  2  0  0  0  0  0  0
  182.7610  176.5990  138.9640 C   0  0  0  0  0  2  0  0  0  0  0  0
  179.8330  177.0910  141.2540 C   0  0  0  0  0  0  0  0  0  0  0  0
  179.1930  176.0080  141.3250 O   0  0  0  0  0  0  0  0  0  0  0  0
  181.5160  176.0760  139.6590 C   0  0  0  0  0  2  0  0  0  0  0  0
  181.0320  177.1700  140.4760 N   0  0  0  0  0  0  0  0  0  0  0  0
  184.4360  178.6760  139.6330 S   0  0  0  0  0  0  0  0  0  0  0  0
  183.9060  178.8020  141.3260 C   0  0  0  0  0  0  0  0  0  0  0  0
  181.7970  178.3920  140.3190 C   0  0  2  0  0  3  0  0  0  0  0  0
  182.7650  178.1100  139.1720 C   0  0  2  0  0  3  0  0  0  0  0  0
  182.6120  178.6410  141.5400 C   0  0  0  0  0  3  0  0  0  0  0  0
  179.3630  178.2080  141.9330 O   0  0  0  0  0  1  0  0  0  0  0  0
  189.3880  176.8410  139.7580 C   0  0  0  0  0  2  0  0  0  0  0  0
  189.2010  177.9990  138.7830 C   0  0  0  0  0  2  0  0  0  0  0  0
  187.9780  177.7810  137.9030 C   0  0  0  0  0  2  0  0  0  0  0  0
  187.6230  176.3720  137.8870 N   0  0  0  0  0  2  0  0  0  0  0  0
  187.8820  175.8880  136.5420 C   0  0  0  0  0  2  0  0  0  0  0  0
  186.8070  174.9960  136.1220 N   0  0  0  0  0  0  0  0  0  0  0  0
  187.3950  172.8010  136.9340 C   0  0  0  0  0  2  0  0  0  0  0  0
  186.5040  173.7850  136.8430 C   0  0  0  0  0  0  0  0  0  0  0  0
  184.5280  172.4400  137.1530 N   0  0  0  0  0  1  0  0  0  0  0  0
  185.2160  173.6420  137.5880 C   0  0  0  0  0  2  0  0  0  0  0  0
  186.0190  175.4030  134.9660 C   0  0  0  0  0  2  0  0  0  0  0  0
  184.5790  177.0400  135.7830 C   0  0  0  0  0  1  0  0  0  0  0  0
  185.7840  176.8370  135.0030 N   0  0  0  0  0  2  0  0  0  0  0  0
  1 11  2  0  0  0  0
  2  5  1  0  0  0  0
  3  8  2  0  0  0  0
  4 12  1  0  0  0  0
  5 10  2  0  0  0  0
  7  3  1  0  0  0  0
  7  2  1  0  0  0  0
  8  5  1  0  0  0  0
  8  1  1  0  0  0  0
  9 16  2  0  0  0  0
  9  6  1  0  0  0  0
 10  4  1  0  0  0  0
 10 14  1  0  0  0  0
 11 14  1  0  0  0  0
 11  9  1  0  0  0  0
 12 15  2  0  0  0  0
 13  2  2  0  0  0  0
 13 18  1  0  0  0  0
 14 17  2  0  0  0  0
 17 15  1  0  0  0  0
 17  6  1  0  0  0  0
 18  4  2  0  0  0  0
 19 18  1  0  0  0  0
 20 19  1  0  0  0  0
 21 24  1  0  0  0  0
 22 23  2  0  0  0  0
 22 31  1  0  0  0  0
 24 25  1  0  0  0  0
 25 22  1  0  0  0  0
 26 27  1  0  0  0  0
 27 30  2  0  0  0  0
 27 20  1  0  0  0  0
 28 25  1  0  0  0  0
 28 30  1  1  0  0  0
 29 21  1  1  0  0  0
 29 26  1  0  0  0  0
 29 28  1  0  0  0  0
 32  7  1  0  0  0  0
 33 32  1  0  0  0  0
 34 33  1  0  0  0  0
 35 34  1  0  0  0  0
 36 35  1  0  0  0  0
 37 36  1  0  0  0  0
 37 39  1  0  0  0  0
 39 38  2  0  0  0  0
 39 41  1  0  0  0  0
 40 41  1  0  0  0  0
 42 44  1  0  0  0  0
 42 37  1  0  0  0  0
 44 43  1  0  0  0  0
M  END
>  <MODEL>
8

>  <REMARK>
 VINA RESULT:      -8.2      3.187      6.434
  Name = 
  13 active torsions:
  status: ('A' for Active; 'I' for Inactive)
    1  A    between atoms: C_1  and  N_3
    2  A    between atoms: C_1  and  C_44
    3  A    between atoms: N_3  and  C_29
    4  A    between atoms: C_4  and  N_10
    5  A    between atoms: C_4  and  N_42
    6  A    between atoms: N_10  and  C_19
    7  A    between atoms: C_16  and  N_22
    8  A    between atoms: C_16  and  C_24
    9  A    between atoms: C_19  and  C_24
   10  A    between atoms: N_20  and  C_21
   11  A    between atoms: C_21  and  N_42
   12  A    between atoms: C_31  and  C_32
   13  A    between atoms: C_32  and  N_42
                            x       y       z     vdW  Elec       q    Type
                         _______ _______ _______ _____ _____    ______ ____

>  <TORSDO>
F 13

$$$$
=
 OpenBabel11042410363D

 44 50  0  0  1  0  0  0  0  0999 V2000
  191.6810  176.9040  144.5700 C   0  0  0  0  0  3  0  0  0  0  0  0
  189.4090  177.8240  142.1040 C   0  0  0  0  0  0  0  0  0  0  0  0
  191.6000  176.9370  142.0200 C   0  0  0  0  0  3  0  0  0  0  0  0
  187.6210  177.9640  144.2900 C   0  0  0  0  0  0  0  0  0  0  0  0
  189.8930  177.9730  143.3100 C   0  0  0  0  0  0  0  0  0  0  0  0
  189.5880  176.4610  147.7130 N   0  0  0  0  0  2  0  0  0  0  0  0
  190.3840  177.2240  141.2480 N   0  0  0  0  0  0  0  0  0  0  0  0
  191.2080  177.3680  143.3990 C   0  0  0  0  0  0  0  0  0  0  0  0
  190.8530  176.3810  147.0430 C   0  0  0  0  0  0  0  0  0  0  0  0
  189.0740  178.3460  144.4970 C   0  0  0  0  0  0  0  0  0  0  0  0
  190.8490  177.1280  145.7850 C   0  0  0  0  0  0  0  0  0  0  0  0
  186.8830  177.4840  145.3150 C   0  0  0  0  0  3  0  0  0  0  0  0
  187.9500  177.9320  141.8540 C   0  0  0  0  0  3  0  0  0  0  0  0
  189.6490  177.6900  145.7080 C   0  0  0  0  0  0  0  0  0  0  0  0
  187.4970  177.1260  146.6310 C   0  0  0  0  0  3  0  0  0  0  0  0
  191.8190  175.7000  147.4710 O   0  0  0  0  0  0  0  0  0  0  0  0
  188.8210  177.2400  146.7970 C   0  0  0  0  0  0  0  0  0  0  0  0
  187.0920  178.0200  142.8940 C   0  0  0  0  0  0  0  0  0  0  0  0
  185.6280  178.1060  142.6260 C   0  0  0  0  0  2  0  0  0  0  0  0
  185.4090  178.5000  141.2430 N   0  0  0  0  0  2  0  0  0  0  0  0
  181.7190  178.0750  138.4180 C   0  0  0  0  0  2  0  0  0  0  0  0
  180.0410  177.4970  141.7210 C   0  0  0  0  0  0  0  0  0  0  0  0
  179.2450  176.5270  141.6020 O   0  0  0  0  0  0  0  0  0  0  0  0
  180.7360  177.3170  139.2940 C   0  0  0  0  0  2  0  0  0  0  0  0
  180.8510  177.9040  140.6140 N   0  0  0  0  0  0  0  0  0  0  0  0
  183.9470  179.5400  139.0950 S   0  0  0  0  0  0  0  0  0  0  0  0
  184.1240  178.8600  140.7280 C   0  0  0  0  0  0  0  0  0  0  0  0
  181.7590  179.0330  140.6670 C   0  0  2  0  0  3  0  0  0  0  0  0
  182.1420  179.3050  139.2150 C   0  0  2  0  0  3  0  0  0  0  0  0
  183.0020  178.6510  141.3930 C   0  0  0  0  0  3  0  0  0  0  0  0
  180.1230  178.1690  142.9340 O   0  0  0  0  0  1  0  0  0  0  0  0
  190.1390  176.7360  139.8980 C   0  0  0  0  0  2  0  0  0  0  0  0
  191.4140  176.7970  139.0640 C   0  0  0  0  0  2  0  0  0  0  0  0
  191.1060  176.6400  137.5820 C   0  0  0  0  0  2  0  0  0  0  0  0
  190.0930  175.6160  137.3910 N   0  0  0  0  0  2  0  0  0  0  0  0
  189.1400  176.1420  136.4290 C   0  0  0  0  0  2  0  0  0  0  0  0
  187.7800  175.8590  136.8750 N   0  0  0  0  0  0  0  0  0  0  0  0
  185.5510  176.7550  137.1060 C   0  0  0  0  0  2  0  0  0  0  0  0
  186.8670  176.9150  137.2330 C   0  0  0  0  0  0  0  0  0  0  0  0
  187.4080  179.2310  136.8440 N   0  0  0  0  0  1  0  0  0  0  0  0
  187.3670  178.1820  137.8470 C   0  0  0  0  0  2  0  0  0  0  0  0
  187.3660  174.4630  136.9020 C   0  0  0  0  0  2  0  0  0  0  0  0
  188.3530  172.5980  135.9180 C   0  0  0  0  0  1  0  0  0  0  0  0
  187.6540  173.8340  135.6240 N   0  0  0  0  0  2  0  0  0  0  0  0
  1 11  2  0  0  0  0
  2  5  1  0  0  0  0
  3  8  2  0  0  0  0
  4 10  1  0  0  0  0
  4 12  1  0  0  0  0
  5  8  1  0  0  0  0
  5 10  2  0  0  0  0
  7  3  1  0  0  0  0
  7  2  1  0  0  0  0
  8  1  1  0  0  0  0
  9 16  2  0  0  0  0
  9  6  1  0  0  0  0
 10 14  1  0  0  0  0
 11  9  1  0  0  0  0
 12 15  2  0  0  0  0
 13  2  2  0  0  0  0
 13 18  1  0  0  0  0
 14 11  1  0  0  0  0
 14 17  2  0  0  0  0
 15 17  1  0  0  0  0
 17  6  1  0  0  0  0
 18  4  2  0  0  0  0
 19 18  1  0  0  0  0
 20 19  1  0  0  0  0
 21 24  1  0  0  0  0
 22 31  1  0  0  0  0
 23 22  2  0  0  0  0
 24 25  1  0  0  0  0
 25 28  1  0  0  0  0
 25 22  1  0  0  0  0
 26 29  1  0  0  0  0
 26 27  1  0  0  0  0
 27 20  1  0  0  0  0
 27 30  2  0  0  0  0
 28 30  1  1  0  0  0
 29 21  1  6  0  0  0
 29 28  1  0  0  0  0
 32  7  1  0  0  0  0
 33 32  1  0  0  0  0
 34 33  1  0  0  0  0
 35 34  1  0  0  0  0
 36 37  1  0  0  0  0
 36 35  1  0  0  0  0
 37 42  1  0  0  0  0
 37 39  1  0  0  0  0
 38 39  2  0  0  0  0
 39 41  1  0  0  0  0
 40 41  1  0  0  0  0
 44 43  1  0  0  0  0
 44 42  1  0  0  0  0
M  END
>  <MODEL>
9

>  <REMARK>
 VINA RESULT:      -8.2      3.024      6.844
  Name = 
  13 active torsions:
  status: ('A' for Active; 'I' for Inactive)
    1  A    between atoms: C_1  and  N_3
    2  A    between atoms: C_1  and  C_44
    3  A    between atoms: N_3  and  C_29
    4  A    between atoms: C_4  and  N_10
    5  A    between atoms: C_4  and  N_42
    6  A    between atoms: N_10  and  C_19
    7  A    between atoms: C_16  and  N_22
    8  A    between atoms: C_16  and  C_24
    9  A    between atoms: C_19  and  C_24
   10  A    between atoms: N_20  and  C_21
   11  A    between atoms: C_21  and  N_42
   12  A    between atoms: C_31  and  C_32
   13  A    between atoms: C_32  and  N_42
                            x       y       z     vdW  Elec       q    Type
                         _______ _______ _______ _____ _____    ______ ____

>  <TORSDO>
F 13

$$$$
