=
 OpenBabel11032420323D

 53 60  0  0  1  0  0  0  0  0999 V2000
  183.8610  177.3440  137.8700 C   0  0  0  0  0  0  0  0  0  0  0  0
  182.7260  177.9670  140.5810 C   0  0  0  0  0  0  0  0  0  0  0  0
  184.4740  178.2130  138.7310 C   0  0  0  0  0  0  0  0  0  0  0  0
  182.0790  177.1260  139.5990 C   0  0  0  0  0  0  0  0  0  0  0  0
  185.0280  179.1460  139.6540 C   0  0  0  0  0  2  0  0  0  0  0  0
  182.6400  176.8960  138.3440 N   0  0  0  0  0  0  0  0  0  0  0  0
  183.8800  178.4760  140.0250 C   0  0  0  0  0  0  0  0  0  0  0  0
  184.1660  176.7180  135.5510 N   0  0  0  0  0  0  0  0  0  0  0  0
  185.8810  175.3950  135.6220 N   0  0  0  0  0  0  0  0  0  0  0  0
  185.6260  175.7520  136.9420 C   0  0  0  0  0  3  0  0  0  0  0  0
  184.5450  176.5940  136.8540 C   0  0  0  0  0  0  0  0  0  0  0  0
  185.0240  175.9790  134.8740 N   0  0  0  0  0  0  0  0  0  0  0  0
  187.1790  175.1320  135.2120 N   0  0  0  0  0  2  0  0  0  0  0  0
  188.1150  173.7940  135.7650 S   0  0  0  0  0  0  0  0  0  0  0  0
  187.2630  172.7620  136.4700 O   0  0  0  0  0  0  0  0  0  0  0  0
  188.8570  173.2040  134.5940 O   0  0  0  0  0  0  0  0  0  0  0  0
  191.1320  173.8770  136.6770 N   0  0  0  0  0  0  0  0  0  0  0  0
  189.2700  174.5380  136.9550 C   0  0  2  0  0  3  0  0  0  0  0  0
  190.6970  176.1450  135.6570 O   0  0  0  0  0  0  0  0  0  0  0  0
  190.4310  175.0980  136.2240 C   0  0  0  0  0  0  0  0  0  0  0  0
  190.1100  173.6320  137.5400 O   0  0  0  0  0  0  0  0  0  0  0  0
  191.7380  171.7870  135.1880 S   0  0  0  0  0  0  0  0  0  0  0  0
  192.1640  173.1090  136.0420 C   0  0  0  0  0  0  0  0  0  0  0  0
  193.5590  173.6310  135.9890 C   0  0  0  0  0  2  0  0  0  0  0  0
  194.0280  174.1650  137.3450 C   0  0  0  0  0  2  0  0  0  0  0  0
  195.7710  175.1500  136.1250 C   0  0  0  0  0  1  0  0  0  0  0  0
  193.9500  176.4430  136.7320 C   0  0  0  0  0  1  0  0  0  0  0  0
  194.8300  175.3820  137.2080 N   0  0  0  0  0  0  0  0  0  0  0  0
  181.0810  176.1370  140.0080 C   0  0  2  0  0  3  0  0  0  0  0  0
  180.3110  175.8330  138.8070 C   0  0  0  0  0  2  0  0  0  0  0  0
  179.7150  176.6070  139.9090 N   0  0  0  0  0  2  0  0  0  0  0  0
  182.4050  178.2360  142.0490 C   0  0  0  0  0  2  0  0  0  0  0  0
  183.3590  179.2270  142.7260 C   0  0  0  0  0  2  0  0  0  0  0  0
  184.4040  178.6640  143.6940 C   0  0  2  0  0  3  0  0  0  0  0  0
  186.4530  177.2390  143.6030 C   0  0  0  0  0  2  0  0  0  0  0  0
  184.5430  179.3920  145.0220 C   0  0  0  0  0  2  0  0  0  0  0  0
  186.5700  178.2320  146.0330 C   0  0  0  0  0  2  0  0  0  0  0  0
  185.0360  178.2970  145.9840 C   0  0  0  0  0  2  0  0  0  0  0  0
  187.2400  177.4480  144.8780 C   0  0  2  0  0  3  0  0  0  0  0  0
  185.7440  178.4280  142.9670 C   0  0  0  0  0  2  0  0  0  0  0  0
  192.0550  176.6710  146.5380 N   0  0  0  0  0  1  0  0  0  0  0  0
  190.8030  178.6760  143.5490 C   0  0  0  0  0  2  0  0  0  0  0  0
  191.5510  178.3000  144.8590 C   0  0  0  0  0  2  0  0  0  0  0  0
  188.7730  177.7120  144.7440 C   0  0  2  0  0  3  0  0  0  0  0  0
  189.4120  178.0470  143.3680 C   0  0  2  0  0  3  0  0  0  0  0  0
  191.1840  176.9480  145.3850 C   0  0  2  0  0  3  0  0  0  0  0  0
  189.6360  176.8560  145.7080 C   0  0  0  0  0  2  0  0  0  0  0  0
  190.5650  176.6580  139.9150 S   0  0  0  0  0  0  0  0  0  0  0  0
  189.3140  177.1970  141.0520 C   0  0  0  0  0  0  0  0  0  0  0  0
  189.8930  177.8570  138.7410 C   0  0  0  0  0  2  0  0  0  0  0  0
  189.4680  176.9190  142.4380 N   0  0  0  0  0  2  0  0  0  0  0  0
  188.4650  178.1890  139.1560 C   0  0  0  0  0  2  0  0  0  0  0  0
  188.3740  177.9630  140.5950 N   0  0  0  0  0  0  0  0  0  0  0  0
  1  6  2  0  0  0  0
  1  3  1  0  0  0  0
  2 32  1  0  0  0  0
  3  5  1  0  0  0  0
  3  7  2  0  0  0  0
  4  2  2  0  0  0  0
  5  7  1  0  0  0  0
  6  4  1  0  0  0  0
  7  2  1  0  0  0  0
  8 11  1  0  0  0  0
  9 10  1  0  0  0  0
 11 10  2  0  0  0  0
 11  1  1  0  0  0  0
 12  8  2  0  0  0  0
 12  9  1  0  0  0  0
 13  9  1  0  0  0  0
 13 14  1  0  0  0  0
 14 15  2  0  0  0  0
 16 14  2  0  0  0  0
 17 21  1  0  0  0  0
 18 14  1  6  0  0  0
 18 21  1  0  0  0  0
 19 20  2  0  0  0  0
 20 17  1  0  0  0  0
 20 18  1  0  0  0  0
 22 23  2  0  0  0  0
 23 17  1  0  0  0  0
 24 23  1  0  0  0  0
 24 25  1  0  0  0  0
 26 28  1  0  0  0  0
 27 28  1  0  0  0  0
 28 25  1  0  0  0  0
 29  4  1  6  0  0  0
 30 31  1  0  0  0  0
 30 29  1  0  0  0  0
 31 29  1  0  0  0  0
 32 33  1  0  0  0  0
 34 33  1  6  0  0  0
 34 36  1  0  0  0  0
 36 38  1  0  0  0  0
 38 37  1  0  0  0  0
 39 35  1  6  0  0  0
 39 37  1  0  0  0  0
 40 35  1  0  0  0  0
 40 34  1  0  0  0  0
 42 43  1  0  0  0  0
 43 46  1  0  0  0  0
 44 39  1  0  0  0  0
 44 47  1  6  0  0  0
 45 51  1  6  0  0  0
 45 42  1  0  0  0  0
 45 44  1  0  0  0  0
 46 47  1  0  0  0  0
 46 41  1  1  0  0  0
 48 49  1  0  0  0  0
 49 51  1  0  0  0  0
 50 52  1  0  0  0  0
 50 48  1  0  0  0  0
 52 53  1  0  0  0  0
 53 49  2  0  0  0  0
M  END
>  <MODEL>
1

>  <REMARK>
 VINA RESULT:      -8.6      0.000      0.000
  Name = 
  14 active torsions:
  status: ('A' for Active; 'I' for Inactive)
    1  A    between atoms: C_3  and  C_35
    2  A    between atoms: C_4  and  C_24
    3  A    between atoms: C_5  and  C_24
    4  A    between atoms: C_5  and  C_26
    5  A    between atoms: N_6  and  N_10
    6  A    between atoms: S_9  and  N_10
    7  A    between atoms: S_9  and  C_31
    8  A    between atoms: C_13  and  C_28
    9  A    between atoms: C_17  and  C_51
   10  A    between atoms: N_19  and  C_30
   11  A    between atoms: N_27  and  C_33
   12  A    between atoms: C_33  and  C_40
   13  A    between atoms: C_40  and  C_47
   14  A    between atoms: N_46  and  C_47
                            x       y       z     vdW  Elec       q    Type
                         _______ _______ _______ _____ _____    ______ ____

>  <TORSDO>
F 14

$$$$
=
 OpenBabel11032420323D

 53 60  0  0  1  0  0  0  0  0999 V2000
  182.6750  177.3450  138.7270 C   0  0  0  0  0  0  0  0  0  0  0  0
  182.1760  178.3880  141.4990 C   0  0  0  0  0  0  0  0  0  0  0  0
  183.6910  177.7920  139.5270 C   0  0  0  0  0  0  0  0  0  0  0  0
  181.1360  177.9840  140.5800 C   0  0  0  0  0  0  0  0  0  0  0  0
  184.6910  178.3230  140.3930 C   0  0  0  0  0  2  0  0  0  0  0  0
  181.4260  177.5340  139.2930 N   0  0  0  0  0  0  0  0  0  0  0  0
  183.3910  178.2850  140.8550 C   0  0  0  0  0  0  0  0  0  0  0  0
  182.9130  176.7880  136.3830 N   0  0  0  0  0  0  0  0  0  0  0  0
  183.1910  174.6380  136.4140 N   0  0  0  0  0  0  0  0  0  0  0  0
  182.9990  175.0140  137.7400 C   0  0  0  0  0  3  0  0  0  0  0  0
  182.8380  176.3750  137.6780 C   0  0  0  0  0  0  0  0  0  0  0  0
  183.1390  175.6900  135.6870 N   0  0  0  0  0  0  0  0  0  0  0  0
  183.9990  173.5550  136.1080 N   0  0  0  0  0  2  0  0  0  0  0  0
  185.6670  173.6800  135.6910 S   0  0  0  0  0  0  0  0  0  0  0  0
  186.2520  172.3420  135.2970 O   0  0  0  0  0  0  0  0  0  0  0  0
  185.8170  174.7030  134.5940 O   0  0  0  0  0  0  0  0  0  0  0  0
  188.2130  175.1230  136.8620 N   0  0  0  0  0  0  0  0  0  0  0  0
  186.4540  174.2550  137.2250 C   0  0  2  0  0  3  0  0  0  0  0  0
  186.3230  176.7620  137.1990 O   0  0  0  0  0  0  0  0  0  0  0  0
  186.8560  175.6730  137.0660 C   0  0  0  0  0  0  0  0  0  0  0  0
  187.7760  173.9200  137.3190 O   0  0  0  0  0  0  0  0  0  0  0  0
  189.0390  176.8940  135.0920 S   0  0  0  0  0  0  0  0  0  0  0  0
  189.2940  175.5940  136.0440 C   0  0  0  0  0  0  0  0  0  0  0  0
  190.6660  175.0420  136.2250 C   0  0  0  0  0  2  0  0  0  0  0  0
  191.7410  175.9640  135.6460 C   0  0  0  0  0  2  0  0  0  0  0  0
  192.9930  175.7040  137.6110 C   0  0  0  0  0  1  0  0  0  0  0  0
  193.3500  174.2490  135.8470 C   0  0  0  0  0  1  0  0  0  0  0  0
  193.0740  175.6460  136.1610 N   0  0  0  0  0  0  0  0  0  0  0  0
  179.8160  177.5940  141.0750 C   0  0  2  0  0  3  0  0  0  0  0  0
  179.8050  176.1360  141.0630 C   0  0  0  0  0  2  0  0  0  0  0  0
  179.0030  176.9030  140.0950 N   0  0  0  0  0  2  0  0  0  0  0  0
  182.1290  178.7520  142.9810 C   0  0  0  0  0  2  0  0  0  0  0  0
  183.3320  179.5710  143.4620 C   0  0  0  0  0  2  0  0  0  0  0  0
  184.4080  178.8470  144.2760 C   0  0  2  0  0  3  0  0  0  0  0  0
  186.4110  177.4120  143.8620 C   0  0  0  0  0  2  0  0  0  0  0  0
  184.6340  179.3620  145.6900 C   0  0  0  0  0  2  0  0  0  0  0  0
  186.6770  178.0230  146.4040 C   0  0  0  0  0  2  0  0  0  0  0  0
  185.1440  178.1230  146.4480 C   0  0  0  0  0  2  0  0  0  0  0  0
  187.2660  177.4110  145.1100 C   0  0  2  0  0  3  0  0  0  0  0  0
  185.7030  178.6990  143.4520 C   0  0  0  0  0  2  0  0  0  0  0  0
  192.1220  176.5340  146.5930 N   0  0  0  0  0  1  0  0  0  0  0  0
  190.8000  178.6400  143.7050 C   0  0  0  0  0  2  0  0  0  0  0  0
  191.5840  178.2170  144.9790 C   0  0  0  0  0  2  0  0  0  0  0  0
  188.7970  177.6620  144.9350 C   0  0  2  0  0  3  0  0  0  0  0  0
  189.3970  178.0310  143.5500 C   0  0  2  0  0  3  0  0  0  0  0  0
  191.2190  176.8540  145.4760 C   0  0  2  0  0  3  0  0  0  0  0  0
  189.6800  176.7690  145.8460 C   0  0  0  0  0  2  0  0  0  0  0  0
  190.4320  176.7290  140.0260 S   0  0  0  0  0  0  0  0  0  0  0  0
  189.2210  177.2510  141.2140 C   0  0  0  0  0  0  0  0  0  0  0  0
  189.7430  177.9710  138.9070 C   0  0  0  0  0  2  0  0  0  0  0  0
  189.4110  176.9300  142.5860 N   0  0  0  0  0  2  0  0  0  0  0  0
  188.3320  178.3100  139.3730 C   0  0  0  0  0  2  0  0  0  0  0  0
  188.2790  178.0420  140.8060 N   0  0  0  0  0  0  0  0  0  0  0  0
  1  6  2  0  0  0  0
  1  3  1  0  0  0  0
  2 32  1  0  0  0  0
  3  5  1  0  0  0  0
  3  7  2  0  0  0  0
  4  2  2  0  0  0  0
  5  7  1  0  0  0  0
  6  4  1  0  0  0  0
  7  2  1  0  0  0  0
  8 11  1  0  0  0  0
  9 10  1  0  0  0  0
 11 10  2  0  0  0  0
 11  1  1  0  0  0  0
 12  8  2  0  0  0  0
 12  9  1  0  0  0  0
 13  9  1  0  0  0  0
 14 13  1  0  0  0  0
 15 14  2  0  0  0  0
 16 14  2  0  0  0  0
 17 20  1  0  0  0  0
 17 21  1  0  0  0  0
 18 14  1  6  0  0  0
 18 21  1  0  0  0  0
 20 19  2  0  0  0  0
 20 18  1  0  0  0  0
 22 23  2  0  0  0  0
 23 24  1  0  0  0  0
 23 17  1  0  0  0  0
 25 28  1  0  0  0  0
 25 24  1  0  0  0  0
 27 28  1  0  0  0  0
 28 26  1  0  0  0  0
 29  4  1  6  0  0  0
 30 29  1  0  0  0  0
 31 30  1  0  0  0  0
 31 29  1  0  0  0  0
 32 33  1  0  0  0  0
 34 33  1  6  0  0  0
 34 36  1  0  0  0  0
 36 38  1  0  0  0  0
 37 38  1  0  0  0  0
 39 35  1  6  0  0  0
 39 37  1  0  0  0  0
 40 35  1  0  0  0  0
 40 34  1  0  0  0  0
 42 43  1  0  0  0  0
 43 46  1  0  0  0  0
 44 39  1  0  0  0  0
 44 47  1  6  0  0  0
 45 51  1  6  0  0  0
 45 42  1  0  0  0  0
 45 44  1  0  0  0  0
 46 47  1  0  0  0  0
 46 41  1  1  0  0  0
 48 49  1  0  0  0  0
 49 51  1  0  0  0  0
 50 52  1  0  0  0  0
 50 48  1  0  0  0  0
 52 53  1  0  0  0  0
 53 49  2  0  0  0  0
M  END
>  <MODEL>
2

>  <REMARK>
 VINA RESULT:      -8.3      1.651      2.116
  Name = 
  14 active torsions:
  status: ('A' for Active; 'I' for Inactive)
    1  A    between atoms: C_3  and  C_35
    2  A    between atoms: C_4  and  C_24
    3  A    between atoms: C_5  and  C_24
    4  A    between atoms: C_5  and  C_26
    5  A    between atoms: N_6  and  N_10
    6  A    between atoms: S_9  and  N_10
    7  A    between atoms: S_9  and  C_31
    8  A    between atoms: C_13  and  C_28
    9  A    between atoms: C_17  and  C_51
   10  A    between atoms: N_19  and  C_30
   11  A    between atoms: N_27  and  C_33
   12  A    between atoms: C_33  and  C_40
   13  A    between atoms: C_40  and  C_47
   14  A    between atoms: N_46  and  C_47
                            x       y       z     vdW  Elec       q    Type
                         _______ _______ _______ _____ _____    ______ ____

>  <TORSDO>
F 14

$$$$
=
 OpenBabel11032420323D

 53 60  0  0  1  0  0  0  0  0999 V2000
  186.7310  177.5080  143.0100 C   0  0  0  0  0  0  0  0  0  0  0  0
  184.1460  178.7360  143.9220 C   0  0  0  0  0  0  0  0  0  0  0  0
  185.6840  177.7150  142.1530 C   0  0  0  0  0  0  0  0  0  0  0  0
  185.2500  178.4170  144.7980 C   0  0  0  0  0  0  0  0  0  0  0  0
  184.5370  177.9090  141.3310 C   0  0  0  0  0  2  0  0  0  0  0  0
  186.4160  177.8200  144.3220 N   0  0  0  0  0  0  0  0  0  0  0  0
  184.4610  178.3100  142.6500 C   0  0  0  0  0  0  0  0  0  0  0  0
  188.9050  176.4440  143.0570 N   0  0  0  0  0  0  0  0  0  0  0  0
  190.0740  177.6550  141.6910 N   0  0  0  0  0  0  0  0  0  0  0  0
  188.8180  178.2510  141.7440 C   0  0  0  0  0  3  0  0  0  0  0  0
  188.1090  177.4530  142.6060 C   0  0  0  0  0  0  0  0  0  0  0  0
  190.0640  176.6270  142.4530 N   0  0  0  0  0  0  0  0  0  0  0  0
  190.8260  177.7190  140.5290 N   0  0  0  0  0  2  0  0  0  0  0  0
  190.2930  177.1280  138.9990 S   0  0  0  0  0  0  0  0  0  0  0  0
  191.4520  176.7220  138.1160 O   0  0  0  0  0  0  0  0  0  0  0  0
  189.3350  175.9870  139.2280 O   0  0  0  0  0  0  0  0  0  0  0  0
  188.2740  177.9950  136.7390 N   0  0  0  0  0  0  0  0  0  0  0  0
  189.4400  178.5520  138.2590 C   0  0  2  0  0  3  0  0  0  0  0  0
  187.0210  178.3480  138.9020 O   0  0  0  0  0  0  0  0  0  0  0  0
  187.9900  178.2580  138.1660 C   0  0  0  0  0  0  0  0  0  0  0  0
  189.4950  178.5710  136.8930 O   0  0  0  0  0  0  0  0  0  0  0  0
  186.7790  177.6500  134.5940 S   0  0  0  0  0  0  0  0  0  0  0  0
  187.6700  177.0650  135.8280 C   0  0  0  0  0  0  0  0  0  0  0  0
  188.0310  175.6190  135.8860 C   0  0  0  0  0  2  0  0  0  0  0  0
  187.0480  174.8140  136.7410 C   0  0  0  0  0  2  0  0  0  0  0  0
  186.9510  172.4810  136.5250 C   0  0  0  0  0  1  0  0  0  0  0  0
  189.0130  173.5070  136.7450 C   0  0  0  0  0  1  0  0  0  0  0  0
  187.6360  173.5610  137.2170 N   0  0  0  0  0  0  0  0  0  0  0  0
  185.3980  179.0920  146.0870 C   0  0  2  0  0  3  0  0  0  0  0  0
  186.3120  178.2640  146.8640 C   0  0  0  0  0  2  0  0  0  0  0  0
  184.8820  178.3340  147.2080 N   0  0  0  0  0  2  0  0  0  0  0  0
  182.8590  179.5220  144.1650 C   0  0  0  0  0  2  0  0  0  0  0  0
  181.5870  178.6670  144.1240 C   0  0  0  0  0  2  0  0  0  0  0  0
  180.6750  178.8030  142.9010 C   0  0  2  0  0  3  0  0  0  0  0  0
  179.9920  180.5680  141.2720 C   0  0  0  0  0  2  0  0  0  0  0  0
  180.3300  177.5090  142.1800 C   0  0  0  0  0  2  0  0  0  0  0  0
  179.0950  178.3770  140.1310 C   0  0  0  0  0  2  0  0  0  0  0  0
  178.9570  177.8020  141.5490 C   0  0  0  0  0  2  0  0  0  0  0  0
  179.3980  179.8940  140.0550 C   0  0  2  0  0  3  0  0  0  0  0  0
  181.1830  179.9220  141.9690 C   0  0  0  0  0  2  0  0  0  0  0  0
  180.8290  183.6960  136.8860 N   0  0  0  0  0  1  0  0  0  0  0  0
  180.7420  179.9330  136.2910 C   0  0  0  0  0  2  0  0  0  0  0  0
  180.5090  181.4590  136.1010 C   0  0  0  0  0  2  0  0  0  0  0  0
  179.8970  180.3660  138.6530 C   0  0  2  0  0  3  0  0  0  0  0  0
  180.7430  179.4320  137.7440 C   0  0  2  0  0  3  0  0  0  0  0  0
  180.9880  182.2810  137.2550 C   0  0  2  0  0  3  0  0  0  0  0  0
  180.2500  181.8760  138.5980 C   0  0  0  0  0  2  0  0  0  0  0  0
  184.0410  177.3760  137.4750 S   0  0  0  0  0  0  0  0  0  0  0  0
  182.5590  177.8620  138.3210 C   0  0  0  0  0  0  0  0  0  0  0  0
  183.4800  175.6670  137.6530 C   0  0  0  0  0  2  0  0  0  0  0  0
  182.1090  179.2070  138.2170 N   0  0  0  0  0  2  0  0  0  0  0  0
  182.4630  175.6090  138.7870 C   0  0  0  0  0  2  0  0  0  0  0  0
  181.8520  176.9310  138.8810 N   0  0  0  0  0  0  0  0  0  0  0  0
  1  6  1  0  0  0  0
  2 32  1  0  0  0  0
  2  4  1  0  0  0  0
  3  7  1  0  0  0  0
  3  1  2  0  0  0  0
  5  3  1  0  0  0  0
  5  7  1  0  0  0  0
  6  4  2  0  0  0  0
  7  2  2  0  0  0  0
  9 10  1  0  0  0  0
  9 12  1  0  0  0  0
 10 11  2  0  0  0  0
 11  1  1  0  0  0  0
 11  8  1  0  0  0  0
 12  8  2  0  0  0  0
 13  9  1  0  0  0  0
 14 16  2  0  0  0  0
 14 13  1  0  0  0  0
 15 14  2  0  0  0  0
 17 21  1  0  0  0  0
 17 20  1  0  0  0  0
 18 14  1  6  0  0  0
 20 18  1  0  0  0  0
 20 19  2  0  0  0  0
 21 18  1  0  0  0  0
 22 23  2  0  0  0  0
 23 24  1  0  0  0  0
 23 17  1  0  0  0  0
 24 25  1  0  0  0  0
 25 28  1  0  0  0  0
 26 28  1  0  0  0  0
 27 28  1  0  0  0  0
 29  4  1  6  0  0  0
 29 30  1  0  0  0  0
 29 31  1  0  0  0  0
 30 31  1  0  0  0  0
 33 32  1  0  0  0  0
 34 33  1  1  0  0  0
 35 40  1  0  0  0  0
 36 34  1  0  0  0  0
 37 38  1  0  0  0  0
 38 36  1  0  0  0  0
 39 37  1  1  0  0  0
 39 35  1  0  0  0  0
 40 34  1  0  0  0  0
 42 45  1  0  0  0  0
 43 42  1  0  0  0  0
 43 46  1  0  0  0  0
 44 47  1  1  0  0  0
 44 39  1  0  0  0  0
 45 51  1  1  0  0  0
 45 44  1  0  0  0  0
 46 41  1  6  0  0  0
 46 47  1  0  0  0  0
 48 50  1  0  0  0  0
 48 49  1  0  0  0  0
 49 53  2  0  0  0  0
 50 52  1  0  0  0  0
 51 49  1  0  0  0  0
 52 53  1  0  0  0  0
M  END
>  <MODEL>
3

>  <REMARK>
 VINA RESULT:      -7.9      3.111      7.835
  Name = 
  14 active torsions:
  status: ('A' for Active; 'I' for Inactive)
    1  A    between atoms: C_3  and  C_35
    2  A    between atoms: C_4  and  C_24
    3  A    between atoms: C_5  and  C_24
    4  A    between atoms: C_5  and  C_26
    5  A    between atoms: N_6  and  N_10
    6  A    between atoms: S_9  and  N_10
    7  A    between atoms: S_9  and  C_31
    8  A    between atoms: C_13  and  C_28
    9  A    between atoms: C_17  and  C_51
   10  A    between atoms: N_19  and  C_30
   11  A    between atoms: N_27  and  C_33
   12  A    between atoms: C_33  and  C_40
   13  A    between atoms: C_40  and  C_47
   14  A    between atoms: N_46  and  C_47
                            x       y       z     vdW  Elec       q    Type
                         _______ _______ _______ _____ _____    ______ ____

>  <TORSDO>
F 14

$$$$
=
 OpenBabel11032420323D

 53 60  0  0  1  0  0  0  0  0999 V2000
  185.7890  177.1210  136.9440 C   0  0  0  0  0  0  0  0  0  0  0  0
  183.7920  177.5080  139.1540 C   0  0  0  0  0  0  0  0  0  0  0  0
  185.8720  178.1680  137.8210 C   0  0  0  0  0  0  0  0  0  0  0  0
  183.7060  176.4730  138.1490 C   0  0  0  0  0  0  0  0  0  0  0  0
  185.8650  179.2620  138.7340 C   0  0  0  0  0  2  0  0  0  0  0  0
  184.6470  176.3590  137.1280 N   0  0  0  0  0  0  0  0  0  0  0  0
  184.8790  178.3050  138.8660 C   0  0  0  0  0  0  0  0  0  0  0  0
  186.7590  176.0990  134.9750 N   0  0  0  0  0  0  0  0  0  0  0  0
  188.8490  175.8860  135.5120 N   0  0  0  0  0  0  0  0  0  0  0  0
  188.2250  176.4290  136.6310 C   0  0  0  0  0  3  0  0  0  0  0  0
  186.9130  176.5560  136.2490 C   0  0  0  0  0  0  0  0  0  0  0  0
  187.9680  175.7270  134.5980 N   0  0  0  0  0  0  0  0  0  0  0  0
  190.1700  176.1990  135.2330 N   0  0  0  0  0  2  0  0  0  0  0  0
  191.4830  175.0950  135.4140 S   0  0  0  0  0  0  0  0  0  0  0  0
  191.1240  173.7080  134.9300 O   0  0  0  0  0  0  0  0  0  0  0  0
  192.6840  175.6490  134.6910 O   0  0  0  0  0  0  0  0  0  0  0  0
  193.5480  174.2650  137.6460 N   0  0  0  0  0  0  0  0  0  0  0  0
  191.7680  175.0540  137.2080 C   0  0  2  0  0  3  0  0  0  0  0  0
  193.5180  176.7890  137.6930 O   0  0  0  0  0  0  0  0  0  0  0  0
  193.0860  175.6630  137.5070 C   0  0  0  0  0  0  0  0  0  0  0  0
  192.2510  173.8560  137.6560 O   0  0  0  0  0  0  0  0  0  0  0  0
  195.2540  173.4840  135.7930 S   0  0  0  0  0  0  0  0  0  0  0  0
  194.8220  173.6740  137.3540 C   0  0  0  0  0  0  0  0  0  0  0  0
  195.8070  173.4420  138.4490 C   0  0  0  0  0  2  0  0  0  0  0  0
  196.1510  174.7320  139.1980 C   0  0  0  0  0  2  0  0  0  0  0  0
  198.4830  174.9540  139.0910 C   0  0  0  0  0  1  0  0  0  0  0  0
  197.3730  175.6360  141.0030 C   0  0  0  0  0  1  0  0  0  0  0  0
  197.3850  174.6030  139.9760 N   0  0  0  0  0  0  0  0  0  0  0  0
  182.9320  175.2560  138.3980 C   0  0  2  0  0  3  0  0  0  0  0  0
  183.7300  174.1630  137.8560 C   0  0  0  0  0  2  0  0  0  0  0  0
  182.4860  174.5880  137.1930 N   0  0  0  0  0  2  0  0  0  0  0  0
  182.9980  177.7380  140.4380 C   0  0  0  0  0  2  0  0  0  0  0  0
  183.5230  178.8930  141.2990 C   0  0  0  0  0  2  0  0  0  0  0  0
  184.2470  178.5400  142.6010 C   0  0  2  0  0  3  0  0  0  0  0  0
  186.1690  177.1280  143.3430 C   0  0  0  0  0  2  0  0  0  0  0  0
  184.0730  179.5250  143.7480 C   0  0  0  0  0  2  0  0  0  0  0  0
  185.7010  178.5980  145.4710 C   0  0  0  0  0  2  0  0  0  0  0  0
  184.2380  178.6500  145.0030 C   0  0  0  0  0  2  0  0  0  0  0  0
  186.6060  177.5950  144.7140 C   0  0  2  0  0  3  0  0  0  0  0  0
  185.7150  178.1630  142.3190 C   0  0  0  0  0  2  0  0  0  0  0  0
  190.8670  176.7740  147.4920 N   0  0  0  0  0  1  0  0  0  0  0  0
  190.4110  178.7220  144.2480 C   0  0  0  0  0  2  0  0  0  0  0  0
  190.8170  178.3660  145.7070 C   0  0  0  0  0  2  0  0  0  0  0  0
  188.1320  177.8270  144.9440 C   0  0  2  0  0  3  0  0  0  0  0  0
  189.0890  178.1140  143.7540 C   0  0  2  0  0  3  0  0  0  0  0  0
  190.3030  177.0360  146.1580 C   0  0  2  0  0  3  0  0  0  0  0  0
  188.7200  176.9810  146.1050 C   0  0  0  0  0  2  0  0  0  0  0  0
  190.9330  176.6360  140.6560 S   0  0  0  0  0  0  0  0  0  0  0  0
  189.4730  177.1980  141.4930 C   0  0  0  0  0  0  0  0  0  0  0  0
  190.5170  177.7970  139.3340 C   0  0  0  0  0  2  0  0  0  0  0  0
  189.3380  176.9600  142.8890 N   0  0  0  0  0  2  0  0  0  0  0  0
  189.0330  178.1310  139.4350 C   0  0  0  0  0  2  0  0  0  0  0  0
  188.6470  177.9440  140.8290 N   0  0  0  0  0  0  0  0  0  0  0  0
  1  6  2  0  0  0  0
  1  3  1  0  0  0  0
  2 32  1  0  0  0  0
  3  5  1  0  0  0  0
  3  7  2  0  0  0  0
  4  2  2  0  0  0  0
  5  7  1  0  0  0  0
  6  4  1  0  0  0  0
  7  2  1  0  0  0  0
  8 11  1  0  0  0  0
  9 10  1  0  0  0  0
 11 10  2  0  0  0  0
 11  1  1  0  0  0  0
 12  8  2  0  0  0  0
 12  9  1  0  0  0  0
 13 14  1  0  0  0  0
 13  9  1  0  0  0  0
 15 14  2  0  0  0  0
 16 14  2  0  0  0  0
 17 21  1  0  0  0  0
 18 14  1  6  0  0  0
 18 20  1  0  0  0  0
 18 21  1  0  0  0  0
 20 17  1  0  0  0  0
 20 19  2  0  0  0  0
 22 23  2  0  0  0  0
 23 17  1  0  0  0  0
 23 24  1  0  0  0  0
 24 25  1  0  0  0  0
 25 28  1  0  0  0  0
 26 28  1  0  0  0  0
 28 27  1  0  0  0  0
 29  4  1  6  0  0  0
 30 29  1  0  0  0  0
 31 30  1  0  0  0  0
 31 29  1  0  0  0  0
 32 33  1  0  0  0  0
 34 33  1  6  0  0  0
 34 36  1  0  0  0  0
 36 38  1  0  0  0  0
 38 37  1  0  0  0  0
 39 35  1  6  0  0  0
 39 44  1  0  0  0  0
 39 37  1  0  0  0  0
 40 34  1  0  0  0  0
 40 35  1  0  0  0  0
 42 43  1  0  0  0  0
 43 46  1  0  0  0  0
 44 47  1  6  0  0  0
 45 51  1  1  0  0  0
 45 42  1  0  0  0  0
 45 44  1  0  0  0  0
 46 41  1  1  0  0  0
 47 46  1  0  0  0  0
 48 49  1  0  0  0  0
 49 51  1  0  0  0  0
 50 52  1  0  0  0  0
 50 48  1  0  0  0  0
 52 53  1  0  0  0  0
 53 49  2  0  0  0  0
M  END
>  <MODEL>
4

>  <REMARK>
 VINA RESULT:      -7.7      1.952      2.515
  Name = 
  14 active torsions:
  status: ('A' for Active; 'I' for Inactive)
    1  A    between atoms: C_3  and  C_35
    2  A    between atoms: C_4  and  C_24
    3  A    between atoms: C_5  and  C_24
    4  A    between atoms: C_5  and  C_26
    5  A    between atoms: N_6  and  N_10
    6  A    between atoms: S_9  and  N_10
    7  A    between atoms: S_9  and  C_31
    8  A    between atoms: C_13  and  C_28
    9  A    between atoms: C_17  and  C_51
   10  A    between atoms: N_19  and  C_30
   11  A    between atoms: N_27  and  C_33
   12  A    between atoms: C_33  and  C_40
   13  A    between atoms: C_40  and  C_47
   14  A    between atoms: N_46  and  C_47
                            x       y       z     vdW  Elec       q    Type
                         _______ _______ _______ _____ _____    ______ ____

>  <TORSDO>
F 14

$$$$
=
 OpenBabel11032420323D

 53 60  0  0  1  0  0  0  0  0999 V2000
  188.9610  177.2660  142.0440 C   0  0  0  0  0  0  0  0  0  0  0  0
  186.6100  177.8580  143.8180 C   0  0  0  0  0  0  0  0  0  0  0  0
  187.8810  177.9810  141.6020 C   0  0  0  0  0  0  0  0  0  0  0  0
  187.7360  177.0370  144.2020 C   0  0  0  0  0  0  0  0  0  0  0  0
  186.7020  178.6700  141.1940 C   0  0  0  0  0  2  0  0  0  0  0  0
  188.7860  176.7730  143.3260 N   0  0  0  0  0  0  0  0  0  0  0  0
  186.7750  178.2350  142.5020 C   0  0  0  0  0  0  0  0  0  0  0  0
  191.3400  177.5890  142.3480 N   0  0  0  0  0  0  0  0  0  0  0  0
  192.1220  177.4130  140.3340 N   0  0  0  0  0  0  0  0  0  0  0  0
  190.7410  177.2830  140.2160 C   0  0  0  0  0  3  0  0  0  0  0  0
  190.2880  177.3900  141.5070 C   0  0  0  0  0  0  0  0  0  0  0  0
  192.4060  177.5780  141.5700 N   0  0  0  0  0  0  0  0  0  0  0  0
  192.9600  176.7470  139.4540 N   0  0  0  0  0  2  0  0  0  0  0  0
  192.5930  176.4690  137.7920 S   0  0  0  0  0  0  0  0  0  0  0  0
  191.4050  177.2860  137.3320 O   0  0  0  0  0  0  0  0  0  0  0  0
  193.8230  176.7550  136.9700 O   0  0  0  0  0  0  0  0  0  0  0  0
  190.3860  174.4080  136.8880 N   0  0  0  0  0  0  0  0  0  0  0  0
  192.1690  174.7030  137.7330 C   0  0  2  0  0  3  0  0  0  0  0  0
  192.3280  174.0110  135.3250 O   0  0  0  0  0  0  0  0  0  0  0  0
  191.7630  174.3440  136.3530 C   0  0  0  0  0  0  0  0  0  0  0  0
  190.8950  174.4330  138.1480 O   0  0  0  0  0  0  0  0  0  0  0  0
  188.2000  173.6380  135.6310 S   0  0  0  0  0  0  0  0  0  0  0  0
  189.1600  174.7990  136.2530 C   0  0  0  0  0  0  0  0  0  0  0  0
  188.6820  176.2080  136.3540 C   0  0  0  0  0  2  0  0  0  0  0  0
  187.7330  176.4110  137.5380 C   0  0  0  0  0  2  0  0  0  0  0  0
  187.9850  178.5610  136.6380 C   0  0  0  0  0  1  0  0  0  0  0  0
  185.9850  177.9920  137.6510 C   0  0  0  0  0  1  0  0  0  0  0  0
  187.4290  177.8260  137.7600 N   0  0  0  0  0  0  0  0  0  0  0  0
  188.0580  176.8310  145.6150 C   0  0  2  0  0  3  0  0  0  0  0  0
  188.1830  178.1650  146.1890 C   0  0  0  0  0  2  0  0  0  0  0  0
  189.3700  177.3150  145.9930 N   0  0  0  0  0  2  0  0  0  0  0  0
  185.4430  178.4170  144.6290 C   0  0  0  0  0  2  0  0  0  0  0  0
  184.7180  179.5880  143.9550 C   0  0  0  0  0  2  0  0  0  0  0  0
  183.3610  179.3060  143.3030 C   0  0  2  0  0  3  0  0  0  0  0  0
  182.4130  179.0540  141.0060 C   0  0  0  0  0  2  0  0  0  0  0  0
  182.3260  178.6240  144.1850 C   0  0  0  0  0  2  0  0  0  0  0  0
  180.4620  178.1530  142.5180 C   0  0  0  0  0  2  0  0  0  0  0  0
  180.9840  179.1050  143.6040 C   0  0  0  0  0  2  0  0  0  0  0  0
  181.0810  178.3440  141.1120 C   0  0  2  0  0  3  0  0  0  0  0  0
  183.5510  178.6330  141.9280 C   0  0  0  0  0  2  0  0  0  0  0  0
  178.9350  173.7560  140.1700 N   0  0  0  0  0  1  0  0  0  0  0  0
  180.9690  176.0120  137.8680 C   0  0  0  0  0  2  0  0  0  0  0  0
  180.4860  174.7550  138.6460 C   0  0  0  0  0  2  0  0  0  0  0  0
  180.8210  177.1500  140.1410 C   0  0  2  0  0  3  0  0  0  0  0  0
  180.8100  177.3550  138.6000 C   0  0  2  0  0  3  0  0  0  0  0  0
  179.3780  175.0420  139.6090 C   0  0  2  0  0  3  0  0  0  0  0  0
  179.8200  176.1040  140.6990 C   0  0  0  0  0  2  0  0  0  0  0  0
  179.2770  179.6390  135.8420 S   0  0  0  0  0  0  0  0  0  0  0  0
  179.8770  179.3510  137.4860 C   0  0  0  0  0  0  0  0  0  0  0  0
  180.4430  181.0180  135.7510 C   0  0  0  0  0  2  0  0  0  0  0  0
  179.6480  178.0880  138.0990 N   0  0  0  0  0  2  0  0  0  0  0  0
  180.8130  181.4300  137.1700 C   0  0  0  0  0  2  0  0  0  0  0  0
  180.6420  180.2540  138.0160 N   0  0  0  0  0  0  0  0  0  0  0  0
  1  6  1  0  0  0  0
  2  4  1  0  0  0  0
  2 32  1  0  0  0  0
  3  1  2  0  0  0  0
  3  7  1  0  0  0  0
  5  3  1  0  0  0  0
  5  7  1  0  0  0  0
  6  4  2  0  0  0  0
  7  2  2  0  0  0  0
  9 12  1  0  0  0  0
 10  9  1  0  0  0  0
 10 11  2  0  0  0  0
 11  1  1  0  0  0  0
 11  8  1  0  0  0  0
 12  8  2  0  0  0  0
 13  9  1  0  0  0  0
 14 13  1  0  0  0  0
 15 14  2  0  0  0  0
 16 14  2  0  0  0  0
 17 21  1  0  0  0  0
 18 14  1  6  0  0  0
 18 21  1  0  0  0  0
 19 20  2  0  0  0  0
 20 17  1  0  0  0  0
 20 18  1  0  0  0  0
 22 23  2  0  0  0  0
 23 24  1  0  0  0  0
 23 17  1  0  0  0  0
 24 25  1  0  0  0  0
 25 28  1  0  0  0  0
 26 28  1  0  0  0  0
 27 28  1  0  0  0  0
 29  4  1  6  0  0  0
 29 31  1  0  0  0  0
 29 30  1  0  0  0  0
 31 30  1  0  0  0  0
 33 32  1  0  0  0  0
 34 33  1  1  0  0  0
 34 36  1  0  0  0  0
 35 40  1  0  0  0  0
 37 38  1  0  0  0  0
 38 36  1  0  0  0  0
 39 35  1  1  0  0  0
 39 37  1  0  0  0  0
 40 34  1  0  0  0  0
 42 45  1  0  0  0  0
 42 43  1  0  0  0  0
 43 46  1  0  0  0  0
 44 47  1  1  0  0  0
 44 39  1  0  0  0  0
 45 51  1  6  0  0  0
 45 44  1  0  0  0  0
 46 41  1  1  0  0  0
 46 47  1  0  0  0  0
 48 49  1  0  0  0  0
 49 53  2  0  0  0  0
 49 51  1  0  0  0  0
 50 48  1  0  0  0  0
 50 52  1  0  0  0  0
 52 53  1  0  0  0  0
M  END
>  <MODEL>
5

>  <REMARK>
 VINA RESULT:      -7.3      2.666      7.812
  Name = 
  14 active torsions:
  status: ('A' for Active; 'I' for Inactive)
    1  A    between atoms: C_3  and  C_35
    2  A    between atoms: C_4  and  C_24
    3  A    between atoms: C_5  and  C_24
    4  A    between atoms: C_5  and  C_26
    5  A    between atoms: N_6  and  N_10
    6  A    between atoms: S_9  and  N_10
    7  A    between atoms: S_9  and  C_31
    8  A    between atoms: C_13  and  C_28
    9  A    between atoms: C_17  and  C_51
   10  A    between atoms: N_19  and  C_30
   11  A    between atoms: N_27  and  C_33
   12  A    between atoms: C_33  and  C_40
   13  A    between atoms: C_40  and  C_47
   14  A    between atoms: N_46  and  C_47
                            x       y       z     vdW  Elec       q    Type
                         _______ _______ _______ _____ _____    ______ ____

>  <TORSDO>
F 14

$$$$
=
 OpenBabel11032420323D

 53 60  0  0  1  0  0  0  0  0999 V2000
  183.1400  178.4700  142.8920 C   0  0  0  0  0  0  0  0  0  0  0  0
  181.4990  178.9330  140.4200 C   0  0  0  0  0  0  0  0  0  0  0  0
  183.7100  178.5800  141.6530 C   0  0  0  0  0  0  0  0  0  0  0  0
  180.9450  178.7240  141.7390 C   0  0  0  0  0  0  0  0  0  0  0  0
  184.2300  178.6490  140.3280 C   0  0  0  0  0  2  0  0  0  0  0  0
  181.7560  178.4850  142.8460 N   0  0  0  0  0  0  0  0  0  0  0  0
  182.8690  178.8020  140.4960 C   0  0  0  0  0  0  0  0  0  0  0  0
  183.1720  178.5920  145.3100 N   0  0  0  0  0  0  0  0  0  0  0  0
  185.1850  179.2710  145.7410 N   0  0  0  0  0  0  0  0  0  0  0  0
  185.0900  179.2270  144.3530 C   0  0  0  0  0  3  0  0  0  0  0  0
  183.8110  178.7860  144.1230 C   0  0  0  0  0  0  0  0  0  0  0  0
  184.0660  178.8920  146.2330 N   0  0  0  0  0  0  0  0  0  0  0  0
  186.3990  179.0250  146.3630 N   0  0  0  0  0  2  0  0  0  0  0  0
  187.4530  177.7260  145.9440 S   0  0  0  0  0  0  0  0  0  0  0  0
  186.7180  176.6050  145.2430 O   0  0  0  0  0  0  0  0  0  0  0  0
  188.5810  178.2690  145.1040 O   0  0  0  0  0  0  0  0  0  0  0  0
  190.0220  176.7340  147.4790 N   0  0  0  0  0  0  0  0  0  0  0  0
  188.0680  177.1340  147.5480 C   0  0  2  0  0  3  0  0  0  0  0  0
  189.4810  178.9800  148.4970 O   0  0  0  0  0  0  0  0  0  0  0  0
  189.2650  177.9200  147.9330 C   0  0  0  0  0  0  0  0  0  0  0  0
  188.8620  176.0250  147.4530 O   0  0  0  0  0  0  0  0  0  0  0  0
  192.4140  175.6270  147.5190 S   0  0  0  0  0  0  0  0  0  0  0  0
  191.3140  176.6360  146.8640 C   0  0  0  0  0  0  0  0  0  0  0  0
  191.5630  177.2770  145.5410 C   0  0  0  0  0  2  0  0  0  0  0  0
  190.9820  176.4590  144.3850 C   0  0  0  0  0  2  0  0  0  0  0  0
  190.5400  176.3560  142.0850 C   0  0  0  0  0  1  0  0  0  0  0  0
  191.0430  178.4010  143.0450 C   0  0  0  0  0  1  0  0  0  0  0  0
  191.3900  176.9850  143.0810 N   0  0  0  0  0  0  0  0  0  0  0  0
  179.5980  179.1940  142.0640 C   0  0  2  0  0  3  0  0  0  0  0  0
  179.7460  180.0170  143.2590 C   0  0  0  0  0  2  0  0  0  0  0  0
  179.0940  178.6990  143.3280 N   0  0  0  0  0  2  0  0  0  0  0  0
  180.8470  179.3670  139.1080 C   0  0  0  0  0  2  0  0  0  0  0  0
  180.3370  178.2030  138.2490 C   0  0  0  0  0  2  0  0  0  0  0  0
  181.3790  177.2990  137.5840 C   0  0  2  0  0  3  0  0  0  0  0  0
  183.1990  177.4880  135.8840 C   0  0  0  0  0  2  0  0  0  0  0  0
  181.7340  176.0250  138.3360 C   0  0  0  0  0  2  0  0  0  0  0  0
  183.6670  175.1300  136.9450 C   0  0  0  0  0  2  0  0  0  0  0  0
  182.1580  175.0530  137.2200 C   0  0  0  0  0  2  0  0  0  0  0  0
  184.1180  176.2950  136.0310 C   0  0  2  0  0  3  0  0  0  0  0  0
  182.6030  178.1220  137.1360 C   0  0  0  0  0  2  0  0  0  0  0  0
  188.1570  178.6980  138.1430 N   0  0  0  0  0  1  0  0  0  0  0  0
  188.0480  176.1400  135.3210 C   0  0  0  0  0  2  0  0  0  0  0  0
  188.3620  177.4360  136.1210 C   0  0  0  0  0  2  0  0  0  0  0  0
  185.6550  176.5700  136.0730 C   0  0  2  0  0  3  0  0  0  0  0  0
  186.6750  175.5030  135.5890 C   0  0  2  0  0  3  0  0  0  0  0  0
  187.6710  177.4970  137.4460 C   0  0  2  0  0  3  0  0  0  0  0  0
  186.0960  177.4410  137.2790 C   0  0  0  0  0  2  0  0  0  0  0  0
  187.8690  171.8270  136.0820 S   0  0  0  0  0  0  0  0  0  0  0  0
  186.6010  173.0560  135.9100 C   0  0  0  0  0  0  0  0  0  0  0  0
  187.0830  170.9490  134.7100 C   0  0  0  0  0  2  0  0  0  0  0  0
  186.8020  174.3460  136.4750 N   0  0  0  0  0  2  0  0  0  0  0  0
  185.6410  171.4290  134.5940 C   0  0  0  0  0  2  0  0  0  0  0  0
  185.5950  172.7810  135.1400 N   0  0  0  0  0  0  0  0  0  0  0  0
  1 11  1  0  0  0  0
  2  7  2  0  0  0  0
  2  4  1  0  0  0  0
  3  1  2  0  0  0  0
  4  6  2  0  0  0  0
  5  7  1  0  0  0  0
  5  3  1  0  0  0  0
  6  1  1  0  0  0  0
  7  3  1  0  0  0  0
  8 12  2  0  0  0  0
  9 12  1  0  0  0  0
  9 13  1  0  0  0  0
 10  9  1  0  0  0  0
 11 10  2  0  0  0  0
 11  8  1  0  0  0  0
 14 13  1  0  0  0  0
 15 14  2  0  0  0  0
 16 14  2  0  0  0  0
 17 20  1  0  0  0  0
 18 14  1  6  0  0  0
 18 20  1  0  0  0  0
 20 19  2  0  0  0  0
 21 17  1  0  0  0  0
 21 18  1  0  0  0  0
 23 17  1  0  0  0  0
 23 22  2  0  0  0  0
 24 23  1  0  0  0  0
 25 24  1  0  0  0  0
 26 28  1  0  0  0  0
 27 28  1  0  0  0  0
 28 25  1  0  0  0  0
 29  4  1  1  0  0  0
 29 30  1  0  0  0  0
 29 31  1  0  0  0  0
 30 31  1  0  0  0  0
 32  2  1  0  0  0  0
 33 32  1  0  0  0  0
 34 33  1  1  0  0  0
 34 36  1  0  0  0  0
 35 40  1  0  0  0  0
 37 38  1  0  0  0  0
 38 36  1  0  0  0  0
 39 35  1  1  0  0  0
 39 44  1  0  0  0  0
 39 37  1  0  0  0  0
 40 34  1  0  0  0  0
 42 45  1  0  0  0  0
 42 43  1  0  0  0  0
 43 46  1  0  0  0  0
 44 47  1  1  0  0  0
 45 44  1  0  0  0  0
 45 51  1  1  0  0  0
 46 41  1  6  0  0  0
 47 46  1  0  0  0  0
 49 48  1  0  0  0  0
 49 51  1  0  0  0  0
 50 48  1  0  0  0  0
 52 50  1  0  0  0  0
 52 53  1  0  0  0  0
 53 49  2  0  0  0  0
M  END
>  <MODEL>
6

>  <REMARK>
 VINA RESULT:      -7.2      4.151      8.590
  Name = 
  14 active torsions:
  status: ('A' for Active; 'I' for Inactive)
    1  A    between atoms: C_3  and  C_35
    2  A    between atoms: C_4  and  C_24
    3  A    between atoms: C_5  and  C_24
    4  A    between atoms: C_5  and  C_26
    5  A    between atoms: N_6  and  N_10
    6  A    between atoms: S_9  and  N_10
    7  A    between atoms: S_9  and  C_31
    8  A    between atoms: C_13  and  C_28
    9  A    between atoms: C_17  and  C_51
   10  A    between atoms: N_19  and  C_30
   11  A    between atoms: N_27  and  C_33
   12  A    between atoms: C_33  and  C_40
   13  A    between atoms: C_40  and  C_47
   14  A    between atoms: N_46  and  C_47
                            x       y       z     vdW  Elec       q    Type
                         _______ _______ _______ _____ _____    ______ ____

>  <TORSDO>
F 14

$$$$
=
 OpenBabel11032420323D

 53 60  0  0  1  0  0  0  0  0999 V2000
  183.7510  178.4980  143.7750 C   0  0  0  0  0  0  0  0  0  0  0  0
  181.9900  179.0800  141.4120 C   0  0  0  0  0  0  0  0  0  0  0  0
  184.2430  178.5510  142.4990 C   0  0  0  0  0  0  0  0  0  0  0  0
  181.5120  178.9270  142.7670 C   0  0  0  0  0  0  0  0  0  0  0  0
  184.6760  178.5680  141.1410 C   0  0  0  0  0  2  0  0  0  0  0  0
  182.3730  178.6280  143.8210 N   0  0  0  0  0  0  0  0  0  0  0  0
  183.3470  178.8350  141.3980 C   0  0  0  0  0  0  0  0  0  0  0  0
  183.9700  178.5910  146.1840 N   0  0  0  0  0  0  0  0  0  0  0  0
  186.0420  179.1620  146.4670 N   0  0  0  0  0  0  0  0  0  0  0  0
  185.8410  179.1390  145.0900 C   0  0  0  0  0  3  0  0  0  0  0  0
  184.5280  178.7650  144.9540 C   0  0  0  0  0  0  0  0  0  0  0  0
  184.9450  178.8340  147.0390 N   0  0  0  0  0  0  0  0  0  0  0  0
  187.2850  178.8470  146.9940 N   0  0  0  0  0  2  0  0  0  0  0  0
  188.1770  177.4290  146.5850 S   0  0  0  0  0  0  0  0  0  0  0  0
  188.1340  176.3970  147.6900 O   0  0  0  0  0  0  0  0  0  0  0  0
  187.6470  176.8820  145.2840 O   0  0  0  0  0  0  0  0  0  0  0  0
  190.8770  176.9700  145.0250 N   0  0  0  0  0  0  0  0  0  0  0  0
  189.8800  178.0320  146.3880 C   0  0  2  0  0  3  0  0  0  0  0  0
  189.9830  179.1630  144.1480 O   0  0  0  0  0  0  0  0  0  0  0  0
  190.1550  178.2580  144.9490 C   0  0  0  0  0  0  0  0  0  0  0  0
  190.8140  177.0340  146.3810 O   0  0  0  0  0  0  0  0  0  0  0  0
  192.0590  174.7060  144.3700 S   0  0  0  0  0  0  0  0  0  0  0  0
  191.0480  175.9420  144.0380 C   0  0  0  0  0  0  0  0  0  0  0  0
  190.1610  175.8990  142.8410 C   0  0  0  0  0  2  0  0  0  0  0  0
  190.6460  176.8340  141.7300 C   0  0  0  0  0  2  0  0  0  0  0  0
  188.6870  177.9080  141.0200 C   0  0  0  0  0  1  0  0  0  0  0  0
  190.3710  177.5070  139.4850 C   0  0  0  0  0  1  0  0  0  0  0  0
  189.6830  176.9250  140.6310 N   0  0  0  0  0  0  0  0  0  0  0  0
  180.2340  179.5110  143.1760 C   0  0  2  0  0  3  0  0  0  0  0  0
  179.7070  178.6240  144.2070 C   0  0  0  0  0  2  0  0  0  0  0  0
  179.0870  178.6800  142.8730 N   0  0  0  0  0  2  0  0  0  0  0  0
  181.2900  179.5570  140.1410 C   0  0  0  0  0  2  0  0  0  0  0  0
  180.7930  178.4220  139.2380 C   0  0  0  0  0  2  0  0  0  0  0  0
  181.7040  177.9720  138.0920 C   0  0  2  0  0  3  0  0  0  0  0  0
  183.9160  176.8490  137.8000 C   0  0  0  0  0  2  0  0  0  0  0  0
  181.0300  177.7710  136.7430 C   0  0  0  0  0  2  0  0  0  0  0  0
  182.9190  176.7590  135.3710 C   0  0  0  0  0  2  0  0  0  0  0  0
  182.1570  178.0430  135.7320 C   0  0  0  0  0  2  0  0  0  0  0  0
  184.0030  176.3210  136.3850 C   0  0  2  0  0  3  0  0  0  0  0  0
  182.5820  176.7830  138.5350 C   0  0  0  0  0  2  0  0  0  0  0  0
  187.5200  172.6460  137.2070 N   0  0  0  0  0  1  0  0  0  0  0  0
  184.1630  172.4480  135.4150 C   0  0  0  0  0  2  0  0  0  0  0  0
  185.6850  172.3170  135.7080 C   0  0  0  0  0  2  0  0  0  0  0  0
  184.4870  174.8490  136.1940 C   0  0  2  0  0  3  0  0  0  0  0  0
  183.4720  173.6880  136.0020 C   0  0  2  0  0  3  0  0  0  0  0  0
  186.0980  172.9590  136.9950 C   0  0  2  0  0  3  0  0  0  0  0  0
  185.7700  174.5090  136.9990 C   0  0  0  0  0  2  0  0  0  0  0  0
  180.4090  171.8680  137.5790 S   0  0  0  0  0  0  0  0  0  0  0  0
  181.2970  173.3330  137.1160 C   0  0  0  0  0  0  0  0  0  0  0  0
  179.0090  172.5250  136.6420 C   0  0  0  0  0  2  0  0  0  0  0  0
  182.7160  173.3430  137.2060 N   0  0  0  0  0  2  0  0  0  0  0  0
  179.1940  174.0310  136.4920 C   0  0  0  0  0  2  0  0  0  0  0  0
  180.6270  174.2950  136.5640 N   0  0  0  0  0  0  0  0  0  0  0  0
  1  6  1  0  0  0  0
  1 11  1  0  0  0  0
  2  4  1  0  0  0  0
  3  1  2  0  0  0  0
  4  6  2  0  0  0  0
  5  7  1  0  0  0  0
  5  3  1  0  0  0  0
  7  2  2  0  0  0  0
  7  3  1  0  0  0  0
  8 12  2  0  0  0  0
  9 13  1  0  0  0  0
  9 12  1  0  0  0  0
 10  9  1  0  0  0  0
 11 10  2  0  0  0  0
 11  8  1  0  0  0  0
 14 13  1  0  0  0  0
 14 15  2  0  0  0  0
 16 14  2  0  0  0  0
 17 21  1  0  0  0  0
 18 14  1  6  0  0  0
 19 20  2  0  0  0  0
 20 17  1  0  0  0  0
 20 18  1  0  0  0  0
 21 18  1  0  0  0  0
 23 22  2  0  0  0  0
 23 17  1  0  0  0  0
 24 23  1  0  0  0  0
 25 24  1  0  0  0  0
 27 28  1  0  0  0  0
 28 26  1  0  0  0  0
 28 25  1  0  0  0  0
 29  4  1  6  0  0  0
 29 30  1  0  0  0  0
 31 29  1  0  0  0  0
 31 30  1  0  0  0  0
 32  2  1  0  0  0  0
 33 32  1  0  0  0  0
 34 40  1  0  0  0  0
 34 33  1  1  0  0  0
 35 40  1  0  0  0  0
 36 34  1  0  0  0  0
 37 38  1  0  0  0  0
 38 36  1  0  0  0  0
 39 37  1  1  0  0  0
 39 35  1  0  0  0  0
 42 43  1  0  0  0  0
 42 45  1  0  0  0  0
 43 46  1  0  0  0  0
 44 39  1  0  0  0  0
 44 47  1  1  0  0  0
 45 44  1  0  0  0  0
 45 51  1  1  0  0  0
 46 47  1  0  0  0  0
 46 41  1  6  0  0  0
 49 51  1  0  0  0  0
 49 48  1  0  0  0  0
 50 48  1  0  0  0  0
 52 53  1  0  0  0  0
 52 50  1  0  0  0  0
 53 49  2  0  0  0  0
M  END
>  <MODEL>
7

>  <REMARK>
 VINA RESULT:      -7.2      4.291      8.889
  Name = 
  14 active torsions:
  status: ('A' for Active; 'I' for Inactive)
    1  A    between atoms: C_3  and  C_35
    2  A    between atoms: C_4  and  C_24
    3  A    between atoms: C_5  and  C_24
    4  A    between atoms: C_5  and  C_26
    5  A    between atoms: N_6  and  N_10
    6  A    between atoms: S_9  and  N_10
    7  A    between atoms: S_9  and  C_31
    8  A    between atoms: C_13  and  C_28
    9  A    between atoms: C_17  and  C_51
   10  A    between atoms: N_19  and  C_30
   11  A    between atoms: N_27  and  C_33
   12  A    between atoms: C_33  and  C_40
   13  A    between atoms: C_40  and  C_47
   14  A    between atoms: N_46  and  C_47
                            x       y       z     vdW  Elec       q    Type
                         _______ _______ _______ _____ _____    ______ ____

>  <TORSDO>
F 14

$$$$
=
 OpenBabel11032420323D

 53 60  0  0  1  0  0  0  0  0999 V2000
  190.3740  176.7010  140.2680 C   0  0  0  0  0  0  0  0  0  0  0  0
  189.6900  177.4250  137.4340 C   0  0  0  0  0  0  0  0  0  0  0  0
  191.1830  176.3620  139.2170 C   0  0  0  0  0  0  0  0  0  0  0  0
  188.8340  177.6810  138.5710 C   0  0  0  0  0  0  0  0  0  0  0  0
  191.9480  175.9950  138.0720 C   0  0  0  0  0  2  0  0  0  0  0  0
  189.1920  177.2960  139.8610 N   0  0  0  0  0  0  0  0  0  0  0  0
  190.8010  176.7370  137.8710 C   0  0  0  0  0  0  0  0  0  0  0  0
  191.3490  178.0930  141.9910 N   0  0  0  0  0  0  0  0  0  0  0  0
  191.3130  176.8110  143.7380 N   0  0  0  0  0  0  0  0  0  0  0  0
  190.8040  176.0430  142.6950 C   0  0  0  0  0  3  0  0  0  0  0  0
  190.8350  176.8900  141.6160 C   0  0  0  0  0  0  0  0  0  0  0  0
  191.5990  177.9710  143.2810 N   0  0  0  0  0  0  0  0  0  0  0  0
  190.8670  176.6050  145.0340 N   0  0  0  0  0  2  0  0  0  0  0  0
  189.3420  177.1480  145.6290 S   0  0  0  0  0  0  0  0  0  0  0  0
  188.9810  176.4890  146.9420 O   0  0  0  0  0  0  0  0  0  0  0  0
  189.3750  178.6510  145.7470 O   0  0  0  0  0  0  0  0  0  0  0  0
  186.4440  177.6230  144.4840 N   0  0  0  0  0  0  0  0  0  0  0  0
  188.1660  176.6250  144.3460 C   0  0  2  0  0  3  0  0  0  0  0  0
  188.0000  178.5230  142.7110 O   0  0  0  0  0  0  0  0  0  0  0  0
  187.6450  177.8220  143.6440 C   0  0  0  0  0  0  0  0  0  0  0  0
  186.9070  176.3910  144.8240 O   0  0  0  0  0  0  0  0  0  0  0  0
  185.6940  178.9990  146.6040 S   0  0  0  0  0  0  0  0  0  0  0  0
  185.5280  178.5790  145.0370 C   0  0  0  0  0  0  0  0  0  0  0  0
  184.5950  179.3240  144.1450 C   0  0  0  0  0  2  0  0  0  0  0  0
  183.1310  179.1240  144.5450 C   0  0  0  0  0  2  0  0  0  0  0  0
  182.7900  178.6280  142.2790 C   0  0  0  0  0  1  0  0  0  0  0  0
  180.9760  178.6340  143.7160 C   0  0  0  0  0  1  0  0  0  0  0  0
  182.2210  179.3310  143.4170 N   0  0  0  0  0  0  0  0  0  0  0  0
  187.8100  178.7240  138.5110 C   0  0  2  0  0  3  0  0  0  0  0  0
  186.7160  178.2510  139.3510 C   0  0  0  0  0  2  0  0  0  0  0  0
  186.5750  178.2980  137.8860 N   0  0  0  0  0  2  0  0  0  0  0  0
  189.6010  177.8830  135.9800 C   0  0  0  0  0  2  0  0  0  0  0  0
  189.3160  176.7520  134.9850 C   0  0  0  0  0  2  0  0  0  0  0  0
  188.6070  175.5010  135.5120 C   0  0  2  0  0  3  0  0  0  0  0  0
  186.5210  174.9240  136.7580 C   0  0  0  0  0  2  0  0  0  0  0  0
  188.9910  174.1870  134.8460 C   0  0  0  0  0  2  0  0  0  0  0  0
  187.3200  172.5770  135.8890 C   0  0  0  0  0  2  0  0  0  0  0  0
  188.7480  173.1400  135.9480 C   0  0  0  0  0  2  0  0  0  0  0  0
  186.2300  173.4540  136.5530 C   0  0  2  0  0  3  0  0  0  0  0  0
  187.0860  175.7360  135.5980 C   0  0  0  0  0  2  0  0  0  0  0  0
  182.6840  169.8150  135.7010 N   0  0  0  0  0  1  0  0  0  0  0  0
  182.3550  173.6100  135.5930 C   0  0  0  0  0  2  0  0  0  0  0  0
  182.2780  172.1140  135.1760 C   0  0  0  0  0  2  0  0  0  0  0  0
  184.7730  173.0550  136.1590 C   0  0  2  0  0  3  0  0  0  0  0  0
  183.5780  174.0090  136.4330 C   0  0  2  0  0  3  0  0  0  0  0  0
  182.9460  171.1920  136.1470 C   0  0  2  0  0  3  0  0  0  0  0  0
  184.4850  171.5380  136.3050 C   0  0  0  0  0  2  0  0  0  0  0  0
  181.2910  175.6370  139.1350 S   0  0  0  0  0  0  0  0  0  0  0  0
  182.8540  175.4250  138.3220 C   0  0  0  0  0  0  0  0  0  0  0  0
  181.4590  177.4080  138.8070 C   0  0  0  0  0  2  0  0  0  0  0  0
  183.2200  174.1360  137.8460 N   0  0  0  0  0  2  0  0  0  0  0  0
  182.9310  177.7140  138.5570 C   0  0  0  0  0  2  0  0  0  0  0  0
  183.5430  176.4900  138.0530 N   0  0  0  0  0  0  0  0  0  0  0  0
  1 11  1  0  0  0  0
  2  7  2  0  0  0  0
  2  4  1  0  0  0  0
  3  1  2  0  0  0  0
  4  6  2  0  0  0  0
  5  3  1  0  0  0  0
  6  1  1  0  0  0  0
  7  5  1  0  0  0  0
  7  3  1  0  0  0  0
  8 12  2  0  0  0  0
  9 13  1  0  0  0  0
 10  9  1  0  0  0  0
 11  8  1  0  0  0  0
 11 10  2  0  0  0  0
 12  9  1  0  0  0  0
 13 14  1  0  0  0  0
 14 16  2  0  0  0  0
 14 15  2  0  0  0  0
 17 21  1  0  0  0  0
 17 23  1  0  0  0  0
 18 21  1  0  0  0  0
 18 14  1  1  0  0  0
 19 20  2  0  0  0  0
 20 18  1  0  0  0  0
 20 17  1  0  0  0  0
 23 22  2  0  0  0  0
 24 25  1  0  0  0  0
 24 23  1  0  0  0  0
 26 28  1  0  0  0  0
 28 27  1  0  0  0  0
 28 25  1  0  0  0  0
 29  4  1  6  0  0  0
 29 30  1  0  0  0  0
 31 29  1  0  0  0  0
 31 30  1  0  0  0  0
 32  2  1  0  0  0  0
 33 32  1  0  0  0  0
 34 33  1  6  0  0  0
 34 40  1  0  0  0  0
 36 34  1  0  0  0  0
 36 38  1  0  0  0  0
 37 38  1  0  0  0  0
 39 37  1  6  0  0  0
 39 35  1  0  0  0  0
 40 35  1  0  0  0  0
 42 45  1  0  0  0  0
 43 42  1  0  0  0  0
 43 46  1  0  0  0  0
 44 47  1  1  0  0  0
 44 45  1  0  0  0  0
 44 39  1  0  0  0  0
 45 51  1  1  0  0  0
 46 41  1  6  0  0  0
 46 47  1  0  0  0  0
 49 48  1  0  0  0  0
 50 48  1  0  0  0  0
 51 49  1  0  0  0  0
 52 50  1  0  0  0  0
 53 49  2  0  0  0  0
 53 52  1  0  0  0  0
M  END
>  <MODEL>
8

>  <REMARK>
 VINA RESULT:      -7.2      3.921     10.319
  Name = 
  14 active torsions:
  status: ('A' for Active; 'I' for Inactive)
    1  A    between atoms: C_3  and  C_35
    2  A    between atoms: C_4  and  C_24
    3  A    between atoms: C_5  and  C_24
    4  A    between atoms: C_5  and  C_26
    5  A    between atoms: N_6  and  N_10
    6  A    between atoms: S_9  and  N_10
    7  A    between atoms: S_9  and  C_31
    8  A    between atoms: C_13  and  C_28
    9  A    between atoms: C_17  and  C_51
   10  A    between atoms: N_19  and  C_30
   11  A    between atoms: N_27  and  C_33
   12  A    between atoms: C_33  and  C_40
   13  A    between atoms: C_40  and  C_47
   14  A    between atoms: N_46  and  C_47
                            x       y       z     vdW  Elec       q    Type
                         _______ _______ _______ _____ _____    ______ ____

>  <TORSDO>
F 14

$$$$
=
 OpenBabel11032420323D

 53 60  0  0  1  0  0  0  0  0999 V2000
  183.6600  178.5780  143.7130 C   0  0  0  0  0  0  0  0  0  0  0  0
  181.8180  179.1640  141.4130 C   0  0  0  0  0  0  0  0  0  0  0  0
  184.1150  178.6740  142.4260 C   0  0  0  0  0  0  0  0  0  0  0  0
  181.3830  178.9680  142.7780 C   0  0  0  0  0  0  0  0  0  0  0  0
  184.5090  178.7330  141.0580 C   0  0  0  0  0  2  0  0  0  0  0  0
  182.2810  178.6700  143.8000 N   0  0  0  0  0  0  0  0  0  0  0  0
  183.1800  178.9570  141.3570 C   0  0  0  0  0  0  0  0  0  0  0  0
  183.9530  178.6000  146.1160 N   0  0  0  0  0  0  0  0  0  0  0  0
  186.0060  179.2530  146.3550 N   0  0  0  0  0  0  0  0  0  0  0  0
  185.7620  179.2670  144.9850 C   0  0  0  0  0  3  0  0  0  0  0  0
  184.4620  178.8400  144.8760 C   0  0  0  0  0  0  0  0  0  0  0  0
  184.9440  178.8580  146.9480 N   0  0  0  0  0  0  0  0  0  0  0  0
  187.2780  178.9770  146.8310 N   0  0  0  0  0  2  0  0  0  0  0  0
  188.1300  177.5100  146.5180 S   0  0  0  0  0  0  0  0  0  0  0  0
  187.9810  176.5180  147.6510 O   0  0  0  0  0  0  0  0  0  0  0  0
  187.6510  176.9420  145.2070 O   0  0  0  0  0  0  0  0  0  0  0  0
  190.8680  176.9500  145.0600 N   0  0  0  0  0  0  0  0  0  0  0  0
  189.8650  178.0360  146.4010 C   0  0  2  0  0  3  0  0  0  0  0  0
  190.1120  179.1960  144.1880 O   0  0  0  0  0  0  0  0  0  0  0  0
  190.2090  178.2720  144.9780 C   0  0  0  0  0  0  0  0  0  0  0  0
  190.7530  176.9960  146.4130 O   0  0  0  0  0  0  0  0  0  0  0  0
  192.0530  174.6980  144.3710 S   0  0  0  0  0  0  0  0  0  0  0  0
  191.0310  175.9310  144.0630 C   0  0  0  0  0  0  0  0  0  0  0  0
  190.1280  175.8930  142.8770 C   0  0  0  0  0  2  0  0  0  0  0  0
  190.5590  176.8820  141.7910 C   0  0  0  0  0  2  0  0  0  0  0  0
  188.6420  178.0530  141.1200 C   0  0  0  0  0  1  0  0  0  0  0  0
  190.2360  177.4990  139.5370 C   0  0  0  0  0  1  0  0  0  0  0  0
  189.5610  176.9980  140.7270 N   0  0  0  0  0  0  0  0  0  0  0  0
  180.1010  179.5070  143.2350 C   0  0  2  0  0  3  0  0  0  0  0  0
  179.6560  178.6150  144.2990 C   0  0  0  0  0  2  0  0  0  0  0  0
  178.9760  178.6270  142.9920 N   0  0  0  0  0  2  0  0  0  0  0  0
  181.0700  179.6510  140.1740 C   0  0  0  0  0  2  0  0  0  0  0  0
  181.9080  179.6320  138.8910 C   0  0  0  0  0  2  0  0  0  0  0  0
  181.8650  178.3670  138.0290 C   0  0  2  0  0  3  0  0  0  0  0  0
  183.3630  177.1240  136.4640 C   0  0  0  0  0  2  0  0  0  0  0  0
  180.8360  177.3210  138.4320 C   0  0  0  0  0  2  0  0  0  0  0  0
  181.4340  175.3910  136.8850 C   0  0  0  0  0  2  0  0  0  0  0  0
  180.5160  176.6010  137.1090 C   0  0  0  0  0  2  0  0  0  0  0  0
  182.8350  175.7150  136.3110 C   0  0  2  0  0  3  0  0  0  0  0  0
  183.2850  177.8000  137.8280 C   0  0  0  0  0  2  0  0  0  0  0  0
  184.1650  170.8300  135.3500 N   0  0  0  0  0  1  0  0  0  0  0  0
  186.1120  173.5790  137.1320 C   0  0  0  0  0  2  0  0  0  0  0  0
  185.4360  172.2110  136.8350 C   0  0  0  0  0  2  0  0  0  0  0  0
  183.8580  174.5430  136.4450 C   0  0  2  0  0  3  0  0  0  0  0  0
  185.3800  174.8190  136.5920 C   0  0  2  0  0  3  0  0  0  0  0  0
  184.6310  172.2080  135.5740 C   0  0  2  0  0  3  0  0  0  0  0  0
  183.4670  173.2830  135.6290 C   0  0  0  0  0  2  0  0  0  0  0  0
  188.6550  175.9240  134.7940 S   0  0  0  0  0  0  0  0  0  0  0  0
  187.0730  176.2630  135.5210 C   0  0  0  0  0  0  0  0  0  0  0  0
  189.3390  177.1720  135.9090 C   0  0  0  0  0  2  0  0  0  0  0  0
  186.0230  175.3150  135.3750 N   0  0  0  0  0  2  0  0  0  0  0  0
  188.2040  178.0800  136.3700 C   0  0  0  0  0  2  0  0  0  0  0  0
  186.9740  177.2980  136.2950 N   0  0  0  0  0  0  0  0  0  0  0  0
  1  6  1  0  0  0  0
  1 11  1  0  0  0  0
  2  4  1  0  0  0  0
  3  1  2  0  0  0  0
  4  6  2  0  0  0  0
  5  7  1  0  0  0  0
  5  3  1  0  0  0  0
  7  2  2  0  0  0  0
  7  3  1  0  0  0  0
  8 12  2  0  0  0  0
  9 13  1  0  0  0  0
  9 12  1  0  0  0  0
 10  9  1  0  0  0  0
 11 10  2  0  0  0  0
 11  8  1  0  0  0  0
 14 13  1  0  0  0  0
 14 15  2  0  0  0  0
 16 14  2  0  0  0  0
 17 21  1  0  0  0  0
 18 21  1  0  0  0  0
 18 14  1  6  0  0  0
 19 20  2  0  0  0  0
 20 17  1  0  0  0  0
 20 18  1  0  0  0  0
 23 22  2  0  0  0  0
 23 17  1  0  0  0  0
 24 23  1  0  0  0  0
 25 24  1  0  0  0  0
 27 28  1  0  0  0  0
 28 26  1  0  0  0  0
 28 25  1  0  0  0  0
 29  4  1  6  0  0  0
 29 30  1  0  0  0  0
 31 29  1  0  0  0  0
 31 30  1  0  0  0  0
 32  2  1  0  0  0  0
 33 32  1  0  0  0  0
 34 36  1  0  0  0  0
 34 33  1  1  0  0  0
 35 40  1  0  0  0  0
 37 38  1  0  0  0  0
 38 36  1  0  0  0  0
 39 44  1  0  0  0  0
 39 35  1  1  0  0  0
 39 37  1  0  0  0  0
 40 34  1  0  0  0  0
 43 42  1  0  0  0  0
 44 47  1  6  0  0  0
 44 45  1  0  0  0  0
 45 51  1  6  0  0  0
 45 42  1  0  0  0  0
 46 41  1  1  0  0  0
 46 47  1  0  0  0  0
 46 43  1  0  0  0  0
 48 49  1  0  0  0  0
 48 50  1  0  0  0  0
 49 53  2  0  0  0  0
 50 52  1  0  0  0  0
 51 49  1  0  0  0  0
 53 52  1  0  0  0  0
M  END
>  <MODEL>
9

>  <REMARK>
 VINA RESULT:      -7.1      3.925      8.440
  Name = 
  14 active torsions:
  status: ('A' for Active; 'I' for Inactive)
    1  A    between atoms: C_3  and  C_35
    2  A    between atoms: C_4  and  C_24
    3  A    between atoms: C_5  and  C_24
    4  A    between atoms: C_5  and  C_26
    5  A    between atoms: N_6  and  N_10
    6  A    between atoms: S_9  and  N_10
    7  A    between atoms: S_9  and  C_31
    8  A    between atoms: C_13  and  C_28
    9  A    between atoms: C_17  and  C_51
   10  A    between atoms: N_19  and  C_30
   11  A    between atoms: N_27  and  C_33
   12  A    between atoms: C_33  and  C_40
   13  A    between atoms: C_40  and  C_47
   14  A    between atoms: N_46  and  C_47
                            x       y       z     vdW  Elec       q    Type
                         _______ _______ _______ _____ _____    ______ ____

>  <TORSDO>
F 14

$$$$
