=
 OpenBabel11042410353D

 38 40  0  0  1  0  0  0  0  0999 V2000
  187.8850  177.9950  144.7930 C   0  0  2  0  0  3  0  0  0  0  0  0
  183.2300  178.3970  140.8230 C   0  0  0  0  0  3  0  0  0  0  0  0
  183.4240  178.8530  144.9860 N   0  0  0  0  0  0  0  0  0  0  0  0
  182.2260  178.9300  142.8860 C   0  0  0  0  0  0  0  0  0  0  0  0
  182.1480  178.7760  141.5410 N   0  0  0  0  0  0  0  0  0  0  0  0
  184.3470  178.7910  145.8930 C   0  0  0  0  0  3  0  0  0  0  0  0
  184.4080  178.1670  141.4520 N   0  0  0  0  0  0  0  0  0  0  0  0
  183.4360  178.7030  143.5640 C   0  0  0  0  0  0  0  0  0  0  0  0
  184.5490  178.3080  142.7970 C   0  0  0  0  0  0  0  0  0  0  0  0
  186.4120  178.2260  144.6280 C   0  0  0  0  0  0  0  0  0  0  0  0
  181.0580  179.3160  143.6070 N   0  0  0  0  0  1  0  0  0  0  0  0
  185.7360  178.5380  145.6850 N   0  0  0  0  0  0  0  0  0  0  0  0
  185.8410  178.0390  143.3340 N   0  0  0  0  0  2  0  0  0  0  0  0
  190.3450  177.2300  141.9920 C   0  0  1  0  0  3  0  0  0  0  0  0
  189.5410  178.2210  142.8110 C   0  0  2  0  0  3  0  0  0  0  0  0
  190.1460  175.8590  142.6360 C   0  0  0  0  0  2  0  0  0  0  0  0
  190.4870  178.9250  143.7770 C   0  0  0  0  0  1  0  0  0  0  0  0
  189.1820  176.0440  143.7920 C   0  0  0  0  0  2  0  0  0  0  0  0
  188.4950  177.3680  143.5290 C   0  0  1  0  0  3  0  0  0  0  0  0
  189.8490  177.2120  140.6590 O   0  0  0  0  0  0  0  0  0  0  0  0
  191.9350  177.1090  139.6730 O   0  0  0  0  0  0  0  0  0  0  0  0
  190.6900  177.2800  139.5470 C   0  0  0  0  0  0  0  0  0  0  0  0
  190.1350  177.5440  138.2930 O   0  0  0  0  0  0  0  0  0  0  0  0
  188.9020  178.2400  138.1330 C   0  0  0  0  0  2  0  0  0  0  0  0
  187.9690  177.4820  137.1990 C   0  0  0  0  0  2  0  0  0  0  0  0
  186.5480  177.6370  137.6330 C   0  0  0  0  0  0  0  0  0  0  0  0
  185.5550  176.6870  137.2250 N   0  0  0  0  0  0  0  0  0  0  0  0
  186.2300  178.6250  138.3470 O   0  0  0  0  0  0  0  0  0  0  0  0
  185.9040  175.6400  136.4380 O   0  0  0  0  0  1  0  0  0  0  0  0
  183.5720  175.5480  138.0870 C   0  0  0  0  0  1  0  0  0  0  0  0
  184.1610  176.8650  137.6150 C   0  0  0  0  0  3  0  0  0  0  0  0
  183.3540  177.4030  136.4480 C   0  0  0  0  0  1  0  0  0  0  0  0
  188.1420  177.1120  146.0140 C   0  0  0  0  0  2  0  0  0  0  0  0
  188.4800  178.3130  148.0380 O   0  0  0  0  0  1  0  0  0  0  0  0
  189.1540  177.7500  146.9540 C   0  0  1  0  0  3  0  0  0  0  0  0
  190.1390  176.7040  147.4500 C   0  0  0  0  0  2  0  0  0  0  0  0
  191.4120  176.7520  146.6280 C   0  0  0  0  0  2  0  0  0  0  0  0
  192.4620  176.0330  147.3240 N   0  0  0  0  0  1  0  0  0  0  0  0
  1 33  1  1  0  0  0
  2  7  1  0  0  0  0
  2  5  2  0  0  0  0
  3  6  2  0  0  0  0
  4  8  2  0  0  0  0
  4 11  1  0  0  0  0
  5  4  1  0  0  0  0
  7  9  2  0  0  0  0
  8  3  1  0  0  0  0
  9 13  1  0  0  0  0
  9  8  1  0  0  0  0
 10  1  1  0  0  0  0
 10 12  2  0  0  0  0
 12  6  1  0  0  0  0
 13 10  1  0  0  0  0
 14 20  1  6  0  0  0
 14 16  1  0  0  0  0
 14 15  1  0  0  0  0
 15 19  1  0  0  0  0
 15 17  1  1  0  0  0
 16 18  1  0  0  0  0
 19 18  1  0  0  0  0
 19  1  1  1  0  0  0
 22 21  2  0  0  0  0
 22 20  1  0  0  0  0
 23 22  1  0  0  0  0
 24 23  1  0  0  0  0
 25 26  1  0  0  0  0
 25 24  1  0  0  0  0
 26 28  2  0  0  0  0
 27 31  1  0  0  0  0
 27 26  1  0  0  0  0
 29 27  1  0  0  0  0
 31 30  1  0  0  0  0
 32 31  1  0  0  0  0
 33 35  1  0  0  0  0
 35 36  1  0  0  0  0
 35 34  1  1  0  0  0
 37 38  1  0  0  0  0
 37 36  1  0  0  0  0
M  END
>  <MODEL>
1

>  <REMARK>
 VINA RESULT:      -7.9      0.000      0.000
  Name = 
  13 active torsions:
  status: ('A' for Active; 'I' for Inactive)
    1  A    between atoms: C_1  and  C_7
    2  A    between atoms: C_3  and  C_18
    3  A    between atoms: C_4  and  O_29
    4  A    between atoms: C_7  and  C_31
    5  A    between atoms: C_10  and  C_19
    6  A    between atoms: C_10  and  C_31
    7  A    between atoms: C_17  and  C_18
    8  A    between atoms: C_17  and  O_26
    9  A    between atoms: C_19  and  C_30
   10  A    between atoms: C_19  and  C_38
   11  A    between atoms: N_21  and  C_24
   12  A    between atoms: O_26  and  C_33
   13  A    between atoms: O_29  and  C_33
                            x       y       z     vdW  Elec       q    Type
                         _______ _______ _______ _____ _____    ______ ____

>  <TORSDO>
F 13

$$$$
=
 OpenBabel11042410353D

 38 40  0  0  1  0  0  0  0  0999 V2000
  186.9960  178.0780  143.5540 C   0  0  2  0  0  3  0  0  0  0  0  0
  180.9120  178.8210  143.4640 C   0  0  0  0  0  3  0  0  0  0  0  0
  183.8110  178.9890  140.4400 N   0  0  0  0  0  0  0  0  0  0  0  0
  181.5130  179.0340  141.1960 C   0  0  0  0  0  0  0  0  0  0  0  0
  180.5670  178.9910  142.1670 N   0  0  0  0  0  0  0  0  0  0  0  0
  185.0960  178.8440  140.3660 C   0  0  0  0  0  3  0  0  0  0  0  0
  182.2170  178.6900  143.8020 N   0  0  0  0  0  0  0  0  0  0  0  0
  182.8750  178.8970  141.5180 C   0  0  0  0  0  0  0  0  0  0  0  0
  183.2100  178.7210  142.8740 C   0  0  0  0  0  0  0  0  0  0  0  0
  185.7980  178.3900  142.7080 C   0  0  0  0  0  0  0  0  0  0  0  0
  181.1090  179.2300  139.8440 N   0  0  0  0  0  1  0  0  0  0  0  0
  185.9850  178.5240  141.4360 N   0  0  0  0  0  0  0  0  0  0  0  0
  184.5410  178.5700  143.3600 N   0  0  0  0  0  2  0  0  0  0  0  0
  190.3130  176.7330  142.2590 C   0  0  1  0  0  3  0  0  0  0  0  0
  189.3580  177.8860  142.5010 C   0  0  2  0  0  3  0  0  0  0  0  0
  189.6960  175.5020  142.9190 C   0  0  0  0  0  2  0  0  0  0  0  0
  189.8730  178.6950  143.6860 C   0  0  0  0  0  1  0  0  0  0  0  0
  188.3580  175.9250  143.4940 C   0  0  0  0  0  2  0  0  0  0  0  0
  188.0130  177.2180  142.7840 C   0  0  1  0  0  3  0  0  0  0  0  0
  190.4400  176.5150  140.8590 O   0  0  0  0  0  0  0  0  0  0  0  0
  192.4710  177.5090  140.3870 O   0  0  0  0  0  0  0  0  0  0  0  0
  191.2710  177.2950  140.0530 C   0  0  0  0  0  0  0  0  0  0  0  0
  190.7550  177.8380  138.8750 O   0  0  0  0  0  0  0  0  0  0  0  0
  189.3620  178.0610  138.6800 C   0  0  0  0  0  2  0  0  0  0  0  0
  188.9660  177.7910  137.2360 C   0  0  0  0  0  2  0  0  0  0  0  0
  187.5160  178.0800  137.0220 C   0  0  0  0  0  0  0  0  0  0  0  0
  186.5590  177.0140  136.9910 N   0  0  0  0  0  0  0  0  0  0  0  0
  187.1480  179.2730  136.8520 O   0  0  0  0  0  0  0  0  0  0  0  0
  186.9690  175.7320  137.1530 O   0  0  0  0  0  1  0  0  0  0  0  0
  184.2720  176.4330  137.6270 C   0  0  0  0  0  1  0  0  0  0  0  0
  185.1500  177.2960  136.7390 C   0  0  0  0  0  3  0  0  0  0  0  0
  184.8160  177.0440  135.2810 C   0  0  0  0  0  1  0  0  0  0  0  0
  186.5610  177.3810  144.8420 C   0  0  0  0  0  2  0  0  0  0  0  0
  185.8250  178.3700  146.8750 O   0  0  0  0  0  1  0  0  0  0  0  0
  186.9500  178.1910  146.0690 C   0  0  1  0  0  3  0  0  0  0  0  0
  188.0330  177.4690  146.8520 C   0  0  0  0  0  2  0  0  0  0  0  0
  187.9640  177.8520  148.3170 C   0  0  0  0  0  2  0  0  0  0  0  0
  189.2550  178.3560  148.7460 N   0  0  0  0  0  1  0  0  0  0  0  0
  1 33  1  1  0  0  0
  2  7  1  0  0  0  0
  3  8  1  0  0  0  0
  4  8  2  0  0  0  0
  4  5  1  0  0  0  0
  5  2  2  0  0  0  0
  6  3  2  0  0  0  0
  6 12  1  0  0  0  0
  8  9  1  0  0  0  0
  9 13  1  0  0  0  0
  9  7  2  0  0  0  0
 10 13  1  0  0  0  0
 10  1  1  0  0  0  0
 11  4  1  0  0  0  0
 12 10  2  0  0  0  0
 14 20  1  6  0  0  0
 14 15  1  0  0  0  0
 14 16  1  0  0  0  0
 15 19  1  0  0  0  0
 15 17  1  1  0  0  0
 16 18  1  0  0  0  0
 19 18  1  0  0  0  0
 19  1  1  1  0  0  0
 22 21  2  0  0  0  0
 22 20  1  0  0  0  0
 23 22  1  0  0  0  0
 24 23  1  0  0  0  0
 25 24  1  0  0  0  0
 26 25  1  0  0  0  0
 27 26  1  0  0  0  0
 27 29  1  0  0  0  0
 28 26  2  0  0  0  0
 31 27  1  0  0  0  0
 31 30  1  0  0  0  0
 32 31  1  0  0  0  0
 33 35  1  0  0  0  0
 35 36  1  0  0  0  0
 35 34  1  1  0  0  0
 36 37  1  0  0  0  0
 37 38  1  0  0  0  0
M  END
>  <MODEL>
2

>  <REMARK>
 VINA RESULT:      -7.5      1.608      2.343
  Name = 
  13 active torsions:
  status: ('A' for Active; 'I' for Inactive)
    1  A    between atoms: C_1  and  C_7
    2  A    between atoms: C_3  and  C_18
    3  A    between atoms: C_4  and  O_29
    4  A    between atoms: C_7  and  C_31
    5  A    between atoms: C_10  and  C_19
    6  A    between atoms: C_10  and  C_31
    7  A    between atoms: C_17  and  C_18
    8  A    between atoms: C_17  and  O_26
    9  A    between atoms: C_19  and  C_30
   10  A    between atoms: C_19  and  C_38
   11  A    between atoms: N_21  and  C_24
   12  A    between atoms: O_26  and  C_33
   13  A    between atoms: O_29  and  C_33
                            x       y       z     vdW  Elec       q    Type
                         _______ _______ _______ _____ _____    ______ ____

>  <TORSDO>
F 13

$$$$
=
 OpenBabel11042410353D

 38 40  0  0  1  0  0  0  0  0999 V2000
  188.3580  178.0230  145.0790 C   0  0  2  0  0  3  0  0  0  0  0  0
  183.7720  178.4270  141.0310 C   0  0  0  0  0  3  0  0  0  0  0  0
  183.8620  178.6900  145.2140 N   0  0  0  0  0  0  0  0  0  0  0  0
  182.7040  178.8190  143.0940 C   0  0  0  0  0  0  0  0  0  0  0  0
  182.6610  178.7270  141.7420 N   0  0  0  0  0  0  0  0  0  0  0  0
  184.7690  178.6220  146.1370 C   0  0  0  0  0  3  0  0  0  0  0  0
  184.9450  178.2150  141.6740 N   0  0  0  0  0  0  0  0  0  0  0  0
  183.9090  178.6090  143.7870 C   0  0  0  0  0  0  0  0  0  0  0  0
  185.0530  178.2970  143.0270 C   0  0  0  0  0  0  0  0  0  0  0  0
  186.8810  178.2030  144.8930 C   0  0  0  0  0  0  0  0  0  0  0  0
  181.5080  179.1230  143.8070 N   0  0  0  0  0  1  0  0  0  0  0  0
  186.1710  178.4360  145.9480 N   0  0  0  0  0  0  0  0  0  0  0  0
  186.3440  178.0550  143.5790 N   0  0  0  0  0  2  0  0  0  0  0  0
  190.9160  177.4430  142.3220 C   0  0  1  0  0  3  0  0  0  0  0  0
  190.0720  178.3780  143.1660 C   0  0  2  0  0  3  0  0  0  0  0  0
  190.7190  176.0370  142.8860 C   0  0  0  0  0  2  0  0  0  0  0  0
  190.9760  179.0440  144.1970 C   0  0  0  0  0  1  0  0  0  0  0  0
  189.7170  176.1470  144.0200 C   0  0  0  0  0  2  0  0  0  0  0  0
  189.0180  177.4730  143.8040 C   0  0  1  0  0  3  0  0  0  0  0  0
  190.4630  177.4880  140.9740 O   0  0  0  0  0  0  0  0  0  0  0  0
  192.3800  177.3030  139.7010 O   0  0  0  0  0  0  0  0  0  0  0  0
  191.1920  176.9350  139.9210 C   0  0  0  0  0  0  0  0  0  0  0  0
  190.5870  175.9710  139.1120 O   0  0  0  0  0  0  0  0  0  0  0  0
  190.9660  175.7640  137.7540 C   0  0  0  0  0  2  0  0  0  0  0  0
  191.9720  174.6280  137.6390 C   0  0  0  0  0  2  0  0  0  0  0  0
  192.8990  174.8580  136.4900 C   0  0  0  0  0  0  0  0  0  0  0  0
  194.2470  175.2890  136.7170 N   0  0  0  0  0  0  0  0  0  0  0  0
  192.4740  174.6850  135.3160 O   0  0  0  0  0  0  0  0  0  0  0  0
  194.6870  175.4940  137.9820 O   0  0  0  0  0  1  0  0  0  0  0  0
  196.5670  175.2070  135.9550 C   0  0  0  0  0  1  0  0  0  0  0  0
  195.1350  175.5540  135.5900 C   0  0  0  0  0  3  0  0  0  0  0  0
  195.0450  177.0120  135.1810 C   0  0  0  0  0  1  0  0  0  0  0  0
  188.6270  177.1040  146.2690 C   0  0  0  0  0  2  0  0  0  0  0  0
  188.2560  177.5060  148.5830 O   0  0  0  0  0  1  0  0  0  0  0  0
  189.0430  177.8970  147.4990 C   0  0  1  0  0  3  0  0  0  0  0  0
  190.5080  177.6480  147.8120 C   0  0  0  0  0  2  0  0  0  0  0  0
  190.9310  176.2860  147.2960 C   0  0  0  0  0  2  0  0  0  0  0  0
  192.3690  176.1470  147.4230 N   0  0  0  0  0  1  0  0  0  0  0  0
  1 33  1  1  0  0  0
  2  7  1  0  0  0  0
  2  5  2  0  0  0  0
  3  6  2  0  0  0  0
  4  8  2  0  0  0  0
  4 11  1  0  0  0  0
  5  4  1  0  0  0  0
  7  9  2  0  0  0  0
  8  3  1  0  0  0  0
  9 13  1  0  0  0  0
  9  8  1  0  0  0  0
 10  1  1  0  0  0  0
 10 12  2  0  0  0  0
 12  6  1  0  0  0  0
 13 10  1  0  0  0  0
 14 20  1  6  0  0  0
 14 16  1  0  0  0  0
 14 15  1  0  0  0  0
 15 19  1  0  0  0  0
 15 17  1  1  0  0  0
 16 18  1  0  0  0  0
 19 18  1  0  0  0  0
 19  1  1  1  0  0  0
 21 22  2  0  0  0  0
 22 20  1  0  0  0  0
 23 22  1  0  0  0  0
 24 23  1  0  0  0  0
 25 24  1  0  0  0  0
 26 27  1  0  0  0  0
 26 25  1  0  0  0  0
 27 29  1  0  0  0  0
 28 26  2  0  0  0  0
 31 30  1  0  0  0  0
 31 27  1  0  0  0  0
 32 31  1  0  0  0  0
 33 35  1  0  0  0  0
 35 36  1  0  0  0  0
 35 34  1  1  0  0  0
 37 38  1  0  0  0  0
 37 36  1  0  0  0  0
M  END
>  <MODEL>
3

>  <REMARK>
 VINA RESULT:      -7.4      2.782      4.467
  Name = 
  13 active torsions:
  status: ('A' for Active; 'I' for Inactive)
    1  A    between atoms: C_1  and  C_7
    2  A    between atoms: C_3  and  C_18
    3  A    between atoms: C_4  and  O_29
    4  A    between atoms: C_7  and  C_31
    5  A    between atoms: C_10  and  C_19
    6  A    between atoms: C_10  and  C_31
    7  A    between atoms: C_17  and  C_18
    8  A    between atoms: C_17  and  O_26
    9  A    between atoms: C_19  and  C_30
   10  A    between atoms: C_19  and  C_38
   11  A    between atoms: N_21  and  C_24
   12  A    between atoms: O_26  and  C_33
   13  A    between atoms: O_29  and  C_33
                            x       y       z     vdW  Elec       q    Type
                         _______ _______ _______ _____ _____    ______ ____

>  <TORSDO>
F 13

$$$$
=
 OpenBabel11042410353D

 38 40  0  0  1  0  0  0  0  0999 V2000
  187.8090  177.9500  144.6570 C   0  0  2  0  0  3  0  0  0  0  0  0
  183.1590  178.4380  140.6920 C   0  0  0  0  0  3  0  0  0  0  0  0
  183.3570  178.8510  144.8590 N   0  0  0  0  0  0  0  0  0  0  0  0
  182.1590  178.9610  142.7600 C   0  0  0  0  0  0  0  0  0  0  0  0
  182.0810  178.8220  141.4130 N   0  0  0  0  0  0  0  0  0  0  0  0
  184.2790  178.7720  145.7650 C   0  0  0  0  0  3  0  0  0  0  0  0
  184.3340  178.1910  141.3180 N   0  0  0  0  0  0  0  0  0  0  0  0
  183.3670  178.7150  143.4350 C   0  0  0  0  0  0  0  0  0  0  0  0
  184.4770  178.3170  142.6640 C   0  0  0  0  0  0  0  0  0  0  0  0
  186.3390  178.1980  144.4940 C   0  0  0  0  0  0  0  0  0  0  0  0
  180.9960  179.3520  143.4850 N   0  0  0  0  0  1  0  0  0  0  0  0
  185.6660  178.5060  145.5550 N   0  0  0  0  0  0  0  0  0  0  0  0
  185.7650  178.0300  143.1980 N   0  0  0  0  0  2  0  0  0  0  0  0
  190.1560  177.1890  141.7590 C   0  0  1  0  0  3  0  0  0  0  0  0
  189.3050  178.1640  142.5510 C   0  0  2  0  0  3  0  0  0  0  0  0
  190.1430  175.8680  142.5260 C   0  0  0  0  0  2  0  0  0  0  0  0
  190.2310  179.0410  143.3860 C   0  0  0  0  0  1  0  0  0  0  0  0
  189.2400  176.0570  143.7290 C   0  0  0  0  0  2  0  0  0  0  0  0
  188.4020  177.2780  143.4080 C   0  0  1  0  0  3  0  0  0  0  0  0
  189.5830  177.0040  140.4710 O   0  0  0  0  0  0  0  0  0  0  0  0
  187.6020  178.1400  140.1280 O   0  0  0  0  0  0  0  0  0  0  0  0
  188.8230  177.9910  139.8410 C   0  0  0  0  0  0  0  0  0  0  0  0
  189.4330  178.8080  138.8870 O   0  0  0  0  0  0  0  0  0  0  0  0
  189.0230  178.8300  137.5230 C   0  0  0  0  0  2  0  0  0  0  0  0
  189.5860  177.6350  136.7690 C   0  0  0  0  0  2  0  0  0  0  0  0
  188.4860  176.7440  136.2910 C   0  0  0  0  0  0  0  0  0  0  0  0
  188.4760  175.3520  136.6330 N   0  0  0  0  0  0  0  0  0  0  0  0
  187.5760  177.2300  135.5680 O   0  0  0  0  0  0  0  0  0  0  0  0
  189.4720  174.8350  137.3940 O   0  0  0  0  0  1  0  0  0  0  0  0
  186.3870  174.2220  137.2090 C   0  0  0  0  0  1  0  0  0  0  0  0
  187.4230  174.4780  136.1290 C   0  0  0  0  0  3  0  0  0  0  0  0
  188.0130  173.1620  135.6590 C   0  0  0  0  0  1  0  0  0  0  0  0
  188.0610  177.1010  145.9020 C   0  0  0  0  0  2  0  0  0  0  0  0
  188.7000  178.3710  147.8070 O   0  0  0  0  0  1  0  0  0  0  0  0
  189.2140  177.6550  146.7260 C   0  0  1  0  0  3  0  0  0  0  0  0
  190.0890  176.5200  147.2310 C   0  0  0  0  0  2  0  0  0  0  0  0
  191.5160  176.7070  146.7540 C   0  0  0  0  0  2  0  0  0  0  0  0
  192.4320  176.3310  147.8140 N   0  0  0  0  0  1  0  0  0  0  0  0
  1 33  1  1  0  0  0
  2  7  1  0  0  0  0
  2  5  2  0  0  0  0
  3  6  2  0  0  0  0
  4  8  2  0  0  0  0
  4 11  1  0  0  0  0
  5  4  1  0  0  0  0
  7  9  2  0  0  0  0
  8  3  1  0  0  0  0
  9 13  1  0  0  0  0
  9  8  1  0  0  0  0
 10  1  1  0  0  0  0
 10 12  2  0  0  0  0
 12  6  1  0  0  0  0
 13 10  1  0  0  0  0
 14 20  1  6  0  0  0
 14 16  1  0  0  0  0
 14 15  1  0  0  0  0
 15 17  1  1  0  0  0
 15 19  1  0  0  0  0
 16 18  1  0  0  0  0
 19 18  1  0  0  0  0
 19  1  1  1  0  0  0
 22 21  2  0  0  0  0
 22 20  1  0  0  0  0
 23 22  1  0  0  0  0
 24 23  1  0  0  0  0
 25 24  1  0  0  0  0
 26 27  1  0  0  0  0
 26 25  1  0  0  0  0
 27 29  1  0  0  0  0
 28 26  2  0  0  0  0
 31 27  1  0  0  0  0
 31 30  1  0  0  0  0
 32 31  1  0  0  0  0
 33 35  1  0  0  0  0
 35 36  1  0  0  0  0
 35 34  1  1  0  0  0
 37 36  1  0  0  0  0
 37 38  1  0  0  0  0
M  END
>  <MODEL>
4

>  <REMARK>
 VINA RESULT:      -7.3      1.511      1.945
  Name = 
  13 active torsions:
  status: ('A' for Active; 'I' for Inactive)
    1  A    between atoms: C_1  and  C_7
    2  A    between atoms: C_3  and  C_18
    3  A    between atoms: C_4  and  O_29
    4  A    between atoms: C_7  and  C_31
    5  A    between atoms: C_10  and  C_19
    6  A    between atoms: C_10  and  C_31
    7  A    between atoms: C_17  and  C_18
    8  A    between atoms: C_17  and  O_26
    9  A    between atoms: C_19  and  C_30
   10  A    between atoms: C_19  and  C_38
   11  A    between atoms: N_21  and  C_24
   12  A    between atoms: O_26  and  C_33
   13  A    between atoms: O_29  and  C_33
                            x       y       z     vdW  Elec       q    Type
                         _______ _______ _______ _____ _____    ______ ____

>  <TORSDO>
F 13

$$$$
=
 OpenBabel11042410353D

 38 40  0  0  1  0  0  0  0  0999 V2000
  189.7070  176.7410  138.3380 C   0  0  2  0  0  3  0  0  0  0  0  0
  187.9870  176.9120  144.2200 C   0  0  0  0  0  3  0  0  0  0  0  0
  191.6970  177.4960  142.3570 N   0  0  0  0  0  0  0  0  0  0  0  0
  190.2710  177.4820  144.3110 C   0  0  0  0  0  0  0  0  0  0  0  0
  189.0780  177.2860  144.9270 N   0  0  0  0  0  0  0  0  0  0  0  0
  192.1470  177.4850  141.1420 C   0  0  0  0  0  3  0  0  0  0  0  0
  188.0810  176.7300  142.8810 N   0  0  0  0  0  0  0  0  0  0  0  0
  190.3970  177.3040  142.9220 C   0  0  0  0  0  0  0  0  0  0  0  0
  189.2480  176.9140  142.2070 C   0  0  0  0  0  0  0  0  0  0  0  0
  190.1560  176.9320  139.7570 C   0  0  0  0  0  0  0  0  0  0  0  0
  191.4000  177.8620  145.0940 N   0  0  0  0  0  1  0  0  0  0  0  0
  191.3920  177.2590  139.9520 N   0  0  0  0  0  0  0  0  0  0  0  0
  189.2130  176.6920  140.8010 N   0  0  0  0  0  2  0  0  0  0  0  0
  186.1860  177.8620  137.4270 C   0  0  1  0  0  3  0  0  0  0  0  0
  187.5490  178.1440  138.0300 C   0  0  2  0  0  3  0  0  0  0  0  0
  186.2590  176.4700  136.8010 C   0  0  0  0  0  2  0  0  0  0  0  0
  188.3370  179.0070  137.0510 C   0  0  0  0  0  1  0  0  0  0  0  0
  187.6440  175.9210  137.0890 C   0  0  0  0  0  2  0  0  0  0  0  0
  188.1740  176.7630  138.2310 C   0  0  1  0  0  3  0  0  0  0  0  0
  185.2060  177.8740  138.4570 O   0  0  0  0  0  0  0  0  0  0  0  0
  184.5770  179.9620  139.2170 O   0  0  0  0  0  0  0  0  0  0  0  0
  185.1640  178.8660  139.4380 C   0  0  0  0  0  0  0  0  0  0  0  0
  185.7850  178.6300  140.6670 O   0  0  0  0  0  0  0  0  0  0  0  0
  185.3710  179.2700  141.8700 C   0  0  0  0  0  2  0  0  0  0  0  0
  184.6800  178.2820  142.7980 C   0  0  0  0  0  2  0  0  0  0  0  0
  183.4160  178.8640  143.3420 C   0  0  0  0  0  0  0  0  0  0  0  0
  182.2140  178.8530  142.5610 N   0  0  0  0  0  0  0  0  0  0  0  0
  183.4240  179.3810  144.4910 O   0  0  0  0  0  0  0  0  0  0  0  0
  182.2210  178.3140  141.3170 O   0  0  0  0  0  1  0  0  0  0  0  0
  180.2310  178.4650  143.9350 C   0  0  0  0  0  1  0  0  0  0  0  0
  180.9930  179.4600  143.0790 C   0  0  0  0  0  3  0  0  0  0  0  0
  180.1170  179.9360  141.9350 C   0  0  0  0  0  1  0  0  0  0  0  0
  190.2700  175.4330  137.7840 C   0  0  0  0  0  2  0  0  0  0  0  0
  190.7060  176.7190  135.8310 O   0  0  0  0  0  1  0  0  0  0  0  0
  191.2170  175.6880  136.6200 C   0  0  1  0  0  3  0  0  0  0  0  0
  192.5930  176.0710  137.1380 C   0  0  0  0  0  2  0  0  0  0  0  0
  193.6000  176.0660  136.0050 C   0  0  0  0  0  2  0  0  0  0  0  0
  194.9200  175.7810  136.5340 N   0  0  0  0  0  1  0  0  0  0  0  0
  1 33  1  1  0  0  0
  1 10  1  0  0  0  0
  2  5  2  0  0  0  0
  3  8  1  0  0  0  0
  4  5  1  0  0  0  0
  4 11  1  0  0  0  0
  6  3  2  0  0  0  0
  7  2  1  0  0  0  0
  8  4  2  0  0  0  0
  9  7  2  0  0  0  0
  9  8  1  0  0  0  0
 10 12  2  0  0  0  0
 10 13  1  0  0  0  0
 12  6  1  0  0  0  0
 13  9  1  0  0  0  0
 14 15  1  0  0  0  0
 14 20  1  1  0  0  0
 15 17  1  6  0  0  0
 15 19  1  0  0  0  0
 16 18  1  0  0  0  0
 16 14  1  0  0  0  0
 18 19  1  0  0  0  0
 19  1  1  6  0  0  0
 20 22  1  0  0  0  0
 21 22  2  0  0  0  0
 22 23  1  0  0  0  0
 23 24  1  0  0  0  0
 24 25  1  0  0  0  0
 25 26  1  0  0  0  0
 26 28  2  0  0  0  0
 27 31  1  0  0  0  0
 27 26  1  0  0  0  0
 29 27  1  0  0  0  0
 31 30  1  0  0  0  0
 32 31  1  0  0  0  0
 35 34  1  6  0  0  0
 35 36  1  0  0  0  0
 35 33  1  0  0  0  0
 37 38  1  0  0  0  0
 37 36  1  0  0  0  0
M  END
>  <MODEL>
5

>  <REMARK>
 VINA RESULT:      -7.1      3.197      7.594
  Name = 
  13 active torsions:
  status: ('A' for Active; 'I' for Inactive)
    1  A    between atoms: C_1  and  C_7
    2  A    between atoms: C_3  and  C_18
    3  A    between atoms: C_4  and  O_29
    4  A    between atoms: C_7  and  C_31
    5  A    between atoms: C_10  and  C_19
    6  A    between atoms: C_10  and  C_31
    7  A    between atoms: C_17  and  C_18
    8  A    between atoms: C_17  and  O_26
    9  A    between atoms: C_19  and  C_30
   10  A    between atoms: C_19  and  C_38
   11  A    between atoms: N_21  and  C_24
   12  A    between atoms: O_26  and  C_33
   13  A    between atoms: O_29  and  C_33
                            x       y       z     vdW  Elec       q    Type
                         _______ _______ _______ _____ _____    ______ ____

>  <TORSDO>
F 13

$$$$
=
 OpenBabel11042410353D

 38 40  0  0  1  0  0  0  0  0999 V2000
  187.2400  178.0590  144.0380 C   0  0  2  0  0  3  0  0  0  0  0  0
  184.0800  178.8670  138.8470 C   0  0  0  0  0  3  0  0  0  0  0  0
  182.9070  178.7970  142.8710 N   0  0  0  0  0  0  0  0  0  0  0  0
  182.4400  179.1150  140.5190 C   0  0  0  0  0  0  0  0  0  0  0  0
  182.8050  179.1310  139.2130 N   0  0  0  0  0  0  0  0  0  0  0  0
  183.4940  178.6400  144.0150 C   0  0  0  0  0  3  0  0  0  0  0  0
  185.0080  178.5840  139.7930 N   0  0  0  0  0  0  0  0  0  0  0  0
  183.3820  178.8280  141.5220 C   0  0  0  0  0  0  0  0  0  0  0  0
  184.7030  178.5560  141.1180 C   0  0  0  0  0  0  0  0  0  0  0  0
  185.8860  178.2810  143.4320 C   0  0  0  0  0  0  0  0  0  0  0  0
  181.0830  179.3840  140.8610 N   0  0  0  0  0  1  0  0  0  0  0  0
  184.8900  178.4430  144.2410 N   0  0  0  0  0  0  0  0  0  0  0  0
  185.7690  178.2470  142.0100 N   0  0  0  0  0  2  0  0  0  0  0  0
  190.4730  177.2850  142.1870 C   0  0  1  0  0  3  0  0  0  0  0  0
  189.4810  178.2810  142.7540 C   0  0  2  0  0  3  0  0  0  0  0  0
  190.0080  175.8980  142.6270 C   0  0  0  0  0  2  0  0  0  0  0  0
  190.0700  178.8720  144.0300 C   0  0  0  0  0  1  0  0  0  0  0  0
  188.7160  176.0840  143.3990 C   0  0  0  0  0  2  0  0  0  0  0  0
  188.2180  177.4610  143.0130 C   0  0  1  0  0  3  0  0  0  0  0  0
  190.4620  177.3680  140.7670 O   0  0  0  0  0  0  0  0  0  0  0  0
  192.7110  177.5490  140.2740 O   0  0  0  0  0  0  0  0  0  0  0  0
  191.5810  177.0610  139.9910 C   0  0  0  0  0  0  0  0  0  0  0  0
  191.4310  176.2080  138.8950 O   0  0  0  0  0  0  0  0  0  0  0  0
  192.1820  176.3650  137.6950 C   0  0  0  0  0  2  0  0  0  0  0  0
  191.8730  175.2450  136.7120 C   0  0  0  0  0  2  0  0  0  0  0  0
  190.4360  174.8460  136.8000 C   0  0  0  0  0  0  0  0  0  0  0  0
  189.4260  175.6070  136.1260 N   0  0  0  0  0  0  0  0  0  0  0  0
  190.1220  173.8400  137.4910 O   0  0  0  0  0  0  0  0  0  0  0  0
  189.7730  176.7010  135.4040 O   0  0  0  0  0  1  0  0  0  0  0  0
  187.5650  174.4710  135.0230 C   0  0  0  0  0  1  0  0  0  0  0  0
  188.0200  175.2390  136.2510 C   0  0  0  0  0  3  0  0  0  0  0  0
  187.1660  176.4800  136.4300 C   0  0  0  0  0  1  0  0  0  0  0  0
  187.1220  177.1570  145.2660 C   0  0  0  0  0  2  0  0  0  0  0  0
  186.6910  178.3300  147.2900 O   0  0  0  0  0  1  0  0  0  0  0  0
  187.7200  177.8190  146.4980 C   0  0  1  0  0  3  0  0  0  0  0  0
  188.5270  176.8080  147.2950 C   0  0  0  0  0  2  0  0  0  0  0  0
  189.8520  177.4110  147.7190 C   0  0  0  0  0  2  0  0  0  0  0  0
  190.9300  176.7650  146.9950 N   0  0  0  0  0  1  0  0  0  0  0  0
  1 33  1  1  0  0  0
  2  5  2  0  0  0  0
  2  7  1  0  0  0  0
  3  6  2  0  0  0  0
  4 11  1  0  0  0  0
  4  8  2  0  0  0  0
  5  4  1  0  0  0  0
  6 12  1  0  0  0  0
  7  9  2  0  0  0  0
  8  3  1  0  0  0  0
  9  8  1  0  0  0  0
  9 13  1  0  0  0  0
 10  1  1  0  0  0  0
 10 12  2  0  0  0  0
 13 10  1  0  0  0  0
 14 20  1  6  0  0  0
 14 16  1  0  0  0  0
 14 15  1  0  0  0  0
 15 19  1  0  0  0  0
 15 17  1  1  0  0  0
 16 18  1  0  0  0  0
 19 18  1  0  0  0  0
 19  1  1  1  0  0  0
 22 21  2  0  0  0  0
 22 20  1  0  0  0  0
 23 22  1  0  0  0  0
 24 23  1  0  0  0  0
 25 26  1  0  0  0  0
 25 24  1  0  0  0  0
 26 28  2  0  0  0  0
 27 31  1  0  0  0  0
 27 26  1  0  0  0  0
 29 27  1  0  0  0  0
 30 31  1  0  0  0  0
 31 32  1  0  0  0  0
 33 35  1  0  0  0  0
 35 34  1  1  0  0  0
 35 36  1  0  0  0  0
 36 37  1  0  0  0  0
 38 37  1  0  0  0  0
M  END
>  <MODEL>
6

>  <REMARK>
 VINA RESULT:      -6.9      1.934      2.659
  Name = 
  13 active torsions:
  status: ('A' for Active; 'I' for Inactive)
    1  A    between atoms: C_1  and  C_7
    2  A    between atoms: C_3  and  C_18
    3  A    between atoms: C_4  and  O_29
    4  A    between atoms: C_7  and  C_31
    5  A    between atoms: C_10  and  C_19
    6  A    between atoms: C_10  and  C_31
    7  A    between atoms: C_17  and  C_18
    8  A    between atoms: C_17  and  O_26
    9  A    between atoms: C_19  and  C_30
   10  A    between atoms: C_19  and  C_38
   11  A    between atoms: N_21  and  C_24
   12  A    between atoms: O_26  and  C_33
   13  A    between atoms: O_29  and  C_33
                            x       y       z     vdW  Elec       q    Type
                         _______ _______ _______ _____ _____    ______ ____

>  <TORSDO>
F 13

$$$$
=
 OpenBabel11042410353D

 38 40  0  0  1  0  0  0  0  0999 V2000
  184.8760  178.9420  141.4440 C   0  0  2  0  0  3  0  0  0  0  0  0
  189.0700  177.9000  137.0960 C   0  0  0  0  0  3  0  0  0  0  0  0
  189.2410  177.6800  141.2800 N   0  0  0  0  0  0  0  0  0  0  0  0
  190.2190  177.3820  139.0870 C   0  0  0  0  0  0  0  0  0  0  0  0
  190.1790  177.4580  137.7330 N   0  0  0  0  0  0  0  0  0  0  0  0
  188.4190  177.8750  142.2620 C   0  0  0  0  0  3  0  0  0  0  0  0
  187.9840  178.2710  137.8150 N   0  0  0  0  0  0  0  0  0  0  0  0
  189.1050  177.7570  139.8580 C   0  0  0  0  0  0  0  0  0  0  0  0
  187.9620  178.2130  139.1740 C   0  0  0  0  0  0  0  0  0  0  0  0
  186.2990  178.5650  141.1590 C   0  0  0  0  0  0  0  0  0  0  0  0
  191.4120  176.9260  139.7200 N   0  0  0  0  0  1  0  0  0  0  0  0
  187.0440  178.2460  142.1670 N   0  0  0  0  0  0  0  0  0  0  0  0
  186.7570  178.6300  139.8090 N   0  0  0  0  0  2  0  0  0  0  0  0
  184.0700  179.1440  145.1580 C   0  0  1  0  0  3  0  0  0  0  0  0
  185.0070  179.3960  143.9930 C   0  0  2  0  0  3  0  0  0  0  0  0
  182.7630  178.6160  144.5680 C   0  0  0  0  0  2  0  0  0  0  0  0
  184.9670  180.8820  143.6570 C   0  0  0  0  0  1  0  0  0  0  0  0
  182.9610  178.5080  143.0680 C   0  0  0  0  0  2  0  0  0  0  0  0
  184.4620  178.5220  142.8650 C   0  0  1  0  0  3  0  0  0  0  0  0
  184.6400  178.1620  146.0160 O   0  0  0  0  0  0  0  0  0  0  0  0
  185.6830  179.5290  147.5580 O   0  0  0  0  0  0  0  0  0  0  0  0
  185.6840  178.4540  146.8960 C   0  0  0  0  0  0  0  0  0  0  0  0
  186.7310  177.5400  147.0290 O   0  0  0  0  0  0  0  0  0  0  0  0
  187.9660  177.8770  147.6550 C   0  0  0  0  0  2  0  0  0  0  0  0
  188.8900  176.6690  147.7140 C   0  0  0  0  0  2  0  0  0  0  0  0
  190.1720  176.9490  146.9990 C   0  0  0  0  0  0  0  0  0  0  0  0
  190.2150  176.9800  145.5670 N   0  0  0  0  0  0  0  0  0  0  0  0
  191.2190  177.1400  147.6730 O   0  0  0  0  0  0  0  0  0  0  0  0
  189.0870  176.7510  144.8510 O   0  0  0  0  0  1  0  0  0  0  0  0
  191.5010  178.6050  144.2710 C   0  0  0  0  0  1  0  0  0  0  0  0
  191.4770  177.2110  144.8730 C   0  0  0  0  0  3  0  0  0  0  0  0
  191.6740  176.1750  143.7830 C   0  0  0  0  0  1  0  0  0  0  0  0
  183.9500  178.3160  140.4020 C   0  0  0  0  0  2  0  0  0  0  0  0
  184.1570  180.2900  139.0940 O   0  0  0  0  0  1  0  0  0  0  0  0
  183.2240  179.3810  139.5950 C   0  0  1  0  0  3  0  0  0  0  0  0
  182.4640  178.7400  138.4460 C   0  0  0  0  0  2  0  0  0  0  0  0
  183.2480  177.5700  137.8870 C   0  0  0  0  0  2  0  0  0  0  0  0
  183.0550  177.5020  136.4510 N   0  0  0  0  0  1  0  0  0  0  0  0
  1 33  1  6  0  0  0
  2  5  2  0  0  0  0
  2  7  1  0  0  0  0
  3  6  2  0  0  0  0
  4 11  1  0  0  0  0
  4  8  2  0  0  0  0
  5  4  1  0  0  0  0
  7  9  2  0  0  0  0
  8  3  1  0  0  0  0
  9 13  1  0  0  0  0
  9  8  1  0  0  0  0
 10  1  1  0  0  0  0
 10 12  2  0  0  0  0
 12  6  1  0  0  0  0
 13 10  1  0  0  0  0
 14 20  1  1  0  0  0
 15 17  1  6  0  0  0
 15 14  1  0  0  0  0
 16 14  1  0  0  0  0
 18 16  1  0  0  0  0
 19  1  1  6  0  0  0
 19 18  1  0  0  0  0
 19 15  1  0  0  0  0
 20 22  1  0  0  0  0
 22 23  1  0  0  0  0
 22 21  2  0  0  0  0
 23 24  1  0  0  0  0
 24 25  1  0  0  0  0
 26 28  2  0  0  0  0
 26 25  1  0  0  0  0
 27 26  1  0  0  0  0
 29 27  1  0  0  0  0
 30 31  1  0  0  0  0
 31 27  1  0  0  0  0
 32 31  1  0  0  0  0
 35 34  1  6  0  0  0
 35 33  1  0  0  0  0
 36 35  1  0  0  0  0
 37 36  1  0  0  0  0
 38 37  1  0  0  0  0
M  END
>  <MODEL>
7

>  <REMARK>
 VINA RESULT:      -6.8      2.911      8.620
  Name = 
  13 active torsions:
  status: ('A' for Active; 'I' for Inactive)
    1  A    between atoms: C_1  and  C_7
    2  A    between atoms: C_3  and  C_18
    3  A    between atoms: C_4  and  O_29
    4  A    between atoms: C_7  and  C_31
    5  A    between atoms: C_10  and  C_19
    6  A    between atoms: C_10  and  C_31
    7  A    between atoms: C_17  and  C_18
    8  A    between atoms: C_17  and  O_26
    9  A    between atoms: C_19  and  C_30
   10  A    between atoms: C_19  and  C_38
   11  A    between atoms: N_21  and  C_24
   12  A    between atoms: O_26  and  C_33
   13  A    between atoms: O_29  and  C_33
                            x       y       z     vdW  Elec       q    Type
                         _______ _______ _______ _____ _____    ______ ____

>  <TORSDO>
F 13

$$$$
=
 OpenBabel11042410353D

 38 40  0  0  1  0  0  0  0  0999 V2000
  190.3230  177.1780  139.5190 C   0  0  2  0  0  3  0  0  0  0  0  0
  186.6460  177.5660  144.4100 C   0  0  0  0  0  3  0  0  0  0  0  0
  190.8060  177.1970  144.0410 N   0  0  0  0  0  0  0  0  0  0  0  0
  188.7990  177.4900  145.3610 C   0  0  0  0  0  0  0  0  0  0  0  0
  187.4540  177.6000  145.4930 N   0  0  0  0  0  0  0  0  0  0  0  0
  191.6560  177.1130  143.0670 C   0  0  0  0  0  3  0  0  0  0  0  0
  187.1820  177.4210  143.1740 N   0  0  0  0  0  0  0  0  0  0  0  0
  189.3840  177.3420  144.0910 C   0  0  0  0  0  0  0  0  0  0  0  0
  188.5230  177.3090  142.9770 C   0  0  0  0  0  0  0  0  0  0  0  0
  190.2480  177.1810  141.0170 C   0  0  0  0  0  0  0  0  0  0  0  0
  189.6150  177.5150  146.5300 N   0  0  0  0  0  1  0  0  0  0  0  0
  191.3640  177.1510  141.6700 N   0  0  0  0  0  0  0  0  0  0  0  0
  188.9580  177.1630  141.6280 N   0  0  0  0  0  2  0  0  0  0  0  0
  187.1830  177.4820  137.3910 C   0  0  1  0  0  3  0  0  0  0  0  0
  188.1540  178.0570  138.4040 C   0  0  2  0  0  3  0  0  0  0  0  0
  187.7720  176.1550  136.9170 C   0  0  0  0  0  2  0  0  0  0  0  0
  189.0220  179.0940  137.7010 C   0  0  0  0  0  1  0  0  0  0  0  0
  189.0550  175.9310  137.6950 C   0  0  0  0  0  2  0  0  0  0  0  0
  188.9570  176.8520  138.8940 C   0  0  1  0  0  3  0  0  0  0  0  0
  185.9280  177.2530  138.0210 O   0  0  0  0  0  0  0  0  0  0  0  0
  185.2980  179.3490  138.7550 O   0  0  0  0  0  0  0  0  0  0  0  0
  184.9810  178.2640  138.1920 C   0  0  0  0  0  0  0  0  0  0  0  0
  183.6780  178.0550  137.7350 O   0  0  0  0  0  0  0  0  0  0  0  0
  182.5330  178.3340  138.5350 C   0  0  0  0  0  2  0  0  0  0  0  0
  182.5050  177.4450  139.7700 C   0  0  0  0  0  2  0  0  0  0  0  0
  182.2940  178.2610  141.0040 C   0  0  0  0  0  0  0  0  0  0  0  0
  181.0060  178.3120  141.6300 N   0  0  0  0  0  0  0  0  0  0  0  0
  183.2590  178.9180  141.4760 O   0  0  0  0  0  0  0  0  0  0  0  0
  179.9680  177.6190  141.1000 O   0  0  0  0  0  1  0  0  0  0  0  0
  180.2490  178.3080  143.9530 C   0  0  0  0  0  1  0  0  0  0  0  0
  180.7930  179.1440  142.8090 C   0  0  0  0  0  3  0  0  0  0  0  0
  179.8300  180.2720  142.4900 C   0  0  0  0  0  1  0  0  0  0  0  0
  191.3850  176.1840  139.0510 C   0  0  0  0  0  2  0  0  0  0  0  0
  193.5730  177.0950  139.2440 O   0  0  0  0  0  1  0  0  0  0  0  0
  192.5290  176.8910  138.3410 C   0  0  1  0  0  3  0  0  0  0  0  0
  193.0190  176.0510  137.1730 C   0  0  0  0  0  2  0  0  0  0  0  0
  194.0420  175.0390  137.6470 C   0  0  0  0  0  2  0  0  0  0  0  0
  195.2970  175.2600  136.9540 N   0  0  0  0  0  1  0  0  0  0  0  0
  1 33  1  1  0  0  0
  1 10  1  0  0  0  0
  2  5  2  0  0  0  0
  3  8  1  0  0  0  0
  4  5  1  0  0  0  0
  4 11  1  0  0  0  0
  6  3  2  0  0  0  0
  7  2  1  0  0  0  0
  8  4  2  0  0  0  0
  9  7  2  0  0  0  0
  9  8  1  0  0  0  0
 10 13  1  0  0  0  0
 10 12  2  0  0  0  0
 12  6  1  0  0  0  0
 13  9  1  0  0  0  0
 14 20  1  1  0  0  0
 14 15  1  0  0  0  0
 15 17  1  6  0  0  0
 15 19  1  0  0  0  0
 16 14  1  0  0  0  0
 16 18  1  0  0  0  0
 18 19  1  0  0  0  0
 19  1  1  6  0  0  0
 20 22  1  0  0  0  0
 22 21  2  0  0  0  0
 23 22  1  0  0  0  0
 23 24  1  0  0  0  0
 24 25  1  0  0  0  0
 25 26  1  0  0  0  0
 26 28  2  0  0  0  0
 26 27  1  0  0  0  0
 27 31  1  0  0  0  0
 29 27  1  0  0  0  0
 31 30  1  0  0  0  0
 32 31  1  0  0  0  0
 35 33  1  0  0  0  0
 35 34  1  1  0  0  0
 36 37  1  0  0  0  0
 36 35  1  0  0  0  0
 38 37  1  0  0  0  0
M  END
>  <MODEL>
8

>  <REMARK>
 VINA RESULT:      -6.7      3.000      6.912
  Name = 
  13 active torsions:
  status: ('A' for Active; 'I' for Inactive)
    1  A    between atoms: C_1  and  C_7
    2  A    between atoms: C_3  and  C_18
    3  A    between atoms: C_4  and  O_29
    4  A    between atoms: C_7  and  C_31
    5  A    between atoms: C_10  and  C_19
    6  A    between atoms: C_10  and  C_31
    7  A    between atoms: C_17  and  C_18
    8  A    between atoms: C_17  and  O_26
    9  A    between atoms: C_19  and  C_30
   10  A    between atoms: C_19  and  C_38
   11  A    between atoms: N_21  and  C_24
   12  A    between atoms: O_26  and  C_33
   13  A    between atoms: O_29  and  C_33
                            x       y       z     vdW  Elec       q    Type
                         _______ _______ _______ _____ _____    ______ ____

>  <TORSDO>
F 13

$$$$
=
 OpenBabel11042410353D

 38 40  0  0  1  0  0  0  0  0999 V2000
  189.9730  177.2700  139.4150 C   0  0  2  0  0  3  0  0  0  0  0  0
  186.6920  177.4970  144.5890 C   0  0  0  0  0  3  0  0  0  0  0  0
  190.8180  177.2700  143.8830 N   0  0  0  0  0  0  0  0  0  0  0  0
  188.9160  177.4850  145.3630 C   0  0  0  0  0  0  0  0  0  0  0  0
  187.5840  177.5500  145.6050 N   0  0  0  0  0  0  0  0  0  0  0  0
  191.5890  177.2230  142.8430 C   0  0  0  0  0  3  0  0  0  0  0  0
  187.1310  177.3790  143.3130 N   0  0  0  0  0  0  0  0  0  0  0  0
  189.4010  177.3670  144.0490 C   0  0  0  0  0  0  0  0  0  0  0  0
  188.4540  177.3140  143.0070 C   0  0  0  0  0  0  0  0  0  0  0  0
  190.0190  177.2590  140.9140 C   0  0  0  0  0  0  0  0  0  0  0  0
  189.8220  177.5290  146.4630 N   0  0  0  0  0  1  0  0  0  0  0  0
  191.1840  177.2610  141.4750 N   0  0  0  0  0  0  0  0  0  0  0  0
  188.7840  177.1940  141.6270 N   0  0  0  0  0  2  0  0  0  0  0  0
  186.7830  177.8140  137.4120 C   0  0  1  0  0  3  0  0  0  0  0  0
  187.8950  178.3440  138.2960 C   0  0  2  0  0  3  0  0  0  0  0  0
  187.1310  176.3620  137.0870 C   0  0  0  0  0  2  0  0  0  0  0  0
  188.8640  179.1370  137.4260 C   0  0  0  0  0  1  0  0  0  0  0  0
  188.4120  176.0320  137.8270 C   0  0  0  0  0  2  0  0  0  0  0  0
  188.5350  177.0940  138.9000 C   0  0  1  0  0  3  0  0  0  0  0  0
  185.5520  177.8650  138.1240 O   0  0  0  0  0  0  0  0  0  0  0  0
  184.7430  179.9390  138.7390 O   0  0  0  0  0  0  0  0  0  0  0  0
  185.2810  178.8470  139.0780 C   0  0  0  0  0  0  0  0  0  0  0  0
  185.6160  178.6060  140.4120 O   0  0  0  0  0  0  0  0  0  0  0  0
  184.9290  179.2220  141.4970 C   0  0  0  0  0  2  0  0  0  0  0  0
  183.9100  178.2680  142.1050 C   0  0  0  0  0  2  0  0  0  0  0  0
  182.5380  178.5650  141.5950 C   0  0  0  0  0  0  0  0  0  0  0  0
  181.9890  177.8170  140.5030 N   0  0  0  0  0  0  0  0  0  0  0  0
  181.8750  179.4960  142.1270 O   0  0  0  0  0  0  0  0  0  0  0  0
  182.7190  176.8330  139.9230 O   0  0  0  0  0  1  0  0  0  0  0  0
  179.6260  177.1960  140.5580 C   0  0  0  0  0  1  0  0  0  0  0  0
  180.6660  178.1390  139.9800 C   0  0  0  0  0  3  0  0  0  0  0  0
  180.6620  178.0460  138.4660 C   0  0  0  0  0  1  0  0  0  0  0  0
  190.8870  176.1810  138.8560 C   0  0  0  0  0  2  0  0  0  0  0  0
  193.1710  176.8110  138.6610 O   0  0  0  0  0  1  0  0  0  0  0  0
  191.9660  176.7700  137.9600 C   0  0  1  0  0  3  0  0  0  0  0  0
  192.1290  175.9220  136.7100 C   0  0  0  0  0  2  0  0  0  0  0  0
  192.5150  174.5040  137.0840 C   0  0  0  0  0  2  0  0  0  0  0  0
  193.4860  174.0010  136.1320 N   0  0  0  0  0  1  0  0  0  0  0  0
  1 33  1  6  0  0  0
  1 10  1  0  0  0  0
  2  5  2  0  0  0  0
  3  8  1  0  0  0  0
  4  5  1  0  0  0  0
  4 11  1  0  0  0  0
  6  3  2  0  0  0  0
  7  2  1  0  0  0  0
  8  4  2  0  0  0  0
  9  7  2  0  0  0  0
  9  8  1  0  0  0  0
 10 12  2  0  0  0  0
 10 13  1  0  0  0  0
 12  6  1  0  0  0  0
 13  9  1  0  0  0  0
 14 20  1  1  0  0  0
 14 15  1  0  0  0  0
 15 17  1  6  0  0  0
 15 19  1  0  0  0  0
 16 14  1  0  0  0  0
 16 18  1  0  0  0  0
 18 19  1  0  0  0  0
 19  1  1  6  0  0  0
 20 22  1  0  0  0  0
 21 22  2  0  0  0  0
 22 23  1  0  0  0  0
 23 24  1  0  0  0  0
 24 25  1  0  0  0  0
 26 25  1  0  0  0  0
 26 28  2  0  0  0  0
 27 26  1  0  0  0  0
 29 27  1  0  0  0  0
 31 27  1  0  0  0  0
 31 30  1  0  0  0  0
 32 31  1  0  0  0  0
 35 34  1  1  0  0  0
 35 33  1  0  0  0  0
 36 37  1  0  0  0  0
 36 35  1  0  0  0  0
 38 37  1  0  0  0  0
M  END
>  <MODEL>
9

>  <REMARK>
 VINA RESULT:      -6.7      2.857      6.723
  Name = 
  13 active torsions:
  status: ('A' for Active; 'I' for Inactive)
    1  A    between atoms: C_1  and  C_7
    2  A    between atoms: C_3  and  C_18
    3  A    between atoms: C_4  and  O_29
    4  A    between atoms: C_7  and  C_31
    5  A    between atoms: C_10  and  C_19
    6  A    between atoms: C_10  and  C_31
    7  A    between atoms: C_17  and  C_18
    8  A    between atoms: C_17  and  O_26
    9  A    between atoms: C_19  and  C_30
   10  A    between atoms: C_19  and  C_38
   11  A    between atoms: N_21  and  C_24
   12  A    between atoms: O_26  and  C_33
   13  A    between atoms: O_29  and  C_33
                            x       y       z     vdW  Elec       q    Type
                         _______ _______ _______ _____ _____    ______ ____

>  <TORSDO>
F 13

$$$$
