=
 OpenBabel11032419173D

 30 32  0  0  1  0  0  0  0  0999 V2000
  188.5000  177.9200  140.1120 C   0  0  0  0  0  0  0  0  0  0  0  0
  186.8130  177.7390  144.3310 C   0  0  0  0  0  0  0  0  0  0  0  0
  186.4530  177.4620  145.7600 C   0  0  2  0  0  3  0  0  0  0  0  0
  187.9350  177.1480  143.5560 C   0  0  0  0  0  3  0  0  0  0  0  0
  189.0340  177.1070  141.2550 C   0  0  0  0  0  2  0  0  0  0  0  0
  186.0460  178.9830  142.4200 O   0  0  0  0  0  0  0  0  0  0  0  0
  185.2140  178.3030  145.8670 C   0  0  0  0  0  0  0  0  0  0  0  0
  187.1000  178.4430  141.6760 C   0  0  0  0  0  0  0  0  0  0  0  0
  184.4740  178.3560  146.8840 O   0  0  0  0  0  0  0  0  0  0  0  0
  185.9480  178.5900  143.7660 C   0  0  0  0  0  0  0  0  0  0  0  0
  189.0080  177.8990  138.9260 N   0  0  0  0  0  2  0  0  0  0  0  0
  184.9400  179.0110  144.6630 N   0  0  0  0  0  0  0  0  0  0  0  0
  188.0420  177.5160  142.2760 C   0  0  0  0  0  0  0  0  0  0  0  0
  187.3400  178.6900  140.4350 N   0  0  0  0  0  0  0  0  0  0  0  0
  187.5410  177.9980  146.6770 C   0  0  0  0  0  2  0  0  0  0  0  0
  189.8130  178.2320  148.3500 O   0  0  0  0  0  0  0  0  0  0  0  0
  188.7110  177.1360  146.6150 N   0  0  0  0  0  2  0  0  0  0  0  0
  189.8140  177.2930  147.5070 C   0  0  0  0  0  0  0  0  0  0  0  0
  191.6360  176.1850  146.2850 C   0  0  0  0  0  3  0  0  0  0  0  0
  190.9510  176.4330  147.3650 N   0  0  0  0  0  0  0  0  0  0  0  0
  191.2530  176.1730  143.9600 O   0  0  0  0  0  0  0  0  0  0  0  0
  191.6620  178.2340  144.8580 O   0  0  0  0  0  1  0  0  0  0  0  0
  191.4760  176.8630  144.9880 C   0  0  0  0  0  0  0  0  0  0  0  0
  183.6910  179.6760  144.3130 C   0  0  0  0  0  2  0  0  0  0  0  0
  182.5660  178.6650  144.1260 C   0  0  0  0  0  2  0  0  0  0  0  0
  181.8140  178.9180  142.8580 C   0  0  0  0  0  0  0  0  0  0  0  0
  182.4060  178.7680  141.7570 O   0  0  0  0  0  0  0  0  0  0  0  0
  179.3810  178.3140  142.9390 N   0  0  0  0  0  1  0  0  0  0  0  0
  180.3960  179.3110  142.8790 C   0  0  0  0  0  0  0  0  0  0  0  0
  180.0600  180.5580  142.8440 N   0  0  0  0  0  2  0  0  0  0  0  0
  1 14  1  0  0  0  0
  1  5  1  0  0  0  0
  2  3  1  0  0  0  0
  3  7  1  0  0  0  0
  3 15  1  1  0  0  0
  4  2  1  0  0  0  0
  5 13  1  0  0  0  0
  6 10  1  0  0  0  0
  7  9  2  0  0  0  0
  8 13  1  0  0  0  0
  8  6  1  0  0  0  0
 10  2  2  0  0  0  0
 10 12  1  0  0  0  0
 11  1  2  0  0  0  0
 12  7  1  0  0  0  0
 13  4  2  0  0  0  0
 14  8  2  0  0  0  0
 17 15  1  0  0  0  0
 17 18  1  0  0  0  0
 18 16  2  0  0  0  0
 19 20  2  0  0  0  0
 20 18  1  0  0  0  0
 21 23  2  0  0  0  0
 22 23  1  0  0  0  0
 23 19  1  0  0  0  0
 24 12  1  0  0  0  0
 25 24  1  0  0  0  0
 26 29  1  0  0  0  0
 26 25  1  0  0  0  0
 27 26  2  0  0  0  0
 29 28  1  0  0  0  0
 30 29  2  0  0  0  0
M  END
>  <MODEL>
1

>  <REMARK>
 VINA RESULT:      -8.8      0.000      0.000
  Name = 
  8 active torsions:
  status: ('A' for Active; 'I' for Inactive)
    1  A    between atoms: C_3  and  C_11
    2  A    between atoms: C_8  and  C_17
    3  A    between atoms: C_9  and  C_24
    4  A    between atoms: C_10  and  C_17
    5  A    between atoms: C_10  and  C_21
    6  A    between atoms: C_11  and  N_16
    7  A    between atoms: N_14  and  C_25
    8  A    between atoms: C_21  and  N_28
                            x       y       z     vdW  Elec       q    Type
                         _______ _______ _______ _____ _____    ______ ____

>  <TORSDO>
F 8

$$$$
=
 OpenBabel11032419173D

 30 32  0  0  1  0  0  0  0  0999 V2000
  190.1960  177.1920  146.4420 C   0  0  0  0  0  0  0  0  0  0  0  0
  187.0690  177.9270  143.2240 C   0  0  0  0  0  0  0  0  0  0  0  0
  185.8500  178.0550  142.3590 C   0  0  2  0  0  3  0  0  0  0  0  0
  187.1210  177.5070  144.6480 C   0  0  0  0  0  3  0  0  0  0  0  0
  188.7100  177.0420  146.5880 C   0  0  0  0  0  2  0  0  0  0  0  0
  189.4650  178.1180  143.1130 O   0  0  0  0  0  0  0  0  0  0  0  0
  186.5090  178.4270  141.0630 C   0  0  0  0  0  0  0  0  0  0  0  0
  189.5340  177.7310  144.4550 C   0  0  0  0  0  0  0  0  0  0  0  0
  185.8990  178.5810  139.9720 O   0  0  0  0  0  0  0  0  0  0  0  0
  188.1850  178.2000  142.5370 C   0  0  0  0  0  0  0  0  0  0  0  0
  191.0340  176.9340  147.3890 N   0  0  0  0  0  2  0  0  0  0  0  0
  187.9200  178.5490  141.1920 N   0  0  0  0  0  0  0  0  0  0  0  0
  188.3310  177.4280  145.2090 C   0  0  0  0  0  0  0  0  0  0  0  0
  190.6180  177.6030  145.1390 N   0  0  0  0  0  0  0  0  0  0  0  0
  184.9810  179.1970  142.8630 C   0  0  0  0  0  2  0  0  0  0  0  0
  183.4980  179.3410  145.2710 O   0  0  0  0  0  0  0  0  0  0  0  0
  183.6090  178.7430  143.0220 N   0  0  0  0  0  2  0  0  0  0  0  0
  182.9100  178.8680  144.2590 C   0  0  0  0  0  0  0  0  0  0  0  0
  180.5160  178.7690  143.7080 C   0  0  0  0  0  3  0  0  0  0  0  0
  181.5710  178.3640  144.3560 N   0  0  0  0  0  0  0  0  0  0  0  0
  180.0710  180.9100  142.8300 O   0  0  0  0  0  1  0  0  0  0  0  0
  180.8620  179.3940  141.3150 O   0  0  0  0  0  0  0  0  0  0  0  0
  180.5030  179.7490  142.6090 C   0  0  0  0  0  0  0  0  0  0  0  0
  188.8900  178.6080  140.1060 C   0  0  0  0  0  2  0  0  0  0  0  0
  189.2660  177.2080  139.6320 C   0  0  0  0  0  2  0  0  0  0  0  0
  190.7500  177.0220  139.6130 C   0  0  0  0  0  0  0  0  0  0  0  0
  191.4450  177.5660  140.5110 O   0  0  0  0  0  0  0  0  0  0  0  0
  192.6980  176.5430  138.1090 N   0  0  0  0  0  1  0  0  0  0  0  0
  191.4000  176.1980  138.5820 C   0  0  0  0  0  0  0  0  0  0  0  0
  190.8030  175.1590  138.0980 N   0  0  0  0  0  2  0  0  0  0  0  0
  1  5  1  0  0  0  0
  1 11  2  0  0  0  0
  2  4  1  0  0  0  0
  3 15  1  1  0  0  0
  3  2  1  0  0  0  0
  4 13  2  0  0  0  0
  6  8  1  0  0  0  0
  7 12  1  0  0  0  0
  7  3  1  0  0  0  0
  8 14  2  0  0  0  0
  8 13  1  0  0  0  0
  9  7  2  0  0  0  0
 10  6  1  0  0  0  0
 10  2  2  0  0  0  0
 12 10  1  0  0  0  0
 13  5  1  0  0  0  0
 14  1  1  0  0  0  0
 15 17  1  0  0  0  0
 17 18  1  0  0  0  0
 18 20  1  0  0  0  0
 18 16  2  0  0  0  0
 19 20  2  0  0  0  0
 22 23  2  0  0  0  0
 23 21  1  0  0  0  0
 23 19  1  0  0  0  0
 24 12  1  0  0  0  0
 25 24  1  0  0  0  0
 26 25  1  0  0  0  0
 26 27  2  0  0  0  0
 28 29  1  0  0  0  0
 29 26  1  0  0  0  0
 30 29  2  0  0  0  0
M  END
>  <MODEL>
2

>  <REMARK>
 VINA RESULT:      -8.3      2.101      8.114
  Name = 
  8 active torsions:
  status: ('A' for Active; 'I' for Inactive)
    1  A    between atoms: C_3  and  C_11
    2  A    between atoms: C_8  and  C_17
    3  A    between atoms: C_9  and  C_24
    4  A    between atoms: C_10  and  C_17
    5  A    between atoms: C_10  and  C_21
    6  A    between atoms: C_11  and  N_16
    7  A    between atoms: N_14  and  C_25
    8  A    between atoms: C_21  and  N_28
                            x       y       z     vdW  Elec       q    Type
                         _______ _______ _______ _____ _____    ______ ____

>  <TORSDO>
F 8

$$$$
=
 OpenBabel11032419173D

 30 32  0  0  1  0  0  0  0  0999 V2000
  185.3830  178.3830  145.9910 C   0  0  0  0  0  0  0  0  0  0  0  0
  187.9660  177.5100  142.3520 C   0  0  0  0  0  0  0  0  0  0  0  0
  188.5690  177.2660  141.0010 C   0  0  2  0  0  3  0  0  0  0  0  0
  186.5900  177.9830  142.6510 C   0  0  0  0  0  3  0  0  0  0  0  0
  184.9800  178.5270  144.5530 C   0  0  0  0  0  2  0  0  0  0  0  0
  188.4870  177.3080  144.6930 O   0  0  0  0  0  0  0  0  0  0  0  0
  189.9100  176.7420  141.4230 C   0  0  0  0  0  0  0  0  0  0  0  0
  187.1970  177.7580  144.9940 C   0  0  0  0  0  0  0  0  0  0  0  0
  190.7910  176.3140  140.6300 O   0  0  0  0  0  0  0  0  0  0  0  0
  188.8240  177.2000  143.3320 C   0  0  0  0  0  0  0  0  0  0  0  0
  184.5870  178.6160  146.9800 N   0  0  0  0  0  2  0  0  0  0  0  0
  190.0670  176.7420  142.8370 N   0  0  0  0  0  0  0  0  0  0  0  0
  186.2570  178.0930  143.9400 C   0  0  0  0  0  0  0  0  0  0  0  0
  186.7210  177.9140  146.1800 N   0  0  0  0  0  0  0  0  0  0  0  0
  188.7210  178.5860  140.2610 C   0  0  0  0  0  2  0  0  0  0  0  0
  189.6560  178.0850  137.6360 O   0  0  0  0  0  0  0  0  0  0  0  0
  187.8880  178.5850  139.0690 N   0  0  0  0  0  2  0  0  0  0  0  0
  188.4200  178.2990  137.7760 C   0  0  0  0  0  0  0  0  0  0  0  0
  186.9250  177.3650  136.0610 C   0  0  0  0  0  3  0  0  0  0  0  0
  187.5490  178.3530  136.6390 N   0  0  0  0  0  0  0  0  0  0  0  0
  185.8260  175.5870  137.1480 O   0  0  0  0  0  1  0  0  0  0  0  0
  187.9570  175.1280  136.4660 O   0  0  0  0  0  0  0  0  0  0  0  0
  186.8630  175.9790  136.5540 C   0  0  0  0  0  0  0  0  0  0  0  0
  191.0990  176.0460  143.5970 C   0  0  0  0  0  2  0  0  0  0  0  0
  191.6430  176.9290  144.7150 C   0  0  0  0  0  2  0  0  0  0  0  0
  191.8010  176.1580  145.9870 C   0  0  0  0  0  0  0  0  0  0  0  0
  192.3600  175.0300  145.9510 O   0  0  0  0  0  0  0  0  0  0  0  0
  192.2810  177.0000  148.2990 N   0  0  0  0  0  1  0  0  0  0  0  0
  191.3400  176.7050  147.2720 C   0  0  0  0  0  0  0  0  0  0  0  0
  190.0830  176.9230  147.4800 N   0  0  0  0  0  2  0  0  0  0  0  0
  1 14  1  0  0  0  0
  1 11  2  0  0  0  0
  2  4  1  0  0  0  0
  2 10  2  0  0  0  0
  3 15  1  6  0  0  0
  3  7  1  0  0  0  0
  3  2  1  0  0  0  0
  4 13  2  0  0  0  0
  5  1  1  0  0  0  0
  6  8  1  0  0  0  0
  7 12  1  0  0  0  0
  8 14  2  0  0  0  0
  9  7  2  0  0  0  0
 10  6  1  0  0  0  0
 12 10  1  0  0  0  0
 12 24  1  0  0  0  0
 13  5  1  0  0  0  0
 13  8  1  0  0  0  0
 16 18  2  0  0  0  0
 17 15  1  0  0  0  0
 18 17  1  0  0  0  0
 19 23  1  0  0  0  0
 19 20  2  0  0  0  0
 20 18  1  0  0  0  0
 22 23  2  0  0  0  0
 23 21  1  0  0  0  0
 24 25  1  0  0  0  0
 25 26  1  0  0  0  0
 26 29  1  0  0  0  0
 27 26  2  0  0  0  0
 29 30  2  0  0  0  0
 29 28  1  0  0  0  0
M  END
>  <MODEL>
3

>  <REMARK>
 VINA RESULT:      -8.2      2.991      8.465
  Name = 
  8 active torsions:
  status: ('A' for Active; 'I' for Inactive)
    1  A    between atoms: C_3  and  C_11
    2  A    between atoms: C_8  and  C_17
    3  A    between atoms: C_9  and  C_24
    4  A    between atoms: C_10  and  C_17
    5  A    between atoms: C_10  and  C_21
    6  A    between atoms: C_11  and  N_16
    7  A    between atoms: N_14  and  C_25
    8  A    between atoms: C_21  and  N_28
                            x       y       z     vdW  Elec       q    Type
                         _______ _______ _______ _____ _____    ______ ____

>  <TORSDO>
F 8

$$$$
=
 OpenBabel11032419173D

 30 32  0  0  1  0  0  0  0  0999 V2000
  189.6180  177.6990  139.4890 C   0  0  0  0  0  0  0  0  0  0  0  0
  187.2420  177.5990  143.3640 C   0  0  0  0  0  0  0  0  0  0  0  0
  186.6580  177.3670  144.7260 C   0  0  2  0  0  3  0  0  0  0  0  0
  188.5180  177.0590  142.8290 C   0  0  0  0  0  3  0  0  0  0  0  0
  190.0000  176.9890  140.7550 C   0  0  0  0  0  2  0  0  0  0  0  0
  186.7350  178.6830  141.2760 O   0  0  0  0  0  0  0  0  0  0  0  0
  185.3660  178.1130  144.5680 C   0  0  0  0  0  0  0  0  0  0  0  0
  187.9360  178.1890  140.7570 C   0  0  0  0  0  0  0  0  0  0  0  0
  184.4580  178.1600  145.4400 O   0  0  0  0  0  0  0  0  0  0  0  0
  186.4310  178.3510  142.6080 C   0  0  0  0  0  0  0  0  0  0  0  0
  190.3250  177.6590  138.4100 N   0  0  0  0  0  2  0  0  0  0  0  0
  185.2570  178.7360  143.2940 N   0  0  0  0  0  0  0  0  0  0  0  0
  188.8200  177.3700  141.5650 C   0  0  0  0  0  0  0  0  0  0  0  0
  188.3700  178.3930  139.5610 N   0  0  0  0  0  0  0  0  0  0  0  0
  187.5320  178.0310  145.7780 C   0  0  0  0  0  2  0  0  0  0  0  0
  189.2680  178.3360  147.9940 O   0  0  0  0  0  0  0  0  0  0  0  0
  188.7150  177.2210  146.0250 N   0  0  0  0  0  2  0  0  0  0  0  0
  189.5340  177.4110  147.1770 C   0  0  0  0  0  0  0  0  0  0  0  0
  191.5700  176.2550  146.4250 C   0  0  0  0  0  3  0  0  0  0  0  0
  190.7070  176.6030  147.3370 N   0  0  0  0  0  0  0  0  0  0  0  0
  191.5940  175.9240  144.0920 O   0  0  0  0  0  0  0  0  0  0  0  0
  191.7500  178.1050  144.7560 O   0  0  0  0  0  1  0  0  0  0  0  0
  191.6060  176.7520  145.0390 C   0  0  0  0  0  0  0  0  0  0  0  0
  184.0450  179.2850  142.6960 C   0  0  0  0  0  2  0  0  0  0  0  0
  183.3570  178.2510  141.8110 C   0  0  0  0  0  2  0  0  0  0  0  0
  182.9350  178.8490  140.5060 C   0  0  0  0  0  0  0  0  0  0  0  0
  181.7470  179.2430  140.3710 O   0  0  0  0  0  0  0  0  0  0  0  0
  184.2070  177.8930  138.5690 N   0  0  0  0  0  2  0  0  0  0  0  0
  183.8890  179.0060  139.3970 C   0  0  0  0  0  0  0  0  0  0  0  0
  184.4450  180.1500  139.1660 N   0  0  0  0  0  1  0  0  0  0  0  0
  1 14  1  0  0  0  0
  1  5  1  0  0  0  0
  2  3  1  0  0  0  0
  3 15  1  1  0  0  0
  4  2  1  0  0  0  0
  5 13  1  0  0  0  0
  6 10  1  0  0  0  0
  7  3  1  0  0  0  0
  7  9  2  0  0  0  0
  8  6  1  0  0  0  0
  8 13  1  0  0  0  0
 10 12  1  0  0  0  0
 10  2  2  0  0  0  0
 11  1  2  0  0  0  0
 12  7  1  0  0  0  0
 13  4  2  0  0  0  0
 14  8  2  0  0  0  0
 15 17  1  0  0  0  0
 17 18  1  0  0  0  0
 18 20  1  0  0  0  0
 18 16  2  0  0  0  0
 19 20  2  0  0  0  0
 21 23  2  0  0  0  0
 22 23  1  0  0  0  0
 23 19  1  0  0  0  0
 24 12  1  0  0  0  0
 25 24  1  0  0  0  0
 26 25  1  0  0  0  0
 27 26  2  0  0  0  0
 28 29  2  0  0  0  0
 29 26  1  0  0  0  0
 30 29  1  0  0  0  0
M  END
>  <MODEL>
4

>  <REMARK>
 VINA RESULT:      -8.2      1.913      2.181
  Name = 
  8 active torsions:
  status: ('A' for Active; 'I' for Inactive)
    1  A    between atoms: C_3  and  C_11
    2  A    between atoms: C_8  and  C_17
    3  A    between atoms: C_9  and  C_24
    4  A    between atoms: C_10  and  C_17
    5  A    between atoms: C_10  and  C_21
    6  A    between atoms: C_11  and  N_16
    7  A    between atoms: N_14  and  C_25
    8  A    between atoms: C_21  and  N_28
                            x       y       z     vdW  Elec       q    Type
                         _______ _______ _______ _____ _____    ______ ____

>  <TORSDO>
F 8

$$$$
=
 OpenBabel11032419173D

 30 32  0  0  1  0  0  0  0  0999 V2000
  184.9940  178.5410  145.5680 C   0  0  0  0  0  0  0  0  0  0  0  0
  188.5280  177.4270  142.9340 C   0  0  0  0  0  0  0  0  0  0  0  0
  189.4880  176.9510  141.8850 C   0  0  2  0  0  3  0  0  0  0  0  0
  187.0450  177.4370  142.8570 C   0  0  0  0  0  3  0  0  0  0  0  0
  184.9320  178.0000  144.1700 C   0  0  0  0  0  2  0  0  0  0  0  0
  188.4950  178.2850  145.1820 O   0  0  0  0  0  0  0  0  0  0  0  0
  190.7780  177.1430  142.6280 C   0  0  0  0  0  0  0  0  0  0  0  0
  187.0980  178.3080  145.1260 C   0  0  0  0  0  0  0  0  0  0  0  0
  191.9110  176.8120  142.1890 O   0  0  0  0  0  0  0  0  0  0  0  0
  189.1720  177.8260  144.0380 C   0  0  0  0  0  0  0  0  0  0  0  0
  183.9470  178.8060  146.2760 N   0  0  0  0  0  2  0  0  0  0  0  0
  190.5760  177.7090  143.9180 N   0  0  0  0  0  0  0  0  0  0  0  0
  186.3890  177.8740  143.9370 C   0  0  0  0  0  0  0  0  0  0  0  0
  186.3210  178.6950  146.0780 N   0  0  0  0  0  0  0  0  0  0  0  0
  189.4270  177.8750  140.6780 C   0  0  0  0  0  2  0  0  0  0  0  0
  188.7080  179.2040  138.2840 O   0  0  0  0  0  0  0  0  0  0  0  0
  188.2970  177.5150  139.8350 N   0  0  0  0  0  2  0  0  0  0  0  0
  188.0050  178.2130  138.6250 C   0  0  0  0  0  0  0  0  0  0  0  0
  185.5980  178.0240  138.1580 C   0  0  0  0  0  3  0  0  0  0  0  0
  186.8530  177.8300  137.8630 N   0  0  0  0  0  0  0  0  0  0  0  0
  185.0130  178.2950  140.4240 O   0  0  0  0  0  1  0  0  0  0  0  0
  184.6080  180.1130  139.1020 O   0  0  0  0  0  0  0  0  0  0  0  0
  185.0920  178.8240  139.2860 C   0  0  0  0  0  0  0  0  0  0  0  0
  191.5460  177.7610  145.0050 C   0  0  0  0  0  2  0  0  0  0  0  0
  191.5540  176.4550  145.7930 C   0  0  0  0  0  2  0  0  0  0  0  0
  191.2920  176.6960  147.2450 C   0  0  0  0  0  0  0  0  0  0  0  0
  192.2440  176.5980  148.0630 O   0  0  0  0  0  0  0  0  0  0  0  0
  189.7290  178.3600  148.2850 N   0  0  0  0  0  1  0  0  0  0  0  0
  189.9520  177.0690  147.7250 C   0  0  0  0  0  0  0  0  0  0  0  0
  188.9690  176.2340  147.6450 N   0  0  0  0  0  2  0  0  0  0  0  0
  1 14  1  0  0  0  0
  1 11  2  0  0  0  0
  2 10  2  0  0  0  0
  3 15  1  6  0  0  0
  3  7  1  0  0  0  0
  3  2  1  0  0  0  0
  4  2  1  0  0  0  0
  4 13  2  0  0  0  0
  5  1  1  0  0  0  0
  7 12  1  0  0  0  0
  8  6  1  0  0  0  0
  8 14  2  0  0  0  0
  9  7  2  0  0  0  0
 10  6  1  0  0  0  0
 12 10  1  0  0  0  0
 12 24  1  0  0  0  0
 13  5  1  0  0  0  0
 13  8  1  0  0  0  0
 16 18  2  0  0  0  0
 17 15  1  0  0  0  0
 18 17  1  0  0  0  0
 19 23  1  0  0  0  0
 20 19  2  0  0  0  0
 20 18  1  0  0  0  0
 22 23  2  0  0  0  0
 23 21  1  0  0  0  0
 24 25  1  0  0  0  0
 25 26  1  0  0  0  0
 26 29  1  0  0  0  0
 26 27  2  0  0  0  0
 29 28  1  0  0  0  0
 30 29  2  0  0  0  0
M  END
>  <MODEL>
5

>  <REMARK>
 VINA RESULT:      -8.1      2.519      7.969
  Name = 
  8 active torsions:
  status: ('A' for Active; 'I' for Inactive)
    1  A    between atoms: C_3  and  C_11
    2  A    between atoms: C_8  and  C_17
    3  A    between atoms: C_9  and  C_24
    4  A    between atoms: C_10  and  C_17
    5  A    between atoms: C_10  and  C_21
    6  A    between atoms: C_11  and  N_16
    7  A    between atoms: N_14  and  C_25
    8  A    between atoms: C_21  and  N_28
                            x       y       z     vdW  Elec       q    Type
                         _______ _______ _______ _____ _____    ______ ____

>  <TORSDO>
F 8

$$$$
=
 OpenBabel11032419173D

 30 32  0  0  1  0  0  0  0  0999 V2000
  188.3970  177.2910  147.1880 C   0  0  0  0  0  0  0  0  0  0  0  0
  189.1260  177.9020  142.7410 C   0  0  0  0  0  0  0  0  0  0  0  0
  189.6500  178.1230  141.3540 C   0  0  2  0  0  3  0  0  0  0  0  0
  189.9210  177.6920  143.9790 C   0  0  0  0  0  3  0  0  0  0  0  0
  189.7290  177.3380  146.4980 C   0  0  0  0  0  2  0  0  0  0  0  0
  187.0550  177.8200  143.9640 O   0  0  0  0  0  0  0  0  0  0  0  0
  188.3510  178.3360  140.6330 C   0  0  0  0  0  0  0  0  0  0  0  0
  187.7860  177.6150  145.1390 C   0  0  0  0  0  0  0  0  0  0  0  0
  188.2520  178.6380  139.4140 O   0  0  0  0  0  0  0  0  0  0  0  0
  187.7890  177.9610  142.7730 C   0  0  0  0  0  0  0  0  0  0  0  0
  188.2620  177.1470  148.4630 N   0  0  0  0  0  2  0  0  0  0  0  0
  187.2280  178.1980  141.4960 N   0  0  0  0  0  0  0  0  0  0  0  0
  189.2350  177.5540  145.1180 C   0  0  0  0  0  0  0  0  0  0  0  0
  187.2790  177.4680  146.3140 N   0  0  0  0  0  0  0  0  0  0  0  0
  190.3340  176.8580  140.8570 C   0  0  0  0  0  2  0  0  0  0  0  0
  190.5630  175.2300  138.5520 O   0  0  0  0  0  0  0  0  0  0  0  0
  191.1650  177.1640  139.7030 N   0  0  0  0  0  2  0  0  0  0  0  0
  191.2150  176.3110  138.5600 C   0  0  0  0  0  0  0  0  0  0  0  0
  193.2990  176.2340  137.2580 C   0  0  0  0  0  3  0  0  0  0  0  0
  192.0850  176.6540  137.4740 N   0  0  0  0  0  0  0  0  0  0  0  0
  193.6710  173.9790  137.8330 O   0  0  0  0  0  0  0  0  0  0  0  0
  194.9260  175.4900  139.0010 O   0  0  0  0  0  1  0  0  0  0  0  0
  193.9940  175.1810  138.0180 C   0  0  0  0  0  0  0  0  0  0  0  0
  185.8600  178.6150  141.2160 C   0  0  0  0  0  2  0  0  0  0  0  0
  185.2580  179.3510  142.4070 C   0  0  0  0  0  2  0  0  0  0  0  0
  183.8500  178.9140  142.6600 C   0  0  0  0  0  0  0  0  0  0  0  0
  183.1590  178.4940  141.6950 O   0  0  0  0  0  0  0  0  0  0  0  0
  184.1090  179.2120  145.1360 N   0  0  0  0  0  1  0  0  0  0  0  0
  183.2750  178.9440  144.0140 C   0  0  0  0  0  0  0  0  0  0  0  0
  182.0140  178.7260  144.1970 N   0  0  0  0  0  2  0  0  0  0  0  0
  1 11  2  0  0  0  0
  2 10  2  0  0  0  0
  2  4  1  0  0  0  0
  3 15  1  6  0  0  0
  3  2  1  0  0  0  0
  4 13  2  0  0  0  0
  5  1  1  0  0  0  0
  6  8  1  0  0  0  0
  7  3  1  0  0  0  0
  7 12  1  0  0  0  0
  8 14  2  0  0  0  0
  9  7  2  0  0  0  0
 10  6  1  0  0  0  0
 12 10  1  0  0  0  0
 13  8  1  0  0  0  0
 13  5  1  0  0  0  0
 14  1  1  0  0  0  0
 16 18  2  0  0  0  0
 17 15  1  0  0  0  0
 18 17  1  0  0  0  0
 19 20  2  0  0  0  0
 19 23  1  0  0  0  0
 20 18  1  0  0  0  0
 21 23  2  0  0  0  0
 23 22  1  0  0  0  0
 24 12  1  0  0  0  0
 24 25  1  0  0  0  0
 25 26  1  0  0  0  0
 26 29  1  0  0  0  0
 27 26  2  0  0  0  0
 29 30  2  0  0  0  0
 29 28  1  0  0  0  0
M  END
>  <MODEL>
6

>  <REMARK>
 VINA RESULT:      -8.0      3.081      6.081
  Name = 
  8 active torsions:
  status: ('A' for Active; 'I' for Inactive)
    1  A    between atoms: C_3  and  C_11
    2  A    between atoms: C_8  and  C_17
    3  A    between atoms: C_9  and  C_24
    4  A    between atoms: C_10  and  C_17
    5  A    between atoms: C_10  and  C_21
    6  A    between atoms: C_11  and  N_16
    7  A    between atoms: N_14  and  C_25
    8  A    between atoms: C_21  and  N_28
                            x       y       z     vdW  Elec       q    Type
                         _______ _______ _______ _____ _____    ______ ____

>  <TORSDO>
F 8

$$$$
=
 OpenBabel11032419173D

 30 32  0  0  1  0  0  0  0  0999 V2000
  187.9750  177.5580  147.8130 C   0  0  0  0  0  0  0  0  0  0  0  0
  188.4610  177.8890  143.3050 C   0  0  0  0  0  0  0  0  0  0  0  0
  188.9090  177.9720  141.8760 C   0  0  2  0  0  3  0  0  0  0  0  0
  189.3010  177.5940  144.4940 C   0  0  0  0  0  3  0  0  0  0  0  0
  189.2420  177.3640  147.0340 C   0  0  0  0  0  2  0  0  0  0  0  0
  186.5000  178.1880  144.6660 O   0  0  0  0  0  0  0  0  0  0  0  0
  187.6110  178.3690  141.2360 C   0  0  0  0  0  0  0  0  0  0  0  0
  187.2730  177.9060  145.7980 C   0  0  0  0  0  0  0  0  0  0  0  0
  187.4720  178.6420  140.0140 O   0  0  0  0  0  0  0  0  0  0  0  0
  187.1570  178.1650  143.4230 C   0  0  0  0  0  0  0  0  0  0  0  0
  187.9120  177.4830  149.1000 N   0  0  0  0  0  2  0  0  0  0  0  0
  186.5480  178.4460  142.1780 N   0  0  0  0  0  0  0  0  0  0  0  0
  188.6880  177.6100  145.6820 C   0  0  0  0  0  0  0  0  0  0  0  0
  186.8380  177.8850  147.0100 N   0  0  0  0  0  0  0  0  0  0  0  0
  189.3430  176.5970  141.3930 C   0  0  0  0  0  2  0  0  0  0  0  0
  190.2240  177.5610  138.8810 O   0  0  0  0  0  0  0  0  0  0  0  0
  190.7310  176.6380  140.9590 N   0  0  0  0  0  2  0  0  0  0  0  0
  191.1090  177.1610  139.6870 C   0  0  0  0  0  0  0  0  0  0  0  0
  193.0600  176.3880  138.4070 C   0  0  0  0  0  3  0  0  0  0  0  0
  192.4910  177.1360  139.3090 N   0  0  0  0  0  0  0  0  0  0  0  0
  192.3430  175.7980  136.2410 O   0  0  0  0  0  0  0  0  0  0  0  0
  191.6510  174.3890  137.9010 O   0  0  0  0  0  1  0  0  0  0  0  0
  192.3650  175.4970  137.4620 C   0  0  0  0  0  0  0  0  0  0  0  0
  185.2470  179.0710  141.9710 C   0  0  0  0  0  2  0  0  0  0  0  0
  184.1850  178.0270  141.6440 C   0  0  0  0  0  2  0  0  0  0  0  0
  183.2920  178.4910  140.5370 C   0  0  0  0  0  0  0  0  0  0  0  0
  182.0450  178.4510  140.7020 O   0  0  0  0  0  0  0  0  0  0  0  0
  183.8780  180.4160  139.0410 N   0  0  0  0  0  1  0  0  0  0  0  0
  183.8480  179.0120  139.2780 C   0  0  0  0  0  0  0  0  0  0  0  0
  184.3090  178.2050  138.3800 N   0  0  0  0  0  2  0  0  0  0  0  0
  1 11  2  0  0  0  0
  2 10  2  0  0  0  0
  2  4  1  0  0  0  0
  3 15  1  6  0  0  0
  3  2  1  0  0  0  0
  4 13  2  0  0  0  0
  5  1  1  0  0  0  0
  6  8  1  0  0  0  0
  7  3  1  0  0  0  0
  7 12  1  0  0  0  0
  8 14  2  0  0  0  0
  9  7  2  0  0  0  0
 10  6  1  0  0  0  0
 12 10  1  0  0  0  0
 13  8  1  0  0  0  0
 13  5  1  0  0  0  0
 14  1  1  0  0  0  0
 16 18  2  0  0  0  0
 17 15  1  0  0  0  0
 18 17  1  0  0  0  0
 19 20  2  0  0  0  0
 20 18  1  0  0  0  0
 21 23  2  0  0  0  0
 23 22  1  0  0  0  0
 23 19  1  0  0  0  0
 24 12  1  0  0  0  0
 25 24  1  0  0  0  0
 26 27  2  0  0  0  0
 26 25  1  0  0  0  0
 28 29  1  0  0  0  0
 29 26  1  0  0  0  0
 30 29  2  0  0  0  0
M  END
>  <MODEL>
7

>  <REMARK>
 VINA RESULT:      -7.7      3.266      5.980
  Name = 
  8 active torsions:
  status: ('A' for Active; 'I' for Inactive)
    1  A    between atoms: C_3  and  C_11
    2  A    between atoms: C_8  and  C_17
    3  A    between atoms: C_9  and  C_24
    4  A    between atoms: C_10  and  C_17
    5  A    between atoms: C_10  and  C_21
    6  A    between atoms: C_11  and  N_16
    7  A    between atoms: N_14  and  C_25
    8  A    between atoms: C_21  and  N_28
                            x       y       z     vdW  Elec       q    Type
                         _______ _______ _______ _____ _____    ______ ____

>  <TORSDO>
F 8

$$$$
=
 OpenBabel11032419173D

 30 32  0  0  1  0  0  0  0  0999 V2000
  190.5780  177.2120  145.8880 C   0  0  0  0  0  0  0  0  0  0  0  0
  187.1730  177.9300  142.9610 C   0  0  0  0  0  0  0  0  0  0  0  0
  185.8840  178.0430  142.2040 C   0  0  2  0  0  3  0  0  0  0  0  0
  187.3550  177.4790  144.3640 C   0  0  0  0  0  3  0  0  0  0  0  0
  189.1140  177.0150  146.1530 C   0  0  0  0  0  2  0  0  0  0  0  0
  189.5460  178.1950  142.6560 O   0  0  0  0  0  0  0  0  0  0  0  0
  186.4210  178.4650  140.8680 C   0  0  0  0  0  0  0  0  0  0  0  0
  189.7370  177.7790  143.9780 C   0  0  0  0  0  0  0  0  0  0  0  0
  185.7180  178.6270  139.8350 O   0  0  0  0  0  0  0  0  0  0  0  0
  188.2200  178.2530  142.1910 C   0  0  0  0  0  0  0  0  0  0  0  0
  191.4980  176.9560  146.7550 N   0  0  0  0  0  2  0  0  0  0  0  0
  187.8340  178.6260  140.8830 N   0  0  0  0  0  0  0  0  0  0  0  0
  188.6110  177.4220  144.8200 C   0  0  0  0  0  0  0  0  0  0  0  0
  190.8770  177.6660  144.5650 N   0  0  0  0  0  0  0  0  0  0  0  0
  185.0290  179.1470  142.8080 C   0  0  0  0  0  2  0  0  0  0  0  0
  183.5340  179.3800  145.2010 O   0  0  0  0  0  0  0  0  0  0  0  0
  183.6640  178.6770  142.9840 N   0  0  0  0  0  2  0  0  0  0  0  0
  182.9580  178.8490  144.2110 C   0  0  0  0  0  0  0  0  0  0  0  0
  180.5530  178.7310  143.7110 C   0  0  0  0  0  3  0  0  0  0  0  0
  181.6280  178.3270  144.3270 N   0  0  0  0  0  0  0  0  0  0  0  0
  180.0490  180.8790  142.8820 O   0  0  0  0  0  1  0  0  0  0  0  0
  180.8540  179.4120  141.3270 O   0  0  0  0  0  0  0  0  0  0  0  0
  180.5040  179.7330  142.6330 C   0  0  0  0  0  0  0  0  0  0  0  0
  188.7080  178.7390  139.7210 C   0  0  0  0  0  2  0  0  0  0  0  0
  188.9250  177.3790  139.0660 C   0  0  0  0  0  2  0  0  0  0  0  0
  189.1120  177.5120  137.5880 C   0  0  0  0  0  0  0  0  0  0  0  0
  189.4320  178.6330  137.1120 O   0  0  0  0  0  0  0  0  0  0  0  0
  188.9220  176.5460  135.2820 N   0  0  0  0  0  2  0  0  0  0  0  0
  188.9520  176.3560  136.6930 C   0  0  0  0  0  0  0  0  0  0  0  0
  188.8360  175.1620  137.1760 N   0  0  0  0  0  1  0  0  0  0  0  0
  1  5  1  0  0  0  0
  1 11  2  0  0  0  0
  2  4  1  0  0  0  0
  3 15  1  1  0  0  0
  3  2  1  0  0  0  0
  4 13  2  0  0  0  0
  6  8  1  0  0  0  0
  7 12  1  0  0  0  0
  7  3  1  0  0  0  0
  8 14  2  0  0  0  0
  8 13  1  0  0  0  0
  9  7  2  0  0  0  0
 10  6  1  0  0  0  0
 10  2  2  0  0  0  0
 12 10  1  0  0  0  0
 13  5  1  0  0  0  0
 14  1  1  0  0  0  0
 15 17  1  0  0  0  0
 17 18  1  0  0  0  0
 18 20  1  0  0  0  0
 18 16  2  0  0  0  0
 19 20  2  0  0  0  0
 22 23  2  0  0  0  0
 23 21  1  0  0  0  0
 23 19  1  0  0  0  0
 24 12  1  0  0  0  0
 25 24  1  0  0  0  0
 26 25  1  0  0  0  0
 27 26  2  0  0  0  0
 28 29  2  0  0  0  0
 29 30  1  0  0  0  0
 29 26  1  0  0  0  0
M  END
>  <MODEL>
8

>  <REMARK>
 VINA RESULT:      -7.6      2.345      7.794
  Name = 
  8 active torsions:
  status: ('A' for Active; 'I' for Inactive)
    1  A    between atoms: C_3  and  C_11
    2  A    between atoms: C_8  and  C_17
    3  A    between atoms: C_9  and  C_24
    4  A    between atoms: C_10  and  C_17
    5  A    between atoms: C_10  and  C_21
    6  A    between atoms: C_11  and  N_16
    7  A    between atoms: N_14  and  C_25
    8  A    between atoms: C_21  and  N_28
                            x       y       z     vdW  Elec       q    Type
                         _______ _______ _______ _____ _____    ______ ____

>  <TORSDO>
F 8

$$$$
=
 OpenBabel11032419173D

 30 32  0  0  1  0  0  0  0  0999 V2000
  190.5110  176.8590  146.3400 C   0  0  0  0  0  0  0  0  0  0  0  0
  189.9700  177.5560  141.8800 C   0  0  0  0  0  0  0  0  0  0  0  0
  190.0820  177.7330  140.3950 C   0  0  2  0  0  3  0  0  0  0  0  0
  191.0310  177.0940  142.8120 C   0  0  0  0  0  3  0  0  0  0  0  0
  191.5400  176.6410  145.2700 C   0  0  0  0  0  2  0  0  0  0  0  0
  188.4140  177.8770  143.6860 O   0  0  0  0  0  0  0  0  0  0  0  0
  188.7140  178.2820  140.1110 C   0  0  0  0  0  0  0  0  0  0  0  0
  189.3980  177.4380  144.5790 C   0  0  0  0  0  0  0  0  0  0  0  0
  188.3230  178.6720  138.9790 O   0  0  0  0  0  0  0  0  0  0  0  0
  188.7610  177.9170  142.3240 C   0  0  0  0  0  0  0  0  0  0  0  0
  190.7410  176.6740  147.5970 N   0  0  0  0  0  2  0  0  0  0  0  0
  187.9100  178.3530  141.2820 N   0  0  0  0  0  0  0  0  0  0  0  0
  190.7140  177.0480  144.1090 C   0  0  0  0  0  0  0  0  0  0  0  0
  189.2550  177.3410  145.8550 N   0  0  0  0  0  0  0  0  0  0  0  0
  190.2610  176.3780  139.7280 C   0  0  0  0  0  2  0  0  0  0  0  0
  190.9240  174.2760  137.9520 O   0  0  0  0  0  0  0  0  0  0  0  0
  191.1980  176.4900  138.6210 N   0  0  0  0  0  2  0  0  0  0  0  0
  191.4680  175.3960  137.7460 C   0  0  0  0  0  0  0  0  0  0  0  0
  193.7030  175.2820  136.7270 C   0  0  0  0  0  3  0  0  0  0  0  0
  192.4310  175.5650  136.6980 N   0  0  0  0  0  0  0  0  0  0  0  0
  195.0480  175.2450  138.6610 O   0  0  0  0  0  1  0  0  0  0  0  0
  194.4510  173.1880  137.8640 O   0  0  0  0  0  0  0  0  0  0  0  0
  194.4040  174.5760  137.8120 C   0  0  0  0  0  0  0  0  0  0  0  0
  186.6610  179.0900  141.4350 C   0  0  0  0  0  2  0  0  0  0  0  0
  185.4960  178.1420  141.6980 C   0  0  0  0  0  2  0  0  0  0  0  0
  184.3120  178.4890  140.8530 C   0  0  0  0  0  0  0  0  0  0  0  0
  183.1620  178.4330  141.3620 O   0  0  0  0  0  0  0  0  0  0  0  0
  184.9450  177.9950  138.4780 N   0  0  0  0  0  2  0  0  0  0  0  0
  184.4740  178.9170  139.4550 C   0  0  0  0  0  0  0  0  0  0  0  0
  184.1920  180.1280  139.1020 N   0  0  0  0  0  1  0  0  0  0  0  0
  1 11  2  0  0  0  0
  2 10  2  0  0  0  0
  2  4  1  0  0  0  0
  3 15  1  6  0  0  0
  3  2  1  0  0  0  0
  4 13  2  0  0  0  0
  5  1  1  0  0  0  0
  6  8  1  0  0  0  0
  7  3  1  0  0  0  0
  7 12  1  0  0  0  0
  8 14  2  0  0  0  0
  9  7  2  0  0  0  0
 10  6  1  0  0  0  0
 12 24  1  0  0  0  0
 12 10  1  0  0  0  0
 13  8  1  0  0  0  0
 13  5  1  0  0  0  0
 14  1  1  0  0  0  0
 17 15  1  0  0  0  0
 18 16  2  0  0  0  0
 18 17  1  0  0  0  0
 19 23  1  0  0  0  0
 20 19  2  0  0  0  0
 20 18  1  0  0  0  0
 23 22  2  0  0  0  0
 23 21  1  0  0  0  0
 24 25  1  0  0  0  0
 26 27  2  0  0  0  0
 26 25  1  0  0  0  0
 28 29  2  0  0  0  0
 29 26  1  0  0  0  0
 30 29  1  0  0  0  0
M  END
>  <MODEL>
9

>  <REMARK>
 VINA RESULT:      -7.6      3.552      6.710
  Name = 
  8 active torsions:
  status: ('A' for Active; 'I' for Inactive)
    1  A    between atoms: C_3  and  C_11
    2  A    between atoms: C_8  and  C_17
    3  A    between atoms: C_9  and  C_24
    4  A    between atoms: C_10  and  C_17
    5  A    between atoms: C_10  and  C_21
    6  A    between atoms: C_11  and  N_16
    7  A    between atoms: N_14  and  C_25
    8  A    between atoms: C_21  and  N_28
                            x       y       z     vdW  Elec       q    Type
                         _______ _______ _______ _____ _____    ______ ____

>  <TORSDO>
F 8

$$$$
