=
 OpenBabel11042411403D

 65 69  0  0  1  0  0  0  0  0999 V2000
  194.7580  173.9740  137.6380 C   0  0  0  0  0  0  0  0  0  0  0  0
  188.6420  173.6670  138.2890 C   0  0  0  0  0  1  0  0  0  0  0  0
  190.7800  177.3780  138.6830 C   0  0  0  0  0  2  0  0  0  0  0  0
  193.5050  176.1990  137.3660 C   0  0  0  0  0  2  0  0  0  0  0  0
  193.4700  171.3180  134.9310 S   0  0  0  0  0  0  0  0  0  0  0  0
  194.4680  175.3240  138.0200 N   0  0  0  0  0  2  0  0  0  0  0  0
  190.3930  174.6580  136.7420 C   0  0  0  0  0  2  0  0  0  0  0  0
  189.2100  174.9350  137.6690 C   0  0  1  0  0  3  0  0  0  0  0  0
  189.1690  178.0120  140.5270 C   0  0  0  0  0  0  0  0  0  0  0  0
  195.7320  173.2690  138.3640 C   0  0  0  0  0  3  0  0  0  0  0  0
  195.3790  171.2910  136.9900 C   0  0  0  0  0  3  0  0  0  0  0  0
  188.1670  175.6790  136.9810 N   0  0  0  0  0  2  0  0  0  0  0  0
  192.3820  172.8150  134.9700 C   0  0  1  0  0  3  0  0  0  0  0  0
  188.0230  178.4000  140.8830 O   0  0  0  0  0  0  0  0  0  0  0  0
  194.1050  173.3010  136.5800 C   0  0  0  0  0  0  0  0  0  0  0  0
  188.5730  177.0810  136.8820 C   0  0  2  0  0  3  0  0  0  0  0  0
  188.3090  177.8150  138.1970 C   0  0  0  0  0  2  0  0  0  0  0  0
  194.4410  172.0040  136.2530 C   0  0  0  0  0  0  0  0  0  0  0  0
  190.2090  177.6840  141.5710 C   0  0  1  0  0  3  0  0  0  0  0  0
  190.9790  172.4520  135.5020 C   0  0  1  0  0  3  0  0  0  0  0  0
  189.4370  177.7680  139.1370 N   0  0  0  0  0  0  0  0  0  0  0  0
  191.8680  177.6050  139.7040 C   0  0  0  0  0  0  0  0  0  0  0  0
  196.0370  171.9340  138.0490 C   0  0  0  0  0  3  0  0  0  0  0  0
  189.2070  173.9090  134.8460 O   0  0  0  0  0  0  0  0  0  0  0  0
  193.0180  173.8140  135.8280 N   0  0  0  0  0  2  0  0  0  0  0  0
  193.2140  177.6360  139.3030 O   0  0  0  0  0  0  0  0  0  0  0  0
  193.6260  177.6060  137.9330 C   0  0  0  0  0  2  0  0  0  0  0  0
  190.1090  173.6840  135.6300 C   0  0  0  0  0  0  0  0  0  0  0  0
  191.5930  177.7500  140.9960 C   0  0  0  0  0  3  0  0  0  0  0  0
  187.7680  177.7340  135.7550 C   0  0  0  0  0  3  0  0  0  0  0  0
  186.4040  178.1020  136.3070 C   0  0  0  0  0  2  0  0  0  0  0  0
  186.5630  176.8900  135.4170 C   0  0  0  0  0  2  0  0  0  0  0  0
  190.3190  171.4080  134.5950 C   0  0  0  0  0  2  0  0  0  0  0  0
  190.2240  170.0640  135.2950 C   0  0  0  0  0  2  0  0  0  0  0  0
  188.8280  169.6300  135.3250 N   0  0  0  0  0  2  0  0  0  0  0  0
  188.0640  170.6710  134.7640 N   0  0  0  0  0  2  0  0  0  0  0  0
  185.9480  171.5960  135.6740 C   0  0  0  0  0  0  0  0  0  0  0  0
  186.4990  172.6920  135.9600 O   0  0  0  0  0  0  0  0  0  0  0  0
  186.7380  170.4940  135.2020 N   0  0  0  0  0  2  0  0  0  0  0  0
  184.4660  171.4380  135.8180 C   0  0  0  0  0  2  0  0  0  0  0  0
  183.9000  172.4990  136.7490 C   0  0  0  0  0  2  0  0  0  0  0  0
  182.6680  173.2210  136.1990 C   0  0  0  0  0  2  0  0  0  0  0  0
  182.1280  175.4570  137.2150 C   0  0  0  0  0  1  0  0  0  0  0  0
  182.8540  174.7340  136.0890 C   0  0  2  0  0  3  0  0  0  0  0  0
  182.3870  175.1970  134.8590 O   0  0  0  0  0  1  0  0  0  0  0  0
  190.1340  178.5740  142.6500 O   0  0  0  0  0  0  0  0  0  0  0  0
  189.3190  177.9480  143.5980 C   0  0  0  0  0  2  0  0  0  0  0  0
  191.4300  177.0670  144.4010 O   0  0  0  0  0  1  0  0  0  0  0  0
  190.0640  176.7900  144.2830 C   0  0  1  0  0  3  0  0  0  0  0  0
  189.4520  176.4490  145.6530 C   0  0  1  0  0  3  0  0  0  0  0  0
  190.6360  178.2980  146.6770 O   0  0  0  0  0  1  0  0  0  0  0  0
  191.4700  176.2100  146.9710 O   0  0  0  0  0  1  0  0  0  0  0  0
  190.2920  176.9570  146.8520 C   0  0  0  0  0  3  0  0  0  0  0  0
  188.1450  176.9550  145.7190 O   0  0  0  0  0  0  0  0  0  0  0  0
  187.8540  177.0200  147.0840 C   0  0  0  0  0  2  0  0  0  0  0  0
  187.2270  178.3640  147.4290 C   0  0  0  0  0  2  0  0  0  0  0  0
  186.6090  179.0200  146.1990 C   0  0  0  0  0  2  0  0  0  0  0  0
  185.4610  178.2490  145.7480 N   0  0  0  0  0  2  0  0  0  0  0  0
  184.9080  178.9490  144.5980 C   0  0  0  0  0  2  0  0  0  0  0  0
  185.3400  178.2480  143.3200 C   0  0  0  0  0  2  0  0  0  0  0  0
  184.1660  177.3640  141.0130 O   0  0  0  0  0  0  0  0  0  0  0  0
  184.1740  178.5530  141.9480 P   0  0  2  0  0  0  0  0  0  0  0  0
  184.6410  179.9530  141.1130 O   0  0  0  0  0  1  0  0  0  0  0  0
  181.7780  178.9600  141.4910 C   0  0  0  0  0  1  0  0  0  0  0  0
  182.6280  178.7860  142.5960 O   0  0  0  0  0  0  0  0  0  0  0  0
  1  6  1  0  0  0  0
  1 10  1  0  0  0  0
  3 21  1  0  0  0  0
  3 22  1  0  0  0  0
  4 27  1  0  0  0  0
  4  6  1  0  0  0  0
  5 18  1  0  0  0  0
  7  8  1  0  0  0  0
  8  2  1  6  0  0  0
  9 14  2  0  0  0  0
  9 19  1  0  0  0  0
 11 23  1  0  0  0  0
 12  8  1  0  0  0  0
 13  5  1  1  0  0  0
 13 20  1  0  0  0  0
 13 25  1  0  0  0  0
 15  1  2  0  0  0  0
 16 30  1  6  0  0  0
 16 12  1  0  0  0  0
 16 17  1  0  0  0  0
 17 21  1  0  0  0  0
 18 15  1  0  0  0  0
 18 11  2  0  0  0  0
 19 46  1  1  0  0  0
 20 33  1  6  0  0  0
 20 28  1  0  0  0  0
 21  9  1  0  0  0  0
 22 29  2  0  0  0  0
 23 10  2  0  0  0  0
 24 28  2  0  0  0  0
 25 15  1  0  0  0  0
 26 22  1  0  0  0  0
 27 26  1  0  0  0  0
 28  7  1  0  0  0  0
 29 19  1  0  0  0  0
 30 31  1  0  0  0  0
 32 30  1  0  0  0  0
 32 31  1  0  0  0  0
 33 34  1  0  0  0  0
 34 35  1  0  0  0  0
 36 39  1  0  0  0  0
 36 35  1  0  0  0  0
 37 40  1  0  0  0  0
 37 38  2  0  0  0  0
 39 37  1  0  0  0  0
 40 41  1  0  0  0  0
 42 41  1  0  0  0  0
 44 42  1  0  0  0  0
 44 43  1  1  0  0  0
 45 44  1  0  0  0  0
 46 47  1  0  0  0  0
 47 49  1  0  0  0  0
 49 48  1  1  0  0  0
 49 50  1  0  0  0  0
 50 54  1  6  0  0  0
 50 53  1  0  0  0  0
 51 53  1  0  0  0  0
 53 52  1  0  0  0  0
 54 55  1  0  0  0  0
 55 56  1  0  0  0  0
 57 56  1  0  0  0  0
 58 57  1  0  0  0  0
 59 58  1  0  0  0  0
 60 59  1  0  0  0  0
 62 61  2  6  0  0  0
 62 65  1  0  0  0  0
 62 60  1  0  0  0  0
 63 62  1  0  0  0  0
 64 65  1  0  0  0  0
M  END
>  <MODEL>
1

>  <REMARK>
 VINA RESULT:      -1.4      0.000      0.000
  Name = 
  24 active torsions:
  status: ('A' for Active; 'I' for Inactive)
    1  A    between atoms: C_1  and  O_15
    2  A    between atoms: C_1  and  C_58
    3  A    between atoms: C_3  and  C_37
    4  A    between atoms: C_4  and  N_48
    5  A    between atoms: C_4  and  C_62
    6  A    between atoms: C_5  and  O_15
    7  A    between atoms: C_5  and  C_19
    8  A    between atoms: C_5  and  C_64
    9  A    between atoms: C_9  and  C_52
   10  A    between atoms: O_11  and  C_42
   11  A    between atoms: O_11  and  C_46
   12  A    between atoms: C_14  and  C_63
   13  A    between atoms: O_22  and  P_41
   14  A    between atoms: C_24  and  C_43
   15  A    between atoms: C_24  and  C_53
   16  A    between atoms: C_28  and  N_48
   17  A    between atoms: C_28  and  C_58
   18  A    between atoms: N_40  and  N_49
   19  A    between atoms: P_41  and  C_62
   20  A    between atoms: C_46  and  C_64
   21  A    between atoms: C_47  and  C_52
   22  A    between atoms: C_47  and  C_63
   23  A    between atoms: N_49  and  N_50
   24  A    between atoms: N_50  and  C_53
                            x       y       z     vdW  Elec       q    Type
                         _______ _______ _______ _____ _____    ______ ____

>  <TORSDO>
F 24

$$$$
=
 OpenBabel11042411403D

 65 69  0  0  1  0  0  0  0  0999 V2000
  187.7170  177.0310  138.0540 C   0  0  0  0  0  0  0  0  0  0  0  0
  181.8120  175.5790  139.0260 C   0  0  0  0  0  1  0  0  0  0  0  0
  183.6060  179.0720  140.7800 C   0  0  0  0  0  2  0  0  0  0  0  0
  186.2250  178.9580  138.8610 C   0  0  0  0  0  2  0  0  0  0  0  0
  186.3350  175.5620  134.5940 S   0  0  0  0  0  0  0  0  0  0  0  0
  187.3510  178.0450  138.9970 N   0  0  0  0  0  2  0  0  0  0  0  0
  183.2240  177.3660  137.9070 C   0  0  0  0  0  2  0  0  0  0  0  0
  182.1600  177.0580  138.9590 C   0  0  1  0  0  3  0  0  0  0  0  0
  182.2120  178.6470  142.8470 C   0  0  0  0  0  0  0  0  0  0  0  0
  188.8480  176.2420  138.3260 C   0  0  0  0  0  3  0  0  0  0  0  0
  188.5050  174.9750  136.2770 C   0  0  0  0  0  3  0  0  0  0  0  0
  180.9630  177.8550  138.7440 N   0  0  0  0  0  2  0  0  0  0  0  0
  185.1200  176.7300  135.3570 C   0  0  1  0  0  3  0  0  0  0  0  0
  181.0940  178.6790  143.4300 O   0  0  0  0  0  0  0  0  0  0  0  0
  186.9930  176.7620  136.8700 C   0  0  0  0  0  0  0  0  0  0  0  0
  181.2100  179.2180  139.2160 C   0  0  2  0  0  3  0  0  0  0  0  0
  181.0600  179.2990  140.7370 C   0  0  0  0  0  2  0  0  0  0  0  0
  187.4070  175.7790  135.9950 C   0  0  0  0  0  0  0  0  0  0  0  0
  183.4140  178.0770  143.5600 C   0  0  1  0  0  3  0  0  0  0  0  0
  183.8470  175.9780  135.8020 C   0  0  1  0  0  3  0  0  0  0  0  0
  182.3070  179.0380  141.4680 N   0  0  0  0  0  0  0  0  0  0  0  0
  184.7980  179.0190  141.7050 C   0  0  0  0  0  0  0  0  0  0  0  0
  189.2370  175.2160  137.4480 C   0  0  0  0  0  3  0  0  0  0  0  0
  181.8660  177.2950  135.9790 O   0  0  0  0  0  0  0  0  0  0  0  0
  185.7670  177.3720  136.5020 N   0  0  0  0  0  2  0  0  0  0  0  0
  186.0640  179.4110  141.2420 O   0  0  0  0  0  0  0  0  0  0  0  0
  186.2830  180.0080  139.9600 C   0  0  0  0  0  2  0  0  0  0  0  0
  182.8860  176.9040  136.5140 C   0  0  0  0  0  0  0  0  0  0  0  0
  184.6910  178.5780  142.9530 C   0  0  0  0  0  3  0  0  0  0  0  0
  180.1960  180.1490  138.5470 C   0  0  0  0  0  3  0  0  0  0  0  0
  179.7500  179.5000  137.2510 C   0  0  0  0  0  2  0  0  0  0  0  0
  180.7350  180.6470  137.2280 C   0  0  0  0  0  2  0  0  0  0  0  0
  183.1740  175.3130  134.5950 C   0  0  0  0  0  2  0  0  0  0  0  0
  182.8810  173.8500  134.8760 C   0  0  0  0  0  2  0  0  0  0  0  0
  181.4670  173.6950  135.2130 N   0  0  0  0  0  2  0  0  0  0  0  0
  181.3680  172.5710  136.0540 N   0  0  0  0  0  2  0  0  0  0  0  0
  183.6560  171.6710  136.3960 C   0  0  0  0  0  0  0  0  0  0  0  0
  183.4830  170.7800  135.5220 O   0  0  0  0  0  0  0  0  0  0  0  0
  182.5590  172.5050  136.8000 N   0  0  0  0  0  2  0  0  0  0  0  0
  185.0050  171.8680  137.0120 C   0  0  0  0  0  2  0  0  0  0  0  0
  186.0430  172.1810  135.9470 C   0  0  0  0  0  2  0  0  0  0  0  0
  187.3930  171.4940  136.1670 C   0  0  0  0  0  2  0  0  0  0  0  0
  186.5390  169.7150  134.6080 C   0  0  0  0  0  1  0  0  0  0  0  0
  187.7580  170.5080  135.0570 C   0  0  2  0  0  3  0  0  0  0  0  0
  188.7530  169.6320  135.4880 O   0  0  0  0  0  1  0  0  0  0  0  0
  183.4020  178.4230  144.9170 O   0  0  0  0  0  0  0  0  0  0  0  0
  184.6580  178.9820  145.1730 C   0  0  0  0  0  2  0  0  0  0  0  0
  184.2630  177.7390  147.2170 O   0  0  0  0  0  1  0  0  0  0  0  0
  185.1230  178.6540  146.6020 C   0  0  1  0  0  3  0  0  0  0  0  0
  186.5760  178.1460  146.6280 C   0  0  1  0  0  3  0  0  0  0  0  0
  187.6430  179.3370  148.4480 O   0  0  0  0  0  1  0  0  0  0  0  0
  188.2630  177.1880  148.0760 O   0  0  0  0  0  1  0  0  0  0  0  0
  187.1850  178.0790  148.0510 C   0  0  0  0  0  3  0  0  0  0  0  0
  186.6420  176.8910  146.0040 O   0  0  0  0  0  0  0  0  0  0  0  0
  186.9520  177.1710  144.6700 C   0  0  0  0  0  2  0  0  0  0  0  0
  187.7180  178.4840  144.5680 C   0  0  0  0  0  2  0  0  0  0  0  0
  189.2110  178.2430  144.3770 C   0  0  0  0  0  2  0  0  0  0  0  0
  189.8580  178.0810  145.6700 N   0  0  0  0  0  2  0  0  0  0  0  0
  191.2840  177.9380  145.4130 C   0  0  0  0  0  2  0  0  0  0  0  0
  191.6540  176.4640  145.4110 C   0  0  0  0  0  2  0  0  0  0  0  0
  189.9320  175.8970  143.3630 O   0  0  0  0  0  0  0  0  0  0  0  0
  191.3710  175.6930  143.7800 P   0  0  2  0  0  0  0  0  0  0  0  0
  191.7250  174.0370  143.8720 O   0  0  0  0  0  1  0  0  0  0  0  0
  191.6960  177.5160  142.1420 C   0  0  0  0  0  1  0  0  0  0  0  0
  192.4050  176.4170  142.6540 O   0  0  0  0  0  0  0  0  0  0  0  0
  1 10  1  0  0  0  0
  1  6  1  0  0  0  0
  3 21  1  0  0  0  0
  3 22  1  0  0  0  0
  4  6  1  0  0  0  0
  4 27  1  0  0  0  0
  5 18  1  0  0  0  0
  7  8  1  0  0  0  0
  8  2  1  6  0  0  0
  9 14  2  0  0  0  0
  9 19  1  0  0  0  0
 11 23  1  0  0  0  0
 12  8  1  0  0  0  0
 12 16  1  0  0  0  0
 13  5  1  1  0  0  0
 13 20  1  0  0  0  0
 13 25  1  0  0  0  0
 15  1  2  0  0  0  0
 16 30  1  6  0  0  0
 16 17  1  0  0  0  0
 17 21  1  0  0  0  0
 18 11  2  0  0  0  0
 18 15  1  0  0  0  0
 19 46  1  1  0  0  0
 20 33  1  6  0  0  0
 20 28  1  0  0  0  0
 21  9  1  0  0  0  0
 22 29  2  0  0  0  0
 23 10  2  0  0  0  0
 24 28  2  0  0  0  0
 25 15  1  0  0  0  0
 26 22  1  0  0  0  0
 27 26  1  0  0  0  0
 28  7  1  0  0  0  0
 29 19  1  0  0  0  0
 31 30  1  0  0  0  0
 32 31  1  0  0  0  0
 32 30  1  0  0  0  0
 33 34  1  0  0  0  0
 34 35  1  0  0  0  0
 35 36  1  0  0  0  0
 36 39  1  0  0  0  0
 37 39  1  0  0  0  0
 37 40  1  0  0  0  0
 38 37  2  0  0  0  0
 41 42  1  0  0  0  0
 41 40  1  0  0  0  0
 44 43  1  1  0  0  0
 44 45  1  0  0  0  0
 44 42  1  0  0  0  0
 46 47  1  0  0  0  0
 47 49  1  0  0  0  0
 49 50  1  0  0  0  0
 49 48  1  6  0  0  0
 50 54  1  1  0  0  0
 50 53  1  0  0  0  0
 53 52  1  0  0  0  0
 53 51  1  0  0  0  0
 55 54  1  0  0  0  0
 56 55  1  0  0  0  0
 57 56  1  0  0  0  0
 57 58  1  0  0  0  0
 59 58  1  0  0  0  0
 60 59  1  0  0  0  0
 62 61  2  6  0  0  0
 62 63  1  0  0  0  0
 62 60  1  0  0  0  0
 64 65  1  0  0  0  0
 65 62  1  0  0  0  0
M  END
>  <MODEL>
2

>  <REMARK>
 VINA RESULT:      -0.9      3.760      6.979
  Name = 
  24 active torsions:
  status: ('A' for Active; 'I' for Inactive)
    1  A    between atoms: C_1  and  O_15
    2  A    between atoms: C_1  and  C_58
    3  A    between atoms: C_3  and  C_37
    4  A    between atoms: C_4  and  N_48
    5  A    between atoms: C_4  and  C_62
    6  A    between atoms: C_5  and  O_15
    7  A    between atoms: C_5  and  C_19
    8  A    between atoms: C_5  and  C_64
    9  A    between atoms: C_9  and  C_52
   10  A    between atoms: O_11  and  C_42
   11  A    between atoms: O_11  and  C_46
   12  A    between atoms: C_14  and  C_63
   13  A    between atoms: O_22  and  P_41
   14  A    between atoms: C_24  and  C_43
   15  A    between atoms: C_24  and  C_53
   16  A    between atoms: C_28  and  N_48
   17  A    between atoms: C_28  and  C_58
   18  A    between atoms: N_40  and  N_49
   19  A    between atoms: P_41  and  C_62
   20  A    between atoms: C_46  and  C_64
   21  A    between atoms: C_47  and  C_52
   22  A    between atoms: C_47  and  C_63
   23  A    between atoms: N_49  and  N_50
   24  A    between atoms: N_50  and  C_53
                            x       y       z     vdW  Elec       q    Type
                         _______ _______ _______ _____ _____    ______ ____

>  <TORSDO>
F 24

$$$$
=
 OpenBabel11042411403D

 65 69  0  0  1  0  0  0  0  0999 V2000
  188.6690  177.0900  145.9830 C   0  0  0  0  0  0  0  0  0  0  0  0
  187.8110  180.1660  140.7170 C   0  0  0  0  0  1  0  0  0  0  0  0
  189.8740  176.3940  140.8280 C   0  0  0  0  0  2  0  0  0  0  0  0
  188.8790  175.6910  143.8400 C   0  0  0  0  0  2  0  0  0  0  0  0
  185.0220  178.7280  146.2180 S   0  0  0  0  0  0  0  0  0  0  0  0
  189.4030  176.2610  145.0730 N   0  0  0  0  0  2  0  0  0  0  0  0
  187.1080  178.0090  141.8540 C   0  0  0  0  0  2  0  0  0  0  0  0
  187.7880  178.6470  140.6440 C   0  0  1  0  0  3  0  0  0  0  0  0
  191.4190  177.2820  139.0330 C   0  0  0  0  0  0  0  0  0  0  0  0
  189.3170  177.5450  147.1430 C   0  0  0  0  0  3  0  0  0  0  0  0
  187.3250  178.7640  147.8250 C   0  0  0  0  0  3  0  0  0  0  0  0
  187.1720  178.2040  139.4020 N   0  0  0  0  0  2  0  0  0  0  0  0
  185.3120  177.9780  144.5510 C   0  0  1  0  0  3  0  0  0  0  0  0
  191.6200  177.5870  137.8260 O   0  0  0  0  0  0  0  0  0  0  0  0
  187.3320  177.4960  145.7700 C   0  0  0  0  0  0  0  0  0  0  0  0
  187.6350  176.8490  139.1010 C   0  0  2  0  0  3  0  0  0  0  0  0
  189.0260  176.8810  138.4670 C   0  0  0  0  0  2  0  0  0  0  0  0
  186.6770  178.2850  146.6930 C   0  0  0  0  0  0  0  0  0  0  0  0
  192.4980  177.5270  140.0600 C   0  0  1  0  0  3  0  0  0  0  0  0
  185.3700  179.0730  143.4640 C   0  0  1  0  0  3  0  0  0  0  0  0
  190.1230  176.8180  139.4430 N   0  0  0  0  0  0  0  0  0  0  0  0
  191.1270  176.1560  141.6360 C   0  0  0  0  0  0  0  0  0  0  0  0
  188.6540  178.3830  148.0560 C   0  0  0  0  0  3  0  0  0  0  0  0
  184.8580  178.3670  141.2440 O   0  0  0  0  0  0  0  0  0  0  0  0
  186.5710  177.2340  144.6020 N   0  0  0  0  0  2  0  0  0  0  0  0
  191.0670  175.4070  142.8230 O   0  0  0  0  0  0  0  0  0  0  0  0
  189.8920  174.7160  143.2580 C   0  0  0  0  0  2  0  0  0  0  0  0
  185.7020  178.4830  142.1120 C   0  0  0  0  0  0  0  0  0  0  0  0
  192.2990  176.6650  141.2710 C   0  0  0  0  0  3  0  0  0  0  0  0
  186.6400  176.2070  138.1310 C   0  0  0  0  0  3  0  0  0  0  0  0
  187.3150  176.0880  136.7790 C   0  0  0  0  0  2  0  0  0  0  0  0
  186.2910  177.1730  137.0250 C   0  0  0  0  0  2  0  0  0  0  0  0
  184.0460  179.8430  143.4150 C   0  0  0  0  0  2  0  0  0  0  0  0
  182.8650  178.8890  143.3790 C   0  0  0  0  0  2  0  0  0  0  0  0
  181.6270  179.6410  143.5790 N   0  0  0  0  0  2  0  0  0  0  0  0
  181.0170  179.7690  142.3170 N   0  0  0  0  0  2  0  0  0  0  0  0
  180.5080  178.0870  140.5640 C   0  0  0  0  0  0  0  0  0  0  0  0
  179.2980  178.4390  140.5160 O   0  0  0  0  0  0  0  0  0  0  0  0
  181.3780  178.6350  141.5660 N   0  0  0  0  0  2  0  0  0  0  0  0
  181.0450  177.1030  139.5720 C   0  0  0  0  0  2  0  0  0  0  0  0
  181.7690  177.8180  138.4420 C   0  0  0  0  0  2  0  0  0  0  0  0
  181.1160  179.1330  138.0130 C   0  0  0  0  0  2  0  0  0  0  0  0
  179.7100  179.9130  136.0790 C   0  0  0  0  0  1  0  0  0  0  0  0
  181.0410  179.3030  136.4960 C   0  0  2  0  0  3  0  0  0  0  0  0
  181.2140  178.0760  135.8560 O   0  0  0  0  0  1  0  0  0  0  0  0
  193.7660  177.2590  139.5280 O   0  0  0  0  0  0  0  0  0  0  0  0
  193.6180  176.0900  138.7760 C   0  0  0  0  0  2  0  0  0  0  0  0
  195.7820  175.2460  138.0830 O   0  0  0  0  0  1  0  0  0  0  0  0
  194.6860  176.0100  137.6720 C   0  0  1  0  0  3  0  0  0  0  0  0
  194.1050  175.4730  136.3530 C   0  0  1  0  0  3  0  0  0  0  0  0
  195.9520  174.4410  135.1730 O   0  0  0  0  0  1  0  0  0  0  0  0
  195.8700  176.7060  135.2440 O   0  0  0  0  0  1  0  0  0  0  0  0
  195.0960  175.5430  135.1630 C   0  0  0  0  0  3  0  0  0  0  0  0
  193.6560  174.1570  136.5430 O   0  0  0  0  0  0  0  0  0  0  0  0
  192.2640  174.2360  136.4420 C   0  0  0  0  0  2  0  0  0  0  0  0
  191.7500  173.2400  135.4110 C   0  0  0  0  0  2  0  0  0  0  0  0
  192.8970  172.6020  134.6350 C   0  0  0  0  0  2  0  0  0  0  0  0
  192.8860  171.1600  134.8290 N   0  0  0  0  0  2  0  0  0  0  0  0
  193.5490  170.8990  136.0980 C   0  0  0  0  0  2  0  0  0  0  0  0
  195.0540  170.8620  135.8870 C   0  0  0  0  0  2  0  0  0  0  0  0
  196.2960  169.6860  138.0220 O   0  0  0  0  0  0  0  0  0  0  0  0
  195.9670  171.0500  137.4580 P   0  0  2  0  0  0  0  0  0  0  0  0
  195.0190  171.9270  138.5580 O   0  0  0  0  0  1  0  0  0  0  0  0
  198.3090  170.9560  136.6710 C   0  0  0  0  0  1  0  0  0  0  0  0
  197.3940  171.9060  137.1530 O   0  0  0  0  0  0  0  0  0  0  0  0
  1 10  1  0  0  0  0
  3 22  1  0  0  0  0
  4  6  1  0  0  0  0
  5 18  1  0  0  0  0
  6  1  1  0  0  0  0
  7 28  1  0  0  0  0
  8  2  1  1  0  0  0
  8  7  1  0  0  0  0
  9 21  1  0  0  0  0
  9 19  1  0  0  0  0
 10 23  2  0  0  0  0
 11 23  1  0  0  0  0
 12  8  1  0  0  0  0
 13 25  1  1  0  0  0
 13  5  1  0  0  0  0
 14  9  2  0  0  0  0
 15  1  2  0  0  0  0
 15 18  1  0  0  0  0
 16 30  1  6  0  0  0
 16 12  1  0  0  0  0
 17 16  1  0  0  0  0
 17 21  1  0  0  0  0
 18 11  2  0  0  0  0
 19 46  1  6  0  0  0
 19 29  1  0  0  0  0
 20 33  1  6  0  0  0
 20 13  1  0  0  0  0
 21  3  1  0  0  0  0
 22 26  1  0  0  0  0
 24 28  2  0  0  0  0
 25 15  1  0  0  0  0
 26 27  1  0  0  0  0
 27  4  1  0  0  0  0
 28 20  1  0  0  0  0
 29 22  2  0  0  0  0
 31 32  1  0  0  0  0
 31 30  1  0  0  0  0
 32 30  1  0  0  0  0
 34 33  1  0  0  0  0
 34 35  1  0  0  0  0
 36 35  1  0  0  0  0
 37 39  1  0  0  0  0
 38 37  2  0  0  0  0
 39 36  1  0  0  0  0
 40 37  1  0  0  0  0
 41 40  1  0  0  0  0
 42 41  1  0  0  0  0
 44 43  1  1  0  0  0
 44 42  1  0  0  0  0
 45 44  1  0  0  0  0
 47 46  1  0  0  0  0
 49 48  1  1  0  0  0
 49 47  1  0  0  0  0
 50 53  1  6  0  0  0
 50 54  1  0  0  0  0
 50 49  1  0  0  0  0
 53 51  1  0  0  0  0
 53 52  1  0  0  0  0
 55 54  1  0  0  0  0
 56 55  1  0  0  0  0
 57 58  1  0  0  0  0
 57 56  1  0  0  0  0
 58 59  1  0  0  0  0
 60 59  1  0  0  0  0
 60 62  1  0  0  0  0
 62 61  2  1  0  0  0
 62 63  1  0  0  0  0
 64 65  1  0  0  0  0
 65 62  1  0  0  0  0
M  END
>  <MODEL>
3

>  <REMARK>
 VINA RESULT:      -0.2      4.040     10.399
  Name = 
  24 active torsions:
  status: ('A' for Active; 'I' for Inactive)
    1  A    between atoms: C_1  and  O_15
    2  A    between atoms: C_1  and  C_58
    3  A    between atoms: C_3  and  C_37
    4  A    between atoms: C_4  and  N_48
    5  A    between atoms: C_4  and  C_62
    6  A    between atoms: C_5  and  O_15
    7  A    between atoms: C_5  and  C_19
    8  A    between atoms: C_5  and  C_64
    9  A    between atoms: C_9  and  C_52
   10  A    between atoms: O_11  and  C_42
   11  A    between atoms: O_11  and  C_46
   12  A    between atoms: C_14  and  C_63
   13  A    between atoms: O_22  and  P_41
   14  A    between atoms: C_24  and  C_43
   15  A    between atoms: C_24  and  C_53
   16  A    between atoms: C_28  and  N_48
   17  A    between atoms: C_28  and  C_58
   18  A    between atoms: N_40  and  N_49
   19  A    between atoms: P_41  and  C_62
   20  A    between atoms: C_46  and  C_64
   21  A    between atoms: C_47  and  C_52
   22  A    between atoms: C_47  and  C_63
   23  A    between atoms: N_49  and  N_50
   24  A    between atoms: N_50  and  C_53
                            x       y       z     vdW  Elec       q    Type
                         _______ _______ _______ _____ _____    ______ ____

>  <TORSDO>
F 24

$$$$
=
 OpenBabel11042411403D

 65 69  0  0  1  0  0  0  0  0999 V2000
  189.2370  177.5310  142.0090 C   0  0  0  0  0  0  0  0  0  0  0  0
  187.1270  174.0960  137.3540 C   0  0  0  0  0  1  0  0  0  0  0  0
  185.0290  177.5910  138.7240 C   0  0  0  0  0  2  0  0  0  0  0  0
  187.5450  178.6880  140.4620 C   0  0  0  0  0  2  0  0  0  0  0  0
  192.4510  176.3650  139.9240 S   0  0  0  0  0  0  0  0  0  0  0  0
  187.9850  178.1790  141.7530 N   0  0  0  0  0  2  0  0  0  0  0  0
  188.0450  176.4180  137.8060 C   0  0  0  0  0  2  0  0  0  0  0  0
  186.8700  175.5930  137.2820 C   0  0  1  0  0  3  0  0  0  0  0  0
  182.8640  176.3620  138.2810 C   0  0  0  0  0  0  0  0  0  0  0  0
  189.5180  177.1140  143.3210 C   0  0  0  0  0  3  0  0  0  0  0  0
  191.6630  176.2090  142.6150 C   0  0  0  0  0  3  0  0  0  0  0  0
  186.5160  175.9860  135.9270 N   0  0  0  0  0  2  0  0  0  0  0  0
  191.0880  176.9150  138.8000 C   0  0  1  0  0  3  0  0  0  0  0  0
  182.0110  175.9230  137.4610 O   0  0  0  0  0  0  0  0  0  0  0  0
  190.2030  177.2680  141.0110 C   0  0  0  0  0  0  0  0  0  0  0  0
  185.7680  177.2430  135.9790 C   0  0  2  0  0  3  0  0  0  0  0  0
  184.3060  176.9870  136.3480 C   0  0  0  0  0  2  0  0  0  0  0  0
  191.3960  176.6530  141.3260 C   0  0  0  0  0  0  0  0  0  0  0  0
  182.6970  176.0890  139.7560 C   0  0  1  0  0  3  0  0  0  0  0  0
  190.5410  175.7230  137.9860 C   0  0  1  0  0  3  0  0  0  0  0  0
  184.0480  177.0120  137.7950 N   0  0  0  0  0  0  0  0  0  0  0  0
  184.5200  177.7550  140.1360 C   0  0  0  0  0  0  0  0  0  0  0  0
  190.7190  176.4500  143.6230 C   0  0  0  0  0  3  0  0  0  0  0  0
  189.4640  176.2720  135.9280 O   0  0  0  0  0  0  0  0  0  0  0  0
  190.0330  177.5060  139.6230 N   0  0  0  0  0  2  0  0  0  0  0  0
  185.1840  178.6140  141.0270 O   0  0  0  0  0  0  0  0  0  0  0  0
  186.2560  179.4770  140.6360 C   0  0  0  0  0  2  0  0  0  0  0  0
  189.3620  176.1390  137.1340 C   0  0  0  0  0  0  0  0  0  0  0  0
  183.4660  177.0800  140.5800 C   0  0  0  0  0  3  0  0  0  0  0  0
  185.8450  177.9030  134.6000 C   0  0  0  0  0  3  0  0  0  0  0  0
  187.0420  178.8350  134.5940 C   0  0  0  0  0  2  0  0  0  0  0  0
  185.6430  179.3950  134.7230 C   0  0  0  0  0  2  0  0  0  0  0  0
  191.6510  175.1130  137.1240 C   0  0  0  0  0  2  0  0  0  0  0  0
  191.5710  173.5970  137.1290 C   0  0  0  0  0  2  0  0  0  0  0  0
  192.2640  173.0700  135.9550 N   0  0  0  0  0  2  0  0  0  0  0  0
  193.0300  174.1250  135.4240 N   0  0  0  0  0  2  0  0  0  0  0  0
  195.4640  174.0760  135.9130 C   0  0  0  0  0  0  0  0  0  0  0  0
  195.3900  175.1260  136.6060 O   0  0  0  0  0  0  0  0  0  0  0  0
  194.3190  173.6170  135.1770 N   0  0  0  0  0  2  0  0  0  0  0  0
  196.7410  173.2980  135.8600 C   0  0  0  0  0  2  0  0  0  0  0  0
  197.3720  173.2030  137.2400 C   0  0  0  0  0  2  0  0  0  0  0  0
  198.2740  174.3850  137.5990 C   0  0  0  0  0  2  0  0  0  0  0  0
  196.7670  174.4330  139.6110 C   0  0  0  0  0  1  0  0  0  0  0  0
  198.1190  174.8460  139.0480 C   0  0  2  0  0  3  0  0  0  0  0  0
  198.2610  176.2300  139.1410 O   0  0  0  0  0  1  0  0  0  0  0  0
  181.3480  176.1540  140.1290 O   0  0  0  0  0  0  0  0  0  0  0  0
  181.1020  177.5010  140.4140 C   0  0  0  0  0  2  0  0  0  0  0  0
  182.5500  177.5800  142.3570 O   0  0  0  0  0  1  0  0  0  0  0  0
  181.2360  177.7740  141.9220 C   0  0  1  0  0  3  0  0  0  0  0  0
  180.7350  179.1810  142.2930 C   0  0  1  0  0  3  0  0  0  0  0  0
  179.3130  179.9700  144.0900 O   0  0  0  0  0  1  0  0  0  0  0  0
  178.9370  177.8880  143.2720 O   0  0  0  0  0  1  0  0  0  0  0  0
  179.3230  179.1890  142.9320 C   0  0  0  0  0  3  0  0  0  0  0  0
  181.6650  179.7970  143.1450 O   0  0  0  0  0  0  0  0  0  0  0  0
  182.0160  178.8070  144.0670 C   0  0  0  0  0  2  0  0  0  0  0  0
  182.9290  179.3840  145.1410 C   0  0  0  0  0  2  0  0  0  0  0  0
  184.2420  178.6140  145.2260 C   0  0  0  0  0  2  0  0  0  0  0  0
  184.7680  178.6770  146.5810 N   0  0  0  0  0  2  0  0  0  0  0  0
  186.1970  178.9320  146.4680 C   0  0  0  0  0  2  0  0  0  0  0  0
  186.9390  177.6140  146.3270 C   0  0  0  0  0  2  0  0  0  0  0  0
  188.3170  176.0270  148.0780 O   0  0  0  0  0  0  0  0  0  0  0  0
  188.2740  177.4480  147.5620 P   0  0  2  0  0  0  0  0  0  0  0  0
  187.9960  178.5280  148.8390 O   0  0  0  0  0  1  0  0  0  0  0  0
  190.6560  176.8590  147.2550 C   0  0  0  0  0  1  0  0  0  0  0  0
  189.7450  177.8360  146.8210 O   0  0  0  0  0  0  0  0  0  0  0  0
  1 10  1  0  0  0  0
  3 22  1  0  0  0  0
  4 27  1  0  0  0  0
  4  6  1  0  0  0  0
  5 18  1  0  0  0  0
  6  1  1  0  0  0  0
  8  2  1  6  0  0  0
  8  7  1  0  0  0  0
  9 19  1  0  0  0  0
 10 23  2  0  0  0  0
 11 23  1  0  0  0  0
 12 16  1  0  0  0  0
 12  8  1  0  0  0  0
 13 25  1  1  0  0  0
 13  5  1  0  0  0  0
 14  9  2  0  0  0  0
 15 18  1  0  0  0  0
 15  1  2  0  0  0  0
 16 30  1  6  0  0  0
 16 17  1  0  0  0  0
 17 21  1  0  0  0  0
 18 11  2  0  0  0  0
 19 46  1  1  0  0  0
 19 29  1  0  0  0  0
 20 33  1  6  0  0  0
 20 13  1  0  0  0  0
 21  9  1  0  0  0  0
 21  3  1  0  0  0  0
 22 29  2  0  0  0  0
 22 26  1  0  0  0  0
 24 28  2  0  0  0  0
 25 15  1  0  0  0  0
 27 26  1  0  0  0  0
 28  7  1  0  0  0  0
 28 20  1  0  0  0  0
 30 32  1  0  0  0  0
 31 30  1  0  0  0  0
 31 32  1  0  0  0  0
 33 34  1  0  0  0  0
 35 34  1  0  0  0  0
 36 35  1  0  0  0  0
 37 38  2  0  0  0  0
 39 36  1  0  0  0  0
 39 37  1  0  0  0  0
 40 37  1  0  0  0  0
 40 41  1  0  0  0  0
 41 42  1  0  0  0  0
 42 44  1  0  0  0  0
 44 45  1  0  0  0  0
 44 43  1  6  0  0  0
 46 47  1  0  0  0  0
 47 49  1  0  0  0  0
 49 50  1  0  0  0  0
 49 48  1  6  0  0  0
 50 53  1  1  0  0  0
 50 54  1  0  0  0  0
 53 52  1  0  0  0  0
 53 51  1  0  0  0  0
 54 55  1  0  0  0  0
 55 56  1  0  0  0  0
 56 57  1  0  0  0  0
 57 58  1  0  0  0  0
 59 58  1  0  0  0  0
 60 59  1  0  0  0  0
 60 62  1  0  0  0  0
 62 61  2  1  0  0  0
 62 63  1  0  0  0  0
 65 64  1  0  0  0  0
 65 62  1  0  0  0  0
M  END
>  <MODEL>
4

>  <REMARK>
 VINA RESULT:      -0.1      2.753      8.131
  Name = 
  24 active torsions:
  status: ('A' for Active; 'I' for Inactive)
    1  A    between atoms: C_1  and  O_15
    2  A    between atoms: C_1  and  C_58
    3  A    between atoms: C_3  and  C_37
    4  A    between atoms: C_4  and  N_48
    5  A    between atoms: C_4  and  C_62
    6  A    between atoms: C_5  and  O_15
    7  A    between atoms: C_5  and  C_19
    8  A    between atoms: C_5  and  C_64
    9  A    between atoms: C_9  and  C_52
   10  A    between atoms: O_11  and  C_42
   11  A    between atoms: O_11  and  C_46
   12  A    between atoms: C_14  and  C_63
   13  A    between atoms: O_22  and  P_41
   14  A    between atoms: C_24  and  C_43
   15  A    between atoms: C_24  and  C_53
   16  A    between atoms: C_28  and  N_48
   17  A    between atoms: C_28  and  C_58
   18  A    between atoms: N_40  and  N_49
   19  A    between atoms: P_41  and  C_62
   20  A    between atoms: C_46  and  C_64
   21  A    between atoms: C_47  and  C_52
   22  A    between atoms: C_47  and  C_63
   23  A    between atoms: N_49  and  N_50
   24  A    between atoms: N_50  and  C_53
                            x       y       z     vdW  Elec       q    Type
                         _______ _______ _______ _____ _____    ______ ____

>  <TORSDO>
F 24

$$$$
=
 OpenBabel11042411403D

 65 69  0  0  1  0  0  0  0  0999 V2000
  189.1910  177.7210  142.4540 C   0  0  0  0  0  0  0  0  0  0  0  0
  187.4980  174.1100  137.7610 C   0  0  0  0  0  1  0  0  0  0  0  0
  185.3330  177.6880  138.7640 C   0  0  0  0  0  2  0  0  0  0  0  0
  187.6810  178.8280  140.6970 C   0  0  0  0  0  2  0  0  0  0  0  0
  192.5770  176.4240  140.7530 S   0  0  0  0  0  0  0  0  0  0  0  0
  187.9810  178.3720  142.0470 N   0  0  0  0  0  2  0  0  0  0  0  0
  188.4050  176.4380  138.2040 C   0  0  0  0  0  2  0  0  0  0  0  0
  187.2750  175.6060  137.6000 C   0  0  1  0  0  3  0  0  0  0  0  0
  183.2020  176.4670  138.1580 C   0  0  0  0  0  0  0  0  0  0  0  0
  189.3330  177.3580  143.8040 C   0  0  0  0  0  3  0  0  0  0  0  0
  191.5230  176.3960  143.3560 C   0  0  0  0  0  3  0  0  0  0  0  0
  187.0650  175.9440  136.2010 N   0  0  0  0  0  2  0  0  0  0  0  0
  191.3420  176.9410  139.4750 C   0  0  1  0  0  3  0  0  0  0  0  0
  182.4290  176.0020  137.2770 O   0  0  0  0  0  0  0  0  0  0  0  0
  190.2470  177.4020  141.5700 C   0  0  0  0  0  0  0  0  0  0  0  0
  186.3360  177.2100  136.1240 C   0  0  2  0  0  3  0  0  0  0  0  0
  184.8400  176.9890  136.3550 C   0  0  0  0  0  2  0  0  0  0  0  0
  191.3920  176.7860  142.0280 C   0  0  0  0  0  0  0  0  0  0  0  0
  182.8850  176.2610  139.6190 C   0  0  1  0  0  3  0  0  0  0  0  0
  190.8590  175.7210  138.6620 C   0  0  1  0  0  3  0  0  0  0  0  0
  184.4400  177.0800  137.7660 N   0  0  0  0  0  0  0  0  0  0  0  0
  184.6890  177.9200  140.1100 C   0  0  0  0  0  0  0  0  0  0  0  0
  190.4870  176.6940  144.2520 C   0  0  0  0  0  3  0  0  0  0  0  0
  190.0020  176.1930  136.4850 O   0  0  0  0  0  0  0  0  0  0  0  0
  190.2210  177.5810  140.1630 N   0  0  0  0  0  2  0  0  0  0  0  0
  185.2750  178.8090  141.0250 O   0  0  0  0  0  0  0  0  0  0  0  0
  186.3950  179.6400  140.7070 C   0  0  0  0  0  2  0  0  0  0  0  0
  189.7780  176.1140  137.6790 C   0  0  0  0  0  0  0  0  0  0  0  0
  183.5840  177.2770  140.4730 C   0  0  0  0  0  3  0  0  0  0  0  0
  186.5610  177.8080  134.7330 C   0  0  0  0  0  3  0  0  0  0  0  0
  188.0320  178.1520  134.6040 C   0  0  0  0  0  2  0  0  0  0  0  0
  187.0150  179.2440  134.8480 C   0  0  0  0  0  2  0  0  0  0  0  0
  192.0400  175.0610  137.9420 C   0  0  0  0  0  2  0  0  0  0  0  0
  192.9990  176.1070  137.4030 C   0  0  0  0  0  2  0  0  0  0  0  0
  192.7360  176.3190  135.9800 N   0  0  0  0  0  2  0  0  0  0  0  0
  193.1100  175.1370  135.3140 N   0  0  0  0  0  2  0  0  0  0  0  0
  195.0620  173.6060  135.3880 C   0  0  0  0  0  0  0  0  0  0  0  0
  194.3460  172.6090  135.1030 O   0  0  0  0  0  0  0  0  0  0  0  0
  194.4520  174.8790  135.6490 N   0  0  0  0  0  2  0  0  0  0  0  0
  196.5510  173.4690  135.4500 C   0  0  0  0  0  2  0  0  0  0  0  0
  197.2200  174.8330  135.3770 C   0  0  0  0  0  2  0  0  0  0  0  0
  198.6480  174.8590  135.9260 C   0  0  0  0  0  2  0  0  0  0  0  0
  198.9680  173.3850  137.9380 C   0  0  0  0  0  1  0  0  0  0  0  0
  198.7100  174.8040  137.4530 C   0  0  2  0  0  3  0  0  0  0  0  0
  197.5220  175.2800  138.0080 O   0  0  0  0  0  1  0  0  0  0  0  0
  181.5070  176.3590  139.8520 O   0  0  0  0  0  0  0  0  0  0  0  0
  181.0150  177.1950  138.8450 C   0  0  0  0  0  2  0  0  0  0  0  0
  180.4210  179.4910  138.3410 O   0  0  0  0  0  1  0  0  0  0  0  0
  180.8770  178.6410  139.3520 C   0  0  1  0  0  3  0  0  0  0  0  0
  179.9710  178.7260  140.5930 C   0  0  1  0  0  3  0  0  0  0  0  0
  179.4920  176.6780  141.7960 O   0  0  0  0  0  1  0  0  0  0  0  0
  178.9970  176.7520  139.5840 O   0  0  0  0  0  1  0  0  0  0  0  0
  179.0360  177.5010  140.7650 C   0  0  0  0  0  3  0  0  0  0  0  0
  180.7630  178.9050  141.7380 O   0  0  0  0  0  0  0  0  0  0  0  0
  179.8580  179.2360  142.7500 C   0  0  0  0  0  2  0  0  0  0  0  0
  180.2880  178.6080  144.0700 C   0  0  0  0  0  2  0  0  0  0  0  0
  181.7720  178.2610  144.0630 C   0  0  0  0  0  2  0  0  0  0  0  0
  182.5670  179.4790  144.0000 N   0  0  0  0  0  2  0  0  0  0  0  0
  183.9410  179.1010  144.2940 C   0  0  0  0  0  2  0  0  0  0  0  0
  184.0420  178.6300  145.7360 C   0  0  0  0  0  2  0  0  0  0  0  0
  186.5210  179.7870  145.7640 O   0  0  0  0  0  0  0  0  0  0  0  0
  185.7710  178.5980  146.3220 P   0  0  2  0  0  0  0  0  0  0  0  0
  186.5070  177.1530  145.8240 O   0  0  0  0  0  1  0  0  0  0  0  0
  187.1170  178.7780  148.3890 C   0  0  0  0  0  1  0  0  0  0  0  0
  185.7690  178.6620  148.0130 O   0  0  0  0  0  0  0  0  0  0  0  0
  1 10  1  0  0  0  0
  3 22  1  0  0  0  0
  4 27  1  0  0  0  0
  4  6  1  0  0  0  0
  5 18  1  0  0  0  0
  6  1  1  0  0  0  0
  8  2  1  6  0  0  0
  8  7  1  0  0  0  0
  9 19  1  0  0  0  0
 10 23  2  0  0  0  0
 11 23  1  0  0  0  0
 12  8  1  0  0  0  0
 13 25  1  1  0  0  0
 13  5  1  0  0  0  0
 14  9  2  0  0  0  0
 15 18  1  0  0  0  0
 15  1  2  0  0  0  0
 16 30  1  6  0  0  0
 16 12  1  0  0  0  0
 16 17  1  0  0  0  0
 17 21  1  0  0  0  0
 18 11  2  0  0  0  0
 19 46  1  6  0  0  0
 19 29  1  0  0  0  0
 20 33  1  6  0  0  0
 20 13  1  0  0  0  0
 21  9  1  0  0  0  0
 21  3  1  0  0  0  0
 22 29  2  0  0  0  0
 22 26  1  0  0  0  0
 24 28  2  0  0  0  0
 25 15  1  0  0  0  0
 27 26  1  0  0  0  0
 28  7  1  0  0  0  0
 28 20  1  0  0  0  0
 30 32  1  0  0  0  0
 31 30  1  0  0  0  0
 31 32  1  0  0  0  0
 34 33  1  0  0  0  0
 35 34  1  0  0  0  0
 36 39  1  0  0  0  0
 36 35  1  0  0  0  0
 37 40  1  0  0  0  0
 37 39  1  0  0  0  0
 38 37  2  0  0  0  0
 41 40  1  0  0  0  0
 41 42  1  0  0  0  0
 42 44  1  0  0  0  0
 44 43  1  6  0  0  0
 44 45  1  0  0  0  0
 47 49  1  0  0  0  0
 47 46  1  0  0  0  0
 49 48  1  6  0  0  0
 49 50  1  0  0  0  0
 50 53  1  1  0  0  0
 50 54  1  0  0  0  0
 52 53  1  0  0  0  0
 53 51  1  0  0  0  0
 54 55  1  0  0  0  0
 55 56  1  0  0  0  0
 57 56  1  0  0  0  0
 58 57  1  0  0  0  0
 58 59  1  0  0  0  0
 59 60  1  0  0  0  0
 60 62  1  0  0  0  0
 62 61  2  6  0  0  0
 62 65  1  0  0  0  0
 63 62  1  0  0  0  0
 65 64  1  0  0  0  0
M  END
>  <MODEL>
5

>  <REMARK>
 VINA RESULT:       0.3      3.146      8.433
  Name = 
  24 active torsions:
  status: ('A' for Active; 'I' for Inactive)
    1  A    between atoms: C_1  and  O_15
    2  A    between atoms: C_1  and  C_58
    3  A    between atoms: C_3  and  C_37
    4  A    between atoms: C_4  and  N_48
    5  A    between atoms: C_4  and  C_62
    6  A    between atoms: C_5  and  O_15
    7  A    between atoms: C_5  and  C_19
    8  A    between atoms: C_5  and  C_64
    9  A    between atoms: C_9  and  C_52
   10  A    between atoms: O_11  and  C_42
   11  A    between atoms: O_11  and  C_46
   12  A    between atoms: C_14  and  C_63
   13  A    between atoms: O_22  and  P_41
   14  A    between atoms: C_24  and  C_43
   15  A    between atoms: C_24  and  C_53
   16  A    between atoms: C_28  and  N_48
   17  A    between atoms: C_28  and  C_58
   18  A    between atoms: N_40  and  N_49
   19  A    between atoms: P_41  and  C_62
   20  A    between atoms: C_46  and  C_64
   21  A    between atoms: C_47  and  C_52
   22  A    between atoms: C_47  and  C_63
   23  A    between atoms: N_49  and  N_50
   24  A    between atoms: N_50  and  C_53
                            x       y       z     vdW  Elec       q    Type
                         _______ _______ _______ _____ _____    ______ ____

>  <TORSDO>
F 24

$$$$
=
 OpenBabel11042411403D

 65 69  0  0  1  0  0  0  0  0999 V2000
  188.7120  177.1140  145.8390 C   0  0  0  0  0  0  0  0  0  0  0  0
  187.3130  180.4690  140.8670 C   0  0  0  0  0  1  0  0  0  0  0  0
  189.3610  176.7000  140.5560 C   0  0  0  0  0  2  0  0  0  0  0  0
  188.6880  175.8330  143.6130 C   0  0  0  0  0  2  0  0  0  0  0  0
  185.1160  178.7310  146.5470 S   0  0  0  0  0  0  0  0  0  0  0  0
  189.3410  176.3360  144.8130 N   0  0  0  0  0  2  0  0  0  0  0  0
  186.7260  178.2530  141.9540 C   0  0  0  0  0  2  0  0  0  0  0  0
  187.2760  178.9560  140.7150 C   0  0  1  0  0  3  0  0  0  0  0  0
  190.7110  177.6860  138.6580 C   0  0  0  0  0  0  0  0  0  0  0  0
  189.4810  177.5070  146.9470 C   0  0  0  0  0  3  0  0  0  0  0  0
  187.5770  178.6840  147.9000 C   0  0  0  0  0  3  0  0  0  0  0  0
  186.5310  178.5800  139.5240 N   0  0  0  0  0  2  0  0  0  0  0  0
  185.2250  178.0730  144.8200 C   0  0  1  0  0  3  0  0  0  0  0  0
  190.7850  178.0560  137.4540 O   0  0  0  0  0  0  0  0  0  0  0  0
  187.3610  177.5290  145.7920 C   0  0  0  0  0  0  0  0  0  0  0  0
  186.9530  177.2440  139.1020 C   0  0  2  0  0  3  0  0  0  0  0  0
  188.2700  177.3130  138.3270 C   0  0  0  0  0  2  0  0  0  0  0  0
  186.8110  178.2660  146.8190 C   0  0  0  0  0  0  0  0  0  0  0  0
  191.8940  177.8770  139.5760 C   0  0  1  0  0  3  0  0  0  0  0  0
  185.1730  179.2260  143.7950 C   0  0  1  0  0  3  0  0  0  0  0  0
  189.4640  177.1990  139.1770 N   0  0  0  0  0  0  0  0  0  0  0  0
  190.6920  176.4200  141.2120 C   0  0  0  0  0  0  0  0  0  0  0  0
  188.9210  178.2930  147.9680 C   0  0  0  0  0  3  0  0  0  0  0  0
  184.4250  178.6400  141.6060 O   0  0  0  0  0  0  0  0  0  0  0  0
  186.4800  177.3300  144.6980 N   0  0  0  0  0  2  0  0  0  0  0  0
  190.7540  175.6080  142.3570 O   0  0  0  0  0  0  0  0  0  0  0  0
  189.6290  174.8930  142.8750 C   0  0  0  0  0  2  0  0  0  0  0  0
  185.3570  178.7100  142.3850 C   0  0  0  0  0  0  0  0  0  0  0  0
  191.8200  176.9500  140.7530 C   0  0  0  0  0  3  0  0  0  0  0  0
  185.8580  176.6540  138.2110 C   0  0  0  0  0  3  0  0  0  0  0  0
  186.4470  175.4710  137.4670 C   0  0  0  0  0  2  0  0  0  0  0  0
  186.2400  176.7890  136.7560 C   0  0  0  0  0  2  0  0  0  0  0  0
  183.8540  179.9950  143.9280 C   0  0  0  0  0  2  0  0  0  0  0  0
  182.6720  179.0430  143.9600 C   0  0  0  0  0  2  0  0  0  0  0  0
  181.4470  179.7790  143.6510 N   0  0  0  0  0  2  0  0  0  0  0  0
  180.6910  178.9700  142.7820 N   0  0  0  0  0  2  0  0  0  0  0  0
  180.8540  178.2370  140.4160 C   0  0  0  0  0  0  0  0  0  0  0  0
  179.8180  177.5270  140.5190 O   0  0  0  0  0  0  0  0  0  0  0  0
  181.4130  178.8680  141.5780 N   0  0  0  0  0  2  0  0  0  0  0  0
  181.5030  178.4310  139.0810 C   0  0  0  0  0  2  0  0  0  0  0  0
  182.0810  177.1230  138.5670 C   0  0  0  0  0  2  0  0  0  0  0  0
  182.3620  177.1110  137.0630 C   0  0  0  0  0  2  0  0  0  0  0  0
  182.7690  174.6660  137.4870 C   0  0  0  0  0  1  0  0  0  0  0  0
  182.3540  175.7070  136.4580 C   0  0  2  0  0  3  0  0  0  0  0  0
  183.2080  175.6430  135.3570 O   0  0  0  0  0  1  0  0  0  0  0  0
  193.0970  177.6400  138.8990 O   0  0  0  0  0  0  0  0  0  0  0  0
  192.8060  176.6580  137.9480 C   0  0  0  0  0  2  0  0  0  0  0  0
  192.8120  174.2590  138.3000 O   0  0  0  0  0  1  0  0  0  0  0  0
  193.6330  175.3860  138.2020 C   0  0  1  0  0  3  0  0  0  0  0  0
  194.7170  175.1870  137.1280 C   0  0  1  0  0  3  0  0  0  0  0  0
  194.7820  175.4860  134.7240 O   0  0  0  0  0  1  0  0  0  0  0  0
  195.5520  177.1750  136.0260 O   0  0  0  0  0  1  0  0  0  0  0  0
  194.5910  176.1620  135.9300 C   0  0  0  0  0  3  0  0  0  0  0  0
  195.9850  175.2940  137.7190 O   0  0  0  0  0  0  0  0  0  0  0  0
  196.8660  174.7620  136.7740 C   0  0  0  0  0  2  0  0  0  0  0  0
  198.2880  174.7550  137.3200 C   0  0  0  0  0  2  0  0  0  0  0  0
  198.8810  173.3510  137.3070 C   0  0  0  0  0  2  0  0  0  0  0  0
  197.8510  172.3730  137.6200 N   0  0  0  0  0  2  0  0  0  0  0  0
  198.1120  171.2050  136.7910 C   0  0  0  0  0  2  0  0  0  0  0  0
  196.9910  170.1950  136.9680 C   0  0  0  0  0  2  0  0  0  0  0  0
  195.6570  171.8460  138.6940 O   0  0  0  0  0  1  0  0  0  0  0  0
  195.4260  170.9940  137.4650 P   0  0  2  0  0  0  0  0  0  0  0  0
  194.2630  169.8020  137.7880 O   0  0  0  0  0  0  0  0  0  0  0  0
  195.4220  171.3880  135.0240 C   0  0  0  0  0  1  0  0  0  0  0  0
  194.8850  171.9620  136.1880 O   0  0  0  0  0  0  0  0  0  0  0  0
  1 10  1  0  0  0  0
  3 22  1  0  0  0  0
  4  6  1  0  0  0  0
  5 18  1  0  0  0  0
  6  1  1  0  0  0  0
  7 28  1  0  0  0  0
  8  2  1  1  0  0  0
  8  7  1  0  0  0  0
  9 21  1  0  0  0  0
  9 19  1  0  0  0  0
 10 23  2  0  0  0  0
 11 23  1  0  0  0  0
 12  8  1  0  0  0  0
 13 25  1  1  0  0  0
 13  5  1  0  0  0  0
 14  9  2  0  0  0  0
 15  1  2  0  0  0  0
 15 18  1  0  0  0  0
 16 30  1  6  0  0  0
 16 12  1  0  0  0  0
 17 16  1  0  0  0  0
 17 21  1  0  0  0  0
 18 11  2  0  0  0  0
 19 46  1  6  0  0  0
 19 29  1  0  0  0  0
 20 33  1  6  0  0  0
 20 13  1  0  0  0  0
 21  3  1  0  0  0  0
 22 26  1  0  0  0  0
 24 28  2  0  0  0  0
 25 15  1  0  0  0  0
 26 27  1  0  0  0  0
 27  4  1  0  0  0  0
 28 20  1  0  0  0  0
 29 22  2  0  0  0  0
 31 30  1  0  0  0  0
 32 31  1  0  0  0  0
 32 30  1  0  0  0  0
 33 34  1  0  0  0  0
 35 34  1  0  0  0  0
 36 35  1  0  0  0  0
 37 38  2  0  0  0  0
 37 39  1  0  0  0  0
 39 36  1  0  0  0  0
 40 37  1  0  0  0  0
 41 40  1  0  0  0  0
 42 41  1  0  0  0  0
 44 42  1  0  0  0  0
 44 43  1  1  0  0  0
 45 44  1  0  0  0  0
 47 49  1  0  0  0  0
 47 46  1  0  0  0  0
 49 48  1  6  0  0  0
 50 53  1  6  0  0  0
 50 54  1  0  0  0  0
 50 49  1  0  0  0  0
 51 53  1  0  0  0  0
 53 52  1  0  0  0  0
 55 56  1  0  0  0  0
 55 54  1  0  0  0  0
 57 56  1  0  0  0  0
 57 58  1  0  0  0  0
 59 60  1  0  0  0  0
 59 58  1  0  0  0  0
 60 62  1  0  0  0  0
 62 63  2  1  0  0  0
 62 61  1  0  0  0  0
 64 65  1  0  0  0  0
 65 62  1  0  0  0  0
M  END
>  <MODEL>
6

>  <REMARK>
 VINA RESULT:       0.5      4.156     10.415
  Name = 
  24 active torsions:
  status: ('A' for Active; 'I' for Inactive)
    1  A    between atoms: C_1  and  O_15
    2  A    between atoms: C_1  and  C_58
    3  A    between atoms: C_3  and  C_37
    4  A    between atoms: C_4  and  N_48
    5  A    between atoms: C_4  and  C_62
    6  A    between atoms: C_5  and  O_15
    7  A    between atoms: C_5  and  C_19
    8  A    between atoms: C_5  and  C_64
    9  A    between atoms: C_9  and  C_52
   10  A    between atoms: O_11  and  C_42
   11  A    between atoms: O_11  and  C_46
   12  A    between atoms: C_14  and  C_63
   13  A    between atoms: O_22  and  P_41
   14  A    between atoms: C_24  and  C_43
   15  A    between atoms: C_24  and  C_53
   16  A    between atoms: C_28  and  N_48
   17  A    between atoms: C_28  and  C_58
   18  A    between atoms: N_40  and  N_49
   19  A    between atoms: P_41  and  C_62
   20  A    between atoms: C_46  and  C_64
   21  A    between atoms: C_47  and  C_52
   22  A    between atoms: C_47  and  C_63
   23  A    between atoms: N_49  and  N_50
   24  A    between atoms: N_50  and  C_53
                            x       y       z     vdW  Elec       q    Type
                         _______ _______ _______ _____ _____    ______ ____

>  <TORSDO>
F 24

$$$$
=
 OpenBabel11042411403D

 65 69  0  0  1  0  0  0  0  0999 V2000
  188.8010  177.0760  145.9060 C   0  0  0  0  0  0  0  0  0  0  0  0
  187.1420  180.5000  141.0630 C   0  0  0  0  0  1  0  0  0  0  0  0
  189.1250  176.7130  140.5890 C   0  0  0  0  0  2  0  0  0  0  0  0
  188.6270  175.8200  143.6730 C   0  0  0  0  0  2  0  0  0  0  0  0
  185.2740  178.7240  146.8480 S   0  0  0  0  0  0  0  0  0  0  0  0
  189.3580  176.3030  144.8360 N   0  0  0  0  0  2  0  0  0  0  0  0
  186.5960  178.2780  142.1610 C   0  0  0  0  0  2  0  0  0  0  0  0
  187.0790  178.9890  140.8980 C   0  0  1  0  0  3  0  0  0  0  0  0
  190.3680  177.7050  138.6230 C   0  0  0  0  0  0  0  0  0  0  0  0
  189.6400  177.4480  146.9690 C   0  0  0  0  0  3  0  0  0  0  0  0
  187.8110  178.6360  148.0490 C   0  0  0  0  0  3  0  0  0  0  0  0
  186.2580  178.6340  139.7510 N   0  0  0  0  0  2  0  0  0  0  0  0
  185.2710  178.0830  145.1110 C   0  0  1  0  0  3  0  0  0  0  0  0
  190.3730  178.0870  137.4210 O   0  0  0  0  0  0  0  0  0  0  0  0
  187.4550  177.5060  145.9450 C   0  0  0  0  0  0  0  0  0  0  0  0
  186.6400  177.2980  139.2900 C   0  0  2  0  0  3  0  0  0  0  0  0
  187.9080  177.3610  138.4370 C   0  0  0  0  0  2  0  0  0  0  0  0
  186.9760  178.2370  147.0120 C   0  0  0  0  0  0  0  0  0  0  0  0
  191.6060  177.8730  139.4700 C   0  0  1  0  0  3  0  0  0  0  0  0
  185.1690  179.2480  144.1020 C   0  0  1  0  0  3  0  0  0  0  0  0
  189.1490  177.2250  139.2120 N   0  0  0  0  0  0  0  0  0  0  0  0
  190.4890  176.4110  141.1610 C   0  0  0  0  0  0  0  0  0  0  0  0
  189.1520  178.2290  148.0310 C   0  0  0  0  0  3  0  0  0  0  0  0
  184.2830  178.6940  141.9570 O   0  0  0  0  0  0  0  0  0  0  0  0
  186.5060  177.3280  144.9050 N   0  0  0  0  0  2  0  0  0  0  0  0
  190.6110  175.5870  142.2910 O   0  0  0  0  0  0  0  0  0  0  0  0
  189.5110  174.8780  142.8700 C   0  0  0  0  0  2  0  0  0  0  0  0
  185.2620  178.7460  142.6790 C   0  0  0  0  0  0  0  0  0  0  0  0
  191.5940  176.9340  140.6400 C   0  0  0  0  0  3  0  0  0  0  0  0
  185.4860  176.7300  138.4610 C   0  0  0  0  0  3  0  0  0  0  0  0
  186.0780  175.8470  137.3790 C   0  0  0  0  0  2  0  0  0  0  0  0
  185.5690  177.2300  137.0380 C   0  0  0  0  0  2  0  0  0  0  0  0
  183.8690  180.0300  144.3230 C   0  0  0  0  0  2  0  0  0  0  0  0
  182.7050  179.0870  144.5710 C   0  0  0  0  0  2  0  0  0  0  0  0
  181.6650  179.3270  143.5710 N   0  0  0  0  0  2  0  0  0  0  0  0
  180.6080  178.4440  143.8600 N   0  0  0  0  0  2  0  0  0  0  0  0
  179.4050  179.3650  141.8940 C   0  0  0  0  0  0  0  0  0  0  0  0
  179.3790  180.5210  142.3960 O   0  0  0  0  0  0  0  0  0  0  0  0
  179.8880  178.2550  142.6660 N   0  0  0  0  0  2  0  0  0  0  0  0
  178.9400  179.1450  140.4880 C   0  0  0  0  0  2  0  0  0  0  0  0
  180.1210  179.0960  139.5320 C   0  0  0  0  0  2  0  0  0  0  0  0
  179.8110  179.6180  138.1280 C   0  0  0  0  0  2  0  0  0  0  0  0
  181.4300  181.5340  138.3090 C   0  0  0  0  0  1  0  0  0  0  0  0
  180.9920  180.3380  137.4760 C   0  0  2  0  0  3  0  0  0  0  0  0
  180.6580  180.7620  136.1900 O   0  0  0  0  0  1  0  0  0  0  0  0
  192.7640  177.6310  138.7190 O   0  0  0  0  0  0  0  0  0  0  0  0
  192.3650  176.7890  137.6760 C   0  0  0  0  0  2  0  0  0  0  0  0
  192.0310  174.4210  138.0710 O   0  0  0  0  0  1  0  0  0  0  0  0
  193.0010  175.3970  137.8220 C   0  0  1  0  0  3  0  0  0  0  0  0
  193.8520  175.0260  136.5940 C   0  0  1  0  0  3  0  0  0  0  0  0
  192.2900  176.3200  135.2680 O   0  0  0  0  0  1  0  0  0  0  0  0
  192.2890  174.0670  135.0120 O   0  0  0  0  0  1  0  0  0  0  0  0
  193.0990  175.1820  135.2480 C   0  0  0  0  0  3  0  0  0  0  0  0
  195.0270  175.7920  136.5930 O   0  0  0  0  0  0  0  0  0  0  0  0
  195.6210  175.5350  135.3540 C   0  0  0  0  0  2  0  0  0  0  0  0
  197.1010  175.2230  135.5300 C   0  0  0  0  0  2  0  0  0  0  0  0
  197.4080  174.7720  136.9540 C   0  0  0  0  0  2  0  0  0  0  0  0
  198.8420  174.8260  137.1940 N   0  0  0  0  0  2  0  0  0  0  0  0
  199.0390  175.6150  138.4010 C   0  0  0  0  0  2  0  0  0  0  0  0
  198.7280  174.7640  139.6210 C   0  0  0  0  0  2  0  0  0  0  0  0
  197.6940  177.1140  140.5660 O   0  0  0  0  0  0  0  0  0  0  0  0
  197.6060  175.6190  140.7810 P   0  0  2  0  0  0  0  0  0  0  0  0
  198.0390  175.2290  142.3730 O   0  0  0  0  0  1  0  0  0  0  0  0
  196.1300  174.1280  139.4730 C   0  0  0  0  0  1  0  0  0  0  0  0
  196.0260  175.0890  140.4920 O   0  0  0  0  0  0  0  0  0  0  0  0
  1 15  2  0  0  0  0
  1 10  1  0  0  0  0
  3 22  1  0  0  0  0
  4  6  1  0  0  0  0
  5 18  1  0  0  0  0
  6  1  1  0  0  0  0
  7 28  1  0  0  0  0
  8  2  1  1  0  0  0
  8  7  1  0  0  0  0
  9 21  1  0  0  0  0
  9 19  1  0  0  0  0
 10 23  2  0  0  0  0
 12  8  1  0  0  0  0
 13 25  1  6  0  0  0
 13  5  1  0  0  0  0
 14  9  2  0  0  0  0
 15 18  1  0  0  0  0
 16 30  1  6  0  0  0
 16 12  1  0  0  0  0
 17 21  1  0  0  0  0
 17 16  1  0  0  0  0
 18 11  2  0  0  0  0
 19 46  1  6  0  0  0
 19 29  1  0  0  0  0
 20 33  1  6  0  0  0
 20 13  1  0  0  0  0
 21  3  1  0  0  0  0
 22 26  1  0  0  0  0
 23 11  1  0  0  0  0
 24 28  2  0  0  0  0
 25 15  1  0  0  0  0
 26 27  1  0  0  0  0
 27  4  1  0  0  0  0
 28 20  1  0  0  0  0
 29 22  2  0  0  0  0
 31 30  1  0  0  0  0
 32 31  1  0  0  0  0
 32 30  1  0  0  0  0
 33 34  1  0  0  0  0
 35 36  1  0  0  0  0
 35 34  1  0  0  0  0
 37 38  2  0  0  0  0
 37 39  1  0  0  0  0
 39 36  1  0  0  0  0
 40 37  1  0  0  0  0
 41 40  1  0  0  0  0
 42 41  1  0  0  0  0
 44 42  1  0  0  0  0
 44 43  1  1  0  0  0
 45 44  1  0  0  0  0
 47 49  1  0  0  0  0
 47 46  1  0  0  0  0
 49 48  1  6  0  0  0
 50 53  1  6  0  0  0
 50 49  1  0  0  0  0
 52 53  1  0  0  0  0
 53 51  1  0  0  0  0
 54 50  1  0  0  0  0
 55 56  1  0  0  0  0
 55 54  1  0  0  0  0
 56 57  1  0  0  0  0
 57 58  1  0  0  0  0
 58 59  1  0  0  0  0
 59 60  1  0  0  0  0
 60 62  1  0  0  0  0
 62 61  2  6  0  0  0
 62 63  1  0  0  0  0
 64 65  1  0  0  0  0
 65 62  1  0  0  0  0
M  END
>  <MODEL>
7

>  <REMARK>
 VINA RESULT:       1.0      4.344     10.582
  Name = 
  24 active torsions:
  status: ('A' for Active; 'I' for Inactive)
    1  A    between atoms: C_1  and  O_15
    2  A    between atoms: C_1  and  C_58
    3  A    between atoms: C_3  and  C_37
    4  A    between atoms: C_4  and  N_48
    5  A    between atoms: C_4  and  C_62
    6  A    between atoms: C_5  and  O_15
    7  A    between atoms: C_5  and  C_19
    8  A    between atoms: C_5  and  C_64
    9  A    between atoms: C_9  and  C_52
   10  A    between atoms: O_11  and  C_42
   11  A    between atoms: O_11  and  C_46
   12  A    between atoms: C_14  and  C_63
   13  A    between atoms: O_22  and  P_41
   14  A    between atoms: C_24  and  C_43
   15  A    between atoms: C_24  and  C_53
   16  A    between atoms: C_28  and  N_48
   17  A    between atoms: C_28  and  C_58
   18  A    between atoms: N_40  and  N_49
   19  A    between atoms: P_41  and  C_62
   20  A    between atoms: C_46  and  C_64
   21  A    between atoms: C_47  and  C_52
   22  A    between atoms: C_47  and  C_63
   23  A    between atoms: N_49  and  N_50
   24  A    between atoms: N_50  and  C_53
                            x       y       z     vdW  Elec       q    Type
                         _______ _______ _______ _____ _____    ______ ____

>  <TORSDO>
F 24

$$$$
=
 OpenBabel11042411403D

 65 69  0  0  1  0  0  0  0  0999 V2000
  188.4240  177.2390  145.6630 C   0  0  0  0  0  0  0  0  0  0  0  0
  186.2500  180.5070  140.9180 C   0  0  0  0  0  1  0  0  0  0  0  0
  188.5100  176.8950  140.3360 C   0  0  0  0  0  2  0  0  0  0  0  0
  188.2430  175.9690  143.4390 C   0  0  0  0  0  2  0  0  0  0  0  0
  184.8250  178.5930  146.7840 S   0  0  0  0  0  0  0  0  0  0  0  0
  188.9890  176.5130  144.5650 N   0  0  0  0  0  2  0  0  0  0  0  0
  185.9440  178.2500  142.0370 C   0  0  0  0  0  2  0  0  0  0  0  0
  186.3030  178.9960  140.7520 C   0  0  1  0  0  3  0  0  0  0  0  0
  189.5680  177.9820  138.3130 C   0  0  0  0  0  0  0  0  0  0  0  0
  189.2820  177.6810  146.6840 C   0  0  0  0  0  3  0  0  0  0  0  0
  187.4180  178.7160  147.8570 C   0  0  0  0  0  3  0  0  0  0  0  0
  185.4570  178.5730  139.6470 N   0  0  0  0  0  2  0  0  0  0  0  0
  184.7880  177.9520  145.0480 C   0  0  1  0  0  3  0  0  0  0  0  0
  189.4810  178.3620  137.1130 O   0  0  0  0  0  0  0  0  0  0  0  0
  187.0510  177.5570  145.7710 C   0  0  0  0  0  0  0  0  0  0  0  0
  185.9230  177.2720  139.1650 C   0  0  2  0  0  3  0  0  0  0  0  0
  187.1380  177.4380  138.2490 C   0  0  0  0  0  2  0  0  0  0  0  0
  186.5680  178.2480  146.8620 C   0  0  0  0  0  0  0  0  0  0  0  0
  190.8290  178.2530  139.0970 C   0  0  1  0  0  3  0  0  0  0  0  0
  184.5400  179.1020  144.0490 C   0  0  1  0  0  3  0  0  0  0  0  0
  188.4230  177.4050  138.9600 N   0  0  0  0  0  0  0  0  0  0  0  0
  189.9220  176.7080  140.8380 C   0  0  0  0  0  0  0  0  0  0  0  0
  188.7860  178.4210  147.7710 C   0  0  0  0  0  3  0  0  0  0  0  0
  183.5970  178.4730  141.9490 O   0  0  0  0  0  0  0  0  0  0  0  0
  186.0700  177.3000  144.7790 N   0  0  0  0  0  2  0  0  0  0  0  0
  190.1680  175.8980  141.9590 O   0  0  0  0  0  0  0  0  0  0  0  0
  189.1600  175.1020  142.5900 C   0  0  0  0  0  2  0  0  0  0  0  0
  184.6030  178.6070  142.6210 C   0  0  0  0  0  0  0  0  0  0  0  0
  190.9520  177.3180  140.2630 C   0  0  0  0  0  3  0  0  0  0  0  0
  184.7800  176.6090  138.3920 C   0  0  0  0  0  3  0  0  0  0  0  0
  184.9380  176.9650  136.9270 C   0  0  0  0  0  2  0  0  0  0  0  0
  183.8930  177.6600  137.7690 C   0  0  0  0  0  2  0  0  0  0  0  0
  183.1940  179.7750  144.3360 C   0  0  0  0  0  2  0  0  0  0  0  0
  182.0800  179.1200  143.5390 C   0  0  0  0  0  2  0  0  0  0  0  0
  180.8700  179.0570  144.3580 N   0  0  0  0  0  2  0  0  0  0  0  0
  179.7810  179.2880  143.4970 N   0  0  0  0  0  2  0  0  0  0  0  0
  180.1680  180.1270  141.1920 C   0  0  0  0  0  0  0  0  0  0  0  0
  179.4500  181.1430  141.3950 O   0  0  0  0  0  0  0  0  0  0  0  0
  180.2420  179.0890  142.1820 N   0  0  0  0  0  2  0  0  0  0  0  0
  180.9510  180.0000  139.9240 C   0  0  0  0  0  2  0  0  0  0  0  0
  180.0220  179.8600  138.7280 C   0  0  0  0  0  2  0  0  0  0  0  0
  180.5480  180.5130  137.4480 C   0  0  0  0  0  2  0  0  0  0  0  0
  180.4450  182.5360  135.9580 C   0  0  0  0  0  1  0  0  0  0  0  0
  180.2650  182.0140  137.3760 C   0  0  2  0  0  3  0  0  0  0  0  0
  181.1070  182.7130  138.2410 O   0  0  0  0  0  1  0  0  0  0  0  0
  191.9630  178.1060  138.2880 O   0  0  0  0  0  0  0  0  0  0  0  0
  191.8390  176.8470  137.6930 C   0  0  0  0  0  2  0  0  0  0  0  0
  193.9390  176.3380  138.7920 O   0  0  0  0  0  1  0  0  0  0  0  0
  193.2020  176.1370  137.6220 C   0  0  1  0  0  3  0  0  0  0  0  0
  193.0480  174.6360  137.3180 C   0  0  1  0  0  3  0  0  0  0  0  0
  190.8630  173.6040  137.4890 O   0  0  0  0  0  1  0  0  0  0  0  0
  191.9560  173.4550  135.5080 O   0  0  0  0  0  1  0  0  0  0  0  0
  191.7150  174.2790  136.6130 C   0  0  0  0  0  3  0  0  0  0  0  0
  194.1420  174.2020  136.5530 O   0  0  0  0  0  0  0  0  0  0  0  0
  194.0360  172.8080  136.5380 C   0  0  0  0  0  2  0  0  0  0  0  0
  194.8720  172.2010  137.6580 C   0  0  0  0  0  2  0  0  0  0  0  0
  195.0310  170.6960  137.4800 C   0  0  0  0  0  2  0  0  0  0  0  0
  196.3520  170.2790  137.9250 N   0  0  0  0  0  2  0  0  0  0  0  0
  197.0810  169.8500  136.7410 C   0  0  0  0  0  2  0  0  0  0  0  0
  196.9710  170.9150  135.6620 C   0  0  0  0  0  2  0  0  0  0  0  0
  199.1700  172.1520  134.6050 O   0  0  0  0  0  0  0  0  0  0  0  0
  198.2730  172.1840  135.8230 P   0  0  2  0  0  0  0  0  0  0  0  0
  199.1790  171.8870  137.2250 O   0  0  0  0  0  1  0  0  0  0  0  0
  198.4510  174.6160  135.4070 C   0  0  0  0  0  1  0  0  0  0  0  0
  197.5350  173.7010  135.9530 O   0  0  0  0  0  0  0  0  0  0  0  0
  1 15  2  0  0  0  0
  1 10  1  0  0  0  0
  3 22  1  0  0  0  0
  4  6  1  0  0  0  0
  5 18  1  0  0  0  0
  6  1  1  0  0  0  0
  7 28  1  0  0  0  0
  8  2  1  1  0  0  0
  8  7  1  0  0  0  0
  9 21  1  0  0  0  0
  9 19  1  0  0  0  0
 10 23  2  0  0  0  0
 12  8  1  0  0  0  0
 13 25  1  6  0  0  0
 13  5  1  0  0  0  0
 14  9  2  0  0  0  0
 15 18  1  0  0  0  0
 16 30  1  6  0  0  0
 16 12  1  0  0  0  0
 17 21  1  0  0  0  0
 17 16  1  0  0  0  0
 18 11  2  0  0  0  0
 19 46  1  6  0  0  0
 19 29  1  0  0  0  0
 20 33  1  1  0  0  0
 20 13  1  0  0  0  0
 21  3  1  0  0  0  0
 22 26  1  0  0  0  0
 23 11  1  0  0  0  0
 24 28  2  0  0  0  0
 25 15  1  0  0  0  0
 26 27  1  0  0  0  0
 27  4  1  0  0  0  0
 28 20  1  0  0  0  0
 29 22  2  0  0  0  0
 31 32  1  0  0  0  0
 31 30  1  0  0  0  0
 32 30  1  0  0  0  0
 34 33  1  0  0  0  0
 34 35  1  0  0  0  0
 36 35  1  0  0  0  0
 37 38  2  0  0  0  0
 37 39  1  0  0  0  0
 39 36  1  0  0  0  0
 40 37  1  0  0  0  0
 41 40  1  0  0  0  0
 42 41  1  0  0  0  0
 44 43  1  6  0  0  0
 44 42  1  0  0  0  0
 44 45  1  0  0  0  0
 47 46  1  0  0  0  0
 49 47  1  0  0  0  0
 49 48  1  1  0  0  0
 50 54  1  6  0  0  0
 50 49  1  0  0  0  0
 52 53  1  0  0  0  0
 53 50  1  0  0  0  0
 53 51  1  0  0  0  0
 55 54  1  0  0  0  0
 55 56  1  0  0  0  0
 57 56  1  0  0  0  0
 57 58  1  0  0  0  0
 59 58  1  0  0  0  0
 60 62  1  0  0  0  0
 60 59  1  0  0  0  0
 62 61  2  6  0  0  0
 62 65  1  0  0  0  0
 62 63  1  0  0  0  0
 64 65  1  0  0  0  0
M  END
>  <MODEL>
8

>  <REMARK>
 VINA RESULT:       1.3      4.427     10.960
  Name = 
  24 active torsions:
  status: ('A' for Active; 'I' for Inactive)
    1  A    between atoms: C_1  and  O_15
    2  A    between atoms: C_1  and  C_58
    3  A    between atoms: C_3  and  C_37
    4  A    between atoms: C_4  and  N_48
    5  A    between atoms: C_4  and  C_62
    6  A    between atoms: C_5  and  O_15
    7  A    between atoms: C_5  and  C_19
    8  A    between atoms: C_5  and  C_64
    9  A    between atoms: C_9  and  C_52
   10  A    between atoms: O_11  and  C_42
   11  A    between atoms: O_11  and  C_46
   12  A    between atoms: C_14  and  C_63
   13  A    between atoms: O_22  and  P_41
   14  A    between atoms: C_24  and  C_43
   15  A    between atoms: C_24  and  C_53
   16  A    between atoms: C_28  and  N_48
   17  A    between atoms: C_28  and  C_58
   18  A    between atoms: N_40  and  N_49
   19  A    between atoms: P_41  and  C_62
   20  A    between atoms: C_46  and  C_64
   21  A    between atoms: C_47  and  C_52
   22  A    between atoms: C_47  and  C_63
   23  A    between atoms: N_49  and  N_50
   24  A    between atoms: N_50  and  C_53
                            x       y       z     vdW  Elec       q    Type
                         _______ _______ _______ _____ _____    ______ ____

>  <TORSDO>
F 24

$$$$
=
 OpenBabel11042411403D

 65 69  0  0  1  0  0  0  0  0999 V2000
  188.6190  177.1930  145.8040 C   0  0  0  0  0  0  0  0  0  0  0  0
  187.1050  180.4720  140.8150 C   0  0  0  0  0  1  0  0  0  0  0  0
  189.0700  176.6590  140.5110 C   0  0  0  0  0  2  0  0  0  0  0  0
  188.4910  175.8680  143.6080 C   0  0  0  0  0  2  0  0  0  0  0  0
  185.0820  178.8930  146.6050 S   0  0  0  0  0  0  0  0  0  0  0  0
  189.1970  176.3830  144.7730 N   0  0  0  0  0  2  0  0  0  0  0  0
  186.5160  178.2900  141.9690 C   0  0  0  0  0  2  0  0  0  0  0  0
  187.0350  178.9570  140.6960 C   0  0  1  0  0  3  0  0  0  0  0  0
  190.3690  177.5790  138.5460 C   0  0  0  0  0  0  0  0  0  0  0  0
  189.4350  177.5940  146.8750 C   0  0  0  0  0  3  0  0  0  0  0  0
  187.5880  178.8270  147.8710 C   0  0  0  0  0  3  0  0  0  0  0  0
  186.2400  178.5710  139.5410 N   0  0  0  0  0  2  0  0  0  0  0  0
  185.1170  178.1980  144.8900 C   0  0  1  0  0  3  0  0  0  0  0  0
  190.4060  177.9240  137.3330 O   0  0  0  0  0  0  0  0  0  0  0  0
  187.2750  177.6330  145.7960 C   0  0  0  0  0  0  0  0  0  0  0  0
  186.6220  177.2190  139.1330 C   0  0  2  0  0  3  0  0  0  0  0  0
  187.9110  177.2470  138.3100 C   0  0  0  0  0  2  0  0  0  0  0  0
  186.7760  178.4010  146.8270 C   0  0  0  0  0  0  0  0  0  0  0  0
  191.5870  177.7670  139.4170 C   0  0  1  0  0  3  0  0  0  0  0  0
  185.0480  179.3300  143.8430 C   0  0  1  0  0  3  0  0  0  0  0  0
  189.1320  177.1270  139.1190 N   0  0  0  0  0  0  0  0  0  0  0  0
  190.4180  176.3670  141.1260 C   0  0  0  0  0  0  0  0  0  0  0  0
  188.9270  178.4110  147.8990 C   0  0  0  0  0  3  0  0  0  0  0  0
  184.2120  178.7140  141.6950 O   0  0  0  0  0  0  0  0  0  0  0  0
  186.3520  177.4280  144.7390 N   0  0  0  0  0  2  0  0  0  0  0  0
  190.5060  175.5780  142.2840 O   0  0  0  0  0  0  0  0  0  0  0  0
  189.3880  174.8950  142.8570 C   0  0  0  0  0  2  0  0  0  0  0  0
  185.1730  178.7820  142.4390 C   0  0  0  0  0  0  0  0  0  0  0  0
  191.5390  176.8650  140.6150 C   0  0  0  0  0  3  0  0  0  0  0  0
  185.4850  176.6320  138.2930 C   0  0  0  0  0  3  0  0  0  0  0  0
  185.8020  176.8880  136.8330 C   0  0  0  0  0  2  0  0  0  0  0  0
  184.7680  177.7300  137.5450 C   0  0  0  0  0  2  0  0  0  0  0  0
  183.7500  180.1270  144.0060 C   0  0  0  0  0  2  0  0  0  0  0  0
  182.5700  179.3650  143.4300 C   0  0  0  0  0  2  0  0  0  0  0  0
  181.4640  179.3860  144.3870 N   0  0  0  0  0  2  0  0  0  0  0  0
  180.4220  178.6250  143.8260 N   0  0  0  0  0  2  0  0  0  0  0  0
  179.6860  178.0320  141.5300 C   0  0  0  0  0  0  0  0  0  0  0  0
  179.1780  176.9490  141.9260 O   0  0  0  0  0  0  0  0  0  0  0  0
  180.4540  178.8410  142.4350 N   0  0  0  0  0  2  0  0  0  0  0  0
  179.4860  178.4860  140.1180 C   0  0  0  0  0  2  0  0  0  0  0  0
  180.0080  177.4470  139.1390 C   0  0  0  0  0  2  0  0  0  0  0  0
  180.8600  178.0260  138.0080 C   0  0  0  0  0  2  0  0  0  0  0  0
  180.8180  180.1280  136.6280 C   0  0  0  0  0  1  0  0  0  0  0  0
  180.9400  179.5520  138.0320 C   0  0  2  0  0  3  0  0  0  0  0  0
  182.1400  179.9710  138.6060 O   0  0  0  0  0  1  0  0  0  0  0  0
  192.7610  177.4930  138.7030 O   0  0  0  0  0  0  0  0  0  0  0  0
  192.3760  176.6460  137.6590 C   0  0  0  0  0  2  0  0  0  0  0  0
  192.3100  174.3820  138.5230 O   0  0  0  0  0  1  0  0  0  0  0  0
  193.0760  175.2810  137.7750 C   0  0  1  0  0  3  0  0  0  0  0  0
  193.4170  174.6960  136.3930 C   0  0  1  0  0  3  0  0  0  0  0  0
  191.0460  174.3930  136.0020 O   0  0  0  0  0  1  0  0  0  0  0  0
  192.2980  172.5490  136.4190 O   0  0  0  0  0  1  0  0  0  0  0  0
  192.2960  173.8050  135.8020 C   0  0  0  0  0  3  0  0  0  0  0  0
  193.7340  175.7390  135.5100 O   0  0  0  0  0  0  0  0  0  0  0  0
  194.9170  175.3330  134.8860 C   0  0  0  0  0  2  0  0  0  0  0  0
  196.0890  176.1760  135.3720 C   0  0  0  0  0  2  0  0  0  0  0  0
  197.2040  175.3050  135.9380 C   0  0  0  0  0  2  0  0  0  0  0  0
  197.3930  174.1320  135.0980 N   0  0  0  0  0  2  0  0  0  0  0  0
  198.6210  173.4880  135.5430 C   0  0  0  0  0  2  0  0  0  0  0  0
  198.3430  172.6740  136.7960 C   0  0  0  0  0  2  0  0  0  0  0  0
  197.5560  170.0690  136.5160 O   0  0  0  0  0  1  0  0  0  0  0  0
  196.9920  171.4720  136.5430 P   0  0  2  0  0  0  0  0  0  0  0  0
  196.2020  171.8140  135.0810 O   0  0  0  0  0  0  0  0  0  0  0  0
  195.0230  170.5250  137.7000 C   0  0  0  0  0  1  0  0  0  0  0  0
  195.8880  171.6250  137.8160 O   0  0  0  0  0  0  0  0  0  0  0  0
  1 10  1  0  0  0  0
  3 22  1  0  0  0  0
  4  6  1  0  0  0  0
  5 18  1  0  0  0  0
  6  1  1  0  0  0  0
  7 28  1  0  0  0  0
  8  2  1  1  0  0  0
  8  7  1  0  0  0  0
  9 21  1  0  0  0  0
  9 19  1  0  0  0  0
 10 23  2  0  0  0  0
 11 23  1  0  0  0  0
 12  8  1  0  0  0  0
 13 25  1  6  0  0  0
 13  5  1  0  0  0  0
 14  9  2  0  0  0  0
 15  1  2  0  0  0  0
 15 18  1  0  0  0  0
 16 30  1  6  0  0  0
 16 12  1  0  0  0  0
 17 21  1  0  0  0  0
 17 16  1  0  0  0  0
 18 11  2  0  0  0  0
 19 46  1  6  0  0  0
 19 29  1  0  0  0  0
 20 33  1  6  0  0  0
 20 13  1  0  0  0  0
 21  3  1  0  0  0  0
 22 26  1  0  0  0  0
 24 28  2  0  0  0  0
 25 15  1  0  0  0  0
 26 27  1  0  0  0  0
 27  4  1  0  0  0  0
 28 20  1  0  0  0  0
 29 22  2  0  0  0  0
 31 32  1  0  0  0  0
 31 30  1  0  0  0  0
 32 30  1  0  0  0  0
 34 33  1  0  0  0  0
 34 35  1  0  0  0  0
 36 35  1  0  0  0  0
 37 38  2  0  0  0  0
 37 39  1  0  0  0  0
 39 36  1  0  0  0  0
 40 37  1  0  0  0  0
 41 40  1  0  0  0  0
 42 44  1  0  0  0  0
 42 41  1  0  0  0  0
 44 43  1  6  0  0  0
 44 45  1  0  0  0  0
 47 49  1  0  0  0  0
 47 46  1  0  0  0  0
 49 48  1  6  0  0  0
 50 54  1  6  0  0  0
 50 49  1  0  0  0  0
 53 51  1  0  0  0  0
 53 50  1  0  0  0  0
 53 52  1  0  0  0  0
 55 56  1  0  0  0  0
 55 54  1  0  0  0  0
 56 57  1  0  0  0  0
 58 59  1  0  0  0  0
 58 57  1  0  0  0  0
 59 60  1  0  0  0  0
 61 62  1  0  0  0  0
 62 63  2  6  0  0  0
 62 60  1  0  0  0  0
 62 65  1  0  0  0  0
 64 65  1  0  0  0  0
M  END
>  <MODEL>
9

>  <REMARK>
 VINA RESULT:       1.4      4.283     10.684
  Name = 
  24 active torsions:
  status: ('A' for Active; 'I' for Inactive)
    1  A    between atoms: C_1  and  O_15
    2  A    between atoms: C_1  and  C_58
    3  A    between atoms: C_3  and  C_37
    4  A    between atoms: C_4  and  N_48
    5  A    between atoms: C_4  and  C_62
    6  A    between atoms: C_5  and  O_15
    7  A    between atoms: C_5  and  C_19
    8  A    between atoms: C_5  and  C_64
    9  A    between atoms: C_9  and  C_52
   10  A    between atoms: O_11  and  C_42
   11  A    between atoms: O_11  and  C_46
   12  A    between atoms: C_14  and  C_63
   13  A    between atoms: O_22  and  P_41
   14  A    between atoms: C_24  and  C_43
   15  A    between atoms: C_24  and  C_53
   16  A    between atoms: C_28  and  N_48
   17  A    between atoms: C_28  and  C_58
   18  A    between atoms: N_40  and  N_49
   19  A    between atoms: P_41  and  C_62
   20  A    between atoms: C_46  and  C_64
   21  A    between atoms: C_47  and  C_52
   22  A    between atoms: C_47  and  C_63
   23  A    between atoms: N_49  and  N_50
   24  A    between atoms: N_50  and  C_53
                            x       y       z     vdW  Elec       q    Type
                         _______ _______ _______ _____ _____    ______ ____

>  <TORSDO>
F 24

$$$$
