=
 OpenBabel11042410193D

 48 52  0  0  1  0  0  0  0  0999 V2000
  186.0290  178.4220  142.0040 C   0  0  0  0  0  2  0  0  0  0  0  0
  183.4510  179.1790  143.2200 C   0  0  0  0  0  0  0  0  0  0  0  0
  186.0410  180.0230  142.8430 S   0  0  0  0  0  0  0  0  0  0  0  0
  179.7250  177.9830  141.8230 C   0  0  0  0  0  0  0  0  0  0  0  0
  181.0920  178.3910  142.0600 C   0  0  0  0  0  0  0  0  0  0  0  0
  178.9880  178.1510  142.8780 N   0  0  0  0  0  0  0  0  0  0  0  0
  184.7600  178.2590  141.1800 C   0  0  1  0  0  3  0  0  0  0  0  0
  182.2760  179.2890  143.9020 N   0  0  0  0  0  0  0  0  0  0  0  0
  179.7730  178.7900  143.9420 C   0  0  0  0  0  2  0  0  0  0  0  0
  183.4760  178.5780  141.9200 C   0  0  0  0  0  0  0  0  0  0  0  0
  179.2470  178.0190  139.3350 C   0  0  0  0  0  0  0  0  0  0  0  0
  178.9310  177.3410  138.3200 O   0  0  0  0  0  0  0  0  0  0  0  0
  184.7060  179.5090  143.9750 C   0  0  2  0  0  3  0  0  0  0  0  0
  181.1130  178.9210  143.3130 C   0  0  0  0  0  0  0  0  0  0  0  0
  179.2240  177.3870  140.6280 N   0  0  0  0  0  2  0  0  0  0  0  0
  182.2580  178.1800  141.3340 C   0  0  0  0  0  3  0  0  0  0  0  0
  180.5470  179.8420  138.2000 N   0  0  0  0  0  2  0  0  0  0  0  0
  178.9670  180.3390  139.8410 O   0  0  0  0  0  0  0  0  0  0  0  0
  179.5510  179.4530  139.1550 C   0  0  0  0  0  0  0  0  0  0  0  0
  180.6620  181.2220  137.7500 C   0  0  1  0  0  3  0  0  0  0  0  0
  181.8910  181.8620  138.3680 C   0  0  0  0  0  1  0  0  0  0  0  0
  180.7370  181.2650  136.2570 C   0  0  0  0  0  0  0  0  0  0  0  0
  180.7290  182.4930  135.6040 O   0  0  0  0  0  1  0  0  0  0  0  0
  180.7910  180.2000  135.5860 O   0  0  0  0  0  0  0  0  0  0  0  0
  185.0910  178.3040  144.8290 C   0  0  0  0  0  2  0  0  0  0  0  0
  187.2570  177.6050  145.8670 C   0  0  0  0  0  0  0  0  0  0  0  0
  186.7100  177.6160  147.0070 O   0  0  0  0  0  0  0  0  0  0  0  0
  186.5060  177.9820  144.7080 N   0  0  0  0  0  2  0  0  0  0  0  0
  189.0700  178.3940  147.7470 O   0  0  0  0  0  1  0  0  0  0  0  0
  190.2720  177.5810  144.0660 C   0  0  2  0  0  3  0  0  0  0  0  0
  188.6500  177.0650  145.7300 C   0  0  2  0  0  3  0  0  0  0  0  0
  189.5920  177.5430  146.7680 C   0  0  2  0  0  0  0  0  0  0  0  0
  190.5490  176.4480  147.2470 C   0  0  0  0  0  1  0  0  0  0  0  0
  191.0740  178.0090  145.0970 O   0  0  0  0  0  0  0  0  0  0  0  0
  189.6810  178.1860  145.3540 C   0  0  1  0  0  0  0  0  0  0  0  0
  190.4980  176.0970  143.9440 C   0  0  0  0  0  3  0  0  0  0  0  0
  191.7390  175.6390  143.8010 C   0  0  0  0  0  2  0  0  0  0  0  0
  184.8640  179.0170  139.8610 C   0  0  0  0  0  2  0  0  0  0  0  0
  185.4260  178.1130  138.7540 C   0  0  1  0  0  3  0  0  0  0  0  0
  185.2540  177.4110  136.5800 C   0  0  0  0  0  1  0  0  0  0  0  0
  184.6040  178.1250  137.6000 O   0  0  0  0  0  0  0  0  0  0  0  0
  186.8240  178.4190  138.4180 N   0  0  0  0  0  2  0  0  0  0  0  0
  187.9380  177.8320  139.0810 C   0  0  0  0  0  3  0  0  0  0  0  0
  189.1710  178.1860  138.7390 C   0  0  0  0  0  3  0  0  0  0  0  0
  190.0480  177.1150  140.6560 F   0  0  0  0  0  0  0  0  0  0  0  0
  190.3780  177.6020  139.4030 C   0  0  1  0  0  3  0  0  0  0  0  0
  191.0100  176.4950  138.5670 C   0  0  0  0  0  2  0  0  0  0  0  0
  192.3910  176.6980  138.4820 O   0  0  0  0  0  1  0  0  0  0  0  0
  1  3  1  0  0  0  0
  2  8  1  0  0  0  0
  2 13  1  0  0  0  0
  3 13  1  0  0  0  0
  4  5  1  0  0  0  0
  4  6  2  0  0  0  0
  5 14  1  0  0  0  0
  6  9  1  0  0  0  0
  7 38  1  6  0  0  0
  7 10  1  0  0  0  0
  7  1  1  0  0  0  0
 10  2  2  0  0  0  0
 11 15  1  0  0  0  0
 12 11  2  0  0  0  0
 13 25  1  6  0  0  0
 14  8  2  0  0  0  0
 14  9  1  0  0  0  0
 15  4  1  0  0  0  0
 16 10  1  0  0  0  0
 16  5  2  0  0  0  0
 17 19  1  0  0  0  0
 19 11  1  0  0  0  0
 19 18  2  0  0  0  0
 20 17  1  0  0  0  0
 20 21  1  1  0  0  0
 22 20  1  0  0  0  0
 23 22  1  0  0  0  0
 24 22  2  0  0  0  0
 26 27  2  0  0  0  0
 28 25  1  0  0  0  0
 28 26  1  0  0  0  0
 30 36  1  1  0  0  0
 30 34  1  0  0  0  0
 30 35  1  0  0  0  0
 31 26  1  1  0  0  0
 31 32  1  0  0  0  0
 32 33  1  1  0  0  0
 32 29  1  0  0  0  0
 35 34  1  6  0  0  0
 35 31  1  0  0  0  0
 35 32  1  0  0  0  0
 37 36  2  0  0  0  0
 39 38  1  1  0  0  0
 40 41  1  0  0  0  0
 41 39  1  0  0  0  0
 42 39  1  0  0  0  0
 42 43  1  0  0  0  0
 44 43  2  0  0  0  0
 44 46  1  0  0  0  0
 46 45  1  1  0  0  0
 47 46  1  0  0  0  0
 48 47  1  0  0  0  0
M  END
>  <MODEL>
1

>  <REMARK>
 VINA RESULT:      -7.1      0.000      0.000
  Name = 
  14 active torsions:
  status: ('A' for Active; 'I' for Inactive)
    1  A    between atoms: C_2  and  CA_42
    2  A    between atoms: C_3  and  C_22
    3  A    between atoms: C_4  and  C_14
    4  A    between atoms: N_6  and  CA_42
    5  A    between atoms: C_12  and  C_31
    6  A    between atoms: C_18  and  C_43
    7  A    between atoms: O_21  and  C_35
    8  A    between atoms: C_22  and  C_34
    9  A    between atoms: N_23  and  C_37
   10  A    between atoms: C_27  and  C_47
   11  A    between atoms: C_30  and  N_44
   12  A    between atoms: C_35  and  C_43
   13  A    between atoms: C_35  and  N_44
   14  A    between atoms: C_37  and  C_38
                            x       y       z     vdW  Elec       q    Type
                         _______ _______ _______ _____ _____    ______ ____

>  <TORSDO>
F 14

$$$$
=
 OpenBabel11042410193D

 48 52  0  0  1  0  0  0  0  0999 V2000
  186.2610  178.4040  141.2860 C   0  0  0  0  0  2  0  0  0  0  0  0
  183.7680  178.9750  142.7550 C   0  0  0  0  0  0  0  0  0  0  0  0
  186.3170  179.9000  142.2990 S   0  0  0  0  0  0  0  0  0  0  0  0
  179.9640  177.8810  141.4930 C   0  0  0  0  0  0  0  0  0  0  0  0
  181.3410  178.2830  141.6790 C   0  0  0  0  0  0  0  0  0  0  0  0
  179.3020  177.9160  142.6080 N   0  0  0  0  0  0  0  0  0  0  0  0
  184.9380  178.3120  140.5380 C   0  0  1  0  0  3  0  0  0  0  0  0
  182.6430  178.9880  143.5250 N   0  0  0  0  0  0  0  0  0  0  0  0
  180.1540  178.4450  143.6810 C   0  0  0  0  0  2  0  0  0  0  0  0
  183.7070  178.5240  141.3970 C   0  0  0  0  0  0  0  0  0  0  0  0
  179.3120  178.1880  139.0640 C   0  0  0  0  0  0  0  0  0  0  0  0
  178.9310  177.6230  138.0020 O   0  0  0  0  0  0  0  0  0  0  0  0
  185.0700  179.2390  143.4540 C   0  0  2  0  0  3  0  0  0  0  0  0
  181.4450  178.6690  142.9790 C   0  0  0  0  0  0  0  0  0  0  0  0
  179.3860  177.4140  140.2750 N   0  0  0  0  0  2  0  0  0  0  0  0
  182.4550  178.1740  140.8550 C   0  0  0  0  0  3  0  0  0  0  0  0
  180.6210  180.1310  138.1610 N   0  0  0  0  0  2  0  0  0  0  0  0
  178.9510  180.4470  139.7580 O   0  0  0  0  0  0  0  0  0  0  0  0
  179.5890  179.6380  139.0260 C   0  0  0  0  0  0  0  0  0  0  0  0
  180.7240  181.5480  137.8410 C   0  0  1  0  0  3  0  0  0  0  0  0
  182.0370  182.0970  138.3670 C   0  0  0  0  0  1  0  0  0  0  0  0
  180.6220  181.7430  136.3620 C   0  0  0  0  0  0  0  0  0  0  0  0
  180.3100  183.0000  135.8550 O   0  0  0  0  0  1  0  0  0  0  0  0
  180.8000  180.7770  135.5730 O   0  0  0  0  0  0  0  0  0  0  0  0
  185.5250  177.9530  144.1380 C   0  0  0  0  0  2  0  0  0  0  0  0
  187.8990  177.1900  144.3440 C   0  0  0  0  0  0  0  0  0  0  0  0
  187.6580  176.2360  143.5500 O   0  0  0  0  0  0  0  0  0  0  0  0
  186.8510  178.0890  144.7250 N   0  0  0  0  0  2  0  0  0  0  0  0
  189.5200  178.4220  142.5290 O   0  0  0  0  0  1  0  0  0  0  0  0
  191.0560  175.8640  145.1280 C   0  0  2  0  0  3  0  0  0  0  0  0
  189.3150  177.4480  144.7700 C   0  0  2  0  0  3  0  0  0  0  0  0
  190.1490  178.1020  143.7360 C   0  0  2  0  0  0  0  0  0  0  0  0
  191.0960  179.1540  144.3200 C   0  0  0  0  0  1  0  0  0  0  0  0
  191.7530  176.5320  144.1500 O   0  0  0  0  0  0  0  0  0  0  0  0
  190.3390  176.5740  143.9640 C   0  0  1  0  0  0  0  0  0  0  0  0
  191.3370  176.5900  146.4170 C   0  0  0  0  0  3  0  0  0  0  0  0
  192.1590  176.0380  147.3060 C   0  0  0  0  0  2  0  0  0  0  0  0
  184.9430  179.2150  139.3100 C   0  0  0  0  0  2  0  0  0  0  0  0
  185.5020  178.4730  138.0880 C   0  0  1  0  0  3  0  0  0  0  0  0
  187.3430  177.9530  136.8270 C   0  0  0  0  0  1  0  0  0  0  0  0
  186.9090  178.6130  137.9890 O   0  0  0  0  0  0  0  0  0  0  0  0
  185.1000  177.0610  138.0400 N   0  0  0  0  0  2  0  0  0  0  0  0
  183.9290  176.5990  137.3760 C   0  0  0  0  0  3  0  0  0  0  0  0
  183.0270  175.8910  138.0460 C   0  0  0  0  0  3  0  0  0  0  0  0
  182.0910  174.4950  136.3830 F   0  0  0  0  0  0  0  0  0  0  0  0
  181.7780  175.3810  137.3990 C   0  0  1  0  0  3  0  0  0  0  0  0
  180.8480  174.7100  138.4030 C   0  0  0  0  0  2  0  0  0  0  0  0
  181.2860  174.9740  139.7030 O   0  0  0  0  0  1  0  0  0  0  0  0
  1  3  1  0  0  0  0
  2 13  1  0  0  0  0
  2  8  1  0  0  0  0
  3 13  1  0  0  0  0
  4  5  1  0  0  0  0
  4  6  2  0  0  0  0
  5 14  1  0  0  0  0
  6  9  1  0  0  0  0
  7 38  1  6  0  0  0
  7  1  1  0  0  0  0
  7 10  1  0  0  0  0
 10  2  2  0  0  0  0
 11 15  1  0  0  0  0
 12 11  2  0  0  0  0
 13 25  1  6  0  0  0
 14  8  2  0  0  0  0
 14  9  1  0  0  0  0
 15  4  1  0  0  0  0
 16 10  1  0  0  0  0
 16  5  2  0  0  0  0
 17 19  1  0  0  0  0
 19 11  1  0  0  0  0
 19 18  2  0  0  0  0
 20 17  1  0  0  0  0
 20 21  1  6  0  0  0
 22 20  1  0  0  0  0
 23 22  1  0  0  0  0
 24 22  2  0  0  0  0
 25 28  1  0  0  0  0
 26 28  1  0  0  0  0
 27 26  2  0  0  0  0
 29 32  1  0  0  0  0
 30 36  1  1  0  0  0
 31 26  1  6  0  0  0
 32 35  1  0  0  0  0
 32 33  1  1  0  0  0
 32 31  1  0  0  0  0
 34 30  1  0  0  0  0
 35 34  1  6  0  0  0
 35 31  1  0  0  0  0
 35 30  1  0  0  0  0
 36 37  2  0  0  0  0
 39 38  1  1  0  0  0
 40 41  1  0  0  0  0
 41 39  1  0  0  0  0
 42 39  1  0  0  0  0
 43 42  1  0  0  0  0
 43 44  2  0  0  0  0
 46 45  1  6  0  0  0
 46 44  1  0  0  0  0
 46 47  1  0  0  0  0
 47 48  1  0  0  0  0
M  END
>  <MODEL>
2

>  <REMARK>
 VINA RESULT:      -6.9      2.239      3.531
  Name = 
  14 active torsions:
  status: ('A' for Active; 'I' for Inactive)
    1  A    between atoms: C_2  and  CA_42
    2  A    between atoms: C_3  and  C_22
    3  A    between atoms: C_4  and  C_14
    4  A    between atoms: N_6  and  CA_42
    5  A    between atoms: C_12  and  C_31
    6  A    between atoms: C_18  and  C_43
    7  A    between atoms: O_21  and  C_35
    8  A    between atoms: C_22  and  C_34
    9  A    between atoms: N_23  and  C_37
   10  A    between atoms: C_27  and  C_47
   11  A    between atoms: C_30  and  N_44
   12  A    between atoms: C_35  and  C_43
   13  A    between atoms: C_35  and  N_44
   14  A    between atoms: C_37  and  C_38
                            x       y       z     vdW  Elec       q    Type
                         _______ _______ _______ _____ _____    ______ ____

>  <TORSDO>
F 14

$$$$
=
 OpenBabel11042410193D

 48 52  0  0  1  0  0  0  0  0999 V2000
  186.2330  178.3730  141.5830 C   0  0  0  0  0  2  0  0  0  0  0  0
  183.7250  179.0020  143.0010 C   0  0  0  0  0  0  0  0  0  0  0  0
  186.2760  179.9140  142.5280 S   0  0  0  0  0  0  0  0  0  0  0  0
  179.9350  177.8410  141.7520 C   0  0  0  0  0  0  0  0  0  0  0  0
  181.3100  178.2550  141.9330 C   0  0  0  0  0  0  0  0  0  0  0  0
  179.2620  177.9240  142.8580 N   0  0  0  0  0  0  0  0  0  0  0  0
  184.9180  178.2450  140.8270 C   0  0  1  0  0  3  0  0  0  0  0  0
  182.5920  179.0460  143.7590 N   0  0  0  0  0  0  0  0  0  0  0  0
  180.1030  178.5030  143.9150 C   0  0  0  0  0  2  0  0  0  0  0  0
  183.6770  178.4910  141.6640 C   0  0  0  0  0  0  0  0  0  0  0  0
  179.3060  178.0370  139.3060 C   0  0  0  0  0  0  0  0  0  0  0  0
  178.9370  177.4240  138.2670 O   0  0  0  0  0  0  0  0  0  0  0  0
  185.0190  179.3010  143.7000 C   0  0  2  0  0  3  0  0  0  0  0  0
  181.4000  178.6990  143.2160 C   0  0  0  0  0  0  0  0  0  0  0  0
  179.3700  177.3180  140.5510 N   0  0  0  0  0  2  0  0  0  0  0  0
  182.4320  178.1130  141.1260 C   0  0  0  0  0  3  0  0  0  0  0  0
  180.4490  179.9640  138.1710 N   0  0  0  0  0  2  0  0  0  0  0  0
  179.0820  180.3050  140.0290 O   0  0  0  0  0  0  0  0  0  0  0  0
  179.5800  179.4850  139.2060 C   0  0  0  0  0  0  0  0  0  0  0  0
  180.5020  181.3760  137.8240 C   0  0  1  0  0  3  0  0  0  0  0  0
  181.7960  181.9810  138.3340 C   0  0  0  0  0  1  0  0  0  0  0  0
  180.3890  181.5400  136.3410 C   0  0  0  0  0  0  0  0  0  0  0  0
  179.7690  180.5500  135.5860 O   0  0  0  0  0  0  0  0  0  0  0  0
  180.8650  182.5570  135.7700 O   0  0  0  0  0  1  0  0  0  0  0  0
  185.4710  178.0480  144.4440 C   0  0  0  0  0  2  0  0  0  0  0  0
  187.8580  177.3090  144.5600 C   0  0  0  0  0  0  0  0  0  0  0  0
  187.6000  176.3610  143.7650 O   0  0  0  0  0  0  0  0  0  0  0  0
  186.8150  178.1930  144.9860 N   0  0  0  0  0  2  0  0  0  0  0  0
  189.4580  178.3820  142.6290 O   0  0  0  0  0  1  0  0  0  0  0  0
  191.0130  176.0010  145.3790 C   0  0  2  0  0  3  0  0  0  0  0  0
  189.2850  177.5780  144.9390 C   0  0  2  0  0  3  0  0  0  0  0  0
  190.1070  178.1430  143.8440 C   0  0  2  0  0  0  0  0  0  0  0  0
  191.0780  179.2220  144.3310 C   0  0  0  0  0  1  0  0  0  0  0  0
  191.6990  176.5860  144.3420 O   0  0  0  0  0  0  0  0  0  0  0  0
  190.2820  176.6330  144.1800 C   0  0  1  0  0  0  0  0  0  0  0  0
  191.3290  176.8150  146.6060 C   0  0  0  0  0  3  0  0  0  0  0  0
  192.0790  176.2790  147.5650 C   0  0  0  0  0  2  0  0  0  0  0  0
  184.9320  179.0920  139.5600 C   0  0  0  0  0  2  0  0  0  0  0  0
  185.2570  178.2320  138.3300 C   0  0  1  0  0  3  0  0  0  0  0  0
  183.6620  176.7900  137.5410 C   0  0  0  0  0  1  0  0  0  0  0  0
  184.1410  178.1090  137.4670 O   0  0  0  0  0  0  0  0  0  0  0  0
  186.4470  178.6970  137.6040 N   0  0  0  0  0  2  0  0  0  0  0  0
  187.7410  178.1270  137.7690 C   0  0  0  0  0  3  0  0  0  0  0  0
  188.4770  177.8430  136.7010 C   0  0  0  0  0  3  0  0  0  0  0  0
  190.0560  176.7750  138.1000 F   0  0  0  0  0  0  0  0  0  0  0  0
  189.8440  177.2440  136.8150 C   0  0  1  0  0  3  0  0  0  0  0  0
  190.0600  176.1180  135.8110 C   0  0  0  0  0  2  0  0  0  0  0  0
  191.3350  176.2260  135.2480 O   0  0  0  0  0  1  0  0  0  0  0  0
  1  3  1  0  0  0  0
  2 13  1  0  0  0  0
  2  8  1  0  0  0  0
  3 13  1  0  0  0  0
  4  5  1  0  0  0  0
  4  6  2  0  0  0  0
  5 14  1  0  0  0  0
  6  9  1  0  0  0  0
  7 38  1  6  0  0  0
  7  1  1  0  0  0  0
  7 10  1  0  0  0  0
 10  2  2  0  0  0  0
 11 15  1  0  0  0  0
 12 11  2  0  0  0  0
 13 25  1  6  0  0  0
 14  8  2  0  0  0  0
 14  9  1  0  0  0  0
 15  4  1  0  0  0  0
 16 10  1  0  0  0  0
 16  5  2  0  0  0  0
 17 19  1  0  0  0  0
 19 11  1  0  0  0  0
 19 18  2  0  0  0  0
 20 17  1  0  0  0  0
 20 21  1  6  0  0  0
 22 20  1  0  0  0  0
 23 22  2  0  0  0  0
 24 22  1  0  0  0  0
 25 28  1  0  0  0  0
 26 28  1  0  0  0  0
 27 26  2  0  0  0  0
 29 32  1  0  0  0  0
 30 36  1  1  0  0  0
 31 26  1  6  0  0  0
 32 35  1  0  0  0  0
 32 33  1  1  0  0  0
 32 31  1  0  0  0  0
 34 30  1  0  0  0  0
 35 34  1  6  0  0  0
 35 31  1  0  0  0  0
 35 30  1  0  0  0  0
 36 37  2  0  0  0  0
 39 38  1  1  0  0  0
 41 40  1  0  0  0  0
 41 39  1  0  0  0  0
 42 43  1  0  0  0  0
 42 39  1  0  0  0  0
 44 46  1  0  0  0  0
 44 43  2  0  0  0  0
 46 45  1  1  0  0  0
 47 46  1  0  0  0  0
 48 47  1  0  0  0  0
M  END
>  <MODEL>
3

>  <REMARK>
 VINA RESULT:      -6.7      1.407      1.840
  Name = 
  14 active torsions:
  status: ('A' for Active; 'I' for Inactive)
    1  A    between atoms: C_2  and  CA_42
    2  A    between atoms: C_3  and  C_22
    3  A    between atoms: C_4  and  C_14
    4  A    between atoms: N_6  and  CA_42
    5  A    between atoms: C_12  and  C_31
    6  A    between atoms: C_18  and  C_43
    7  A    between atoms: O_21  and  C_35
    8  A    between atoms: C_22  and  C_34
    9  A    between atoms: N_23  and  C_37
   10  A    between atoms: C_27  and  C_47
   11  A    between atoms: C_30  and  N_44
   12  A    between atoms: C_35  and  C_43
   13  A    between atoms: C_35  and  N_44
   14  A    between atoms: C_37  and  C_38
                            x       y       z     vdW  Elec       q    Type
                         _______ _______ _______ _____ _____    ______ ____

>  <TORSDO>
F 14

$$$$
=
 OpenBabel11042410193D

 48 52  0  0  1  0  0  0  0  0999 V2000
  189.0980  178.3670  140.8420 C   0  0  0  0  0  2  0  0  0  0  0  0
  189.0330  176.4420  138.6080 C   0  0  0  0  0  0  0  0  0  0  0  0
  189.7390  176.7270  141.2500 S   0  0  0  0  0  0  0  0  0  0  0  0
  186.2690  176.4960  135.5060 C   0  0  0  0  0  0  0  0  0  0  0  0
  187.0370  176.5720  136.7290 C   0  0  0  0  0  0  0  0  0  0  0  0
  186.8910  175.8140  134.5940 N   0  0  0  0  0  0  0  0  0  0  0  0
  187.8240  178.2530  140.0150 C   0  0  1  0  0  3  0  0  0  0  0  0
  189.1360  175.7420  137.4420 N   0  0  0  0  0  0  0  0  0  0  0  0
  188.1380  175.2640  135.1420 C   0  0  0  0  0  2  0  0  0  0  0  0
  187.9180  177.3130  138.8300 C   0  0  0  0  0  0  0  0  0  0  0  0
  183.8210  176.9070  136.0140 C   0  0  0  0  0  0  0  0  0  0  0  0
  182.8210  177.6520  135.8190 O   0  0  0  0  0  0  0  0  0  0  0  0
  190.2250  176.4180  139.5190 C   0  0  2  0  0  3  0  0  0  0  0  0
  188.1340  175.7930  136.5310 C   0  0  0  0  0  0  0  0  0  0  0  0
  185.0220  177.1450  135.2580 N   0  0  0  0  0  2  0  0  0  0  0  0
  186.8980  177.3690  137.8590 C   0  0  0  0  0  3  0  0  0  0  0  0
  183.4830  174.4560  136.4370 N   0  0  0  0  0  2  0  0  0  0  0  0
  183.7100  175.9580  138.2060 O   0  0  0  0  0  0  0  0  0  0  0  0
  183.6810  175.7770  136.9550 C   0  0  0  0  0  0  0  0  0  0  0  0
  183.6590  173.2810  137.2790 C   0  0  1  0  0  3  0  0  0  0  0  0
  182.5950  172.2500  136.9500 C   0  0  0  0  0  1  0  0  0  0  0  0
  185.0280  172.7120  137.0770 C   0  0  0  0  0  0  0  0  0  0  0  0
  185.2010  171.6250  136.2260 O   0  0  0  0  0  0  0  0  0  0  0  0
  186.0210  173.1980  137.6820 O   0  0  0  0  0  1  0  0  0  0  0  0
  191.2490  177.4270  139.0070 C   0  0  0  0  0  2  0  0  0  0  0  0
  193.3090  176.4280  137.9990 C   0  0  0  0  0  0  0  0  0  0  0  0
  193.8840  176.4870  139.1230 O   0  0  0  0  0  0  0  0  0  0  0  0
  191.9740  176.9240  137.8480 N   0  0  0  0  0  2  0  0  0  0  0  0
  192.2530  174.0240  137.2620 O   0  0  0  0  0  1  0  0  0  0  0  0
  196.1320  174.6810  136.8520 C   0  0  2  0  0  3  0  0  0  0  0  0
  193.9870  175.7120  136.8680 C   0  0  2  0  0  3  0  0  0  0  0  0
  193.3780  174.4050  136.5260 C   0  0  2  0  0  0  0  0  0  0  0  0
  193.3350  174.1510  135.0170 C   0  0  0  0  0  1  0  0  0  0  0  0
  195.4790  173.5130  136.5440 O   0  0  0  0  0  0  0  0  0  0  0  0
  194.7010  174.3990  137.3470 C   0  0  1  0  0  0  0  0  0  0  0  0
  196.3710  175.3900  135.5450 C   0  0  0  0  0  3  0  0  0  0  0  0
  197.6170  175.6850  135.1850 C   0  0  0  0  0  2  0  0  0  0  0  0
  186.6250  177.9400  140.9030 C   0  0  0  0  0  2  0  0  0  0  0  0
  185.8280  179.2140  141.2160 C   0  0  1  0  0  3  0  0  0  0  0  0
  183.9320  178.9600  139.9550 C   0  0  0  0  0  1  0  0  0  0  0  0
  185.1280  179.6870  140.0780 O   0  0  0  0  0  0  0  0  0  0  0  0
  184.9310  179.0610  142.3700 N   0  0  0  0  0  2  0  0  0  0  0  0
  185.1970  178.1860  143.4610 C   0  0  0  0  0  3  0  0  0  0  0  0
  186.0440  178.5590  144.4140 C   0  0  0  0  0  3  0  0  0  0  0  0
  187.7270  177.6430  145.7990 F   0  0  0  0  0  0  0  0  0  0  0  0
  186.3600  177.6800  145.5830 C   0  0  1  0  0  3  0  0  0  0  0  0
  185.6480  178.1360  146.8500 C   0  0  0  0  0  2  0  0  0  0  0  0
  185.6570  179.5320  146.9210 O   0  0  0  0  0  1  0  0  0  0  0  0
  1  3  1  0  0  0  0
  2 10  1  0  0  0  0
  2 13  1  0  0  0  0
  4  5  1  0  0  0  0
  5 16  1  0  0  0  0
  6  9  1  0  0  0  0
  6  4  2  0  0  0  0
  7  1  1  0  0  0  0
  7 38  1  1  0  0  0
  8  2  2  0  0  0  0
  9 14  1  0  0  0  0
 10  7  1  0  0  0  0
 11 19  1  0  0  0  0
 12 11  2  0  0  0  0
 13 25  1  6  0  0  0
 13  3  1  0  0  0  0
 14  5  2  0  0  0  0
 14  8  1  0  0  0  0
 15  4  1  0  0  0  0
 15 11  1  0  0  0  0
 16 10  2  0  0  0  0
 17 19  1  0  0  0  0
 17 20  1  0  0  0  0
 19 18  2  0  0  0  0
 20 21  1  6  0  0  0
 22 20  1  0  0  0  0
 22 24  1  0  0  0  0
 23 22  2  0  0  0  0
 26 27  2  0  0  0  0
 28 26  1  0  0  0  0
 28 25  1  0  0  0  0
 30 36  1  6  0  0  0
 30 35  1  0  0  0  0
 31 35  1  0  0  0  0
 31 26  1  1  0  0  0
 32 33  1  6  0  0  0
 32 31  1  0  0  0  0
 32 29  1  0  0  0  0
 32 35  1  0  0  0  0
 34 30  1  0  0  0  0
 35 34  1  1  0  0  0
 37 36  2  0  0  0  0
 39 38  1  6  0  0  0
 39 42  1  0  0  0  0
 40 41  1  0  0  0  0
 41 39  1  0  0  0  0
 42 43  1  0  0  0  0
 43 44  2  0  0  0  0
 44 46  1  0  0  0  0
 46 45  1  1  0  0  0
 46 47  1  0  0  0  0
 47 48  1  0  0  0  0
M  END
>  <MODEL>
4

>  <REMARK>
 VINA RESULT:      -6.6      3.781      8.505
  Name = 
  14 active torsions:
  status: ('A' for Active; 'I' for Inactive)
    1  A    between atoms: C_2  and  CA_42
    2  A    between atoms: C_3  and  C_22
    3  A    between atoms: C_4  and  C_14
    4  A    between atoms: N_6  and  CA_42
    5  A    between atoms: C_12  and  C_31
    6  A    between atoms: C_18  and  C_43
    7  A    between atoms: O_21  and  C_35
    8  A    between atoms: C_22  and  C_34
    9  A    between atoms: N_23  and  C_37
   10  A    between atoms: C_27  and  C_47
   11  A    between atoms: C_30  and  N_44
   12  A    between atoms: C_35  and  C_43
   13  A    between atoms: C_35  and  N_44
   14  A    between atoms: C_37  and  C_38
                            x       y       z     vdW  Elec       q    Type
                         _______ _______ _______ _____ _____    ______ ____

>  <TORSDO>
F 14

$$$$
=
 OpenBabel11042410193D

 48 52  0  0  1  0  0  0  0  0999 V2000
  189.8710  177.5580  142.8610 C   0  0  0  0  0  2  0  0  0  0  0  0
  189.1250  176.8830  140.0890 C   0  0  0  0  0  0  0  0  0  0  0  0
  190.2000  175.8420  142.3960 S   0  0  0  0  0  0  0  0  0  0  0  0
  186.0680  178.7030  137.9420 C   0  0  0  0  0  0  0  0  0  0  0  0
  186.9820  178.1140  138.8960 C   0  0  0  0  0  0  0  0  0  0  0  0
  186.4140  178.4340  136.7210 N   0  0  0  0  0  0  0  0  0  0  0  0
  188.5090  178.0010  142.3460 C   0  0  1  0  0  3  0  0  0  0  0  0
  188.9320  176.7820  138.7430 N   0  0  0  0  0  0  0  0  0  0  0  0
  187.5760  177.5350  136.7160 C   0  0  0  0  0  2  0  0  0  0  0  0
  188.2540  177.6980  140.8820 C   0  0  0  0  0  0  0  0  0  0  0  0
  183.8440  179.1600  139.0680 C   0  0  0  0  0  0  0  0  0  0  0  0
  183.0070  180.0360  139.4160 O   0  0  0  0  0  0  0  0  0  0  0  0
  190.3900  176.2910  140.6380 C   0  0  2  0  0  3  0  0  0  0  0  0
  187.8580  177.3730  138.1660 C   0  0  0  0  0  0  0  0  0  0  0  0
  184.9640  179.5520  138.2540 N   0  0  0  0  0  2  0  0  0  0  0  0
  187.1560  178.3220  140.2590 C   0  0  0  0  0  3  0  0  0  0  0  0
  183.0150  176.8620  138.4850 N   0  0  0  0  0  2  0  0  0  0  0  0
  183.8470  177.3340  140.6120 O   0  0  0  0  0  0  0  0  0  0  0  0
  183.5890  177.7550  139.4480 C   0  0  0  0  0  0  0  0  0  0  0  0
  183.0380  175.4200  138.6850 C   0  0  1  0  0  3  0  0  0  0  0  0
  181.6180  174.8880  138.7430 C   0  0  0  0  0  1  0  0  0  0  0  0
  183.8040  174.7670  137.5800 C   0  0  0  0  0  0  0  0  0  0  0  0
  183.1880  173.7950  136.7980 O   0  0  0  0  0  0  0  0  0  0  0  0
  185.0060  175.0760  137.3600 O   0  0  0  0  0  1  0  0  0  0  0  0
  191.5310  177.2770  140.4030 C   0  0  0  0  0  2  0  0  0  0  0  0
  193.0730  176.7530  138.5040 C   0  0  0  0  0  0  0  0  0  0  0  0
  193.8580  176.1730  139.3070 O   0  0  0  0  0  0  0  0  0  0  0  0
  191.8800  177.3770  138.9920 N   0  0  0  0  0  2  0  0  0  0  0  0
  191.8390  174.7230  137.1640 O   0  0  0  0  0  1  0  0  0  0  0  0
  195.3550  176.0500  135.9280 C   0  0  2  0  0  3  0  0  0  0  0  0
  193.3350  176.6610  137.0290 C   0  0  2  0  0  3  0  0  0  0  0  0
  192.6520  175.5290  136.3610 C   0  0  2  0  0  0  0  0  0  0  0  0
  192.1060  175.9010  134.9800 C   0  0  0  0  0  1  0  0  0  0  0  0
  194.6400  175.0230  135.3610 O   0  0  0  0  0  0  0  0  0  0  0  0
  194.1730  175.3870  136.6600 C   0  0  1  0  0  0  0  0  0  0  0  0
  195.1400  177.2520  135.0460 C   0  0  0  0  0  3  0  0  0  0  0  0
  196.1250  178.1330  134.8990 C   0  0  0  0  0  2  0  0  0  0  0  0
  187.3910  177.4810  143.2420 C   0  0  0  0  0  2  0  0  0  0  0  0
  186.6820  178.6380  143.9600 C   0  0  1  0  0  3  0  0  0  0  0  0
  184.5580  179.3200  144.4800 C   0  0  0  0  0  1  0  0  0  0  0  0
  185.3830  178.8610  143.4400 O   0  0  0  0  0  0  0  0  0  0  0  0
  186.6530  178.4750  145.4200 N   0  0  0  0  0  2  0  0  0  0  0  0
  187.5400  177.6210  146.1340 C   0  0  0  0  0  3  0  0  0  0  0  0
  188.7380  178.0660  146.4940 C   0  0  0  0  0  3  0  0  0  0  0  0
  189.0940  176.0480  147.6730 F   0  0  0  0  0  0  0  0  0  0  0  0
  189.7100  177.2110  147.2450 C   0  0  1  0  0  3  0  0  0  0  0  0
  190.9360  176.8700  146.4070 C   0  0  0  0  0  2  0  0  0  0  0  0
  192.0090  176.5560  147.2470 O   0  0  0  0  0  1  0  0  0  0  0  0
  2 13  1  0  0  0  0
  2 10  1  0  0  0  0
  3  1  1  0  0  0  0
  4 15  1  0  0  0  0
  4  5  1  0  0  0  0
  5 16  1  0  0  0  0
  6  4  2  0  0  0  0
  7  1  1  0  0  0  0
  7 38  1  1  0  0  0
  8  2  2  0  0  0  0
  9  6  1  0  0  0  0
  9 14  1  0  0  0  0
 10  7  1  0  0  0  0
 11 12  2  0  0  0  0
 11 19  1  0  0  0  0
 13 25  1  1  0  0  0
 13  3  1  0  0  0  0
 14  8  1  0  0  0  0
 14  5  2  0  0  0  0
 15 11  1  0  0  0  0
 16 10  2  0  0  0  0
 17 20  1  0  0  0  0
 17 19  1  0  0  0  0
 19 18  2  0  0  0  0
 20 21  1  6  0  0  0
 22 20  1  0  0  0  0
 23 22  2  0  0  0  0
 24 22  1  0  0  0  0
 26 28  1  0  0  0  0
 26 27  2  0  0  0  0
 28 25  1  0  0  0  0
 30 36  1  6  0  0  0
 30 35  1  0  0  0  0
 31 26  1  1  0  0  0
 32 33  1  6  0  0  0
 32 35  1  0  0  0  0
 32 31  1  0  0  0  0
 32 29  1  0  0  0  0
 34 30  1  0  0  0  0
 35 34  1  1  0  0  0
 35 31  1  0  0  0  0
 37 36  2  0  0  0  0
 39 38  1  6  0  0  0
 39 42  1  0  0  0  0
 41 39  1  0  0  0  0
 41 40  1  0  0  0  0
 42 43  1  0  0  0  0
 43 44  2  0  0  0  0
 44 46  1  0  0  0  0
 46 45  1  6  0  0  0
 47 46  1  0  0  0  0
 47 48  1  0  0  0  0
M  END
>  <MODEL>
5

>  <REMARK>
 VINA RESULT:      -6.6      3.343      7.937
  Name = 
  14 active torsions:
  status: ('A' for Active; 'I' for Inactive)
    1  A    between atoms: C_2  and  CA_42
    2  A    between atoms: C_3  and  C_22
    3  A    between atoms: C_4  and  C_14
    4  A    between atoms: N_6  and  CA_42
    5  A    between atoms: C_12  and  C_31
    6  A    between atoms: C_18  and  C_43
    7  A    between atoms: O_21  and  C_35
    8  A    between atoms: C_22  and  C_34
    9  A    between atoms: N_23  and  C_37
   10  A    between atoms: C_27  and  C_47
   11  A    between atoms: C_30  and  N_44
   12  A    between atoms: C_35  and  C_43
   13  A    between atoms: C_35  and  N_44
   14  A    between atoms: C_37  and  C_38
                            x       y       z     vdW  Elec       q    Type
                         _______ _______ _______ _____ _____    ______ ____

>  <TORSDO>
F 14

$$$$
=
 OpenBabel11042410193D

 48 52  0  0  1  0  0  0  0  0999 V2000
  189.0670  177.4490  139.6230 C   0  0  0  0  0  2  0  0  0  0  0  0
  189.9810  176.4820  136.9910 C   0  0  0  0  0  0  0  0  0  0  0  0
  189.0980  178.7140  138.3320 S   0  0  0  0  0  0  0  0  0  0  0  0
  192.6460  173.3480  136.4060 C   0  0  0  0  0  0  0  0  0  0  0  0
  191.8530  174.4820  136.8270 C   0  0  0  0  0  0  0  0  0  0  0  0
  192.3810  173.0090  135.1820 N   0  0  0  0  0  0  0  0  0  0  0  0
  190.3210  176.5880  139.5590 C   0  0  1  0  0  3  0  0  0  0  0  0
  190.2120  175.8480  135.8060 N   0  0  0  0  0  0  0  0  0  0  0  0
  191.4230  173.9560  134.5950 C   0  0  0  0  0  2  0  0  0  0  0  0
  190.6570  176.0560  138.1790 C   0  0  0  0  0  0  0  0  0  0  0  0
  194.7130  173.1710  137.8600 C   0  0  0  0  0  0  0  0  0  0  0  0
  195.3520  172.4710  138.6920 O   0  0  0  0  0  0  0  0  0  0  0  0
  188.8510  177.4690  137.0220 C   0  0  2  0  0  3  0  0  0  0  0  0
  191.1560  174.8790  135.7290 C   0  0  0  0  0  0  0  0  0  0  0  0
  193.5510  172.6090  137.2250 N   0  0  0  0  0  2  0  0  0  0  0  0
  191.6170  175.0300  138.0820 C   0  0  0  0  0  3  0  0  0  0  0  0
  196.1370  174.6470  136.4110 N   0  0  0  0  0  2  0  0  0  0  0  0
  194.9280  175.5290  138.1990 O   0  0  0  0  0  0  0  0  0  0  0  0
  195.2380  174.5100  137.5190 C   0  0  0  0  0  0  0  0  0  0  0  0
  196.4290  175.9510  135.8330 C   0  0  1  0  0  3  0  0  0  0  0  0
  197.6550  175.8550  134.9440 C   0  0  0  0  0  1  0  0  0  0  0  0
  195.2480  176.4390  135.0570 C   0  0  0  0  0  0  0  0  0  0  0  0
  194.3050  175.5260  134.5950 O   0  0  0  0  0  0  0  0  0  0  0  0
  195.1070  177.6650  134.8040 O   0  0  0  0  0  1  0  0  0  0  0  0
  187.5400  176.7040  137.1770 C   0  0  0  0  0  2  0  0  0  0  0  0
  185.0840  177.0680  137.4910 C   0  0  0  0  0  0  0  0  0  0  0  0
  184.8850  175.8280  137.3400 O   0  0  0  0  0  0  0  0  0  0  0  0
  186.4090  177.6000  137.3820 N   0  0  0  0  0  2  0  0  0  0  0  0
  185.5710  178.8040  139.5370 O   0  0  0  0  0  1  0  0  0  0  0  0
  181.9400  177.3160  139.0350 C   0  0  2  0  0  3  0  0  0  0  0  0
  183.9440  177.9450  137.9160 C   0  0  2  0  0  3  0  0  0  0  0  0
  184.2640  178.8530  139.0420 C   0  0  2  0  0  0  0  0  0  0  0  0
  183.6410  180.2410  138.8770 C   0  0  0  0  0  1  0  0  0  0  0  0
  182.3240  178.1770  140.0350 O   0  0  0  0  0  0  0  0  0  0  0  0
  183.4240  177.5790  139.3500 C   0  0  1  0  0  0  0  0  0  0  0  0
  181.2080  178.1500  138.0170 C   0  0  0  0  0  3  0  0  0  0  0  0
  180.1940  178.9140  138.4130 C   0  0  0  0  0  2  0  0  0  0  0  0
  191.5060  177.3010  140.2020 C   0  0  0  0  0  2  0  0  0  0  0  0
  191.4760  177.1440  141.7290 C   0  0  1  0  0  3  0  0  0  0  0  0
  191.7080  178.2960  143.6960 C   0  0  0  0  0  1  0  0  0  0  0  0
  191.2270  178.3790  142.3780 O   0  0  0  0  0  0  0  0  0  0  0  0
  190.5410  176.1040  142.1810 N   0  0  0  0  0  2  0  0  0  0  0  0
  189.5750  176.3080  143.2060 C   0  0  0  0  0  3  0  0  0  0  0  0
  188.3000  176.4880  142.8850 C   0  0  0  0  0  3  0  0  0  0  0  0
  187.8220  176.9870  145.1460 F   0  0  0  0  0  0  0  0  0  0  0  0
  187.2430  176.7060  143.9210 C   0  0  1  0  0  3  0  0  0  0  0  0
  186.2840  177.8260  143.5330 C   0  0  0  0  0  2  0  0  0  0  0  0
  186.8410  178.5890  142.5030 O   0  0  0  0  0  1  0  0  0  0  0  0
  2 13  1  0  0  0  0
  2 10  1  0  0  0  0
  3  1  1  0  0  0  0
  4  5  1  0  0  0  0
  4 15  1  0  0  0  0
  5 16  1  0  0  0  0
  6  4  2  0  0  0  0
  7  1  1  0  0  0  0
  7 38  1  6  0  0  0
  8  2  2  0  0  0  0
  9  6  1  0  0  0  0
  9 14  1  0  0  0  0
 10  7  1  0  0  0  0
 11 12  2  0  0  0  0
 13 25  1  1  0  0  0
 13  3  1  0  0  0  0
 14  8  1  0  0  0  0
 14  5  2  0  0  0  0
 15 11  1  0  0  0  0
 16 10  2  0  0  0  0
 17 19  1  0  0  0  0
 19 11  1  0  0  0  0
 19 18  2  0  0  0  0
 20 21  1  6  0  0  0
 20 17  1  0  0  0  0
 22 20  1  0  0  0  0
 23 22  2  0  0  0  0
 24 22  1  0  0  0  0
 25 28  1  0  0  0  0
 27 26  2  0  0  0  0
 28 26  1  0  0  0  0
 30 36  1  6  0  0  0
 30 35  1  0  0  0  0
 30 34  1  0  0  0  0
 31 26  1  1  0  0  0
 31 32  1  0  0  0  0
 31 35  1  0  0  0  0
 32 33  1  1  0  0  0
 32 35  1  0  0  0  0
 32 29  1  0  0  0  0
 35 34  1  1  0  0  0
 36 37  2  0  0  0  0
 39 38  1  6  0  0  0
 39 42  1  0  0  0  0
 39 41  1  0  0  0  0
 41 40  1  0  0  0  0
 42 43  1  0  0  0  0
 44 43  2  0  0  0  0
 44 46  1  0  0  0  0
 46 45  1  1  0  0  0
 47 46  1  0  0  0  0
 48 47  1  0  0  0  0
M  END
>  <MODEL>
6

>  <REMARK>
 VINA RESULT:      -6.5      4.068     11.407
  Name = 
  14 active torsions:
  status: ('A' for Active; 'I' for Inactive)
    1  A    between atoms: C_2  and  CA_42
    2  A    between atoms: C_3  and  C_22
    3  A    between atoms: C_4  and  C_14
    4  A    between atoms: N_6  and  CA_42
    5  A    between atoms: C_12  and  C_31
    6  A    between atoms: C_18  and  C_43
    7  A    between atoms: O_21  and  C_35
    8  A    between atoms: C_22  and  C_34
    9  A    between atoms: N_23  and  C_37
   10  A    between atoms: C_27  and  C_47
   11  A    between atoms: C_30  and  N_44
   12  A    between atoms: C_35  and  C_43
   13  A    between atoms: C_35  and  N_44
   14  A    between atoms: C_37  and  C_38
                            x       y       z     vdW  Elec       q    Type
                         _______ _______ _______ _____ _____    ______ ____

>  <TORSDO>
F 14

$$$$
=
 OpenBabel11042410193D

 48 52  0  0  1  0  0  0  0  0999 V2000
  188.8450  177.3620  139.3520 C   0  0  0  0  0  2  0  0  0  0  0  0
  190.0500  176.4120  136.8330 C   0  0  0  0  0  0  0  0  0  0  0  0
  189.0160  178.6350  138.0790 S   0  0  0  0  0  0  0  0  0  0  0  0
  192.7720  173.2870  136.5330 C   0  0  0  0  0  0  0  0  0  0  0  0
  191.9340  174.4170  136.8690 C   0  0  0  0  0  0  0  0  0  0  0  0
  192.6470  172.9550  135.2850 N   0  0  0  0  0  0  0  0  0  0  0  0
  190.1010  176.5040  139.4240 C   0  0  1  0  0  3  0  0  0  0  0  0
  190.4150  175.7860  135.6780 N   0  0  0  0  0  0  0  0  0  0  0  0
  191.7590  173.9030  134.6000 C   0  0  0  0  0  2  0  0  0  0  0  0
  190.5900  175.9800  138.0870 C   0  0  0  0  0  0  0  0  0  0  0  0
  194.6640  173.1070  138.2080 C   0  0  0  0  0  0  0  0  0  0  0  0
  195.2070  172.4030  139.1030 O   0  0  0  0  0  0  0  0  0  0  0  0
  188.9220  177.3970  136.7420 C   0  0  2  0  0  3  0  0  0  0  0  0
  191.3630  174.8190  135.7010 C   0  0  0  0  0  0  0  0  0  0  0  0
  193.5820  172.5450  137.4440 N   0  0  0  0  0  2  0  0  0  0  0  0
  191.5580  174.9580  138.0930 C   0  0  0  0  0  3  0  0  0  0  0  0
  196.1100  174.6240  136.8250 N   0  0  0  0  0  2  0  0  0  0  0  0
  194.9460  175.4350  138.6760 O   0  0  0  0  0  0  0  0  0  0  0  0
  195.2210  174.4480  137.9360 C   0  0  0  0  0  0  0  0  0  0  0  0
  196.4290  175.9500  136.3180 C   0  0  1  0  0  3  0  0  0  0  0  0
  197.6770  175.8830  135.4560 C   0  0  0  0  0  1  0  0  0  0  0  0
  195.2730  176.4870  135.5350 C   0  0  0  0  0  0  0  0  0  0  0  0
  194.6280  175.6680  134.6150 O   0  0  0  0  0  0  0  0  0  0  0  0
  194.8900  177.6770  135.6900 O   0  0  0  0  0  1  0  0  0  0  0  0
  187.6030  176.6280  136.7450 C   0  0  0  0  0  2  0  0  0  0  0  0
  185.2370  176.8450  137.5300 C   0  0  0  0  0  0  0  0  0  0  0  0
  184.8830  175.9670  136.6920 O   0  0  0  0  0  0  0  0  0  0  0  0
  186.6040  177.2660  137.5930 N   0  0  0  0  0  2  0  0  0  0  0  0
  182.9700  178.0070  136.5560 O   0  0  0  0  0  1  0  0  0  0  0  0
  184.4470  179.1750  140.0360 C   0  0  2  0  0  3  0  0  0  0  0  0
  184.2430  177.3340  138.5410 C   0  0  2  0  0  3  0  0  0  0  0  0
  183.0420  177.9710  137.9520 C   0  0  2  0  0  0  0  0  0  0  0  0
  181.7550  177.6110  138.6990 C   0  0  0  0  0  1  0  0  0  0  0  0
  183.3310  179.6920  139.4230 O   0  0  0  0  0  0  0  0  0  0  0  0
  184.1370  178.8990  138.5520 C   0  0  1  0  0  0  0  0  0  0  0  0
  183.9460  178.2490  141.1130 C   0  0  0  0  0  3  0  0  0  0  0  0
  183.9690  178.6550  142.3800 C   0  0  0  0  0  2  0  0  0  0  0  0
  191.2040  177.2160  140.1990 C   0  0  0  0  0  2  0  0  0  0  0  0
  190.8960  177.2260  141.7030 C   0  0  1  0  0  3  0  0  0  0  0  0
  189.2640  175.9430  142.6730 C   0  0  0  0  0  1  0  0  0  0  0  0
  190.5810  175.9300  142.1820 O   0  0  0  0  0  0  0  0  0  0  0  0
  191.9610  177.8470  142.5030 N   0  0  0  0  0  2  0  0  0  0  0  0
  191.8440  178.1150  143.8950 C   0  0  0  0  0  3  0  0  0  0  0  0
  191.0300  177.3780  144.6420 C   0  0  0  0  0  3  0  0  0  0  0  0
  189.6070  178.1190  146.3790 F   0  0  0  0  0  0  0  0  0  0  0  0
  190.8680  177.6150  146.1110 C   0  0  1  0  0  3  0  0  0  0  0  0
  191.1020  176.3470  146.9240 C   0  0  0  0  0  2  0  0  0  0  0  0
  192.3940  176.3600  147.4560 O   0  0  0  0  0  1  0  0  0  0  0  0
  1  7  1  0  0  0  0
  2 10  1  0  0  0  0
  3  1  1  0  0  0  0
  4  5  1  0  0  0  0
  4 15  1  0  0  0  0
  5 16  1  0  0  0  0
  6  4  2  0  0  0  0
  7 38  1  6  0  0  0
  8 14  1  0  0  0  0
  8  2  2  0  0  0  0
  9  6  1  0  0  0  0
  9 14  1  0  0  0  0
 10 16  2  0  0  0  0
 10  7  1  0  0  0  0
 11 12  2  0  0  0  0
 13 25  1  1  0  0  0
 13  2  1  0  0  0  0
 13  3  1  0  0  0  0
 14  5  2  0  0  0  0
 15 11  1  0  0  0  0
 17 19  1  0  0  0  0
 19 11  1  0  0  0  0
 19 18  2  0  0  0  0
 20 21  1  6  0  0  0
 20 17  1  0  0  0  0
 22 24  1  0  0  0  0
 22 20  1  0  0  0  0
 23 22  2  0  0  0  0
 25 28  1  0  0  0  0
 26 28  1  0  0  0  0
 27 26  2  0  0  0  0
 29 32  1  0  0  0  0
 30 36  1  1  0  0  0
 31 26  1  6  0  0  0
 31 35  1  0  0  0  0
 32 31  1  0  0  0  0
 32 35  1  0  0  0  0
 32 33  1  1  0  0  0
 34 30  1  0  0  0  0
 35 34  1  6  0  0  0
 35 30  1  0  0  0  0
 36 37  2  0  0  0  0
 39 38  1  6  0  0  0
 39 41  1  0  0  0  0
 39 42  1  0  0  0  0
 41 40  1  0  0  0  0
 42 43  1  0  0  0  0
 43 44  2  0  0  0  0
 44 46  1  0  0  0  0
 46 45  1  6  0  0  0
 46 47  1  0  0  0  0
 47 48  1  0  0  0  0
M  END
>  <MODEL>
7

>  <REMARK>
 VINA RESULT:      -6.0      4.034     11.414
  Name = 
  14 active torsions:
  status: ('A' for Active; 'I' for Inactive)
    1  A    between atoms: C_2  and  CA_42
    2  A    between atoms: C_3  and  C_22
    3  A    between atoms: C_4  and  C_14
    4  A    between atoms: N_6  and  CA_42
    5  A    between atoms: C_12  and  C_31
    6  A    between atoms: C_18  and  C_43
    7  A    between atoms: O_21  and  C_35
    8  A    between atoms: C_22  and  C_34
    9  A    between atoms: N_23  and  C_37
   10  A    between atoms: C_27  and  C_47
   11  A    between atoms: C_30  and  N_44
   12  A    between atoms: C_35  and  C_43
   13  A    between atoms: C_35  and  N_44
   14  A    between atoms: C_37  and  C_38
                            x       y       z     vdW  Elec       q    Type
                         _______ _______ _______ _____ _____    ______ ____

>  <TORSDO>
F 14

$$$$
=
 OpenBabel11042410193D

 48 52  0  0  1  0  0  0  0  0999 V2000
  188.4960  177.1620  139.1670 C   0  0  0  0  0  2  0  0  0  0  0  0
  189.3080  175.8340  136.6620 C   0  0  0  0  0  0  0  0  0  0  0  0
  188.2700  178.1680  137.6810 S   0  0  0  0  0  0  0  0  0  0  0  0
  192.2790  172.9450  136.3590 C   0  0  0  0  0  0  0  0  0  0  0  0
  191.3900  174.0470  136.6560 C   0  0  0  0  0  0  0  0  0  0  0  0
  191.9600  172.3640  135.2430 N   0  0  0  0  0  0  0  0  0  0  0  0
  189.8370  176.4410  139.1260 C   0  0  1  0  0  3  0  0  0  0  0  0
  189.5190  175.0240  135.5850 N   0  0  0  0  0  0  0  0  0  0  0  0
  190.8510  173.0820  134.6020 C   0  0  0  0  0  2  0  0  0  0  0  0
  190.1230  175.7050  137.8320 C   0  0  0  0  0  0  0  0  0  0  0  0
  194.4610  173.2550  137.6070 C   0  0  0  0  0  0  0  0  0  0  0  0
  195.2440  172.7890  138.4790 O   0  0  0  0  0  0  0  0  0  0  0  0
  188.0730  176.6870  136.6350 C   0  0  2  0  0  3  0  0  0  0  0  0
  190.5640  174.1620  135.5810 C   0  0  0  0  0  0  0  0  0  0  0  0
  193.3290  172.4670  137.1980 N   0  0  0  0  0  2  0  0  0  0  0  0
  191.1900  174.7860  137.8160 C   0  0  0  0  0  3  0  0  0  0  0  0
  195.3210  174.5860  135.6590 N   0  0  0  0  0  2  0  0  0  0  0  0
  194.6370  175.6390  137.6240 O   0  0  0  0  0  0  0  0  0  0  0  0
  194.7910  174.5560  136.9910 C   0  0  0  0  0  0  0  0  0  0  0  0
  195.3600  175.8220  134.8910 C   0  0  1  0  0  3  0  0  0  0  0  0
  193.9850  176.4620  134.8790 C   0  0  0  0  0  1  0  0  0  0  0  0
  196.3720  176.7530  135.4790 C   0  0  0  0  0  0  0  0  0  0  0  0
  197.5020  176.2350  136.1020 O   0  0  0  0  0  1  0  0  0  0  0  0
  196.2030  178.0010  135.4270 O   0  0  0  0  0  0  0  0  0  0  0  0
  186.8800  175.8290  137.0490 C   0  0  0  0  0  2  0  0  0  0  0  0
  184.4420  176.0050  137.5830 C   0  0  0  0  0  0  0  0  0  0  0  0
  184.3330  174.7490  137.4800 O   0  0  0  0  0  0  0  0  0  0  0  0
  185.7040  176.6370  137.3390 N   0  0  0  0  0  2  0  0  0  0  0  0
  182.7910  177.0990  135.7090 O   0  0  0  0  0  1  0  0  0  0  0  0
  183.3050  178.9160  139.1850 C   0  0  2  0  0  3  0  0  0  0  0  0
  183.2780  176.8010  138.0930 C   0  0  2  0  0  3  0  0  0  0  0  0
  182.4290  177.3840  137.0280 C   0  0  2  0  0  0  0  0  0  0  0  0
  180.9360  177.3210  137.3630 C   0  0  0  0  0  1  0  0  0  0  0  0
  182.5240  179.3690  138.1500 O   0  0  0  0  0  0  0  0  0  0  0  0
  183.4220  178.3290  137.7660 C   0  0  1  0  0  0  0  0  0  0  0  0
  182.3620  178.3140  140.1940 C   0  0  0  0  0  3  0  0  0  0  0  0
  182.6080  178.4780  141.4910 C   0  0  0  0  0  2  0  0  0  0  0  0
  190.9730  177.3800  139.5150 C   0  0  0  0  0  2  0  0  0  0  0  0
  191.3180  177.2330  141.0040 C   0  0  1  0  0  3  0  0  0  0  0  0
  193.3550  177.5170  139.9940 C   0  0  0  0  0  1  0  0  0  0  0  0
  192.7140  177.3270  141.2300 O   0  0  0  0  0  0  0  0  0  0  0  0
  190.5730  178.1670  141.8600 N   0  0  0  0  0  2  0  0  0  0  0  0
  189.8980  177.7750  143.0500 C   0  0  0  0  0  3  0  0  0  0  0  0
  188.6940  177.2220  142.9730 C   0  0  0  0  0  3  0  0  0  0  0  0
  188.7300  176.9230  145.3180 F   0  0  0  0  0  0  0  0  0  0  0  0
  187.9380  176.7900  144.1900 C   0  0  1  0  0  3  0  0  0  0  0  0
  186.6450  177.5760  144.3690 C   0  0  0  0  0  2  0  0  0  0  0  0
  186.5270  177.9950  145.6980 O   0  0  0  0  0  1  0  0  0  0  0  0
  2 10  1  0  0  0  0
  3  1  1  0  0  0  0
  4  5  1  0  0  0  0
  4 15  1  0  0  0  0
  5 16  1  0  0  0  0
  6  4  2  0  0  0  0
  7  1  1  0  0  0  0
  7 38  1  6  0  0  0
  8  2  2  0  0  0  0
  9  6  1  0  0  0  0
  9 14  1  0  0  0  0
 10  7  1  0  0  0  0
 11 12  2  0  0  0  0
 13  2  1  0  0  0  0
 13 25  1  1  0  0  0
 13  3  1  0  0  0  0
 14  8  1  0  0  0  0
 14  5  2  0  0  0  0
 15 11  1  0  0  0  0
 16 10  2  0  0  0  0
 17 19  1  0  0  0  0
 19 11  1  0  0  0  0
 19 18  2  0  0  0  0
 20 21  1  1  0  0  0
 20 22  1  0  0  0  0
 20 17  1  0  0  0  0
 22 23  1  0  0  0  0
 24 22  2  0  0  0  0
 25 28  1  0  0  0  0
 27 26  2  0  0  0  0
 28 26  1  0  0  0  0
 29 32  1  0  0  0  0
 30 36  1  1  0  0  0
 31 26  1  6  0  0  0
 32 33  1  1  0  0  0
 32 35  1  0  0  0  0
 32 31  1  0  0  0  0
 34 30  1  0  0  0  0
 35 31  1  0  0  0  0
 35 34  1  6  0  0  0
 35 30  1  0  0  0  0
 36 37  2  0  0  0  0
 39 38  1  6  0  0  0
 39 41  1  0  0  0  0
 39 42  1  0  0  0  0
 40 41  1  0  0  0  0
 42 43  1  0  0  0  0
 44 43  2  0  0  0  0
 44 46  1  0  0  0  0
 46 47  1  0  0  0  0
 46 45  1  1  0  0  0
 47 48  1  0  0  0  0
M  END
>  <MODEL>
8

>  <REMARK>
 VINA RESULT:      -5.9      4.032     11.482
  Name = 
  14 active torsions:
  status: ('A' for Active; 'I' for Inactive)
    1  A    between atoms: C_2  and  CA_42
    2  A    between atoms: C_3  and  C_22
    3  A    between atoms: C_4  and  C_14
    4  A    between atoms: N_6  and  CA_42
    5  A    between atoms: C_12  and  C_31
    6  A    between atoms: C_18  and  C_43
    7  A    between atoms: O_21  and  C_35
    8  A    between atoms: C_22  and  C_34
    9  A    between atoms: N_23  and  C_37
   10  A    between atoms: C_27  and  C_47
   11  A    between atoms: C_30  and  N_44
   12  A    between atoms: C_35  and  C_43
   13  A    between atoms: C_35  and  N_44
   14  A    between atoms: C_37  and  C_38
                            x       y       z     vdW  Elec       q    Type
                         _______ _______ _______ _____ _____    ______ ____

>  <TORSDO>
F 14

$$$$
=
 OpenBabel11042410193D

 48 52  0  0  1  0  0  0  0  0999 V2000
  188.0750  176.5010  137.8980 C   0  0  0  0  0  2  0  0  0  0  0  0
  189.4840  174.9290  135.8390 C   0  0  0  0  0  0  0  0  0  0  0  0
  187.9420  177.1730  136.2250 S   0  0  0  0  0  0  0  0  0  0  0  0
  192.8770  172.6270  136.5160 C   0  0  0  0  0  0  0  0  0  0  0  0
  191.7910  173.5810  136.4670 C   0  0  0  0  0  0  0  0  0  0  0  0
  192.8410  171.8120  135.5070 N   0  0  0  0  0  0  0  0  0  0  0  0
  189.4990  176.0420  138.1800 C   0  0  1  0  0  3  0  0  0  0  0  0
  189.9940  173.9970  134.9840 N   0  0  0  0  0  0  0  0  0  0  0  0
  191.7540  172.1910  134.5940 C   0  0  0  0  0  2  0  0  0  0  0  0
  190.1060  175.1580  137.1080 C   0  0  0  0  0  0  0  0  0  0  0  0
  194.7490  173.5450  137.9540 C   0  0  0  0  0  0  0  0  0  0  0  0
  195.4400  173.3900  138.9980 O   0  0  0  0  0  0  0  0  0  0  0  0
  188.1530  175.5220  135.4790 C   0  0  2  0  0  3  0  0  0  0  0  0
  191.1460  173.3540  135.2910 C   0  0  0  0  0  0  0  0  0  0  0  0
  193.8360  172.5040  137.5650 N   0  0  0  0  0  2  0  0  0  0  0  0
  191.2910  174.4620  137.4180 C   0  0  0  0  0  3  0  0  0  0  0  0
  195.5420  174.6280  135.8320 N   0  0  0  0  0  2  0  0  0  0  0  0
  194.6850  175.9060  137.5830 O   0  0  0  0  0  0  0  0  0  0  0  0
  194.9690  174.7580  137.1400 C   0  0  0  0  0  0  0  0  0  0  0  0
  195.4860  175.7210  134.8720 C   0  0  1  0  0  3  0  0  0  0  0  0
  194.0890  176.3130  134.8510 C   0  0  0  0  0  1  0  0  0  0  0  0
  196.4980  176.7630  135.2290 C   0  0  0  0  0  0  0  0  0  0  0  0
  197.7070  176.3790  135.8000 O   0  0  0  0  0  1  0  0  0  0  0  0
  196.2590  177.9840  135.0330 O   0  0  0  0  0  0  0  0  0  0  0  0
  187.0570  174.5450  135.8950 C   0  0  0  0  0  2  0  0  0  0  0  0
  184.6740  174.7000  136.6400 C   0  0  0  0  0  0  0  0  0  0  0  0
  184.8720  173.7590  137.4600 O   0  0  0  0  0  0  0  0  0  0  0  0
  185.7300  175.1340  135.7760 N   0  0  0  0  0  2  0  0  0  0  0  0
  184.7050  177.1760  137.7840 O   0  0  0  0  0  1  0  0  0  0  0  0
  181.4380  174.9540  137.9820 C   0  0  2  0  0  3  0  0  0  0  0  0
  183.3700  175.4410  136.6790 C   0  0  2  0  0  3  0  0  0  0  0  0
  183.4470  176.7710  137.3280 C   0  0  2  0  0  0  0  0  0  0  0  0
  182.6000  177.8270  136.6140 C   0  0  0  0  0  1  0  0  0  0  0  0
  181.5950  176.2030  138.5330 O   0  0  0  0  0  0  0  0  0  0  0  0
  182.8270  175.5990  138.1430 C   0  0  1  0  0  0  0  0  0  0  0  0
  180.6400  175.1480  136.7190 C   0  0  0  0  0  3  0  0  0  0  0  0
  179.5390  175.8940  136.7550 C   0  0  0  0  0  2  0  0  0  0  0  0
  190.3960  177.2270  138.5210 C   0  0  0  0  0  2  0  0  0  0  0  0
  190.1840  177.6730  139.9740 C   0  0  1  0  0  3  0  0  0  0  0  0
  188.2650  178.4650  140.9440 C   0  0  0  0  0  1  0  0  0  0  0  0
  188.9000  177.3120  140.4510 O   0  0  0  0  0  0  0  0  0  0  0  0
  191.2430  177.2030  140.8790 N   0  0  0  0  0  2  0  0  0  0  0  0
  190.9880  176.6380  142.1600 C   0  0  0  0  0  3  0  0  0  0  0  0
  191.4000  177.2700  143.2530 C   0  0  0  0  0  3  0  0  0  0  0  0
  192.0310  177.3000  145.5310 F   0  0  0  0  0  0  0  0  0  0  0  0
  191.1590  176.7230  144.6250 C   0  0  1  0  0  3  0  0  0  0  0  0
  189.7210  176.9370  145.0810 C   0  0  0  0  0  2  0  0  0  0  0  0
  189.4220  178.3020  145.0760 O   0  0  0  0  0  1  0  0  0  0  0  0
  1  7  1  0  0  0  0
  2 10  1  0  0  0  0
  3  1  1  0  0  0  0
  4 15  1  0  0  0  0
  5  4  1  0  0  0  0
  5 16  1  0  0  0  0
  6  4  2  0  0  0  0
  7 38  1  6  0  0  0
  8 14  1  0  0  0  0
  8  2  2  0  0  0  0
  9 14  1  0  0  0  0
  9  6  1  0  0  0  0
 10 16  2  0  0  0  0
 10  7  1  0  0  0  0
 11 12  2  0  0  0  0
 13  2  1  0  0  0  0
 13 25  1  1  0  0  0
 13  3  1  0  0  0  0
 14  5  2  0  0  0  0
 15 11  1  0  0  0  0
 17 19  1  0  0  0  0
 19 18  2  0  0  0  0
 19 11  1  0  0  0  0
 20 21  1  1  0  0  0
 20 22  1  0  0  0  0
 20 17  1  0  0  0  0
 22 23  1  0  0  0  0
 24 22  2  0  0  0  0
 26 27  2  0  0  0  0
 28 25  1  0  0  0  0
 28 26  1  0  0  0  0
 30 36  1  6  0  0  0
 30 35  1  0  0  0  0
 30 34  1  0  0  0  0
 31 26  1  1  0  0  0
 31 32  1  0  0  0  0
 31 35  1  0  0  0  0
 32 33  1  6  0  0  0
 32 29  1  0  0  0  0
 32 35  1  0  0  0  0
 35 34  1  1  0  0  0
 36 37  2  0  0  0  0
 39 38  1  6  0  0  0
 39 41  1  0  0  0  0
 39 42  1  0  0  0  0
 41 40  1  0  0  0  0
 42 43  1  0  0  0  0
 43 44  2  0  0  0  0
 44 46  1  0  0  0  0
 46 47  1  0  0  0  0
 46 45  1  1  0  0  0
 48 47  1  0  0  0  0
M  END
>  <MODEL>
9

>  <REMARK>
 VINA RESULT:      -5.7      4.613     11.824
  Name = 
  14 active torsions:
  status: ('A' for Active; 'I' for Inactive)
    1  A    between atoms: C_2  and  CA_42
    2  A    between atoms: C_3  and  C_22
    3  A    between atoms: C_4  and  C_14
    4  A    between atoms: N_6  and  CA_42
    5  A    between atoms: C_12  and  C_31
    6  A    between atoms: C_18  and  C_43
    7  A    between atoms: O_21  and  C_35
    8  A    between atoms: C_22  and  C_34
    9  A    between atoms: N_23  and  C_37
   10  A    between atoms: C_27  and  C_47
   11  A    between atoms: C_30  and  N_44
   12  A    between atoms: C_35  and  C_43
   13  A    between atoms: C_35  and  N_44
   14  A    between atoms: C_37  and  C_38
                            x       y       z     vdW  Elec       q    Type
                         _______ _______ _______ _____ _____    ______ ____

>  <TORSDO>
F 14

$$$$
