=
 OpenBabel11032419493D

 27 31  0  0  1  0  0  0  0  0999 V2000
  188.6280  178.6840  139.6320 C   0  0  0  0  0  2  0  0  0  0  0  0
  191.4460  176.3730  142.5840 C   0  0  0  0  0  3  0  0  0  0  0  0
  188.2300  176.6500  142.8130 C   0  0  2  0  0  3  0  0  0  0  0  0
  190.1030  176.9780  140.5560 C   0  0  2  0  0  3  0  0  0  0  0  0
  189.0170  177.7210  138.5400 C   0  0  0  0  0  2  0  0  0  0  0  0
  189.0860  178.1260  144.6610 C   0  0  2  0  0  3  0  0  0  0  0  0
  186.1190  177.8260  143.1380 C   0  0  1  0  0  3  0  0  0  0  0  0
  192.5230  176.9100  140.5720 O   0  0  0  0  0  1  0  0  0  0  0  0
  188.1670  177.4080  145.6050 C   0  0  0  0  0  0  0  0  0  0  0  0
  191.3990  177.2120  141.3430 C   0  0  2  0  0  3  0  0  0  0  0  0
  187.8990  177.4020  141.5950 N   0  0  1  0  0  0  0  0  0  0  0  0
  188.3430  177.4640  147.0870 C   0  0  0  0  0  1  0  0  0  0  0  0
  186.9800  178.4370  142.0490 C   0  0  0  0  0  2  0  0  0  0  0  0
  190.5570  176.4170  143.5740 C   0  0  0  0  0  3  0  0  0  0  0  0
  187.2040  176.7120  145.1060 N   0  0  0  0  0  0  0  0  0  0  0  0
  186.9440  176.6480  143.6700 C   0  0  2  0  0  3  0  0  0  0  0  0
  189.3790  177.2320  143.5360 N   0  0  0  0  0  0  0  0  0  0  0  0
  190.2880  177.0860  139.0500 C   0  0  0  0  0  2  0  0  0  0  0  0
  189.0570  178.0300  140.9420 C   0  0  2  0  0  3  0  0  0  0  0  0
  190.3350  178.7110  145.3120 C   0  0  0  0  0  2  0  0  0  0  0  0
  191.0420  179.5930  144.3360 C   0  0  0  0  0  3  0  0  0  0  0  0
  192.3150  179.5190  144.2170 N   0  0  0  0  0  2  0  0  0  0  0  0
  185.7380  178.8790  144.1740 C   0  0  0  0  0  2  0  0  0  0  0  0
  183.3520  178.9570  144.8020 C   0  0  0  0  0  2  0  0  0  0  0  0
  182.3510  178.9880  142.5450 C   0  0  0  0  0  1  0  0  0  0  0  0
  184.3920  179.4940  143.8430 C   0  0  2  0  0  3  0  0  0  0  0  0
  183.4550  178.3940  143.4000 C   0  0  1  0  0  3  0  0  0  0  0  0
  2 14  2  0  0  0  0
  3 17  1  1  0  0  0
  3 16  1  0  0  0  0
  4 18  1  6  0  0  0
  4 19  1  0  0  0  0
  4 10  1  0  0  0  0
  5 18  1  0  0  0  0
  5  1  1  0  0  0  0
  6 20  1  1  0  0  0
  6  9  1  0  0  0  0
  7 16  1  0  0  0  0
  7 23  1  1  0  0  0
  9 12  1  0  0  0  0
 10  8  1  6  0  0  0
 10  2  1  0  0  0  0
 11 13  1  1  0  0  0
 11  3  1  0  0  0  0
 13  7  1  0  0  0  0
 15  9  2  0  0  0  0
 16 15  1  1  0  0  0
 17 14  1  0  0  0  0
 17  6  1  0  0  0  0
 19  1  1  6  0  0  0
 19 11  1  0  0  0  0
 21 20  1  0  0  0  0
 22 21  2  0  0  0  0
 26 23  1  1  0  0  0
 26 24  1  0  0  0  0
 27 25  1  6  0  0  0
 27 26  1  0  0  0  0
 27 24  1  0  0  0  0
M  END
>  <MODEL>
1

>  <REMARK>
 VINA RESULT:      -6.7      0.000      0.000
  Name = 
  4 active torsions:
  status: ('A' for Active; 'I' for Inactive)
    1  A    between atoms: C_5  and  C_8
    2  A    between atoms: C_8  and  C_9
    3  A    between atoms: C_10  and  C_18
    4  A    between atoms: C_18  and  C_20
                            x       y       z     vdW  Elec       q    Type
                         _______ _______ _______ _____ _____    ______ ____

>  <TORSDO>
F 4

$$$$
=
 OpenBabel11032419493D

 27 31  0  0  1  0  0  0  0  0999 V2000
  188.2470  177.8760  138.6740 C   0  0  0  0  0  2  0  0  0  0  0  0
  184.7870  177.2520  135.5710 C   0  0  0  0  0  3  0  0  0  0  0  0
  184.5710  178.7890  138.4100 C   0  0  2  0  0  3  0  0  0  0  0  0
  186.8640  178.1090  136.6810 C   0  0  2  0  0  3  0  0  0  0  0  0
  188.9810  178.7100  137.6550 C   0  0  0  0  0  2  0  0  0  0  0  0
  183.3210  176.6420  138.8020 C   0  0  2  0  0  3  0  0  0  0  0  0
  184.5850  178.9780  140.8420 C   0  0  1  0  0  3  0  0  0  0  0  0
  186.8930  176.7900  134.6510 O   0  0  0  0  0  1  0  0  0  0  0  0
  182.1710  177.4550  139.3230 C   0  0  0  0  0  0  0  0  0  0  0  0
  186.2290  176.9750  135.8660 C   0  0  2  0  0  3  0  0  0  0  0  0
  185.9570  178.7330  138.8960 N   0  0  1  0  0  0  0  0  0  0  0  0
  180.7910  176.8970  139.4460 C   0  0  0  0  0  1  0  0  0  0  0  0
  185.8360  178.3220  140.2880 C   0  0  0  0  0  2  0  0  0  0  0  0
  183.8390  177.4430  136.4880 C   0  0  0  0  0  3  0  0  0  0  0  0
  182.3930  178.6790  139.6600 N   0  0  0  0  0  0  0  0  0  0  0  0
  183.7250  179.2770  139.6080 C   0  0  2  0  0  3  0  0  0  0  0  0
  184.1050  177.4860  137.8950 N   0  0  0  0  0  0  0  0  0  0  0  0
  188.3290  178.3420  136.3450 C   0  0  0  0  0  2  0  0  0  0  0  0
  186.8090  177.7750  138.1770 C   0  0  2  0  0  3  0  0  0  0  0  0
  182.9270  175.3010  138.1940 C   0  0  0  0  0  2  0  0  0  0  0  0
  184.1500  174.4760  137.9660 C   0  0  0  0  0  3  0  0  0  0  0  0
  184.2920  173.8390  136.8640 N   0  0  0  0  0  2  0  0  0  0  0  0
  183.9330  178.0850  141.8930 C   0  0  0  0  0  2  0  0  0  0  0  0
  184.8850  179.7880  143.4050 C   0  0  0  0  0  2  0  0  0  0  0  0
  184.3530  178.7340  145.5730 C   0  0  0  0  0  1  0  0  0  0  0  0
  183.7210  178.8470  143.1870 C   0  0  2  0  0  3  0  0  0  0  0  0
  184.8220  178.4740  144.1530 C   0  0  1  0  0  3  0  0  0  0  0  0
  2 10  1  0  0  0  0
  2 14  2  0  0  0  0
  3 17  1  1  0  0  0
  3 11  1  0  0  0  0
  3 16  1  0  0  0  0
  4 18  1  6  0  0  0
  4 19  1  0  0  0  0
  5  1  1  0  0  0  0
  6 20  1  6  0  0  0
  6  9  1  0  0  0  0
  7 23  1  1  0  0  0
  9 12  1  0  0  0  0
  9 15  2  0  0  0  0
 10  8  1  6  0  0  0
 10  4  1  0  0  0  0
 11 13  1  1  0  0  0
 13  7  1  0  0  0  0
 14 17  1  0  0  0  0
 16 15  1  1  0  0  0
 16  7  1  0  0  0  0
 17  6  1  0  0  0  0
 18  5  1  0  0  0  0
 19  1  1  1  0  0  0
 19 11  1  0  0  0  0
 21 20  1  0  0  0  0
 22 21  2  0  0  0  0
 24 27  1  0  0  0  0
 26 23  1  6  0  0  0
 26 24  1  0  0  0  0
 26 27  1  0  0  0  0
 27 25  1  1  0  0  0
M  END
>  <MODEL>
2

>  <REMARK>
 VINA RESULT:      -6.1      4.243      6.825
  Name = 
  4 active torsions:
  status: ('A' for Active; 'I' for Inactive)
    1  A    between atoms: C_5  and  C_8
    2  A    between atoms: C_8  and  C_9
    3  A    between atoms: C_10  and  C_18
    4  A    between atoms: C_18  and  C_20
                            x       y       z     vdW  Elec       q    Type
                         _______ _______ _______ _____ _____    ______ ____

>  <TORSDO>
F 4

$$$$
=
 OpenBabel11032419493D

 27 31  0  0  1  0  0  0  0  0999 V2000
  190.5390  176.2300  139.4900 C   0  0  0  0  0  2  0  0  0  0  0  0
  187.0570  179.0030  140.9660 C   0  0  0  0  0  3  0  0  0  0  0  0
  189.8440  178.4280  142.5070 C   0  0  2  0  0  3  0  0  0  0  0  0
  189.0280  178.1320  139.6860 C   0  0  2  0  0  3  0  0  0  0  0  0
  190.7450  177.1500  138.3140 C   0  0  0  0  0  2  0  0  0  0  0  0
  188.1420  177.1720  143.8690 C   0  0  2  0  0  3  0  0  0  0  0  0
  191.4860  177.0750  143.6990 C   0  0  1  0  0  3  0  0  0  0  0  0
  186.8380  178.4390  138.7010 O   0  0  0  0  0  1  0  0  0  0  0  0
  188.6750  177.8590  145.0930 C   0  0  0  0  0  0  0  0  0  0  0  0
  187.5060  178.0810  139.8740 C   0  0  2  0  0  3  0  0  0  0  0  0
  190.5510  177.5650  141.5510 N   0  0  1  0  0  0  0  0  0  0  0  0
  187.9060  177.9220  146.3710 C   0  0  0  0  0  1  0  0  0  0  0  0
  191.0770  176.4780  142.3650 C   0  0  0  0  0  2  0  0  0  0  0  0
  187.4550  178.9400  142.2360 C   0  0  0  0  0  3  0  0  0  0  0  0
  189.8330  178.4220  145.0200 N   0  0  0  0  0  0  0  0  0  0  0  0
  190.6600  178.3610  143.8180 C   0  0  2  0  0  3  0  0  0  0  0  0
  188.4400  178.0130  142.7050 N   0  0  0  0  0  0  0  0  0  0  0  0
  189.4610  177.9400  138.2410 C   0  0  0  0  0  2  0  0  0  0  0  0
  189.6950  177.0110  140.4920 C   0  0  2  0  0  3  0  0  0  0  0  0
  186.6780  176.7590  143.9600 C   0  0  0  0  0  2  0  0  0  0  0  0
  185.8760  177.8780  144.5390 C   0  0  0  0  0  3  0  0  0  0  0  0
  184.7970  178.2530  143.9620 N   0  0  0  0  0  2  0  0  0  0  0  0
  191.2840  176.0620  144.8220 C   0  0  0  0  0  2  0  0  0  0  0  0
  192.2910  175.2580  146.9280 C   0  0  0  0  0  2  0  0  0  0  0  0
  191.6530  177.1280  148.4090 C   0  0  0  0  0  1  0  0  0  0  0  0
  192.0560  176.4750  146.0600 C   0  0  2  0  0  3  0  0  0  0  0  0
  191.1870  176.2350  147.2740 C   0  0  1  0  0  3  0  0  0  0  0  0
  2 14  2  0  0  0  0
  3 17  1  1  0  0  0
  3 16  1  0  0  0  0
  4 18  1  6  0  0  0
  4 10  1  0  0  0  0
  4 19  1  0  0  0  0
  5  1  1  0  0  0  0
  6 20  1  1  0  0  0
  6  9  1  0  0  0  0
  7 16  1  0  0  0  0
  7 23  1  1  0  0  0
  9 12  1  0  0  0  0
 10  8  1  6  0  0  0
 10  2  1  0  0  0  0
 11 13  1  1  0  0  0
 11  3  1  0  0  0  0
 13  7  1  0  0  0  0
 14 17  1  0  0  0  0
 15  9  2  0  0  0  0
 16 15  1  1  0  0  0
 17  6  1  0  0  0  0
 18  5  1  0  0  0  0
 19  1  1  6  0  0  0
 19 11  1  0  0  0  0
 20 21  1  0  0  0  0
 22 21  2  0  0  0  0
 24 27  1  0  0  0  0
 26 23  1  6  0  0  0
 26 24  1  0  0  0  0
 26 27  1  0  0  0  0
 27 25  1  1  0  0  0
M  END
>  <MODEL>
3

>  <REMARK>
 VINA RESULT:      -5.6      2.148      5.234
  Name = 
  4 active torsions:
  status: ('A' for Active; 'I' for Inactive)
    1  A    between atoms: C_5  and  C_8
    2  A    between atoms: C_8  and  C_9
    3  A    between atoms: C_10  and  C_18
    4  A    between atoms: C_18  and  C_20
                            x       y       z     vdW  Elec       q    Type
                         _______ _______ _______ _____ _____    ______ ____

>  <TORSDO>
F 4

$$$$
=
 OpenBabel11032419493D

 27 31  0  0  1  0  0  0  0  0999 V2000
  192.4050  175.8260  138.5250 C   0  0  0  0  0  2  0  0  0  0  0  0
  189.7100  175.3900  134.7120 C   0  0  0  0  0  3  0  0  0  0  0  0
  189.4900  177.6970  136.9700 C   0  0  2  0  0  3  0  0  0  0  0  0
  191.6690  175.8610  136.2020 C   0  0  2  0  0  3  0  0  0  0  0  0
  193.5970  176.0490  137.6300 C   0  0  0  0  0  2  0  0  0  0  0  0
  187.4710  176.2570  137.3940 C   0  0  2  0  0  3  0  0  0  0  0  0
  189.0550  178.5930  139.1960 C   0  0  1  0  0  3  0  0  0  0  0  0
  191.6310  174.0520  134.5940 O   0  0  0  0  0  1  0  0  0  0  0  0
  186.6290  177.5000  137.3600 C   0  0  0  0  0  0  0  0  0  0  0  0
  190.8440  174.7870  135.4830 C   0  0  2  0  0  3  0  0  0  0  0  0
  190.6150  177.3680  137.8560 N   0  0  1  0  0  0  0  0  0  0  0  0
  185.1490  177.4550  137.1680 C   0  0  0  0  0  1  0  0  0  0  0  0
  190.0550  177.4510  139.1980 C   0  0  0  0  0  2  0  0  0  0  0  0
  188.7320  176.1280  135.2360 C   0  0  0  0  0  3  0  0  0  0  0  0
  187.2180  178.6390  137.4890 N   0  0  0  0  0  0  0  0  0  0  0  0
  188.6550  178.7560  137.7250 C   0  0  2  0  0  3  0  0  0  0  0  0
  188.6890  176.5080  136.6160 N   0  0  0  0  0  0  0  0  0  0  0  0
  193.1490  175.5230  136.2890 C   0  0  0  0  0  2  0  0  0  0  0  0
  191.1760  176.0260  137.6440 C   0  0  2  0  0  3  0  0  0  0  0  0
  186.7410  174.9840  136.9840 C   0  0  0  0  0  2  0  0  0  0  0  0
  187.5420  173.7930  137.3940 C   0  0  0  0  0  3  0  0  0  0  0  0
  187.6800  172.8090  136.5860 N   0  0  0  0  0  2  0  0  0  0  0  0
  187.9080  178.3010  140.1590 C   0  0  0  0  0  2  0  0  0  0  0  0
  187.5030  177.7740  142.5360 C   0  0  0  0  0  2  0  0  0  0  0  0
  189.8370  177.7590  143.3400 C   0  0  0  0  0  1  0  0  0  0  0  0
  188.3980  177.4990  141.3480 C   0  0  2  0  0  3  0  0  0  0  0  0
  188.8490  178.4590  142.4260 C   0  0  1  0  0  3  0  0  0  0  0  0
  2 14  2  0  0  0  0
  2 10  1  0  0  0  0
  3 17  1  1  0  0  0
  3 16  1  0  0  0  0
  3 11  1  0  0  0  0
  4 18  1  1  0  0  0
  4 19  1  0  0  0  0
  5  1  1  0  0  0  0
  6 20  1  6  0  0  0
  7 13  1  0  0  0  0
  7 23  1  1  0  0  0
  9  6  1  0  0  0  0
  9 15  2  0  0  0  0
 10  8  1  6  0  0  0
 10  4  1  0  0  0  0
 11 13  1  1  0  0  0
 12  9  1  0  0  0  0
 14 17  1  0  0  0  0
 16 15  1  1  0  0  0
 16  7  1  0  0  0  0
 17  6  1  0  0  0  0
 18  5  1  0  0  0  0
 19 11  1  0  0  0  0
 19  1  1  1  0  0  0
 20 21  1  0  0  0  0
 22 21  2  0  0  0  0
 26 23  1  6  0  0  0
 26 27  1  0  0  0  0
 26 24  1  0  0  0  0
 27 24  1  0  0  0  0
 27 25  1  1  0  0  0
M  END
>  <MODEL>
4

>  <REMARK>
 VINA RESULT:      -5.5      3.662      6.938
  Name = 
  4 active torsions:
  status: ('A' for Active; 'I' for Inactive)
    1  A    between atoms: C_5  and  C_8
    2  A    between atoms: C_8  and  C_9
    3  A    between atoms: C_10  and  C_18
    4  A    between atoms: C_18  and  C_20
                            x       y       z     vdW  Elec       q    Type
                         _______ _______ _______ _____ _____    ______ ____

>  <TORSDO>
F 4

$$$$
=
 OpenBabel11032419493D

 27 31  0  0  1  0  0  0  0  0999 V2000
  184.4530  179.4590  143.1720 C   0  0  0  0  0  2  0  0  0  0  0  0
  180.0520  178.7610  141.7080 C   0  0  0  0  0  3  0  0  0  0  0  0
  182.7460  177.6440  140.3060 C   0  0  2  0  0  3  0  0  0  0  0  0
  182.1720  178.6100  143.0360 C   0  0  2  0  0  3  0  0  0  0  0  0
  184.1330  178.6930  144.4300 C   0  0  0  0  0  2  0  0  0  0  0  0
  181.9680  179.4520  138.7400 C   0  0  2  0  0  3  0  0  0  0  0  0
  184.8670  177.8170  139.1150 C   0  0  1  0  0  3  0  0  0  0  0  0
  180.1340  179.5880  143.9010 O   0  0  0  0  0  1  0  0  0  0  0  0
  182.0780  178.4660  137.6140 C   0  0  0  0  0  0  0  0  0  0  0  0
  180.9040  179.4230  142.7470 C   0  0  2  0  0  3  0  0  0  0  0  0
  183.7890  178.1080  141.2320 N   0  0  1  0  0  0  0  0  0  0  0  0
  181.4040  178.6800  136.2980 C   0  0  0  0  0  1  0  0  0  0  0  0
  184.8150  178.6730  140.3670 C   0  0  0  0  0  2  0  0  0  0  0  0
  180.4390  178.4780  140.4650 C   0  0  0  0  0  3  0  0  0  0  0  0
  182.7700  177.3960  137.8060 N   0  0  0  0  0  0  0  0  0  0  0  0
  183.4920  177.1420  139.0500 C   0  0  2  0  0  3  0  0  0  0  0  0
  181.7700  178.7040  139.9860 N   0  0  0  0  0  0  0  0  0  0  0  0
  182.6250  178.6970  144.4850 C   0  0  0  0  0  2  0  0  0  0  0  0
  183.3370  179.1320  142.1850 C   0  0  2  0  0  3  0  0  0  0  0  0
  180.9380  180.5540  138.5220 C   0  0  0  0  0  2  0  0  0  0  0  0
  181.6330  181.8640  138.3540 C   0  0  0  0  0  3  0  0  0  0  0  0
  181.1030  182.7780  137.6310 N   0  0  0  0  0  2  0  0  0  0  0  0
  185.2380  178.6650  137.9020 C   0  0  0  0  0  2  0  0  0  0  0  0
  186.3550  177.5420  136.0090 C   0  0  0  0  0  2  0  0  0  0  0  0
  188.0450  176.2470  137.2600 C   0  0  0  0  0  1  0  0  0  0  0  0
  186.5770  178.2330  137.3360 C   0  0  2  0  0  3  0  0  0  0  0  0
  186.6040  176.7240  137.2580 C   0  0  1  0  0  3  0  0  0  0  0  0
  1  5  1  0  0  0  0
  2 10  1  0  0  0  0
  3 17  1  6  0  0  0
  3 11  1  0  0  0  0
  4 18  1  1  0  0  0
  5 18  1  0  0  0  0
  6 20  1  6  0  0  0
  6 17  1  0  0  0  0
  7 23  1  6  0  0  0
  7 13  1  0  0  0  0
  9 15  2  0  0  0  0
  9  6  1  0  0  0  0
 10  4  1  0  0  0  0
 10  8  1  1  0  0  0
 11 13  1  6  0  0  0
 11 19  1  0  0  0  0
 12  9  1  0  0  0  0
 14  2  2  0  0  0  0
 16 15  1  6  0  0  0
 16  7  1  0  0  0  0
 16  3  1  0  0  0  0
 17 14  1  0  0  0  0
 19  4  1  0  0  0  0
 19  1  1  1  0  0  0
 21 20  1  0  0  0  0
 22 21  2  0  0  0  0
 24 27  1  0  0  0  0
 24 26  1  0  0  0  0
 26 23  1  1  0  0  0
 27 25  1  6  0  0  0
 27 26  1  0  0  0  0
M  END
>  <MODEL>
5

>  <REMARK>
 VINA RESULT:      -5.3      5.158      8.999
  Name = 
  4 active torsions:
  status: ('A' for Active; 'I' for Inactive)
    1  A    between atoms: C_5  and  C_8
    2  A    between atoms: C_8  and  C_9
    3  A    between atoms: C_10  and  C_18
    4  A    between atoms: C_18  and  C_20
                            x       y       z     vdW  Elec       q    Type
                         _______ _______ _______ _____ _____    ______ ____

>  <TORSDO>
F 4

$$$$
=
 OpenBabel11032419493D

 27 31  0  0  1  0  0  0  0  0999 V2000
  187.4750  177.5920  141.8040 C   0  0  0  0  0  2  0  0  0  0  0  0
  191.8750  177.1260  140.2480 C   0  0  0  0  0  3  0  0  0  0  0  0
  189.3980  178.4530  138.6450 C   0  0  2  0  0  3  0  0  0  0  0  0
  189.8700  177.9400  141.5130 C   0  0  2  0  0  3  0  0  0  0  0  0
  187.9790  178.5090  142.8880 C   0  0  0  0  0  2  0  0  0  0  0  0
  189.7610  176.2610  137.4660 C   0  0  2  0  0  3  0  0  0  0  0  0
  187.2430  178.4690  137.5020 C   0  0  1  0  0  3  0  0  0  0  0  0
  191.7130  176.7700  142.5600 O   0  0  0  0  0  1  0  0  0  0  0  0
  189.8030  177.0130  136.1680 C   0  0  0  0  0  0  0  0  0  0  0  0
  190.9480  176.8560  141.3940 C   0  0  2  0  0  3  0  0  0  0  0  0
  188.3180  178.3890  139.6390 N   0  0  1  0  0  0  0  0  0  0  0  0
  190.3780  176.4230  134.9220 C   0  0  0  0  0  1  0  0  0  0  0  0
  187.1730  177.8770  138.8980 C   0  0  0  0  0  2  0  0  0  0  0  0
  191.5070  177.2340  138.9730 C   0  0  0  0  0  3  0  0  0  0  0  0
  189.3360  178.2140  136.1440 N   0  0  0  0  0  0  0  0  0  0  0  0
  188.7190  178.8390  137.3110 C   0  0  2  0  0  3  0  0  0  0  0  0
  190.1420  177.1820  138.5420 N   0  0  0  0  0  0  0  0  0  0  0  0
  189.4590  178.2240  142.9490 C   0  0  0  0  0  2  0  0  0  0  0  0
  188.5990  177.5000  140.7760 C   0  0  2  0  0  3  0  0  0  0  0  0
  190.5540  174.9590  137.4730 C   0  0  0  0  0  2  0  0  0  0  0  0
  189.6340  173.8110  137.2190 C   0  0  0  0  0  3  0  0  0  0  0  0
  189.7530  173.1260  136.1440 N   0  0  0  0  0  2  0  0  0  0  0  0
  186.6750  177.4910  136.4780 C   0  0  0  0  0  2  0  0  0  0  0  0
  186.3200  175.0660  136.1880 C   0  0  0  0  0  2  0  0  0  0  0  0
  184.1610  174.8400  137.3640 C   0  0  0  0  0  1  0  0  0  0  0  0
  186.1990  176.2210  137.1560 C   0  0  2  0  0  3  0  0  0  0  0  0
  184.9740  175.7150  136.4290 C   0  0  1  0  0  3  0  0  0  0  0  0
  1  5  1  0  0  0  0
  2 10  1  0  0  0  0
  3 17  1  6  0  0  0
  3 11  1  0  0  0  0
  4 18  1  1  0  0  0
  5 18  1  0  0  0  0
  6 20  1  6  0  0  0
  6 17  1  0  0  0  0
  7 23  1  6  0  0  0
  7 13  1  0  0  0  0
  9  6  1  0  0  0  0
 10  4  1  0  0  0  0
 10  8  1  1  0  0  0
 11 13  1  6  0  0  0
 11 19  1  0  0  0  0
 12  9  1  0  0  0  0
 14  2  2  0  0  0  0
 15  9  2  0  0  0  0
 16 15  1  6  0  0  0
 16  7  1  0  0  0  0
 16  3  1  0  0  0  0
 17 14  1  0  0  0  0
 19  4  1  0  0  0  0
 19  1  1  1  0  0  0
 21 20  1  0  0  0  0
 22 21  2  0  0  0  0
 24 27  1  0  0  0  0
 24 26  1  0  0  0  0
 26 23  1  6  0  0  0
 27 26  1  0  0  0  0
 27 25  1  1  0  0  0
M  END
>  <MODEL>
6

>  <REMARK>
 VINA RESULT:      -5.2      3.211      6.701
  Name = 
  4 active torsions:
  status: ('A' for Active; 'I' for Inactive)
    1  A    between atoms: C_5  and  C_8
    2  A    between atoms: C_8  and  C_9
    3  A    between atoms: C_10  and  C_18
    4  A    between atoms: C_18  and  C_20
                            x       y       z     vdW  Elec       q    Type
                         _______ _______ _______ _____ _____    ______ ____

>  <TORSDO>
F 4

$$$$
=
 OpenBabel11032419493D

 27 31  0  0  1  0  0  0  0  0999 V2000
  190.6380  176.9710  140.3470 C   0  0  0  0  0  2  0  0  0  0  0  0
  191.2090  175.2760  136.0120 C   0  0  0  0  0  3  0  0  0  0  0  0
  189.1140  177.5680  136.9210 C   0  0  2  0  0  3  0  0  0  0  0  0
  191.5900  176.5310  138.1470 C   0  0  2  0  0  3  0  0  0  0  0  0
  192.0460  177.5040  140.3010 C   0  0  0  0  0  2  0  0  0  0  0  0
  187.6520  175.5690  136.4830 C   0  0  2  0  0  3  0  0  0  0  0  0
  187.1730  178.4660  138.0930 C   0  0  1  0  0  3  0  0  0  0  0  0
  192.9730  174.6760  137.4350 O   0  0  0  0  0  1  0  0  0  0  0  0
  186.8000  176.4360  135.6040 C   0  0  0  0  0  0  0  0  0  0  0  0
  191.6680  175.1750  137.4340 C   0  0  2  0  0  3  0  0  0  0  0  0
  189.4370  177.7320  138.3450 N   0  0  1  0  0  0  0  0  0  0  0  0
  185.8450  175.8670  134.6070 C   0  0  0  0  0  1  0  0  0  0  0  0
  188.1410  177.7440  139.0110 C   0  0  0  0  0  2  0  0  0  0  0  0
  190.0000  175.6780  135.6230 C   0  0  0  0  0  3  0  0  0  0  0  0
  186.9150  177.7150  135.7140 N   0  0  0  0  0  0  0  0  0  0  0  0
  187.7950  178.3420  136.6970 C   0  0  2  0  0  3  0  0  0  0  0  0
  188.9990  176.1480  136.5320 N   0  0  0  0  0  0  0  0  0  0  0  0
  192.6920  176.7330  139.1760 C   0  0  0  0  0  2  0  0  0  0  0  0
  190.2620  176.6510  138.9040 C   0  0  2  0  0  3  0  0  0  0  0  0
  187.6420  174.0890  136.1180 C   0  0  0  0  0  2  0  0  0  0  0  0
  187.0060  173.3060  137.2190 C   0  0  0  0  0  3  0  0  0  0  0  0
  185.7560  173.4430  137.4580 N   0  0  0  0  0  2  0  0  0  0  0  0
  185.7680  177.8900  138.2370 C   0  0  0  0  0  2  0  0  0  0  0  0
  184.8440  179.0000  140.2380 C   0  0  0  0  0  2  0  0  0  0  0  0
  182.4790  179.1580  139.5460 C   0  0  0  0  0  1  0  0  0  0  0  0
  184.8010  178.9500  138.7270 C   0  0  2  0  0  3  0  0  0  0  0  0
  183.7150  178.2770  139.5350 C   0  0  1  0  0  3  0  0  0  0  0  0
  2 10  1  0  0  0  0
  3 17  1  1  0  0  0
  3 11  1  0  0  0  0
  4 19  1  0  0  0  0
  4 18  1  1  0  0  0
  5  1  1  0  0  0  0
  6 20  1  6  0  0  0
  6 17  1  0  0  0  0
  7 23  1  6  0  0  0
  7 13  1  0  0  0  0
  9 15  2  0  0  0  0
  9  6  1  0  0  0  0
 10  8  1  6  0  0  0
 10  4  1  0  0  0  0
 11 19  1  0  0  0  0
 11 13  1  1  0  0  0
 12  9  1  0  0  0  0
 14  2  2  0  0  0  0
 14 17  1  0  0  0  0
 16 15  1  6  0  0  0
 16  3  1  0  0  0  0
 16  7  1  0  0  0  0
 18  5  1  0  0  0  0
 19  1  1  1  0  0  0
 20 21  1  0  0  0  0
 21 22  2  0  0  0  0
 26 23  1  1  0  0  0
 26 27  1  0  0  0  0
 26 24  1  0  0  0  0
 27 25  1  6  0  0  0
 27 24  1  0  0  0  0
M  END
>  <MODEL>
7

>  <REMARK>
 VINA RESULT:      -5.2      4.138      6.837
  Name = 
  4 active torsions:
  status: ('A' for Active; 'I' for Inactive)
    1  A    between atoms: C_5  and  C_8
    2  A    between atoms: C_8  and  C_9
    3  A    between atoms: C_10  and  C_18
    4  A    between atoms: C_18  and  C_20
                            x       y       z     vdW  Elec       q    Type
                         _______ _______ _______ _____ _____    ______ ____

>  <TORSDO>
F 4

$$$$
=
 OpenBabel11032419493D

 27 31  0  0  1  0  0  0  0  0999 V2000
  189.9610  178.3000  146.9310 C   0  0  0  0  0  2  0  0  0  0  0  0
  185.9540  177.5200  144.6220 C   0  0  0  0  0  3  0  0  0  0  0  0
  188.8990  176.4840  143.7690 C   0  0  2  0  0  3  0  0  0  0  0  0
  187.7740  177.4000  146.3400 C   0  0  2  0  0  3  0  0  0  0  0  0
  189.4190  177.5100  148.0940 C   0  0  0  0  0  2  0  0  0  0  0  0
  188.3990  178.2940  142.0960 C   0  0  2  0  0  3  0  0  0  0  0  0
  191.2080  176.7220  143.0210 C   0  0  1  0  0  3  0  0  0  0  0  0
  185.5810  178.3190  146.7940 O   0  0  0  0  0  1  0  0  0  0  0  0
  188.7530  177.3260  141.0050 C   0  0  0  0  0  0  0  0  0  0  0  0
  186.5680  178.1870  145.8140 C   0  0  2  0  0  3  0  0  0  0  0  0
  189.7270  176.9590  144.8870 N   0  0  1  0  0  0  0  0  0  0  0  0
  188.3460  177.5420  139.5840 C   0  0  0  0  0  1  0  0  0  0  0  0
  190.8890  177.5600  144.2450 C   0  0  0  0  0  2  0  0  0  0  0  0
  186.5850  177.2620  143.4770 C   0  0  0  0  0  3  0  0  0  0  0  0
  189.4200  176.2700  141.3210 N   0  0  0  0  0  0  0  0  0  0  0  0
  189.8900  176.0160  142.6800 C   0  0  2  0  0  3  0  0  0  0  0  0
  187.9780  177.5260  143.2720 N   0  0  0  0  0  0  0  0  0  0  0  0
  187.9300  177.4780  147.8510 C   0  0  0  0  0  2  0  0  0  0  0  0
  189.0700  177.9590  145.7400 C   0  0  2  0  0  3  0  0  0  0  0  0
  187.4040  179.3750  141.6890 C   0  0  0  0  0  2  0  0  0  0  0  0
  186.1160  178.7400  141.2770 C   0  0  0  0  0  3  0  0  0  0  0  0
  185.3050  179.3780  140.5190 N   0  0  0  0  0  2  0  0  0  0  0  0
  191.7890  177.5940  141.9120 C   0  0  0  0  0  2  0  0  0  0  0  0
  193.5440  177.5040  140.1790 C   0  0  0  0  0  2  0  0  0  0  0  0
  192.2720  176.3780  138.3880 C   0  0  0  0  0  1  0  0  0  0  0  0
  192.4130  176.7380  140.8280 C   0  0  2  0  0  3  0  0  0  0  0  0
  192.1970  177.4140  139.4940 C   0  0  1  0  0  3  0  0  0  0  0  0
  1  5  1  0  0  0  0
  2 10  1  0  0  0  0
  3 17  1  6  0  0  0
  3 11  1  0  0  0  0
  4 18  1  1  0  0  0
  6 20  1  6  0  0  0
  6 17  1  0  0  0  0
  7 23  1  6  0  0  0
  7 13  1  0  0  0  0
  9 15  2  0  0  0  0
  9  6  1  0  0  0  0
 10  4  1  0  0  0  0
 10  8  1  1  0  0  0
 11 13  1  6  0  0  0
 11 19  1  0  0  0  0
 12  9  1  0  0  0  0
 14  2  2  0  0  0  0
 16 15  1  6  0  0  0
 16  7  1  0  0  0  0
 16  3  1  0  0  0  0
 17 14  1  0  0  0  0
 18  5  1  0  0  0  0
 19  4  1  0  0  0  0
 19  1  1  1  0  0  0
 21 20  1  0  0  0  0
 22 21  2  0  0  0  0
 24 26  1  0  0  0  0
 26 23  1  1  0  0  0
 27 25  1  6  0  0  0
 27 24  1  0  0  0  0
 27 26  1  0  0  0  0
M  END
>  <MODEL>
8

>  <REMARK>
 VINA RESULT:      -5.2      2.573      6.787
  Name = 
  4 active torsions:
  status: ('A' for Active; 'I' for Inactive)
    1  A    between atoms: C_5  and  C_8
    2  A    between atoms: C_8  and  C_9
    3  A    between atoms: C_10  and  C_18
    4  A    between atoms: C_18  and  C_20
                            x       y       z     vdW  Elec       q    Type
                         _______ _______ _______ _____ _____    ______ ____

>  <TORSDO>
F 4

$$$$
=
 OpenBabel11032419493D

 27 31  0  0  1  0  0  0  0  0999 V2000
  191.1700  178.0390  145.4220 C   0  0  0  0  0  2  0  0  0  0  0  0
  186.8360  177.2580  147.0350 C   0  0  0  0  0  3  0  0  0  0  0  0
  187.8630  176.8360  143.9960 C   0  0  2  0  0  3  0  0  0  0  0  0
  189.2870  177.0080  146.5760 C   0  0  2  0  0  3  0  0  0  0  0  0
  191.6800  176.9480  146.3280 C   0  0  0  0  0  2  0  0  0  0  0  0
  186.4130  178.8870  143.8530 C   0  0  2  0  0  3  0  0  0  0  0  0
  188.7040  177.5380  141.8170 C   0  0  1  0  0  3  0  0  0  0  0  0
  188.3940  177.5040  148.7700 O   0  0  0  0  0  1  0  0  0  0  0  0
  185.6780  178.2380  142.7160 C   0  0  0  0  0  0  0  0  0  0  0  0
  188.2120  177.7240  147.4030 C   0  0  2  0  0  3  0  0  0  0  0  0
  189.2920  177.1610  144.1070 N   0  0  1  0  0  0  0  0  0  0  0  0
  184.3330  178.7040  142.2670 C   0  0  0  0  0  1  0  0  0  0  0  0
  189.5530  178.0370  142.9720 C   0  0  0  0  0  2  0  0  0  0  0  0
  186.2960  177.3440  145.8210 C   0  0  0  0  0  3  0  0  0  0  0  0
  186.2340  177.2360  142.1250 N   0  0  0  0  0  0  0  0  0  0  0  0
  187.5660  176.7550  142.4820 C   0  0  2  0  0  3  0  0  0  0  0  0
  187.0080  177.8300  144.6770 N   0  0  0  0  0  0  0  0  0  0  0  0
  190.5780  176.7720  147.3440 C   0  0  0  0  0  2  0  0  0  0  0  0
  189.6580  177.8530  145.3510 C   0  0  2  0  0  3  0  0  0  0  0  0
  185.5870  179.8880  144.6540 C   0  0  0  0  0  2  0  0  0  0  0  0
  184.1710  179.4210  144.7300 C   0  0  0  0  0  3  0  0  0  0  0  0
  183.6970  179.0030  145.8430 N   0  0  0  0  0  2  0  0  0  0  0  0
  188.2690  178.7020  140.9320 C   0  0  0  0  0  2  0  0  0  0  0  0
  189.1600  177.1990  139.1880 C   0  0  0  0  0  2  0  0  0  0  0  0
  189.0510  178.7300  137.2540 C   0  0  0  0  0  1  0  0  0  0  0  0
  188.1180  178.2520  139.4920 C   0  0  2  0  0  3  0  0  0  0  0  0
  189.3710  178.6280  138.7340 C   0  0  1  0  0  3  0  0  0  0  0  0
  1  5  1  0  0  0  0
  2 10  1  0  0  0  0
  3 11  1  0  0  0  0
  3 17  1  6  0  0  0
  4 18  1  1  0  0  0
  4 10  1  0  0  0  0
  5 18  1  0  0  0  0
  6 20  1  1  0  0  0
  6 17  1  0  0  0  0
  7 23  1  1  0  0  0
  7 16  1  0  0  0  0
  7 13  1  0  0  0  0
  9  6  1  0  0  0  0
 10  8  1  1  0  0  0
 11 13  1  6  0  0  0
 11 19  1  0  0  0  0
 12  9  1  0  0  0  0
 14  2  2  0  0  0  0
 15  9  2  0  0  0  0
 16 15  1  1  0  0  0
 16  3  1  0  0  0  0
 17 14  1  0  0  0  0
 19  1  1  6  0  0  0
 19  4  1  0  0  0  0
 20 21  1  0  0  0  0
 21 22  2  0  0  0  0
 24 26  1  0  0  0  0
 26 23  1  1  0  0  0
 27 25  1  6  0  0  0
 27 24  1  0  0  0  0
 27 26  1  0  0  0  0
M  END
>  <MODEL>
9

>  <REMARK>
 VINA RESULT:      -4.8      2.348      5.901
  Name = 
  4 active torsions:
  status: ('A' for Active; 'I' for Inactive)
    1  A    between atoms: C_5  and  C_8
    2  A    between atoms: C_8  and  C_9
    3  A    between atoms: C_10  and  C_18
    4  A    between atoms: C_18  and  C_20
                            x       y       z     vdW  Elec       q    Type
                         _______ _______ _______ _____ _____    ______ ____

>  <TORSDO>
F 4

$$$$
