=
 OpenBabel11032420093D

 36 39  0  0  1  0  0  0  0  0999 V2000
  188.9660  179.1040  138.3560 N   0  0  0  0  0  2  0  0  0  0  0  0
  190.0030  177.0180  138.2980 C   0  0  0  0  0  0  0  0  0  0  0  0
  188.9030  178.5460  136.9940 C   0  0  1  0  0  3  0  0  0  0  0  0
  190.7390  175.8200  138.8020 C   0  0  0  0  0  1  0  0  0  0  0  0
  189.5970  177.2200  137.0610 C   0  0  0  0  0  0  0  0  0  0  0  0
  189.6510  178.1270  139.0940 N   0  0  0  0  0  0  0  0  0  0  0  0
  188.7540  177.4150  143.1260 N   0  0  0  0  0  0  0  0  0  0  0  0
  189.9640  176.7560  142.6160 C   0  0  0  0  0  2  0  0  0  0  0  0
  187.7900  177.9830  142.1800 C   0  0  0  0  0  2  0  0  0  0  0  0
  190.0030  176.7550  141.0900 C   0  0  0  0  0  2  0  0  0  0  0  0
  189.7530  178.1660  140.5470 C   0  0  2  0  0  3  0  0  0  0  0  0
  188.5120  178.8500  141.1480 C   0  0  0  0  0  2  0  0  0  0  0  0
  189.3980  176.8940  145.4520 C   0  0  0  0  0  3  0  0  0  0  0  0
  187.7840  177.5910  148.6850 O   0  0  0  0  0  1  0  0  0  0  0  0
  187.9930  177.5610  147.3110 C   0  0  0  0  0  0  0  0  0  0  0  0
  188.4980  177.4660  144.5420 C   0  0  0  0  0  0  0  0  0  0  0  0
  187.0720  178.1430  146.4130 C   0  0  0  0  0  0  0  0  0  0  0  0
  187.3410  178.0870  145.0380 C   0  0  0  0  0  3  0  0  0  0  0  0
  189.1470  176.9420  146.8250 C   0  0  0  0  0  3  0  0  0  0  0  0
  185.8800  179.8730  147.5490 O   0  0  0  0  0  0  0  0  0  0  0  0
  184.5580  178.2640  146.5410 N   0  0  0  0  0  1  0  0  0  0  0  0
  185.8320  178.8140  146.8690 C   0  0  0  0  0  0  0  0  0  0  0  0
  191.2570  175.9980  135.6500 C   0  0  0  0  0  2  0  0  0  0  0  0
  189.7950  176.3140  135.8800 C   0  0  1  0  0  3  0  0  0  0  0  0
  191.2950  174.7040  134.8760 C   0  0  2  0  0  3  0  0  0  0  0  0
  190.2970  173.7720  135.5260 C   0  0  0  0  0  2  0  0  0  0  0  0
  192.6830  174.1010  134.9390 C   0  0  0  0  0  1  0  0  0  0  0  0
  188.8640  174.7560  136.0590 S   0  0  0  0  0  0  0  0  0  0  0  0
  187.4490  178.3520  136.5740 C   0  0  0  0  0  2  0  0  0  0  0  0
  184.7130  179.1110  139.1370 N   0  0  0  0  0  2  0  0  0  0  0  0
  185.2030  177.1420  137.9060 N   0  0  0  0  0  2  0  0  0  0  0  0
  186.5510  179.0370  137.4960 N   0  0  0  0  0  2  0  0  0  0  0  0
  185.5010  178.3670  138.1980 C   0  0  0  0  0  0  0  0  0  0  0  0
  183.7860  178.5630  140.0430 N   0  0  0  0  0  2  0  0  0  0  0  0
  183.9910  178.5070  141.4310 C   0  0  0  0  0  0  0  0  0  0  0  0
  184.1650  178.4610  142.6240 C   0  0  0  0  0  3  0  0  0  0  0  0
  1  6  1  0  0  0  0
  2  4  1  0  0  0  0
  2  6  1  0  0  0  0
  3 29  1  1  0  0  0
  3  5  1  0  0  0  0
  3  1  1  0  0  0  0
  5  2  2  0  0  0  0
  7 16  1  0  0  0  0
  8  7  1  0  0  0  0
  9  7  1  0  0  0  0
 10  8  1  0  0  0  0
 11  6  1  6  0  0  0
 11 10  1  0  0  0  0
 11 12  1  0  0  0  0
 12  9  1  0  0  0  0
 13 19  1  0  0  0  0
 15 14  1  0  0  0  0
 16 18  1  0  0  0  0
 16 13  2  0  0  0  0
 17 22  1  0  0  0  0
 17 15  1  0  0  0  0
 18 17  2  0  0  0  0
 19 15  2  0  0  0  0
 21 22  1  0  0  0  0
 22 20  2  0  0  0  0
 23 24  1  0  0  0  0
 24 28  1  0  0  0  0
 24  5  1  1  0  0  0
 25 27  1  1  0  0  0
 25 26  1  0  0  0  0
 25 23  1  0  0  0  0
 26 28  1  0  0  0  0
 29 32  1  0  0  0  0
 30 34  1  0  0  0  0
 31 33  2  0  0  0  0
 32 33  1  0  0  0  0
 33 30  1  0  0  0  0
 34 35  1  0  0  0  0
 35 36  3  0  0  0  0
M  END
>  <MODEL>
1

>  <REMARK>
 VINA RESULT:      -8.6      0.000      0.000
  Name = 
  8 active torsions:
  status: ('A' for Active; 'I' for Inactive)
    1  A    between atoms: N_1  and  C_28
    2  A    between atoms: N_10  and  N_20
    3  A    between atoms: C_12  and  C_17
    4  A    between atoms: C_13  and  C_26
    5  A    between atoms: C_18  and  N_20
    6  A    between atoms: N_19  and  C_26
    7  A    between atoms: C_21  and  N_22
    8  A    between atoms: C_27  and  C_29
                            x       y       z     vdW  Elec       q    Type
                         _______ _______ _______ _____ _____    ______ ____

>  <TORSDO>
F 8

$$$$
=
 OpenBabel11032420093D

 36 39  0  0  1  0  0  0  0  0999 V2000
  189.0720  179.1340  137.8900 N   0  0  0  0  0  2  0  0  0  0  0  0
  189.8690  176.9490  138.0400 C   0  0  0  0  0  0  0  0  0  0  0  0
  188.9190  178.4500  136.5940 C   0  0  1  0  0  3  0  0  0  0  0  0
  190.4780  175.7340  138.6590 C   0  0  0  0  0  1  0  0  0  0  0  0
  189.4640  177.0690  136.7920 C   0  0  0  0  0  0  0  0  0  0  0  0
  189.6590  178.1670  138.7200 N   0  0  0  0  0  0  0  0  0  0  0  0
  189.5130  177.3170  142.8210 N   0  0  0  0  0  0  0  0  0  0  0  0
  190.8580  177.4130  142.2380 C   0  0  0  0  0  2  0  0  0  0  0  0
  188.3510  177.1950  141.9370 C   0  0  0  0  0  2  0  0  0  0  0  0
  190.8150  177.3430  140.7130 C   0  0  0  0  0  2  0  0  0  0  0  0
  189.7940  178.3410  140.1600 C   0  0  2  0  0  3  0  0  0  0  0  0
  188.4140  178.2540  140.8360 C   0  0  0  0  0  2  0  0  0  0  0  0
  188.0980  177.5970  144.8250 C   0  0  0  0  0  3  0  0  0  0  0  0
  188.8040  177.2660  148.4220 O   0  0  0  0  0  1  0  0  0  0  0  0
  189.0110  177.2730  147.0480 C   0  0  0  0  0  0  0  0  0  0  0  0
  189.3420  177.3010  144.2510 C   0  0  0  0  0  0  0  0  0  0  0  0
  190.2740  176.9730  146.4910 C   0  0  0  0  0  0  0  0  0  0  0  0
  190.4190  176.9910  145.0960 C   0  0  0  0  0  3  0  0  0  0  0  0
  187.9350  177.5830  146.2120 C   0  0  0  0  0  3  0  0  0  0  0  0
  191.8620  177.4270  148.2160 O   0  0  0  0  0  0  0  0  0  0  0  0
  192.1380  175.4030  147.1310 N   0  0  0  0  0  1  0  0  0  0  0  0
  191.4510  176.6370  147.3260 C   0  0  0  0  0  0  0  0  0  0  0  0
  190.9450  175.5100  135.5200 C   0  0  0  0  0  2  0  0  0  0  0  0
  189.5360  176.0300  135.7100 C   0  0  1  0  0  3  0  0  0  0  0  0
  190.8130  174.1500  134.8810 C   0  0  2  0  0  3  0  0  0  0  0  0
  189.7110  173.4220  135.6180 C   0  0  0  0  0  2  0  0  0  0  0  0
  192.1150  173.3870  135.0110 C   0  0  0  0  0  1  0  0  0  0  0  0
  188.4180  174.6280  136.0410 S   0  0  0  0  0  0  0  0  0  0  0  0
  187.4460  178.3790  136.2090 C   0  0  0  0  0  2  0  0  0  0  0  0
  184.9550  179.0570  139.0320 N   0  0  0  0  0  2  0  0  0  0  0  0
  185.3970  177.0950  137.7710 N   0  0  0  0  0  2  0  0  0  0  0  0
  186.6190  179.0370  137.2120 N   0  0  0  0  0  2  0  0  0  0  0  0
  185.6730  178.3340  138.0230 C   0  0  0  0  0  0  0  0  0  0  0  0
  184.1480  178.4820  140.0320 N   0  0  0  0  0  2  0  0  0  0  0  0
  184.5160  178.4100  141.3850 C   0  0  0  0  0  0  0  0  0  0  0  0
  184.8320  178.3510  142.5470 C   0  0  0  0  0  3  0  0  0  0  0  0
  1  6  1  0  0  0  0
  2  4  1  0  0  0  0
  2  6  1  0  0  0  0
  3 29  1  1  0  0  0
  3  5  1  0  0  0  0
  3  1  1  0  0  0  0
  5  2  2  0  0  0  0
  7 16  1  0  0  0  0
  8  7  1  0  0  0  0
  9  7  1  0  0  0  0
 10  8  1  0  0  0  0
 11  6  1  6  0  0  0
 11 10  1  0  0  0  0
 11 12  1  0  0  0  0
 12  9  1  0  0  0  0
 13 19  1  0  0  0  0
 15 14  1  0  0  0  0
 16 13  2  0  0  0  0
 16 18  1  0  0  0  0
 17 15  1  0  0  0  0
 17 22  1  0  0  0  0
 18 17  2  0  0  0  0
 19 15  2  0  0  0  0
 21 22  1  0  0  0  0
 22 20  2  0  0  0  0
 23 24  1  0  0  0  0
 24 28  1  0  0  0  0
 24  5  1  1  0  0  0
 25 27  1  1  0  0  0
 25 23  1  0  0  0  0
 25 26  1  0  0  0  0
 26 28  1  0  0  0  0
 29 32  1  0  0  0  0
 30 34  1  0  0  0  0
 31 33  2  0  0  0  0
 32 33  1  0  0  0  0
 33 30  1  0  0  0  0
 34 35  1  0  0  0  0
 35 36  3  0  0  0  0
M  END
>  <MODEL>
2

>  <REMARK>
 VINA RESULT:      -8.5      1.466      2.265
  Name = 
  8 active torsions:
  status: ('A' for Active; 'I' for Inactive)
    1  A    between atoms: N_1  and  C_28
    2  A    between atoms: N_10  and  N_20
    3  A    between atoms: C_12  and  C_17
    4  A    between atoms: C_13  and  C_26
    5  A    between atoms: C_18  and  N_20
    6  A    between atoms: N_19  and  C_26
    7  A    between atoms: C_21  and  N_22
    8  A    between atoms: C_27  and  C_29
                            x       y       z     vdW  Elec       q    Type
                         _______ _______ _______ _____ _____    ______ ____

>  <TORSDO>
F 8

$$$$
=
 OpenBabel11032420093D

 36 39  0  0  1  0  0  0  0  0999 V2000
  186.2800  178.7430  139.0610 N   0  0  0  0  0  2  0  0  0  0  0  0
  187.7170  177.1940  138.0770 C   0  0  0  0  0  0  0  0  0  0  0  0
  185.6620  178.1790  137.8480 C   0  0  1  0  0  3  0  0  0  0  0  0
  188.9460  176.3660  137.8880 C   0  0  0  0  0  1  0  0  0  0  0  0
  186.6590  177.2110  137.2920 C   0  0  0  0  0  0  0  0  0  0  0  0
  187.5280  178.1050  139.1370 N   0  0  0  0  0  0  0  0  0  0  0  0
  189.3880  177.0960  142.7540 N   0  0  0  0  0  0  0  0  0  0  0  0
  190.2520  177.0780  141.5670 C   0  0  0  0  0  2  0  0  0  0  0  0
  187.9330  177.1340  142.5860 C   0  0  0  0  0  2  0  0  0  0  0  0
  189.4350  177.0800  140.2770 C   0  0  0  0  0  2  0  0  0  0  0  0
  188.3920  178.2010  140.3050 C   0  0  2  0  0  3  0  0  0  0  0  0
  187.5460  178.2280  141.5900 C   0  0  0  0  0  2  0  0  0  0  0  0
  191.2750  176.5680  144.2580 C   0  0  0  0  0  3  0  0  0  0  0  0
  191.6860  176.8390  147.9050 O   0  0  0  0  0  1  0  0  0  0  0  0
  191.0920  176.9120  146.6510 C   0  0  0  0  0  0  0  0  0  0  0  0
  189.9660  177.0350  144.0720 C   0  0  0  0  0  0  0  0  0  0  0  0
  189.7710  177.3840  146.4880 C   0  0  0  0  0  0  0  0  0  0  0  0
  189.2270  177.4390  145.1960 C   0  0  0  0  0  3  0  0  0  0  0  0
  191.8320  176.5080  145.5360 C   0  0  0  0  0  3  0  0  0  0  0  0
  189.4570  178.3740  148.6380 O   0  0  0  0  0  0  0  0  0  0  0  0
  187.5250  177.6350  147.6020 N   0  0  0  0  0  1  0  0  0  0  0  0
  188.9380  177.8260  147.6300 C   0  0  0  0  0  0  0  0  0  0  0  0
  185.9810  175.0140  136.3120 C   0  0  0  0  0  2  0  0  0  0  0  0
  186.4530  176.4250  136.0290 C   0  0  1  0  0  3  0  0  0  0  0  0
  185.2820  174.5410  135.0620 C   0  0  2  0  0  3  0  0  0  0  0  0
  184.3960  175.6760  134.5960 C   0  0  0  0  0  2  0  0  0  0  0  0
  184.4400  173.3200  135.3680 C   0  0  0  0  0  1  0  0  0  0  0  0
  185.2680  177.2410  134.9090 S   0  0  0  0  0  0  0  0  0  0  0  0
  184.3720  177.4510  138.2090 C   0  0  0  0  0  2  0  0  0  0  0  0
  182.3410  178.6430  141.2230 N   0  0  0  0  0  2  0  0  0  0  0  0
  181.9550  178.8590  138.8900 N   0  0  0  0  0  2  0  0  0  0  0  0
  183.9500  177.7880  139.5630 N   0  0  0  0  0  2  0  0  0  0  0  0
  182.6980  178.4130  139.8530 C   0  0  0  0  0  0  0  0  0  0  0  0
  181.0760  179.0600  141.6800 N   0  0  0  0  0  2  0  0  0  0  0  0
  180.5270  178.6750  142.9130 C   0  0  0  0  0  0  0  0  0  0  0  0
  180.0540  178.3460  143.9730 C   0  0  0  0  0  3  0  0  0  0  0  0
  1  6  1  0  0  0  0
  2  6  1  0  0  0  0
  3 29  1  1  0  0  0
  3  1  1  0  0  0  0
  4  2  1  0  0  0  0
  5  3  1  0  0  0  0
  5  2  2  0  0  0  0
  7 16  1  0  0  0  0
  8  7  1  0  0  0  0
  9  7  1  0  0  0  0
 10 11  1  0  0  0  0
 10  8  1  0  0  0  0
 11  6  1  6  0  0  0
 11 12  1  0  0  0  0
 12  9  1  0  0  0  0
 13 19  1  0  0  0  0
 15 14  1  0  0  0  0
 16 13  2  0  0  0  0
 16 18  1  0  0  0  0
 17 15  1  0  0  0  0
 17 22  1  0  0  0  0
 18 17  2  0  0  0  0
 19 15  2  0  0  0  0
 21 22  1  0  0  0  0
 22 20  2  0  0  0  0
 24 23  1  0  0  0  0
 24  5  1  1  0  0  0
 25 27  1  1  0  0  0
 25 23  1  0  0  0  0
 26 28  1  0  0  0  0
 26 25  1  0  0  0  0
 28 24  1  0  0  0  0
 29 32  1  0  0  0  0
 30 34  1  0  0  0  0
 31 33  2  0  0  0  0
 32 33  1  0  0  0  0
 33 30  1  0  0  0  0
 34 35  1  0  0  0  0
 35 36  3  0  0  0  0
M  END
>  <MODEL>
3

>  <REMARK>
 VINA RESULT:      -7.7      2.586      3.543
  Name = 
  8 active torsions:
  status: ('A' for Active; 'I' for Inactive)
    1  A    between atoms: N_1  and  C_28
    2  A    between atoms: N_10  and  N_20
    3  A    between atoms: C_12  and  C_17
    4  A    between atoms: C_13  and  C_26
    5  A    between atoms: C_18  and  N_20
    6  A    between atoms: N_19  and  C_26
    7  A    between atoms: C_21  and  N_22
    8  A    between atoms: C_27  and  C_29
                            x       y       z     vdW  Elec       q    Type
                         _______ _______ _______ _____ _____    ______ ____

>  <TORSDO>
F 8

$$$$
=
 OpenBabel11032420093D

 36 39  0  0  1  0  0  0  0  0999 V2000
  187.7450  178.6410  140.4350 N   0  0  0  0  0  2  0  0  0  0  0  0
  186.0410  178.2840  138.8860 C   0  0  0  0  0  0  0  0  0  0  0  0
  186.4380  178.9550  141.0400 C   0  0  1  0  0  3  0  0  0  0  0  0
  185.4020  177.9200  137.5860 C   0  0  0  0  0  1  0  0  0  0  0  0
  185.4210  178.7030  139.9700 C   0  0  0  0  0  0  0  0  0  0  0  0
  187.4300  178.2450  139.1260 N   0  0  0  0  0  0  0  0  0  0  0  0
  190.4620  175.7030  137.7450 N   0  0  0  0  0  0  0  0  0  0  0  0
  189.1320  175.4840  137.1620 C   0  0  0  0  0  2  0  0  0  0  0  0
  190.5930  176.5220  138.9530 C   0  0  0  0  0  2  0  0  0  0  0  0
  188.0400  176.1730  137.9770 C   0  0  0  0  0  2  0  0  0  0  0  0
  188.4060  177.6380  138.2310 C   0  0  2  0  0  3  0  0  0  0  0  0
  189.8280  177.8350  138.7840 C   0  0  0  0  0  2  0  0  0  0  0  0
  191.6250  174.7060  135.8070 C   0  0  0  0  0  3  0  0  0  0  0  0
  194.9890  173.2680  135.4090 O   0  0  0  0  0  1  0  0  0  0  0  0
  193.8900  173.8670  136.0130 C   0  0  0  0  0  0  0  0  0  0  0  0
  191.6220  175.0830  137.1580 C   0  0  0  0  0  0  0  0  0  0  0  0
  193.9090  174.2370  137.3760 C   0  0  0  0  0  0  0  0  0  0  0  0
  192.7710  174.8420  137.9280 C   0  0  0  0  0  3  0  0  0  0  0  0
  192.7490  174.1030  135.2410 C   0  0  0  0  0  3  0  0  0  0  0  0
  195.8670  174.9560  138.5380 O   0  0  0  0  0  0  0  0  0  0  0  0
  195.3570  172.7110  138.7630 N   0  0  0  0  0  1  0  0  0  0  0  0
  195.0880  174.0110  138.2440 C   0  0  0  0  0  0  0  0  0  0  0  0
  183.3930  179.8750  139.1000 C   0  0  0  0  0  2  0  0  0  0  0  0
  183.9460  178.9270  140.1430 C   0  0  1  0  0  3  0  0  0  0  0  0
  181.9170  179.5820  139.0010 C   0  0  2  0  0  3  0  0  0  0  0  0
  181.7660  178.0770  138.9750 C   0  0  0  0  0  2  0  0  0  0  0  0
  181.3520  180.1820  137.7300 C   0  0  0  0  0  1  0  0  0  0  0  0
  183.0120  177.3620  140.0890 S   0  0  0  0  0  0  0  0  0  0  0  0
  186.1790  178.0390  142.2310 C   0  0  0  0  0  2  0  0  0  0  0  0
  188.6390  177.3130  145.0700 N   0  0  0  0  0  2  0  0  0  0  0  0
  186.2860  177.6250  145.0780 N   0  0  0  0  0  2  0  0  0  0  0  0
  187.3980  177.8450  143.0060 N   0  0  0  0  0  2  0  0  0  0  0  0
  187.3910  177.5570  144.4070 C   0  0  0  0  0  0  0  0  0  0  0  0
  188.7870  176.8260  146.3820 N   0  0  0  0  0  2  0  0  0  0  0  0
  188.7160  177.6360  147.5270 C   0  0  0  0  0  0  0  0  0  0  0  0
  188.6530  178.3340  148.5090 C   0  0  0  0  0  3  0  0  0  0  0  0
  1  3  1  0  0  0  0
  2  6  1  0  0  0  0
  2  5  2  0  0  0  0
  3 29  1  1  0  0  0
  4  2  1  0  0  0  0
  5  3  1  0  0  0  0
  6  1  1  0  0  0  0
  7  9  1  0  0  0  0
  8  7  1  0  0  0  0
  8 10  1  0  0  0  0
 11 10  1  1  0  0  0
 11 12  1  0  0  0  0
 11  6  1  0  0  0  0
 12  9  1  0  0  0  0
 13 16  1  0  0  0  0
 14 15  1  0  0  0  0
 15 17  2  0  0  0  0
 16  7  1  0  0  0  0
 16 18  2  0  0  0  0
 17 18  1  0  0  0  0
 17 22  1  0  0  0  0
 19 13  2  0  0  0  0
 19 15  1  0  0  0  0
 22 20  2  0  0  0  0
 22 21  1  0  0  0  0
 23 24  1  0  0  0  0
 24  5  1  6  0  0  0
 25 27  1  6  0  0  0
 25 23  1  0  0  0  0
 26 25  1  0  0  0  0
 26 28  1  0  0  0  0
 28 24  1  0  0  0  0
 29 32  1  0  0  0  0
 30 34  1  0  0  0  0
 32 33  1  0  0  0  0
 33 30  1  0  0  0  0
 33 31  2  0  0  0  0
 34 35  1  0  0  0  0
 35 36  3  0  0  0  0
M  END
>  <MODEL>
4

>  <REMARK>
 VINA RESULT:      -7.5      4.401      8.853
  Name = 
  8 active torsions:
  status: ('A' for Active; 'I' for Inactive)
    1  A    between atoms: N_1  and  C_28
    2  A    between atoms: N_10  and  N_20
    3  A    between atoms: C_12  and  C_17
    4  A    between atoms: C_13  and  C_26
    5  A    between atoms: C_18  and  N_20
    6  A    between atoms: N_19  and  C_26
    7  A    between atoms: C_21  and  N_22
    8  A    between atoms: C_27  and  C_29
                            x       y       z     vdW  Elec       q    Type
                         _______ _______ _______ _____ _____    ______ ____

>  <TORSDO>
F 8

$$$$
=
 OpenBabel11032420093D

 36 39  0  0  1  0  0  0  0  0999 V2000
  180.6360  178.2550  141.2440 N   0  0  0  0  0  2  0  0  0  0  0  0
  181.6550  179.5200  139.5730 C   0  0  0  0  0  0  0  0  0  0  0  0
  179.8270  178.2130  140.0140 C   0  0  1  0  0  3  0  0  0  0  0  0
  182.6710  180.4040  138.9260 C   0  0  0  0  0  1  0  0  0  0  0  0
  180.5560  179.0560  139.0140 C   0  0  0  0  0  0  0  0  0  0  0  0
  181.7280  179.0700  140.9070 N   0  0  0  0  0  0  0  0  0  0  0  0
  184.5410  178.2460  143.9020 N   0  0  0  0  0  0  0  0  0  0  0  0
  185.0190  178.0980  142.5220 C   0  0  0  0  0  2  0  0  0  0  0  0
  183.1010  178.3400  144.1610 C   0  0  0  0  0  2  0  0  0  0  0  0
  183.8600  178.0420  141.5280 C   0  0  0  0  0  2  0  0  0  0  0  0
  182.8990  179.2120  141.7620 C   0  0  2  0  0  3  0  0  0  0  0  0
  182.4660  179.3740  143.2300 C   0  0  0  0  0  2  0  0  0  0  0  0
  185.0660  178.6280  146.2850 C   0  0  0  0  0  3  0  0  0  0  0  0
  188.1790  178.3000  148.2190 O   0  0  0  0  0  1  0  0  0  0  0  0
  187.3090  178.2790  147.1360 C   0  0  0  0  0  0  0  0  0  0  0  0
  185.4770  178.2550  144.9970 C   0  0  0  0  0  0  0  0  0  0  0  0
  187.7450  177.9020  145.8470 C   0  0  0  0  0  0  0  0  0  0  0  0
  186.8180  177.8960  144.7950 C   0  0  0  0  0  3  0  0  0  0  0  0
  185.9750  178.6390  147.3450 C   0  0  0  0  0  3  0  0  0  0  0  0
  189.7730  176.7410  146.3390 O   0  0  0  0  0  0  0  0  0  0  0  0
  189.8070  178.0040  144.4020 N   0  0  0  0  0  1  0  0  0  0  0  0
  189.1460  177.5110  145.5650 C   0  0  0  0  0  0  0  0  0  0  0  0
  179.8910  180.7990  137.3520 C   0  0  0  0  0  2  0  0  0  0  0  0
  180.0650  179.3190  137.6190 C   0  0  1  0  0  3  0  0  0  0  0  0
  179.9680  180.9730  135.8560 C   0  0  2  0  0  3  0  0  0  0  0  0
  181.1320  180.1350  135.3740 C   0  0  0  0  0  2  0  0  0  0  0  0
  180.2020  182.4290  135.5130 C   0  0  0  0  0  1  0  0  0  0  0  0
  181.1810  178.6100  136.3630 S   0  0  0  0  0  0  0  0  0  0  0  0
  179.7180  176.7790  139.5070 C   0  0  0  0  0  2  0  0  0  0  0  0
  182.8430  174.8550  138.4280 N   0  0  0  0  0  0  0  0  0  0  0  0
  180.7280  175.1210  137.3820 N   0  0  0  0  0  2  0  0  0  0  0  0
  181.0260  176.1360  139.4930 N   0  0  0  0  0  2  0  0  0  0  0  0
  181.5140  175.3920  138.3740 C   0  0  0  0  0  0  0  0  0  0  0  0
  183.5360  174.2780  137.3470 N   0  0  0  0  0  0  0  0  0  0  0  0
  184.7530  173.5910  137.4790 C   0  0  0  0  0  0  0  0  0  0  0  0
  185.8000  173.0030  137.5930 C   0  0  0  0  0  3  0  0  0  0  0  0
  2  6  1  0  0  0  0
  3 29  1  6  0  0  0
  3  1  1  0  0  0  0
  4  2  1  0  0  0  0
  5  2  2  0  0  0  0
  5  3  1  0  0  0  0
  6  1  1  0  0  0  0
  7  9  1  0  0  0  0
  7 16  1  0  0  0  0
  8  7  1  0  0  0  0
 10 11  1  0  0  0  0
 10  8  1  0  0  0  0
 11  6  1  6  0  0  0
 11 12  1  0  0  0  0
 12  9  1  0  0  0  0
 13 19  1  0  0  0  0
 15 19  2  0  0  0  0
 15 14  1  0  0  0  0
 16 13  2  0  0  0  0
 17 15  1  0  0  0  0
 18 16  1  0  0  0  0
 18 17  2  0  0  0  0
 21 22  1  0  0  0  0
 22 17  1  0  0  0  0
 22 20  2  0  0  0  0
 23 24  1  0  0  0  0
 24  5  1  1  0  0  0
 25 27  1  1  0  0  0
 25 23  1  0  0  0  0
 26 25  1  0  0  0  0
 26 28  1  0  0  0  0
 28 24  1  0  0  0  0
 31 33  2  0  0  0  0
 32 29  1  0  0  0  0
 33 30  1  0  0  0  0
 33 32  1  0  0  0  0
 34 35  1  0  0  0  0
 34 30  2  0  0  0  0
 35 36  3  0  0  0  0
M  END
>  <MODEL>
5

>  <REMARK>
 VINA RESULT:      -7.4      4.362      7.409
  Name = 
  8 active torsions:
  status: ('A' for Active; 'I' for Inactive)
    1  A    between atoms: N_1  and  C_28
    2  A    between atoms: N_10  and  N_20
    3  A    between atoms: C_12  and  C_17
    4  A    between atoms: C_13  and  C_26
    5  A    between atoms: C_18  and  N_20
    6  A    between atoms: N_19  and  C_26
    7  A    between atoms: C_21  and  N_22
    8  A    between atoms: C_27  and  C_29
                            x       y       z     vdW  Elec       q    Type
                         _______ _______ _______ _____ _____    ______ ____

>  <TORSDO>
F 8

$$$$
=
 OpenBabel11032420093D

 36 39  0  0  1  0  0  0  0  0999 V2000
  186.6450  178.4580  138.3230 N   0  0  0  0  0  2  0  0  0  0  0  0
  185.5100  176.5830  137.5290 C   0  0  0  0  0  0  0  0  0  0  0  0
  185.1900  178.6830  138.3850 C   0  0  1  0  0  3  0  0  0  0  0  0
  185.3190  175.2160  136.9580 C   0  0  0  0  0  1  0  0  0  0  0  0
  184.5590  177.4350  137.8500 C   0  0  0  0  0  0  0  0  0  0  0  0
  186.7680  177.1660  137.7890 N   0  0  0  0  0  0  0  0  0  0  0  0
  190.8570  176.4150  137.2650 N   0  0  0  0  0  0  0  0  0  0  0  0
  190.3790  176.3940  138.6530 C   0  0  0  0  0  2  0  0  0  0  0  0
  190.0100  176.9930  136.2180 C   0  0  0  0  0  2  0  0  0  0  0  0
  189.0010  177.0390  138.7820 C   0  0  0  0  0  2  0  0  0  0  0  0
  188.0340  176.4470  137.7520 C   0  0  2  0  0  3  0  0  0  0  0  0
  188.5920  176.4280  136.3180 C   0  0  0  0  0  2  0  0  0  0  0  0
  192.6260  175.9120  135.6160 C   0  0  0  0  0  3  0  0  0  0  0  0
  195.9820  174.4390  135.9550 O   0  0  0  0  0  1  0  0  0  0  0  0
  194.7250  174.9160  136.3080 C   0  0  0  0  0  0  0  0  0  0  0  0
  192.1670  175.9090  136.9410 C   0  0  0  0  0  0  0  0  0  0  0  0
  194.2830  174.9020  137.6500 C   0  0  0  0  0  0  0  0  0  0  0  0
  193.0060  175.4010  137.9450 C   0  0  0  0  0  3  0  0  0  0  0  0
  193.8950  175.4190  135.3040 C   0  0  0  0  0  3  0  0  0  0  0  0
  195.2500  173.1420  138.9430 O   0  0  0  0  0  0  0  0  0  0  0  0
  195.7880  175.2830  139.6340 N   0  0  0  0  0  1  0  0  0  0  0  0
  195.1170  174.3810  138.7570 C   0  0  0  0  0  0  0  0  0  0  0  0
  182.4930  176.4500  138.8530 C   0  0  0  0  0  2  0  0  0  0  0  0
  183.0770  177.2400  137.7010 C   0  0  1  0  0  3  0  0  0  0  0  0
  181.0270  176.8010  138.9090 C   0  0  2  0  0  3  0  0  0  0  0  0
  180.9270  178.3020  138.7460 C   0  0  0  0  0  2  0  0  0  0  0  0
  180.4440  176.3850  140.2430 C   0  0  0  0  0  1  0  0  0  0  0  0
  182.1960  178.8300  137.5550 S   0  0  0  0  0  0  0  0  0  0  0  0
  184.7560  178.9090  139.8300 C   0  0  0  0  0  2  0  0  0  0  0  0
  186.9510  178.1810  142.8770 N   0  0  0  0  0  0  0  0  0  0  0  0
  184.5920  178.1730  142.6080 N   0  0  0  0  0  2  0  0  0  0  0  0
  185.8920  178.7870  140.7340 N   0  0  0  0  0  2  0  0  0  0  0  0
  185.7650  178.3340  142.0840 C   0  0  0  0  0  0  0  0  0  0  0  0
  187.0160  177.5640  144.1400 N   0  0  0  0  0  0  0  0  0  0  0  0
  188.1630  177.5640  144.9500 C   0  0  0  0  0  0  0  0  0  0  0  0
  189.1470  177.5670  145.6480 C   0  0  0  0  0  3  0  0  0  0  0  0
  1  3  1  0  0  0  0
  2  6  1  0  0  0  0
  2  5  2  0  0  0  0
  3 29  1  1  0  0  0
  4  2  1  0  0  0  0
  5  3  1  0  0  0  0
  6  1  1  0  0  0  0
  7  8  1  0  0  0  0
  8 10  1  0  0  0  0
  9 12  1  0  0  0  0
  9  7  1  0  0  0  0
 11 12  1  6  0  0  0
 11  6  1  0  0  0  0
 11 10  1  0  0  0  0
 13 16  1  0  0  0  0
 14 15  1  0  0  0  0
 15 17  2  0  0  0  0
 16  7  1  0  0  0  0
 16 18  2  0  0  0  0
 17 18  1  0  0  0  0
 17 22  1  0  0  0  0
 19 13  2  0  0  0  0
 19 15  1  0  0  0  0
 22 20  2  0  0  0  0
 22 21  1  0  0  0  0
 23 25  1  0  0  0  0
 24  5  1  1  0  0  0
 24 23  1  0  0  0  0
 25 27  1  1  0  0  0
 26 25  1  0  0  0  0
 28 24  1  0  0  0  0
 28 26  1  0  0  0  0
 29 32  1  0  0  0  0
 30 34  2  0  0  0  0
 32 33  1  0  0  0  0
 33 31  2  0  0  0  0
 33 30  1  0  0  0  0
 34 35  1  0  0  0  0
 35 36  3  0  0  0  0
M  END
>  <MODEL>
6

>  <REMARK>
 VINA RESULT:      -7.3      4.431      8.516
  Name = 
  8 active torsions:
  status: ('A' for Active; 'I' for Inactive)
    1  A    between atoms: N_1  and  C_28
    2  A    between atoms: N_10  and  N_20
    3  A    between atoms: C_12  and  C_17
    4  A    between atoms: C_13  and  C_26
    5  A    between atoms: C_18  and  N_20
    6  A    between atoms: N_19  and  C_26
    7  A    between atoms: C_21  and  N_22
    8  A    between atoms: C_27  and  C_29
                            x       y       z     vdW  Elec       q    Type
                         _______ _______ _______ _____ _____    ______ ____

>  <TORSDO>
F 8

$$$$
=
 OpenBabel11032420093D

 36 39  0  0  1  0  0  0  0  0999 V2000
  186.7690  178.4460  142.1210 N   0  0  0  0  0  2  0  0  0  0  0  0
  185.2500  178.3530  143.8870 C   0  0  0  0  0  0  0  0  0  0  0  0
  187.4300  177.9240  143.3300 C   0  0  1  0  0  3  0  0  0  0  0  0
  183.9520  178.5030  144.6100 C   0  0  0  0  0  1  0  0  0  0  0  0
  186.3810  177.9110  144.3980 C   0  0  0  0  0  0  0  0  0  0  0  0
  185.4490  178.6910  142.5320 N   0  0  0  0  0  0  0  0  0  0  0  0
  182.9430  178.4600  139.1820 N   0  0  0  0  0  0  0  0  0  0  0  0
  182.3180  178.1290  140.4690 C   0  0  0  0  0  2  0  0  0  0  0  0
  184.4040  178.5240  139.0850 C   0  0  0  0  0  2  0  0  0  0  0  0
  183.3630  177.8700  141.5510 C   0  0  0  0  0  2  0  0  0  0  0  0
  184.3800  179.0150  141.5980 C   0  0  2  0  0  3  0  0  0  0  0  0
  184.9690  179.3760  140.2220 C   0  0  0  0  0  2  0  0  0  0  0  0
  181.8510  177.6260  137.1290 C   0  0  0  0  0  3  0  0  0  0  0  0
  179.7550  179.2750  134.5940 O   0  0  0  0  0  1  0  0  0  0  0  0
  180.5380  179.1070  135.7290 C   0  0  0  0  0  0  0  0  0  0  0  0
  182.1280  178.6780  138.0140 C   0  0  0  0  0  0  0  0  0  0  0  0
  180.8060  180.1820  136.6060 C   0  0  0  0  0  0  0  0  0  0  0  0
  181.5990  179.9490  137.7390 C   0  0  0  0  0  3  0  0  0  0  0  0
  181.0630  177.8400  135.9970 C   0  0  0  0  0  3  0  0  0  0  0  0
  180.7030  182.2550  135.4240 O   0  0  0  0  0  0  0  0  0  0  0  0
  179.2710  182.0790  137.2330 N   0  0  0  0  0  1  0  0  0  0  0  0
  180.2770  181.5470  136.3750 C   0  0  0  0  0  0  0  0  0  0  0  0
  188.0980  177.2130  146.0750 C   0  0  0  0  0  2  0  0  0  0  0  0
  186.6300  177.4780  145.8150 C   0  0  1  0  0  3  0  0  0  0  0  0
  188.2990  177.3580  147.5620 C   0  0  2  0  0  3  0  0  0  0  0  0
  187.5530  178.6030  147.9890 C   0  0  0  0  0  2  0  0  0  0  0  0
  189.7730  177.5040  147.8760 C   0  0  0  0  0  1  0  0  0  0  0  0
  186.0200  178.7080  147.0150 S   0  0  0  0  0  0  0  0  0  0  0  0
  187.9360  176.5070  143.0790 C   0  0  0  0  0  2  0  0  0  0  0  0
  191.3750  176.9460  141.4630 N   0  0  0  0  0  2  0  0  0  0  0  0
  189.1860  177.1350  140.5630 N   0  0  0  0  0  2  0  0  0  0  0  0
  189.3720  176.5090  142.8330 N   0  0  0  0  0  2  0  0  0  0  0  0
  189.9470  176.9120  141.5870 C   0  0  0  0  0  0  0  0  0  0  0  0
  192.0890  177.5030  140.3850 N   0  0  0  0  0  2  0  0  0  0  0  0
  192.3060  176.8390  139.1670 C   0  0  0  0  0  0  0  0  0  0  0  0
  192.4920  176.2710  138.1200 C   0  0  0  0  0  3  0  0  0  0  0  0
  1  6  1  0  0  0  0
  1  3  1  0  0  0  0
  2  5  2  0  0  0  0
  2  4  1  0  0  0  0
  3 29  1  6  0  0  0
  3  5  1  0  0  0  0
  6  2  1  0  0  0  0
  7  8  1  0  0  0  0
  8 10  1  0  0  0  0
  9  7  1  0  0  0  0
  9 12  1  0  0  0  0
 10 11  1  0  0  0  0
 11 12  1  6  0  0  0
 11  6  1  0  0  0  0
 13 16  1  0  0  0  0
 14 15  1  0  0  0  0
 15 19  1  0  0  0  0
 15 17  2  0  0  0  0
 16  7  1  0  0  0  0
 17 18  1  0  0  0  0
 18 16  2  0  0  0  0
 19 13  2  0  0  0  0
 20 22  2  0  0  0  0
 22 17  1  0  0  0  0
 22 21  1  0  0  0  0
 23 25  1  0  0  0  0
 24  5  1  6  0  0  0
 24 23  1  0  0  0  0
 24 28  1  0  0  0  0
 25 27  1  6  0  0  0
 25 26  1  0  0  0  0
 28 26  1  0  0  0  0
 30 33  1  0  0  0  0
 31 33  2  0  0  0  0
 32 29  1  0  0  0  0
 33 32  1  0  0  0  0
 34 30  1  0  0  0  0
 35 34  1  0  0  0  0
 36 35  3  0  0  0  0
M  END
>  <MODEL>
7

>  <REMARK>
 VINA RESULT:      -7.3      4.757      9.762
  Name = 
  8 active torsions:
  status: ('A' for Active; 'I' for Inactive)
    1  A    between atoms: N_1  and  C_28
    2  A    between atoms: N_10  and  N_20
    3  A    between atoms: C_12  and  C_17
    4  A    between atoms: C_13  and  C_26
    5  A    between atoms: C_18  and  N_20
    6  A    between atoms: N_19  and  C_26
    7  A    between atoms: C_21  and  N_22
    8  A    between atoms: C_27  and  C_29
                            x       y       z     vdW  Elec       q    Type
                         _______ _______ _______ _____ _____    ______ ____

>  <TORSDO>
F 8

$$$$
=
 OpenBabel11032420093D

 36 39  0  0  1  0  0  0  0  0999 V2000
  185.3240  179.1230  138.9530 N   0  0  0  0  0  2  0  0  0  0  0  0
  183.8180  177.8910  137.6690 C   0  0  0  0  0  0  0  0  0  0  0  0
  183.9440  179.3890  139.3970 C   0  0  1  0  0  3  0  0  0  0  0  0
  183.3420  176.9480  136.6130 C   0  0  0  0  0  1  0  0  0  0  0  0
  183.0620  178.5640  138.5120 C   0  0  0  0  0  0  0  0  0  0  0  0
  185.1730  178.2090  137.8990 N   0  0  0  0  0  0  0  0  0  0  0  0
  188.6140  175.8390  137.5740 N   0  0  0  0  0  0  0  0  0  0  0  0
  187.3840  175.2560  137.0230 C   0  0  0  0  0  2  0  0  0  0  0  0
  188.5250  177.0040  138.4590 C   0  0  0  0  0  2  0  0  0  0  0  0
  186.1420  175.9950  137.5130 C   0  0  0  0  0  2  0  0  0  0  0  0
  186.2980  177.5040  137.3000 C   0  0  2  0  0  3  0  0  0  0  0  0
  187.6250  178.0710  137.8350 C   0  0  0  0  0  2  0  0  0  0  0  0
  189.9750  173.9520  136.7460 C   0  0  0  0  0  3  0  0  0  0  0  0
  193.6090  173.4770  136.4160 O   0  0  0  0  0  1  0  0  0  0  0  0
  192.3960  174.0840  136.7140 C   0  0  0  0  0  0  0  0  0  0  0  0
  189.8930  175.2460  137.2820 C   0  0  0  0  0  0  0  0  0  0  0  0
  192.3370  175.3880  137.2550 C   0  0  0  0  0  0  0  0  0  0  0  0
  191.0820  175.9500  137.5300 C   0  0  0  0  0  3  0  0  0  0  0  0
  191.2160  173.3780  136.4650 C   0  0  0  0  0  3  0  0  0  0  0  0
  193.9400  176.3770  138.7220 O   0  0  0  0  0  0  0  0  0  0  0  0
  194.3060  176.7500  136.4690 N   0  0  0  0  0  1  0  0  0  0  0  0
  193.5530  176.1850  137.5400 C   0  0  0  0  0  0  0  0  0  0  0  0
  181.0610  177.6110  139.6660 C   0  0  0  0  0  2  0  0  0  0  0  0
  181.5620  178.5550  138.5940 C   0  0  1  0  0  3  0  0  0  0  0  0
  179.6820  178.0910  140.0440 C   0  0  2  0  0  3  0  0  0  0  0  0
  179.7600  179.5950  140.1800 C   0  0  0  0  0  2  0  0  0  0  0  0
  179.2600  177.4730  141.3610 C   0  0  0  0  0  1  0  0  0  0  0  0
  180.8910  180.2220  138.9000 S   0  0  0  0  0  0  0  0  0  0  0  0
  183.7710  178.9620  140.8510 C   0  0  0  0  0  2  0  0  0  0  0  0
  186.5080  177.9160  143.3100 N   0  0  0  0  0  2  0  0  0  0  0  0
  184.1850  178.2930  143.6200 N   0  0  0  0  0  2  0  0  0  0  0  0
  185.0620  178.6650  141.4590 N   0  0  0  0  0  2  0  0  0  0  0  0
  185.2020  178.2540  142.8210 C   0  0  0  0  0  0  0  0  0  0  0  0
  186.7860  177.3100  144.5500 N   0  0  0  0  0  2  0  0  0  0  0  0
  188.0080  177.4450  145.2270 C   0  0  0  0  0  0  0  0  0  0  0  0
  189.0570  177.5620  145.8100 C   0  0  0  0  0  3  0  0  0  0  0  0
  1  3  1  0  0  0  0
  2  6  1  0  0  0  0
  2  5  2  0  0  0  0
  3 29  1  1  0  0  0
  4  2  1  0  0  0  0
  5  3  1  0  0  0  0
  6  1  1  0  0  0  0
  7  9  1  0  0  0  0
  8 10  1  0  0  0  0
  8  7  1  0  0  0  0
 11 10  1  1  0  0  0
 11 12  1  0  0  0  0
 11  6  1  0  0  0  0
 12  9  1  0  0  0  0
 13 16  1  0  0  0  0
 14 15  1  0  0  0  0
 15 17  2  0  0  0  0
 16 18  2  0  0  0  0
 16  7  1  0  0  0  0
 17 18  1  0  0  0  0
 17 22  1  0  0  0  0
 19 15  1  0  0  0  0
 19 13  2  0  0  0  0
 21 22  1  0  0  0  0
 22 20  2  0  0  0  0
 23 25  1  0  0  0  0
 24  5  1  1  0  0  0
 24 28  1  0  0  0  0
 24 23  1  0  0  0  0
 25 26  1  0  0  0  0
 25 27  1  1  0  0  0
 28 26  1  0  0  0  0
 29 32  1  0  0  0  0
 30 34  1  0  0  0  0
 32 33  1  0  0  0  0
 33 30  1  0  0  0  0
 33 31  2  0  0  0  0
 34 35  1  0  0  0  0
 35 36  3  0  0  0  0
M  END
>  <MODEL>
8

>  <REMARK>
 VINA RESULT:      -7.1      4.311      8.794
  Name = 
  8 active torsions:
  status: ('A' for Active; 'I' for Inactive)
    1  A    between atoms: N_1  and  C_28
    2  A    between atoms: N_10  and  N_20
    3  A    between atoms: C_12  and  C_17
    4  A    between atoms: C_13  and  C_26
    5  A    between atoms: C_18  and  N_20
    6  A    between atoms: N_19  and  C_26
    7  A    between atoms: C_21  and  N_22
    8  A    between atoms: C_27  and  C_29
                            x       y       z     vdW  Elec       q    Type
                         _______ _______ _______ _____ _____    ______ ____

>  <TORSDO>
F 8

$$$$
=
 OpenBabel11032420093D

 36 39  0  0  1  0  0  0  0  0999 V2000
  181.8560  177.5390  139.5070 N   0  0  0  0  0  2  0  0  0  0  0  0
  180.7180  179.3180  140.4940 C   0  0  0  0  0  0  0  0  0  0  0  0
  181.1160  178.2960  138.4830 C   0  0  1  0  0  3  0  0  0  0  0  0
  180.2330  180.2260  141.5770 C   0  0  0  0  0  1  0  0  0  0  0  0
  180.4190  179.4020  139.2130 C   0  0  0  0  0  0  0  0  0  0  0  0
  181.5650  178.2110  140.7050 N   0  0  0  0  0  0  0  0  0  0  0  0
  184.2580  178.6210  143.8900 N   0  0  0  0  0  0  0  0  0  0  0  0
  182.8450  178.8550  144.2160 C   0  0  0  0  0  2  0  0  0  0  0  0
  184.6780  178.5880  142.4860 C   0  0  0  0  0  2  0  0  0  0  0  0
  182.0040  179.0590  142.9580 C   0  0  0  0  0  2  0  0  0  0  0  0
  182.2610  177.9310  141.9540 C   0  0  2  0  0  3  0  0  0  0  0  0
  183.7540  177.6730  141.6820 C   0  0  0  0  0  2  0  0  0  0  0  0
  184.8590  178.6280  146.2850 C   0  0  0  0  0  3  0  0  0  0  0  0
  188.0360  178.0290  148.0430 O   0  0  0  0  0  1  0  0  0  0  0  0
  187.1310  178.1710  146.9990 C   0  0  0  0  0  0  0  0  0  0  0  0
  185.2290  178.4670  144.9420 C   0  0  0  0  0  0  0  0  0  0  0  0
  187.5260  178.0060  145.6530 C   0  0  0  0  0  0  0  0  0  0  0  0
  186.5650  178.1570  144.6430 C   0  0  0  0  0  3  0  0  0  0  0  0
  185.8030  178.4800  147.3040 C   0  0  0  0  0  3  0  0  0  0  0  0
  189.5680  176.7880  145.8790 O   0  0  0  0  0  0  0  0  0  0  0  0
  189.5460  178.3680  144.1900 N   0  0  0  0  0  1  0  0  0  0  0  0
  188.9190  177.6770  145.2680 C   0  0  0  0  0  0  0  0  0  0  0  0
  180.1940  181.7510  138.3910 C   0  0  0  0  0  2  0  0  0  0  0  0
  179.5170  180.4070  138.5550 C   0  0  1  0  0  3  0  0  0  0  0  0
  179.4760  182.4540  137.2670 C   0  0  2  0  0  3  0  0  0  0  0  0
  179.2830  181.4390  136.1630 C   0  0  0  0  0  2  0  0  0  0  0  0
  180.3080  183.6150  136.7640 C   0  0  0  0  0  1  0  0  0  0  0  0
  178.9310  179.8270  136.9290 S   0  0  0  0  0  0  0  0  0  0  0  0
  182.0850  178.8780  137.4590 C   0  0  0  0  0  2  0  0  0  0  0  0
  185.6740  178.2650  138.6330 N   0  0  0  0  0  0  0  0  0  0  0  0
  184.2120  180.1060  138.9600 N   0  0  0  0  0  2  0  0  0  0  0  0
  183.4190  178.3180  137.6370 N   0  0  0  0  0  2  0  0  0  0  0  0
  184.4130  178.9280  138.4650 C   0  0  0  0  0  0  0  0  0  0  0  0
  186.6710  178.6270  139.5590 N   0  0  0  0  0  0  0  0  0  0  0  0
  187.9360  178.0200  139.6200 C   0  0  0  0  0  0  0  0  0  0  0  0
  189.0230  177.5010  139.6750 C   0  0  0  0  0  3  0  0  0  0  0  0
  1  6  1  0  0  0  0
  2  6  1  0  0  0  0
  2  4  1  0  0  0  0
  3 29  1  6  0  0  0
  3  5  1  0  0  0  0
  3  1  1  0  0  0  0
  5  2  2  0  0  0  0
  7  8  1  0  0  0  0
  7 16  1  0  0  0  0
  9  7  1  0  0  0  0
 10  8  1  0  0  0  0
 11  6  1  6  0  0  0
 11 10  1  0  0  0  0
 12 11  1  0  0  0  0
 12  9  1  0  0  0  0
 13 19  1  0  0  0  0
 15 19  2  0  0  0  0
 15 14  1  0  0  0  0
 16 13  2  0  0  0  0
 17 15  1  0  0  0  0
 18 16  1  0  0  0  0
 18 17  2  0  0  0  0
 21 22  1  0  0  0  0
 22 17  1  0  0  0  0
 22 20  2  0  0  0  0
 23 24  1  0  0  0  0
 24  5  1  6  0  0  0
 25 27  1  6  0  0  0
 25 23  1  0  0  0  0
 26 28  1  0  0  0  0
 26 25  1  0  0  0  0
 28 24  1  0  0  0  0
 29 32  1  0  0  0  0
 30 34  2  0  0  0  0
 32 33  1  0  0  0  0
 33 30  1  0  0  0  0
 33 31  2  0  0  0  0
 34 35  1  0  0  0  0
 35 36  3  0  0  0  0
M  END
>  <MODEL>
9

>  <REMARK>
 VINA RESULT:      -7.1      3.743      7.541
  Name = 
  8 active torsions:
  status: ('A' for Active; 'I' for Inactive)
    1  A    between atoms: N_1  and  C_28
    2  A    between atoms: N_10  and  N_20
    3  A    between atoms: C_12  and  C_17
    4  A    between atoms: C_13  and  C_26
    5  A    between atoms: C_18  and  N_20
    6  A    between atoms: N_19  and  C_26
    7  A    between atoms: C_21  and  N_22
    8  A    between atoms: C_27  and  C_29
                            x       y       z     vdW  Elec       q    Type
                         _______ _______ _______ _____ _____    ______ ____

>  <TORSDO>
F 8

$$$$
