=
 OpenBabel11042410503D

 31 35  0  0  1  0  0  0  0  0999 V2000
  184.8700  179.7490  140.1350 O   0  0  0  0  0  0  0  0  0  0  0  0
  184.2120  178.8020  140.6480 C   0  0  0  0  0  0  0  0  0  0  0  0
  184.6310  178.2400  141.8980 N   0  0  0  0  0  2  0  0  0  0  0  0
  187.6710  177.2890  146.9740 N   0  0  0  0  0  0  0  0  0  0  0  0
  187.0090  177.8090  142.0160 C   0  0  0  0  0  2  0  0  0  0  0  0
  189.0700  177.1730  145.0400 C   0  0  0  0  0  3  0  0  0  0  0  0
  185.4870  178.1530  146.8540 N   0  0  0  0  0  0  0  0  0  0  0  0
  186.7960  177.9910  144.8510 C   0  0  0  0  0  0  0  0  0  0  0  0
  188.2850  178.0000  142.8210 C   0  0  0  0  0  2  0  0  0  0  0  0
  184.5490  178.9040  144.7830 C   0  0  0  0  0  0  0  0  0  0  0  0
  185.7120  178.4890  144.0910 C   0  0  0  0  0  0  0  0  0  0  0  0
  183.4120  179.5900  144.1060 C   0  0  0  0  0  1  0  0  0  0  0  0
  188.8640  176.9690  146.4050 C   0  0  0  0  0  3  0  0  0  0  0  0
  188.0320  177.6810  144.2580 C   0  0  0  0  0  0  0  0  0  0  0  0
  186.6460  177.8010  146.2420 C   0  0  0  0  0  0  0  0  0  0  0  0
  184.4580  178.7060  146.1630 C   0  0  0  0  0  3  0  0  0  0  0  0
  185.8540  178.6480  142.5790 C   0  0  2  0  0  3  0  0  0  0  0  0
  183.0330  178.2000  139.9120 C   0  0  1  0  0  0  0  0  0  0  0  0
  182.6650  179.0700  138.7020 C   0  0  0  0  0  1  0  0  0  0  0  0
  183.4390  176.8030  139.4000 C   0  0  1  0  0  3  0  0  0  0  0  0
  182.3730  175.8830  139.5160 O   0  0  0  0  0  0  0  0  0  0  0  0
  182.2670  175.2060  138.2850 C   0  0  0  0  0  2  0  0  0  0  0  0
  183.9320  176.8210  137.9660 C   0  0  0  0  0  2  0  0  0  0  0  0
  183.4790  175.5030  137.4420 C   0  0  0  0  0  2  0  0  0  0  0  0
  181.8730  178.0580  140.8080 N   0  0  0  0  0  2  0  0  0  0  0  0
  181.0760  179.2870  140.8580 C   0  0  0  0  0  2  0  0  0  0  0  0
  179.6290  180.3500  142.6250 C   0  0  0  0  0  2  0  0  0  0  0  0
  179.1050  179.8200  143.9390 C   0  0  0  0  0  2  0  0  0  0  0  0
  179.8640  179.1200  141.7680 C   0  0  0  0  0  3  0  0  0  0  0  0
  180.0290  177.9400  142.7120 C   0  0  0  0  0  2  0  0  0  0  0  0
  179.7440  178.4580  144.1100 C   0  0  0  0  0  2  0  0  0  0  0  0
  1  2  2  0  0  0  0
  2  3  1  0  0  0  0
  5 17  1  0  0  0  0
  5  9  1  0  0  0  0
  6 13  2  0  0  0  0
  8 15  1  0  0  0  0
  9 14  1  0  0  0  0
 10 16  1  0  0  0  0
 11 10  2  0  0  0  0
 11  8  1  0  0  0  0
 12 10  1  0  0  0  0
 13  4  1  0  0  0  0
 14  8  2  0  0  0  0
 14  6  1  0  0  0  0
 15  7  1  0  0  0  0
 15  4  2  0  0  0  0
 16  7  2  0  0  0  0
 17  3  1  6  0  0  0
 17 11  1  0  0  0  0
 18 19  1  6  0  0  0
 18  2  1  0  0  0  0
 18 25  1  0  0  0  0
 20 21  1  0  0  0  0
 20 18  1  6  0  0  0
 22 21  1  0  0  0  0
 23 20  1  0  0  0  0
 24 23  1  0  0  0  0
 24 22  1  0  0  0  0
 25 26  1  0  0  0  0
 26 29  1  0  0  0  0
 27 28  1  0  0  0  0
 28 31  1  0  0  0  0
 29 27  1  0  0  0  0
 29 30  1  0  0  0  0
 30 31  1  0  0  0  0
M  END
>  <MODEL>
1

>  <REMARK>
 VINA RESULT:      -8.3      0.000      0.000
  Name = 
  6 active torsions:
  status: ('A' for Active; 'I' for Inactive)
    1  A    between atoms: C_1  and  C_10
    2  A    between atoms: C_1  and  N_20
    3  A    between atoms: C_1  and  C_27
    4  A    between atoms: C_13  and  N_20
    5  A    between atoms: C_13  and  C_22
    6  A    between atoms: C_26  and  N_28
                            x       y       z     vdW  Elec       q    Type
                         _______ _______ _______ _____ _____    ______ ____

>  <TORSDO>
F 6

$$$$
=
 OpenBabel11042410503D

 31 35  0  0  1  0  0  0  0  0999 V2000
  189.7050  175.7490  143.2100 O   0  0  0  0  0  0  0  0  0  0  0  0
  189.9040  176.9570  143.5180 C   0  0  0  0  0  0  0  0  0  0  0  0
  188.7870  177.8180  143.7740 N   0  0  0  0  0  2  0  0  0  0  0  0
  183.2190  179.3460  145.3770 N   0  0  0  0  0  0  0  0  0  0  0  0
  186.9030  177.9330  142.2610 C   0  0  0  0  0  2  0  0  0  0  0  0
  183.3970  178.8760  143.0410 C   0  0  0  0  0  3  0  0  0  0  0  0
  184.9440  178.7840  146.8730 N   0  0  0  0  0  0  0  0  0  0  0  0
  185.2370  178.3580  144.5320 C   0  0  0  0  0  0  0  0  0  0  0  0
  185.4050  177.7340  142.0970 C   0  0  0  0  0  2  0  0  0  0  0  0
  186.9750  177.7670  146.1170 C   0  0  0  0  0  0  0  0  0  0  0  0
  186.5420  177.8700  144.7730 C   0  0  0  0  0  0  0  0  0  0  0  0
  188.2640  177.1210  146.4990 C   0  0  0  0  0  1  0  0  0  0  0  0
  182.6800  179.3770  144.1290 C   0  0  0  0  0  3  0  0  0  0  0  0
  184.6820  178.3680  143.2400 C   0  0  0  0  0  0  0  0  0  0  0  0
  184.4610  178.8420  145.6060 C   0  0  0  0  0  0  0  0  0  0  0  0
  186.1620  178.2490  147.1450 C   0  0  0  0  0  3  0  0  0  0  0  0
  187.4030  177.3910  143.6060 C   0  0  2  0  0  3  0  0  0  0  0  0
  191.3090  177.5230  143.5360 C   0  0  1  0  0  0  0  0  0  0  0  0
  191.2600  179.0540  143.6210 C   0  0  0  0  0  1  0  0  0  0  0  0
  192.0330  176.9890  144.7880 C   0  0  1  0  0  3  0  0  0  0  0  0
  191.6110  177.6660  145.9540 O   0  0  0  0  0  0  0  0  0  0  0  0
  191.3240  176.6880  146.9260 C   0  0  0  0  0  2  0  0  0  0  0  0
  191.8510  175.4960  144.9810 C   0  0  0  0  0  2  0  0  0  0  0  0
  191.8420  175.3510  146.4630 C   0  0  0  0  0  2  0  0  0  0  0  0
  192.0580  177.1040  142.3400 N   0  0  0  0  0  2  0  0  0  0  0  0
  191.6470  177.8590  141.1520 C   0  0  0  0  0  2  0  0  0  0  0  0
  191.7270  176.7390  138.8980 C   0  0  0  0  0  2  0  0  0  0  0  0
  190.7120  176.6670  137.7810 C   0  0  0  0  0  2  0  0  0  0  0  0
  190.9140  176.9650  140.1590 C   0  0  0  0  0  3  0  0  0  0  0  0
  189.5860  177.5720  139.7330 C   0  0  0  0  0  2  0  0  0  0  0  0
  189.5690  177.5610  138.2140 C   0  0  0  0  0  2  0  0  0  0  0  0
  1  2  2  0  0  0  0
  2 18  1  0  0  0  0
  2  3  1  0  0  0  0
  4 15  2  0  0  0  0
  5 17  1  0  0  0  0
  6 14  1  0  0  0  0
  6 13  2  0  0  0  0
  7 16  2  0  0  0  0
  8 11  1  0  0  0  0
  8 15  1  0  0  0  0
  9  5  1  0  0  0  0
  9 14  1  0  0  0  0
 10 12  1  0  0  0  0
 10 16  1  0  0  0  0
 11 10  2  0  0  0  0
 13  4  1  0  0  0  0
 14  8  2  0  0  0  0
 15  7  1  0  0  0  0
 17  3  1  1  0  0  0
 17 11  1  0  0  0  0
 18 19  1  1  0  0  0
 20 18  1  6  0  0  0
 20 23  1  0  0  0  0
 20 21  1  0  0  0  0
 21 22  1  0  0  0  0
 23 24  1  0  0  0  0
 24 22  1  0  0  0  0
 25 18  1  0  0  0  0
 26 25  1  0  0  0  0
 27 29  1  0  0  0  0
 28 31  1  0  0  0  0
 28 27  1  0  0  0  0
 29 26  1  0  0  0  0
 30 29  1  0  0  0  0
 31 30  1  0  0  0  0
M  END
>  <MODEL>
2

>  <REMARK>
 VINA RESULT:      -8.2      3.524      8.212
  Name = 
  6 active torsions:
  status: ('A' for Active; 'I' for Inactive)
    1  A    between atoms: C_1  and  C_10
    2  A    between atoms: C_1  and  N_20
    3  A    between atoms: C_1  and  C_27
    4  A    between atoms: C_13  and  N_20
    5  A    between atoms: C_13  and  C_22
    6  A    between atoms: C_26  and  N_28
                            x       y       z     vdW  Elec       q    Type
                         _______ _______ _______ _____ _____    ______ ____

>  <TORSDO>
F 6

$$$$
=
 OpenBabel11042410503D

 31 35  0  0  1  0  0  0  0  0999 V2000
  184.9290  179.7570  140.0510 O   0  0  0  0  0  0  0  0  0  0  0  0
  184.2840  178.7820  140.5280 C   0  0  0  0  0  0  0  0  0  0  0  0
  184.6810  178.2110  141.7810 N   0  0  0  0  0  2  0  0  0  0  0  0
  187.5460  177.3260  146.9700 N   0  0  0  0  0  0  0  0  0  0  0  0
  187.0600  177.8240  141.9900 C   0  0  0  0  0  2  0  0  0  0  0  0
  189.0180  177.2320  145.0900 C   0  0  0  0  0  3  0  0  0  0  0  0
  185.3530  178.1500  146.7660 N   0  0  0  0  0  0  0  0  0  0  0  0
  186.7380  178.0080  144.8140 C   0  0  0  0  0  0  0  0  0  0  0  0
  188.3020  178.0400  142.8410 C   0  0  0  0  0  2  0  0  0  0  0  0
  184.4800  178.8800  144.6600 C   0  0  0  0  0  0  0  0  0  0  0  0
  185.6750  178.4850  144.0130 C   0  0  0  0  0  0  0  0  0  0  0  0
  183.3560  179.5440  143.9380 C   0  0  0  0  0  1  0  0  0  0  0  0
  188.7650  177.0270  146.4470 C   0  0  0  0  0  3  0  0  0  0  0  0
  188.0010  177.7190  144.2680 C   0  0  0  0  0  0  0  0  0  0  0  0
  186.5400  177.8180  146.1980 C   0  0  0  0  0  0  0  0  0  0  0  0
  184.3400  178.6840  146.0360 C   0  0  0  0  0  3  0  0  0  0  0  0
  185.8710  178.6430  142.5060 C   0  0  2  0  0  3  0  0  0  0  0  0
  183.1460  178.1590  139.7460 C   0  0  1  0  0  0  0  0  0  0  0  0
  182.8770  176.7350  140.2500 C   0  0  0  0  0  1  0  0  0  0  0  0
  181.8760  179.0040  139.9770 C   0  0  1  0  0  3  0  0  0  0  0  0
  181.0400  178.9970  138.8380 O   0  0  0  0  0  0  0  0  0  0  0  0
  179.7320  178.7230  139.2800 C   0  0  0  0  0  2  0  0  0  0  0  0
  181.0800  178.5520  141.1860 C   0  0  0  0  0  2  0  0  0  0  0  0
  179.6740  178.8300  140.7810 C   0  0  0  0  0  2  0  0  0  0  0  0
  183.4480  178.1410  138.3050 N   0  0  0  0  0  2  0  0  0  0  0  0
  183.7980  176.7950  137.8440 C   0  0  0  0  0  2  0  0  0  0  0  0
  185.6940  175.4480  136.8750 C   0  0  0  0  0  2  0  0  0  0  0  0
  187.1800  175.7130  136.8180 C   0  0  0  0  0  2  0  0  0  0  0  0
  185.0510  176.8190  136.9760 C   0  0  0  0  0  3  0  0  0  0  0  0
  186.1010  177.7670  137.5340 C   0  0  0  0  0  2  0  0  0  0  0  0
  187.3970  176.9800  137.6180 C   0  0  0  0  0  2  0  0  0  0  0  0
  1  2  2  0  0  0  0
  2  3  1  0  0  0  0
  5 17  1  0  0  0  0
  5  9  1  0  0  0  0
  6 13  2  0  0  0  0
  8 15  1  0  0  0  0
  9 14  1  0  0  0  0
 10 16  1  0  0  0  0
 11 10  2  0  0  0  0
 11  8  1  0  0  0  0
 12 10  1  0  0  0  0
 13  4  1  0  0  0  0
 14  8  2  0  0  0  0
 14  6  1  0  0  0  0
 15  7  1  0  0  0  0
 15  4  2  0  0  0  0
 16  7  2  0  0  0  0
 17  3  1  6  0  0  0
 17 11  1  0  0  0  0
 18 19  1  1  0  0  0
 18  2  1  0  0  0  0
 20 18  1  6  0  0  0
 20 23  1  0  0  0  0
 21 22  1  0  0  0  0
 21 20  1  0  0  0  0
 22 24  1  0  0  0  0
 24 23  1  0  0  0  0
 25 18  1  0  0  0  0
 26 25  1  0  0  0  0
 27 29  1  0  0  0  0
 28 27  1  0  0  0  0
 28 31  1  0  0  0  0
 29 30  1  0  0  0  0
 29 26  1  0  0  0  0
 30 31  1  0  0  0  0
M  END
>  <MODEL>
3

>  <REMARK>
 VINA RESULT:      -7.9      1.485      4.346
  Name = 
  6 active torsions:
  status: ('A' for Active; 'I' for Inactive)
    1  A    between atoms: C_1  and  C_10
    2  A    between atoms: C_1  and  N_20
    3  A    between atoms: C_1  and  C_27
    4  A    between atoms: C_13  and  N_20
    5  A    between atoms: C_13  and  C_22
    6  A    between atoms: C_26  and  N_28
                            x       y       z     vdW  Elec       q    Type
                         _______ _______ _______ _____ _____    ______ ____

>  <TORSDO>
F 6

$$$$
=
 OpenBabel11042410503D

 31 35  0  0  1  0  0  0  0  0999 V2000
  184.8180  179.7530  140.1660 O   0  0  0  0  0  0  0  0  0  0  0  0
  184.1640  178.8130  140.6970 C   0  0  0  0  0  0  0  0  0  0  0  0
  184.6040  178.2530  141.9400 N   0  0  0  0  0  2  0  0  0  0  0  0
  187.7960  177.2150  146.9050 N   0  0  0  0  0  0  0  0  0  0  0  0
  186.9870  177.8370  141.9810 C   0  0  0  0  0  2  0  0  0  0  0  0
  189.1390  177.1510  144.9300 C   0  0  0  0  0  3  0  0  0  0  0  0
  185.6040  178.0660  146.8670 N   0  0  0  0  0  0  0  0  0  0  0  0
  186.8550  177.9560  144.8250 C   0  0  0  0  0  0  0  0  0  0  0  0
  188.2850  178.0200  142.7520 C   0  0  0  0  0  2  0  0  0  0  0  0
  184.6020  178.8560  144.8410 C   0  0  0  0  0  0  0  0  0  0  0  0
  185.7460  178.4640  144.1070 C   0  0  0  0  0  0  0  0  0  0  0  0
  183.4410  179.5480  144.2110 C   0  0  0  0  0  1  0  0  0  0  0  0
  188.9740  176.9160  146.2960 C   0  0  0  0  0  3  0  0  0  0  0  0
  188.0750  177.6680  144.1890 C   0  0  0  0  0  0  0  0  0  0  0  0
  186.7470  177.7360  146.2140 C   0  0  0  0  0  0  0  0  0  0  0  0
  184.5520  178.6280  146.2180 C   0  0  0  0  0  3  0  0  0  0  0  0
  185.8440  178.6560  142.5950 C   0  0  2  0  0  3  0  0  0  0  0  0
  182.9650  178.2170  139.9880 C   0  0  1  0  0  0  0  0  0  0  0  0
  183.0780  176.6870  139.9560 C   0  0  0  0  0  1  0  0  0  0  0  0
  181.6940  178.5950  140.7760 C   0  0  1  0  0  3  0  0  0  0  0  0
  181.1270  179.7940  140.2930 O   0  0  0  0  0  0  0  0  0  0  0  0
  179.7480  179.5670  140.1210 C   0  0  0  0  0  2  0  0  0  0  0  0
  180.6440  177.5010  140.7590 C   0  0  0  0  0  2  0  0  0  0  0  0
  179.3670  178.2660  140.7770 C   0  0  0  0  0  2  0  0  0  0  0  0
  182.8480  178.7480  138.6190 N   0  0  0  0  0  2  0  0  0  0  0  0
  182.9860  177.6880  137.6160 C   0  0  0  0  0  2  0  0  0  0  0  0
  181.0530  178.9880  136.6590 C   0  0  0  0  0  2  0  0  0  0  0  0
  179.5950  178.6320  136.4900 C   0  0  0  0  0  2  0  0  0  0  0  0
  181.7860  177.6600  136.6760 C   0  0  0  0  0  3  0  0  0  0  0  0
  180.7780  176.5970  137.0840 C   0  0  0  0  0  2  0  0  0  0  0  0
  179.4270  177.2850  137.1610 C   0  0  0  0  0  2  0  0  0  0  0  0
  1  2  2  0  0  0  0
  2  3  1  0  0  0  0
  5 17  1  0  0  0  0
  5  9  1  0  0  0  0
  6 13  2  0  0  0  0
  8 15  1  0  0  0  0
  9 14  1  0  0  0  0
 10 16  1  0  0  0  0
 11  8  1  0  0  0  0
 11 10  2  0  0  0  0
 12 10  1  0  0  0  0
 13  4  1  0  0  0  0
 14  8  2  0  0  0  0
 14  6  1  0  0  0  0
 15  7  1  0  0  0  0
 15  4  2  0  0  0  0
 16  7  2  0  0  0  0
 17  3  1  6  0  0  0
 17 11  1  0  0  0  0
 18 19  1  6  0  0  0
 18  2  1  0  0  0  0
 20 18  1  6  0  0  0
 21 20  1  0  0  0  0
 22 21  1  0  0  0  0
 22 24  1  0  0  0  0
 23 20  1  0  0  0  0
 23 24  1  0  0  0  0
 25 18  1  0  0  0  0
 26 25  1  0  0  0  0
 27 29  1  0  0  0  0
 28 27  1  0  0  0  0
 28 31  1  0  0  0  0
 29 30  1  0  0  0  0
 29 26  1  0  0  0  0
 30 31  1  0  0  0  0
M  END
>  <MODEL>
4

>  <REMARK>
 VINA RESULT:      -7.7      1.593      3.369
  Name = 
  6 active torsions:
  status: ('A' for Active; 'I' for Inactive)
    1  A    between atoms: C_1  and  C_10
    2  A    between atoms: C_1  and  N_20
    3  A    between atoms: C_1  and  C_27
    4  A    between atoms: C_13  and  N_20
    5  A    between atoms: C_13  and  C_22
    6  A    between atoms: C_26  and  N_28
                            x       y       z     vdW  Elec       q    Type
                         _______ _______ _______ _____ _____    ______ ____

>  <TORSDO>
F 6

$$$$
=
 OpenBabel11042410503D

 31 35  0  0  1  0  0  0  0  0999 V2000
  188.4540  179.3690  141.9480 O   0  0  0  0  0  0  0  0  0  0  0  0
  188.8300  178.1720  142.0810 C   0  0  0  0  0  0  0  0  0  0  0  0
  189.2910  177.4400  140.9380 N   0  0  0  0  0  2  0  0  0  0  0  0
  190.5690  175.9230  135.2830 N   0  0  0  0  0  0  0  0  0  0  0  0
  187.8350  177.8330  139.0470 C   0  0  0  0  0  2  0  0  0  0  0  0
  188.4220  176.9540  135.4860 C   0  0  0  0  0  3  0  0  0  0  0  0
  192.1230  175.9770  137.0460 N   0  0  0  0  0  0  0  0  0  0  0  0
  189.9590  176.9590  137.3610 C   0  0  0  0  0  0  0  0  0  0  0  0
  187.7570  178.1640  137.5640 C   0  0  0  0  0  2  0  0  0  0  0  0
  191.6070  177.0170  139.1400 C   0  0  0  0  0  0  0  0  0  0  0  0
  190.2900  177.2850  138.6980 C   0  0  0  0  0  0  0  0  0  0  0  0
  192.1140  177.4610  140.4710 C   0  0  0  0  0  1  0  0  0  0  0  0
  189.3630  176.2420  134.7400 C   0  0  0  0  0  3  0  0  0  0  0  0
  188.7180  177.3100  136.8030 C   0  0  0  0  0  0  0  0  0  0  0  0
  190.8920  176.2710  136.5570 C   0  0  0  0  0  0  0  0  0  0  0  0
  192.4970  176.3450  138.2990 C   0  0  0  0  0  3  0  0  0  0  0  0
  189.2630  177.9850  139.5850 C   0  0  2  0  0  3  0  0  0  0  0  0
  188.7180  177.4770  143.4220 C   0  0  1  0  0  0  0  0  0  0  0  0
  188.4520  175.9790  143.2200 C   0  0  0  0  0  1  0  0  0  0  0  0
  190.0590  177.6360  144.1670 C   0  0  1  0  0  3  0  0  0  0  0  0
  189.8570  177.9080  145.5380 O   0  0  0  0  0  0  0  0  0  0  0  0
  190.6970  177.0440  146.2660 C   0  0  0  0  0  2  0  0  0  0  0  0
  190.9590  176.4230  144.0240 C   0  0  0  0  0  2  0  0  0  0  0  0
  191.6750  176.3850  145.3290 C   0  0  0  0  0  2  0  0  0  0  0  0
  187.6500  178.0790  144.2370 N   0  0  0  0  0  2  0  0  0  0  0  0
  186.3320  177.5440  143.8800 C   0  0  0  0  0  2  0  0  0  0  0  0
  184.1920  178.6730  144.5790 C   0  0  0  0  0  2  0  0  0  0  0  0
  182.9880  179.1140  143.7800 C   0  0  0  0  0  2  0  0  0  0  0  0
  185.3430  178.6660  143.5900 C   0  0  0  0  0  3  0  0  0  0  0  0
  184.7390  178.5360  142.2000 C   0  0  0  0  0  2  0  0  0  0  0  0
  183.2320  178.6160  142.3710 C   0  0  0  0  0  2  0  0  0  0  0  0
  1  2  2  0  0  0  0
  2 18  1  0  0  0  0
  3  2  1  0  0  0  0
  4 15  2  0  0  0  0
  5 17  1  0  0  0  0
  6 14  1  0  0  0  0
  7 16  2  0  0  0  0
  8 11  1  0  0  0  0
  9  5  1  0  0  0  0
 10 12  1  0  0  0  0
 11 10  2  0  0  0  0
 11 17  1  0  0  0  0
 13  4  1  0  0  0  0
 13  6  2  0  0  0  0
 14  8  2  0  0  0  0
 14  9  1  0  0  0  0
 15  7  1  0  0  0  0
 15  8  1  0  0  0  0
 16 10  1  0  0  0  0
 17  3  1  1  0  0  0
 18 19  1  6  0  0  0
 18 25  1  0  0  0  0
 20 18  1  6  0  0  0
 20 21  1  0  0  0  0
 21 22  1  0  0  0  0
 23 20  1  0  0  0  0
 23 24  1  0  0  0  0
 24 22  1  0  0  0  0
 26 25  1  0  0  0  0
 28 27  1  0  0  0  0
 29 26  1  0  0  0  0
 29 27  1  0  0  0  0
 30 31  1  0  0  0  0
 30 29  1  0  0  0  0
 31 28  1  0  0  0  0
M  END
>  <MODEL>
5

>  <REMARK>
 VINA RESULT:      -7.7      4.476      8.168
  Name = 
  6 active torsions:
  status: ('A' for Active; 'I' for Inactive)
    1  A    between atoms: C_1  and  C_10
    2  A    between atoms: C_1  and  N_20
    3  A    between atoms: C_1  and  C_27
    4  A    between atoms: C_13  and  N_20
    5  A    between atoms: C_13  and  C_22
    6  A    between atoms: C_26  and  N_28
                            x       y       z     vdW  Elec       q    Type
                         _______ _______ _______ _____ _____    ______ ____

>  <TORSDO>
F 6

$$$$
=
 OpenBabel11042410503D

 31 35  0  0  1  0  0  0  0  0999 V2000
  189.0560  179.3450  138.8770 O   0  0  0  0  0  0  0  0  0  0  0  0
  188.5570  178.1880  138.9400 C   0  0  0  0  0  0  0  0  0  0  0  0
  188.2580  177.6090  140.2160 N   0  0  0  0  0  2  0  0  0  0  0  0
  186.8070  177.5100  146.0300 N   0  0  0  0  0  0  0  0  0  0  0  0
  189.8560  177.5960  142.0320 C   0  0  0  0  0  2  0  0  0  0  0  0
  189.1710  177.5100  145.6820 C   0  0  0  0  0  3  0  0  0  0  0  0
  185.3120  177.9830  144.2770 N   0  0  0  0  0  0  0  0  0  0  0  0
  187.6660  177.9180  143.8260 C   0  0  0  0  0  0  0  0  0  0  0  0
  190.1530  178.0510  143.4530 C   0  0  0  0  0  2  0  0  0  0  0  0
  186.0880  178.4320  142.0570 C   0  0  0  0  0  0  0  0  0  0  0  0
  187.4210  178.1770  142.4560 C   0  0  0  0  0  0  0  0  0  0  0  0
  185.7320  178.8720  140.6770 C   0  0  0  0  0  1  0  0  0  0  0  0
  188.0660  177.3620  146.5220 C   0  0  0  0  0  3  0  0  0  0  0  0
  188.9720  177.7850  144.3280 C   0  0  0  0  0  0  0  0  0  0  0  0
  186.5810  177.7940  144.7190 C   0  0  0  0  0  0  0  0  0  0  0  0
  185.0510  178.3100  142.9850 C   0  0  0  0  0  3  0  0  0  0  0  0
  188.5900  178.2620  141.4780 C   0  0  2  0  0  3  0  0  0  0  0  0
  188.3500  177.3730  137.6790 C   0  0  1  0  0  0  0  0  0  0  0  0
  187.8870  178.2810  136.5330 C   0  0  0  0  0  1  0  0  0  0  0  0
  189.6990  176.7380  137.2830 C   0  0  1  0  0  3  0  0  0  0  0  0
  189.9740  175.5900  138.0580 O   0  0  0  0  0  0  0  0  0  0  0  0
  190.3690  174.5690  137.1720 C   0  0  0  0  0  2  0  0  0  0  0  0
  189.7690  176.3770  135.8110 C   0  0  0  0  0  2  0  0  0  0  0  0
  190.6220  175.1560  135.8080 C   0  0  0  0  0  2  0  0  0  0  0  0
  187.3690  176.2980  137.9050 N   0  0  0  0  0  2  0  0  0  0  0  0
  186.2020  176.4400  137.0290 C   0  0  0  0  0  2  0  0  0  0  0  0
  184.4470  174.6720  137.4050 C   0  0  0  0  0  2  0  0  0  0  0  0
  184.5550  173.1730  137.5570 C   0  0  0  0  0  2  0  0  0  0  0  0
  185.6680  175.0780  136.6000 C   0  0  0  0  0  3  0  0  0  0  0  0
  186.7090  173.9840  136.7820 C   0  0  0  0  0  2  0  0  0  0  0  0
  186.0400  172.8740  137.5720 C   0  0  0  0  0  2  0  0  0  0  0  0
  1  2  2  0  0  0  0
  2  3  1  0  0  0  0
  4 13  1  0  0  0  0
  5  9  1  0  0  0  0
  6 13  2  0  0  0  0
  7 15  1  0  0  0  0
  8 14  2  0  0  0  0
  8 15  1  0  0  0  0
  9 14  1  0  0  0  0
 10 11  2  0  0  0  0
 10 16  1  0  0  0  0
 11  8  1  0  0  0  0
 12 10  1  0  0  0  0
 14  6  1  0  0  0  0
 15  4  2  0  0  0  0
 16  7  2  0  0  0  0
 17  3  1  6  0  0  0
 17  5  1  0  0  0  0
 17 11  1  0  0  0  0
 18 19  1  6  0  0  0
 18 25  1  0  0  0  0
 18  2  1  0  0  0  0
 20 18  1  1  0  0  0
 20 21  1  0  0  0  0
 22 21  1  0  0  0  0
 23 20  1  0  0  0  0
 24 23  1  0  0  0  0
 24 22  1  0  0  0  0
 26 25  1  0  0  0  0
 27 28  1  0  0  0  0
 28 31  1  0  0  0  0
 29 30  1  0  0  0  0
 29 26  1  0  0  0  0
 29 27  1  0  0  0  0
 30 31  1  0  0  0  0
M  END
>  <MODEL>
6

>  <REMARK>
 VINA RESULT:      -7.6      3.592      5.796
  Name = 
  6 active torsions:
  status: ('A' for Active; 'I' for Inactive)
    1  A    between atoms: C_1  and  C_10
    2  A    between atoms: C_1  and  N_20
    3  A    between atoms: C_1  and  C_27
    4  A    between atoms: C_13  and  N_20
    5  A    between atoms: C_13  and  C_22
    6  A    between atoms: C_26  and  N_28
                            x       y       z     vdW  Elec       q    Type
                         _______ _______ _______ _____ _____    ______ ____

>  <TORSDO>
F 6

$$$$
=
 OpenBabel11042410503D

 31 35  0  0  1  0  0  0  0  0999 V2000
  189.0430  179.1890  138.9400 O   0  0  0  0  0  0  0  0  0  0  0  0
  188.4450  178.0930  139.1260 C   0  0  0  0  0  0  0  0  0  0  0  0
  188.3620  177.5430  140.4460 N   0  0  0  0  0  2  0  0  0  0  0  0
  188.6240  177.1050  146.4170 N   0  0  0  0  0  0  0  0  0  0  0  0
  190.4100  177.5020  141.7330 C   0  0  0  0  0  2  0  0  0  0  0  0
  190.7910  177.2130  145.4160 C   0  0  0  0  0  3  0  0  0  0  0  0
  186.6830  177.6050  145.1880 N   0  0  0  0  0  0  0  0  0  0  0  0
  188.8120  177.6520  144.0870 C   0  0  0  0  0  0  0  0  0  0  0  0
  191.0870  177.8980  143.0360 C   0  0  0  0  0  2  0  0  0  0  0  0
  186.7850  178.1910  142.8690 C   0  0  0  0  0  0  0  0  0  0  0  0
  188.1830  177.9680  142.8600 C   0  0  0  0  0  0  0  0  0  0  0  0
  186.0420  178.6830  141.6730 C   0  0  0  0  0  1  0  0  0  0  0  0
  189.9740  176.9810  146.5240 C   0  0  0  0  0  3  0  0  0  0  0  0
  190.2100  177.5450  144.1920 C   0  0  0  0  0  0  0  0  0  0  0  0
  188.0290  177.4440  145.2420 C   0  0  0  0  0  0  0  0  0  0  0  0
  186.0580  177.9840  144.0440 C   0  0  0  0  0  3  0  0  0  0  0  0
  189.0240  178.1450  141.5980 C   0  0  2  0  0  3  0  0  0  0  0  0
  187.8870  177.3150  137.9510 C   0  0  1  0  0  0  0  0  0  0  0  0
  188.2740  177.9990  136.6340 C   0  0  0  0  0  1  0  0  0  0  0  0
  188.5040  175.9020  137.9660 C   0  0  1  0  0  3  0  0  0  0  0  0
  187.8460  175.0440  137.0580 O   0  0  0  0  0  0  0  0  0  0  0  0
  188.8380  174.3860  136.3060 C   0  0  0  0  0  2  0  0  0  0  0  0
  189.9910  175.9060  137.6640 C   0  0  0  0  0  2  0  0  0  0  0  0
  190.1860  174.6210  136.9380 C   0  0  0  0  0  2  0  0  0  0  0  0
  186.4230  177.1940  138.0510 N   0  0  0  0  0  2  0  0  0  0  0  0
  185.7650  178.5010  137.9600 C   0  0  0  0  0  2  0  0  0  0  0  0
  183.7170  179.4290  139.0940 C   0  0  0  0  0  2  0  0  0  0  0  0
  182.5950  178.7490  139.8440 C   0  0  0  0  0  2  0  0  0  0  0  0
  184.2580  178.3730  138.1480 C   0  0  0  0  0  3  0  0  0  0  0  0
  183.8780  177.0180  138.7230 C   0  0  0  0  0  2  0  0  0  0  0  0
  182.9890  177.2890  139.9240 C   0  0  0  0  0  2  0  0  0  0  0  0
  1  2  2  0  0  0  0
  2  3  1  0  0  0  0
  4 13  1  0  0  0  0
  5  9  1  0  0  0  0
  6 13  2  0  0  0  0
  7 15  1  0  0  0  0
  8 14  2  0  0  0  0
  8 15  1  0  0  0  0
  9 14  1  0  0  0  0
 10 16  1  0  0  0  0
 11 10  2  0  0  0  0
 11  8  1  0  0  0  0
 12 10  1  0  0  0  0
 14  6  1  0  0  0  0
 15  4  2  0  0  0  0
 16  7  2  0  0  0  0
 17  3  1  6  0  0  0
 17  5  1  0  0  0  0
 17 11  1  0  0  0  0
 18 19  1  6  0  0  0
 18 25  1  0  0  0  0
 18  2  1  0  0  0  0
 20 18  1  6  0  0  0
 21 20  1  0  0  0  0
 22 24  1  0  0  0  0
 22 21  1  0  0  0  0
 23 20  1  0  0  0  0
 24 23  1  0  0  0  0
 26 25  1  0  0  0  0
 26 29  1  0  0  0  0
 27 28  1  0  0  0  0
 28 31  1  0  0  0  0
 29 30  1  0  0  0  0
 29 27  1  0  0  0  0
 30 31  1  0  0  0  0
M  END
>  <MODEL>
7

>  <REMARK>
 VINA RESULT:      -7.6      3.178      4.487
  Name = 
  6 active torsions:
  status: ('A' for Active; 'I' for Inactive)
    1  A    between atoms: C_1  and  C_10
    2  A    between atoms: C_1  and  N_20
    3  A    between atoms: C_1  and  C_27
    4  A    between atoms: C_13  and  N_20
    5  A    between atoms: C_13  and  C_22
    6  A    between atoms: C_26  and  N_28
                            x       y       z     vdW  Elec       q    Type
                         _______ _______ _______ _____ _____    ______ ____

>  <TORSDO>
F 6

$$$$
=
 OpenBabel11042410503D

 31 35  0  0  1  0  0  0  0  0999 V2000
  189.0550  179.3190  139.2300 O   0  0  0  0  0  0  0  0  0  0  0  0
  188.7510  178.0970  139.3150 C   0  0  0  0  0  0  0  0  0  0  0  0
  188.6320  177.4820  140.6050 N   0  0  0  0  0  2  0  0  0  0  0  0
  187.1700  177.5070  146.4160 N   0  0  0  0  0  0  0  0  0  0  0  0
  190.2250  177.5770  142.4230 C   0  0  0  0  0  2  0  0  0  0  0  0
  189.5340  177.5770  146.0720 C   0  0  0  0  0  3  0  0  0  0  0  0
  185.6650  177.8770  144.6480 N   0  0  0  0  0  0  0  0  0  0  0  0
  188.0210  177.8780  144.2020 C   0  0  0  0  0  0  0  0  0  0  0  0
  190.5030  178.0830  143.8290 C   0  0  0  0  0  2  0  0  0  0  0  0
  186.4300  178.2860  142.4160 C   0  0  0  0  0  0  0  0  0  0  0  0
  187.7710  178.0870  142.8250 C   0  0  0  0  0  0  0  0  0  0  0  0
  186.0640  178.6710  141.0230 C   0  0  0  0  0  1  0  0  0  0  0  0
  188.4320  177.4160  146.9140 C   0  0  0  0  0  3  0  0  0  0  0  0
  189.3290  177.8040  144.7100 C   0  0  0  0  0  0  0  0  0  0  0  0
  186.9380  177.7440  145.0970 C   0  0  0  0  0  0  0  0  0  0  0  0
  185.3960  178.1560  143.3460 C   0  0  0  0  0  3  0  0  0  0  0  0
  188.9390  178.1820  141.8470 C   0  0  2  0  0  3  0  0  0  0  0  0
  188.5940  177.2560  138.0650 C   0  0  1  0  0  0  0  0  0  0  0  0
  189.0550  178.0480  136.8350 C   0  0  0  0  0  1  0  0  0  0  0  0
  189.4880  176.0070  138.2020 C   0  0  1  0  0  3  0  0  0  0  0  0
  189.1780  175.0420  137.2190 O   0  0  0  0  0  0  0  0  0  0  0  0
  190.3940  174.6230  136.6440 C   0  0  0  0  0  2  0  0  0  0  0  0
  190.9680  176.3320  138.1360 C   0  0  0  0  0  2  0  0  0  0  0  0
  191.5440  175.1290  137.4740 C   0  0  0  0  0  2  0  0  0  0  0  0
  187.1970  176.8220  137.8980 N   0  0  0  0  0  2  0  0  0  0  0  0
  186.3600  177.8960  137.3560 C   0  0  0  0  0  2  0  0  0  0  0  0
  183.9530  177.7590  138.0870 C   0  0  0  0  0  2  0  0  0  0  0  0
  182.9900  176.5960  138.1400 C   0  0  0  0  0  2  0  0  0  0  0  0
  184.9630  177.3880  137.0170 C   0  0  0  0  0  3  0  0  0  0  0  0
  184.9360  175.8730  136.8800 C   0  0  0  0  0  2  0  0  0  0  0  0
  183.8060  175.3770  137.7650 C   0  0  0  0  0  2  0  0  0  0  0  0
  1  2  2  0  0  0  0
  2  3  1  0  0  0  0
  4 13  1  0  0  0  0
  5  9  1  0  0  0  0
  6 13  2  0  0  0  0
  7 15  1  0  0  0  0
  8 14  2  0  0  0  0
  8 15  1  0  0  0  0
  9 14  1  0  0  0  0
 10 11  2  0  0  0  0
 10 16  1  0  0  0  0
 11  8  1  0  0  0  0
 12 10  1  0  0  0  0
 14  6  1  0  0  0  0
 15  4  2  0  0  0  0
 16  7  2  0  0  0  0
 17  3  1  6  0  0  0
 17  5  1  0  0  0  0
 17 11  1  0  0  0  0
 18 19  1  6  0  0  0
 18  2  1  0  0  0  0
 20 18  1  6  0  0  0
 21 20  1  0  0  0  0
 22 21  1  0  0  0  0
 22 24  1  0  0  0  0
 23 20  1  0  0  0  0
 24 23  1  0  0  0  0
 25 18  1  0  0  0  0
 26 25  1  0  0  0  0
 27 28  1  0  0  0  0
 29 26  1  0  0  0  0
 29 27  1  0  0  0  0
 30 29  1  0  0  0  0
 30 31  1  0  0  0  0
 31 28  1  0  0  0  0
M  END
>  <MODEL>
8

>  <REMARK>
 VINA RESULT:      -7.5      3.390      5.275
  Name = 
  6 active torsions:
  status: ('A' for Active; 'I' for Inactive)
    1  A    between atoms: C_1  and  C_10
    2  A    between atoms: C_1  and  N_20
    3  A    between atoms: C_1  and  C_27
    4  A    between atoms: C_13  and  N_20
    5  A    between atoms: C_13  and  C_22
    6  A    between atoms: C_26  and  N_28
                            x       y       z     vdW  Elec       q    Type
                         _______ _______ _______ _____ _____    ______ ____

>  <TORSDO>
F 6

$$$$
=
 OpenBabel11042410503D

 31 35  0  0  1  0  0  0  0  0999 V2000
  189.0360  179.3120  138.6880 O   0  0  0  0  0  0  0  0  0  0  0  0
  188.6120  178.1260  138.7720 C   0  0  0  0  0  0  0  0  0  0  0  0
  188.5180  177.4930  140.0540 N   0  0  0  0  0  2  0  0  0  0  0  0
  187.6760  177.3100  145.9850 N   0  0  0  0  0  0  0  0  0  0  0  0
  190.2960  177.4460  141.6950 C   0  0  0  0  0  2  0  0  0  0  0  0
  189.9910  177.3060  145.3930 C   0  0  0  0  0  3  0  0  0  0  0  0
  186.0100  177.8150  144.4030 N   0  0  0  0  0  0  0  0  0  0  0  0
  188.3040  177.7480  143.7090 C   0  0  0  0  0  0  0  0  0  0  0  0
  190.7400  177.8770  143.0830 C   0  0  0  0  0  2  0  0  0  0  0  0
  186.5540  178.2960  142.1220 C   0  0  0  0  0  0  0  0  0  0  0  0
  187.9200  178.0290  142.3770 C   0  0  0  0  0  0  0  0  0  0  0  0
  186.0600  178.7580  140.7920 C   0  0  0  0  0  1  0  0  0  0  0  0
  188.9780  177.1490  146.3410 C   0  0  0  0  0  3  0  0  0  0  0  0
  189.6550  177.6030  144.0720 C   0  0  0  0  0  0  0  0  0  0  0  0
  187.3170  177.6150  144.7080 C   0  0  0  0  0  0  0  0  0  0  0  0
  185.6190  178.1630  143.1500 C   0  0  0  0  0  3  0  0  0  0  0  0
  188.9830  178.1240  141.2840 C   0  0  2  0  0  3  0  0  0  0  0  0
  188.2800  177.3400  137.5200 C   0  0  1  0  0  0  0  0  0  0  0  0
  188.0240  175.8690  137.8740 C   0  0  0  0  0  1  0  0  0  0  0  0
  186.9920  177.9240  136.9040 C   0  0  1  0  0  3  0  0  0  0  0  0
  187.0370  177.8910  135.4930 O   0  0  0  0  0  0  0  0  0  0  0  0
  185.8160  177.3500  135.0460 C   0  0  0  0  0  2  0  0  0  0  0  0
  185.7380  177.2160  137.3830 C   0  0  0  0  0  2  0  0  0  0  0  0
  184.8430  177.2880  136.1950 C   0  0  0  0  0  2  0  0  0  0  0  0
  189.3670  177.4440  136.5320 N   0  0  0  0  0  2  0  0  0  0  0  0
  190.0140  176.1490  136.3030 C   0  0  0  0  0  2  0  0  0  0  0  0
  192.4060  175.8010  135.5940 C   0  0  0  0  0  2  0  0  0  0  0  0
  193.5430  175.0510  136.2470 C   0  0  0  0  0  2  0  0  0  0  0  0
  191.4770  176.1820  136.7310 C   0  0  0  0  0  3  0  0  0  0  0  0
  191.7490  175.2160  137.8750 C   0  0  0  0  0  2  0  0  0  0  0  0
  192.9370  174.3690  137.4550 C   0  0  0  0  0  2  0  0  0  0  0  0
  1  2  2  0  0  0  0
  2  3  1  0  0  0  0
  4 13  1  0  0  0  0
  5  9  1  0  0  0  0
  6 13  2  0  0  0  0
  7 15  1  0  0  0  0
  8 14  2  0  0  0  0
  8 15  1  0  0  0  0
  9 14  1  0  0  0  0
 10 11  2  0  0  0  0
 10 16  1  0  0  0  0
 11  8  1  0  0  0  0
 12 10  1  0  0  0  0
 14  6  1  0  0  0  0
 15  4  2  0  0  0  0
 16  7  2  0  0  0  0
 17  3  1  6  0  0  0
 17  5  1  0  0  0  0
 17 11  1  0  0  0  0
 18 19  1  1  0  0  0
 18  2  1  0  0  0  0
 20 23  1  0  0  0  0
 20 18  1  1  0  0  0
 21 20  1  0  0  0  0
 22 21  1  0  0  0  0
 22 24  1  0  0  0  0
 24 23  1  0  0  0  0
 25 18  1  0  0  0  0
 26 25  1  0  0  0  0
 26 29  1  0  0  0  0
 27 28  1  0  0  0  0
 27 29  1  0  0  0  0
 28 31  1  0  0  0  0
 29 30  1  0  0  0  0
 31 30  1  0  0  0  0
M  END
>  <MODEL>
9

>  <REMARK>
 VINA RESULT:      -7.4      4.343      7.212
  Name = 
  6 active torsions:
  status: ('A' for Active; 'I' for Inactive)
    1  A    between atoms: C_1  and  C_10
    2  A    between atoms: C_1  and  N_20
    3  A    between atoms: C_1  and  C_27
    4  A    between atoms: C_13  and  N_20
    5  A    between atoms: C_13  and  C_22
    6  A    between atoms: C_26  and  N_28
                            x       y       z     vdW  Elec       q    Type
                         _______ _______ _______ _____ _____    ______ ____

>  <TORSDO>
F 6

$$$$
