=
 OpenBabel11042409503D

 33 37  0  0  1  0  0  0  0  0999 V2000
  187.3280  177.6760  143.8970 C   0  0  0  0  0  0  0  0  0  0  0  0
  187.8760  178.0950  148.4540 C   0  0  0  0  0  3  0  0  0  0  0  0
  184.6040  178.2990  142.4910 C   0  0  0  0  0  0  0  0  0  0  0  0
  184.2790  178.4900  143.8740 C   0  0  0  0  0  0  0  0  0  0  0  0
  183.5800  178.4900  141.5280 C   0  0  0  0  0  0  0  0  0  0  0  0
  187.0220  177.6450  142.5540 C   0  0  0  0  0  3  0  0  0  0  0  0
  185.1210  178.3620  144.9720 C   0  0  0  0  0  3  0  0  0  0  0  0
  182.9740  178.8500  144.2240 C   0  0  0  0  0  3  0  0  0  0  0  0
  182.2870  178.8470  141.9230 C   0  0  0  0  0  3  0  0  0  0  0  0
  186.8760  178.1980  147.4710 C   0  0  0  0  0  3  0  0  0  0  0  0
  187.2280  177.9270  146.1470 C   0  0  0  0  0  0  0  0  0  0  0  0
  188.5130  177.5590  145.8030 C   0  0  0  0  0  0  0  0  0  0  0  0
  185.8210  177.9270  142.0010 N   0  0  0  0  0  0  0  0  0  0  0  0
  181.9830  179.0300  143.2650 C   0  0  0  0  0  0  0  0  0  0  0  0
  189.1920  177.7400  148.1000 C   0  0  0  0  0  3  0  0  0  0  0  0
  188.5760  177.3790  144.4290 C   0  0  0  0  0  0  0  0  0  0  0  0
  189.5240  177.4750  146.7610 C   0  0  0  0  0  3  0  0  0  0  0  0
  186.4530  178.0090  145.0050 C   0  0  0  0  0  0  0  0  0  0  0  0
  191.7690  177.5100  142.5290 N   0  0  0  0  0  1  0  0  0  0  0  0
  189.7470  177.0910  143.6470 N   0  0  0  0  0  0  0  0  0  0  0  0
  190.6880  179.2620  143.8680 N   0  0  0  0  0  1  0  0  0  0  0  0
  190.6780  177.9400  143.3340 C   0  0  0  0  0  0  0  0  0  0  0  0
  183.4070  177.1600  139.4100 C   0  0  0  0  0  0  0  0  0  0  0  0
  183.8490  178.3310  140.1240 N   0  0  0  0  0  0  0  0  0  0  0  0
  182.7540  176.2640  140.0150 O   0  0  0  0  0  0  0  0  0  0  0  0
  184.4950  179.4290  139.4140 C   0  0  0  0  0  1  0  0  0  0  0  0
  182.5480  177.3320  137.1990 C   0  0  0  0  0  0  0  0  0  0  0  0
  182.9860  175.9220  137.4480 O   0  0  0  0  0  0  0  0  0  0  0  0
  183.6690  177.0050  137.9370 C   0  0  2  0  0  3  0  0  0  0  0  0
  181.7080  178.2110  136.6750 C   0  0  0  0  0  2  0  0  0  0  0  0
  180.5990  179.3910  143.6760 C   0  0  0  0  0  2  0  0  0  0  0  0
  179.6570  179.2870  142.4920 C   0  0  0  0  0  2  0  0  0  0  0  0
  179.1020  180.6570  142.1680 C   0  0  0  0  0  1  0  0  0  0  0  0
  1 16  1  0  0  0  0
  1 18  1  0  0  0  0
  3  4  1  0  0  0  0
  4  8  1  0  0  0  0
  4  7  2  0  0  0  0
  5  9  2  0  0  0  0
  5  3  1  0  0  0  0
  6  1  2  0  0  0  0
  7 18  1  0  0  0  0
  9 14  1  0  0  0  0
 10  2  2  0  0  0  0
 11 10  1  0  0  0  0
 12 11  1  0  0  0  0
 12 17  1  0  0  0  0
 13  3  2  0  0  0  0
 13  6  1  0  0  0  0
 14 31  1  0  0  0  0
 14  8  2  0  0  0  0
 15  2  1  0  0  0  0
 16 12  2  0  0  0  0
 17 15  2  0  0  0  0
 18 11  2  0  0  0  0
 19 22  1  0  0  0  0
 20 16  1  0  0  0  0
 22 20  2  0  0  0  0
 22 21  1  0  0  0  0
 23 25  2  0  0  0  0
 23 24  1  0  0  0  0
 24  5  1  0  0  0  0
 26 24  1  0  0  0  0
 27 28  1  0  0  0  0
 27 29  1  0  0  0  0
 28 29  1  0  0  0  0
 29 23  1  1  0  0  0
 30 27  2  0  0  0  0
 32 31  1  0  0  0  0
 33 32  1  0  0  0  0
M  END
>  <MODEL>
1

>  <REMARK>
 VINA RESULT:     -10.3      0.000      0.000
  Name = 
  5 active torsions:
  status: ('A' for Active; 'I' for Inactive)
    1  A    between atoms: C_4  and  C_30
    2  A    between atoms: C_8  and  C_14
    3  A    between atoms: N_10  and  C_27
    4  A    between atoms: C_11  and  N_16
    5  A    between atoms: C_14  and  C_23
                            x       y       z     vdW  Elec       q    Type
                         _______ _______ _______ _____ _____    ______ ____

>  <TORSDO>
F 5

$$$$
=
 OpenBabel11042409503D

 33 37  0  0  1  0  0  0  0  0999 V2000
  187.3500  177.5140  144.1920 C   0  0  0  0  0  0  0  0  0  0  0  0
  187.9700  178.3560  148.6810 C   0  0  0  0  0  3  0  0  0  0  0  0
  184.6430  178.1280  142.7500 C   0  0  0  0  0  0  0  0  0  0  0  0
  184.3450  178.4710  144.1090 C   0  0  0  0  0  0  0  0  0  0  0  0
  183.6190  178.2730  141.7790 C   0  0  0  0  0  0  0  0  0  0  0  0
  187.0280  177.3660  142.8620 C   0  0  0  0  0  3  0  0  0  0  0  0
  185.1910  178.4110  145.2080 C   0  0  0  0  0  3  0  0  0  0  0  0
  183.0620  178.9280  144.4290 C   0  0  0  0  0  3  0  0  0  0  0  0
  182.3490  178.7300  142.1440 C   0  0  0  0  0  3  0  0  0  0  0  0
  186.9660  178.4100  147.7000 C   0  0  0  0  0  3  0  0  0  0  0  0
  187.2880  177.9920  146.4070 C   0  0  0  0  0  0  0  0  0  0  0  0
  188.5500  177.5290  146.0920 C   0  0  0  0  0  0  0  0  0  0  0  0
  185.8350  177.6490  142.2910 N   0  0  0  0  0  0  0  0  0  0  0  0
  182.0700  179.0600  143.4640 C   0  0  0  0  0  0  0  0  0  0  0  0
  189.2630  177.9030  148.3560 C   0  0  0  0  0  3  0  0  0  0  0  0
  188.5880  177.2100  144.7430 C   0  0  0  0  0  0  0  0  0  0  0  0
  189.5670  177.4900  147.0480 C   0  0  0  0  0  3  0  0  0  0  0  0
  186.5050  177.9980  145.2680 C   0  0  0  0  0  0  0  0  0  0  0  0
  191.7100  177.0050  142.7340 N   0  0  0  0  0  1  0  0  0  0  0  0
  189.7350  176.7890  143.9860 N   0  0  0  0  0  0  0  0  0  0  0  0
  190.6520  178.9700  143.7590 N   0  0  0  0  0  1  0  0  0  0  0  0
  190.6420  177.5710  143.4840 C   0  0  0  0  0  0  0  0  0  0  0  0
  184.7800  178.7470  139.6070 C   0  0  0  0  0  0  0  0  0  0  0  0
  183.8640  177.9620  140.3960 N   0  0  0  0  0  0  0  0  0  0  0  0
  185.3960  179.7140  140.1370 O   0  0  0  0  0  0  0  0  0  0  0  0
  183.2400  176.7700  139.8340 C   0  0  0  0  0  1  0  0  0  0  0  0
  186.3670  178.0200  137.9920 C   0  0  0  0  0  0  0  0  0  0  0  0
  185.8470  179.3670  137.5990 O   0  0  0  0  0  0  0  0  0  0  0  0
  185.0520  178.4070  138.1670 C   0  0  2  0  0  3  0  0  0  0  0  0
  187.3510  177.1400  138.0970 C   0  0  0  0  0  2  0  0  0  0  0  0
  180.7100  179.5280  143.8460 C   0  0  0  0  0  2  0  0  0  0  0  0
  179.7300  179.2650  142.7190 C   0  0  0  0  0  2  0  0  0  0  0  0
  179.2320  180.5830  142.1670 C   0  0  0  0  0  1  0  0  0  0  0  0
  1 16  1  0  0  0  0
  1 18  1  0  0  0  0
  3  4  1  0  0  0  0
  4  8  1  0  0  0  0
  4  7  2  0  0  0  0
  5  9  2  0  0  0  0
  5  3  1  0  0  0  0
  6  1  2  0  0  0  0
  7 18  1  0  0  0  0
  9 14  1  0  0  0  0
 10  2  2  0  0  0  0
 11 10  1  0  0  0  0
 12 11  1  0  0  0  0
 12 17  1  0  0  0  0
 13  3  2  0  0  0  0
 13  6  1  0  0  0  0
 14 31  1  0  0  0  0
 14  8  2  0  0  0  0
 15  2  1  0  0  0  0
 16 12  2  0  0  0  0
 17 15  2  0  0  0  0
 18 11  2  0  0  0  0
 19 22  1  0  0  0  0
 20 16  1  0  0  0  0
 22 21  1  0  0  0  0
 22 20  2  0  0  0  0
 23 25  2  0  0  0  0
 23 24  1  0  0  0  0
 24  5  1  0  0  0  0
 26 24  1  0  0  0  0
 27 30  2  0  0  0  0
 27 29  1  0  0  0  0
 28 27  1  0  0  0  0
 28 29  1  0  0  0  0
 29 23  1  1  0  0  0
 32 31  1  0  0  0  0
 33 32  1  0  0  0  0
M  END
>  <MODEL>
2

>  <REMARK>
 VINA RESULT:     -10.1      1.433      1.823
  Name = 
  5 active torsions:
  status: ('A' for Active; 'I' for Inactive)
    1  A    between atoms: C_4  and  C_30
    2  A    between atoms: C_8  and  C_14
    3  A    between atoms: N_10  and  C_27
    4  A    between atoms: C_11  and  N_16
    5  A    between atoms: C_14  and  C_23
                            x       y       z     vdW  Elec       q    Type
                         _______ _______ _______ _____ _____    ______ ____

>  <TORSDO>
F 5

$$$$
=
 OpenBabel11042409503D

 33 37  0  0  1  0  0  0  0  0999 V2000
  190.4400  177.1810  144.4440 C   0  0  0  0  0  0  0  0  0  0  0  0
  186.7990  178.2670  147.0540 C   0  0  0  0  0  3  0  0  0  0  0  0
  190.3280  177.2820  141.3200 C   0  0  0  0  0  0  0  0  0  0  0  0
  188.9820  177.6170  141.6800 C   0  0  0  0  0  0  0  0  0  0  0  0
  190.6600  177.2200  139.9420 C   0  0  0  0  0  0  0  0  0  0  0  0
  191.4450  176.9350  143.5360 C   0  0  0  0  0  3  0  0  0  0  0  0
  188.4460  177.7370  142.9560 C   0  0  0  0  0  3  0  0  0  0  0  0
  188.0480  177.8630  140.6690 C   0  0  0  0  0  3  0  0  0  0  0  0
  189.6930  177.4700  138.9640 C   0  0  0  0  0  3  0  0  0  0  0  0
  187.1550  178.1190  145.7020 C   0  0  0  0  0  3  0  0  0  0  0  0
  188.4590  177.7170  145.4070 C   0  0  0  0  0  0  0  0  0  0  0  0
  189.3780  177.4610  146.4050 C   0  0  0  0  0  0  0  0  0  0  0  0
  191.3390  176.9940  142.1890 N   0  0  0  0  0  0  0  0  0  0  0  0
  188.3920  177.7940  139.3230 C   0  0  0  0  0  0  0  0  0  0  0  0
  187.7430  178.0270  148.0710 C   0  0  0  0  0  3  0  0  0  0  0  0
  190.5870  177.1080  145.8230 C   0  0  0  0  0  0  0  0  0  0  0  0
  189.0510  177.6260  147.7520 C   0  0  0  0  0  3  0  0  0  0  0  0
  189.0640  177.5530  144.1750 C   0  0  0  0  0  0  0  0  0  0  0  0
  193.3510  175.7720  147.9210 N   0  0  0  0  0  1  0  0  0  0  0  0
  191.8320  176.8590  146.4980 N   0  0  0  0  0  0  0  0  0  0  0  0
  191.1210  174.8300  147.5110 N   0  0  0  0  0  1  0  0  0  0  0  0
  192.0710  175.8720  147.3080 C   0  0  0  0  0  0  0  0  0  0  0  0
  192.2620  175.7880  138.6490 C   0  0  0  0  0  0  0  0  0  0  0  0
  191.9990  176.9070  139.5190 N   0  0  0  0  0  0  0  0  0  0  0  0
  191.3050  175.0780  138.2320 O   0  0  0  0  0  0  0  0  0  0  0  0
  193.0770  177.8080  139.9090 C   0  0  0  0  0  1  0  0  0  0  0  0
  193.7420  175.5000  136.8110 C   0  0  0  0  0  0  0  0  0  0  0  0
  193.6980  174.2350  137.6100 O   0  0  0  0  0  0  0  0  0  0  0  0
  193.6600  175.4760  138.1900 C   0  0  2  0  0  3  0  0  0  0  0  0
  193.8030  176.1410  135.6540 C   0  0  0  0  0  2  0  0  0  0  0  0
  187.3650  178.0400  138.2740 C   0  0  0  0  0  2  0  0  0  0  0  0
  188.0230  178.5590  137.0100 C   0  0  0  0  0  2  0  0  0  0  0  0
  187.1560  178.2220  135.8160 C   0  0  0  0  0  1  0  0  0  0  0  0
  1 16  2  0  0  0  0
  2 15  1  0  0  0  0
  3  4  2  0  0  0  0
  3 13  1  0  0  0  0
  4  7  1  0  0  0  0
  5  3  1  0  0  0  0
  6  1  1  0  0  0  0
  7 18  2  0  0  0  0
  8  4  1  0  0  0  0
  9 14  1  0  0  0  0
  9  5  2  0  0  0  0
 10  2  2  0  0  0  0
 11 10  1  0  0  0  0
 11 12  2  0  0  0  0
 12 17  1  0  0  0  0
 13  6  2  0  0  0  0
 14  8  2  0  0  0  0
 16 12  1  0  0  0  0
 16 20  1  0  0  0  0
 17 15  2  0  0  0  0
 18  1  1  0  0  0  0
 18 11  1  0  0  0  0
 20 22  2  0  0  0  0
 22 21  1  0  0  0  0
 22 19  1  0  0  0  0
 23 24  1  0  0  0  0
 24 26  1  0  0  0  0
 24  5  1  0  0  0  0
 25 23  2  0  0  0  0
 27 28  1  0  0  0  0
 27 29  1  0  0  0  0
 28 29  1  0  0  0  0
 29 23  1  6  0  0  0
 30 27  2  0  0  0  0
 31 14  1  0  0  0  0
 32 31  1  0  0  0  0
 33 32  1  0  0  0  0
M  END
>  <MODEL>
3

>  <REMARK>
 VINA RESULT:      -9.3      4.622      6.919
  Name = 
  5 active torsions:
  status: ('A' for Active; 'I' for Inactive)
    1  A    between atoms: C_4  and  C_30
    2  A    between atoms: C_8  and  C_14
    3  A    between atoms: N_10  and  C_27
    4  A    between atoms: C_11  and  N_16
    5  A    between atoms: C_14  and  C_23
                            x       y       z     vdW  Elec       q    Type
                         _______ _______ _______ _____ _____    ______ ____

>  <TORSDO>
F 5

$$$$
=
 OpenBabel11042409503D

 33 37  0  0  1  0  0  0  0  0999 V2000
  183.7680  178.3120  142.0810 C   0  0  0  0  0  0  0  0  0  0  0  0
  179.5800  179.6160  143.4930 C   0  0  0  0  0  3  0  0  0  0  0  0
  186.1510  177.9510  144.0760 C   0  0  0  0  0  0  0  0  0  0  0  0
  185.1080  178.4250  144.9360 C   0  0  0  0  0  0  0  0  0  0  0  0
  187.4210  177.6790  144.6450 C   0  0  0  0  0  0  0  0  0  0  0  0
  185.0520  177.8860  141.8240 C   0  0  0  0  0  3  0  0  0  0  0  0
  183.8010  178.7460  144.5930 C   0  0  0  0  0  3  0  0  0  0  0  0
  185.3770  178.6070  146.2960 C   0  0  0  0  0  3  0  0  0  0  0  0
  187.6480  177.8790  146.0100 C   0  0  0  0  0  3  0  0  0  0  0  0
  180.8740  179.4070  143.9990 C   0  0  0  0  0  3  0  0  0  0  0  0
  181.8730  179.0190  143.1030 C   0  0  0  0  0  0  0  0  0  0  0  0
  181.6110  178.8510  141.7580 C   0  0  0  0  0  0  0  0  0  0  0  0
  186.0460  177.7480  142.7310 N   0  0  0  0  0  0  0  0  0  0  0  0
  186.6310  178.3380  146.8360 C   0  0  0  0  0  0  0  0  0  0  0  0
  179.3070  179.4250  142.1250 C   0  0  0  0  0  3  0  0  0  0  0  0
  182.7730  178.4420  141.1210 C   0  0  0  0  0  0  0  0  0  0  0  0
  180.3260  179.0310  141.2420 C   0  0  0  0  0  3  0  0  0  0  0  0
  183.1950  178.7030  143.3550 C   0  0  0  0  0  0  0  0  0  0  0  0
  183.4880  178.2840  137.4760 N   0  0  0  0  0  1  0  0  0  0  0  0
  182.9160  178.0610  139.7430 N   0  0  0  0  0  0  0  0  0  0  0  0
  184.0600  180.0410  139.0940 N   0  0  0  0  0  1  0  0  0  0  0  0
  183.4380  178.7910  138.8040 C   0  0  0  0  0  0  0  0  0  0  0  0
  189.7380  177.9170  143.7150 C   0  0  0  0  0  0  0  0  0  0  0  0
  188.5020  177.1840  143.8360 N   0  0  0  0  0  0  0  0  0  0  0  0
  189.8890  179.0020  144.3430 O   0  0  0  0  0  0  0  0  0  0  0  0
  188.3600  175.8710  143.2180 C   0  0  0  0  0  1  0  0  0  0  0  0
  191.6800  176.5480  143.6330 C   0  0  0  0  0  0  0  0  0  0  0  0
  192.0560  177.9550  143.2890 O   0  0  0  0  0  0  0  0  0  0  0  0
  190.8760  177.3870  142.8860 C   0  0  2  0  0  3  0  0  0  0  0  0
  191.9350  175.3890  144.2220 C   0  0  0  0  0  2  0  0  0  0  0  0
  186.8870  178.5660  148.2840 C   0  0  0  0  0  2  0  0  0  0  0  0
  187.9300  177.5880  148.7910 C   0  0  0  0  0  2  0  0  0  0  0  0
  189.2900  178.2530  148.7830 C   0  0  0  0  0  1  0  0  0  0  0  0
  1 18  1  0  0  0  0
  2 10  1  0  0  0  0
  3  5  2  0  0  0  0
  3  4  1  0  0  0  0
  4  8  2  0  0  0  0
  5  9  1  0  0  0  0
  6  1  1  0  0  0  0
  6 13  2  0  0  0  0
  7  4  1  0  0  0  0
  8 14  1  0  0  0  0
  9 14  2  0  0  0  0
 11 18  1  0  0  0  0
 11 10  2  0  0  0  0
 12 11  1  0  0  0  0
 13  3  1  0  0  0  0
 14 31  1  0  0  0  0
 15  2  2  0  0  0  0
 16 12  1  0  0  0  0
 16  1  2  0  0  0  0
 17 12  2  0  0  0  0
 17 15  1  0  0  0  0
 18  7  2  0  0  0  0
 19 22  1  0  0  0  0
 20 16  1  0  0  0  0
 22 21  1  0  0  0  0
 22 20  2  0  0  0  0
 23 24  1  0  0  0  0
 23 25  2  0  0  0  0
 24  5  1  0  0  0  0
 26 24  1  0  0  0  0
 27 30  2  0  0  0  0
 28 27  1  0  0  0  0
 29 28  1  0  0  0  0
 29 27  1  0  0  0  0
 29 23  1  1  0  0  0
 31 32  1  0  0  0  0
 33 32  1  0  0  0  0
M  END
>  <MODEL>
4

>  <REMARK>
 VINA RESULT:      -8.9      2.741      7.866
  Name = 
  5 active torsions:
  status: ('A' for Active; 'I' for Inactive)
    1  A    between atoms: C_4  and  C_30
    2  A    between atoms: C_8  and  C_14
    3  A    between atoms: N_10  and  C_27
    4  A    between atoms: C_11  and  N_16
    5  A    between atoms: C_14  and  C_23
                            x       y       z     vdW  Elec       q    Type
                         _______ _______ _______ _____ _____    ______ ____

>  <TORSDO>
F 5

$$$$
=
 OpenBabel11042409503D

 33 37  0  0  1  0  0  0  0  0999 V2000
  185.0720  178.7020  140.8500 C   0  0  0  0  0  0  0  0  0  0  0  0
  183.8580  178.7360  145.2960 C   0  0  0  0  0  3  0  0  0  0  0  0
  187.9900  178.0460  139.9350 C   0  0  0  0  0  0  0  0  0  0  0  0
  188.1080  178.0120  141.3620 C   0  0  0  0  0  0  0  0  0  0  0  0
  189.1500  177.7960  139.1580 C   0  0  0  0  0  0  0  0  0  0  0  0
  185.5740  178.6060  139.5720 C   0  0  0  0  0  3  0  0  0  0  0  0
  187.1090  178.2190  142.3050 C   0  0  0  0  0  3  0  0  0  0  0  0
  189.3540  177.7420  141.9360 C   0  0  0  0  0  3  0  0  0  0  0  0
  190.3780  177.5350  139.7730 C   0  0  0  0  0  3  0  0  0  0  0  0
  184.9950  178.5710  144.4880 C   0  0  0  0  0  3  0  0  0  0  0  0
  184.8400  178.6900  143.1050 C   0  0  0  0  0  0  0  0  0  0  0  0
  183.6120  178.9680  142.5380 C   0  0  0  0  0  0  0  0  0  0  0  0
  186.8520  178.3170  139.2340 N   0  0  0  0  0  0  0  0  0  0  0  0
  190.4820  177.5030  141.1570 C   0  0  0  0  0  0  0  0  0  0  0  0
  182.6020  179.0000  144.7170 C   0  0  0  0  0  3  0  0  0  0  0  0
  183.7510  179.0030  141.1580 C   0  0  0  0  0  0  0  0  0  0  0  0
  182.4670  179.1120  143.3240 C   0  0  0  0  0  3  0  0  0  0  0  0
  185.7780  178.5210  142.1040 C   0  0  0  0  0  0  0  0  0  0  0  0
  181.0560  178.5140  138.6450 N   0  0  0  0  0  1  0  0  0  0  0  0
  182.7040  179.1620  140.1870 N   0  0  0  0  0  0  0  0  0  0  0  0
  182.2390  176.8390  139.9960 N   0  0  0  0  0  1  0  0  0  0  0  0
  182.0530  178.1980  139.6090 C   0  0  0  0  0  0  0  0  0  0  0  0
  188.9650  176.5700  136.9790 C   0  0  0  0  0  0  0  0  0  0  0  0
  189.0910  177.7990  137.7210 N   0  0  0  0  0  0  0  0  0  0  0  0
  188.8840  175.4700  137.5940 O   0  0  0  0  0  0  0  0  0  0  0  0
  189.0600  179.0840  137.0310 C   0  0  0  0  0  1  0  0  0  0  0  0
  187.5860  176.3380  135.0550 C   0  0  0  0  0  0  0  0  0  0  0  0
  188.6680  175.3040  135.0120 O   0  0  0  0  0  0  0  0  0  0  0  0
  188.8800  176.5760  135.4770 C   0  0  2  0  0  3  0  0  0  0  0  0
  186.3340  176.7170  134.8500 C   0  0  0  0  0  2  0  0  0  0  0  0
  191.7970  177.2420  141.8040 C   0  0  0  0  0  2  0  0  0  0  0  0
  191.6760  177.3780  143.3100 C   0  0  0  0  0  2  0  0  0  0  0  0
  191.6800  176.0030  143.9420 C   0  0  0  0  0  1  0  0  0  0  0  0
  1 16  1  0  0  0  0
  1 18  1  0  0  0  0
  3  4  1  0  0  0  0
  4  8  1  0  0  0  0
  4  7  2  0  0  0  0
  5  9  2  0  0  0  0
  5  3  1  0  0  0  0
  6  1  2  0  0  0  0
  9 14  1  0  0  0  0
 10  2  2  0  0  0  0
 11 10  1  0  0  0  0
 12 11  1  0  0  0  0
 12 17  1  0  0  0  0
 13  6  1  0  0  0  0
 13  3  2  0  0  0  0
 14 31  1  0  0  0  0
 14  8  2  0  0  0  0
 15  2  1  0  0  0  0
 16 12  2  0  0  0  0
 17 15  2  0  0  0  0
 18  7  1  0  0  0  0
 18 11  2  0  0  0  0
 19 22  1  0  0  0  0
 20 16  1  0  0  0  0
 22 21  1  0  0  0  0
 22 20  2  0  0  0  0
 23 25  2  0  0  0  0
 23 24  1  0  0  0  0
 24  5  1  0  0  0  0
 26 24  1  0  0  0  0
 27 29  1  0  0  0  0
 28 27  1  0  0  0  0
 28 29  1  0  0  0  0
 29 23  1  1  0  0  0
 30 27  2  0  0  0  0
 31 32  1  0  0  0  0
 32 33  1  0  0  0  0
M  END
>  <MODEL>
5

>  <REMARK>
 VINA RESULT:      -8.7      3.309      7.163
  Name = 
  5 active torsions:
  status: ('A' for Active; 'I' for Inactive)
    1  A    between atoms: C_4  and  C_30
    2  A    between atoms: C_8  and  C_14
    3  A    between atoms: N_10  and  C_27
    4  A    between atoms: C_11  and  N_16
    5  A    between atoms: C_14  and  C_23
                            x       y       z     vdW  Elec       q    Type
                         _______ _______ _______ _____ _____    ______ ____

>  <TORSDO>
F 5

$$$$
=
 OpenBabel11042409503D

 33 37  0  0  1  0  0  0  0  0999 V2000
  189.2270  176.9580  143.0970 C   0  0  0  0  0  0  0  0  0  0  0  0
  185.3900  178.7410  144.9260 C   0  0  0  0  0  3  0  0  0  0  0  0
  189.8240  177.1050  140.0300 C   0  0  0  0  0  0  0  0  0  0  0  0
  188.5250  177.7040  140.1130 C   0  0  0  0  0  0  0  0  0  0  0  0
  190.4310  176.9880  138.7540 C   0  0  0  0  0  0  0  0  0  0  0  0
  190.3380  176.5200  142.4120 C   0  0  0  0  0  3  0  0  0  0  0  0
  187.7570  177.9200  141.2500 C   0  0  0  0  0  3  0  0  0  0  0  0
  187.9020  178.1430  138.9400 C   0  0  0  0  0  3  0  0  0  0  0  0
  189.7700  177.4370  137.6060 C   0  0  0  0  0  3  0  0  0  0  0  0
  185.9970  178.5340  143.6750 C   0  0  0  0  0  3  0  0  0  0  0  0
  187.2290  177.8780  143.6440 C   0  0  0  0  0  0  0  0  0  0  0  0
  187.8390  177.4330  144.7990 C   0  0  0  0  0  0  0  0  0  0  0  0
  190.5430  176.6110  141.0780 N   0  0  0  0  0  0  0  0  0  0  0  0
  188.5120  178.0160  137.6970 C   0  0  0  0  0  0  0  0  0  0  0  0
  186.0220  178.3060  146.1060 C   0  0  0  0  0  3  0  0  0  0  0  0
  189.0510  176.8450  144.4700 C   0  0  0  0  0  0  0  0  0  0  0  0
  187.2630  177.6500  146.0530 C   0  0  0  0  0  3  0  0  0  0  0  0
  188.0440  177.6040  142.5610 C   0  0  0  0  0  0  0  0  0  0  0  0
  192.0550  176.2970  146.5910 N   0  0  0  0  0  1  0  0  0  0  0  0
  190.0440  176.3430  145.3800 N   0  0  0  0  0  0  0  0  0  0  0  0
  191.4500  178.2530  145.2350 N   0  0  0  0  0  1  0  0  0  0  0  0
  191.1580  176.9340  145.6900 C   0  0  0  0  0  0  0  0  0  0  0  0
  191.9260  175.1330  137.9720 C   0  0  0  0  0  0  0  0  0  0  0  0
  191.7410  176.4130  138.6090 N   0  0  0  0  0  0  0  0  0  0  0  0
  190.9280  174.5100  137.5120 O   0  0  0  0  0  0  0  0  0  0  0  0
  192.8930  177.2000  139.0330 C   0  0  0  0  0  1  0  0  0  0  0  0
  193.8280  174.8740  136.5680 C   0  0  0  0  0  0  0  0  0  0  0  0
  193.2640  173.5240  136.8860 O   0  0  0  0  0  0  0  0  0  0  0  0
  193.3000  174.5430  137.8010 C   0  0  2  0  0  3  0  0  0  0  0  0
  194.3940  175.7270  135.7290 C   0  0  0  0  0  2  0  0  0  0  0  0
  187.8080  178.4750  136.4680 C   0  0  0  0  0  2  0  0  0  0  0  0
  186.4300  177.8460  136.3880 C   0  0  0  0  0  2  0  0  0  0  0  0
  186.5520  176.4280  135.8730 C   0  0  0  0  0  1  0  0  0  0  0  0
  1 16  2  0  0  0  0
  2 15  1  0  0  0  0
  3  4  2  0  0  0  0
  3 13  1  0  0  0  0
  4  7  1  0  0  0  0
  5  3  1  0  0  0  0
  6  1  1  0  0  0  0
  7 18  2  0  0  0  0
  8  4  1  0  0  0  0
  9 14  1  0  0  0  0
  9  5  2  0  0  0  0
 10  2  2  0  0  0  0
 11 10  1  0  0  0  0
 11 12  2  0  0  0  0
 12 17  1  0  0  0  0
 13  6  2  0  0  0  0
 14  8  2  0  0  0  0
 16 12  1  0  0  0  0
 16 20  1  0  0  0  0
 17 15  2  0  0  0  0
 18  1  1  0  0  0  0
 18 11  1  0  0  0  0
 20 22  2  0  0  0  0
 21 22  1  0  0  0  0
 22 19  1  0  0  0  0
 23 24  1  0  0  0  0
 24  5  1  0  0  0  0
 24 26  1  0  0  0  0
 25 23  2  0  0  0  0
 27 28  1  0  0  0  0
 27 29  1  0  0  0  0
 28 29  1  0  0  0  0
 29 23  1  6  0  0  0
 30 27  2  0  0  0  0
 31 14  1  0  0  0  0
 32 31  1  0  0  0  0
 33 32  1  0  0  0  0
M  END
>  <MODEL>
6

>  <REMARK>
 VINA RESULT:      -8.7      4.417      6.982
  Name = 
  5 active torsions:
  status: ('A' for Active; 'I' for Inactive)
    1  A    between atoms: C_4  and  C_30
    2  A    between atoms: C_8  and  C_14
    3  A    between atoms: N_10  and  C_27
    4  A    between atoms: C_11  and  N_16
    5  A    between atoms: C_14  and  C_23
                            x       y       z     vdW  Elec       q    Type
                         _______ _______ _______ _____ _____    ______ ____

>  <TORSDO>
F 5

$$$$
=
 OpenBabel11042409503D

 33 37  0  0  1  0  0  0  0  0999 V2000
  187.2120  177.8680  142.6980 C   0  0  0  0  0  0  0  0  0  0  0  0
  189.0000  177.1880  146.8910 C   0  0  0  0  0  3  0  0  0  0  0  0
  188.9300  177.5900  140.0990 C   0  0  0  0  0  0  0  0  0  0  0  0
  189.9030  177.3700  141.1280 C   0  0  0  0  0  0  0  0  0  0  0  0
  189.3590  177.5480  138.7480 C   0  0  0  0  0  0  0  0  0  0  0  0
  186.8170  177.9920  141.3850 C   0  0  0  0  0  3  0  0  0  0  0  0
  189.7020  177.3620  142.5030 C   0  0  0  0  0  3  0  0  0  0  0  0
  191.2330  177.1280  140.7680 C   0  0  0  0  0  3  0  0  0  0  0  0
  190.7000  177.3070  138.4330 C   0  0  0  0  0  3  0  0  0  0  0  0
  189.3920  177.2320  145.5430 C   0  0  0  0  0  3  0  0  0  0  0  0
  188.4190  177.5260  144.5850 C   0  0  0  0  0  0  0  0  0  0  0  0
  187.1090  177.7770  144.9410 C   0  0  0  0  0  0  0  0  0  0  0  0
  187.6080  177.8600  140.2950 N   0  0  0  0  0  0  0  0  0  0  0  0
  191.6340  177.0940  139.4370 C   0  0  0  0  0  0  0  0  0  0  0  0
  187.6590  177.4230  147.2530 C   0  0  0  0  0  3  0  0  0  0  0  0
  186.3690  178.0130  143.7920 C   0  0  0  0  0  0  0  0  0  0  0  0
  186.6950  177.7150  146.2730 C   0  0  0  0  0  3  0  0  0  0  0  0
  188.5380  177.5760  143.2090 C   0  0  0  0  0  0  0  0  0  0  0  0
  182.9020  179.3530  143.8920 N   0  0  0  0  0  1  0  0  0  0  0  0
  184.9490  178.2160  143.7050 N   0  0  0  0  0  0  0  0  0  0  0  0
  185.0230  180.5050  144.3430 N   0  0  0  0  0  1  0  0  0  0  0  0
  184.3190  179.3120  144.0060 C   0  0  0  0  0  0  0  0  0  0  0  0
  187.6860  176.6380  137.1170 C   0  0  0  0  0  0  0  0  0  0  0  0
  188.4260  177.7440  137.6710 N   0  0  0  0  0  0  0  0  0  0  0  0
  187.8380  175.4790  137.5940 O   0  0  0  0  0  0  0  0  0  0  0  0
  188.1700  179.1060  137.2160 C   0  0  0  0  0  1  0  0  0  0  0  0
  185.3990  176.7140  136.4700 C   0  0  0  0  0  0  0  0  0  0  0  0
  186.1010  175.6590  135.6740 O   0  0  0  0  0  0  0  0  0  0  0  0
  186.6930  176.8480  136.0060 C   0  0  2  0  0  3  0  0  0  0  0  0
  184.3390  177.1610  137.1260 C   0  0  0  0  0  2  0  0  0  0  0  0
  193.0630  176.8570  139.0920 C   0  0  0  0  0  2  0  0  0  0  0  0
  193.1820  176.3780  137.6570 C   0  0  0  0  0  2  0  0  0  0  0  0
  193.5460  174.9090  137.6460 C   0  0  0  0  0  1  0  0  0  0  0  0
  1 18  1  0  0  0  0
  1 16  1  0  0  0  0
  2 15  1  0  0  0  0
  3 13  2  0  0  0  0
  3  4  1  0  0  0  0
  4  7  2  0  0  0  0
  5  3  1  0  0  0  0
  6  1  2  0  0  0  0
  7 18  1  0  0  0  0
  8  4  1  0  0  0  0
  9  5  2  0  0  0  0
  9 14  1  0  0  0  0
 10  2  2  0  0  0  0
 11 12  1  0  0  0  0
 11 10  1  0  0  0  0
 12 17  1  0  0  0  0
 13  6  1  0  0  0  0
 14  8  2  0  0  0  0
 16 12  2  0  0  0  0
 17 15  2  0  0  0  0
 18 11  2  0  0  0  0
 19 22  1  0  0  0  0
 20 16  1  0  0  0  0
 20 22  2  0  0  0  0
 22 21  1  0  0  0  0
 23 25  2  0  0  0  0
 23 24  1  0  0  0  0
 24  5  1  0  0  0  0
 26 24  1  0  0  0  0
 27 30  2  0  0  0  0
 28 29  1  0  0  0  0
 28 27  1  0  0  0  0
 29 27  1  0  0  0  0
 29 23  1  1  0  0  0
 31 14  1  0  0  0  0
 32 31  1  0  0  0  0
 33 32  1  0  0  0  0
M  END
>  <MODEL>
7

>  <REMARK>
 VINA RESULT:      -8.5      3.320      6.654
  Name = 
  5 active torsions:
  status: ('A' for Active; 'I' for Inactive)
    1  A    between atoms: C_4  and  C_30
    2  A    between atoms: C_8  and  C_14
    3  A    between atoms: N_10  and  C_27
    4  A    between atoms: C_11  and  N_16
    5  A    between atoms: C_14  and  C_23
                            x       y       z     vdW  Elec       q    Type
                         _______ _______ _______ _____ _____    ______ ____

>  <TORSDO>
F 5

$$$$
=
 OpenBabel11042409503D

 33 37  0  0  1  0  0  0  0  0999 V2000
  187.0050  177.8770  143.2140 C   0  0  0  0  0  0  0  0  0  0  0  0
  191.2160  177.5120  145.0520 C   0  0  0  0  0  3  0  0  0  0  0  0
  186.5600  178.1360  140.1280 C   0  0  0  0  0  0  0  0  0  0  0  0
  187.9900  178.1290  140.2270 C   0  0  0  0  0  0  0  0  0  0  0  0
  185.9750  178.2530  138.8420 C   0  0  0  0  0  0  0  0  0  0  0  0
  185.8200  177.9460  142.5150 C   0  0  0  0  0  3  0  0  0  0  0  0
  188.7640  178.0190  141.3750 C   0  0  0  0  0  3  0  0  0  0  0  0
  188.7530  178.2420  139.0610 C   0  0  0  0  0  3  0  0  0  0  0  0
  186.7770  178.3680  137.7020 C   0  0  0  0  0  3  0  0  0  0  0  0
  190.5920  177.7030  143.8070 C   0  0  0  0  0  3  0  0  0  0  0  0
  189.1980  177.7790  143.7760 C   0  0  0  0  0  0  0  0  0  0  0  0
  188.4450  177.6800  144.9280 C   0  0  0  0  0  0  0  0  0  0  0  0
  185.6870  178.0570  141.1740 N   0  0  0  0  0  0  0  0  0  0  0  0
  188.1610  178.3590  137.8080 C   0  0  0  0  0  0  0  0  0  0  0  0
  190.4460  177.3900  146.2250 C   0  0  0  0  0  3  0  0  0  0  0  0
  187.1010  177.7650  144.5950 C   0  0  0  0  0  0  0  0  0  0  0  0
  189.0440  177.4670  146.1710 C   0  0  0  0  0  3  0  0  0  0  0  0
  188.3560  177.9080  142.6870 C   0  0  0  0  0  0  0  0  0  0  0  0
  184.2810  178.2530  146.9690 N   0  0  0  0  0  1  0  0  0  0  0  0
  185.9790  177.6090  145.4800 N   0  0  0  0  0  0  0  0  0  0  0  0
  185.6800  179.9360  145.8560 N   0  0  0  0  0  1  0  0  0  0  0  0
  185.3650  178.5680  146.1030 C   0  0  0  0  0  0  0  0  0  0  0  0
  183.7750  179.4560  138.8300 C   0  0  0  0  0  0  0  0  0  0  0  0
  184.5460  178.2480  138.6770 N   0  0  0  0  0  0  0  0  0  0  0  0
  184.3590  180.5450  139.0940 O   0  0  0  0  0  0  0  0  0  0  0  0
  183.9020  177.0100  138.2530 C   0  0  0  0  0  1  0  0  0  0  0  0
  181.7720  180.7340  138.7320 C   0  0  0  0  0  0  0  0  0  0  0  0
  181.6540  179.7180  139.8240 O   0  0  0  0  0  0  0  0  0  0  0  0
  182.2830  179.4540  138.6360 C   0  0  2  0  0  3  0  0  0  0  0  0
  181.5550  181.9460  138.2450 C   0  0  0  0  0  2  0  0  0  0  0  0
  189.0060  178.5010  136.5900 C   0  0  0  0  0  2  0  0  0  0  0  0
  188.9230  177.2420  135.7470 C   0  0  0  0  0  2  0  0  0  0  0  0
  190.0510  176.3070  136.1270 C   0  0  0  0  0  1  0  0  0  0  0  0
  1 16  2  0  0  0  0
  2 15  1  0  0  0  0
  3  4  2  0  0  0  0
  3 13  1  0  0  0  0
  4  7  1  0  0  0  0
  5  3  1  0  0  0  0
  6  1  1  0  0  0  0
  7 18  2  0  0  0  0
  8  4  1  0  0  0  0
  9 14  1  0  0  0  0
  9  5  2  0  0  0  0
 10  2  2  0  0  0  0
 11 10  1  0  0  0  0
 11 12  2  0  0  0  0
 12 17  1  0  0  0  0
 13  6  2  0  0  0  0
 14  8  2  0  0  0  0
 16 12  1  0  0  0  0
 16 20  1  0  0  0  0
 17 15  2  0  0  0  0
 18  1  1  0  0  0  0
 18 11  1  0  0  0  0
 20 22  2  0  0  0  0
 21 22  1  0  0  0  0
 22 19  1  0  0  0  0
 23 25  2  0  0  0  0
 24 23  1  0  0  0  0
 24  5  1  0  0  0  0
 26 24  1  0  0  0  0
 27 28  1  0  0  0  0
 29 27  1  0  0  0  0
 29 23  1  1  0  0  0
 29 28  1  0  0  0  0
 30 27  2  0  0  0  0
 31 14  1  0  0  0  0
 32 33  1  0  0  0  0
 32 31  1  0  0  0  0
M  END
>  <MODEL>
8

>  <REMARK>
 VINA RESULT:      -8.5      3.069      5.546
  Name = 
  5 active torsions:
  status: ('A' for Active; 'I' for Inactive)
    1  A    between atoms: C_4  and  C_30
    2  A    between atoms: C_8  and  C_14
    3  A    between atoms: N_10  and  C_27
    4  A    between atoms: C_11  and  N_16
    5  A    between atoms: C_14  and  C_23
                            x       y       z     vdW  Elec       q    Type
                         _______ _______ _______ _____ _____    ______ ____

>  <TORSDO>
F 5

$$$$
=
 OpenBabel11042409503D

 33 37  0  0  1  0  0  0  0  0999 V2000
  183.3540  178.5590  141.7510 C   0  0  0  0  0  0  0  0  0  0  0  0
  179.3670  179.6360  143.7960 C   0  0  0  0  0  3  0  0  0  0  0  0
  185.9600  178.0030  143.3900 C   0  0  0  0  0  0  0  0  0  0  0  0
  185.0280  178.3600  144.4190 C   0  0  0  0  0  0  0  0  0  0  0  0
  187.2890  177.6830  143.7680 C   0  0  0  0  0  0  0  0  0  0  0  0
  184.5980  178.1830  141.2940 C   0  0  0  0  0  3  0  0  0  0  0  0
  183.6890  178.7010  144.2740 C   0  0  0  0  0  3  0  0  0  0  0  0
  185.4590  178.3880  145.7490 C   0  0  0  0  0  3  0  0  0  0  0  0
  187.6790  177.7270  145.1100 C   0  0  0  0  0  3  0  0  0  0  0  0
  180.7130  179.3870  144.1150 C   0  0  0  0  0  3  0  0  0  0  0  0
  181.5960  179.1180  143.0680 C   0  0  0  0  0  0  0  0  0  0  0  0
  181.1740  179.1030  141.7540 C   0  0  0  0  0  0  0  0  0  0  0  0
  185.6930  177.9540  142.0530 N   0  0  0  0  0  0  0  0  0  0  0  0
  186.7680  178.0750  146.0990 C   0  0  0  0  0  0  0  0  0  0  0  0
  178.9310  179.6010  142.4580 C   0  0  0  0  0  3  0  0  0  0  0  0
  182.2510  178.7870  140.9390 C   0  0  0  0  0  0  0  0  0  0  0  0
  179.8360  179.3250  141.4190 C   0  0  0  0  0  3  0  0  0  0  0  0
  182.9390  178.7930  143.1210 C   0  0  0  0  0  0  0  0  0  0  0  0
  182.1420  177.3590  137.5080 N   0  0  0  0  0  1  0  0  0  0  0  0
  182.2260  178.5690  139.5180 N   0  0  0  0  0  0  0  0  0  0  0  0
  181.8970  176.2200  139.6700 N   0  0  0  0  0  1  0  0  0  0  0  0
  182.1280  177.4160  138.9290 C   0  0  0  0  0  0  0  0  0  0  0  0
  188.6610  178.2060  141.7350 C   0  0  0  0  0  0  0  0  0  0  0  0
  188.2640  177.2990  142.7830 N   0  0  0  0  0  0  0  0  0  0  0  0
  188.1620  179.3660  141.6860 O   0  0  0  0  0  0  0  0  0  0  0  0
  188.9200  176.0050  142.9270 C   0  0  0  0  0  1  0  0  0  0  0  0
  189.2780  178.1250  139.4400 C   0  0  0  0  0  0  0  0  0  0  0  0
  189.2590  176.7350  139.9940 O   0  0  0  0  0  0  0  0  0  0  0  0
  189.6970  177.8110  140.7190 C   0  0  2  0  0  3  0  0  0  0  0  0
  189.0510  178.9890  138.4630 C   0  0  0  0  0  2  0  0  0  0  0  0
  187.1970  178.1370  147.5230 C   0  0  0  0  0  2  0  0  0  0  0  0
  188.5470  177.4660  147.6930 C   0  0  0  0  0  2  0  0  0  0  0  0
  189.3750  178.2450  148.6920 C   0  0  0  0  0  1  0  0  0  0  0  0
  1 18  1  0  0  0  0
  2 10  1  0  0  0  0
  3  5  2  0  0  0  0
  3  4  1  0  0  0  0
  4  8  2  0  0  0  0
  5  9  1  0  0  0  0
  6  1  1  0  0  0  0
  6 13  2  0  0  0  0
  7  4  1  0  0  0  0
  8 14  1  0  0  0  0
  9 14  2  0  0  0  0
 11 18  1  0  0  0  0
 11 10  2  0  0  0  0
 12 11  1  0  0  0  0
 13  3  1  0  0  0  0
 14 31  1  0  0  0  0
 15  2  2  0  0  0  0
 16  1  2  0  0  0  0
 16 12  1  0  0  0  0
 17 12  2  0  0  0  0
 17 15  1  0  0  0  0
 18  7  2  0  0  0  0
 19 22  1  0  0  0  0
 20 16  1  0  0  0  0
 22 20  2  0  0  0  0
 22 21  1  0  0  0  0
 23 24  1  0  0  0  0
 24 26  1  0  0  0  0
 24  5  1  0  0  0  0
 25 23  2  0  0  0  0
 27 28  1  0  0  0  0
 27 29  1  0  0  0  0
 28 29  1  0  0  0  0
 29 23  1  1  0  0  0
 30 27  2  0  0  0  0
 31 32  1  0  0  0  0
 32 33  1  0  0  0  0
M  END
>  <MODEL>
9

>  <REMARK>
 VINA RESULT:      -8.4      2.328      7.377
  Name = 
  5 active torsions:
  status: ('A' for Active; 'I' for Inactive)
    1  A    between atoms: C_4  and  C_30
    2  A    between atoms: C_8  and  C_14
    3  A    between atoms: N_10  and  C_27
    4  A    between atoms: C_11  and  N_16
    5  A    between atoms: C_14  and  C_23
                            x       y       z     vdW  Elec       q    Type
                         _______ _______ _______ _____ _____    ______ ____

>  <TORSDO>
F 5

$$$$
