=
 OpenBabel11042413103D

 32 33  0  0  1  0  0  0  0  0999 V2000
  185.5780  178.1240  144.2230 C   0  0  0  0  0  0  0  0  0  0  0  0
  186.8130  177.4240  144.2560 C   0  0  0  0  0  0  0  0  0  0  0  0
  187.5310  177.3750  145.4550 C   0  0  0  0  0  3  0  0  0  0  0  0
  187.0540  178.0030  146.6090 C   0  0  0  0  0  0  0  0  0  0  0  0
  185.8450  178.6990  146.5680 C   0  0  0  0  0  3  0  0  0  0  0  0
  185.1120  178.7540  145.3830 C   0  0  0  0  0  3  0  0  0  0  0  0
  184.7080  178.1990  143.0070 C   0  0  0  0  0  2  0  0  0  0  0  0
  184.9260  179.5060  142.2600 C   0  0  0  0  0  2  0  0  0  0  0  0
  185.3120  178.9200  138.6750 O   0  0  0  0  0  0  0  0  0  0  0  0
  183.3190  179.2950  139.8340 N   0  0  0  0  0  2  0  0  0  0  0  0
  184.7420  179.1460  139.7750 C   0  0  0  0  0  0  0  0  0  0  0  0
  185.5270  179.2490  140.9620 N   0  0  0  0  0  2  0  0  0  0  0  0
  181.4190  178.2530  138.8710 N   0  0  0  0  0  1  0  0  0  0  0  0
  181.8480  180.5840  138.3850 C   0  0  0  0  0  1  0  0  0  0  0  0
  182.4720  179.2270  138.6530 C   0  0  1  0  0  3  0  0  0  0  0  0
  187.8490  177.9580  147.8700 C   0  0  0  0  0  2  0  0  0  0  0  0
  190.2090  177.3560  147.5170 C   0  0  0  0  0  3  0  0  0  0  0  0
  188.9610  176.9640  147.7720 C   0  0  0  0  0  3  0  0  0  0  0  0
  192.3780  176.7470  148.2300 O   0  0  0  0  0  1  0  0  0  0  0  0
  191.3160  176.3560  147.4140 C   0  0  2  0  0  3  0  0  0  0  0  0
  191.4300  177.5130  145.2070 C   0  0  0  0  0  1  0  0  0  0  0  0
  191.7990  176.2580  145.9780 C   0  0  0  0  0  2  0  0  0  0  0  0
  187.3890  176.7560  143.1220 N   0  0  0  0  0  2  0  0  0  0  0  0
  188.7990  176.4670  142.9160 C   0  0  0  0  0  2  0  0  0  0  0  0
  189.4280  177.5820  142.2250 N   0  0  0  0  0  2  0  0  0  0  0  0
  188.6950  178.2430  140.0410 C   0  0  0  0  0  3  0  0  0  0  0  0
  188.9500  177.1580  137.8330 C   0  0  0  0  0  3  0  0  0  0  0  0
  189.9410  176.2920  138.0390 C   0  0  0  0  0  3  0  0  0  0  0  0
  190.8420  177.0210  140.2640 C   0  0  0  0  0  3  0  0  0  0  0  0
  188.8380  178.4500  138.5690 C   0  0  0  0  0  2  0  0  0  0  0  0
  189.6090  177.6310  140.8070 C   0  0  0  0  0  0  0  0  0  0  0  0
  190.9870  176.4370  139.0690 C   0  0  0  0  0  3  0  0  0  0  0  0
  1  2  2  0  0  0  0
  1  6  1  0  0  0  0
  2  3  1  0  0  0  0
  3  4  2  0  0  0  0
  4 16  1  0  0  0  0
  5  4  1  0  0  0  0
  6  5  2  0  0  0  0
  7  1  1  0  0  0  0
  8  7  1  0  0  0  0
  9 11  2  0  0  0  0
 11 10  1  0  0  0  0
 11 12  1  0  0  0  0
 12  8  1  0  0  0  0
 15 14  1  1  0  0  0
 15 13  1  0  0  0  0
 15 10  1  0  0  0  0
 17 18  2  0  0  0  0
 18 16  1  0  0  0  0
 20 17  1  0  0  0  0
 20 19  1  1  0  0  0
 21 22  1  0  0  0  0
 22 20  1  0  0  0  0
 23  2  1  0  0  0  0
 24 23  1  0  0  0  0
 25 24  1  0  0  0  0
 26 31  2  0  0  0  0
 27 28  2  0  0  0  0
 27 30  1  0  0  0  0
 28 32  1  0  0  0  0
 29 31  1  0  0  0  0
 30 26  1  0  0  0  0
 31 25  1  0  0  0  0
 32 29  2  0  0  0  0
M  END
>  <MODEL>
1

>  <REMARK>
 VINA RESULT:      -8.6      0.000      0.000
  Name = 
  12 active torsions:
  status: ('A' for Active; 'I' for Inactive)
    1  A    between atoms: N_1  and  C_25
    2  A    between atoms: N_1  and  C_32
    3  A    between atoms: C_2  and  C_27
    4  A    between atoms: C_3  and  C_16
    5  A    between atoms: C_6  and  N_31
    6  A    between atoms: C_10  and  C_19
    7  A    between atoms: N_14  and  C_18
    8  A    between atoms: C_16  and  C_23
    9  A    between atoms: C_19  and  C_24
   10  A    between atoms: C_20  and  C_27
   11  A    between atoms: C_23  and  N_28
   12  A    between atoms: N_31  and  C_32
                            x       y       z     vdW  Elec       q    Type
                         _______ _______ _______ _____ _____    ______ ____

>  <TORSDO>
F 12

$$$$
=
 OpenBabel11042413103D

 32 33  0  0  1  0  0  0  0  0999 V2000
  185.1710  178.4050  144.6250 C   0  0  0  0  0  0  0  0  0  0  0  0
  186.4800  177.8900  144.4260 C   0  0  0  0  0  0  0  0  0  0  0  0
  187.3260  177.7470  145.5320 C   0  0  0  0  0  3  0  0  0  0  0  0
  186.9030  178.1040  146.8150 C   0  0  0  0  0  0  0  0  0  0  0  0
  185.6190  178.6180  147.0030 C   0  0  0  0  0  3  0  0  0  0  0  0
  184.7600  178.7630  145.9150 C   0  0  0  0  0  3  0  0  0  0  0  0
  184.1710  178.5540  143.5220 C   0  0  0  0  0  2  0  0  0  0  0  0
  182.9920  179.4070  143.9670 C   0  0  0  0  0  2  0  0  0  0  0  0
  179.6280  178.0600  143.4990 O   0  0  0  0  0  0  0  0  0  0  0  0
  180.5990  179.8530  142.3590 N   0  0  0  0  0  2  0  0  0  0  0  0
  180.6330  178.8010  143.3300 C   0  0  0  0  0  0  0  0  0  0  0  0
  181.8030  178.5840  144.1160 N   0  0  0  0  0  2  0  0  0  0  0  0
  179.2230  181.5330  141.4070 N   0  0  0  0  0  1  0  0  0  0  0  0
  179.6860  179.5330  140.1250 C   0  0  0  0  0  1  0  0  0  0  0  0
  179.4430  180.1030  141.5100 C   0  0  1  0  0  3  0  0  0  0  0  0
  187.8300  177.9660  147.9750 C   0  0  0  0  0  2  0  0  0  0  0  0
  189.7990  176.6010  147.4090 C   0  0  0  0  0  3  0  0  0  0  0  0
  189.2460  177.8090  147.5190 C   0  0  0  0  0  3  0  0  0  0  0  0
  192.0730  177.0050  147.9100 O   0  0  0  0  0  1  0  0  0  0  0  0
  191.2170  176.4510  146.9580 C   0  0  2  0  0  3  0  0  0  0  0  0
  191.5740  176.1500  144.5080 C   0  0  0  0  0  1  0  0  0  0  0  0
  191.4200  177.1600  145.6310 C   0  0  0  0  0  2  0  0  0  0  0  0
  187.0070  177.5070  143.1470 N   0  0  0  0  0  2  0  0  0  0  0  0
  188.2110  176.7260  142.9090 C   0  0  0  0  0  2  0  0  0  0  0  0
  189.2270  177.5730  142.3030 N   0  0  0  0  0  2  0  0  0  0  0  0
  188.6060  178.2900  140.1010 C   0  0  0  0  0  3  0  0  0  0  0  0
  188.9070  177.2250  137.8890 C   0  0  0  0  0  3  0  0  0  0  0  0
  189.8560  176.3200  138.1210 C   0  0  0  0  0  3  0  0  0  0  0  0
  190.6950  176.9860  140.3890 C   0  0  0  0  0  3  0  0  0  0  0  0
  188.8140  178.5110  138.6390 C   0  0  0  0  0  2  0  0  0  0  0  0
  189.4650  177.6340  140.8930 C   0  0  0  0  0  0  0  0  0  0  0  0
  190.8660  176.4120  139.1920 C   0  0  0  0  0  3  0  0  0  0  0  0
  1  6  1  0  0  0  0
  2  1  2  0  0  0  0
  2  3  1  0  0  0  0
  3  4  2  0  0  0  0
  4  5  1  0  0  0  0
  4 16  1  0  0  0  0
  6  5  2  0  0  0  0
  7  8  1  0  0  0  0
  7  1  1  0  0  0  0
  8 12  1  0  0  0  0
 10 11  1  0  0  0  0
 11  9  2  0  0  0  0
 11 12  1  0  0  0  0
 13 15  1  0  0  0  0
 15 14  1  6  0  0  0
 15 10  1  0  0  0  0
 17 18  2  0  0  0  0
 18 16  1  0  0  0  0
 20 17  1  0  0  0  0
 20 19  1  1  0  0  0
 21 22  1  0  0  0  0
 22 20  1  0  0  0  0
 23  2  1  0  0  0  0
 24 23  1  0  0  0  0
 25 24  1  0  0  0  0
 26 31  2  0  0  0  0
 27 28  2  0  0  0  0
 27 30  1  0  0  0  0
 28 32  1  0  0  0  0
 29 31  1  0  0  0  0
 30 26  1  0  0  0  0
 31 25  1  0  0  0  0
 32 29  2  0  0  0  0
M  END
>  <MODEL>
2

>  <REMARK>
 VINA RESULT:      -8.5      2.297      2.431
  Name = 
  12 active torsions:
  status: ('A' for Active; 'I' for Inactive)
    1  A    between atoms: N_1  and  C_25
    2  A    between atoms: N_1  and  C_32
    3  A    between atoms: C_2  and  C_27
    4  A    between atoms: C_3  and  C_16
    5  A    between atoms: C_6  and  N_31
    6  A    between atoms: C_10  and  C_19
    7  A    between atoms: N_14  and  C_18
    8  A    between atoms: C_16  and  C_23
    9  A    between atoms: C_19  and  C_24
   10  A    between atoms: C_20  and  C_27
   11  A    between atoms: C_23  and  N_28
   12  A    between atoms: N_31  and  C_32
                            x       y       z     vdW  Elec       q    Type
                         _______ _______ _______ _____ _____    ______ ____

>  <TORSDO>
F 12

$$$$
=
 OpenBabel11042413103D

 32 33  0  0  1  0  0  0  0  0999 V2000
  185.0070  178.5110  144.4720 C   0  0  0  0  0  0  0  0  0  0  0  0
  186.3020  177.9850  144.2190 C   0  0  0  0  0  0  0  0  0  0  0  0
  187.1650  177.7630  145.2990 C   0  0  0  0  0  3  0  0  0  0  0  0
  186.7710  178.0520  146.6080 C   0  0  0  0  0  0  0  0  0  0  0  0
  185.5020  178.5780  146.8490 C   0  0  0  0  0  3  0  0  0  0  0  0
  184.6260  178.8010  145.7880 C   0  0  0  0  0  3  0  0  0  0  0  0
  183.9900  178.7420  143.3980 C   0  0  0  0  0  2  0  0  0  0  0  0
  182.5780  178.6450  143.9560 C   0  0  0  0  0  2  0  0  0  0  0  0
  180.1560  180.4680  141.9170 O   0  0  0  0  0  0  0  0  0  0  0  0
  180.7270  178.2090  141.7440 N   0  0  0  0  0  2  0  0  0  0  0  0
  180.8470  179.5050  142.3420 C   0  0  0  0  0  0  0  0  0  0  0  0
  181.7530  179.7170  143.4230 N   0  0  0  0  0  2  0  0  0  0  0  0
  180.4840  178.0900  139.3880 N   0  0  0  0  0  1  0  0  0  0  0  0
  179.2860  176.5050  140.7710 C   0  0  0  0  0  1  0  0  0  0  0  0
  179.8000  177.9280  140.6570 C   0  0  1  0  0  3  0  0  0  0  0  0
  187.7160  177.8290  147.7400 C   0  0  0  0  0  2  0  0  0  0  0  0
  189.8080  176.5800  147.3880 C   0  0  0  0  0  3  0  0  0  0  0  0
  189.1260  177.7170  147.2530 C   0  0  0  0  0  3  0  0  0  0  0  0
  192.0880  176.9450  147.8890 O   0  0  0  0  0  1  0  0  0  0  0  0
  191.2190  176.4750  146.9050 C   0  0  2  0  0  3  0  0  0  0  0  0
  191.3620  176.4080  144.4150 C   0  0  0  0  0  1  0  0  0  0  0  0
  191.4000  177.3000  145.6420 C   0  0  0  0  0  2  0  0  0  0  0  0
  186.7990  177.6670  142.9100 N   0  0  0  0  0  2  0  0  0  0  0  0
  188.0430  176.9790  142.6030 C   0  0  0  0  0  2  0  0  0  0  0  0
  188.9730  177.9110  141.9830 N   0  0  0  0  0  2  0  0  0  0  0  0
  188.6360  178.4410  139.6700 C   0  0  0  0  0  3  0  0  0  0  0  0
  189.1380  177.1660  137.6100 C   0  0  0  0  0  3  0  0  0  0  0  0
  190.0140  176.2550  138.0300 C   0  0  0  0  0  3  0  0  0  0  0  0
  190.6200  177.1000  140.3130 C   0  0  0  0  0  3  0  0  0  0  0  0
  189.0170  178.5180  138.2280 C   0  0  0  0  0  2  0  0  0  0  0  0
  189.3710  177.8330  140.6110 C   0  0  0  0  0  0  0  0  0  0  0  0
  190.8990  176.4120  139.1990 C   0  0  0  0  0  3  0  0  0  0  0  0
  1  6  1  0  0  0  0
  2  1  2  0  0  0  0
  2  3  1  0  0  0  0
  3  4  2  0  0  0  0
  4  5  1  0  0  0  0
  4 16  1  0  0  0  0
  6  5  2  0  0  0  0
  7  8  1  0  0  0  0
  7  1  1  0  0  0  0
  9 11  2  0  0  0  0
 10 11  1  0  0  0  0
 11 12  1  0  0  0  0
 12  8  1  0  0  0  0
 13 15  1  0  0  0  0
 15 14  1  1  0  0  0
 15 10  1  0  0  0  0
 18 17  2  0  0  0  0
 18 16  1  0  0  0  0
 20 17  1  0  0  0  0
 20 19  1  1  0  0  0
 21 22  1  0  0  0  0
 22 20  1  0  0  0  0
 23  2  1  0  0  0  0
 24 23  1  0  0  0  0
 25 24  1  0  0  0  0
 26 31  2  0  0  0  0
 27 28  2  0  0  0  0
 27 30  1  0  0  0  0
 28 32  1  0  0  0  0
 29 31  1  0  0  0  0
 30 26  1  0  0  0  0
 31 25  1  0  0  0  0
 32 29  2  0  0  0  0
M  END
>  <MODEL>
3

>  <REMARK>
 VINA RESULT:      -8.3      2.033      2.216
  Name = 
  12 active torsions:
  status: ('A' for Active; 'I' for Inactive)
    1  A    between atoms: N_1  and  C_25
    2  A    between atoms: N_1  and  C_32
    3  A    between atoms: C_2  and  C_27
    4  A    between atoms: C_3  and  C_16
    5  A    between atoms: C_6  and  N_31
    6  A    between atoms: C_10  and  C_19
    7  A    between atoms: N_14  and  C_18
    8  A    between atoms: C_16  and  C_23
    9  A    between atoms: C_19  and  C_24
   10  A    between atoms: C_20  and  C_27
   11  A    between atoms: C_23  and  N_28
   12  A    between atoms: N_31  and  C_32
                            x       y       z     vdW  Elec       q    Type
                         _______ _______ _______ _____ _____    ______ ____

>  <TORSDO>
F 12

$$$$
=
 OpenBabel11042413103D

 32 33  0  0  1  0  0  0  0  0999 V2000
  185.6650  178.0180  143.6370 C   0  0  0  0  0  0  0  0  0  0  0  0
  185.0390  178.6500  144.7450 C   0  0  0  0  0  0  0  0  0  0  0  0
  185.6810  178.6300  145.9880 C   0  0  0  0  0  3  0  0  0  0  0  0
  186.9170  177.9990  146.1510 C   0  0  0  0  0  0  0  0  0  0  0  0
  187.5230  177.3710  145.0620 C   0  0  0  0  0  3  0  0  0  0  0  0
  186.9020  177.3850  143.8140 C   0  0  0  0  0  3  0  0  0  0  0  0
  185.0900  178.0220  142.2550 C   0  0  0  0  0  2  0  0  0  0  0  0
  185.6390  179.1840  141.4400 C   0  0  0  0  0  2  0  0  0  0  0  0
  185.9060  178.5520  137.8510 O   0  0  0  0  0  0  0  0  0  0  0  0
  187.6290  178.4790  139.4270 N   0  0  0  0  0  2  0  0  0  0  0  0
  186.2610  178.6780  139.0530 C   0  0  0  0  0  0  0  0  0  0  0  0
  185.2890  179.0230  140.0380 N   0  0  0  0  0  2  0  0  0  0  0  0
  189.0920  179.2750  137.7390 N   0  0  0  0  0  1  0  0  0  0  0  0
  189.8450  177.4980  139.1990 C   0  0  0  0  0  1  0  0  0  0  0  0
  188.6580  178.0990  138.4700 C   0  0  1  0  0  3  0  0  0  0  0  0
  187.5710  177.9680  147.4910 C   0  0  0  0  0  2  0  0  0  0  0  0
  189.9610  177.4410  147.2250 C   0  0  0  0  0  3  0  0  0  0  0  0
  188.7280  177.0200  147.5060 C   0  0  0  0  0  3  0  0  0  0  0  0
  192.1070  176.9640  148.0900 O   0  0  0  0  0  1  0  0  0  0  0  0
  191.1120  176.4880  147.2350 C   0  0  2  0  0  3  0  0  0  0  0  0
  191.3730  177.5770  145.0060 C   0  0  0  0  0  1  0  0  0  0  0  0
  191.6830  176.3440  145.8350 C   0  0  0  0  0  2  0  0  0  0  0  0
  183.7670  179.3140  144.6770 N   0  0  0  0  0  2  0  0  0  0  0  0
  182.4850  178.6950  144.3830 C   0  0  0  0  0  2  0  0  0  0  0  0
  181.8230  179.4320  143.3160 N   0  0  0  0  0  2  0  0  0  0  0  0
  179.9640  178.2460  142.3760 C   0  0  0  0  0  3  0  0  0  0  0  0
  179.8490  176.5320  140.5970 C   0  0  0  0  0  3  0  0  0  0  0  0
  181.0160  176.6730  139.9710 C   0  0  0  0  0  3  0  0  0  0  0  0
  181.8720  178.8370  140.9070 C   0  0  0  0  0  3  0  0  0  0  0  0
  179.1480  177.6640  141.2690 C   0  0  0  0  0  2  0  0  0  0  0  0
  181.1720  178.8020  142.2090 C   0  0  0  0  0  0  0  0  0  0  0  0
  181.8110  177.9150  139.9390 C   0  0  0  0  0  3  0  0  0  0  0  0
  1  6  2  0  0  0  0
  1  2  1  0  0  0  0
  2  3  2  0  0  0  0
  3  4  1  0  0  0  0
  4 16  1  0  0  0  0
  5  4  2  0  0  0  0
  6  5  1  0  0  0  0
  7  1  1  0  0  0  0
  8  7  1  0  0  0  0
  9 11  2  0  0  0  0
 11 10  1  0  0  0  0
 11 12  1  0  0  0  0
 12  8  1  0  0  0  0
 13 15  1  0  0  0  0
 15 14  1  1  0  0  0
 15 10  1  0  0  0  0
 16 18  1  0  0  0  0
 17 20  1  0  0  0  0
 17 18  2  0  0  0  0
 20 19  1  1  0  0  0
 21 22  1  0  0  0  0
 22 20  1  0  0  0  0
 23  2  1  0  0  0  0
 24 23  1  0  0  0  0
 25 24  1  0  0  0  0
 27 30  1  0  0  0  0
 28 27  2  0  0  0  0
 29 31  1  0  0  0  0
 30 26  1  0  0  0  0
 31 26  2  0  0  0  0
 31 25  1  0  0  0  0
 32 28  1  0  0  0  0
 32 29  2  0  0  0  0
M  END
>  <MODEL>
4

>  <REMARK>
 VINA RESULT:      -8.3      2.330      5.485
  Name = 
  12 active torsions:
  status: ('A' for Active; 'I' for Inactive)
    1  A    between atoms: N_1  and  C_25
    2  A    between atoms: N_1  and  C_32
    3  A    between atoms: C_2  and  C_27
    4  A    between atoms: C_3  and  C_16
    5  A    between atoms: C_6  and  N_31
    6  A    between atoms: C_10  and  C_19
    7  A    between atoms: N_14  and  C_18
    8  A    between atoms: C_16  and  C_23
    9  A    between atoms: C_19  and  C_24
   10  A    between atoms: C_20  and  C_27
   11  A    between atoms: C_23  and  N_28
   12  A    between atoms: N_31  and  C_32
                            x       y       z     vdW  Elec       q    Type
                         _______ _______ _______ _____ _____    ______ ____

>  <TORSDO>
F 12

$$$$
=
 OpenBabel11042413103D

 32 33  0  0  1  0  0  0  0  0999 V2000
  185.2470  178.2870  144.4790 C   0  0  0  0  0  0  0  0  0  0  0  0
  186.5430  177.7220  144.3430 C   0  0  0  0  0  0  0  0  0  0  0  0
  187.3580  177.6180  145.4750 C   0  0  0  0  0  3  0  0  0  0  0  0
  186.9170  178.0620  146.7250 C   0  0  0  0  0  0  0  0  0  0  0  0
  185.6470  178.6250  146.8510 C   0  0  0  0  0  3  0  0  0  0  0  0
  184.8180  178.7330  145.7350 C   0  0  0  0  0  3  0  0  0  0  0  0
  184.2770  178.4020  143.3440 C   0  0  0  0  0  2  0  0  0  0  0  0
  183.0460  179.1950  143.7580 C   0  0  0  0  0  2  0  0  0  0  0  0
  180.9660  178.4830  140.8400 O   0  0  0  0  0  0  0  0  0  0  0  0
  183.1980  179.1750  140.8450 N   0  0  0  0  0  2  0  0  0  0  0  0
  181.9820  178.8120  141.5090 C   0  0  0  0  0  0  0  0  0  0  0  0
  181.9080  178.8220  142.9330 N   0  0  0  0  0  2  0  0  0  0  0  0
  184.2820  180.1810  138.9920 N   0  0  0  0  0  1  0  0  0  0  0  0
  183.8480  177.8010  138.9440 C   0  0  0  0  0  1  0  0  0  0  0  0
  183.3380  179.1560  139.3970 C   0  0  1  0  0  3  0  0  0  0  0  0
  187.8130  177.9630  147.9140 C   0  0  0  0  0  2  0  0  0  0  0  0
  190.1530  177.3500  147.4590 C   0  0  0  0  0  3  0  0  0  0  0  0
  188.8990  176.9600  147.6890 C   0  0  0  0  0  3  0  0  0  0  0  0
  192.3240  176.6290  148.0520 O   0  0  0  0  0  1  0  0  0  0  0  0
  191.2340  176.3430  147.2280 C   0  0  2  0  0  3  0  0  0  0  0  0
  191.2190  177.6620  145.1120 C   0  0  0  0  0  1  0  0  0  0  0  0
  191.6800  176.3790  145.7770 C   0  0  0  0  0  2  0  0  0  0  0  0
  187.0870  177.2480  143.1010 N   0  0  0  0  0  2  0  0  0  0  0  0
  188.4230  177.5050  142.5910 C   0  0  0  0  0  2  0  0  0  0  0  0
  188.3370  178.3360  141.3990 N   0  0  0  0  0  2  0  0  0  0  0  0
  188.4980  178.4370  139.0090 C   0  0  0  0  0  3  0  0  0  0  0  0
  189.4340  176.8450  137.3640 C   0  0  0  0  0  3  0  0  0  0  0  0
  190.2040  176.0600  138.1150 C   0  0  0  0  0  3  0  0  0  0  0  0
  190.3060  177.3160  140.2840 C   0  0  0  0  0  3  0  0  0  0  0  0
  189.1780  178.2780  137.6890 C   0  0  0  0  0  2  0  0  0  0  0  0
  189.0190  178.0360  140.1770 C   0  0  0  0  0  0  0  0  0  0  0  0
  190.8190  176.4570  139.3950 C   0  0  0  0  0  3  0  0  0  0  0  0
  1  6  1  0  0  0  0
  2  1  2  0  0  0  0
  2  3  1  0  0  0  0
  3  4  2  0  0  0  0
  4  5  1  0  0  0  0
  4 16  1  0  0  0  0
  6  5  2  0  0  0  0
  7  8  1  0  0  0  0
  7  1  1  0  0  0  0
  9 11  2  0  0  0  0
 10 11  1  0  0  0  0
 11 12  1  0  0  0  0
 12  8  1  0  0  0  0
 13 15  1  0  0  0  0
 15 14  1  1  0  0  0
 15 10  1  0  0  0  0
 17 18  2  0  0  0  0
 18 16  1  0  0  0  0
 20 17  1  0  0  0  0
 20 19  1  1  0  0  0
 21 22  1  0  0  0  0
 22 20  1  0  0  0  0
 23  2  1  0  0  0  0
 24 23  1  0  0  0  0
 25 24  1  0  0  0  0
 26 31  2  0  0  0  0
 27 30  1  0  0  0  0
 27 28  2  0  0  0  0
 28 32  1  0  0  0  0
 30 26  1  0  0  0  0
 31 29  1  0  0  0  0
 31 25  1  0  0  0  0
 32 29  2  0  0  0  0
M  END
>  <MODEL>
5

>  <REMARK>
 VINA RESULT:      -8.2      1.422      1.710
  Name = 
  12 active torsions:
  status: ('A' for Active; 'I' for Inactive)
    1  A    between atoms: N_1  and  C_25
    2  A    between atoms: N_1  and  C_32
    3  A    between atoms: C_2  and  C_27
    4  A    between atoms: C_3  and  C_16
    5  A    between atoms: C_6  and  N_31
    6  A    between atoms: C_10  and  C_19
    7  A    between atoms: N_14  and  C_18
    8  A    between atoms: C_16  and  C_23
    9  A    between atoms: C_19  and  C_24
   10  A    between atoms: C_20  and  C_27
   11  A    between atoms: C_23  and  N_28
   12  A    between atoms: N_31  and  C_32
                            x       y       z     vdW  Elec       q    Type
                         _______ _______ _______ _____ _____    ______ ____

>  <TORSDO>
F 12

$$$$
=
 OpenBabel11042413103D

 32 33  0  0  1  0  0  0  0  0999 V2000
  183.4150  178.8580  141.7970 C   0  0  0  0  0  0  0  0  0  0  0  0
  184.7830  179.0920  142.0990 C   0  0  0  0  0  0  0  0  0  0  0  0
  185.1850  179.1240  143.4390 C   0  0  0  0  0  3  0  0  0  0  0  0
  184.2640  178.9320  144.4720 C   0  0  0  0  0  0  0  0  0  0  0  0
  182.9200  178.7120  144.1710 C   0  0  0  0  0  3  0  0  0  0  0  0
  182.5010  178.6720  142.8410 C   0  0  0  0  0  3  0  0  0  0  0  0
  182.8870  178.7580  140.4000 C   0  0  0  0  0  2  0  0  0  0  0  0
  183.0990  177.3600  139.8360 C   0  0  0  0  0  2  0  0  0  0  0  0
  183.5990  177.4290  136.2180 O   0  0  0  0  0  0  0  0  0  0  0  0
  185.2460  177.5510  137.8710 N   0  0  0  0  0  2  0  0  0  0  0  0
  183.8830  177.4420  137.4450 C   0  0  0  0  0  0  0  0  0  0  0  0
  182.8340  177.3490  138.4070 N   0  0  0  0  0  2  0  0  0  0  0  0
  187.1030  178.8450  137.1620 N   0  0  0  0  0  1  0  0  0  0  0  0
  187.2790  176.4320  137.1360 C   0  0  0  0  0  1  0  0  0  0  0  0
  186.3590  177.6200  136.9350 C   0  0  1  0  0  3  0  0  0  0  0  0
  184.7110  178.9930  145.8940 C   0  0  0  0  0  2  0  0  0  0  0  0
  186.8520  178.3070  146.8960 C   0  0  0  0  0  3  0  0  0  0  0  0
  185.7830  177.9870  146.1670 C   0  0  0  0  0  3  0  0  0  0  0  0
  188.0930  177.1440  148.5370 O   0  0  0  0  0  1  0  0  0  0  0  0
  187.9240  177.2980  147.1600 C   0  0  2  0  0  3  0  0  0  0  0  0
  190.3690  176.8430  146.9740 C   0  0  0  0  0  1  0  0  0  0  0  0
  189.2340  177.7550  146.5440 C   0  0  0  0  0  2  0  0  0  0  0  0
  185.7990  179.3100  141.1080 N   0  0  0  0  0  2  0  0  0  0  0  0
  186.9020  178.4170  140.7920 C   0  0  0  0  0  2  0  0  0  0  0  0
  188.1300  178.9360  141.3750 N   0  0  0  0  0  2  0  0  0  0  0  0
  190.2060  178.5960  142.5250 C   0  0  0  0  0  3  0  0  0  0  0  0
  191.3760  176.5280  143.2090 C   0  0  0  0  0  3  0  0  0  0  0  0
  190.4140  175.6080  143.1530 C   0  0  0  0  0  3  0  0  0  0  0  0
  188.3440  177.0070  142.9210 C   0  0  0  0  0  3  0  0  0  0  0  0
  191.1100  177.9600  143.5280 C   0  0  0  0  0  2  0  0  0  0  0  0
  188.9530  178.1890  142.2760 C   0  0  0  0  0  0  0  0  0  0  0  0
  188.9730  175.8870  143.2970 C   0  0  0  0  0  3  0  0  0  0  0  0
  1  2  2  0  0  0  0
  1  6  1  0  0  0  0
  2  3  1  0  0  0  0
  3  4  2  0  0  0  0
  4 16  1  0  0  0  0
  5  4  1  0  0  0  0
  6  5  2  0  0  0  0
  7  1  1  0  0  0  0
  8  7  1  0  0  0  0
  9 11  2  0  0  0  0
 11 10  1  0  0  0  0
 11 12  1  0  0  0  0
 12  8  1  0  0  0  0
 15 14  1  1  0  0  0
 15 13  1  0  0  0  0
 15 10  1  0  0  0  0
 16 18  1  0  0  0  0
 17 20  1  0  0  0  0
 18 17  2  0  0  0  0
 20 19  1  1  0  0  0
 22 21  1  0  0  0  0
 22 20  1  0  0  0  0
 23  2  1  0  0  0  0
 24 23  1  0  0  0  0
 24 25  1  0  0  0  0
 25 31  1  0  0  0  0
 26 30  1  0  0  0  0
 27 30  1  0  0  0  0
 28 27  2  0  0  0  0
 28 32  1  0  0  0  0
 29 32  2  0  0  0  0
 31 26  2  0  0  0  0
 31 29  1  0  0  0  0
M  END
>  <MODEL>
6

>  <REMARK>
 VINA RESULT:      -8.1      2.115      3.982
  Name = 
  12 active torsions:
  status: ('A' for Active; 'I' for Inactive)
    1  A    between atoms: N_1  and  C_25
    2  A    between atoms: N_1  and  C_32
    3  A    between atoms: C_2  and  C_27
    4  A    between atoms: C_3  and  C_16
    5  A    between atoms: C_6  and  N_31
    6  A    between atoms: C_10  and  C_19
    7  A    between atoms: N_14  and  C_18
    8  A    between atoms: C_16  and  C_23
    9  A    between atoms: C_19  and  C_24
   10  A    between atoms: C_20  and  C_27
   11  A    between atoms: C_23  and  N_28
   12  A    between atoms: N_31  and  C_32
                            x       y       z     vdW  Elec       q    Type
                         _______ _______ _______ _____ _____    ______ ____

>  <TORSDO>
F 12

$$$$
=
 OpenBabel11042413103D

 32 33  0  0  1  0  0  0  0  0999 V2000
  189.6820  176.8130  142.6660 C   0  0  0  0  0  0  0  0  0  0  0  0
  189.6740  177.3600  141.3550 C   0  0  0  0  0  0  0  0  0  0  0  0
  188.5280  178.0240  140.9060 C   0  0  0  0  0  3  0  0  0  0  0  0
  187.4010  178.1510  141.7220 C   0  0  0  0  0  0  0  0  0  0  0  0
  187.4100  177.6030  143.0050 C   0  0  0  0  0  3  0  0  0  0  0  0
  188.5450  176.9430  143.4740 C   0  0  0  0  0  3  0  0  0  0  0  0
  190.8700  176.1260  143.2640 C   0  0  0  0  0  2  0  0  0  0  0  0
  191.6210  177.0560  144.2060 C   0  0  0  0  0  2  0  0  0  0  0  0
  191.4650  175.8220  147.6410 O   0  0  0  0  0  0  0  0  0  0  0  0
  189.9310  177.2270  146.5770 N   0  0  0  0  0  2  0  0  0  0  0  0
  191.1290  176.4430  146.5980 C   0  0  0  0  0  0  0  0  0  0  0  0
  191.9550  176.3610  145.4380 N   0  0  0  0  0  2  0  0  0  0  0  0
  189.4180  178.4650  148.5340 N   0  0  0  0  0  1  0  0  0  0  0  0
  187.6070  177.5060  147.2460 C   0  0  0  0  0  1  0  0  0  0  0  0
  189.0370  177.3250  147.7220 C   0  0  1  0  0  3  0  0  0  0  0  0
  186.1810  178.8410  141.2120 C   0  0  0  0  0  2  0  0  0  0  0  0
  184.1390  178.3490  142.4970 C   0  0  0  0  0  3  0  0  0  0  0  0
  185.2140  179.1170  142.3200 C   0  0  0  0  0  3  0  0  0  0  0  0
  182.0630  179.3070  143.0920 O   0  0  0  0  0  1  0  0  0  0  0  0
  183.1730  178.6330  143.6020 C   0  0  2  0  0  3  0  0  0  0  0  0
  184.5620  178.6210  145.6730 C   0  0  0  0  0  1  0  0  0  0  0  0
  183.8340  179.4920  144.6650 C   0  0  0  0  0  2  0  0  0  0  0  0
  190.7780  177.2710  140.4410 N   0  0  0  0  0  2  0  0  0  0  0  0
  190.8790  176.3840  139.2940 C   0  0  0  0  0  2  0  0  0  0  0  0
  190.6320  177.1380  138.0740 N   0  0  0  0  0  2  0  0  0  0  0  0
  188.8750  178.5190  137.2050 C   0  0  0  0  0  3  0  0  0  0  0  0
  186.4160  178.2550  137.2470 C   0  0  0  0  0  3  0  0  0  0  0  0
  186.2600  176.9610  137.5200 C   0  0  0  0  0  3  0  0  0  0  0  0
  188.5780  176.0570  137.1960 C   0  0  0  0  0  3  0  0  0  0  0  0
  187.5890  178.7880  136.4950 C   0  0  0  0  0  2  0  0  0  0  0  0
  189.3350  177.2920  137.4900 C   0  0  0  0  0  0  0  0  0  0  0  0
  187.2480  175.9090  137.2130 C   0  0  0  0  0  3  0  0  0  0  0  0
  1  7  1  0  0  0  0
  1  6  1  0  0  0  0
  2  1  2  0  0  0  0
  3  2  1  0  0  0  0
  3  4  2  0  0  0  0
  4  5  1  0  0  0  0
  5  6  2  0  0  0  0
  7  8  1  0  0  0  0
  8 12  1  0  0  0  0
 10 11  1  0  0  0  0
 10 15  1  0  0  0  0
 11  9  2  0  0  0  0
 12 11  1  0  0  0  0
 15 14  1  6  0  0  0
 15 13  1  0  0  0  0
 16  4  1  0  0  0  0
 16 18  1  0  0  0  0
 17 20  1  0  0  0  0
 18 17  2  0  0  0  0
 20 19  1  6  0  0  0
 20 22  1  0  0  0  0
 22 21  1  0  0  0  0
 23  2  1  0  0  0  0
 24 23  1  0  0  0  0
 25 24  1  0  0  0  0
 26 31  2  0  0  0  0
 27 28  2  0  0  0  0
 29 32  2  0  0  0  0
 29 31  1  0  0  0  0
 30 26  1  0  0  0  0
 30 27  1  0  0  0  0
 31 25  1  0  0  0  0
 32 28  1  0  0  0  0
M  END
>  <MODEL>
7

>  <REMARK>
 VINA RESULT:      -8.0      3.110      7.189
  Name = 
  12 active torsions:
  status: ('A' for Active; 'I' for Inactive)
    1  A    between atoms: N_1  and  C_25
    2  A    between atoms: N_1  and  C_32
    3  A    between atoms: C_2  and  C_27
    4  A    between atoms: C_3  and  C_16
    5  A    between atoms: C_6  and  N_31
    6  A    between atoms: C_10  and  C_19
    7  A    between atoms: N_14  and  C_18
    8  A    between atoms: C_16  and  C_23
    9  A    between atoms: C_19  and  C_24
   10  A    between atoms: C_20  and  C_27
   11  A    between atoms: C_23  and  N_28
   12  A    between atoms: N_31  and  C_32
                            x       y       z     vdW  Elec       q    Type
                         _______ _______ _______ _____ _____    ______ ____

>  <TORSDO>
F 12

$$$$
=
 OpenBabel11042413103D

 32 33  0  0  1  0  0  0  0  0999 V2000
  190.3880  177.2990  140.0630 C   0  0  0  0  0  0  0  0  0  0  0  0
  189.7460  176.9440  141.2790 C   0  0  0  0  0  0  0  0  0  0  0  0
  188.4620  177.4370  141.5350 C   0  0  0  0  0  3  0  0  0  0  0  0
  187.8110  178.2680  140.6190 C   0  0  0  0  0  0  0  0  0  0  0  0
  188.4510  178.6210  139.4300 C   0  0  0  0  0  3  0  0  0  0  0  0
  189.7280  178.1360  139.1540 C   0  0  0  0  0  3  0  0  0  0  0  0
  191.7390  176.7910  139.6680 C   0  0  0  0  0  2  0  0  0  0  0  0
  191.6880  176.1040  138.3110 C   0  0  0  0  0  2  0  0  0  0  0  0
  194.8760  175.9100  136.5380 O   0  0  0  0  0  0  0  0  0  0  0  0
  193.8170  174.1980  137.7240 N   0  0  0  0  0  2  0  0  0  0  0  0
  193.8900  175.5400  137.2290 C   0  0  0  0  0  0  0  0  0  0  0  0
  192.8490  176.4720  137.5170 N   0  0  0  0  0  2  0  0  0  0  0  0
  195.3120  172.6290  138.6840 N   0  0  0  0  0  1  0  0  0  0  0  0
  194.2510  172.0960  136.5760 C   0  0  0  0  0  1  0  0  0  0  0  0
  194.8350  173.1990  137.4380 C   0  0  1  0  0  3  0  0  0  0  0  0
  186.4520  178.8010  140.9240 C   0  0  0  0  0  2  0  0  0  0  0  0
  184.8460  178.8060  142.7900 C   0  0  0  0  0  3  0  0  0  0  0  0
  185.9840  178.3470  142.2700 C   0  0  0  0  0  3  0  0  0  0  0  0
  183.0110  178.5550  144.2570 O   0  0  0  0  0  1  0  0  0  0  0  0
  184.3870  178.3540  144.1390 C   0  0  2  0  0  3  0  0  0  0  0  0
  184.7430  178.5960  146.5950 C   0  0  0  0  0  1  0  0  0  0  0  0
  185.1020  179.1390  145.2240 C   0  0  0  0  0  2  0  0  0  0  0  0
  190.3360  176.1070  142.2850 N   0  0  0  0  0  2  0  0  0  0  0  0
  191.4030  176.4780  143.2000 C   0  0  0  0  0  2  0  0  0  0  0  0
  190.9450  177.5490  144.0720 N   0  0  0  0  0  2  0  0  0  0  0  0
  188.8440  177.5140  145.2260 C   0  0  0  0  0  3  0  0  0  0  0  0
  188.2630  178.0040  147.5800 C   0  0  0  0  0  3  0  0  0  0  0  0
  189.4390  177.9190  148.2010 C   0  0  0  0  0  3  0  0  0  0  0  0
  190.8960  176.8580  146.4560 C   0  0  0  0  0  3  0  0  0  0  0  0
  187.9290  177.2050  146.3650 C   0  0  0  0  0  2  0  0  0  0  0  0
  190.1710  177.3270  145.2550 C   0  0  0  0  0  0  0  0  0  0  0  0
  190.5840  177.1170  147.7310 C   0  0  0  0  0  3  0  0  0  0  0  0
  1  2  1  0  0  0  0
  2  3  2  0  0  0  0
  2 23  1  0  0  0  0
  4 16  1  0  0  0  0
  4  3  1  0  0  0  0
  5  4  2  0  0  0  0
  6  5  1  0  0  0  0
  6  1  2  0  0  0  0
  7  1  1  0  0  0  0
  8  7  1  0  0  0  0
  9 11  2  0  0  0  0
 11 12  1  0  0  0  0
 11 10  1  0  0  0  0
 12  8  1  0  0  0  0
 15 14  1  6  0  0  0
 15 10  1  0  0  0  0
 15 13  1  0  0  0  0
 16 18  1  0  0  0  0
 17 20  1  0  0  0  0
 18 17  2  0  0  0  0
 20 19  1  6  0  0  0
 20 22  1  0  0  0  0
 22 21  1  0  0  0  0
 23 24  1  0  0  0  0
 24 25  1  0  0  0  0
 25 31  1  0  0  0  0
 26 31  2  0  0  0  0
 26 30  1  0  0  0  0
 27 28  2  0  0  0  0
 29 32  2  0  0  0  0
 30 27  1  0  0  0  0
 31 29  1  0  0  0  0
 32 28  1  0  0  0  0
M  END
>  <MODEL>
8

>  <REMARK>
 VINA RESULT:      -8.0      3.705      8.474
  Name = 
  12 active torsions:
  status: ('A' for Active; 'I' for Inactive)
    1  A    between atoms: N_1  and  C_25
    2  A    between atoms: N_1  and  C_32
    3  A    between atoms: C_2  and  C_27
    4  A    between atoms: C_3  and  C_16
    5  A    between atoms: C_6  and  N_31
    6  A    between atoms: C_10  and  C_19
    7  A    between atoms: N_14  and  C_18
    8  A    between atoms: C_16  and  C_23
    9  A    between atoms: C_19  and  C_24
   10  A    between atoms: C_20  and  C_27
   11  A    between atoms: C_23  and  N_28
   12  A    between atoms: N_31  and  C_32
                            x       y       z     vdW  Elec       q    Type
                         _______ _______ _______ _____ _____    ______ ____

>  <TORSDO>
F 12

$$$$
=
 OpenBabel11042413103D

 32 33  0  0  1  0  0  0  0  0999 V2000
  183.5630  178.8770  141.9290 C   0  0  0  0  0  0  0  0  0  0  0  0
  184.9220  179.1260  142.2560 C   0  0  0  0  0  0  0  0  0  0  0  0
  185.3010  179.1470  143.6030 C   0  0  0  0  0  3  0  0  0  0  0  0
  184.3660  178.9310  144.6190 C   0  0  0  0  0  0  0  0  0  0  0  0
  183.0300  178.6960  144.2920 C   0  0  0  0  0  3  0  0  0  0  0  0
  182.6340  178.6660  142.9560 C   0  0  0  0  0  3  0  0  0  0  0  0
  183.0590  178.7850  140.5220 C   0  0  0  0  0  2  0  0  0  0  0  0
  183.4200  177.4440  139.9000 C   0  0  0  0  0  2  0  0  0  0  0  0
  181.1510  174.8820  138.6210 O   0  0  0  0  0  0  0  0  0  0  0  0
  183.4260  175.1150  138.1440 N   0  0  0  0  0  2  0  0  0  0  0  0
  182.2200  175.5240  138.7990 C   0  0  0  0  0  0  0  0  0  0  0  0
  182.2180  176.6630  139.6570 N   0  0  0  0  0  2  0  0  0  0  0  0
  183.5370  174.3740  135.8940 N   0  0  0  0  0  1  0  0  0  0  0  0
  184.7410  173.1420  137.5930 C   0  0  0  0  0  1  0  0  0  0  0  0
  183.4930  173.9460  137.2790 C   0  0  1  0  0  3  0  0  0  0  0  0
  184.7890  178.9820  146.0480 C   0  0  0  0  0  2  0  0  0  0  0  0
  186.7810  178.2530  147.2980 C   0  0  0  0  0  3  0  0  0  0  0  0
  185.9100  178.0280  146.3150 C   0  0  0  0  0  3  0  0  0  0  0  0
  188.4090  177.5060  148.8390 O   0  0  0  0  0  1  0  0  0  0  0  0
  187.9030  177.2990  147.5560 C   0  0  2  0  0  3  0  0  0  0  0  0
  190.3050  176.8860  147.0290 C   0  0  0  0  0  1  0  0  0  0  0  0
  189.0120  177.5120  146.5410 C   0  0  0  0  0  2  0  0  0  0  0  0
  185.9510  179.3690  141.2840 N   0  0  0  0  0  2  0  0  0  0  0  0
  186.9970  178.4420  140.8860 C   0  0  0  0  0  2  0  0  0  0  0  0
  188.2780  178.9050  141.3980 N   0  0  0  0  0  0  0  0  0  0  0  0
  190.2700  178.6300  142.7030 C   0  0  0  0  0  2  0  0  0  0  0  0
  191.5170  176.6030  143.3770 C   0  0  0  0  0  3  0  0  0  0  0  0
  190.6270  175.6300  143.1900 C   0  0  0  0  0  3  0  0  0  0  0  0
  188.4940  176.9060  142.8540 C   0  0  0  0  0  3  0  0  0  0  0  0
  191.1300  177.9950  143.7460 C   0  0  0  0  0  2  0  0  0  0  0  0
  189.0730  178.1600  142.3260 C   0  0  0  0  0  0  0  0  0  0  0  0
  189.1630  175.8080  143.2240 C   0  0  0  0  0  3  0  0  0  0  0  0
  1  2  2  0  0  0  0
  1  6  1  0  0  0  0
  2  3  1  0  0  0  0
  3  4  2  0  0  0  0
  4 16  1  0  0  0  0
  5  4  1  0  0  0  0
  6  5  2  0  0  0  0
  7  1  1  0  0  0  0
  8  7  1  0  0  0  0
  9 11  2  0  0  0  0
 10 11  1  0  0  0  0
 11 12  1  0  0  0  0
 12  8  1  0  0  0  0
 13 15  1  0  0  0  0
 15 14  1  1  0  0  0
 15 10  1  0  0  0  0
 16 18  1  0  0  0  0
 17 20  1  0  0  0  0
 18 17  2  0  0  0  0
 20 19  1  1  0  0  0
 22 21  1  0  0  0  0
 22 20  1  0  0  0  0
 23  2  1  0  0  0  0
 24 23  1  0  0  0  0
 24 25  1  0  0  0  0
 25 31  2  0  0  0  0
 26 30  1  0  0  0  0
 27 30  1  0  0  0  0
 28 32  1  0  0  0  0
 28 27  2  0  0  0  0
 29 32  2  0  0  0  0
 31 26  1  0  0  0  0
 31 29  1  0  0  0  0
M  END
>  <MODEL>
9

>  <REMARK>
 VINA RESULT:      -7.9      2.680      4.187
  Name = 
  12 active torsions:
  status: ('A' for Active; 'I' for Inactive)
    1  A    between atoms: N_1  and  C_25
    2  A    between atoms: N_1  and  C_32
    3  A    between atoms: C_2  and  C_27
    4  A    between atoms: C_3  and  C_16
    5  A    between atoms: C_6  and  N_31
    6  A    between atoms: C_10  and  C_19
    7  A    between atoms: N_14  and  C_18
    8  A    between atoms: C_16  and  C_23
    9  A    between atoms: C_19  and  C_24
   10  A    between atoms: C_20  and  C_27
   11  A    between atoms: C_23  and  N_28
   12  A    between atoms: N_31  and  C_32
                            x       y       z     vdW  Elec       q    Type
                         _______ _______ _______ _____ _____    ______ ____

>  <TORSDO>
F 12

$$$$
