=
 OpenBabel11042410023D

 38 42  0  0  1  0  0  0  0  0999 V2000
  181.4760  178.8920  141.1570 O   0  0  0  0  0  1  0  0  0  0  0  0
  179.4550  177.7400  140.5480 C   0  0  2  0  0  3  0  0  0  0  0  0
  180.9910  175.6490  139.3330 C   0  0  2  0  0  3  0  0  0  0  0  0
  180.9280  178.0050  140.2270 C   0  0  2  0  0  3  0  0  0  0  0  0
  182.3320  175.9940  137.4660 C   0  0  2  0  0  3  0  0  0  0  0  0
  183.1540  176.9010  139.7410 C   0  0  0  0  0  2  0  0  0  0  0  0
  183.2390  176.9140  138.2410 C   0  0  0  0  0  0  0  0  0  0  0  0
  184.1420  177.6520  137.5750 C   0  0  0  0  0  3  0  0  0  0  0  0
  181.0030  175.9950  137.9570 O   0  0  0  0  0  0  0  0  0  0  0  0
  179.3020  177.3540  141.8820 O   0  0  0  0  0  1  0  0  0  0  0  0
  178.9310  176.6370  139.6260 C   0  0  0  0  0  2  0  0  0  0  0  0
  179.6680  175.4410  139.7890 O   0  0  0  0  0  0  0  0  0  0  0  0
  181.7140  176.6930  140.2120 C   0  0  2  0  0  3  0  0  0  0  0  0
  187.4340  178.5590  137.7160 C   0  0  0  0  0  1  0  0  0  0  0  0
  185.2570  179.3730  141.7140 N   0  0  0  0  0  2  0  0  0  0  0  0
  186.6800  178.2260  139.9090 C   0  0  0  0  0  2  0  0  0  0  0  0
  185.4800  178.9500  140.3710 C   0  0  0  0  0  0  0  0  0  0  0  0
  184.6190  179.1450  139.4450 N   0  0  0  0  0  0  0  0  0  0  0  0
  185.1350  178.5930  138.2050 C   0  0  1  0  0  3  0  0  0  0  0  0
  186.4020  177.9120  138.5080 N   0  0  0  0  0  0  0  0  0  0  0  0
  186.1980  179.1060  142.7160 N   0  0  0  0  0  2  0  0  0  0  0  0
  184.6770  177.8920  143.9810 O   0  0  0  0  0  0  0  0  0  0  0  0
  185.8550  178.3280  143.8630 C   0  0  0  0  0  0  0  0  0  0  0  0
  185.2880  178.6650  146.8500 C   0  0  0  0  0  1  0  0  0  0  0  0
  190.6970  176.7750  144.9290 Cl  0  0  0  0  0  0  0  0  0  0  0  0
  188.1280  177.6050  144.5230 C   0  0  0  0  0  3  0  0  0  0  0  0
  186.5920  178.1800  146.3130 C   0  0  0  0  0  0  0  0  0  0  0  0
  189.1190  177.3110  145.4610 C   0  0  0  0  0  0  0  0  0  0  0  0
  187.5940  177.8840  147.2440 C   0  0  0  0  0  3  0  0  0  0  0  0
  188.8510  177.4500  146.8230 C   0  0  0  0  0  3  0  0  0  0  0  0
  186.8530  178.0370  144.9240 C   0  0  0  0  0  0  0  0  0  0  0  0
  184.1540  174.2500  137.7340 C   0  0  0  0  0  3  0  0  0  0  0  0
  182.0970  173.6580  136.6030 C   0  0  0  0  0  3  0  0  0  0  0  0
  184.6340  172.9510  137.5410 C   0  0  0  0  0  0  0  0  0  0  0  0
  183.8470  172.0060  136.8800 C   0  0  0  0  0  3  0  0  0  0  0  0
  185.8620  172.6110  138.0000 F   0  0  0  0  0  0  0  0  0  0  0  0
  182.5780  172.3590  136.4120 C   0  0  0  0  0  3  0  0  0  0  0  0
  182.8840  174.6110  137.2600 C   0  0  0  0  0  0  0  0  0  0  0  0
  2 10  1  1  0  0  0
  3  9  1  6  0  0  0
  3 12  1  0  0  0  0
  3 13  1  0  0  0  0
  4  2  1  0  0  0  0
  4  1  1  1  0  0  0
  5 38  1  1  0  0  0
  5  9  1  0  0  0  0
  5  7  1  0  0  0  0
  7  6  1  0  0  0  0
  8  7  2  0  0  0  0
 11 12  1  0  0  0  0
 11  2  1  0  0  0  0
 13  6  1  6  0  0  0
 13  4  1  0  0  0  0
 14 20  1  0  0  0  0
 15 21  1  0  0  0  0
 16 17  1  0  0  0  0
 17 15  1  0  0  0  0
 18 17  2  0  0  0  0
 19  8  1  1  0  0  0
 19 20  1  0  0  0  0
 19 18  1  0  0  0  0
 20 16  1  0  0  0  0
 21 23  1  0  0  0  0
 23 22  2  0  0  0  0
 23 31  1  0  0  0  0
 25 28  1  0  0  0  0
 26 31  2  0  0  0  0
 26 28  1  0  0  0  0
 27 24  1  0  0  0  0
 27 29  2  0  0  0  0
 28 30  2  0  0  0  0
 30 29  1  0  0  0  0
 31 27  1  0  0  0  0
 33 38  1  0  0  0  0
 34 32  1  0  0  0  0
 34 36  1  0  0  0  0
 35 34  2  0  0  0  0
 37 33  2  0  0  0  0
 37 35  1  0  0  0  0
 38 32  2  0  0  0  0
M  END
>  <MODEL>
1

>  <REMARK>
 VINA RESULT:      -9.4      0.000      0.000
  Name = 
  4 active torsions:
  status: ('A' for Active; 'I' for Inactive)
    1  A    between atoms: C_10  and  C_38
    2  A    between atoms: N_15  and  N_20
    3  A    between atoms: C_18  and  C_26
    4  A    between atoms: C_34  and  C_35
                            x       y       z     vdW  Elec       q    Type
                         _______ _______ _______ _____ _____    ______ ____

>  <TORSDO>
F 4

$$$$
=
 OpenBabel11042410023D

 38 42  0  0  1  0  0  0  0  0999 V2000
  194.4090  176.3960  137.1770 O   0  0  0  0  0  1  0  0  0  0  0  0
  194.7800  174.3380  135.9910 C   0  0  2  0  0  3  0  0  0  0  0  0
  191.9870  174.1680  135.3730 C   0  0  2  0  0  3  0  0  0  0  0  0
  193.8000  175.2000  136.7900 C   0  0  2  0  0  3  0  0  0  0  0  0
  190.3530  173.8920  137.0020 C   0  0  2  0  0  3  0  0  0  0  0  0
  191.4770  176.2080  136.7850 C   0  0  0  0  0  2  0  0  0  0  0  0
  190.6660  175.2400  137.5990 C   0  0  0  0  0  0  0  0  0  0  0  0
  190.1470  175.5590  138.7960 C   0  0  0  0  0  3  0  0  0  0  0  0
  191.4740  173.3000  136.3710 O   0  0  0  0  0  0  0  0  0  0  0  0
  195.3420  175.0700  134.9430 O   0  0  0  0  0  1  0  0  0  0  0  0
  194.0390  173.1210  135.4320 C   0  0  0  0  0  2  0  0  0  0  0  0
  192.9700  173.5140  134.5940 O   0  0  0  0  0  0  0  0  0  0  0  0
  192.5430  175.4830  135.9630 C   0  0  2  0  0  3  0  0  0  0  0  0
  192.4170  177.5850  140.3520 C   0  0  0  0  0  1  0  0  0  0  0  0
  188.1600  178.1450  142.0670 N   0  0  0  0  0  2  0  0  0  0  0  0
  190.5780  177.3280  141.7800 C   0  0  0  0  0  2  0  0  0  0  0  0
  189.2280  177.6380  141.2710 C   0  0  0  0  0  0  0  0  0  0  0  0
  189.0850  177.3780  140.0260 N   0  0  0  0  0  0  0  0  0  0  0  0
  190.3430  176.8720  139.5080 C   0  0  1  0  0  3  0  0  0  0  0  0
  191.2740  176.7360  140.6380 N   0  0  0  0  0  0  0  0  0  0  0  0
  188.3330  178.3780  143.4360 N   0  0  0  0  0  2  0  0  0  0  0  0
  187.3890  176.3390  144.0200 O   0  0  0  0  0  0  0  0  0  0  0  0
  187.9300  177.4110  144.4070 C   0  0  0  0  0  0  0  0  0  0  0  0
  185.6970  178.3740  146.2630 C   0  0  0  0  0  1  0  0  0  0  0  0
  191.2640  177.3790  148.3910 Cl  0  0  0  0  0  0  0  0  0  0  0  0
  189.4000  177.4430  146.3970 C   0  0  0  0  0  3  0  0  0  0  0  0
  187.0830  178.0870  146.7300 C   0  0  0  0  0  0  0  0  0  0  0  0
  189.6570  177.6480  147.7540 C   0  0  0  0  0  0  0  0  0  0  0  0
  187.3530  178.2910  148.0880 C   0  0  0  0  0  3  0  0  0  0  0  0
  188.6320  178.0710  148.6000 C   0  0  0  0  0  3  0  0  0  0  0  0
  188.1180  177.6520  145.8610 C   0  0  0  0  0  0  0  0  0  0  0  0
  188.4670  172.6600  135.8360 C   0  0  0  0  0  3  0  0  0  0  0  0
  188.5810  175.0740  135.6910 C   0  0  0  0  0  3  0  0  0  0  0  0
  187.3070  172.6680  135.0550 C   0  0  0  0  0  0  0  0  0  0  0  0
  186.7830  173.8780  134.5940 C   0  0  0  0  0  3  0  0  0  0  0  0
  186.6900  171.5010  134.7520 F   0  0  0  0  0  0  0  0  0  0  0  0
  187.4190  175.0800  134.9120 C   0  0  0  0  0  3  0  0  0  0  0  0
  189.1130  173.8650  136.1520 C   0  0  0  0  0  0  0  0  0  0  0  0
  2 10  1  6  0  0  0
  2  4  1  0  0  0  0
  3 12  1  1  0  0  0
  3 13  1  0  0  0  0
  3  9  1  0  0  0  0
  4  1  1  6  0  0  0
  5 38  1  6  0  0  0
  5  7  1  0  0  0  0
  6  7  1  0  0  0  0
  7  8  2  0  0  0  0
  9  5  1  0  0  0  0
 11  2  1  0  0  0  0
 12 11  1  0  0  0  0
 13  6  1  1  0  0  0
 13  4  1  0  0  0  0
 14 20  1  0  0  0  0
 15 21  1  0  0  0  0
 17 16  1  0  0  0  0
 17 15  1  0  0  0  0
 18 17  2  0  0  0  0
 19  8  1  1  0  0  0
 19 18  1  0  0  0  0
 19 20  1  0  0  0  0
 20 16  1  0  0  0  0
 21 23  1  0  0  0  0
 22 23  2  0  0  0  0
 23 31  1  0  0  0  0
 24 27  1  0  0  0  0
 26 28  1  0  0  0  0
 27 29  2  0  0  0  0
 28 25  1  0  0  0  0
 28 30  2  0  0  0  0
 29 30  1  0  0  0  0
 31 26  2  0  0  0  0
 31 27  1  0  0  0  0
 32 38  1  0  0  0  0
 33 38  2  0  0  0  0
 34 32  2  0  0  0  0
 35 37  2  0  0  0  0
 35 34  1  0  0  0  0
 36 34  1  0  0  0  0
 37 33  1  0  0  0  0
M  END
>  <MODEL>
2

>  <REMARK>
 VINA RESULT:      -9.1      5.797      8.052
  Name = 
  4 active torsions:
  status: ('A' for Active; 'I' for Inactive)
    1  A    between atoms: C_10  and  C_38
    2  A    between atoms: N_15  and  N_20
    3  A    between atoms: C_18  and  C_26
    4  A    between atoms: C_34  and  C_35
                            x       y       z     vdW  Elec       q    Type
                         _______ _______ _______ _____ _____    ______ ____

>  <TORSDO>
F 4

$$$$
=
 OpenBabel11042410023D

 38 42  0  0  1  0  0  0  0  0999 V2000
  182.0550  178.6390  138.8690 O   0  0  0  0  0  1  0  0  0  0  0  0
  180.3090  177.4350  137.7370 C   0  0  2  0  0  3  0  0  0  0  0  0
  182.1310  175.3020  137.1530 C   0  0  2  0  0  3  0  0  0  0  0  0
  181.8110  177.7000  137.8640 C   0  0  2  0  0  3  0  0  0  0  0  0
  183.9760  175.5690  135.7650 C   0  0  2  0  0  3  0  0  0  0  0  0
  184.0750  176.5980  138.1320 C   0  0  0  0  0  2  0  0  0  0  0  0
  184.6100  176.5370  136.7300 C   0  0  0  0  0  0  0  0  0  0  0  0
  185.6760  177.2500  136.3310 C   0  0  0  0  0  3  0  0  0  0  0  0
  182.5620  175.5800  135.8300 O   0  0  0  0  0  0  0  0  0  0  0  0
  179.7570  177.1140  138.9800 O   0  0  0  0  0  1  0  0  0  0  0  0
  180.0840  176.2810  136.7580 C   0  0  0  0  0  2  0  0  0  0  0  0
  180.7310  175.1030  137.1970 O   0  0  0  0  0  0  0  0  0  0  0  0
  182.5590  176.3980  138.1550 C   0  0  2  0  0  3  0  0  0  0  0  0
  188.7340  178.0420  137.6350 C   0  0  0  0  0  1  0  0  0  0  0  0
  185.2850  179.5010  140.3460 N   0  0  0  0  0  2  0  0  0  0  0  0
  187.1760  178.0550  139.3840 C   0  0  0  0  0  2  0  0  0  0  0  0
  185.9620  178.8820  139.2550 C   0  0  0  0  0  0  0  0  0  0  0  0
  185.5390  178.9760  138.0500 N   0  0  0  0  0  0  0  0  0  0  0  0
  186.4360  178.2330  137.1830 C   0  0  1  0  0  3  0  0  0  0  0  0
  187.4250  177.5540  138.0320 N   0  0  0  0  0  0  0  0  0  0  0  0
  185.7450  179.3450  141.6580 N   0  0  0  0  0  2  0  0  0  0  0  0
  184.0930  177.7990  142.1760 O   0  0  0  0  0  0  0  0  0  0  0  0
  185.1040  178.4460  142.5640 C   0  0  0  0  0  0  0  0  0  0  0  0
  183.4210  179.0770  145.0380 C   0  0  0  0  0  1  0  0  0  0  0  0
  189.0860  177.0510  145.5950 Cl  0  0  0  0  0  0  0  0  0  0  0  0
  186.9110  177.8130  144.1330 C   0  0  0  0  0  3  0  0  0  0  0  0
  184.8140  178.5510  145.1080 C   0  0  0  0  0  0  0  0  0  0  0  0
  187.4440  177.6240  145.4090 C   0  0  0  0  0  0  0  0  0  0  0  0
  185.3600  178.3600  146.3830 C   0  0  0  0  0  3  0  0  0  0  0  0
  186.6670  177.8970  146.5340 C   0  0  0  0  0  3  0  0  0  0  0  0
  185.5950  178.2720  143.9550 C   0  0  0  0  0  0  0  0  0  0  0  0
  185.6160  173.8580  136.6700 C   0  0  0  0  0  3  0  0  0  0  0  0
  184.0120  173.1930  134.9830 C   0  0  0  0  0  3  0  0  0  0  0  0
  186.1270  172.5570  136.6980 C   0  0  0  0  0  0  0  0  0  0  0  0
  185.5800  171.5730  135.8700 C   0  0  0  0  0  3  0  0  0  0  0  0
  187.1490  172.2510  137.5320 F   0  0  0  0  0  0  0  0  0  0  0  0
  184.5220  171.8910  135.0140 C   0  0  0  0  0  3  0  0  0  0  0  0
  184.5590  174.1830  135.8060 C   0  0  0  0  0  0  0  0  0  0  0  0
  2  4  1  0  0  0  0
  2 10  1  1  0  0  0
  3  9  1  6  0  0  0
  3 12  1  0  0  0  0
  3 13  1  0  0  0  0
  4 13  1  0  0  0  0
  4  1  1  1  0  0  0
  5 38  1  1  0  0  0
  5  9  1  0  0  0  0
  5  7  1  0  0  0  0
  7  6  1  0  0  0  0
  8  7  2  0  0  0  0
 11 12  1  0  0  0  0
 11  2  1  0  0  0  0
 13  6  1  6  0  0  0
 14 20  1  0  0  0  0
 15 21  1  0  0  0  0
 17 16  1  0  0  0  0
 17 15  1  0  0  0  0
 18 17  2  0  0  0  0
 19  8  1  1  0  0  0
 19 20  1  0  0  0  0
 19 18  1  0  0  0  0
 20 16  1  0  0  0  0
 21 23  1  0  0  0  0
 22 23  2  0  0  0  0
 23 31  1  0  0  0  0
 24 27  1  0  0  0  0
 26 28  1  0  0  0  0
 27 29  2  0  0  0  0
 28 25  1  0  0  0  0
 28 30  2  0  0  0  0
 29 30  1  0  0  0  0
 31 26  2  0  0  0  0
 31 27  1  0  0  0  0
 32 34  1  0  0  0  0
 33 37  2  0  0  0  0
 33 38  1  0  0  0  0
 34 36  1  0  0  0  0
 35 34  2  0  0  0  0
 37 35  1  0  0  0  0
 38 32  2  0  0  0  0
M  END
>  <MODEL>
3

>  <REMARK>
 VINA RESULT:      -8.9      1.653      2.094
  Name = 
  4 active torsions:
  status: ('A' for Active; 'I' for Inactive)
    1  A    between atoms: C_10  and  C_38
    2  A    between atoms: N_15  and  N_20
    3  A    between atoms: C_18  and  C_26
    4  A    between atoms: C_34  and  C_35
                            x       y       z     vdW  Elec       q    Type
                         _______ _______ _______ _____ _____    ______ ____

>  <TORSDO>
F 4

$$$$
=
 OpenBabel11042410023D

 38 42  0  0  1  0  0  0  0  0999 V2000
  181.8540  178.9320  140.7140 O   0  0  0  0  0  1  0  0  0  0  0  0
  179.7530  177.8590  140.2560 C   0  0  2  0  0  3  0  0  0  0  0  0
  181.1240  175.6120  139.1260 C   0  0  2  0  0  3  0  0  0  0  0  0
  181.2230  178.0200  139.8650 C   0  0  2  0  0  3  0  0  0  0  0  0
  182.4050  175.7620  137.1920 C   0  0  2  0  0  3  0  0  0  0  0  0
  183.3650  176.7650  139.3710 C   0  0  0  0  0  2  0  0  0  0  0  0
  183.3910  176.6780  137.8710 C   0  0  0  0  0  0  0  0  0  0  0  0
  184.3050  177.3200  137.1250 C   0  0  0  0  0  3  0  0  0  0  0  0
  181.1000  175.8690  137.7310 O   0  0  0  0  0  0  0  0  0  0  0  0
  179.6320  177.5670  141.6170 O   0  0  0  0  0  1  0  0  0  0  0  0
  179.1330  176.7300  139.4290 C   0  0  0  0  0  2  0  0  0  0  0  0
  179.8110  175.5080  139.6420 O   0  0  0  0  0  0  0  0  0  0  0  0
  181.9370  176.6680  139.9070 C   0  0  2  0  0  3  0  0  0  0  0  0
  187.6430  178.0510  137.0840 C   0  0  0  0  0  1  0  0  0  0  0  0
  185.6780  179.2320  141.1000 N   0  0  0  0  0  2  0  0  0  0  0  0
  186.9630  177.8980  139.3210 C   0  0  0  0  0  2  0  0  0  0  0  0
  185.8230  178.7140  139.7800 C   0  0  0  0  0  0  0  0  0  0  0  0
  184.9360  178.8980  138.8750 N   0  0  0  0  0  0  0  0  0  0  0  0
  185.3710  178.2420  137.6560 C   0  0  1  0  0  3  0  0  0  0  0  0
  186.6120  177.5120  137.9540 N   0  0  0  0  0  0  0  0  0  0  0  0
  186.6430  178.9770  142.0810 N   0  0  0  0  0  2  0  0  0  0  0  0
  185.2600  177.5040  143.2230 O   0  0  0  0  0  0  0  0  0  0  0  0
  186.3860  178.0690  143.1520 C   0  0  0  0  0  0  0  0  0  0  0  0
  189.1310  176.8680  142.5360 C   0  0  0  0  0  1  0  0  0  0  0  0
  187.5550  178.2150  148.2120 Cl  0  0  0  0  0  0  0  0  0  0  0  0
  187.0840  178.0780  145.5270 C   0  0  0  0  0  3  0  0  0  0  0  0
  188.6910  177.2440  143.9100 C   0  0  0  0  0  0  0  0  0  0  0  0
  187.9940  177.8450  146.5590 C   0  0  0  0  0  0  0  0  0  0  0  0
  189.5940  177.0130  144.9540 C   0  0  0  0  0  3  0  0  0  0  0  0
  189.2500  177.3130  146.2720 C   0  0  0  0  0  3  0  0  0  0  0  0
  187.4110  177.7900  144.1910 C   0  0  0  0  0  0  0  0  0  0  0  0
  182.1060  173.3760  136.3850 C   0  0  0  0  0  3  0  0  0  0  0  0
  184.1160  173.9820  137.5900 C   0  0  0  0  0  3  0  0  0  0  0  0
  182.5750  172.0650  136.2610 C   0  0  0  0  0  0  0  0  0  0  0  0
  183.8150  171.7120  136.8010 C   0  0  0  0  0  3  0  0  0  0  0  0
  181.8280  171.1390  135.6140 F   0  0  0  0  0  0  0  0  0  0  0  0
  184.5860  172.6710  137.4640 C   0  0  0  0  0  3  0  0  0  0  0  0
  182.8740  174.3400  137.0570 C   0  0  0  0  0  0  0  0  0  0  0  0
  2 10  1  1  0  0  0
  3  9  1  6  0  0  0
  3 12  1  0  0  0  0
  3 13  1  0  0  0  0
  4 13  1  0  0  0  0
  4  2  1  0  0  0  0
  4  1  1  1  0  0  0
  5 38  1  1  0  0  0
  5  9  1  0  0  0  0
  5  7  1  0  0  0  0
  7  6  1  0  0  0  0
  8  7  2  0  0  0  0
 11 12  1  0  0  0  0
 11  2  1  0  0  0  0
 13  6  1  6  0  0  0
 14 20  1  0  0  0  0
 15 21  1  0  0  0  0
 16 17  1  0  0  0  0
 17 15  1  0  0  0  0
 18 17  2  0  0  0  0
 19  8  1  1  0  0  0
 19 20  1  0  0  0  0
 19 18  1  0  0  0  0
 20 16  1  0  0  0  0
 21 23  1  0  0  0  0
 23 22  2  0  0  0  0
 23 31  1  0  0  0  0
 24 27  1  0  0  0  0
 26 28  1  0  0  0  0
 27 31  1  0  0  0  0
 27 29  2  0  0  0  0
 28 25  1  0  0  0  0
 29 30  1  0  0  0  0
 30 28  2  0  0  0  0
 31 26  2  0  0  0  0
 32 38  1  0  0  0  0
 34 32  2  0  0  0  0
 34 35  1  0  0  0  0
 35 37  2  0  0  0  0
 36 34  1  0  0  0  0
 37 33  1  0  0  0  0
 38 33  2  0  0  0  0
M  END
>  <MODEL>
4

>  <REMARK>
 VINA RESULT:      -8.9      1.310      1.944
  Name = 
  4 active torsions:
  status: ('A' for Active; 'I' for Inactive)
    1  A    between atoms: C_10  and  C_38
    2  A    between atoms: N_15  and  N_20
    3  A    between atoms: C_18  and  C_26
    4  A    between atoms: C_34  and  C_35
                            x       y       z     vdW  Elec       q    Type
                         _______ _______ _______ _____ _____    ______ ____

>  <TORSDO>
F 4

$$$$
=
 OpenBabel11042410023D

 38 42  0  0  1  0  0  0  0  0999 V2000
  184.2880  180.1180  139.2310 O   0  0  0  0  0  1  0  0  0  0  0  0
  182.0770  179.8060  138.3410 C   0  0  2  0  0  3  0  0  0  0  0  0
  182.6170  177.0240  137.9210 C   0  0  2  0  0  3  0  0  0  0  0  0
  183.5320  179.3320  138.3580 C   0  0  2  0  0  3  0  0  0  0  0  0
  184.2200  176.2660  136.4170 C   0  0  2  0  0  3  0  0  0  0  0  0
  185.0290  177.3100  138.6380 C   0  0  0  0  0  2  0  0  0  0  0  0
  185.3280  176.8880  137.2270 C   0  0  0  0  0  0  0  0  0  0  0  0
  186.5570  176.9720  136.6930 C   0  0  0  0  0  3  0  0  0  0  0  0
  182.9900  176.9560  136.5540 O   0  0  0  0  0  0  0  0  0  0  0  0
  181.5680  179.8880  139.6390 O   0  0  0  0  0  1  0  0  0  0  0  0
  181.2390  178.8260  137.5180 C   0  0  0  0  0  2  0  0  0  0  0  0
  181.3000  177.5210  138.0590 O   0  0  0  0  0  0  0  0  0  0  0  0
  183.6080  177.8590  138.7630 C   0  0  2  0  0  3  0  0  0  0  0  0
  189.8390  176.4250  137.4740 C   0  0  0  0  0  1  0  0  0  0  0  0
  187.7370  179.0550  140.6440 N   0  0  0  0  0  2  0  0  0  0  0  0
  188.7130  177.0040  139.4450 C   0  0  0  0  0  2  0  0  0  0  0  0
  187.9290  178.2540  139.4810 C   0  0  0  0  0  0  0  0  0  0  0  0
  187.3960  178.5490  138.3550 N   0  0  0  0  0  0  0  0  0  0  0  0
  187.7710  177.5380  137.3830 C   0  0  1  0  0  3  0  0  0  0  0  0
  188.5250  176.4910  138.0880 N   0  0  0  0  0  0  0  0  0  0  0  0
  188.2960  178.6840  141.8720 N   0  0  0  0  0  2  0  0  0  0  0  0
  186.2250  178.1790  142.7920 O   0  0  0  0  0  0  0  0  0  0  0  0
  187.4760  178.2270  142.9490 C   0  0  0  0  0  0  0  0  0  0  0  0
  185.9640  178.3720  145.6030 C   0  0  0  0  0  1  0  0  0  0  0  0
  191.6800  176.4220  145.4100 Cl  0  0  0  0  0  0  0  0  0  0  0  0
  189.3970  177.3750  144.2550 C   0  0  0  0  0  3  0  0  0  0  0  0
  187.3660  177.8780  145.4850 C   0  0  0  0  0  0  0  0  0  0  0  0
  190.0220  176.9780  145.4390 C   0  0  0  0  0  0  0  0  0  0  0  0
  188.0030  177.4800  146.6660 C   0  0  0  0  0  3  0  0  0  0  0  0
  189.3230  177.0300  146.6450 C   0  0  0  0  0  3  0  0  0  0  0  0
  188.0660  177.8250  144.2510 C   0  0  0  0  0  0  0  0  0  0  0  0
  183.0740  174.0530  135.9460 C   0  0  0  0  0  3  0  0  0  0  0  0
  185.0090  174.1050  137.3990 C   0  0  0  0  0  3  0  0  0  0  0  0
  182.9840  172.6680  136.1150 C   0  0  0  0  0  0  0  0  0  0  0  0
  183.9060  172.0010  136.9260 C   0  0  0  0  0  3  0  0  0  0  0  0
  182.0030  171.9740  135.4890 F   0  0  0  0  0  0  0  0  0  0  0  0
  184.9190  172.7200  137.5660 C   0  0  0  0  0  3  0  0  0  0  0  0
  184.0860  174.7790  136.5930 C   0  0  0  0  0  0  0  0  0  0  0  0
  2  4  1  0  0  0  0
  2 10  1  1  0  0  0
  3  9  1  6  0  0  0
  3 12  1  0  0  0  0
  3 13  1  0  0  0  0
  4 13  1  0  0  0  0
  4  1  1  1  0  0  0
  5  9  1  0  0  0  0
  5 38  1  1  0  0  0
  5  7  1  0  0  0  0
  7  6  1  0  0  0  0
  8  7  2  0  0  0  0
 11 12  1  0  0  0  0
 11  2  1  0  0  0  0
 13  6  1  6  0  0  0
 14 20  1  0  0  0  0
 15 21  1  0  0  0  0
 16 17  1  0  0  0  0
 17 15  1  0  0  0  0
 18 17  2  0  0  0  0
 19  8  1  1  0  0  0
 19 20  1  0  0  0  0
 19 18  1  0  0  0  0
 20 16  1  0  0  0  0
 21 23  1  0  0  0  0
 22 23  2  0  0  0  0
 23 31  1  0  0  0  0
 25 28  1  0  0  0  0
 26 28  1  0  0  0  0
 27 24  1  0  0  0  0
 27 29  2  0  0  0  0
 28 30  2  0  0  0  0
 30 29  1  0  0  0  0
 31 26  2  0  0  0  0
 31 27  1  0  0  0  0
 32 34  2  0  0  0  0
 32 38  1  0  0  0  0
 33 37  1  0  0  0  0
 34 35  1  0  0  0  0
 35 37  2  0  0  0  0
 36 34  1  0  0  0  0
 38 33  2  0  0  0  0
M  END
>  <MODEL>
5

>  <REMARK>
 VINA RESULT:      -8.9      2.061      2.578
  Name = 
  4 active torsions:
  status: ('A' for Active; 'I' for Inactive)
    1  A    between atoms: C_10  and  C_38
    2  A    between atoms: N_15  and  N_20
    3  A    between atoms: C_18  and  C_26
    4  A    between atoms: C_34  and  C_35
                            x       y       z     vdW  Elec       q    Type
                         _______ _______ _______ _____ _____    ______ ____

>  <TORSDO>
F 4

$$$$
=
 OpenBabel11042410023D

 38 42  0  0  1  0  0  0  0  0999 V2000
  184.2830  180.1050  139.4430 O   0  0  0  0  0  1  0  0  0  0  0  0
  182.0130  179.7220  138.7510 C   0  0  2  0  0  3  0  0  0  0  0  0
  182.6200  176.9740  138.2140 C   0  0  2  0  0  3  0  0  0  0  0  0
  183.4810  179.3080  138.6230 C   0  0  2  0  0  3  0  0  0  0  0  0
  184.1060  176.3150  136.5530 C   0  0  2  0  0  3  0  0  0  0  0  0
  185.0740  177.3430  138.7160 C   0  0  0  0  0  2  0  0  0  0  0  0
  185.2590  176.9640  137.2730 C   0  0  0  0  0  0  0  0  0  0  0  0
  186.4290  177.1100  136.6320 C   0  0  0  0  0  3  0  0  0  0  0  0
  182.8680  176.9500  136.8170 O   0  0  0  0  0  0  0  0  0  0  0  0
  181.6230  179.7560  140.0920 O   0  0  0  0  0  1  0  0  0  0  0  0
  181.1420  178.7260  137.9830 C   0  0  0  0  0  2  0  0  0  0  0  0
  181.3030  177.4140  138.4840 O   0  0  0  0  0  0  0  0  0  0  0  0
  183.6500  177.8310  138.9830 C   0  0  2  0  0  3  0  0  0  0  0  0
  189.8060  176.7360  137.0020 C   0  0  0  0  0  1  0  0  0  0  0  0
  187.9310  179.0050  140.5680 N   0  0  0  0  0  2  0  0  0  0  0  0
  188.8820  177.1070  139.1220 C   0  0  0  0  0  2  0  0  0  0  0  0
  188.0350  178.2960  139.3360 C   0  0  0  0  0  0  0  0  0  0  0  0
  187.3580  178.6280  138.3010 N   0  0  0  0  0  0  0  0  0  0  0  0
  187.6790  177.7110  137.2220 C   0  0  1  0  0  3  0  0  0  0  0  0
  188.5700  176.6730  137.7610 N   0  0  0  0  0  0  0  0  0  0  0  0
  188.6480  178.5920  141.6960 N   0  0  0  0  0  2  0  0  0  0  0  0
  186.7420  177.8140  142.7670 O   0  0  0  0  0  0  0  0  0  0  0  0
  187.9930  177.9720  142.8030 C   0  0  0  0  0  0  0  0  0  0  0  0
  190.5500  176.3010  142.6520 C   0  0  0  0  0  1  0  0  0  0  0  0
  188.2540  177.9520  147.9920 Cl  0  0  0  0  0  0  0  0  0  0  0  0
  188.2490  177.8780  145.2630 C   0  0  0  0  0  3  0  0  0  0  0  0
  189.9470  176.7610  143.9350 C   0  0  0  0  0  0  0  0  0  0  0  0
  188.9070  177.4970  146.4340 C   0  0  0  0  0  0  0  0  0  0  0  0
  190.5960  176.3820  145.1160 C   0  0  0  0  0  3  0  0  0  0  0  0
  190.0810  176.7490  146.3600 C   0  0  0  0  0  3  0  0  0  0  0  0
  188.7530  177.5260  143.9990 C   0  0  0  0  0  0  0  0  0  0  0  0
  183.0990  174.0510  136.0090 C   0  0  0  0  0  3  0  0  0  0  0  0
  184.9760  174.1840  137.5320 C   0  0  0  0  0  3  0  0  0  0  0  0
  183.0780  172.6610  136.1570 C   0  0  0  0  0  0  0  0  0  0  0  0
  184.0050  172.0320  136.9910 C   0  0  0  0  0  3  0  0  0  0  0  0
  182.1590  171.9250  135.4860 F   0  0  0  0  0  0  0  0  0  0  0  0
  184.9550  172.7930  137.6770 C   0  0  0  0  0  3  0  0  0  0  0  0
  184.0460  174.8200  136.7030 C   0  0  0  0  0  0  0  0  0  0  0  0
  2 10  1  1  0  0  0
  3  9  1  6  0  0  0
  3 12  1  0  0  0  0
  3 13  1  0  0  0  0
  4  2  1  0  0  0  0
  4 13  1  0  0  0  0
  4  1  1  1  0  0  0
  5 38  1  1  0  0  0
  5  9  1  0  0  0  0
  5  7  1  0  0  0  0
  7  6  1  0  0  0  0
  8  7  2  0  0  0  0
 11 12  1  0  0  0  0
 11  2  1  0  0  0  0
 13  6  1  6  0  0  0
 14 20  1  0  0  0  0
 15 21  1  0  0  0  0
 16 17  1  0  0  0  0
 17 15  1  0  0  0  0
 18 17  2  0  0  0  0
 19  8  1  1  0  0  0
 19 20  1  0  0  0  0
 19 18  1  0  0  0  0
 20 16  1  0  0  0  0
 21 23  1  0  0  0  0
 22 23  2  0  0  0  0
 23 31  1  0  0  0  0
 24 27  1  0  0  0  0
 26 28  1  0  0  0  0
 27 31  1  0  0  0  0
 27 29  2  0  0  0  0
 28 25  1  0  0  0  0
 29 30  1  0  0  0  0
 30 28  2  0  0  0  0
 31 26  2  0  0  0  0
 32 34  2  0  0  0  0
 32 38  1  0  0  0  0
 33 37  1  0  0  0  0
 34 35  1  0  0  0  0
 35 37  2  0  0  0  0
 36 34  1  0  0  0  0
 38 33  2  0  0  0  0
M  END
>  <MODEL>
6

>  <REMARK>
 VINA RESULT:      -8.8      2.197      3.009
  Name = 
  4 active torsions:
  status: ('A' for Active; 'I' for Inactive)
    1  A    between atoms: C_10  and  C_38
    2  A    between atoms: N_15  and  N_20
    3  A    between atoms: C_18  and  C_26
    4  A    between atoms: C_34  and  C_35
                            x       y       z     vdW  Elec       q    Type
                         _______ _______ _______ _____ _____    ______ ____

>  <TORSDO>
F 4

$$$$
=
 OpenBabel11042410023D

 38 42  0  0  1  0  0  0  0  0999 V2000
  181.2950  180.6130  136.8040 O   0  0  0  0  0  1  0  0  0  0  0  0
  179.3650  180.4420  138.2270 C   0  0  2  0  0  3  0  0  0  0  0  0
  181.0550  180.0190  140.5020 C   0  0  2  0  0  3  0  0  0  0  0  0
  180.8240  180.0460  137.9920 C   0  0  2  0  0  3  0  0  0  0  0  0
  182.4100  178.1450  140.7310 C   0  0  2  0  0  3  0  0  0  0  0  0
  183.1250  179.9670  139.0450 C   0  0  0  0  0  2  0  0  0  0  0  0
  183.2420  178.5540  139.5430 C   0  0  0  0  0  0  0  0  0  0  0  0
  184.1100  177.6730  139.0210 C   0  0  0  0  0  3  0  0  0  0  0  0
  181.0740  178.6080  140.6490 O   0  0  0  0  0  0  0  0  0  0  0  0
  179.2080  181.8270  138.1400 O   0  0  0  0  0  1  0  0  0  0  0  0
  178.9310  179.9570  139.6120 C   0  0  0  0  0  2  0  0  0  0  0  0
  179.7380  180.5200  140.6270 O   0  0  0  0  0  0  0  0  0  0  0  0
  181.6920  180.4830  139.1730 C   0  0  2  0  0  3  0  0  0  0  0  0
  184.9240  176.7480  135.8330 C   0  0  0  0  0  1  0  0  0  0  0  0
  188.5860  178.3880  138.1300 N   0  0  0  0  0  2  0  0  0  0  0  0
  186.8880  176.7540  137.1090 C   0  0  0  0  0  2  0  0  0  0  0  0
  187.2500  177.9710  137.8610 C   0  0  0  0  0  0  0  0  0  0  0  0
  186.2350  178.6220  138.2880 N   0  0  0  0  0  0  0  0  0  0  0  0
  185.0290  177.9390  137.8570 C   0  0  1  0  0  3  0  0  0  0  0  0
  185.4300  176.6900  137.1930 N   0  0  0  0  0  0  0  0  0  0  0  0
  189.6780  177.6310  137.6890 N   0  0  0  0  0  2  0  0  0  0  0  0
  189.8880  176.5350  139.7240 O   0  0  0  0  0  0  0  0  0  0  0  0
  190.3110  176.6780  138.5440 C   0  0  0  0  0  0  0  0  0  0  0  0
  193.2070  177.2420  139.3510 C   0  0  0  0  0  1  0  0  0  0  0  0
  191.8740  172.6730  135.6280 Cl  0  0  0  0  0  0  0  0  0  0  0  0
  191.2030  174.8010  137.2000 C   0  0  0  0  0  3  0  0  0  0  0  0
  192.8100  176.1170  138.4570 C   0  0  0  0  0  0  0  0  0  0  0  0
  192.2340  173.9940  136.7170 C   0  0  0  0  0  0  0  0  0  0  0  0
  193.8360  175.3020  137.9640 C   0  0  0  0  0  3  0  0  0  0  0  0
  193.5510  174.2450  137.1010 C   0  0  0  0  0  3  0  0  0  0  0  0
  191.4650  175.8680  138.0760 C   0  0  0  0  0  0  0  0  0  0  0  0
  184.4310  178.2530  142.2620 C   0  0  0  0  0  3  0  0  0  0  0  0
  182.2580  178.9010  143.1110 C   0  0  0  0  0  3  0  0  0  0  0  0
  185.0020  178.5380  143.5050 C   0  0  0  0  0  0  0  0  0  0  0  0
  184.2030  179.0050  144.5510 C   0  0  0  0  0  3  0  0  0  0  0  0
  186.3320  178.3650  143.6920 F   0  0  0  0  0  0  0  0  0  0  0  0
  182.8310  179.1880  144.3540 C   0  0  0  0  0  3  0  0  0  0  0  0
  183.0530  178.4270  142.0610 C   0  0  0  0  0  0  0  0  0  0  0  0
  2 10  1  1  0  0  0
  2 11  1  0  0  0  0
  3 12  1  6  0  0  0
  3  9  1  0  0  0  0
  4  1  1  6  0  0  0
  4  2  1  0  0  0  0
  4 13  1  0  0  0  0
  5 38  1  1  0  0  0
  6  7  1  0  0  0  0
  7  5  1  0  0  0  0
  8  7  2  0  0  0  0
  9  5  1  0  0  0  0
 11 12  1  0  0  0  0
 13  6  1  6  0  0  0
 13  3  1  0  0  0  0
 14 20  1  0  0  0  0
 16 20  1  0  0  0  0
 16 17  1  0  0  0  0
 17 15  1  0  0  0  0
 17 18  2  0  0  0  0
 19 18  1  0  0  0  0
 19  8  1  1  0  0  0
 20 19  1  0  0  0  0
 21 15  1  0  0  0  0
 21 23  1  0  0  0  0
 23 22  2  0  0  0  0
 25 28  1  0  0  0  0
 26 31  1  0  0  0  0
 27 24  1  0  0  0  0
 28 30  1  0  0  0  0
 28 26  2  0  0  0  0
 29 27  1  0  0  0  0
 30 29  2  0  0  0  0
 31 27  2  0  0  0  0
 31 23  1  0  0  0  0
 32 34  1  0  0  0  0
 33 37  2  0  0  0  0
 34 36  1  0  0  0  0
 34 35  2  0  0  0  0
 37 35  1  0  0  0  0
 38 32  2  0  0  0  0
 38 33  1  0  0  0  0
M  END
>  <MODEL>
7

>  <REMARK>
 VINA RESULT:      -8.8      4.235      6.740
  Name = 
  4 active torsions:
  status: ('A' for Active; 'I' for Inactive)
    1  A    between atoms: C_10  and  C_38
    2  A    between atoms: N_15  and  N_20
    3  A    between atoms: C_18  and  C_26
    4  A    between atoms: C_34  and  C_35
                            x       y       z     vdW  Elec       q    Type
                         _______ _______ _______ _____ _____    ______ ____

>  <TORSDO>
F 4

$$$$
=
 OpenBabel11042410023D

 38 42  0  0  1  0  0  0  0  0999 V2000
  188.2060  177.4510  139.3120 O   0  0  0  0  0  1  0  0  0  0  0  0
  190.5520  177.2950  139.8160 C   0  0  2  0  0  3  0  0  0  0  0  0
  189.9510  176.9600  142.5980 C   0  0  2  0  0  3  0  0  0  0  0  0
  189.1550  177.6720  140.3140 C   0  0  2  0  0  3  0  0  0  0  0  0
  188.9470  178.6210  143.8770 C   0  0  2  0  0  3  0  0  0  0  0  0
  187.4810  177.3340  142.1840 C   0  0  0  0  0  2  0  0  0  0  0  0
  187.6810  178.5350  143.0640 C   0  0  0  0  0  0  0  0  0  0  0  0
  186.7460  179.4870  143.2120 C   0  0  0  0  0  3  0  0  0  0  0  0
  190.0990  178.2660  143.1340 O   0  0  0  0  0  0  0  0  0  0  0  0
  190.5560  176.0030  139.2850 O   0  0  0  0  0  1  0  0  0  0  0  0
  191.5400  177.3780  140.9820 C   0  0  0  0  0  2  0  0  0  0  0  0
  191.1660  176.5070  142.0320 O   0  0  0  0  0  0  0  0  0  0  0  0
  188.8020  176.8710  141.5690 C   0  0  2  0  0  3  0  0  0  0  0  0
  183.4440  178.6270  143.3930 C   0  0  0  0  0  1  0  0  0  0  0  0
  184.9570  178.7090  139.0240 N   0  0  0  0  0  2  0  0  0  0  0  0
  184.2840  177.8490  141.3490 C   0  0  0  0  0  2  0  0  0  0  0  0
  184.9640  178.7980  140.4470 C   0  0  0  0  0  0  0  0  0  0  0  0
  185.6040  179.7160  141.0680 N   0  0  0  0  0  0  0  0  0  0  0  0
  185.4210  179.5260  142.4960 C   0  0  1  0  0  3  0  0  0  0  0  0
  184.6680  178.2790  142.6930 N   0  0  0  0  0  0  0  0  0  0  0  0
  184.2860  177.6680  138.3730 N   0  0  0  0  0  2  0  0  0  0  0  0
  185.9910  177.3820  136.8240 O   0  0  0  0  0  0  0  0  0  0  0  0
  184.8640  177.0050  137.2480 C   0  0  0  0  0  0  0  0  0  0  0  0
  183.1420  177.3920  134.7500 C   0  0  0  0  0  1  0  0  0  0  0  0
  183.8120  171.9180  137.2190 Cl  0  0  0  0  0  0  0  0  0  0  0  0
  184.2770  174.6050  137.1050 C   0  0  0  0  0  3  0  0  0  0  0  0
  183.3670  176.0650  135.3920 C   0  0  0  0  0  0  0  0  0  0  0  0
  183.6430  173.5100  136.5150 C   0  0  0  0  0  0  0  0  0  0  0  0
  182.7340  174.9600  134.8110 C   0  0  0  0  0  3  0  0  0  0  0  0
  182.8720  173.6880  135.3670 C   0  0  0  0  0  3  0  0  0  0  0  0
  184.1580  175.8940  136.5590 C   0  0  0  0  0  0  0  0  0  0  0  0
  190.0110  177.3830  145.8190 C   0  0  0  0  0  3  0  0  0  0  0  0
  187.6420  177.8770  145.8760 C   0  0  0  0  0  3  0  0  0  0  0  0
  189.9130  176.7660  147.0690 C   0  0  0  0  0  0  0  0  0  0  0  0
  188.6800  176.7050  147.7240 C   0  0  0  0  0  3  0  0  0  0  0  0
  191.0150  176.2310  147.6470 F   0  0  0  0  0  0  0  0  0  0  0  0
  187.5450  177.2620  147.1280 C   0  0  0  0  0  3  0  0  0  0  0  0
  188.8720  177.9360  145.2130 C   0  0  0  0  0  0  0  0  0  0  0  0
  2 10  1  1  0  0  0
  2  4  1  0  0  0  0
  2 11  1  0  0  0  0
  3 12  1  6  0  0  0
  3  9  1  0  0  0  0
  4  1  1  6  0  0  0
  4 13  1  0  0  0  0
  5 38  1  1  0  0  0
  6  7  1  0  0  0  0
  7  8  2  0  0  0  0
  7  5  1  0  0  0  0
  9  5  1  0  0  0  0
 11 12  1  0  0  0  0
 13  6  1  1  0  0  0
 13  3  1  0  0  0  0
 15 17  1  0  0  0  0
 16 20  1  0  0  0  0
 17 18  2  0  0  0  0
 17 16  1  0  0  0  0
 18 19  1  0  0  0  0
 19 20  1  0  0  0  0
 19  8  1  1  0  0  0
 20 14  1  0  0  0  0
 21 15  1  0  0  0  0
 22 23  2  0  0  0  0
 23 21  1  0  0  0  0
 24 27  1  0  0  0  0
 27 31  2  0  0  0  0
 28 26  2  0  0  0  0
 28 25  1  0  0  0  0
 29 30  2  0  0  0  0
 29 27  1  0  0  0  0
 30 28  1  0  0  0  0
 31 26  1  0  0  0  0
 31 23  1  0  0  0  0
 32 34  1  0  0  0  0
 33 37  2  0  0  0  0
 34 36  1  0  0  0  0
 34 35  2  0  0  0  0
 37 35  1  0  0  0  0
 38 32  2  0  0  0  0
 38 33  1  0  0  0  0
M  END
>  <MODEL>
8

>  <REMARK>
 VINA RESULT:      -8.1      4.126      9.446
  Name = 
  4 active torsions:
  status: ('A' for Active; 'I' for Inactive)
    1  A    between atoms: C_10  and  C_38
    2  A    between atoms: N_15  and  N_20
    3  A    between atoms: C_18  and  C_26
    4  A    between atoms: C_34  and  C_35
                            x       y       z     vdW  Elec       q    Type
                         _______ _______ _______ _____ _____    ______ ____

>  <TORSDO>
F 4

$$$$
=
 OpenBabel11042410023D

 38 42  0  0  1  0  0  0  0  0999 V2000
  185.7620  178.1600  138.1630 O   0  0  0  0  0  1  0  0  0  0  0  0
  184.1140  177.4300  136.5720 C   0  0  2  0  0  3  0  0  0  0  0  0
  185.6660  175.0890  136.0080 C   0  0  2  0  0  3  0  0  0  0  0  0
  185.5820  177.4050  137.0010 C   0  0  2  0  0  3  0  0  0  0  0  0
  187.7700  175.1820  135.0230 C   0  0  2  0  0  3  0  0  0  0  0  0
  187.5500  175.8910  137.4970 C   0  0  0  0  0  2  0  0  0  0  0  0
  188.3400  175.9000  136.2190 C   0  0  0  0  0  0  0  0  0  0  0  0
  189.5600  176.4520  136.1260 C   0  0  0  0  0  3  0  0  0  0  0  0
  186.3890  175.4380  134.8380 O   0  0  0  0  0  0  0  0  0  0  0  0
  183.2820  177.0690  137.6350 O   0  0  0  0  0  1  0  0  0  0  0  0
  183.9140  176.4580  135.4070 C   0  0  0  0  0  2  0  0  0  0  0  0
  184.2720  175.1400  135.7720 O   0  0  0  0  0  0  0  0  0  0  0  0
  186.0480  175.9640  137.2220 C   0  0  2  0  0  3  0  0  0  0  0  0
  192.2380  176.3670  138.2480 C   0  0  0  0  0  1  0  0  0  0  0  0
  188.6540  178.6270  140.1000 N   0  0  0  0  0  2  0  0  0  0  0  0
  190.3130  176.7520  139.5260 C   0  0  0  0  0  2  0  0  0  0  0  0
  189.4280  177.8770  139.1680 C   0  0  0  0  0  0  0  0  0  0  0  0
  189.3900  178.1090  137.9090 N   0  0  0  0  0  0  0  0  0  0  0  0
  190.2760  177.1760  137.2370 C   0  0  1  0  0  3  0  0  0  0  0  0
  190.7910  176.2370  138.2440 N   0  0  0  0  0  0  0  0  0  0  0  0
  188.6800  178.3210  141.4650 N   0  0  0  0  0  2  0  0  0  0  0  0
  186.3690  178.4290  141.6530 O   0  0  0  0  0  0  0  0  0  0  0  0
  187.4740  178.2190  142.2240 C   0  0  0  0  0  0  0  0  0  0  0  0
  184.9880  178.2530  144.0050 C   0  0  0  0  0  1  0  0  0  0  0  0
  190.4020  176.8390  146.2880 Cl  0  0  0  0  0  0  0  0  0  0  0  0
  188.7390  177.5630  144.2480 C   0  0  0  0  0  3  0  0  0  0  0  0
  186.3470  177.8890  144.5010 C   0  0  0  0  0  0  0  0  0  0  0  0
  188.8430  177.2390  145.6010 C   0  0  0  0  0  0  0  0  0  0  0  0
  186.4640  177.5660  145.8580 C   0  0  0  0  0  3  0  0  0  0  0  0
  187.7050  177.2400  146.4060 C   0  0  0  0  0  3  0  0  0  0  0  0
  187.4990  177.8870  143.6710 C   0  0  0  0  0  0  0  0  0  0  0  0
  189.4430  173.2760  134.9880 C   0  0  0  0  0  3  0  0  0  0  0  0
  187.0750  172.7820  134.8980 C   0  0  0  0  0  3  0  0  0  0  0  0
  189.7310  171.9080  134.9430 C   0  0  0  0  0  0  0  0  0  0  0  0
  188.6910  170.9770  134.8770 C   0  0  0  0  0  3  0  0  0  0  0  0
  191.0180  171.4880  134.9690 F   0  0  0  0  0  0  0  0  0  0  0  0
  187.3640  171.4140  134.8550 C   0  0  0  0  0  3  0  0  0  0  0  0
  188.1120  173.7190  134.9590 C   0  0  0  0  0  0  0  0  0  0  0  0
  2  4  1  0  0  0  0
  2 10  1  1  0  0  0
  3  9  1  6  0  0  0
  3 13  1  0  0  0  0
  4 13  1  0  0  0  0
  4  1  1  1  0  0  0
  5 38  1  1  0  0  0
  5  7  1  0  0  0  0
  7  6  1  0  0  0  0
  8  7  2  0  0  0  0
  9  5  1  0  0  0  0
 11 12  1  0  0  0  0
 11  2  1  0  0  0  0
 12  3  1  0  0  0  0
 13  6  1  6  0  0  0
 15 21  1  0  0  0  0
 17 16  1  0  0  0  0
 17 15  1  0  0  0  0
 18 17  2  0  0  0  0
 19  8  1  6  0  0  0
 19 18  1  0  0  0  0
 19 20  1  0  0  0  0
 20 14  1  0  0  0  0
 20 16  1  0  0  0  0
 21 23  1  0  0  0  0
 22 23  2  0  0  0  0
 23 31  1  0  0  0  0
 24 27  1  0  0  0  0
 26 28  1  0  0  0  0
 27 29  2  0  0  0  0
 28 25  1  0  0  0  0
 28 30  2  0  0  0  0
 29 30  1  0  0  0  0
 31 26  2  0  0  0  0
 31 27  1  0  0  0  0
 33 38  2  0  0  0  0
 34 36  1  0  0  0  0
 34 32  2  0  0  0  0
 35 34  1  0  0  0  0
 37 35  2  0  0  0  0
 37 33  1  0  0  0  0
 38 32  1  0  0  0  0
M  END
>  <MODEL>
9

>  <REMARK>
 VINA RESULT:      -8.1      3.496      4.756
  Name = 
  4 active torsions:
  status: ('A' for Active; 'I' for Inactive)
    1  A    between atoms: C_10  and  C_38
    2  A    between atoms: N_15  and  N_20
    3  A    between atoms: C_18  and  C_26
    4  A    between atoms: C_34  and  C_35
                            x       y       z     vdW  Elec       q    Type
                         _______ _______ _______ _____ _____    ______ ____

>  <TORSDO>
F 4

$$$$
