=
 OpenBabel11032421133D

 50 55  0  0  1  0  0  0  0  0999 V2000
  190.5920  177.6280  144.5480 C   0  0  0  0  0  2  0  0  0  0  0  0
  189.2000  177.4980  146.8290 N   0  0  0  0  0  2  0  0  0  0  0  0
  189.5560  176.6850  144.3830 C   0  0  2  0  0  3  0  0  0  0  0  0
  188.2540  177.3140  144.0880 N   0  0  0  0  0  0  0  0  0  0  0  0
  187.8430  177.8550  146.5100 C   0  0  0  0  0  0  0  0  0  0  0  0
  186.9920  178.3050  147.5200 C   0  0  0  0  0  3  0  0  0  0  0  0
  189.8670  177.1270  145.8000 C   0  0  1  0  0  3  0  0  0  0  0  0
  185.2070  178.6300  145.9060 C   0  0  0  0  0  0  0  0  0  0  0  0
  187.3710  177.7830  145.1580 C   0  0  0  0  0  0  0  0  0  0  0  0
  186.0550  178.1800  144.8820 C   0  0  0  0  0  3  0  0  0  0  0  0
  185.6820  178.6890  147.2190 C   0  0  0  0  0  3  0  0  0  0  0  0
  187.8180  177.3320  142.6970 C   0  0  0  0  0  2  0  0  0  0  0  0
  188.5360  178.4320  141.9380 C   0  0  0  0  0  2  0  0  0  0  0  0
  188.3630  178.2150  140.4380 C   0  0  0  0  0  2  0  0  0  0  0  0
  189.2170  177.1450  139.9140 N   0  0  0  0  0  0  0  0  0  0  0  0
  191.2820  176.9300  139.2350 C   0  0  0  0  0  1  0  0  0  0  0  0
  190.4990  177.3730  140.3040 O   0  0  0  0  0  0  0  0  0  0  0  0
  189.1790  177.1880  138.4570 C   0  0  0  0  0  2  0  0  0  0  0  0
  187.9250  176.4970  137.9430 C   0  0  0  0  0  2  0  0  0  0  0  0
  187.7030  176.8130  136.5370 N   0  0  0  0  0  0  0  0  0  0  0  0
  187.1540  179.0350  137.0350 O   0  0  0  0  0  1  0  0  0  0  0  0
  187.1200  178.4700  134.8200 O   0  0  0  0  0  0  0  0  0  0  0  0
  187.3190  178.1470  136.1570 C   0  0  0  0  0  0  0  0  0  0  0  0
  189.4960  174.0650  134.5940 C   0  0  0  0  0  2  0  0  0  0  0  0
  186.9290  174.5970  135.7980 C   0  0  0  0  0  2  0  0  0  0  0  0
  187.9020  175.7500  135.5490 C   0  0  2  0  0  3  0  0  0  0  0  0
  190.2760  176.3720  135.0450 C   0  0  0  0  0  1  0  0  0  0  0  0
  188.5950  172.9920  135.0100 N   0  0  0  0  0  2  0  0  0  0  0  0
  187.2220  173.4530  134.8310 C   0  0  0  0  0  2  0  0  0  0  0  0
  189.3590  175.2650  135.5290 C   0  0  2  0  0  3  0  0  0  0  0  0
  183.8930  179.0270  145.6430 O   0  0  0  0  0  0  0  0  0  0  0  0
  183.4580  179.4180  144.3480 C   0  0  0  0  0  2  0  0  0  0  0  0
  182.1980  178.6580  143.9900 C   0  0  0  0  0  2  0  0  0  0  0  0
  181.2490  179.5790  143.2450 C   0  0  0  0  0  2  0  0  0  0  0  0
  180.1870  178.8090  142.6180 N   0  0  0  0  0  2  0  0  0  0  0  0
  180.6490  177.3250  140.5250 C   0  0  0  0  0  0  0  0  0  0  0  0
  180.4340  178.0100  141.4920 C   0  0  0  0  0  0  0  0  0  0  0  0
  180.9140  176.4910  139.3480 C   0  0  2  0  0  3  0  0  0  0  0  0
  180.4620  175.1870  139.5660 O   0  0  0  0  0  1  0  0  0  0  0  0
  182.7130  177.0290  137.5790 C   0  0  1  0  0  0  0  0  0  0  0  0
  182.3990  176.5070  138.9770 C   0  0  1  0  0  3  0  0  0  0  0  0
  184.1830  177.8590  139.2180 C   0  0  2  0  0  3  0  0  0  0  0  0
  183.7940  178.0430  137.7660 C   0  0  1  0  0  3  0  0  0  0  0  0
  184.0810  176.7760  136.9780 C   0  0  2  0  0  3  0  0  0  0  0  0
  183.1210  177.2580  139.9190 O   0  0  0  0  0  0  0  0  0  0  0  0
  181.6990  177.5250  136.7540 O   0  0  0  0  0  1  0  0  0  0  0  0
  184.0760  177.0670  135.6120 O   0  0  0  0  0  1  0  0  0  0  0  0
  184.5250  179.1750  139.8310 C   0  0  0  0  0  0  0  0  0  0  0  0
  184.8880  179.2440  141.0360 O   0  0  0  0  0  1  0  0  0  0  0  0
  184.4210  180.3330  139.0740 O   0  0  0  0  0  0  0  0  0  0  0  0
  3  1  1  6  0  0  0
  3  7  1  0  0  0  0
  4  3  1  0  0  0  0
  4  9  1  0  0  0  0
  5  2  1  0  0  0  0
  5  6  1  0  0  0  0
  7  1  1  6  0  0  0
  7  2  1  0  0  0  0
  8 11  1  0  0  0  0
  9  5  2  0  0  0  0
 10  9  1  0  0  0  0
 10  8  2  0  0  0  0
 11  6  2  0  0  0  0
 12  4  1  0  0  0  0
 13 12  1  0  0  0  0
 14 13  1  0  0  0  0
 15 17  1  0  0  0  0
 15 14  1  0  0  0  0
 16 17  1  0  0  0  0
 18 15  1  0  0  0  0
 19 18  1  0  0  0  0
 20 19  1  0  0  0  0
 22 23  2  0  0  0  0
 23 20  1  0  0  0  0
 23 21  1  0  0  0  0
 24 28  1  0  0  0  0
 24 30  1  0  0  0  0
 26 25  1  0  0  0  0
 26 20  1  1  0  0  0
 29 28  1  0  0  0  0
 29 25  1  0  0  0  0
 30 27  1  6  0  0  0
 30 26  1  0  0  0  0
 31  8  1  0  0  0  0
 32 31  1  0  0  0  0
 33 32  1  0  0  0  0
 34 33  1  0  0  0  0
 35 34  1  0  0  0  0
 36 37  3  0  0  0  0
 37 35  1  0  0  0  0
 38 39  1  1  0  0  0
 38 36  1  0  0  0  0
 40 46  1  6  0  0  0
 40 43  1  0  0  0  0
 40 41  1  0  0  0  0
 41 38  1  1  0  0  0
 41 45  1  0  0  0  0
 42 48  1  1  0  0  0
 42 45  1  0  0  0  0
 43 42  1  0  0  0  0
 44 40  1  0  0  0  0
 44 43  1  0  0  0  0
 47 44  1  0  0  0  0
 48 49  1  0  0  0  0
 50 48  2  0  0  0  0
M  END
>  <MODEL>
1

>  <REMARK>
 VINA RESULT:      -7.7      0.000      0.000
  Name = 
  18 active torsions:
  status: ('A' for Active; 'I' for Inactive)
    1  A    between atoms: C_1  and  C_14
    2  A    between atoms: C_2  and  C_15
    3  A    between atoms: C_2  and  N_24
    4  A    between atoms: O_3  and  C_39
    5  A    between atoms: O_3  and  C_48
    6  A    between atoms: C_6  and  C_17
    7  A    between atoms: C_8  and  C_17
    8  A    between atoms: C_11  and  N_16
    9  A    between atoms: C_13  and  N_24
   10  A    between atoms: C_13  and  C_34
   11  A    between atoms: C_15  and  N_16
   12  A    between atoms: N_24  and  O_32
   13  A    between atoms: N_25  and  C_49
   14  A    between atoms: N_30  and  C_33
   15  A    between atoms: N_30  and  C_46
   16  A    between atoms: C_34  and  C_49
   17  A    between atoms: C_46  and  C_50
   18  A    between atoms: C_48  and  C_50
                            x       y       z     vdW  Elec       q    Type
                         _______ _______ _______ _____ _____    ______ ____

>  <TORSDO>
F 18

$$$$
=
 OpenBabel11032421133D

 50 55  0  0  1  0  0  0  0  0999 V2000
  190.2900  177.8270  145.0480 C   0  0  0  0  0  2  0  0  0  0  0  0
  188.2000  177.9770  146.7120 N   0  0  0  0  0  2  0  0  0  0  0  0
  189.4280  176.7430  144.7780 C   0  0  2  0  0  3  0  0  0  0  0  0
  188.2780  177.1240  143.9360 N   0  0  0  0  0  0  0  0  0  0  0  0
  187.0220  178.0820  145.8930 C   0  0  0  0  0  0  0  0  0  0  0  0
  185.8490  178.6100  146.4350 C   0  0  0  0  0  3  0  0  0  0  0  0
  189.2020  177.4980  146.0740 C   0  0  1  0  0  3  0  0  0  0  0  0
  184.7220  178.3680  144.2980 C   0  0  0  0  0  0  0  0  0  0  0  0
  187.0530  177.6790  144.5180 C   0  0  0  0  0  0  0  0  0  0  0  0
  185.8960  177.8360  143.7420 C   0  0  0  0  0  3  0  0  0  0  0  0
  184.7070  178.7510  145.6420 C   0  0  0  0  0  3  0  0  0  0  0  0
  188.3530  176.8050  142.5150 C   0  0  0  0  0  2  0  0  0  0  0  0
  189.2090  177.8280  141.7940 C   0  0  0  0  0  2  0  0  0  0  0  0
  188.5330  178.2290  140.4860 C   0  0  0  0  0  2  0  0  0  0  0  0
  189.4410  178.1810  139.3370 N   0  0  0  0  0  0  0  0  0  0  0  0
  187.8780  178.6210  137.8760 C   0  0  0  0  0  1  0  0  0  0  0  0
  189.0590  179.1200  138.4330 O   0  0  0  0  0  0  0  0  0  0  0  0
  189.3210  176.8740  138.7020 C   0  0  0  0  0  2  0  0  0  0  0  0
  190.5600  176.0370  138.9830 C   0  0  0  0  0  2  0  0  0  0  0  0
  191.5620  176.2350  137.9430 N   0  0  0  0  0  0  0  0  0  0  0  0
  193.1010  177.1140  139.4740 O   0  0  0  0  0  1  0  0  0  0  0  0
  193.8200  176.9650  137.3090 O   0  0  0  0  0  0  0  0  0  0  0  0
  192.8470  176.7850  138.2850 C   0  0  0  0  0  0  0  0  0  0  0  0
  190.3040  174.0420  135.0890 C   0  0  0  0  0  2  0  0  0  0  0  0
  190.1610  176.7780  135.9930 C   0  0  0  0  0  2  0  0  0  0  0  0
  191.2240  175.8430  136.5730 C   0  0  2  0  0  3  0  0  0  0  0  0
  191.9400  173.4580  136.8540 C   0  0  0  0  0  1  0  0  0  0  0  0
  189.2120  174.9330  134.7010 N   0  0  0  0  0  2  0  0  0  0  0  0
  189.7410  176.2910  134.6100 C   0  0  0  0  0  2  0  0  0  0  0  0
  190.7830  174.3740  136.5000 C   0  0  2  0  0  3  0  0  0  0  0  0
  183.5620  178.5280  143.5350 O   0  0  0  0  0  0  0  0  0  0  0  0
  182.4760  179.3430  143.9570 C   0  0  0  0  0  2  0  0  0  0  0  0
  181.1940  178.5400  143.9040 C   0  0  0  0  0  2  0  0  0  0  0  0
  180.0790  179.4070  143.3480 C   0  0  0  0  0  2  0  0  0  0  0  0
  180.2550  179.6000  141.9180 N   0  0  0  0  0  2  0  0  0  0  0  0
  180.8040  177.5970  140.3410 C   0  0  0  0  0  0  0  0  0  0  0  0
  180.5520  178.5230  141.0690 C   0  0  0  0  0  0  0  0  0  0  0  0
  181.1080  176.4680  139.4560 C   0  0  2  0  0  3  0  0  0  0  0  0
  180.8380  175.2600  140.1020 O   0  0  0  0  0  1  0  0  0  0  0  0
  182.7330  176.9790  137.5190 C   0  0  1  0  0  0  0  0  0  0  0  0
  182.5560  176.5220  138.9630 C   0  0  1  0  0  3  0  0  0  0  0  0
  184.2930  177.9520  138.9860 C   0  0  2  0  0  3  0  0  0  0  0  0
  183.7810  178.0420  137.5640 C   0  0  1  0  0  3  0  0  0  0  0  0
  184.0580  176.7460  136.8200 C   0  0  2  0  0  3  0  0  0  0  0  0
  183.3180  177.3500  139.8030 O   0  0  0  0  0  0  0  0  0  0  0  0
  181.6360  177.3900  136.7560 O   0  0  0  0  0  1  0  0  0  0  0  0
  183.9300  176.9630  135.4460 O   0  0  0  0  0  1  0  0  0  0  0  0
  184.6270  179.3120  139.5010 C   0  0  0  0  0  0  0  0  0  0  0  0
  184.4620  180.3290  138.7770 O   0  0  0  0  0  0  0  0  0  0  0  0
  185.1430  179.4530  140.7810 O   0  0  0  0  0  1  0  0  0  0  0  0
  3  1  1  6  0  0  0
  3  7  1  0  0  0  0
  4  9  1  0  0  0  0
  4  3  1  0  0  0  0
  5  6  1  0  0  0  0
  5  2  1  0  0  0  0
  7  1  1  6  0  0  0
  7  2  1  0  0  0  0
  8 11  1  0  0  0  0
  9  5  2  0  0  0  0
 10  8  2  0  0  0  0
 10  9  1  0  0  0  0
 11  6  2  0  0  0  0
 12  4  1  0  0  0  0
 13 12  1  0  0  0  0
 14 13  1  0  0  0  0
 15 14  1  0  0  0  0
 16 17  1  0  0  0  0
 17 15  1  0  0  0  0
 18 19  1  0  0  0  0
 18 15  1  0  0  0  0
 20 23  1  0  0  0  0
 20 19  1  0  0  0  0
 22 23  2  0  0  0  0
 23 21  1  0  0  0  0
 24 30  1  0  0  0  0
 25 26  1  0  0  0  0
 26 20  1  1  0  0  0
 28 24  1  0  0  0  0
 29 28  1  0  0  0  0
 29 25  1  0  0  0  0
 30 26  1  0  0  0  0
 30 27  1  6  0  0  0
 31 32  1  0  0  0  0
 31  8  1  0  0  0  0
 33 32  1  0  0  0  0
 34 33  1  0  0  0  0
 35 34  1  0  0  0  0
 36 37  3  0  0  0  0
 37 35  1  0  0  0  0
 38 39  1  1  0  0  0
 38 36  1  0  0  0  0
 40 46  1  6  0  0  0
 40 43  1  0  0  0  0
 40 41  1  0  0  0  0
 41 38  1  1  0  0  0
 41 45  1  0  0  0  0
 42 48  1  1  0  0  0
 42 45  1  0  0  0  0
 43 42  1  0  0  0  0
 44 40  1  0  0  0  0
 44 43  1  0  0  0  0
 47 44  1  0  0  0  0
 48 50  1  0  0  0  0
 49 48  2  0  0  0  0
M  END
>  <MODEL>
2

>  <REMARK>
 VINA RESULT:      -7.3      1.414      2.409
  Name = 
  18 active torsions:
  status: ('A' for Active; 'I' for Inactive)
    1  A    between atoms: C_1  and  C_14
    2  A    between atoms: C_2  and  C_15
    3  A    between atoms: C_2  and  N_24
    4  A    between atoms: O_3  and  C_39
    5  A    between atoms: O_3  and  C_48
    6  A    between atoms: C_6  and  C_17
    7  A    between atoms: C_8  and  C_17
    8  A    between atoms: C_11  and  N_16
    9  A    between atoms: C_13  and  N_24
   10  A    between atoms: C_13  and  C_34
   11  A    between atoms: C_15  and  N_16
   12  A    between atoms: N_24  and  O_32
   13  A    between atoms: N_25  and  C_49
   14  A    between atoms: N_30  and  C_33
   15  A    between atoms: N_30  and  C_46
   16  A    between atoms: C_34  and  C_49
   17  A    between atoms: C_46  and  C_50
   18  A    between atoms: C_48  and  C_50
                            x       y       z     vdW  Elec       q    Type
                         _______ _______ _______ _____ _____    ______ ____

>  <TORSDO>
F 18

$$$$
=
 OpenBabel11032421133D

 50 55  0  0  1  0  0  0  0  0999 V2000
  191.2860  177.5800  144.8200 C   0  0  0  0  0  2  0  0  0  0  0  0
  189.3630  177.7090  146.6760 N   0  0  0  0  0  2  0  0  0  0  0  0
  190.4190  176.4810  144.6390 C   0  0  2  0  0  3  0  0  0  0  0  0
  189.1880  176.8400  143.9090 N   0  0  0  0  0  0  0  0  0  0  0  0
  188.1100  177.7910  145.9730 C   0  0  0  0  0  0  0  0  0  0  0  0
  186.9870  178.3060  146.6220 C   0  0  0  0  0  3  0  0  0  0  0  0
  190.3070  177.2400  145.9470 C   0  0  1  0  0  3  0  0  0  0  0  0
  185.6650  178.0340  144.6040 C   0  0  0  0  0  0  0  0  0  0  0  0
  188.0160  177.3810  144.6030 C   0  0  0  0  0  0  0  0  0  0  0  0
  186.7890  177.5160  143.9410 C   0  0  0  0  0  3  0  0  0  0  0  0
  185.7730  178.4250  145.9420 C   0  0  0  0  0  3  0  0  0  0  0  0
  189.1320  176.5140  142.4890 C   0  0  0  0  0  2  0  0  0  0  0  0
  189.8560  177.5730  141.6800 C   0  0  0  0  0  2  0  0  0  0  0  0
  190.4390  176.9440  140.4190 C   0  0  0  0  0  2  0  0  0  0  0  0
  189.9080  177.5350  139.1880 N   0  0  0  0  0  0  0  0  0  0  0  0
  187.8060  178.0690  138.9230 C   0  0  0  0  0  1  0  0  0  0  0  0
  188.6920  176.9880  138.9250 O   0  0  0  0  0  0  0  0  0  0  0  0
  190.7990  177.1950  138.0840 C   0  0  0  0  0  2  0  0  0  0  0  0
  191.9070  176.2720  138.5680 C   0  0  0  0  0  2  0  0  0  0  0  0
  192.3800  175.4220  137.4810 N   0  0  0  0  0  0  0  0  0  0  0  0
  190.5660  173.9610  137.7190 O   0  0  0  0  0  1  0  0  0  0  0  0
  192.0500  173.4480  136.0580 O   0  0  0  0  0  0  0  0  0  0  0  0
  191.6230  174.2590  137.1030 C   0  0  0  0  0  0  0  0  0  0  0  0
  195.9120  175.0850  136.0840 C   0  0  0  0  0  2  0  0  0  0  0  0
  193.3340  176.1340  135.3260 C   0  0  0  0  0  2  0  0  0  0  0  0
  193.6160  175.8030  136.7930 C   0  0  2  0  0  3  0  0  0  0  0  0
  195.1250  174.5830  138.3780 C   0  0  0  0  0  1  0  0  0  0  0  0
  195.5250  175.2610  134.6860 N   0  0  0  0  0  2  0  0  0  0  0  0
  194.6440  176.4220  134.5980 C   0  0  0  0  0  2  0  0  0  0  0  0
  194.6940  174.7180  136.9290 C   0  0  2  0  0  3  0  0  0  0  0  0
  184.4350  178.1730  143.9550 O   0  0  0  0  0  0  0  0  0  0  0  0
  183.3370  178.8630  144.5370 C   0  0  0  0  0  2  0  0  0  0  0  0
  182.3050  179.1580  143.4700 C   0  0  0  0  0  2  0  0  0  0  0  0
  180.9380  178.7080  143.9530 C   0  0  0  0  0  2  0  0  0  0  0  0
  179.9930  178.6920  142.8490 N   0  0  0  0  0  2  0  0  0  0  0  0
  180.5170  177.4180  140.6350 C   0  0  0  0  0  0  0  0  0  0  0  0
  180.2760  178.0050  141.6580 C   0  0  0  0  0  0  0  0  0  0  0  0
  180.8100  176.7050  139.3870 C   0  0  2  0  0  3  0  0  0  0  0  0
  180.2200  175.4390  139.4020 O   0  0  0  0  0  1  0  0  0  0  0  0
  182.7660  176.9580  137.7240 C   0  0  1  0  0  0  0  0  0  0  0  0
  182.3180  176.6110  139.1400 C   0  0  1  0  0  3  0  0  0  0  0  0
  184.1490  177.8980  139.3790 C   0  0  2  0  0  3  0  0  0  0  0  0
  183.8840  177.9350  137.8890 C   0  0  1  0  0  3  0  0  0  0  0  0
  184.1610  176.5750  137.2690 C   0  0  2  0  0  3  0  0  0  0  0  0
  183.0050  177.4300  140.0510 O   0  0  0  0  0  0  0  0  0  0  0  0
  181.8470  177.4030  136.7690 O   0  0  0  0  0  1  0  0  0  0  0  0
  184.2760  176.7110  135.8840 O   0  0  0  0  0  1  0  0  0  0  0  0
  184.5150  179.2580  139.8720 C   0  0  0  0  0  0  0  0  0  0  0  0
  185.0370  179.4070  141.0090 O   0  0  0  0  0  1  0  0  0  0  0  0
  184.2580  180.3670  139.0800 O   0  0  0  0  0  0  0  0  0  0  0  0
  3  1  1  6  0  0  0
  3  7  1  0  0  0  0
  4  9  1  0  0  0  0
  4  3  1  0  0  0  0
  5  6  1  0  0  0  0
  5  2  1  0  0  0  0
  7  1  1  6  0  0  0
  7  2  1  0  0  0  0
  8 11  1  0  0  0  0
  9  5  2  0  0  0  0
 10  9  1  0  0  0  0
 10  8  2  0  0  0  0
 11  6  2  0  0  0  0
 12  4  1  0  0  0  0
 13 12  1  0  0  0  0
 14 13  1  0  0  0  0
 15 14  1  0  0  0  0
 16 17  1  0  0  0  0
 17 15  1  0  0  0  0
 18 19  1  0  0  0  0
 18 15  1  0  0  0  0
 20 19  1  0  0  0  0
 22 23  2  0  0  0  0
 23 20  1  0  0  0  0
 23 21  1  0  0  0  0
 24 30  1  0  0  0  0
 25 26  1  0  0  0  0
 26 30  1  0  0  0  0
 26 20  1  6  0  0  0
 28 24  1  0  0  0  0
 29 28  1  0  0  0  0
 29 25  1  0  0  0  0
 30 27  1  1  0  0  0
 31 32  1  0  0  0  0
 31  8  1  0  0  0  0
 33 34  1  0  0  0  0
 33 32  1  0  0  0  0
 35 34  1  0  0  0  0
 36 37  3  0  0  0  0
 37 35  1  0  0  0  0
 38 39  1  1  0  0  0
 38 36  1  0  0  0  0
 40 46  1  6  0  0  0
 40 43  1  0  0  0  0
 40 41  1  0  0  0  0
 41 38  1  6  0  0  0
 41 45  1  0  0  0  0
 42 48  1  1  0  0  0
 42 45  1  0  0  0  0
 43 42  1  0  0  0  0
 44 40  1  0  0  0  0
 44 43  1  0  0  0  0
 47 44  1  0  0  0  0
 48 49  1  0  0  0  0
 50 48  2  0  0  0  0
M  END
>  <MODEL>
3

>  <REMARK>
 VINA RESULT:      -7.2      2.398      3.238
  Name = 
  18 active torsions:
  status: ('A' for Active; 'I' for Inactive)
    1  A    between atoms: C_1  and  C_14
    2  A    between atoms: C_2  and  C_15
    3  A    between atoms: C_2  and  N_24
    4  A    between atoms: O_3  and  C_39
    5  A    between atoms: O_3  and  C_48
    6  A    between atoms: C_6  and  C_17
    7  A    between atoms: C_8  and  C_17
    8  A    between atoms: C_11  and  N_16
    9  A    between atoms: C_13  and  N_24
   10  A    between atoms: C_13  and  C_34
   11  A    between atoms: C_15  and  N_16
   12  A    between atoms: N_24  and  O_32
   13  A    between atoms: N_25  and  C_49
   14  A    between atoms: N_30  and  C_33
   15  A    between atoms: N_30  and  C_46
   16  A    between atoms: C_34  and  C_49
   17  A    between atoms: C_46  and  C_50
   18  A    between atoms: C_48  and  C_50
                            x       y       z     vdW  Elec       q    Type
                         _______ _______ _______ _____ _____    ______ ____

>  <TORSDO>
F 18

$$$$
=
 OpenBabel11032421133D

 50 55  0  0  1  0  0  0  0  0999 V2000
  189.8700  177.9230  145.0450 C   0  0  0  0  0  2  0  0  0  0  0  0
  187.7780  177.9050  146.7140 N   0  0  0  0  0  2  0  0  0  0  0  0
  189.0030  176.8780  144.6610 C   0  0  2  0  0  3  0  0  0  0  0  0
  187.8570  177.3520  143.8630 N   0  0  0  0  0  0  0  0  0  0  0  0
  186.6020  178.1020  145.9100 C   0  0  0  0  0  0  0  0  0  0  0  0
  185.4300  178.5750  146.5030 C   0  0  0  0  0  3  0  0  0  0  0  0
  188.7790  177.4910  146.0300 C   0  0  1  0  0  3  0  0  0  0  0  0
  184.3060  178.5670  144.3520 C   0  0  0  0  0  0  0  0  0  0  0  0
  186.6330  177.8480  144.4990 C   0  0  0  0  0  0  0  0  0  0  0  0
  185.4790  178.0920  143.7440 C   0  0  0  0  0  3  0  0  0  0  0  0
  184.2900  178.8050  145.7290 C   0  0  0  0  0  3  0  0  0  0  0  0
  187.9330  177.1860  142.4160 C   0  0  0  0  0  2  0  0  0  0  0  0
  188.1260  178.5320  141.7450 C   0  0  0  0  0  2  0  0  0  0  0  0
  188.7880  178.3350  140.3850 C   0  0  0  0  0  2  0  0  0  0  0  0
  189.8080  177.2820  140.3940 N   0  0  0  0  0  0  0  0  0  0  0  0
  191.7050  177.3760  141.4740 C   0  0  0  0  0  1  0  0  0  0  0  0
  191.0370  177.8580  140.3440 O   0  0  0  0  0  0  0  0  0  0  0  0
  189.6480  176.4660  139.1960 C   0  0  0  0  0  2  0  0  0  0  0  0
  190.1360  177.2260  137.9730 C   0  0  0  0  0  2  0  0  0  0  0  0
  189.0820  177.3160  136.9690 N   0  0  0  0  0  0  0  0  0  0  0  0
  188.7500  179.5950  137.3950 O   0  0  0  0  0  1  0  0  0  0  0  0
  187.4350  178.6830  135.7630 O   0  0  0  0  0  0  0  0  0  0  0  0
  188.4300  178.5760  136.7280 C   0  0  0  0  0  0  0  0  0  0  0  0
  189.6040  174.0840  135.0130 C   0  0  0  0  0  2  0  0  0  0  0  0
  187.9040  175.1580  137.0810 C   0  0  0  0  0  2  0  0  0  0  0  0
  188.7370  176.1070  136.2180 C   0  0  2  0  0  3  0  0  0  0  0  0
  190.6640  176.2890  134.6270 C   0  0  0  0  0  1  0  0  0  0  0  0
  188.9160  173.2270  135.9770 N   0  0  0  0  0  2  0  0  0  0  0  0
  187.6460  173.8580  136.3250 C   0  0  0  0  0  2  0  0  0  0  0  0
  189.9890  175.4110  135.6640 C   0  0  2  0  0  3  0  0  0  0  0  0
  183.1480  178.8140  143.6090 O   0  0  0  0  0  0  0  0  0  0  0  0
  181.9070  179.1470  144.2170 C   0  0  0  0  0  2  0  0  0  0  0  0
  180.8020  178.3240  143.5890 C   0  0  0  0  0  2  0  0  0  0  0  0
  179.5340  179.1560  143.5140 C   0  0  0  0  0  2  0  0  0  0  0  0
  179.1020  179.2940  142.1340 N   0  0  0  0  0  2  0  0  0  0  0  0
  180.2130  177.9120  140.2220 C   0  0  0  0  0  0  0  0  0  0  0  0
  179.6990  178.5500  141.1060 C   0  0  0  0  0  0  0  0  0  0  0  0
  180.8380  177.1390  139.1440 C   0  0  2  0  0  3  0  0  0  0  0  0
  181.2910  175.9100  139.6280 O   0  0  0  0  0  1  0  0  0  0  0  0
  183.1910  178.1740  139.3630 C   0  0  1  0  0  0  0  0  0  0  0  0
  181.9720  177.9250  138.4810 C   0  0  1  0  0  3  0  0  0  0  0  0
  183.7610  177.5270  137.1740 C   0  0  2  0  0  3  0  0  0  0  0  0
  184.3680  177.7590  138.5420 C   0  0  1  0  0  3  0  0  0  0  0  0
  184.2120  179.2150  138.9490 C   0  0  2  0  0  3  0  0  0  0  0  0
  182.3830  177.2760  137.3050 O   0  0  0  0  0  0  0  0  0  0  0  0
  183.2660  177.6380  140.6520 O   0  0  0  0  0  1  0  0  0  0  0  0
  185.0790  179.4980  140.0070 O   0  0  0  0  0  1  0  0  0  0  0  0
  184.4310  176.3760  136.5010 C   0  0  0  0  0  0  0  0  0  0  0  0
  185.0470  176.5410  135.4150 O   0  0  0  0  0  0  0  0  0  0  0  0
  184.3570  175.1120  137.0670 O   0  0  0  0  0  1  0  0  0  0  0  0
  3  1  1  6  0  0  0
  3  7  1  0  0  0  0
  4  9  1  0  0  0  0
  4  3  1  0  0  0  0
  5  6  1  0  0  0  0
  5  2  1  0  0  0  0
  7  1  1  6  0  0  0
  7  2  1  0  0  0  0
  8 11  1  0  0  0  0
  9  5  2  0  0  0  0
 10  8  2  0  0  0  0
 10  9  1  0  0  0  0
 11  6  2  0  0  0  0
 12  4  1  0  0  0  0
 13 12  1  0  0  0  0
 14 15  1  0  0  0  0
 14 13  1  0  0  0  0
 17 15  1  0  0  0  0
 17 16  1  0  0  0  0
 18 15  1  0  0  0  0
 19 18  1  0  0  0  0
 20 19  1  0  0  0  0
 22 23  2  0  0  0  0
 23 20  1  0  0  0  0
 23 21  1  0  0  0  0
 24 30  1  0  0  0  0
 24 28  1  0  0  0  0
 26 20  1  1  0  0  0
 26 25  1  0  0  0  0
 28 29  1  0  0  0  0
 29 25  1  0  0  0  0
 30 27  1  6  0  0  0
 30 26  1  0  0  0  0
 31 32  1  0  0  0  0
 31  8  1  0  0  0  0
 33 32  1  0  0  0  0
 34 33  1  0  0  0  0
 35 34  1  0  0  0  0
 36 37  3  0  0  0  0
 37 35  1  0  0  0  0
 38 39  1  1  0  0  0
 38 36  1  0  0  0  0
 40 46  1  1  0  0  0
 41 38  1  1  0  0  0
 41 40  1  0  0  0  0
 42 48  1  1  0  0  0
 42 45  1  0  0  0  0
 42 43  1  0  0  0  0
 43 44  1  0  0  0  0
 43 40  1  0  0  0  0
 44 40  1  0  0  0  0
 44 47  1  0  0  0  0
 45 41  1  0  0  0  0
 48 50  1  0  0  0  0
 49 48  2  0  0  0  0
M  END
>  <MODEL>
4

>  <REMARK>
 VINA RESULT:      -6.9      1.156      2.153
  Name = 
  18 active torsions:
  status: ('A' for Active; 'I' for Inactive)
    1  A    between atoms: C_1  and  C_14
    2  A    between atoms: C_2  and  C_15
    3  A    between atoms: C_2  and  N_24
    4  A    between atoms: O_3  and  C_39
    5  A    between atoms: O_3  and  C_48
    6  A    between atoms: C_6  and  C_17
    7  A    between atoms: C_8  and  C_17
    8  A    between atoms: C_11  and  N_16
    9  A    between atoms: C_13  and  N_24
   10  A    between atoms: C_13  and  C_34
   11  A    between atoms: C_15  and  N_16
   12  A    between atoms: N_24  and  O_32
   13  A    between atoms: N_25  and  C_49
   14  A    between atoms: N_30  and  C_33
   15  A    between atoms: N_30  and  C_46
   16  A    between atoms: C_34  and  C_49
   17  A    between atoms: C_46  and  C_50
   18  A    between atoms: C_48  and  C_50
                            x       y       z     vdW  Elec       q    Type
                         _______ _______ _______ _____ _____    ______ ____

>  <TORSDO>
F 18

$$$$
=
 OpenBabel11032421133D

 50 55  0  0  1  0  0  0  0  0999 V2000
  191.3740  178.3090  144.2230 C   0  0  0  0  0  2  0  0  0  0  0  0
  189.5950  177.5710  146.0810 N   0  0  0  0  0  2  0  0  0  0  0  0
  190.6300  177.2210  143.7190 C   0  0  2  0  0  3  0  0  0  0  0  0
  189.3140  177.6270  143.1900 N   0  0  0  0  0  0  0  0  0  0  0  0
  188.2920  177.7060  145.4860 C   0  0  0  0  0  0  0  0  0  0  0  0
  187.1680  177.8260  146.3060 C   0  0  0  0  0  3  0  0  0  0  0  0
  190.5300  177.4950  145.2070 C   0  0  1  0  0  3  0  0  0  0  0  0
  185.7380  178.0440  144.3560 C   0  0  0  0  0  0  0  0  0  0  0  0
  188.1430  177.7510  144.0610 C   0  0  0  0  0  0  0  0  0  0  0  0
  186.8610  177.9260  143.5220 C   0  0  0  0  0  3  0  0  0  0  0  0
  185.9010  177.9930  145.7440 C   0  0  0  0  0  3  0  0  0  0  0  0
  189.1890  177.7730  141.7440 C   0  0  0  0  0  2  0  0  0  0  0  0
  190.1350  176.8210  141.0380 C   0  0  0  0  0  2  0  0  0  0  0  0
  189.6660  176.6040  139.6030 C   0  0  0  0  0  2  0  0  0  0  0  0
  190.2810  177.5360  138.6540 N   0  0  0  0  0  0  0  0  0  0  0  0
  188.2470  177.4360  137.8610 C   0  0  0  0  0  1  0  0  0  0  0  0
  189.3100  178.3110  138.1040 O   0  0  0  0  0  0  0  0  0  0  0  0
  190.9010  176.7680  137.5800 C   0  0  0  0  0  2  0  0  0  0  0  0
  191.9010  175.7760  138.1540 C   0  0  0  0  0  2  0  0  0  0  0  0
  192.1710  174.7070  137.1980 N   0  0  0  0  0  0  0  0  0  0  0  0
  189.9880  173.8800  137.3760 O   0  0  0  0  0  1  0  0  0  0  0  0
  191.3610  172.7690  135.9250 O   0  0  0  0  0  0  0  0  0  0  0  0
  191.1260  173.7830  136.8470 C   0  0  0  0  0  0  0  0  0  0  0  0
  195.2950  175.8350  135.3250 C   0  0  0  0  0  2  0  0  0  0  0  0
  194.5580  174.3580  137.6900 C   0  0  0  0  0  2  0  0  0  0  0  0
  193.5100  174.6290  136.6090 C   0  0  2  0  0  3  0  0  0  0  0  0
  192.9350  176.0020  134.5940 C   0  0  0  0  0  1  0  0  0  0  0  0
  196.1990  175.6900  136.4640 N   0  0  0  0  0  2  0  0  0  0  0  0
  195.9550  174.3880  137.0780 C   0  0  0  0  0  2  0  0  0  0  0  0
  193.8460  175.8910  135.8020 C   0  0  2  0  0  3  0  0  0  0  0  0
  184.4550  178.2180  143.8310 O   0  0  0  0  0  0  0  0  0  0  0  0
  183.3950  178.8000  144.5780 C   0  0  0  0  0  2  0  0  0  0  0  0
  182.2950  179.2380  143.6350 C   0  0  0  0  0  2  0  0  0  0  0  0
  180.9910  178.5750  144.0400 C   0  0  0  0  0  2  0  0  0  0  0  0
  180.0520  178.5890  142.9300 N   0  0  0  0  0  2  0  0  0  0  0  0
  180.6500  177.5020  140.6370 C   0  0  0  0  0  0  0  0  0  0  0  0
  180.3740  178.0030  141.6970 C   0  0  0  0  0  0  0  0  0  0  0  0
  180.9860  176.8950  139.3440 C   0  0  2  0  0  3  0  0  0  0  0  0
  181.4650  175.5960  139.5290 O   0  0  0  0  0  1  0  0  0  0  0  0
  183.2730  178.0890  139.3240 C   0  0  1  0  0  0  0  0  0  0  0  0
  181.9900  177.7520  138.5710 C   0  0  1  0  0  3  0  0  0  0  0  0
  183.6600  177.4690  137.0880 C   0  0  2  0  0  3  0  0  0  0  0  0
  184.3850  177.7500  138.3870 C   0  0  1  0  0  3  0  0  0  0  0  0
  184.1720  179.1940  138.8090 C   0  0  2  0  0  3  0  0  0  0  0  0
  182.3220  177.1260  137.3590 O   0  0  0  0  0  0  0  0  0  0  0  0
  183.5140  177.5660  140.5990 O   0  0  0  0  0  1  0  0  0  0  0  0
  185.1210  179.5410  139.7740 O   0  0  0  0  0  1  0  0  0  0  0  0
  184.3350  176.3630  136.3490 C   0  0  0  0  0  0  0  0  0  0  0  0
  185.4700  176.5390  135.8310 O   0  0  0  0  0  0  0  0  0  0  0  0
  183.6980  175.1380  136.2140 O   0  0  0  0  0  1  0  0  0  0  0  0
  3  1  1  6  0  0  0
  3  7  1  0  0  0  0
  4  3  1  0  0  0  0
  4  9  1  0  0  0  0
  5  2  1  0  0  0  0
  5  6  1  0  0  0  0
  7  1  1  6  0  0  0
  7  2  1  0  0  0  0
  8 11  1  0  0  0  0
  9  5  2  0  0  0  0
 10  9  1  0  0  0  0
 10  8  2  0  0  0  0
 11  6  2  0  0  0  0
 12  4  1  0  0  0  0
 13 12  1  0  0  0  0
 14 13  1  0  0  0  0
 15 14  1  0  0  0  0
 16 17  1  0  0  0  0
 17 15  1  0  0  0  0
 18 19  1  0  0  0  0
 18 15  1  0  0  0  0
 20 19  1  0  0  0  0
 22 23  2  0  0  0  0
 23 20  1  0  0  0  0
 23 21  1  0  0  0  0
 24 30  1  0  0  0  0
 24 28  1  0  0  0  0
 26 20  1  1  0  0  0
 26 25  1  0  0  0  0
 28 29  1  0  0  0  0
 29 25  1  0  0  0  0
 30 27  1  6  0  0  0
 30 26  1  0  0  0  0
 31  8  1  0  0  0  0
 31 32  1  0  0  0  0
 33 34  1  0  0  0  0
 33 32  1  0  0  0  0
 35 34  1  0  0  0  0
 36 37  3  0  0  0  0
 37 35  1  0  0  0  0
 38 39  1  1  0  0  0
 38 36  1  0  0  0  0
 40 46  1  1  0  0  0
 41 40  1  0  0  0  0
 41 38  1  1  0  0  0
 42 48  1  1  0  0  0
 42 45  1  0  0  0  0
 42 43  1  0  0  0  0
 43 44  1  0  0  0  0
 43 40  1  0  0  0  0
 44 40  1  0  0  0  0
 44 47  1  0  0  0  0
 45 41  1  0  0  0  0
 49 48  2  0  0  0  0
 50 48  1  0  0  0  0
M  END
>  <MODEL>
5

>  <REMARK>
 VINA RESULT:      -6.9      2.556      3.745
  Name = 
  18 active torsions:
  status: ('A' for Active; 'I' for Inactive)
    1  A    between atoms: C_1  and  C_14
    2  A    between atoms: C_2  and  C_15
    3  A    between atoms: C_2  and  N_24
    4  A    between atoms: O_3  and  C_39
    5  A    between atoms: O_3  and  C_48
    6  A    between atoms: C_6  and  C_17
    7  A    between atoms: C_8  and  C_17
    8  A    between atoms: C_11  and  N_16
    9  A    between atoms: C_13  and  N_24
   10  A    between atoms: C_13  and  C_34
   11  A    between atoms: C_15  and  N_16
   12  A    between atoms: N_24  and  O_32
   13  A    between atoms: N_25  and  C_49
   14  A    between atoms: N_30  and  C_33
   15  A    between atoms: N_30  and  C_46
   16  A    between atoms: C_34  and  C_49
   17  A    between atoms: C_46  and  C_50
   18  A    between atoms: C_48  and  C_50
                            x       y       z     vdW  Elec       q    Type
                         _______ _______ _______ _____ _____    ______ ____

>  <TORSDO>
F 18

$$$$
=
 OpenBabel11032421133D

 50 55  0  0  1  0  0  0  0  0999 V2000
  191.0870  177.4840  146.6760 C   0  0  0  0  0  2  0  0  0  0  0  0
  188.7160  176.9980  147.8160 N   0  0  0  0  0  2  0  0  0  0  0  0
  190.3310  176.6740  145.8020 C   0  0  2  0  0  3  0  0  0  0  0  0
  189.3490  177.4450  145.0160 N   0  0  0  0  0  0  0  0  0  0  0  0
  187.7110  177.5130  146.9240 C   0  0  0  0  0  0  0  0  0  0  0  0
  186.4390  177.8110  147.4140 C   0  0  0  0  0  3  0  0  0  0  0  0
  189.8370  176.7950  147.2300 C   0  0  1  0  0  3  0  0  0  0  0  0
  185.7470  178.5890  145.2210 C   0  0  0  0  0  0  0  0  0  0  0  0
  188.0170  177.7520  145.5440 C   0  0  0  0  0  0  0  0  0  0  0  0
  187.0240  178.2940  144.7170 C   0  0  0  0  0  3  0  0  0  0  0  0
  185.4640  178.3440  146.5680 C   0  0  0  0  0  3  0  0  0  0  0  0
  189.7040  177.7780  143.6410 C   0  0  0  0  0  2  0  0  0  0  0  0
  190.5470  176.6740  143.0360 C   0  0  0  0  0  2  0  0  0  0  0  0
  190.0590  176.3730  141.6220 C   0  0  0  0  0  2  0  0  0  0  0  0
  189.7820  177.5840  140.8450 N   0  0  0  0  0  0  0  0  0  0  0  0
  187.8150  178.5260  140.9790 C   0  0  0  0  0  1  0  0  0  0  0  0
  188.5230  177.5050  140.3390 O   0  0  0  0  0  0  0  0  0  0  0  0
  190.7120  177.6420  139.7230 C   0  0  0  0  0  2  0  0  0  0  0  0
  190.8790  176.2600  139.1070 C   0  0  0  0  0  2  0  0  0  0  0  0
  191.6920  176.3310  137.8990 N   0  0  0  0  0  0  0  0  0  0  0  0
  193.6330  176.7890  139.1270 O   0  0  0  0  0  1  0  0  0  0  0  0
  193.8960  176.6510  136.8600 O   0  0  0  0  0  0  0  0  0  0  0  0
  193.1030  176.5970  138.0010 C   0  0  0  0  0  0  0  0  0  0  0  0
  189.7130  174.5110  135.1960 C   0  0  0  0  0  2  0  0  0  0  0  0
  189.9200  177.1290  136.3880 C   0  0  0  0  0  2  0  0  0  0  0  0
  191.0350  176.1060  136.6090 C   0  0  2  0  0  3  0  0  0  0  0  0
  191.6700  173.6860  136.4690 C   0  0  0  0  0  1  0  0  0  0  0  0
  188.6100  175.4690  135.1630 N   0  0  0  0  0  2  0  0  0  0  0  0
  189.1750  176.8140  135.0950 C   0  0  0  0  0  2  0  0  0  0  0  0
  190.5130  174.6670  136.4870 C   0  0  2  0  0  3  0  0  0  0  0  0
  184.7480  179.1280  144.4060 O   0  0  0  0  0  0  0  0  0  0  0  0
  183.3650  179.0060  144.7110 C   0  0  0  0  0  2  0  0  0  0  0  0
  182.5760  178.8780  143.4250 C   0  0  0  0  0  2  0  0  0  0  0  0
  181.1100  178.6590  143.7540 C   0  0  0  0  0  2  0  0  0  0  0  0
  180.3230  178.5990  142.5340 N   0  0  0  0  0  2  0  0  0  0  0  0
  181.1410  179.7500  140.3410 C   0  0  0  0  0  0  0  0  0  0  0  0
  180.7620  179.2180  141.3540 C   0  0  0  0  0  0  0  0  0  0  0  0
  181.6050  180.3980  139.1110 C   0  0  2  0  0  3  0  0  0  0  0  0
  180.5260  180.9440  138.4130 O   0  0  0  0  0  1  0  0  0  0  0  0
  183.8340  179.1730  138.6770 C   0  0  1  0  0  0  0  0  0  0  0  0
  182.3970  179.4250  138.2340 C   0  0  1  0  0  3  0  0  0  0  0  0
  182.7140  177.2050  138.0410 C   0  0  2  0  0  3  0  0  0  0  0  0
  183.9900  177.6880  138.6970 C   0  0  1  0  0  3  0  0  0  0  0  0
  184.8060  178.5160  137.7180 C   0  0  2  0  0  3  0  0  0  0  0  0
  181.7210  178.1960  138.1500 O   0  0  0  0  0  0  0  0  0  0  0  0
  184.3330  179.7440  139.8520 O   0  0  0  0  0  1  0  0  0  0  0  0
  186.1150  178.6360  138.1910 O   0  0  0  0  0  1  0  0  0  0  0  0
  182.2500  175.9400  138.6820 C   0  0  0  0  0  0  0  0  0  0  0  0
  182.5460  175.6840  139.8790 O   0  0  0  0  0  1  0  0  0  0  0  0
  181.5060  175.0300  137.9450 O   0  0  0  0  0  0  0  0  0  0  0  0
  3  1  1  1  0  0  0
  3  7  1  0  0  0  0
  4  9  1  0  0  0  0
  4  3  1  0  0  0  0
  5  6  1  0  0  0  0
  5  2  1  0  0  0  0
  7  1  1  6  0  0  0
  7  2  1  0  0  0  0
  8 11  1  0  0  0  0
  9  5  2  0  0  0  0
 10  8  2  0  0  0  0
 10  9  1  0  0  0  0
 11  6  2  0  0  0  0
 12  4  1  0  0  0  0
 13 12  1  0  0  0  0
 14 13  1  0  0  0  0
 15 14  1  0  0  0  0
 17 15  1  0  0  0  0
 17 16  1  0  0  0  0
 18 15  1  0  0  0  0
 19 18  1  0  0  0  0
 20 23  1  0  0  0  0
 20 19  1  0  0  0  0
 22 23  2  0  0  0  0
 23 21  1  0  0  0  0
 24 30  1  0  0  0  0
 25 26  1  0  0  0  0
 26 20  1  1  0  0  0
 28 24  1  0  0  0  0
 29 28  1  0  0  0  0
 29 25  1  0  0  0  0
 30 27  1  6  0  0  0
 30 26  1  0  0  0  0
 31 32  1  0  0  0  0
 31  8  1  0  0  0  0
 33 34  1  0  0  0  0
 33 32  1  0  0  0  0
 35 34  1  0  0  0  0
 36 37  3  0  0  0  0
 37 35  1  0  0  0  0
 38 39  1  6  0  0  0
 38 36  1  0  0  0  0
 40 43  1  0  0  0  0
 40 46  1  1  0  0  0
 41 40  1  0  0  0  0
 41 38  1  1  0  0  0
 42 45  1  0  0  0  0
 42 48  1  1  0  0  0
 42 43  1  0  0  0  0
 44 47  1  0  0  0  0
 44 40  1  0  0  0  0
 44 43  1  0  0  0  0
 45 41  1  0  0  0  0
 48 49  1  0  0  0  0
 50 48  2  0  0  0  0
M  END
>  <MODEL>
6

>  <REMARK>
 VINA RESULT:      -6.8      1.802      3.168
  Name = 
  18 active torsions:
  status: ('A' for Active; 'I' for Inactive)
    1  A    between atoms: C_1  and  C_14
    2  A    between atoms: C_2  and  C_15
    3  A    between atoms: C_2  and  N_24
    4  A    between atoms: O_3  and  C_39
    5  A    between atoms: O_3  and  C_48
    6  A    between atoms: C_6  and  C_17
    7  A    between atoms: C_8  and  C_17
    8  A    between atoms: C_11  and  N_16
    9  A    between atoms: C_13  and  N_24
   10  A    between atoms: C_13  and  C_34
   11  A    between atoms: C_15  and  N_16
   12  A    between atoms: N_24  and  O_32
   13  A    between atoms: N_25  and  C_49
   14  A    between atoms: N_30  and  C_33
   15  A    between atoms: N_30  and  C_46
   16  A    between atoms: C_34  and  C_49
   17  A    between atoms: C_46  and  C_50
   18  A    between atoms: C_48  and  C_50
                            x       y       z     vdW  Elec       q    Type
                         _______ _______ _______ _____ _____    ______ ____

>  <TORSDO>
F 18

$$$$
=
 OpenBabel11032421133D

 50 55  0  0  1  0  0  0  0  0999 V2000
  184.5280  179.7490  143.9290 C   0  0  0  0  0  2  0  0  0  0  0  0
  182.2040  178.7990  143.0040 N   0  0  0  0  0  2  0  0  0  0  0  0
  184.7830  178.5450  143.2390 C   0  0  2  0  0  3  0  0  0  0  0  0
  184.8350  178.7260  141.7760 N   0  0  0  0  0  0  0  0  0  0  0  0
  182.3280  178.7140  141.5740 C   0  0  0  0  0  0  0  0  0  0  0  0
  181.1800  178.6820  140.7810 C   0  0  0  0  0  3  0  0  0  0  0  0
  183.3390  178.8430  143.5960 C   0  0  1  0  0  3  0  0  0  0  0  0
  182.5380  178.6200  138.7700 C   0  0  0  0  0  0  0  0  0  0  0  0
  183.6220  178.6930  140.9560 C   0  0  0  0  0  0  0  0  0  0  0  0
  183.7000  178.6520  139.5570 C   0  0  0  0  0  3  0  0  0  0  0  0
  181.2850  178.6340  139.3890 C   0  0  0  0  0  3  0  0  0  0  0  0
  186.1540  178.8090  141.1570 C   0  0  0  0  0  2  0  0  0  0  0  0
  187.2350  178.7150  142.2160 C   0  0  0  0  0  2  0  0  0  0  0  0
  188.2640  177.6660  141.8040 C   0  0  0  0  0  2  0  0  0  0  0  0
  189.6300  178.0250  142.1920 N   0  0  0  0  0  0  0  0  0  0  0  0
  191.6130  177.1680  141.8640 C   0  0  0  0  0  1  0  0  0  0  0  0
  190.4830  177.6550  141.2010 O   0  0  0  0  0  0  0  0  0  0  0  0
  189.9880  177.2750  143.3910 C   0  0  0  0  0  2  0  0  0  0  0  0
  189.9090  178.1740  144.6170 C   0  0  0  0  0  2  0  0  0  0  0  0
  189.8290  177.3760  145.8350 N   0  0  0  0  0  0  0  0  0  0  0  0
  192.0580  176.6870  145.6330 O   0  0  0  0  0  0  0  0  0  0  0  0
  190.9320  175.9000  147.4600 O   0  0  0  0  0  1  0  0  0  0  0  0
  190.9850  176.6520  146.2910 C   0  0  0  0  0  0  0  0  0  0  0  0
  187.1070  178.5340  148.2410 C   0  0  0  0  0  2  0  0  0  0  0  0
  187.3790  177.4080  145.5990 C   0  0  0  0  0  2  0  0  0  0  0  0
  188.5620  177.3600  146.5690 C   0  0  2  0  0  3  0  0  0  0  0  0
  189.5310  178.2860  148.6850 C   0  0  0  0  0  1  0  0  0  0  0  0
  186.0770  178.6970  147.2170 N   0  0  0  0  0  2  0  0  0  0  0  0
  186.0720  177.5010  146.3800 C   0  0  0  0  0  2  0  0  0  0  0  0
  188.4920  178.4960  147.5990 C   0  0  2  0  0  3  0  0  0  0  0  0
  182.6040  178.5770  137.3740 O   0  0  0  0  0  0  0  0  0  0  0  0
  182.1560  177.4570  136.6220 C   0  0  0  0  0  2  0  0  0  0  0  0
  183.1940  176.3570  136.6920 C   0  0  0  0  0  2  0  0  0  0  0  0
  184.4710  176.8240  136.0170 C   0  0  0  0  0  2  0  0  0  0  0  0
  185.0460  175.7500  135.2260 N   0  0  0  0  0  2  0  0  0  0  0  0
  187.4440  174.8490  135.7130 C   0  0  0  0  0  0  0  0  0  0  0  0
  186.3360  175.2650  135.4870 C   0  0  0  0  0  0  0  0  0  0  0  0
  188.7930  174.3450  135.9910 C   0  0  2  0  0  3  0  0  0  0  0  0
  188.7690  172.9570  136.1450 O   0  0  0  0  0  1  0  0  0  0  0  0
  190.7310  175.7340  136.9760 C   0  0  1  0  0  0  0  0  0  0  0  0
  189.4010  175.0280  137.2180 C   0  0  1  0  0  3  0  0  0  0  0  0
  189.2510  176.9970  138.2990 C   0  0  2  0  0  3  0  0  0  0  0  0
  190.5700  177.0980  137.5610 C   0  0  1  0  0  3  0  0  0  0  0  0
  191.5860  176.1400  138.1600 C   0  0  2  0  0  3  0  0  0  0  0  0
  188.4860  175.9480  137.7570 O   0  0  0  0  0  0  0  0  0  0  0  0
  191.2850  175.8000  135.6940 O   0  0  0  0  0  1  0  0  0  0  0  0
  192.8680  176.4980  137.7370 O   0  0  0  0  0  1  0  0  0  0  0  0
  188.5030  178.2840  138.1990 C   0  0  0  0  0  0  0  0  0  0  0  0
  189.0560  179.3710  138.5150 O   0  0  0  0  0  1  0  0  0  0  0  0
  187.1820  178.2790  137.7750 O   0  0  0  0  0  0  0  0  0  0  0  0
  2  7  1  0  0  0  0
  3  7  1  0  0  0  0
  3  1  1  1  0  0  0
  4  3  1  0  0  0  0
  5  2  1  0  0  0  0
  6  5  2  0  0  0  0
  7  1  1  6  0  0  0
  8 11  2  0  0  0  0
  8 10  1  0  0  0  0
  9  5  1  0  0  0  0
  9  4  1  0  0  0  0
 10  9  2  0  0  0  0
 11  6  1  0  0  0  0
 12  4  1  0  0  0  0
 12 13  1  0  0  0  0
 14 15  1  0  0  0  0
 14 13  1  0  0  0  0
 15 18  1  0  0  0  0
 17 16  1  0  0  0  0
 17 15  1  0  0  0  0
 18 19  1  0  0  0  0
 19 20  1  0  0  0  0
 20 23  1  0  0  0  0
 21 23  2  0  0  0  0
 23 22  1  0  0  0  0
 25 29  1  0  0  0  0
 25 26  1  0  0  0  0
 26 20  1  6  0  0  0
 26 30  1  0  0  0  0
 28 24  1  0  0  0  0
 29 28  1  0  0  0  0
 30 24  1  0  0  0  0
 30 27  1  1  0  0  0
 31  8  1  0  0  0  0
 32 33  1  0  0  0  0
 32 31  1  0  0  0  0
 34 33  1  0  0  0  0
 35 37  1  0  0  0  0
 35 34  1  0  0  0  0
 36 38  1  0  0  0  0
 37 36  3  0  0  0  0
 38 39  1  1  0  0  0
 40 46  1  6  0  0  0
 40 41  1  0  0  0  0
 40 43  1  0  0  0  0
 40 44  1  0  0  0  0
 41 38  1  6  0  0  0
 41 45  1  0  0  0  0
 42 48  1  6  0  0  0
 43 44  1  0  0  0  0
 43 42  1  0  0  0  0
 45 42  1  0  0  0  0
 47 44  1  0  0  0  0
 48 49  1  0  0  0  0
 50 48  2  0  0  0  0
M  END
>  <MODEL>
7

>  <REMARK>
 VINA RESULT:      -6.7      2.465      8.318
  Name = 
  18 active torsions:
  status: ('A' for Active; 'I' for Inactive)
    1  A    between atoms: C_1  and  C_14
    2  A    between atoms: C_2  and  C_15
    3  A    between atoms: C_2  and  N_24
    4  A    between atoms: O_3  and  C_39
    5  A    between atoms: O_3  and  C_48
    6  A    between atoms: C_6  and  C_17
    7  A    between atoms: C_8  and  C_17
    8  A    between atoms: C_11  and  N_16
    9  A    between atoms: C_13  and  N_24
   10  A    between atoms: C_13  and  C_34
   11  A    between atoms: C_15  and  N_16
   12  A    between atoms: N_24  and  O_32
   13  A    between atoms: N_25  and  C_49
   14  A    between atoms: N_30  and  C_33
   15  A    between atoms: N_30  and  C_46
   16  A    between atoms: C_34  and  C_49
   17  A    between atoms: C_46  and  C_50
   18  A    between atoms: C_48  and  C_50
                            x       y       z     vdW  Elec       q    Type
                         _______ _______ _______ _____ _____    ______ ____

>  <TORSDO>
F 18

$$$$
=
 OpenBabel11032421133D

 50 55  0  0  1  0  0  0  0  0999 V2000
  187.0090  177.3580  134.7770 C   0  0  0  0  0  2  0  0  0  0  0  0
  188.5100  177.2170  136.9870 N   0  0  0  0  0  2  0  0  0  0  0  0
  186.3690  176.4980  135.6950 C   0  0  2  0  0  3  0  0  0  0  0  0
  185.6160  177.2290  136.7310 N   0  0  0  0  0  0  0  0  0  0  0  0
  187.6920  177.6820  138.0760 C   0  0  0  0  0  0  0  0  0  0  0  0
  188.2980  178.1420  139.2470 C   0  0  0  0  0  3  0  0  0  0  0  0
  187.8180  176.8500  135.9730 C   0  0  1  0  0  3  0  0  0  0  0  0
  186.1250  178.6660  140.1950 C   0  0  0  0  0  0  0  0  0  0  0  0
  186.2640  177.7080  137.9550 C   0  0  0  0  0  0  0  0  0  0  0  0
  185.5050  178.2070  139.0220 C   0  0  0  0  0  3  0  0  0  0  0  0
  187.5190  178.6290  140.2990 C   0  0  0  0  0  3  0  0  0  0  0  0
  184.1730  177.3440  136.5560 C   0  0  0  0  0  2  0  0  0  0  0  0
  183.5670  175.9780  136.2990 C   0  0  0  0  0  2  0  0  0  0  0  0
  182.0450  176.0840  136.3090 C   0  0  0  0  0  2  0  0  0  0  0  0
  181.4070  175.0570  137.1380 N   0  0  0  0  0  0  0  0  0  0  0  0
  181.4210  172.9380  136.6050 C   0  0  0  0  0  1  0  0  0  0  0  0
  180.7920  174.1560  136.3290 O   0  0  0  0  0  0  0  0  0  0  0  0
  180.3820  175.6910  137.9600 C   0  0  0  0  0  2  0  0  0  0  0  0
  180.9610  176.0850  139.3110 C   0  0  0  0  0  2  0  0  0  0  0  0
  180.5950  177.4560  139.6470 N   0  0  0  0  0  0  0  0  0  0  0  0
  179.3380  176.7580  141.4960 O   0  0  0  0  0  1  0  0  0  0  0  0
  179.4210  179.0140  141.1400 O   0  0  0  0  0  0  0  0  0  0  0  0
  179.7660  177.7120  140.7940 C   0  0  0  0  0  0  0  0  0  0  0  0
  180.5590  180.6110  137.5070 C   0  0  0  0  0  2  0  0  0  0  0  0
  182.1500  179.3620  139.5630 C   0  0  0  0  0  2  0  0  0  0  0  0
  181.1110  178.5360  138.8030 C   0  0  2  0  0  3  0  0  0  0  0  0
  179.0970  178.6220  137.3160 C   0  0  0  0  0  1  0  0  0  0  0  0
  181.4450  181.3800  138.3790 N   0  0  0  0  0  2  0  0  0  0  0  0
  182.5960  180.5460  138.7110 C   0  0  0  0  0  2  0  0  0  0  0  0
  179.9770  179.4180  138.2610 C   0  0  2  0  0  3  0  0  0  0  0  0
  185.3790  179.1660  141.2660 O   0  0  0  0  0  0  0  0  0  0  0  0
  185.3740  178.5500  142.5470 C   0  0  0  0  0  2  0  0  0  0  0  0
  184.9310  179.5560  143.5880 C   0  0  0  0  0  2  0  0  0  0  0  0
  183.6990  179.0320  144.3030 C   0  0  0  0  0  2  0  0  0  0  0  0
  183.9240  178.9990  145.7380 N   0  0  0  0  0  2  0  0  0  0  0  0
  186.1880  178.1750  146.7360 C   0  0  0  0  0  0  0  0  0  0  0  0
  185.1430  178.5560  146.2740 C   0  0  0  0  0  0  0  0  0  0  0  0
  187.4590  177.7110  147.3020 C   0  0  2  0  0  3  0  0  0  0  0  0
  187.6760  178.2980  148.5510 O   0  0  0  0  0  1  0  0  0  0  0  0
  189.8550  177.1070  146.5590 C   0  0  1  0  0  0  0  0  0  0  0  0
  188.6260  177.9860  146.3500 C   0  0  1  0  0  3  0  0  0  0  0  0
  189.2990  177.3810  144.2890 C   0  0  2  0  0  3  0  0  0  0  0  0
  190.2030  176.5830  145.2050 C   0  0  1  0  0  3  0  0  0  0  0  0
  191.1730  177.5060  145.9250 C   0  0  2  0  0  3  0  0  0  0  0  0
  188.1970  177.8640  145.0180 O   0  0  0  0  0  0  0  0  0  0  0  0
  189.8490  176.0800  147.5080 O   0  0  0  0  0  1  0  0  0  0  0  0
  192.2190  176.7530  146.4610 O   0  0  0  0  0  1  0  0  0  0  0  0
  188.8330  176.5310  143.1550 C   0  0  0  0  0  0  0  0  0  0  0  0
  187.7380  175.9110  143.2290 O   0  0  0  0  0  1  0  0  0  0  0  0
  189.6220  176.4060  142.0210 O   0  0  0  0  0  0  0  0  0  0  0  0
  2  5  1  0  0  0  0
  3  1  1  6  0  0  0
  3  7  1  0  0  0  0
  3  4  1  0  0  0  0
  4  9  1  0  0  0  0
  5  6  1  0  0  0  0
  6 11  2  0  0  0  0
  7  1  1  6  0  0  0
  7  2  1  0  0  0  0
  8 11  1  0  0  0  0
  8 31  1  0  0  0  0
  9  5  2  0  0  0  0
  9 10  1  0  0  0  0
 10  8  2  0  0  0  0
 12  4  1  0  0  0  0
 13 14  1  0  0  0  0
 13 12  1  0  0  0  0
 14 15  1  0  0  0  0
 15 18  1  0  0  0  0
 17 16  1  0  0  0  0
 17 15  1  0  0  0  0
 18 19  1  0  0  0  0
 19 20  1  0  0  0  0
 20 23  1  0  0  0  0
 23 22  2  0  0  0  0
 23 21  1  0  0  0  0
 24 30  1  0  0  0  0
 24 28  1  0  0  0  0
 26 25  1  0  0  0  0
 26 20  1  1  0  0  0
 28 29  1  0  0  0  0
 29 25  1  0  0  0  0
 30 27  1  6  0  0  0
 30 26  1  0  0  0  0
 31 32  1  0  0  0  0
 32 33  1  0  0  0  0
 33 34  1  0  0  0  0
 34 35  1  0  0  0  0
 35 37  1  0  0  0  0
 36 38  1  0  0  0  0
 37 36  3  0  0  0  0
 38 39  1  1  0  0  0
 40 46  1  1  0  0  0
 41 40  1  0  0  0  0
 41 38  1  1  0  0  0
 42 48  1  6  0  0  0
 42 45  1  0  0  0  0
 42 43  1  0  0  0  0
 43 44  1  0  0  0  0
 43 40  1  0  0  0  0
 44 47  1  0  0  0  0
 44 40  1  0  0  0  0
 45 41  1  0  0  0  0
 48 49  1  0  0  0  0
 50 48  2  0  0  0  0
M  END
>  <MODEL>
8

>  <REMARK>
 VINA RESULT:      -6.7      2.910      8.842
  Name = 
  18 active torsions:
  status: ('A' for Active; 'I' for Inactive)
    1  A    between atoms: C_1  and  C_14
    2  A    between atoms: C_2  and  C_15
    3  A    between atoms: C_2  and  N_24
    4  A    between atoms: O_3  and  C_39
    5  A    between atoms: O_3  and  C_48
    6  A    between atoms: C_6  and  C_17
    7  A    between atoms: C_8  and  C_17
    8  A    between atoms: C_11  and  N_16
    9  A    between atoms: C_13  and  N_24
   10  A    between atoms: C_13  and  C_34
   11  A    between atoms: C_15  and  N_16
   12  A    between atoms: N_24  and  O_32
   13  A    between atoms: N_25  and  C_49
   14  A    between atoms: N_30  and  C_33
   15  A    between atoms: N_30  and  C_46
   16  A    between atoms: C_34  and  C_49
   17  A    between atoms: C_46  and  C_50
   18  A    between atoms: C_48  and  C_50
                            x       y       z     vdW  Elec       q    Type
                         _______ _______ _______ _____ _____    ______ ____

>  <TORSDO>
F 18

$$$$
=
 OpenBabel11032421133D

 50 55  0  0  1  0  0  0  0  0999 V2000
  184.5680  178.2730  146.8330 C   0  0  0  0  0  2  0  0  0  0  0  0
  187.2250  178.2520  147.1500 N   0  0  0  0  0  2  0  0  0  0  0  0
  185.1420  179.0840  145.8310 C   0  0  2  0  0  3  0  0  0  0  0  0
  185.6700  178.3030  144.6970 N   0  0  0  0  0  0  0  0  0  0  0  0
  187.7860  177.7340  145.9310 C   0  0  0  0  0  0  0  0  0  0  0  0
  189.0730  177.1930  145.9390 C   0  0  0  0  0  3  0  0  0  0  0  0
  186.0310  178.6930  146.9950 C   0  0  1  0  0  3  0  0  0  0  0  0
  188.8840  176.6460  143.5810 C   0  0  0  0  0  0  0  0  0  0  0  0
  187.0220  177.7390  144.7190 C   0  0  0  0  0  0  0  0  0  0  0  0
  187.5890  177.1870  143.5620 C   0  0  0  0  0  3  0  0  0  0  0  0
  189.6180  176.6540  144.7710 C   0  0  0  0  0  3  0  0  0  0  0  0
  184.8450  178.2220  143.4970 C   0  0  0  0  0  2  0  0  0  0  0  0
  183.8950  179.4020  143.4350 C   0  0  0  0  0  2  0  0  0  0  0  0
  182.4770  178.9350  143.7480 C   0  0  0  0  0  2  0  0  0  0  0  0
  181.4660  179.5720  142.9010 N   0  0  0  0  0  0  0  0  0  0  0  0
  180.1220  178.2460  144.0000 C   0  0  0  0  0  1  0  0  0  0  0  0
  180.2740  179.5610  143.5520 O   0  0  0  0  0  0  0  0  0  0  0  0
  181.3160  178.7850  141.6810 C   0  0  0  0  0  2  0  0  0  0  0  0
  180.6230  179.6100  140.6060 C   0  0  0  0  0  2  0  0  0  0  0  0
  181.3380  179.5060  139.3390 N   0  0  0  0  0  0  0  0  0  0  0  0
  179.8330  180.9490  138.2740 O   0  0  0  0  0  1  0  0  0  0  0  0
  181.5470  180.1640  136.9820 O   0  0  0  0  0  0  0  0  0  0  0  0
  180.8680  180.2380  138.1920 C   0  0  0  0  0  0  0  0  0  0  0  0
  183.7390  176.8250  138.0800 C   0  0  0  0  0  2  0  0  0  0  0  0
  183.7880  179.5240  139.0970 C   0  0  0  0  0  2  0  0  0  0  0  0
  182.5360  178.6650  139.2870 C   0  0  2  0  0  3  0  0  0  0  0  0
  181.3160  176.6060  138.5450 C   0  0  0  0  0  1  0  0  0  0  0  0
  184.8340  177.7470  137.7850 N   0  0  0  0  0  2  0  0  0  0  0  0
  185.0120  178.6280  138.9360 C   0  0  0  0  0  2  0  0  0  0  0  0
  182.4210  177.5870  138.2000 C   0  0  2  0  0  3  0  0  0  0  0  0
  189.4600  176.0930  142.4340 O   0  0  0  0  0  0  0  0  0  0  0  0
  190.5630  176.6930  141.7680 C   0  0  0  0  0  2  0  0  0  0  0  0
  190.0650  177.4630  140.5630 C   0  0  0  0  0  2  0  0  0  0  0  0
  190.6290  176.8410  139.2990 C   0  0  0  0  0  2  0  0  0  0  0  0
  192.0480  177.1310  139.1830 N   0  0  0  0  0  2  0  0  0  0  0  0
  193.4570  176.2200  137.1860 C   0  0  0  0  0  0  0  0  0  0  0  0
  192.8060  176.6400  138.1090 C   0  0  0  0  0  0  0  0  0  0  0  0
  194.2470  175.7120  136.0610 C   0  0  2  0  0  3  0  0  0  0  0  0
  193.4060  175.2120  135.0640 O   0  0  0  0  0  1  0  0  0  0  0  0
  196.6020  174.6880  135.8080 C   0  0  1  0  0  0  0  0  0  0  0  0
  195.2530  174.6530  136.5200 C   0  0  1  0  0  3  0  0  0  0  0  0
  196.7990  174.3830  138.1330 C   0  0  2  0  0  3  0  0  0  0  0  0
  197.6250  174.6650  136.8950 C   0  0  1  0  0  3  0  0  0  0  0  0
  197.5360  173.5000  135.9240 C   0  0  2  0  0  3  0  0  0  0  0  0
  195.4620  174.7590  137.9040 O   0  0  0  0  0  0  0  0  0  0  0  0
  196.8910  175.6800  134.8670 O   0  0  0  0  0  1  0  0  0  0  0  0
  198.5670  173.5970  134.9870 O   0  0  0  0  0  1  0  0  0  0  0  0
  197.3500  175.1290  139.3020 C   0  0  0  0  0  0  0  0  0  0  0  0
  198.5060  175.6270  139.2560 O   0  0  0  0  0  0  0  0  0  0  0  0
  196.5900  175.2540  140.4560 O   0  0  0  0  0  1  0  0  0  0  0  0
  3  1  1  1  0  0  0
  3  7  1  0  0  0  0
  4  9  1  0  0  0  0
  4  3  1  0  0  0  0
  5  6  1  0  0  0  0
  5  2  1  0  0  0  0
  7  1  1  6  0  0  0
  7  2  1  0  0  0  0
  8 11  1  0  0  0  0
  9  5  2  0  0  0  0
 10  8  2  0  0  0  0
 10  9  1  0  0  0  0
 11  6  2  0  0  0  0
 12  4  1  0  0  0  0
 13 12  1  0  0  0  0
 13 14  1  0  0  0  0
 15 17  1  0  0  0  0
 15 14  1  0  0  0  0
 17 16  1  0  0  0  0
 18 15  1  0  0  0  0
 19 18  1  0  0  0  0
 20 19  1  0  0  0  0
 22 23  2  0  0  0  0
 23 21  1  0  0  0  0
 23 20  1  0  0  0  0
 24 30  1  0  0  0  0
 25 26  1  0  0  0  0
 26 20  1  6  0  0  0
 28 24  1  0  0  0  0
 28 29  1  0  0  0  0
 29 25  1  0  0  0  0
 30 27  1  1  0  0  0
 30 26  1  0  0  0  0
 31  8  1  0  0  0  0
 32 31  1  0  0  0  0
 33 32  1  0  0  0  0
 34 33  1  0  0  0  0
 35 34  1  0  0  0  0
 36 37  3  0  0  0  0
 37 35  1  0  0  0  0
 38 39  1  6  0  0  0
 38 36  1  0  0  0  0
 40 46  1  6  0  0  0
 40 44  1  0  0  0  0
 40 41  1  0  0  0  0
 40 43  1  0  0  0  0
 41 38  1  6  0  0  0
 41 45  1  0  0  0  0
 42 48  1  1  0  0  0
 43 42  1  0  0  0  0
 44 43  1  0  0  0  0
 45 42  1  0  0  0  0
 47 44  1  0  0  0  0
 48 50  1  0  0  0  0
 49 48  2  0  0  0  0
M  END
>  <MODEL>
9

>  <REMARK>
 VINA RESULT:      -6.7      4.023      9.626
  Name = 
  18 active torsions:
  status: ('A' for Active; 'I' for Inactive)
    1  A    between atoms: C_1  and  C_14
    2  A    between atoms: C_2  and  C_15
    3  A    between atoms: C_2  and  N_24
    4  A    between atoms: O_3  and  C_39
    5  A    between atoms: O_3  and  C_48
    6  A    between atoms: C_6  and  C_17
    7  A    between atoms: C_8  and  C_17
    8  A    between atoms: C_11  and  N_16
    9  A    between atoms: C_13  and  N_24
   10  A    between atoms: C_13  and  C_34
   11  A    between atoms: C_15  and  N_16
   12  A    between atoms: N_24  and  O_32
   13  A    between atoms: N_25  and  C_49
   14  A    between atoms: N_30  and  C_33
   15  A    between atoms: N_30  and  C_46
   16  A    between atoms: C_34  and  C_49
   17  A    between atoms: C_46  and  C_50
   18  A    between atoms: C_48  and  C_50
                            x       y       z     vdW  Elec       q    Type
                         _______ _______ _______ _____ _____    ______ ____

>  <TORSDO>
F 18

$$$$
