=
 OpenBabel11042413253D

 50 58  0  0  1  0  0  0  0  0999 V2000
  189.5370  174.4340  134.5940 C   0  0  0  0  0  3  0  0  0  0  0  0
  188.6790  178.1190  138.9920 O   0  0  0  0  0  1  0  0  0  0  0  0
  190.5140  177.6230  140.4490 C   0  0  0  0  0  0  0  0  0  0  0  0
  191.3950  175.4450  138.7180 C   0  0  1  0  0  3  0  0  0  0  0  0
  192.0380  177.6420  140.6640 C   0  0  0  0  0  2  0  0  0  0  0  0
  189.9940  176.0990  138.5000 C   0  0  1  0  0  3  0  0  0  0  0  0
  190.4500  173.9790  135.5490 C   0  0  0  0  0  3  0  0  0  0  0  0
  188.8200  176.2300  136.0830 C   0  0  0  0  0  0  0  0  0  0  0  0
  193.2350  176.3560  137.4300 O   0  0  0  0  0  0  0  0  0  0  0  0
  189.7320  177.5490  141.4720 N   0  0  0  0  0  0  0  0  0  0  0  0
  190.5220  174.6590  136.7550 C   0  0  0  0  0  0  0  0  0  0  0  0
  191.4510  174.3470  137.7770 N   0  0  0  0  0  2  0  0  0  0  0  0
  192.8080  177.4730  139.4380 N   0  0  0  0  0  2  0  0  0  0  0  0
  192.5370  176.4260  138.4800 C   0  0  0  0  0  0  0  0  0  0  0  0
  189.9510  177.5460  139.0300 C   0  0  1  0  0  3  0  0  0  0  0  0
  188.7490  175.5650  134.8510 C   0  0  0  0  0  3  0  0  0  0  0  0
  189.7390  175.7650  137.0440 C   0  0  0  0  0  0  0  0  0  0  0  0
  190.0790  177.9010  145.1450 N   0  0  0  0  0  0  0  0  0  0  0  0
  191.3740  178.4580  143.1300 C   0  0  0  0  0  2  0  0  0  0  0  0
  188.3850  176.6160  144.0530 O   0  0  0  0  0  1  0  0  0  0  0  0
  190.3080  177.4530  142.8180 C   0  0  1  0  0  3  0  0  0  0  0  0
  189.2990  177.6800  143.9090 C   0  0  2  0  0  3  0  0  0  0  0  0
  191.3770  178.4340  144.6560 C   0  0  0  0  0  2  0  0  0  0  0  0
  190.3450  176.6810  145.9600 C   0  0  1  0  0  3  0  0  0  0  0  0
  191.8360  176.2680  146.0340 C   0  0  0  0  0  1  0  0  0  0  0  0
  189.6260  176.6650  147.3340 C   0  0  2  0  0  3  0  0  0  0  0  0
  188.8750  178.5680  148.5660 C   0  0  0  0  0  2  0  0  0  0  0  0
  188.1640  176.7590  147.2230 N   0  0  0  0  0  2  0  0  0  0  0  0
  190.1100  177.8230  148.1400 C   0  0  0  0  0  2  0  0  0  0  0  0
  187.7510  177.6220  148.3070 C   0  0  0  0  0  2  0  0  0  0  0  0
  187.8040  177.7090  136.3010 S   0  0  0  0  0  0  0  0  0  0  0  0
  183.5690  178.4890  139.3120 C   0  0  0  0  0  2  0  0  0  0  0  0
  182.8890  178.5430  138.0210 N   0  0  0  0  0  0  0  0  0  0  0  0
  185.1520  177.7810  137.2750 C   0  0  1  0  0  0  0  0  0  0  0  0
  186.1010  176.9810  136.3740 C   0  0  2  0  0  3  0  0  0  0  0  0
  185.0010  179.0410  139.2370 C   0  0  1  0  0  3  0  0  0  0  0  0
  183.6220  177.6940  137.0720 C   0  0  0  0  0  2  0  0  0  0  0  0
  185.7210  176.4560  137.7600 C   0  0  0  0  0  2  0  0  0  0  0  0
  185.8510  178.4820  140.3860 C   0  0  0  0  0  1  0  0  0  0  0  0
  185.6720  178.8960  137.9940 O   0  0  0  0  0  0  0  0  0  0  0  0
  181.6240  177.9380  138.2620 N   0  0  0  0  0  2  0  0  0  0  0  0
  181.3400  176.8540  137.3180 C   0  0  1  0  0  3  0  0  0  0  0  0
  181.7250  175.4680  137.8930 C   0  0  2  0  0  3  0  0  0  0  0  0
  179.5820  175.1780  137.1260 C   0  0  2  0  0  3  0  0  0  0  0  0
  180.9230  174.5650  137.0780 N   0  0  0  0  0  0  0  0  0  0  0  0
  179.8560  176.6810  136.9600 C   0  0  0  0  0  2  0  0  0  0  0  0
  179.8130  175.5620  139.6330 C   0  0  0  0  0  2  0  0  0  0  0  0
  178.9310  174.9710  138.5130 C   0  0  0  0  0  2  0  0  0  0  0  0
  180.9850  173.1560  137.5020 C   0  0  0  0  0  1  0  0  0  0  0  0
  181.3190  175.3170  139.3980 C   0  0  0  0  0  2  0  0  0  0  0  0
  1 16  2  0  0  0  0
  1  7  1  0  0  0  0
  3  5  1  0  0  0  0
  3 10  2  0  0  0  0
  4 12  1  6  0  0  0
  6 17  1  6  0  0  0
  6  4  1  0  0  0  0
  6 15  1  0  0  0  0
  7 11  2  0  0  0  0
  8 31  1  0  0  0  0
  8 17  2  0  0  0  0
  9 14  2  0  0  0  0
 11 17  1  0  0  0  0
 11 12  1  0  0  0  0
 13  5  1  0  0  0  0
 14  4  1  0  0  0  0
 14 13  1  0  0  0  0
 15  2  1  1  0  0  0
 15  3  1  0  0  0  0
 16  8  1  0  0  0  0
 18 24  1  0  0  0  0
 19 23  1  0  0  0  0
 21 10  1  6  0  0  0
 21 19  1  0  0  0  0
 21 22  1  0  0  0  0
 22 20  1  1  0  0  0
 22 18  1  0  0  0  0
 23 18  1  0  0  0  0
 24 25  1  1  0  0  0
 26 24  1  6  0  0  0
 26 29  1  0  0  0  0
 28 26  1  0  0  0  0
 28 30  1  0  0  0  0
 29 27  1  0  0  0  0
 30 27  1  0  0  0  0
 33 41  1  0  0  0  0
 33 32  1  0  0  0  0
 34 37  1  6  0  0  0
 34 38  1  0  0  0  0
 34 40  1  0  0  0  0
 35 31  1  1  0  0  0
 35 34  1  0  0  0  0
 35 38  1  0  0  0  0
 36 32  1  0  0  0  0
 36 39  1  1  0  0  0
 37 33  1  0  0  0  0
 40 36  1  0  0  0  0
 42 43  1  0  0  0  0
 42 41  1  1  0  0  0
 43 50  1  1  0  0  0
 44 46  1  1  0  0  0
 44 48  1  0  0  0  0
 45 44  1  0  0  0  0
 45 49  1  0  0  0  0
 45 43  1  0  0  0  0
 46 42  1  0  0  0  0
 48 47  1  0  0  0  0
 50 47  1  0  0  0  0
M  END
>  <MODEL>
1

>  <REMARK>
 VINA RESULT:      -8.3      0.000      0.000
  Name = 
  7 active torsions:
  status: ('A' for Active; 'I' for Inactive)
    1  A    between atoms: C_1  and  C_28
    2  A    between atoms: N_3  and  C_28
    3  A    between atoms: C_5  and  N_12
    4  A    between atoms: N_6  and  N_12
    5  A    between atoms: C_10  and  S_21
    6  A    between atoms: C_20  and  S_21
    7  A    between atoms: N_27  and  C_38
                            x       y       z     vdW  Elec       q    Type
                         _______ _______ _______ _____ _____    ______ ____

>  <TORSDO>
F 7

$$$$
=
 OpenBabel11042413253D

 50 58  0  0  1  0  0  0  0  0999 V2000
  191.0040  173.0560  134.5940 C   0  0  0  0  0  3  0  0  0  0  0  0
  186.9610  176.9870  135.9610 O   0  0  0  0  0  1  0  0  0  0  0  0
  185.0570  175.6210  136.4530 C   0  0  0  0  0  0  0  0  0  0  0  0
  186.5070  173.2010  135.7080 C   0  0  1  0  0  3  0  0  0  0  0  0
  184.4220  174.5710  137.3820 C   0  0  0  0  0  2  0  0  0  0  0  0
  187.0990  174.6040  135.3630 C   0  0  1  0  0  3  0  0  0  0  0  0
  189.8390  172.2860  134.6360 C   0  0  0  0  0  3  0  0  0  0  0  0
  189.7450  175.0570  135.2020 C   0  0  0  0  0  0  0  0  0  0  0  0
  187.2110  172.2060  137.8030 O   0  0  0  0  0  0  0  0  0  0  0  0
  184.2960  176.3440  135.7040 N   0  0  0  0  0  0  0  0  0  0  0  0
  188.6500  172.9220  134.9550 C   0  0  0  0  0  0  0  0  0  0  0  0
  187.4130  172.2490  135.1030 N   0  0  0  0  0  2  0  0  0  0  0  0
  185.3850  173.6540  137.9800 N   0  0  0  0  0  2  0  0  0  0  0  0
  186.3980  172.9690  137.2110 C   0  0  0  0  0  0  0  0  0  0  0  0
  186.5770  175.6940  136.3210 C   0  0  1  0  0  3  0  0  0  0  0  0
  190.9590  174.4240  134.8990 C   0  0  0  0  0  3  0  0  0  0  0  0
  188.5730  174.2770  135.2400 C   0  0  0  0  0  0  0  0  0  0  0  0
  180.9010  175.3570  134.5940 N   0  0  0  0  0  0  0  0  0  0  0  0
  182.0160  177.3590  135.4850 C   0  0  0  0  0  2  0  0  0  0  0  0
  182.7240  173.8450  134.9110 O   0  0  0  0  0  1  0  0  0  0  0  0
  182.8440  176.1340  135.7280 C   0  0  1  0  0  3  0  0  0  0  0  0
  182.3670  175.1870  134.6640 C   0  0  2  0  0  3  0  0  0  0  0  0
  180.6810  176.7460  135.0730 C   0  0  0  0  0  2  0  0  0  0  0  0
  180.1070  174.4300  135.4520 C   0  0  1  0  0  3  0  0  0  0  0  0
  179.9130  173.0120  134.8600 C   0  0  0  0  0  1  0  0  0  0  0  0
  180.5270  174.4290  136.9450 C   0  0  2  0  0  3  0  0  0  0  0  0
  179.0890  174.1150  138.8250 C   0  0  0  0  0  2  0  0  0  0  0  0
  180.7380  173.0790  137.4860 N   0  0  0  0  0  2  0  0  0  0  0  0
  179.4560  175.0920  137.7430 C   0  0  0  0  0  2  0  0  0  0  0  0
  180.1950  173.1140  138.8250 C   0  0  0  0  0  2  0  0  0  0  0  0
  189.7970  176.8120  135.6340 S   0  0  0  0  0  0  0  0  0  0  0  0
  193.0500  176.4530  139.7440 C   0  0  0  0  0  2  0  0  0  0  0  0
  192.2450  177.5630  140.2430 N   0  0  0  0  0  0  0  0  0  0  0  0
  190.8930  176.9310  138.2360 C   0  0  1  0  0  0  0  0  0  0  0  0
  189.5750  176.7470  137.4730 C   0  0  2  0  0  3  0  0  0  0  0  0
  193.1850  176.4760  138.2140 C   0  0  1  0  0  3  0  0  0  0  0  0
  190.8880  177.4390  139.6960 C   0  0  0  0  0  2  0  0  0  0  0  0
  190.2670  175.5490  138.1290 C   0  0  0  0  0  2  0  0  0  0  0  0
  193.5220  175.0750  137.6850 C   0  0  0  0  0  1  0  0  0  0  0  0
  192.1030  177.0430  137.4900 O   0  0  0  0  0  0  0  0  0  0  0  0
  192.1720  177.3430  141.6470 N   0  0  0  0  0  2  0  0  0  0  0  0
  190.9640  177.9280  142.2370 C   0  0  1  0  0  3  0  0  0  0  0  0
  189.9950  176.8420  142.7690 C   0  0  2  0  0  3  0  0  0  0  0  0
  190.1970  178.3160  144.5170 C   0  0  2  0  0  3  0  0  0  0  0  0
  189.1870  177.5950  143.7200 N   0  0  0  0  0  0  0  0  0  0  0  0
  191.2090  178.8100  143.4710 C   0  0  0  0  0  2  0  0  0  0  0  0
  191.6170  176.2090  144.6820 C   0  0  0  0  0  2  0  0  0  0  0  0
  190.9410  177.3510  145.4690 C   0  0  0  0  0  2  0  0  0  0  0  0
  188.2470  176.7690  144.4970 C   0  0  0  0  0  1  0  0  0  0  0  0
  190.7470  175.6900  143.5160 C   0  0  0  0  0  2  0  0  0  0  0  0
  1  7  2  0  0  0  0
  1 16  1  0  0  0  0
  3  5  1  0  0  0  0
  4 12  1  1  0  0  0
  4 14  1  0  0  0  0
  5 13  1  0  0  0  0
  6 17  1  1  0  0  0
  6  4  1  0  0  0  0
  6 15  1  0  0  0  0
  7 11  1  0  0  0  0
  8 17  1  0  0  0  0
  8 31  1  0  0  0  0
 10  3  2  0  0  0  0
 11 12  1  0  0  0  0
 11 17  2  0  0  0  0
 14  9  2  0  0  0  0
 14 13  1  0  0  0  0
 15  2  1  6  0  0  0
 15  3  1  0  0  0  0
 16  8  2  0  0  0  0
 18 22  1  0  0  0  0
 18 23  1  0  0  0  0
 18 24  1  0  0  0  0
 19 21  1  0  0  0  0
 21 10  1  6  0  0  0
 22 20  1  1  0  0  0
 22 21  1  0  0  0  0
 23 19  1  0  0  0  0
 24 25  1  6  0  0  0
 26 24  1  6  0  0  0
 26 28  1  0  0  0  0
 26 29  1  0  0  0  0
 27 30  1  0  0  0  0
 28 30  1  0  0  0  0
 29 27  1  0  0  0  0
 32 33  1  0  0  0  0
 33 41  1  0  0  0  0
 34 38  1  1  0  0  0
 34 37  1  0  0  0  0
 35 31  1  6  0  0  0
 35 38  1  0  0  0  0
 35 34  1  0  0  0  0
 36 39  1  6  0  0  0
 36 32  1  0  0  0  0
 37 33  1  0  0  0  0
 40 36  1  0  0  0  0
 40 34  1  0  0  0  0
 42 41  1  1  0  0  0
 42 43  1  0  0  0  0
 42 46  1  0  0  0  0
 43 50  1  1  0  0  0
 43 45  1  0  0  0  0
 44 46  1  6  0  0  0
 44 48  1  0  0  0  0
 45 49  1  0  0  0  0
 45 44  1  0  0  0  0
 47 48  1  0  0  0  0
 50 47  1  0  0  0  0
M  END
>  <MODEL>
2

>  <REMARK>
 VINA RESULT:      -6.0      2.556      9.830
  Name = 
  7 active torsions:
  status: ('A' for Active; 'I' for Inactive)
    1  A    between atoms: C_1  and  C_28
    2  A    between atoms: N_3  and  C_28
    3  A    between atoms: C_5  and  N_12
    4  A    between atoms: N_6  and  N_12
    5  A    between atoms: C_10  and  S_21
    6  A    between atoms: C_20  and  S_21
    7  A    between atoms: N_27  and  C_38
                            x       y       z     vdW  Elec       q    Type
                         _______ _______ _______ _____ _____    ______ ____

>  <TORSDO>
F 7

$$$$
=
 OpenBabel11042413253D

 50 58  0  0  1  0  0  0  0  0999 V2000
  180.7420  179.8370  135.3300 C   0  0  0  0  0  3  0  0  0  0  0  0
  183.2140  176.7760  139.5940 O   0  0  0  0  0  1  0  0  0  0  0  0
  182.9170  178.2030  141.4950 C   0  0  0  0  0  0  0  0  0  0  0  0
  181.7330  180.2900  139.8350 C   0  0  1  0  0  3  0  0  0  0  0  0
  181.9340  178.8680  142.4740 C   0  0  0  0  0  2  0  0  0  0  0  0
  182.4540  179.0770  139.1680 C   0  0  1  0  0  3  0  0  0  0  0  0
  180.7940  180.7650  136.3740 C   0  0  0  0  0  3  0  0  0  0  0  0
  181.7520  178.1280  136.7510 C   0  0  0  0  0  0  0  0  0  0  0  0
  179.3400  180.0890  140.1650 O   0  0  0  0  0  0  0  0  0  0  0  0
  184.1550  178.0740  141.8330 N   0  0  0  0  0  0  0  0  0  0  0  0
  181.3300  180.3520  137.5840 C   0  0  0  0  0  0  0  0  0  0  0  0
  181.3760  181.1670  138.7410 N   0  0  0  0  0  2  0  0  0  0  0  0
  180.6380  179.1820  141.8840 N   0  0  0  0  0  2  0  0  0  0  0  0
  180.4970  179.8710  140.6230 C   0  0  0  0  0  0  0  0  0  0  0  0
  182.4520  177.8380  140.0860 C   0  0  1  0  0  3  0  0  0  0  0  0
  181.1940  178.5240  135.5270 C   0  0  0  0  0  3  0  0  0  0  0  0
  181.8050  179.0680  137.7990 C   0  0  0  0  0  0  0  0  0  0  0  0
  185.0880  178.1450  145.4190 N   0  0  0  0  0  0  0  0  0  0  0  0
  183.5890  179.3680  143.9010 C   0  0  0  0  0  2  0  0  0  0  0  0
  186.2110  176.8620  143.7450 O   0  0  0  0  0  1  0  0  0  0  0  0
  184.6090  178.5890  143.1300 C   0  0  1  0  0  3  0  0  0  0  0  0
  185.0030  177.5030  144.0910 C   0  0  2  0  0  3  0  0  0  0  0  0
  184.1600  179.3010  145.3140 C   0  0  0  0  0  2  0  0  0  0  0  0
  186.4370  178.6540  145.7990 C   0  0  1  0  0  3  0  0  0  0  0  0
  186.4290  179.7460  146.8970 C   0  0  0  0  0  1  0  0  0  0  0  0
  187.4920  177.5430  146.0350 C   0  0  2  0  0  3  0  0  0  0  0  0
  189.8490  177.8480  146.2720 C   0  0  0  0  0  2  0  0  0  0  0  0
  187.8550  177.3800  147.4500 N   0  0  0  0  0  2  0  0  0  0  0  0
  188.7270  177.8860  145.2720 C   0  0  0  0  0  2  0  0  0  0  0  0
  189.2800  177.1410  147.4560 C   0  0  0  0  0  2  0  0  0  0  0  0
  182.2570  176.4010  136.9260 S   0  0  0  0  0  0  0  0  0  0  0  0
  187.4790  176.8680  136.5880 C   0  0  0  0  0  2  0  0  0  0  0  0
  187.3630  175.5940  135.8850 N   0  0  0  0  0  0  0  0  0  0  0  0
  184.9420  176.1970  136.0700 C   0  0  1  0  0  0  0  0  0  0  0  0
  183.4970  176.2380  135.5580 C   0  0  2  0  0  3  0  0  0  0  0  0
  186.4140  177.0260  137.6840 C   0  0  1  0  0  3  0  0  0  0  0  0
  186.0560  175.5470  135.2170 C   0  0  0  0  0  2  0  0  0  0  0  0
  184.4070  177.4590  135.4110 C   0  0  0  0  0  2  0  0  0  0  0  0
  186.1920  178.5100  138.0050 C   0  0  0  0  0  1  0  0  0  0  0  0
  185.1770  176.3650  137.4660 O   0  0  0  0  0  0  0  0  0  0  0  0
  188.3670  175.6520  134.8790 N   0  0  0  0  0  2  0  0  0  0  0  0
  189.3020  174.5270  134.9650 C   0  0  1  0  0  3  0  0  0  0  0  0
  190.7670  174.9730  134.7250 C   0  0  2  0  0  3  0  0  0  0  0  0
  190.8680  173.7370  136.6560 C   0  0  2  0  0  3  0  0  0  0  0  0
  191.5210  173.8890  135.3420 N   0  0  0  0  0  0  0  0  0  0  0  0
  189.3680  173.8430  136.3390 C   0  0  0  0  0  2  0  0  0  0  0  0
  190.8320  176.2650  136.9650 C   0  0  0  0  0  2  0  0  0  0  0  0
  191.2330  174.9130  137.5920 C   0  0  0  0  0  2  0  0  0  0  0  0
  192.9750  174.1160  135.3860 C   0  0  0  0  0  1  0  0  0  0  0  0
  191.1030  176.3220  135.4460 C   0  0  0  0  0  2  0  0  0  0  0  0
  1 16  2  0  0  0  0
  1  7  1  0  0  0  0
  3 10  2  0  0  0  0
  3  5  1  0  0  0  0
  4 12  1  6  0  0  0
  4 14  1  0  0  0  0
  6 17  1  6  0  0  0
  6  4  1  0  0  0  0
  6 15  1  0  0  0  0
  7 11  2  0  0  0  0
  8 31  1  0  0  0  0
  8 17  2  0  0  0  0
  9 14  2  0  0  0  0
 11 17  1  0  0  0  0
 11 12  1  0  0  0  0
 13  5  1  0  0  0  0
 14 13  1  0  0  0  0
 15  2  1  6  0  0  0
 15  3  1  0  0  0  0
 16  8  1  0  0  0  0
 18 24  1  0  0  0  0
 19 23  1  0  0  0  0
 21 10  1  6  0  0  0
 21 19  1  0  0  0  0
 21 22  1  0  0  0  0
 22 20  1  6  0  0  0
 22 18  1  0  0  0  0
 23 18  1  0  0  0  0
 24 25  1  1  0  0  0
 26 24  1  1  0  0  0
 26 28  1  0  0  0  0
 27 30  1  0  0  0  0
 28 30  1  0  0  0  0
 29 26  1  0  0  0  0
 29 27  1  0  0  0  0
 32 36  1  0  0  0  0
 33 32  1  0  0  0  0
 34 37  1  6  0  0  0
 34 40  1  0  0  0  0
 35 34  1  0  0  0  0
 35 31  1  1  0  0  0
 36 39  1  6  0  0  0
 37 33  1  0  0  0  0
 38 35  1  0  0  0  0
 38 34  1  0  0  0  0
 40 36  1  0  0  0  0
 41 33  1  0  0  0  0
 42 41  1  1  0  0  0
 42 46  1  0  0  0  0
 43 42  1  0  0  0  0
 43 45  1  0  0  0  0
 43 50  1  1  0  0  0
 44 46  1  6  0  0  0
 44 48  1  0  0  0  0
 45 49  1  0  0  0  0
 45 44  1  0  0  0  0
 47 48  1  0  0  0  0
 50 47  1  0  0  0  0
M  END
>  <MODEL>
3

>  <REMARK>
 VINA RESULT:      -5.4      3.103      8.077
  Name = 
  7 active torsions:
  status: ('A' for Active; 'I' for Inactive)
    1  A    between atoms: C_1  and  C_28
    2  A    between atoms: N_3  and  C_28
    3  A    between atoms: C_5  and  N_12
    4  A    between atoms: N_6  and  N_12
    5  A    between atoms: C_10  and  S_21
    6  A    between atoms: C_20  and  S_21
    7  A    between atoms: N_27  and  C_38
                            x       y       z     vdW  Elec       q    Type
                         _______ _______ _______ _____ _____    ______ ____

>  <TORSDO>
F 7

$$$$
