=
 OpenBabel11042410543D

 26 29  0  0  0  0  0  0  0  0999 V2000
  187.5160  178.2830  147.9530 C   0  0  0  0  0  3  0  0  0  0  0  0
  188.2900  177.2870  145.3150 C   0  0  0  0  0  0  0  0  0  0  0  0
  183.6500  179.0440  145.3160 C   0  0  0  0  0  3  0  0  0  0  0  0
  186.6210  178.2470  146.9710 C   0  0  0  0  0  0  0  0  0  0  0  0
  189.2060  177.3040  146.2940 C   0  0  0  0  0  3  0  0  0  0  0  0
  185.2920  178.7520  147.0190 N   0  0  0  0  0  0  0  0  0  0  0  0
  185.6090  177.9770  143.5650 C   0  0  0  0  0  3  0  0  0  0  0  0
  186.9440  177.8130  145.6350 C   0  0  0  0  0  0  0  0  0  0  0  0
  183.3810  178.9040  143.9450 C   0  0  0  0  0  0  0  0  0  0  0  0
  185.8560  178.1020  144.9310 C   0  0  0  0  0  0  0  0  0  0  0  0
  188.9400  177.8290  147.6990 C   0  0  0  0  0  2  0  0  0  0  0  0
  184.8990  178.6400  145.7890 C   0  0  0  0  0  0  0  0  0  0  0  0
  184.3560  178.3800  143.0740 C   0  0  0  0  0  3  0  0  0  0  0  0
  182.1470  179.2920  143.4430 O   0  0  0  0  0  1  0  0  0  0  0  0
  188.6510  176.7140  144.0560 N   0  0  0  0  0  2  0  0  0  0  0  0
  188.2280  177.7300  139.0780 C   0  0  0  0  0  1  0  0  0  0  0  0
  190.6460  177.5350  139.5100 N   0  0  0  0  0  0  0  0  0  0  0  0
  189.1550  177.2500  141.3100 N   0  0  0  0  0  0  0  0  0  0  0  0
  189.3760  177.4990  139.9930 C   0  0  0  0  0  0  0  0  0  0  0  0
  189.9530  176.7650  143.5430 N   0  0  0  0  0  2  0  0  0  0  0  0
  191.7100  177.3280  140.3320 C   0  0  0  0  0  0  0  0  0  0  0  0
  191.5020  177.0650  141.6860 C   0  0  0  0  0  3  0  0  0  0  0  0
  190.1920  177.0330  142.1630 C   0  0  0  0  0  0  0  0  0  0  0  0
  193.0940  177.3510  139.7790 C   0  0  0  0  0  2  0  0  0  0  0  0
  193.1410  176.7040  138.4040 C   0  0  0  0  0  2  0  0  0  0  0  0
  194.1690  175.6790  138.3690 N   0  0  0  0  0  1  0  0  0  0  0  0
  2  8  1  0  0  0  0
  2  5  2  0  0  0  0
  3 12  1  0  0  0  0
  4  6  1  0  0  0  0
  4  1  2  0  0  0  0
  5 11  1  0  0  0  0
  7 10  1  0  0  0  0
  8  4  1  0  0  0  0
  9  3  2  0  0  0  0
 10  8  2  0  0  0  0
 10 12  1  0  0  0  0
 11  1  1  0  0  0  0
 12  6  2  0  0  0  0
 13  7  2  0  0  0  0
 13  9  1  0  0  0  0
 14  9  1  0  0  0  0
 15  2  1  0  0  0  0
 16 19  1  0  0  0  0
 17 19  2  0  0  0  0
 17 21  1  0  0  0  0
 18 23  2  0  0  0  0
 19 18  1  0  0  0  0
 20 15  1  0  0  0  0
 21 22  2  0  0  0  0
 22 23  1  0  0  0  0
 23 20  1  0  0  0  0
 24 21  1  0  0  0  0
 25 24  1  0  0  0  0
 26 25  1  0  0  0  0
M  END
>  <MODEL>
1

>  <REMARK>
 VINA RESULT:     -10.0      0.000      0.000
  Name = 
  4 active torsions:
  status: ('A' for Active; 'I' for Inactive)
    1  A    between atoms: C_2  and  N_4
    2  A    between atoms: N_4  and  N_10
    3  A    between atoms: C_13  and  C_23
    4  A    between atoms: C_17  and  C_23
                            x       y       z     vdW  Elec       q    Type
                         _______ _______ _______ _____ _____    ______ ____

>  <TORSDO>
F 4

$$$$
=
 OpenBabel11042410543D

 26 29  0  0  0  0  0  0  0  0999 V2000
  190.5780  177.0540  146.8810 C   0  0  0  0  0  3  0  0  0  0  0  0
  189.9380  176.6220  144.0600 C   0  0  0  0  0  0  0  0  0  0  0  0
  186.0290  178.3560  146.5770 C   0  0  0  0  0  3  0  0  0  0  0  0
  189.3310  177.2250  146.4520 C   0  0  0  0  0  0  0  0  0  0  0  0
  191.2000  176.4330  144.4730 C   0  0  0  0  0  3  0  0  0  0  0  0
  188.2350  177.7130  147.2140 N   0  0  0  0  0  2  0  0  0  0  0  0
  186.8360  177.6670  143.9470 C   0  0  0  0  0  3  0  0  0  0  0  0
  188.9540  177.0750  145.0690 C   0  0  0  0  0  0  0  0  0  0  0  0
  185.1430  178.5030  145.4980 C   0  0  0  0  0  0  0  0  0  0  0  0
  187.6990  177.5060  145.0300 C   0  0  0  0  0  0  0  0  0  0  0  0
  191.6690  176.6580  145.9050 C   0  0  0  0  0  3  0  0  0  0  0  0
  187.3080  177.8590  146.3200 C   0  0  0  0  0  0  0  0  0  0  0  0
  185.5460  178.1660  144.1910 C   0  0  0  0  0  3  0  0  0  0  0  0
  183.8630  178.9900  145.7200 O   0  0  0  0  0  1  0  0  0  0  0  0
  189.6150  176.3190  142.7010 N   0  0  0  0  0  2  0  0  0  0  0  0
  191.6650  175.2680  138.1540 C   0  0  0  0  0  1  0  0  0  0  0  0
  190.2510  177.2560  137.7990 N   0  0  0  0  0  0  0  0  0  0  0  0
  190.3570  176.3210  139.9570 N   0  0  0  0  0  0  0  0  0  0  0  0
  190.7300  176.3110  138.6500 C   0  0  0  0  0  0  0  0  0  0  0  0
  189.1230  177.2770  141.8060 N   0  0  0  0  0  2  0  0  0  0  0  0
  189.3930  178.2160  138.2340 C   0  0  0  0  0  0  0  0  0  0  0  0
  189.0040  178.2460  139.5730 C   0  0  0  0  0  3  0  0  0  0  0  0
  189.5050  177.2690  140.4330 C   0  0  0  0  0  0  0  0  0  0  0  0
  188.8960  179.2550  137.2880 C   0  0  0  0  0  2  0  0  0  0  0  0
  187.6830  178.7540  136.5190 C   0  0  0  0  0  2  0  0  0  0  0  0
  186.5160  178.7340  137.3840 N   0  0  0  0  0  1  0  0  0  0  0  0
  2  5  2  0  0  0  0
  2  8  1  0  0  0  0
  4  1  1  0  0  0  0
  4  6  1  0  0  0  0
  5 11  1  0  0  0  0
  7 13  2  0  0  0  0
  7 10  1  0  0  0  0
  8  4  2  0  0  0  0
  9 14  1  0  0  0  0
  9  3  2  0  0  0  0
 10  8  1  0  0  0  0
 10 12  2  0  0  0  0
 11  1  2  0  0  0  0
 12  3  1  0  0  0  0
 12  6  1  0  0  0  0
 13  9  1  0  0  0  0
 15  2  1  0  0  0  0
 16 19  1  0  0  0  0
 17 21  1  0  0  0  0
 17 19  2  0  0  0  0
 18 23  2  0  0  0  0
 19 18  1  0  0  0  0
 20 15  1  0  0  0  0
 21 22  2  0  0  0  0
 22 23  1  0  0  0  0
 23 20  1  0  0  0  0
 24 21  1  0  0  0  0
 25 24  1  0  0  0  0
 25 26  1  0  0  0  0
M  END
>  <MODEL>
2

>  <REMARK>
 VINA RESULT:      -9.7      1.938      3.367
  Name = 
  4 active torsions:
  status: ('A' for Active; 'I' for Inactive)
    1  A    between atoms: C_2  and  N_4
    2  A    between atoms: N_4  and  N_10
    3  A    between atoms: C_13  and  C_23
    4  A    between atoms: C_17  and  C_23
                            x       y       z     vdW  Elec       q    Type
                         _______ _______ _______ _____ _____    ______ ____

>  <TORSDO>
F 4

$$$$
=
 OpenBabel11042410543D

 26 29  0  0  0  0  0  0  0  0999 V2000
  190.2620  177.0120  146.8600 C   0  0  0  0  0  3  0  0  0  0  0  0
  189.6600  176.8990  144.0010 C   0  0  0  0  0  0  0  0  0  0  0  0
  185.7210  178.3590  146.6420 C   0  0  0  0  0  3  0  0  0  0  0  0
  189.0220  177.2350  146.4360 C   0  0  0  0  0  0  0  0  0  0  0  0
  190.9150  176.6600  144.4080 C   0  0  0  0  0  3  0  0  0  0  0  0
  187.9160  177.6400  147.2340 N   0  0  0  0  0  2  0  0  0  0  0  0
  186.5620  177.9640  143.9630 C   0  0  0  0  0  3  0  0  0  0  0  0
  188.6630  177.2420  145.0400 C   0  0  0  0  0  0  0  0  0  0  0  0
  184.8510  178.6290  145.5740 C   0  0  0  0  0  0  0  0  0  0  0  0
  187.4090  177.6800  145.0330 C   0  0  0  0  0  0  0  0  0  0  0  0
  191.3650  176.7230  145.8620 C   0  0  0  0  0  3  0  0  0  0  0  0
  187.0010  177.8880  146.3490 C   0  0  0  0  0  0  0  0  0  0  0  0
  185.2710  178.4390  144.2440 C   0  0  0  0  0  3  0  0  0  0  0  0
  183.5690  179.0940  145.8320 O   0  0  0  0  0  1  0  0  0  0  0  0
  189.3540  176.7520  142.6120 N   0  0  0  0  0  0  0  0  0  0  0  0
  187.3290  178.0150  138.1080 C   0  0  0  0  0  1  0  0  0  0  0  0
  189.6000  177.2000  137.6070 N   0  0  0  0  0  0  0  0  0  0  0  0
  188.8880  177.2390  139.8510 N   0  0  0  0  0  0  0  0  0  0  0  0
  188.6440  177.4700  138.5340 C   0  0  0  0  0  0  0  0  0  0  0  0
  190.3310  176.4910  141.6440 N   0  0  0  0  0  0  0  0  0  0  0  0
  190.8100  176.7040  137.9780 C   0  0  0  0  0  0  0  0  0  0  0  0
  191.0770  176.4550  139.3240 C   0  0  0  0  0  3  0  0  0  0  0  0
  190.0840  176.7370  140.2620 C   0  0  0  0  0  0  0  0  0  0  0  0
  191.8380  176.3960  136.9430 C   0  0  0  0  0  2  0  0  0  0  0  0
  193.2100  176.2210  137.5740 C   0  0  0  0  0  2  0  0  0  0  0  0
  194.2420  176.6850  136.6630 N   0  0  0  0  0  1  0  0  0  0  0  0
  2  5  2  0  0  0  0
  2  8  1  0  0  0  0
  4  1  1  0  0  0  0
  4  6  1  0  0  0  0
  5 11  1  0  0  0  0
  7 13  2  0  0  0  0
  7 10  1  0  0  0  0
  8  4  2  0  0  0  0
  9 14  1  0  0  0  0
  9  3  2  0  0  0  0
 10  8  1  0  0  0  0
 10 12  2  0  0  0  0
 11  1  2  0  0  0  0
 12  3  1  0  0  0  0
 12  6  1  0  0  0  0
 13  9  1  0  0  0  0
 15  2  1  0  0  0  0
 16 19  1  0  0  0  0
 17 21  1  0  0  0  0
 17 19  2  0  0  0  0
 18 23  2  0  0  0  0
 19 18  1  0  0  0  0
 20 15  2  0  0  0  0
 21 22  2  0  0  0  0
 22 23  1  0  0  0  0
 23 20  1  0  0  0  0
 24 25  1  0  0  0  0
 24 21  1  0  0  0  0
 26 25  1  0  0  0  0
M  END
>  <MODEL>
3

>  <REMARK>
 VINA RESULT:      -9.6      1.601      2.241
  Name = 
  4 active torsions:
  status: ('A' for Active; 'I' for Inactive)
    1  A    between atoms: C_2  and  N_4
    2  A    between atoms: N_4  and  N_10
    3  A    between atoms: C_13  and  C_23
    4  A    between atoms: C_17  and  C_23
                            x       y       z     vdW  Elec       q    Type
                         _______ _______ _______ _____ _____    ______ ____

>  <TORSDO>
F 4

$$$$
=
 OpenBabel11042410543D

 26 29  0  0  0  0  0  0  0  0999 V2000
  187.3310  178.2650  147.9360 C   0  0  0  0  0  3  0  0  0  0  0  0
  188.2990  177.4630  145.2960 C   0  0  0  0  0  0  0  0  0  0  0  0
  183.5760  178.9740  145.1290 C   0  0  0  0  0  3  0  0  0  0  0  0
  186.4930  178.2390  146.9040 C   0  0  0  0  0  0  0  0  0  0  0  0
  189.1590  177.4720  146.3250 C   0  0  0  0  0  3  0  0  0  0  0  0
  185.1380  178.6700  146.9050 N   0  0  0  0  0  0  0  0  0  0  0  0
  185.6820  178.1120  143.4370 C   0  0  0  0  0  3  0  0  0  0  0  0
  186.9110  177.9000  145.5670 C   0  0  0  0  0  0  0  0  0  0  0  0
  183.3890  178.8990  143.7400 C   0  0  0  0  0  0  0  0  0  0  0  0
  185.8480  178.1720  144.8190 C   0  0  0  0  0  0  0  0  0  0  0  0
  188.7890  177.9010  147.7390 C   0  0  0  0  0  2  0  0  0  0  0  0
  184.8180  178.6090  145.6500 C   0  0  0  0  0  0  0  0  0  0  0  0
  184.4370  178.4770  142.8990 C   0  0  0  0  0  3  0  0  0  0  0  0
  182.1640  179.2510  143.1900 O   0  0  0  0  0  1  0  0  0  0  0  0
  188.7580  176.9820  144.0300 N   0  0  0  0  0  2  0  0  0  0  0  0
  192.5070  177.2650  140.5870 C   0  0  0  0  0  1  0  0  0  0  0  0
  190.4460  177.8550  139.3710 N   0  0  0  0  0  0  0  0  0  0  0  0
  190.2880  177.3210  141.6590 N   0  0  0  0  0  0  0  0  0  0  0  0
  191.0380  177.4860  140.5370 C   0  0  0  0  0  0  0  0  0  0  0  0
  188.1640  177.3520  142.8170 N   0  0  0  0  0  2  0  0  0  0  0  0
  189.1030  178.0590  139.3050 C   0  0  0  0  0  0  0  0  0  0  0  0
  188.3190  177.9000  140.4480 C   0  0  0  0  0  3  0  0  0  0  0  0
  188.9440  177.5200  141.6360 C   0  0  0  0  0  0  0  0  0  0  0  0
  188.4760  178.4840  138.0210 C   0  0  0  0  0  2  0  0  0  0  0  0
  187.1880  177.7170  137.7660 C   0  0  0  0  0  2  0  0  0  0  0  0
  186.0500  178.6170  137.8280 N   0  0  0  0  0  1  0  0  0  0  0  0
  2  8  1  0  0  0  0
  2  5  2  0  0  0  0
  3 12  1  0  0  0  0
  4  6  1  0  0  0  0
  4  1  2  0  0  0  0
  5 11  1  0  0  0  0
  7 10  1  0  0  0  0
  8  4  1  0  0  0  0
  9  3  2  0  0  0  0
 10  8  2  0  0  0  0
 10 12  1  0  0  0  0
 11  1  1  0  0  0  0
 12  6  2  0  0  0  0
 13  7  2  0  0  0  0
 13  9  1  0  0  0  0
 14  9  1  0  0  0  0
 15  2  1  0  0  0  0
 17 19  2  0  0  0  0
 19 16  1  0  0  0  0
 19 18  1  0  0  0  0
 20 15  1  0  0  0  0
 21 17  1  0  0  0  0
 21 22  2  0  0  0  0
 22 23  1  0  0  0  0
 23 18  2  0  0  0  0
 23 20  1  0  0  0  0
 24 21  1  0  0  0  0
 25 26  1  0  0  0  0
 25 24  1  0  0  0  0
M  END
>  <MODEL>
4

>  <REMARK>
 VINA RESULT:      -9.2      1.211      2.705
  Name = 
  4 active torsions:
  status: ('A' for Active; 'I' for Inactive)
    1  A    between atoms: C_2  and  N_4
    2  A    between atoms: N_4  and  N_10
    3  A    between atoms: C_13  and  C_23
    4  A    between atoms: C_17  and  C_23
                            x       y       z     vdW  Elec       q    Type
                         _______ _______ _______ _____ _____    ______ ____

>  <TORSDO>
F 4

$$$$
=
 OpenBabel11042410543D

 26 29  0  0  1  0  0  0  0  0999 V2000
  185.8070  177.8660  145.3410 C   0  0  0  0  0  3  0  0  0  0  0  0
  187.7030  178.2000  143.1390 C   0  0  0  0  0  0  0  0  0  0  0  0
  189.9920  176.8780  147.3380 C   0  0  0  0  0  3  0  0  0  0  0  0
  187.1120  177.7630  145.5710 C   0  0  0  0  0  0  0  0  0  0  0  0
  186.3910  178.3190  142.8870 C   0  0  0  0  0  3  0  0  0  0  0  0
  187.7280  177.3940  146.7980 N   0  0  0  0  0  0  0  0  0  0  0  0
  190.5180  177.3740  144.5970 C   0  0  0  0  0  3  0  0  0  0  0  0
  188.1000  177.8700  144.5260 C   0  0  0  0  0  0  0  0  0  0  0  0
  191.2910  176.7410  146.8250 C   0  0  2  0  0  3  0  0  0  0  0  0
  189.2360  177.5270  145.1230 C   0  0  0  0  0  0  0  0  0  0  0  0
  185.3030  178.1340  143.9360 C   0  0  0  0  0  3  0  0  0  0  0  0
  188.9750  177.2690  146.4670 C   0  0  0  0  0  0  0  0  0  0  0  0
  191.5510  176.9810  145.4620 C   0  0  0  0  0  3  0  0  0  0  0  0
  192.3270  176.3580  147.6670 O   0  0  0  0  0  1  0  0  0  0  0  0
  188.6260  178.4560  142.0780 N   0  0  0  0  0  2  0  0  0  0  0  0
  188.7050  179.1260  137.0250 C   0  0  0  0  0  1  0  0  0  0  0  0
  190.1720  177.1940  137.4600 N   0  0  0  0  0  0  0  0  0  0  0  0
  189.1330  178.2500  139.2890 N   0  0  0  0  0  0  0  0  0  0  0  0
  189.3570  178.1630  137.9510 C   0  0  0  0  0  0  0  0  0  0  0  0
  189.4720  177.4710  141.5540 N   0  0  0  0  0  2  0  0  0  0  0  0
  190.7790  176.3050  138.2910 C   0  0  0  0  0  0  0  0  0  0  0  0
  190.5570  176.3760  139.6660 C   0  0  0  0  0  3  0  0  0  0  0  0
  189.7160  177.3770  140.1530 C   0  0  0  0  0  0  0  0  0  0  0  0
  191.6540  175.2370  137.7300 C   0  0  0  0  0  2  0  0  0  0  0  0
  192.8760  175.8360  137.0510 C   0  0  0  0  0  2  0  0  0  0  0  0
  193.7920  176.3640  138.0470 N   0  0  0  0  0  1  0  0  0  0  0  0
  1  4  1  0  0  0  0
  2  8  1  0  0  0  0
  4  6  2  0  0  0  0
  5  2  2  0  0  0  0
  5 11  1  0  0  0  0
  7 10  1  0  0  0  0
  7 13  2  0  0  0  0
  8 10  2  0  0  0  0
  8  4  1  0  0  0  0
  9  3  1  0  0  0  0
  9 14  1  6  0  0  0
 10 12  1  0  0  0  0
 11  1  2  0  0  0  0
 12  6  1  0  0  0  0
 12  3  2  0  0  0  0
 13  9  1  0  0  0  0
 15  2  1  0  0  0  0
 16 19  1  0  0  0  0
 17 19  2  0  0  0  0
 17 21  1  0  0  0  0
 18 23  2  0  0  0  0
 19 18  1  0  0  0  0
 20 15  1  0  0  0  0
 21 22  2  0  0  0  0
 22 23  1  0  0  0  0
 23 20  1  0  0  0  0
 24 21  1  0  0  0  0
 25 24  1  0  0  0  0
 25 26  1  0  0  0  0
M  END
>  <MODEL>
5

>  <REMARK>
 VINA RESULT:      -9.0      2.795      4.426
  Name = 
  4 active torsions:
  status: ('A' for Active; 'I' for Inactive)
    1  A    between atoms: C_2  and  N_4
    2  A    between atoms: N_4  and  N_10
    3  A    between atoms: C_13  and  C_23
    4  A    between atoms: C_17  and  C_23
                            x       y       z     vdW  Elec       q    Type
                         _______ _______ _______ _____ _____    ______ ____

>  <TORSDO>
F 4

$$$$
=
 OpenBabel11042410543D

 26 29  0  0  1  0  0  0  0  0999 V2000
  183.2510  178.8510  144.5360 C   0  0  0  0  0  3  0  0  0  0  0  0
  185.5960  178.5170  142.8210 C   0  0  0  0  0  0  0  0  0  0  0  0
  186.7850  178.1880  147.6260 C   0  0  0  0  0  3  0  0  0  0  0  0
  184.4590  178.7430  145.0810 C   0  0  0  0  0  0  0  0  0  0  0  0
  184.3880  178.6360  142.2500 C   0  0  0  0  0  3  0  0  0  0  0  0
  184.7560  178.6660  146.4690 N   0  0  0  0  0  0  0  0  0  0  0  0
  187.9320  177.9440  145.0450 C   0  0  0  0  0  3  0  0  0  0  0  0
  185.6520  178.5300  144.3000 C   0  0  0  0  0  0  0  0  0  0  0  0
  188.1410  177.8580  147.4770 C   0  0  2  0  0  3  0  0  0  0  0  0
  186.5920  178.2920  145.2070 C   0  0  0  0  0  0  0  0  0  0  0  0
  183.0890  178.7790  143.0310 C   0  0  0  0  0  3  0  0  0  0  0  0
  186.0250  178.3970  146.4760 C   0  0  0  0  0  0  0  0  0  0  0  0
  188.7090  177.7310  146.1940 C   0  0  0  0  0  3  0  0  0  0  0  0
  188.9270  177.6480  148.6020 O   0  0  0  0  0  1  0  0  0  0  0  0
  186.7450  178.4470  141.9730 N   0  0  0  0  0  0  0  0  0  0  0  0
  191.3590  177.2170  140.1880 C   0  0  0  0  0  1  0  0  0  0  0  0
  189.9720  177.6470  138.1970 N   0  0  0  0  0  0  0  0  0  0  0  0
  188.9840  177.8600  140.3230 N   0  0  0  0  0  0  0  0  0  0  0  0
  190.0680  177.5840  139.5510 C   0  0  0  0  0  0  0  0  0  0  0  0
  186.6630  178.4960  140.5770 N   0  0  0  0  0  0  0  0  0  0  0  0
  188.7990  177.9790  137.5960 C   0  0  0  0  0  0  0  0  0  0  0  0
  187.6780  178.2710  138.3720 C   0  0  0  0  0  3  0  0  0  0  0  0
  187.7940  178.2020  139.7610 C   0  0  0  0  0  0  0  0  0  0  0  0
  188.7210  178.0630  136.1090 C   0  0  0  0  0  2  0  0  0  0  0  0
  187.5010  177.3220  135.5870 C   0  0  0  0  0  2  0  0  0  0  0  0
  187.7150  175.8870  135.6660 N   0  0  0  0  0  1  0  0  0  0  0  0
  1  4  1  0  0  0  0
  2  8  1  0  0  0  0
  4  6  2  0  0  0  0
  5  2  2  0  0  0  0
  5 11  1  0  0  0  0
  6 12  1  0  0  0  0
  7 10  1  0  0  0  0
  7 13  2  0  0  0  0
  8  4  1  0  0  0  0
  8 10  2  0  0  0  0
  9  3  1  0  0  0  0
  9 14  1  6  0  0  0
 10 12  1  0  0  0  0
 11  1  2  0  0  0  0
 12  3  2  0  0  0  0
 13  9  1  0  0  0  0
 15  2  1  0  0  0  0
 17 19  2  0  0  0  0
 19 16  1  0  0  0  0
 19 18  1  0  0  0  0
 20 15  2  0  0  0  0
 21 17  1  0  0  0  0
 21 22  2  0  0  0  0
 22 23  1  0  0  0  0
 23 18  2  0  0  0  0
 23 20  1  0  0  0  0
 24 21  1  0  0  0  0
 25 26  1  0  0  0  0
 25 24  1  0  0  0  0
M  END
>  <MODEL>
6

>  <REMARK>
 VINA RESULT:      -9.0      2.454      4.602
  Name = 
  4 active torsions:
  status: ('A' for Active; 'I' for Inactive)
    1  A    between atoms: C_2  and  N_4
    2  A    between atoms: N_4  and  N_10
    3  A    between atoms: C_13  and  C_23
    4  A    between atoms: C_17  and  C_23
                            x       y       z     vdW  Elec       q    Type
                         _______ _______ _______ _____ _____    ______ ____

>  <TORSDO>
F 4

$$$$
=
 OpenBabel11042410543D

 26 29  0  0  1  0  0  0  0  0999 V2000
  185.7890  178.2400  146.1470 C   0  0  0  0  0  3  0  0  0  0  0  0
  187.3320  177.8940  143.6880 C   0  0  0  0  0  0  0  0  0  0  0  0
  190.1220  177.1280  147.7190 C   0  0  0  0  0  3  0  0  0  0  0  0
  187.0980  178.0170  146.2140 C   0  0  0  0  0  0  0  0  0  0  0  0
  186.0150  178.1300  143.5970 C   0  0  0  0  0  3  0  0  0  0  0  0
  187.8620  177.8160  147.3960 N   0  0  0  0  0  0  0  0  0  0  0  0
  190.2490  177.0110  144.8890 C   0  0  0  0  0  3  0  0  0  0  0  0
  187.9120  177.7910  145.0460 C   0  0  0  0  0  0  0  0  0  0  0  0
  191.3030  176.7270  147.0740 C   0  0  2  0  0  3  0  0  0  0  0  0
  189.0890  177.4270  145.5400 C   0  0  0  0  0  0  0  0  0  0  0  0
  185.0960  178.2930  144.8010 C   0  0  0  0  0  3  0  0  0  0  0  0
  189.0220  177.4700  146.9310 C   0  0  0  0  0  0  0  0  0  0  0  0
  191.3640  176.6640  145.6680 C   0  0  0  0  0  3  0  0  0  0  0  0
  192.4160  176.3850  147.8280 O   0  0  0  0  0  1  0  0  0  0  0  0
  188.0940  177.8190  142.4810 N   0  0  0  0  0  0  0  0  0  0  0  0
  191.7090  176.7530  139.0480 C   0  0  0  0  0  1  0  0  0  0  0  0
  189.7870  177.5840  137.7480 N   0  0  0  0  0  0  0  0  0  0  0  0
  189.5880  177.4510  140.0910 N   0  0  0  0  0  0  0  0  0  0  0  0
  190.3210  177.2770  138.9590 C   0  0  0  0  0  0  0  0  0  0  0  0
  187.5570  178.1190  141.2230 N   0  0  0  0  0  0  0  0  0  0  0  0
  188.5180  178.0620  137.6470 C   0  0  0  0  0  0  0  0  0  0  0  0
  187.7530  178.2530  138.7980 C   0  0  0  0  0  3  0  0  0  0  0  0
  188.3180  177.9330  140.0320 C   0  0  0  0  0  0  0  0  0  0  0  0
  187.9580  178.4120  136.3110 C   0  0  0  0  0  2  0  0  0  0  0  0
  186.7510  177.5470  135.9840 C   0  0  0  0  0  2  0  0  0  0  0  0
  187.1680  176.1760  135.7470 N   0  0  0  0  0  1  0  0  0  0  0  0
  1  4  1  0  0  0  0
  2  8  1  0  0  0  0
  4  6  2  0  0  0  0
  5  2  2  0  0  0  0
  5 11  1  0  0  0  0
  7 10  1  0  0  0  0
  7 13  2  0  0  0  0
  8 10  2  0  0  0  0
  8  4  1  0  0  0  0
  9  3  1  0  0  0  0
  9 14  1  1  0  0  0
 10 12  1  0  0  0  0
 11  1  2  0  0  0  0
 12  6  1  0  0  0  0
 12  3  2  0  0  0  0
 13  9  1  0  0  0  0
 15  2  1  0  0  0  0
 17 19  2  0  0  0  0
 19 16  1  0  0  0  0
 19 18  1  0  0  0  0
 20 15  2  0  0  0  0
 21 17  1  0  0  0  0
 21 22  2  0  0  0  0
 22 23  1  0  0  0  0
 23 18  2  0  0  0  0
 23 20  1  0  0  0  0
 24 21  1  0  0  0  0
 25 24  1  0  0  0  0
 26 25  1  0  0  0  0
M  END
>  <MODEL>
7

>  <REMARK>
 VINA RESULT:      -9.0      2.979      5.071
  Name = 
  4 active torsions:
  status: ('A' for Active; 'I' for Inactive)
    1  A    between atoms: C_2  and  N_4
    2  A    between atoms: N_4  and  N_10
    3  A    between atoms: C_13  and  C_23
    4  A    between atoms: C_17  and  C_23
                            x       y       z     vdW  Elec       q    Type
                         _______ _______ _______ _____ _____    ______ ____

>  <TORSDO>
F 4

$$$$
=
 OpenBabel11042410543D

 26 29  0  0  1  0  0  0  0  0999 V2000
  183.9800  178.7420  145.5720 C   0  0  0  0  0  3  0  0  0  0  0  0
  185.5870  178.5330  143.1390 C   0  0  0  0  0  0  0  0  0  0  0  0
  188.2550  177.4770  147.1870 C   0  0  0  0  0  3  0  0  0  0  0  0
  185.2840  178.4980  145.6600 C   0  0  0  0  0  0  0  0  0  0  0  0
  184.2760  178.7910  143.0270 C   0  0  0  0  0  3  0  0  0  0  0  0
  186.0130  178.2130  146.8470 N   0  0  0  0  0  0  0  0  0  0  0  0
  188.4600  177.5380  144.3600 C   0  0  0  0  0  3  0  0  0  0  0  0
  186.1270  178.3360  144.5020 C   0  0  0  0  0  0  0  0  0  0  0  0
  189.4490  177.1030  146.5500 C   0  0  2  0  0  3  0  0  0  0  0  0
  187.2870  177.9270  145.0050 C   0  0  0  0  0  0  0  0  0  0  0  0
  183.3250  178.8890  144.2130 C   0  0  0  0  0  3  0  0  0  0  0  0
  187.1810  177.8830  146.3930 C   0  0  0  0  0  0  0  0  0  0  0  0
  189.5480  177.1280  145.1450 C   0  0  0  0  0  3  0  0  0  0  0  0
  190.5370  176.6990  147.3110 O   0  0  0  0  0  1  0  0  0  0  0  0
  186.3820  178.5240  141.9500 N   0  0  0  0  0  0  0  0  0  0  0  0
  187.8760  178.6280  137.0770 C   0  0  0  0  0  1  0  0  0  0  0  0
  189.8070  177.7670  138.3430 N   0  0  0  0  0  0  0  0  0  0  0  0
  187.8480  178.3260  139.5230 N   0  0  0  0  0  0  0  0  0  0  0  0
  188.5300  178.2300  138.3510 C   0  0  0  0  0  0  0  0  0  0  0  0
  187.7030  178.0600  141.9230 N   0  0  0  0  0  0  0  0  0  0  0  0
  190.4230  177.3990  139.4990 C   0  0  0  0  0  0  0  0  0  0  0  0
  189.7360  177.4860  140.7100 C   0  0  0  0  0  3  0  0  0  0  0  0
  188.4260  177.9630  140.6990 C   0  0  0  0  0  0  0  0  0  0  0  0
  191.8180  176.8750  139.4660 C   0  0  0  0  0  2  0  0  0  0  0  0
  192.1800  176.3800  138.0740 C   0  0  0  0  0  2  0  0  0  0  0  0
  193.5550  176.7300  137.7620 N   0  0  0  0  0  1  0  0  0  0  0  0
  1  4  1  0  0  0  0
  2  8  1  0  0  0  0
  4  6  2  0  0  0  0
  5  2  2  0  0  0  0
  5 11  1  0  0  0  0
  7 10  1  0  0  0  0
  7 13  2  0  0  0  0
  8 10  2  0  0  0  0
  8  4  1  0  0  0  0
  9  3  1  0  0  0  0
  9 14  1  6  0  0  0
 10 12  1  0  0  0  0
 11  1  2  0  0  0  0
 12  6  1  0  0  0  0
 12  3  2  0  0  0  0
 13  9  1  0  0  0  0
 15  2  1  0  0  0  0
 16 19  1  0  0  0  0
 17 19  2  0  0  0  0
 17 21  1  0  0  0  0
 18 23  2  0  0  0  0
 19 18  1  0  0  0  0
 20 15  2  0  0  0  0
 21 22  2  0  0  0  0
 23 22  1  0  0  0  0
 23 20  1  0  0  0  0
 24 21  1  0  0  0  0
 25 24  1  0  0  0  0
 26 25  1  0  0  0  0
M  END
>  <MODEL>
8

>  <REMARK>
 VINA RESULT:      -8.8      2.284      3.891
  Name = 
  4 active torsions:
  status: ('A' for Active; 'I' for Inactive)
    1  A    between atoms: C_2  and  N_4
    2  A    between atoms: N_4  and  N_10
    3  A    between atoms: C_13  and  C_23
    4  A    between atoms: C_17  and  C_23
                            x       y       z     vdW  Elec       q    Type
                         _______ _______ _______ _____ _____    ______ ____

>  <TORSDO>
F 4

$$$$
=
 OpenBabel11042410543D

 26 29  0  0  0  0  0  0  0  0999 V2000
  189.1600  177.4780  147.2020 C   0  0  0  0  0  3  0  0  0  0  0  0
  187.1370  177.8920  145.1320 C   0  0  0  0  0  0  0  0  0  0  0  0
  191.6810  177.4630  143.1870 C   0  0  0  0  0  3  0  0  0  0  0  0
  189.5320  177.6300  145.9350 C   0  0  0  0  0  0  0  0  0  0  0  0
  186.7400  177.7510  146.4050 C   0  0  0  0  0  3  0  0  0  0  0  0
  190.8530  177.5120  145.4220 N   0  0  0  0  0  0  0  0  0  0  0  0
  188.9650  177.7360  142.4180 C   0  0  0  0  0  3  0  0  0  0  0  0
  188.5870  177.7910  144.8580 C   0  0  0  0  0  0  0  0  0  0  0  0
  191.3240  177.4980  141.8300 C   0  0  0  0  0  0  0  0  0  0  0  0
  189.3350  177.7210  143.7620 C   0  0  0  0  0  0  0  0  0  0  0  0
  187.6890  177.4970  147.5680 C   0  0  0  0  0  2  0  0  0  0  0  0
  190.6680  177.5710  144.1400 C   0  0  0  0  0  0  0  0  0  0  0  0
  189.9740  177.6270  141.4480 C   0  0  0  0  0  3  0  0  0  0  0  0
  192.3080  177.3970  140.8560 O   0  0  0  0  0  1  0  0  0  0  0  0
  186.1500  178.1860  144.1400 N   0  0  0  0  0  0  0  0  0  0  0  0
  183.4170  177.8670  139.8480 C   0  0  0  0  0  1  0  0  0  0  0  0
  181.8520  178.6800  141.5700 N   0  0  0  0  0  0  0  0  0  0  0  0
  184.0810  178.2450  142.1910 N   0  0  0  0  0  0  0  0  0  0  0  0
  183.1070  178.2750  141.2440 C   0  0  0  0  0  0  0  0  0  0  0  0
  184.8480  178.5900  144.4600 N   0  0  0  0  0  0  0  0  0  0  0  0
  181.5490  179.0550  142.8420 C   0  0  0  0  0  0  0  0  0  0  0  0
  182.5380  179.0360  143.8260 C   0  0  0  0  0  3  0  0  0  0  0  0
  183.8200  178.6170  143.4730 C   0  0  0  0  0  0  0  0  0  0  0  0
  180.1710  179.5160  143.1750 C   0  0  0  0  0  2  0  0  0  0  0  0
  179.3790  179.8170  141.9130 C   0  0  0  0  0  2  0  0  0  0  0  0
  179.2640  181.2530  141.7250 N   0  0  0  0  0  1  0  0  0  0  0  0
  1 11  1  0  0  0  0
  2  5  2  0  0  0  0
  3 12  1  0  0  0  0
  4  1  2  0  0  0  0
  5 11  1  0  0  0  0
  6  4  1  0  0  0  0
  7 10  1  0  0  0  0
  8  2  1  0  0  0  0
  8  4  1  0  0  0  0
  9  3  2  0  0  0  0
 10 12  1  0  0  0  0
 10  8  2  0  0  0  0
 12  6  2  0  0  0  0
 13  9  1  0  0  0  0
 13  7  2  0  0  0  0
 14  9  1  0  0  0  0
 15 20  2  0  0  0  0
 15  2  1  0  0  0  0
 16 19  1  0  0  0  0
 17 21  1  0  0  0  0
 18 23  2  0  0  0  0
 19 17  2  0  0  0  0
 19 18  1  0  0  0  0
 21 24  1  0  0  0  0
 21 22  2  0  0  0  0
 23 22  1  0  0  0  0
 23 20  1  0  0  0  0
 25 24  1  0  0  0  0
 26 25  1  0  0  0  0
M  END
>  <MODEL>
9

>  <REMARK>
 VINA RESULT:      -8.8      3.627      7.682
  Name = 
  4 active torsions:
  status: ('A' for Active; 'I' for Inactive)
    1  A    between atoms: C_2  and  N_4
    2  A    between atoms: N_4  and  N_10
    3  A    between atoms: C_13  and  C_23
    4  A    between atoms: C_17  and  C_23
                            x       y       z     vdW  Elec       q    Type
                         _______ _______ _______ _____ _____    ______ ____

>  <TORSDO>
F 4

$$$$
