=
 OpenBabel11032420563D

 47 51  0  0  1  0  0  0  0  0999 V2000
  188.8620  177.6370  139.7340 C   0  0  2  0  0  3  0  0  0  0  0  0
  187.7590  178.0080  141.8760 C   0  0  0  0  0  0  0  0  0  0  0  0
  187.2290  177.5050  142.9600 C   0  0  0  0  0  3  0  0  0  0  0  0
  188.2880  178.5160  140.7960 C   0  0  0  0  0  3  0  0  0  0  0  0
  183.7190  178.8350  143.2410 C   0  0  0  0  0  3  0  0  0  0  0  0
  184.6800  178.7790  145.4590 C   0  0  0  0  0  3  0  0  0  0  0  0
  183.6040  179.0630  144.6150 C   0  0  0  0  0  3  0  0  0  0  0  0
  184.9090  178.3240  142.7110 C   0  0  0  0  0  3  0  0  0  0  0  0
  185.9900  178.0360  143.5530 C   0  0  0  0  0  0  0  0  0  0  0  0
  185.8700  178.2670  144.9320 C   0  0  0  0  0  3  0  0  0  0  0  0
  190.3210  177.6920  139.7590 N   0  0  0  0  0  0  0  0  0  0  0  0
  190.7500  176.6770  140.6010 O   0  0  0  0  0  0  0  0  0  0  0  0
  190.8130  176.4260  139.2680 C   0  0  2  0  0  3  0  0  0  0  0  0
  192.1840  176.5740  138.8030 N   0  0  0  0  0  2  0  0  0  0  0  0
  192.3010  175.9450  137.4910 C   0  0  2  0  0  3  0  0  0  0  0  0
  190.6410  176.4010  135.7270 N   0  0  0  0  0  1  0  0  0  0  0  0
  190.9310  175.5950  136.9020 C   0  0  1  0  0  3  0  0  0  0  0  0
  190.8730  174.2430  136.5740 O   0  0  0  0  0  1  0  0  0  0  0  0
  193.1710  174.7070  137.6030 C   0  0  0  0  0  2  0  0  0  0  0  0
  194.5500  175.0860  137.8790 N   0  0  0  0  0  2  0  0  0  0  0  0
  195.6550  174.2820  137.4540 C   0  0  0  0  0  0  0  0  0  0  0  0
  195.4520  173.2110  136.8120 O   0  0  0  0  0  0  0  0  0  0  0  0
  196.9890  174.7070  137.7610 N   0  0  0  0  0  0  0  0  0  0  0  0
  198.4580  175.3810  139.9600 C   0  0  0  0  0  2  0  0  0  0  0  0
  197.3850  174.9560  138.9670 C   0  0  0  0  0  0  0  0  0  0  0  0
  197.1670  175.0550  140.4700 C   0  0  0  0  0  2  0  0  0  0  0  0
  188.3230  178.0360  138.3850 C   0  0  0  0  0  0  0  0  0  0  0  0
  188.9570  179.0090  137.7360 C   0  0  0  0  0  2  0  0  0  0  0  0
  187.1600  177.3510  137.7670 C   0  0  0  0  0  0  0  0  0  0  0  0
  187.2760  176.1520  137.3860 O   0  0  0  0  0  0  0  0  0  0  0  0
  182.4010  175.9520  137.9760 N   0  0  0  0  0  0  0  0  0  0  0  0
  182.9100  176.8880  138.8410 C   0  0  0  0  0  0  0  0  0  0  0  0
  184.2590  176.1840  136.3980 C   0  0  0  0  0  3  0  0  0  0  0  0
  183.0320  175.5970  136.7990 C   0  0  0  0  0  3  0  0  0  0  0  0
  184.1030  177.4690  138.4790 C   0  0  0  0  0  0  0  0  0  0  0  0
  184.7580  177.1220  137.2780 C   0  0  0  0  0  0  0  0  0  0  0  0
  185.1890  178.4340  138.8150 C   0  0  0  0  0  2  0  0  0  0  0  0
  185.8550  178.0890  137.5700 C   0  0  1  0  0  3  0  0  0  0  0  0
  180.9740  176.5900  140.1650 O   0  0  0  0  0  1  0  0  0  0  0  0
  182.1800  177.2870  140.0780 C   0  0  2  0  0  3  0  0  0  0  0  0
  181.9160  178.7240  140.0430 N   0  0  0  0  0  2  0  0  0  0  0  0
  180.8750  179.0540  139.0630 C   0  0  2  0  0  3  0  0  0  0  0  0
  181.4080  179.9210  137.9570 C   0  0  0  0  0  3  0  0  0  0  0  0
  181.5660  182.4470  138.2100 O   0  0  0  0  0  0  0  0  0  0  0  0
  181.4920  181.2180  138.0810 C   0  0  0  0  0  0  0  0  0  0  0  0
  179.6400  179.6510  139.7370 C   0  0  0  0  0  2  0  0  0  0  0  0
  180.0030  179.9990  141.4860 S   0  0  0  0  0  1  0  0  0  0  0  0
  1 11  1  0  0  0  0
  1  4  1  1  0  0  0
  2  3  2  0  0  0  0
  3  9  1  0  0  0  0
  4  2  2  0  0  0  0
  5  7  1  0  0  0  0
  7  6  2  0  0  0  0
  8  5  2  0  0  0  0
  8  9  1  0  0  0  0
  9 10  2  0  0  0  0
 10  6  1  0  0  0  0
 11 12  1  0  0  0  0
 13 14  1  6  0  0  0
 13 11  1  0  0  0  0
 13 12  1  0  0  0  0
 15 19  1  1  0  0  0
 15 14  1  0  0  0  0
 17 16  1  6  0  0  0
 17 15  1  0  0  0  0
 18 17  1  0  0  0  0
 19 20  1  0  0  0  0
 21 23  1  0  0  0  0
 21 20  1  0  0  0  0
 22 21  2  0  0  0  0
 23 25  2  0  0  0  0
 24 26  1  0  0  0  0
 25 24  1  0  0  0  0
 25 26  1  0  0  0  0
 27  1  1  0  0  0  0
 28 27  2  0  0  0  0
 29 27  1  0  0  0  0
 30 29  2  0  0  0  0
 31 32  1  0  0  0  0
 32 40  1  0  0  0  0
 33 34  1  0  0  0  0
 33 36  2  0  0  0  0
 34 31  2  0  0  0  0
 35 37  1  0  0  0  0
 35 32  2  0  0  0  0
 36 38  1  0  0  0  0
 36 35  1  0  0  0  0
 38 29  1  1  0  0  0
 38 37  1  0  0  0  0
 40 39  1  6  0  0  0
 41 40  1  0  0  0  0
 42 43  1  6  0  0  0
 42 46  1  0  0  0  0
 42 41  1  0  0  0  0
 43 45  2  0  0  0  0
 45 44  2  0  0  0  0
 46 47  1  0  0  0  0
M  END
>  <MODEL>
1

>  <REMARK>
 VINA RESULT:      -7.3      0.000      0.000
  Name = 
  17 active torsions:
  status: ('A' for Active; 'I' for Inactive)
    1  A    between atoms: C_1  and  C_17
    2  A    between atoms: C_1  and  C_23
    3  A    between atoms: C_1  and  N_25
    4  A    between atoms: C_5  and  C_46
    5  A    between atoms: C_7  and  C_19
    6  A    between atoms: N_8  and  C_37
    7  A    between atoms: C_9  and  C_34
    8  A    between atoms: N_11  and  C_34
    9  A    between atoms: N_11  and  C_46
   10  A    between atoms: N_12  and  C_18
   11  A    between atoms: C_13  and  C_35
   12  A    between atoms: C_18  and  C_19
   13  A    between atoms: C_19  and  N_38
   14  A    between atoms: C_23  and  C_28
   15  A    between atoms: C_28  and  C_40
   16  A    between atoms: C_29  and  C_46
   17  A    between atoms: N_38  and  C_47
                            x       y       z     vdW  Elec       q    Type
                         _______ _______ _______ _____ _____    ______ ____

>  <TORSDO>
F 17

$$$$
=
 OpenBabel11032420563D

 47 51  0  0  1  0  0  0  0  0999 V2000
  186.9330  177.5440  142.6670 C   0  0  2  0  0  3  0  0  0  0  0  0
  188.5260  177.5690  144.5120 C   0  0  0  0  0  0  0  0  0  0  0  0
  189.6410  178.0270  145.0170 C   0  0  0  0  0  3  0  0  0  0  0  0
  187.4100  177.1110  144.0140 C   0  0  0  0  0  3  0  0  0  0  0  0
  191.5850  176.5080  147.8600 C   0  0  0  0  0  3  0  0  0  0  0  0
  192.2890  175.4330  145.8120 C   0  0  0  0  0  3  0  0  0  0  0  0
  192.3850  175.5720  147.1980 C   0  0  0  0  0  3  0  0  0  0  0  0
  190.6900  177.3040  147.1360 C   0  0  0  0  0  3  0  0  0  0  0  0
  190.5890  177.1670  145.7470 C   0  0  0  0  0  0  0  0  0  0  0  0
  191.3940  176.2260  145.0860 C   0  0  0  0  0  3  0  0  0  0  0  0
  187.9680  178.3150  141.9820 N   0  0  0  0  0  0  0  0  0  0  0  0
  188.9800  177.4270  141.6480 O   0  0  0  0  0  0  0  0  0  0  0  0
  188.1160  177.7630  140.6560 C   0  0  2  0  0  3  0  0  0  0  0  0
  188.7330  178.7440  139.7760 N   0  0  0  0  0  2  0  0  0  0  0  0
  189.0570  178.0970  138.5090 C   0  0  2  0  0  3  0  0  0  0  0  0
  187.3670  176.7080  137.3700 N   0  0  0  0  0  1  0  0  0  0  0  0
  187.8530  178.0650  137.5610 C   0  0  1  0  0  3  0  0  0  0  0  0
  186.8280  178.8710  138.0500 O   0  0  0  0  0  1  0  0  0  0  0  0
  189.5660  176.6930  138.7770 C   0  0  0  0  0  2  0  0  0  0  0  0
  190.8940  176.5240  138.2010 N   0  0  0  0  0  2  0  0  0  0  0  0
  192.0820  176.8510  138.9300 C   0  0  0  0  0  0  0  0  0  0  0  0
  192.0000  177.2940  140.1120 O   0  0  0  0  0  0  0  0  0  0  0  0
  193.3580  176.6660  138.3060 N   0  0  0  0  0  0  0  0  0  0  0  0
  194.8050  174.6420  137.1850 C   0  0  0  0  0  2  0  0  0  0  0  0
  193.7620  175.5210  137.8600 C   0  0  0  0  0  0  0  0  0  0  0  0
  193.5840  174.0320  137.5980 C   0  0  0  0  0  2  0  0  0  0  0  0
  185.6590  178.3360  142.7980 C   0  0  0  0  0  0  0  0  0  0  0  0
  185.3290  178.7690  144.0120 C   0  0  0  0  0  2  0  0  0  0  0  0
  184.8140  178.6700  141.6230 C   0  0  0  0  0  0  0  0  0  0  0  0
  185.1530  179.6210  140.8650 O   0  0  0  0  0  0  0  0  0  0  0  0
  180.0120  179.9300  141.5770 N   0  0  0  0  0  0  0  0  0  0  0  0
  180.6430  179.4770  140.4460 C   0  0  0  0  0  0  0  0  0  0  0  0
  181.7480  179.0650  143.0720 C   0  0  0  0  0  3  0  0  0  0  0  0
  180.5240  179.7460  142.8470 C   0  0  0  0  0  3  0  0  0  0  0  0
  181.8360  178.8180  140.6340 C   0  0  0  0  0  0  0  0  0  0  0  0
  182.3710  178.6160  141.9250 C   0  0  0  0  0  0  0  0  0  0  0  0
  183.0010  178.1180  140.0210 C   0  0  0  0  0  2  0  0  0  0  0  0
  183.5440  177.8960  141.3510 C   0  0  1  0  0  3  0  0  0  0  0  0
  179.5360  180.9390  138.9550 O   0  0  0  0  0  1  0  0  0  0  0  0
  180.0400  179.6460  139.0930 C   0  0  2  0  0  3  0  0  0  0  0  0
  178.9590  178.6760  138.9200 N   0  0  0  0  0  2  0  0  0  0  0  0
  179.3670  177.5680  138.0490 C   0  0  2  0  0  3  0  0  0  0  0  0
  179.6600  176.3220  138.8370 C   0  0  0  0  0  3  0  0  0  0  0  0
  178.9310  176.0830  141.2620 O   0  0  0  0  0  0  0  0  0  0  0  0
  179.2880  176.1930  140.0820 C   0  0  0  0  0  0  0  0  0  0  0  0
  180.5210  177.9710  137.1330 C   0  0  0  0  0  2  0  0  0  0  0  0
  181.3070  176.4800  136.4450 S   0  0  0  0  0  1  0  0  0  0  0  0
  1 27  1  0  0  0  0
  1  4  1  1  0  0  0
  2  3  2  0  0  0  0
  3  9  1  0  0  0  0
  4  2  2  0  0  0  0
  6  7  2  0  0  0  0
  7  5  1  0  0  0  0
  8  5  2  0  0  0  0
  9  8  1  0  0  0  0
 10  9  2  0  0  0  0
 10  6  1  0  0  0  0
 11  1  1  0  0  0  0
 12 11  1  0  0  0  0
 13 14  1  6  0  0  0
 13 12  1  0  0  0  0
 13 11  1  0  0  0  0
 15 19  1  1  0  0  0
 15 14  1  0  0  0  0
 17 16  1  1  0  0  0
 17 18  1  0  0  0  0
 17 15  1  0  0  0  0
 20 19  1  0  0  0  0
 20 21  1  0  0  0  0
 21 22  2  0  0  0  0
 23 21  1  0  0  0  0
 24 26  1  0  0  0  0
 24 25  1  0  0  0  0
 25 23  2  0  0  0  0
 26 25  1  0  0  0  0
 27 28  2  0  0  0  0
 29 27  1  0  0  0  0
 30 29  2  0  0  0  0
 31 34  1  0  0  0  0
 32 35  1  0  0  0  0
 32 31  2  0  0  0  0
 34 33  2  0  0  0  0
 35 36  2  0  0  0  0
 36 33  1  0  0  0  0
 37 35  1  0  0  0  0
 37 38  1  0  0  0  0
 38 29  1  6  0  0  0
 38 36  1  0  0  0  0
 40 39  1  1  0  0  0
 40 32  1  0  0  0  0
 41 40  1  0  0  0  0
 42 46  1  1  0  0  0
 42 43  1  0  0  0  0
 42 41  1  0  0  0  0
 43 45  2  0  0  0  0
 45 44  2  0  0  0  0
 47 46  1  0  0  0  0
M  END
>  <MODEL>
2

>  <REMARK>
 VINA RESULT:      -7.3      3.024      5.229
  Name = 
  17 active torsions:
  status: ('A' for Active; 'I' for Inactive)
    1  A    between atoms: C_1  and  C_17
    2  A    between atoms: C_1  and  C_23
    3  A    between atoms: C_1  and  N_25
    4  A    between atoms: C_5  and  C_46
    5  A    between atoms: C_7  and  C_19
    6  A    between atoms: N_8  and  C_37
    7  A    between atoms: C_9  and  C_34
    8  A    between atoms: N_11  and  C_34
    9  A    between atoms: N_11  and  C_46
   10  A    between atoms: N_12  and  C_18
   11  A    between atoms: C_13  and  C_35
   12  A    between atoms: C_18  and  C_19
   13  A    between atoms: C_19  and  N_38
   14  A    between atoms: C_23  and  C_28
   15  A    between atoms: C_28  and  C_40
   16  A    between atoms: C_29  and  C_46
   17  A    between atoms: N_38  and  C_47
                            x       y       z     vdW  Elec       q    Type
                         _______ _______ _______ _____ _____    ______ ____

>  <TORSDO>
F 17

$$$$
=
 OpenBabel11032420563D

 47 51  0  0  1  0  0  0  0  0999 V2000
  188.8060  177.6110  139.6080 C   0  0  2  0  0  3  0  0  0  0  0  0
  187.9270  177.8860  141.8640 C   0  0  0  0  0  0  0  0  0  0  0  0
  187.4850  177.3350  142.9640 C   0  0  0  0  0  3  0  0  0  0  0  0
  188.3700  178.4410  140.7700 C   0  0  0  0  0  3  0  0  0  0  0  0
  184.0550  178.7210  143.6670 C   0  0  0  0  0  3  0  0  0  0  0  0
  185.2480  178.5700  145.7650 C   0  0  0  0  0  3  0  0  0  0  0  0
  184.0950  178.9030  145.0520 C   0  0  0  0  0  3  0  0  0  0  0  0
  185.1700  178.2050  142.9960 C   0  0  0  0  0  3  0  0  0  0  0  0
  186.3280  177.8680  143.7050 C   0  0  0  0  0  0  0  0  0  0  0  0
  186.3630  178.0540  145.0960 C   0  0  0  0  0  3  0  0  0  0  0  0
  190.2590  177.6560  139.4650 N   0  0  0  0  0  0  0  0  0  0  0  0
  190.7840  176.7570  140.3820 O   0  0  0  0  0  0  0  0  0  0  0  0
  190.7010  176.3310  139.0950 C   0  0  2  0  0  3  0  0  0  0  0  0
  192.0120  176.4040  138.4670 N   0  0  0  0  0  2  0  0  0  0  0  0
  192.0480  175.4590  137.3550 C   0  0  2  0  0  3  0  0  0  0  0  0
  194.4090  176.0830  137.0080 N   0  0  0  0  0  1  0  0  0  0  0  0
  193.4720  174.9710  137.0680 C   0  0  1  0  0  3  0  0  0  0  0  0
  193.8800  174.0610  138.0400 O   0  0  0  0  0  1  0  0  0  0  0  0
  191.4430  176.1070  136.1240 C   0  0  0  0  0  2  0  0  0  0  0  0
  190.0340  175.7550  136.0140 N   0  0  0  0  0  2  0  0  0  0  0  0
  189.6060  174.5360  135.3970 C   0  0  0  0  0  0  0  0  0  0  0  0
  190.4580  173.7240  134.9350 O   0  0  0  0  0  0  0  0  0  0  0  0
  188.2040  174.2490  135.3150 N   0  0  0  0  0  0  0  0  0  0  0  0
  186.4050  172.5380  136.4470 C   0  0  0  0  0  2  0  0  0  0  0  0
  187.6350  173.3290  136.0230 C   0  0  0  0  0  0  0  0  0  0  0  0
  187.6520  172.2130  137.0590 C   0  0  0  0  0  2  0  0  0  0  0  0
  188.1190  178.0770  138.3510 C   0  0  0  0  0  0  0  0  0  0  0  0
  188.7820  178.9260  137.5700 C   0  0  0  0  0  2  0  0  0  0  0  0
  186.7750  177.5840  137.9590 C   0  0  0  0  0  0  0  0  0  0  0  0
  186.6470  176.4040  137.5260 O   0  0  0  0  0  0  0  0  0  0  0  0
  181.8830  176.7460  138.0950 N   0  0  0  0  0  0  0  0  0  0  0  0
  182.5350  177.3460  139.1430 C   0  0  0  0  0  0  0  0  0  0  0  0
  183.7060  177.1800  136.5190 C   0  0  0  0  0  3  0  0  0  0  0  0
  182.4260  176.6530  136.8280 C   0  0  0  0  0  3  0  0  0  0  0  0
  183.7820  177.8610  138.8720 C   0  0  0  0  0  0  0  0  0  0  0  0
  184.3490  177.7790  137.5830 C   0  0  0  0  0  0  0  0  0  0  0  0
  184.9930  178.5640  139.3820 C   0  0  0  0  0  2  0  0  0  0  0  0
  185.5710  178.4950  138.0490 C   0  0  1  0  0  3  0  0  0  0  0  0
  180.6030  176.9670  140.4510 O   0  0  0  0  0  1  0  0  0  0  0  0
  181.9010  177.4770  140.4860 C   0  0  2  0  0  3  0  0  0  0  0  0
  181.8660  178.8870  140.8700 N   0  0  0  0  0  2  0  0  0  0  0  0
  180.4880  179.3600  141.0460 C   0  0  2  0  0  3  0  0  0  0  0  0
  180.0840  180.3100  139.9530 C   0  0  0  0  0  3  0  0  0  0  0  0
  181.7950  181.2930  138.3490 O   0  0  0  0  0  0  0  0  0  0  0  0
  180.9580  180.8180  139.1260 C   0  0  0  0  0  0  0  0  0  0  0  0
  180.2690  179.9410  142.4420 C   0  0  0  0  0  2  0  0  0  0  0  0
  180.1050  178.5890  143.6490 S   0  0  0  0  0  1  0  0  0  0  0  0
  1  4  1  1  0  0  0
  2  3  2  0  0  0  0
  3  9  1  0  0  0  0
  4  2  2  0  0  0  0
  5  7  1  0  0  0  0
  7  6  2  0  0  0  0
  8  5  2  0  0  0  0
  8  9  1  0  0  0  0
  9 10  2  0  0  0  0
 10  6  1  0  0  0  0
 11  1  1  0  0  0  0
 11 12  1  0  0  0  0
 13 14  1  6  0  0  0
 13 11  1  0  0  0  0
 13 12  1  0  0  0  0
 15 19  1  6  0  0  0
 15 14  1  0  0  0  0
 17 16  1  1  0  0  0
 17 15  1  0  0  0  0
 17 18  1  0  0  0  0
 20 19  1  0  0  0  0
 21 20  1  0  0  0  0
 22 21  2  0  0  0  0
 23 21  1  0  0  0  0
 23 25  2  0  0  0  0
 24 26  1  0  0  0  0
 25 24  1  0  0  0  0
 25 26  1  0  0  0  0
 27  1  1  0  0  0  0
 28 27  2  0  0  0  0
 29 27  1  0  0  0  0
 30 29  2  0  0  0  0
 31 32  1  0  0  0  0
 32 40  1  0  0  0  0
 33 34  1  0  0  0  0
 33 36  2  0  0  0  0
 34 31  2  0  0  0  0
 35 32  2  0  0  0  0
 35 37  1  0  0  0  0
 36 38  1  0  0  0  0
 36 35  1  0  0  0  0
 38 29  1  1  0  0  0
 38 37  1  0  0  0  0
 40 39  1  6  0  0  0
 40 41  1  0  0  0  0
 41 42  1  0  0  0  0
 42 43  1  6  0  0  0
 42 46  1  0  0  0  0
 44 45  2  0  0  0  0
 45 43  2  0  0  0  0
 46 47  1  0  0  0  0
M  END
>  <MODEL>
3

>  <REMARK>
 VINA RESULT:      -7.3      1.668      3.688
  Name = 
  17 active torsions:
  status: ('A' for Active; 'I' for Inactive)
    1  A    between atoms: C_1  and  C_17
    2  A    between atoms: C_1  and  C_23
    3  A    between atoms: C_1  and  N_25
    4  A    between atoms: C_5  and  C_46
    5  A    between atoms: C_7  and  C_19
    6  A    between atoms: N_8  and  C_37
    7  A    between atoms: C_9  and  C_34
    8  A    between atoms: N_11  and  C_34
    9  A    between atoms: N_11  and  C_46
   10  A    between atoms: N_12  and  C_18
   11  A    between atoms: C_13  and  C_35
   12  A    between atoms: C_18  and  C_19
   13  A    between atoms: C_19  and  N_38
   14  A    between atoms: C_23  and  C_28
   15  A    between atoms: C_28  and  C_40
   16  A    between atoms: C_29  and  C_46
   17  A    between atoms: N_38  and  C_47
                            x       y       z     vdW  Elec       q    Type
                         _______ _______ _______ _____ _____    ______ ____

>  <TORSDO>
F 17

$$$$
=
 OpenBabel11032420563D

 47 51  0  0  1  0  0  0  0  0999 V2000
  187.8600  177.6340  140.9270 C   0  0  2  0  0  3  0  0  0  0  0  0
  187.8500  177.0400  143.2910 C   0  0  0  0  0  0  0  0  0  0  0  0
  187.1780  176.8950  144.4020 C   0  0  0  0  0  3  0  0  0  0  0  0
  188.5270  177.1800  142.1840 C   0  0  0  0  0  3  0  0  0  0  0  0
  189.6210  177.5490  147.1910 C   0  0  0  0  0  3  0  0  0  0  0  0
  187.4260  178.2300  147.9420 C   0  0  0  0  0  3  0  0  0  0  0  0
  188.7930  178.0800  148.1830 C   0  0  0  0  0  3  0  0  0  0  0  0
  189.0820  177.1670  145.9580 C   0  0  0  0  0  3  0  0  0  0  0  0
  187.7120  177.3150  145.7100 C   0  0  0  0  0  0  0  0  0  0  0  0
  186.8850  177.8490  146.7100 C   0  0  0  0  0  3  0  0  0  0  0  0
  188.8560  178.0420  139.9400 N   0  0  0  0  0  0  0  0  0  0  0  0
  190.0900  177.6170  140.4090 O   0  0  0  0  0  0  0  0  0  0  0  0
  189.5050  176.8460  139.4560 C   0  0  2  0  0  3  0  0  0  0  0  0
  190.1240  177.1060  138.1650 N   0  0  0  0  0  2  0  0  0  0  0  0
  189.7660  176.0260  137.2510 C   0  0  2  0  0  3  0  0  0  0  0  0
  191.6490  174.5180  137.7620 N   0  0  0  0  0  1  0  0  0  0  0  0
  191.0030  175.2960  136.7170 C   0  0  1  0  0  3  0  0  0  0  0  0
  190.6570  174.4660  135.6540 O   0  0  0  0  0  1  0  0  0  0  0  0
  188.9380  176.5860  136.1090 C   0  0  0  0  0  2  0  0  0  0  0  0
  187.6420  177.0340  136.6030 N   0  0  0  0  0  2  0  0  0  0  0  0
  186.5110  176.1590  136.6610 C   0  0  0  0  0  0  0  0  0  0  0  0
  186.6190  174.9560  136.2840 O   0  0  0  0  0  0  0  0  0  0  0  0
  185.2620  176.6610  137.1520 N   0  0  0  0  0  0  0  0  0  0  0  0
  182.8790  175.6760  138.0460 C   0  0  0  0  0  2  0  0  0  0  0  0
  184.2880  175.8890  137.5100 C   0  0  0  0  0  0  0  0  0  0  0  0
  183.6530  174.5220  137.7240 C   0  0  0  0  0  2  0  0  0  0  0  0
  186.8970  178.7520  141.2270 C   0  0  0  0  0  0  0  0  0  0  0  0
  187.3420  179.7600  141.9720 C   0  0  0  0  0  2  0  0  0  0  0  0
  185.5160  178.7700  140.6810 C   0  0  0  0  0  0  0  0  0  0  0  0
  185.2220  179.5820  139.7590 O   0  0  0  0  0  0  0  0  0  0  0  0
  182.0680  179.2900  144.2150 N   0  0  0  0  0  0  0  0  0  0  0  0
  181.7230  179.0470  142.9100 C   0  0  0  0  0  0  0  0  0  0  0  0
  184.3830  178.5580  143.8940 C   0  0  0  0  0  3  0  0  0  0  0  0
  183.3390  179.0650  144.7090 C   0  0  0  0  0  3  0  0  0  0  0  0
  182.7190  178.5610  142.0950 C   0  0  0  0  0  0  0  0  0  0  0  0
  184.0200  178.3200  142.5850 C   0  0  0  0  0  0  0  0  0  0  0  0
  183.1250  178.1070  140.7340 C   0  0  0  0  0  2  0  0  0  0  0  0
  184.4620  177.8430  141.2430 C   0  0  1  0  0  3  0  0  0  0  0  0
  179.6430  180.1060  143.2810 O   0  0  0  0  0  1  0  0  0  0  0  0
  180.3300  179.2520  142.4190 C   0  0  2  0  0  3  0  0  0  0  0  0
  179.6450  177.9620  142.3550 N   0  0  0  0  0  2  0  0  0  0  0  0
  179.0840  177.7180  141.0220 C   0  0  2  0  0  3  0  0  0  0  0  0
  179.4910  176.3740  140.4860 C   0  0  0  0  0  3  0  0  0  0  0  0
  178.9310  174.2260  141.7280 O   0  0  0  0  0  0  0  0  0  0  0  0
  179.2060  175.2670  141.1190 C   0  0  0  0  0  0  0  0  0  0  0  0
  179.4100  178.8590  140.0590 C   0  0  0  0  0  2  0  0  0  0  0  0
  179.9730  178.1770  138.4680 S   0  0  0  0  0  1  0  0  0  0  0  0
  1 27  1  0  0  0  0
  1  4  1  1  0  0  0
  2  3  2  0  0  0  0
  3  9  1  0  0  0  0
  4  2  2  0  0  0  0
  5  7  1  0  0  0  0
  6  7  2  0  0  0  0
  8  5  2  0  0  0  0
  9  8  1  0  0  0  0
  9 10  2  0  0  0  0
 10  6  1  0  0  0  0
 11 12  1  0  0  0  0
 11  1  1  0  0  0  0
 13 14  1  6  0  0  0
 13 11  1  0  0  0  0
 13 12  1  0  0  0  0
 15 19  1  6  0  0  0
 15 14  1  0  0  0  0
 17 18  1  6  0  0  0
 17 15  1  0  0  0  0
 17 16  1  0  0  0  0
 19 20  1  0  0  0  0
 20 21  1  0  0  0  0
 21 23  1  0  0  0  0
 22 21  2  0  0  0  0
 23 25  2  0  0  0  0
 25 26  1  0  0  0  0
 25 24  1  0  0  0  0
 26 24  1  0  0  0  0
 27 28  2  0  0  0  0
 29 27  1  0  0  0  0
 30 29  2  0  0  0  0
 31 34  1  0  0  0  0
 32 31  2  0  0  0  0
 33 34  2  0  0  0  0
 35 36  2  0  0  0  0
 35 32  1  0  0  0  0
 36 33  1  0  0  0  0
 37 38  1  0  0  0  0
 37 35  1  0  0  0  0
 38 29  1  6  0  0  0
 38 36  1  0  0  0  0
 40 32  1  0  0  0  0
 40 39  1  1  0  0  0
 41 40  1  0  0  0  0
 42 46  1  6  0  0  0
 42 41  1  0  0  0  0
 43 42  1  0  0  0  0
 43 45  2  0  0  0  0
 45 44  2  0  0  0  0
 47 46  1  0  0  0  0
M  END
>  <MODEL>
4

>  <REMARK>
 VINA RESULT:      -7.2      3.015      6.121
  Name = 
  17 active torsions:
  status: ('A' for Active; 'I' for Inactive)
    1  A    between atoms: C_1  and  C_17
    2  A    between atoms: C_1  and  C_23
    3  A    between atoms: C_1  and  N_25
    4  A    between atoms: C_5  and  C_46
    5  A    between atoms: C_7  and  C_19
    6  A    between atoms: N_8  and  C_37
    7  A    between atoms: C_9  and  C_34
    8  A    between atoms: N_11  and  C_34
    9  A    between atoms: N_11  and  C_46
   10  A    between atoms: N_12  and  C_18
   11  A    between atoms: C_13  and  C_35
   12  A    between atoms: C_18  and  C_19
   13  A    between atoms: C_19  and  N_38
   14  A    between atoms: C_23  and  C_28
   15  A    between atoms: C_28  and  C_40
   16  A    between atoms: C_29  and  C_46
   17  A    between atoms: N_38  and  C_47
                            x       y       z     vdW  Elec       q    Type
                         _______ _______ _______ _____ _____    ______ ____

>  <TORSDO>
F 17

$$$$
=
 OpenBabel11032420563D

 47 51  0  0  1  0  0  0  0  0999 V2000
  187.1380  178.2260  140.8880 C   0  0  2  0  0  3  0  0  0  0  0  0
  188.0320  177.6580  143.0830 C   0  0  0  0  0  0  0  0  0  0  0  0
  188.0820  176.8200  144.0850 C   0  0  0  0  0  3  0  0  0  0  0  0
  187.9890  178.4970  142.0840 C   0  0  0  0  0  3  0  0  0  0  0  0
  186.8860  178.2200  147.3690 C   0  0  0  0  0  3  0  0  0  0  0  0
  189.2220  177.6420  147.6060 C   0  0  0  0  0  3  0  0  0  0  0  0
  188.0410  178.1510  148.1510 C   0  0  0  0  0  3  0  0  0  0  0  0
  186.9110  177.7800  146.0400 C   0  0  0  0  0  3  0  0  0  0  0  0
  188.0910  177.2670  145.4890 C   0  0  0  0  0  0  0  0  0  0  0  0
  189.2490  177.2010  146.2790 C   0  0  0  0  0  3  0  0  0  0  0  0
  187.8070  178.6810  139.6720 N   0  0  0  0  0  0  0  0  0  0  0  0
  189.1570  178.4060  139.8250 O   0  0  0  0  0  0  0  0  0  0  0  0
  188.4440  177.5320  139.0700 C   0  0  2  0  0  3  0  0  0  0  0  0
  188.6910  177.7850  137.6590 N   0  0  0  0  0  2  0  0  0  0  0  0
  188.9410  176.5100  136.9940 C   0  0  2  0  0  3  0  0  0  0  0  0
  186.6480  176.6650  136.0990 N   0  0  0  0  0  1  0  0  0  0  0  0
  187.6390  175.7680  136.6740 C   0  0  1  0  0  3  0  0  0  0  0  0
  187.8830  174.7100  135.8020 O   0  0  0  0  0  1  0  0  0  0  0  0
  189.8460  175.6580  137.8640 C   0  0  0  0  0  2  0  0  0  0  0  0
  191.2130  175.7070  137.3640 N   0  0  0  0  0  2  0  0  0  0  0  0
  192.2640  176.3440  138.0990 C   0  0  0  0  0  0  0  0  0  0  0  0
  192.0220  176.8780  139.2190 O   0  0  0  0  0  0  0  0  0  0  0  0
  193.5880  176.3640  137.5510 N   0  0  0  0  0  0  0  0  0  0  0  0
  195.4540  174.5800  136.6670 C   0  0  0  0  0  2  0  0  0  0  0  0
  194.2250  175.2880  137.2200 C   0  0  0  0  0  0  0  0  0  0  0  0
  194.3470  173.7780  137.0740 C   0  0  0  0  0  2  0  0  0  0  0  0
  185.7930  178.8840  141.0500 C   0  0  0  0  0  0  0  0  0  0  0  0
  185.5270  179.4540  142.2220 C   0  0  0  0  0  2  0  0  0  0  0  0
  184.8070  178.9450  139.9410 C   0  0  0  0  0  0  0  0  0  0  0  0
  185.1790  179.3350  138.7990 O   0  0  0  0  0  0  0  0  0  0  0  0
  180.8580  178.5370  136.9600 N   0  0  0  0  0  0  0  0  0  0  0  0
  181.3530  177.4550  137.6430 C   0  0  0  0  0  0  0  0  0  0  0  0
  182.0200  180.1550  138.3840 C   0  0  0  0  0  3  0  0  0  0  0  0
  181.1660  179.8410  137.2960 C   0  0  0  0  0  3  0  0  0  0  0  0
  182.1900  177.7300  138.7000 C   0  0  0  0  0  0  0  0  0  0  0  0
  182.5100  179.0560  139.0600 C   0  0  0  0  0  0  0  0  0  0  0  0
  183.0450  177.2030  139.8010 C   0  0  0  0  0  2  0  0  0  0  0  0
  183.3620  178.5690  140.1830 C   0  0  1  0  0  3  0  0  0  0  0  0
  180.6640  175.3410  138.4460 O   0  0  0  0  0  1  0  0  0  0  0  0
  180.9610  176.0600  137.2880 C   0  0  2  0  0  3  0  0  0  0  0  0
  182.0620  175.4140  136.5760 N   0  0  0  0  0  2  0  0  0  0  0  0
  182.5560  174.2400  137.3050 C   0  0  2  0  0  3  0  0  0  0  0  0
  183.9670  174.4380  137.7840 C   0  0  0  0  0  3  0  0  0  0  0  0
  185.7400  172.6430  137.4690 O   0  0  0  0  0  0  0  0  0  0  0  0
  184.8810  173.5200  137.6250 C   0  0  0  0  0  0  0  0  0  0  0  0
  182.3850  172.9600  136.4880 C   0  0  0  0  0  2  0  0  0  0  0  0
  181.0470  171.9520  137.2000 S   0  0  0  0  0  1  0  0  0  0  0  0
  1 27  1  0  0  0  0
  1  4  1  1  0  0  0
  2  3  2  0  0  0  0
  3  9  1  0  0  0  0
  4  2  2  0  0  0  0
  5  7  1  0  0  0  0
  6  7  2  0  0  0  0
  8  5  2  0  0  0  0
  9  8  1  0  0  0  0
  9 10  2  0  0  0  0
 10  6  1  0  0  0  0
 11 12  1  0  0  0  0
 11  1  1  0  0  0  0
 13 14  1  6  0  0  0
 13 11  1  0  0  0  0
 13 12  1  0  0  0  0
 15 14  1  0  0  0  0
 15 19  1  1  0  0  0
 16 17  1  0  0  0  0
 17 18  1  6  0  0  0
 17 15  1  0  0  0  0
 20 19  1  0  0  0  0
 20 21  1  0  0  0  0
 21 22  2  0  0  0  0
 23 21  1  0  0  0  0
 24 26  1  0  0  0  0
 24 25  1  0  0  0  0
 25 23  2  0  0  0  0
 26 25  1  0  0  0  0
 27 28  2  0  0  0  0
 29 27  1  0  0  0  0
 30 29  2  0  0  0  0
 31 34  2  0  0  0  0
 31 32  1  0  0  0  0
 32 35  2  0  0  0  0
 33 36  2  0  0  0  0
 34 33  1  0  0  0  0
 35 36  1  0  0  0  0
 35 37  1  0  0  0  0
 36 38  1  0  0  0  0
 37 38  1  0  0  0  0
 38 29  1  6  0  0  0
 40 32  1  0  0  0  0
 40 39  1  1  0  0  0
 41 40  1  0  0  0  0
 41 42  1  0  0  0  0
 42 46  1  6  0  0  0
 42 43  1  0  0  0  0
 44 45  2  0  0  0  0
 45 43  2  0  0  0  0
 46 47  1  0  0  0  0
M  END
>  <MODEL>
5

>  <REMARK>
 VINA RESULT:      -7.2      2.703      4.540
  Name = 
  17 active torsions:
  status: ('A' for Active; 'I' for Inactive)
    1  A    between atoms: C_1  and  C_17
    2  A    between atoms: C_1  and  C_23
    3  A    between atoms: C_1  and  N_25
    4  A    between atoms: C_5  and  C_46
    5  A    between atoms: C_7  and  C_19
    6  A    between atoms: N_8  and  C_37
    7  A    between atoms: C_9  and  C_34
    8  A    between atoms: N_11  and  C_34
    9  A    between atoms: N_11  and  C_46
   10  A    between atoms: N_12  and  C_18
   11  A    between atoms: C_13  and  C_35
   12  A    between atoms: C_18  and  C_19
   13  A    between atoms: C_19  and  N_38
   14  A    between atoms: C_23  and  C_28
   15  A    between atoms: C_28  and  C_40
   16  A    between atoms: C_29  and  C_46
   17  A    between atoms: N_38  and  C_47
                            x       y       z     vdW  Elec       q    Type
                         _______ _______ _______ _____ _____    ______ ____

>  <TORSDO>
F 17

$$$$
=
 OpenBabel11032420563D

 47 51  0  0  1  0  0  0  0  0999 V2000
  186.6490  178.4250  144.7080 C   0  0  2  0  0  3  0  0  0  0  0  0
  187.2110  178.1060  142.3580 C   0  0  0  0  0  0  0  0  0  0  0  0
  187.7080  178.5960  141.2530 C   0  0  0  0  0  3  0  0  0  0  0  0
  186.7160  177.6100  143.4590 C   0  0  0  0  0  3  0  0  0  0  0  0
  187.3570  177.6020  137.6390 C   0  0  0  0  0  3  0  0  0  0  0  0
  185.2020  178.3750  138.4170 C   0  0  0  0  0  3  0  0  0  0  0  0
  186.0070  177.8690  137.3950 C   0  0  0  0  0  3  0  0  0  0  0  0
  187.9020  177.8430  138.9050 C   0  0  0  0  0  3  0  0  0  0  0  0
  187.0990  178.3490  139.9350 C   0  0  0  0  0  0  0  0  0  0  0  0
  185.7440  178.6150  139.6840 C   0  0  0  0  0  3  0  0  0  0  0  0
  187.4350  177.8000  145.7690 N   0  0  0  0  0  0  0  0  0  0  0  0
  188.1470  176.7620  145.1870 O   0  0  0  0  0  0  0  0  0  0  0  0
  188.8280  177.9170  145.4050 C   0  0  2  0  0  3  0  0  0  0  0  0
  189.6620  177.7810  146.5900 N   0  0  0  0  0  2  0  0  0  0  0  0
  190.6190  176.7020  146.3640 C   0  0  2  0  0  3  0  0  0  0  0  0
  192.5850  175.5750  147.3350 N   0  0  0  0  0  1  0  0  0  0  0  0
  191.3920  176.3490  147.6390 C   0  0  1  0  0  3  0  0  0  0  0  0
  191.7420  177.5060  148.3310 O   0  0  0  0  0  1  0  0  0  0  0  0
  191.5700  177.0980  145.2500 C   0  0  0  0  0  2  0  0  0  0  0  0
  191.2230  176.3950  144.0220 N   0  0  0  0  0  2  0  0  0  0  0  0
  190.8820  177.0960  142.8210 C   0  0  0  0  0  0  0  0  0  0  0  0
  190.8820  178.3600  142.8010 O   0  0  0  0  0  0  0  0  0  0  0  0
  190.5450  176.3480  141.6460 N   0  0  0  0  0  0  0  0  0  0  0  0
  191.0930  176.3950  138.9730 C   0  0  0  0  0  2  0  0  0  0  0  0
  190.9960  176.6470  140.4710 C   0  0  0  0  0  0  0  0  0  0  0  0
  191.8190  177.4970  139.5140 C   0  0  0  0  0  2  0  0  0  0  0  0
  185.2150  178.6120  145.1280 C   0  0  0  0  0  0  0  0  0  0  0  0
  184.8950  178.2850  146.3770 C   0  0  0  0  0  2  0  0  0  0  0  0
  184.1940  179.1820  144.2130 C   0  0  0  0  0  0  0  0  0  0  0  0
  184.0120  180.4310  144.1850 O   0  0  0  0  0  0  0  0  0  0  0  0
  179.5710  179.4920  142.4280 N   0  0  0  0  0  0  0  0  0  0  0  0
  180.6590  179.4520  141.5930 C   0  0  0  0  0  0  0  0  0  0  0  0
  180.8270  178.6330  144.3470 C   0  0  0  0  0  3  0  0  0  0  0  0
  179.6290  179.1060  143.7540 C   0  0  0  0  0  3  0  0  0  0  0  0
  181.8360  179.0030  142.1440 C   0  0  0  0  0  0  0  0  0  0  0  0
  181.9110  178.6000  143.4950 C   0  0  0  0  0  0  0  0  0  0  0  0
  183.2840  178.7030  141.9540 C   0  0  0  0  0  2  0  0  0  0  0  0
  183.3580  178.2720  143.3400 C   0  0  1  0  0  3  0  0  0  0  0  0
  179.8580  181.0290  140.0250 O   0  0  0  0  0  1  0  0  0  0  0  0
  180.5530  179.8260  140.1530 C   0  0  2  0  0  3  0  0  0  0  0  0
  179.8470  178.7710  139.4290 N   0  0  0  0  0  2  0  0  0  0  0  0
  180.7060  178.1480  138.4160 C   0  0  2  0  0  3  0  0  0  0  0  0
  181.4950  177.0030  138.9860 C   0  0  0  0  0  3  0  0  0  0  0  0
  180.7890  174.5890  138.6130 O   0  0  0  0  0  0  0  0  0  0  0  0
  181.1380  175.7620  138.7970 C   0  0  0  0  0  0  0  0  0  0  0  0
  181.5870  179.1820  137.7170 C   0  0  0  0  0  2  0  0  0  0  0  0
  180.8070  179.6970  136.1550 S   0  0  0  0  0  1  0  0  0  0  0  0
  1  4  1  6  0  0  0
  1 27  1  0  0  0  0
  1 11  1  0  0  0  0
  2  4  2  0  0  0  0
  3  2  2  0  0  0  0
  5  8  1  0  0  0  0
  6 10  2  0  0  0  0
  7  5  2  0  0  0  0
  7  6  1  0  0  0  0
  8  9  2  0  0  0  0
  9  3  1  0  0  0  0
 10  9  1  0  0  0  0
 12 13  1  0  0  0  0
 12 11  1  0  0  0  0
 13 11  1  0  0  0  0
 13 14  1  1  0  0  0
 15 19  1  6  0  0  0
 15 14  1  0  0  0  0
 15 17  1  0  0  0  0
 17 16  1  6  0  0  0
 17 18  1  0  0  0  0
 20 19  1  0  0  0  0
 21 20  1  0  0  0  0
 22 21  2  0  0  0  0
 23 21  1  0  0  0  0
 24 26  1  0  0  0  0
 24 25  1  0  0  0  0
 25 23  2  0  0  0  0
 26 25  1  0  0  0  0
 27 28  2  0  0  0  0
 29 27  1  0  0  0  0
 30 29  2  0  0  0  0
 31 34  1  0  0  0  0
 32 35  1  0  0  0  0
 32 31  2  0  0  0  0
 34 33  2  0  0  0  0
 35 36  2  0  0  0  0
 36 33  1  0  0  0  0
 37 35  1  0  0  0  0
 37 38  1  0  0  0  0
 38 36  1  0  0  0  0
 38 29  1  1  0  0  0
 40 39  1  1  0  0  0
 40 32  1  0  0  0  0
 41 40  1  0  0  0  0
 42 46  1  1  0  0  0
 42 43  1  0  0  0  0
 42 41  1  0  0  0  0
 44 45  2  0  0  0  0
 45 43  2  0  0  0  0
 47 46  1  0  0  0  0
M  END
>  <MODEL>
6

>  <REMARK>
 VINA RESULT:      -7.0      3.605      6.815
  Name = 
  17 active torsions:
  status: ('A' for Active; 'I' for Inactive)
    1  A    between atoms: C_1  and  C_17
    2  A    between atoms: C_1  and  C_23
    3  A    between atoms: C_1  and  N_25
    4  A    between atoms: C_5  and  C_46
    5  A    between atoms: C_7  and  C_19
    6  A    between atoms: N_8  and  C_37
    7  A    between atoms: C_9  and  C_34
    8  A    between atoms: N_11  and  C_34
    9  A    between atoms: N_11  and  C_46
   10  A    between atoms: N_12  and  C_18
   11  A    between atoms: C_13  and  C_35
   12  A    between atoms: C_18  and  C_19
   13  A    between atoms: C_19  and  N_38
   14  A    between atoms: C_23  and  C_28
   15  A    between atoms: C_28  and  C_40
   16  A    between atoms: C_29  and  C_46
   17  A    between atoms: N_38  and  C_47
                            x       y       z     vdW  Elec       q    Type
                         _______ _______ _______ _____ _____    ______ ____

>  <TORSDO>
F 17

$$$$
=
 OpenBabel11032420563D

 47 51  0  0  1  0  0  0  0  0999 V2000
  190.3000  176.6490  138.5590 C   0  0  2  0  0  3  0  0  0  0  0  0
  188.2520  176.5560  137.2410 C   0  0  0  0  0  0  0  0  0  0  0  0
  187.5080  177.0700  136.2980 C   0  0  0  0  0  3  0  0  0  0  0  0
  188.9920  176.0360  138.1820 C   0  0  0  0  0  3  0  0  0  0  0  0
  184.1010  177.6090  137.8060 C   0  0  0  0  0  3  0  0  0  0  0  0
  183.8070  177.0420  135.4740 C   0  0  0  0  0  3  0  0  0  0  0  0
  183.2600  177.3760  136.7140 C   0  0  0  0  0  3  0  0  0  0  0  0
  185.4890  177.5080  137.6570 C   0  0  0  0  0  3  0  0  0  0  0  0
  186.0430  177.1750  136.4160 C   0  0  0  0  0  0  0  0  0  0  0  0
  185.1940  176.9410  135.3220 C   0  0  0  0  0  3  0  0  0  0  0  0
  191.3260  175.6180  138.6960 N   0  0  0  0  0  0  0  0  0  0  0  0
  190.9980  174.6000  137.8130 O   0  0  0  0  0  0  0  0  0  0  0  0
  191.9640  175.4650  137.4090 C   0  0  2  0  0  3  0  0  0  0  0  0
  193.2740  174.8530  137.5750 N   0  0  0  0  0  2  0  0  0  0  0  0
  193.6580  174.2250  136.3150 C   0  0  2  0  0  3  0  0  0  0  0  0
  192.6960  171.9950  135.8930 N   0  0  0  0  0  1  0  0  0  0  0  0
  193.8280  172.7100  136.4610 C   0  0  1  0  0  3  0  0  0  0  0  0
  195.0070  172.2910  135.8490 O   0  0  0  0  0  1  0  0  0  0  0  0
  194.9360  174.8630  135.8040 C   0  0  0  0  0  2  0  0  0  0  0  0
  195.8320  175.1500  136.9170 N   0  0  0  0  0  2  0  0  0  0  0  0
  197.2450  174.9360  136.8250 C   0  0  0  0  0  0  0  0  0  0  0  0
  197.7520  174.4950  135.7540 O   0  0  0  0  0  0  0  0  0  0  0  0
  198.0720  175.2330  137.9560 N   0  0  0  0  0  0  0  0  0  0  0  0
  197.8630  175.2870  140.6770 C   0  0  0  0  0  2  0  0  0  0  0  0
  197.6470  175.1570  139.1750 C   0  0  0  0  0  0  0  0  0  0  0  0
  196.5750  174.8790  140.2200 C   0  0  0  0  0  2  0  0  0  0  0  0
  190.1530  177.4450  139.8280 C   0  0  0  0  0  0  0  0  0  0  0  0
  189.3090  178.4730  139.8110 C   0  0  0  0  0  2  0  0  0  0  0  0
  190.8760  177.0850  141.0740 C   0  0  0  0  0  0  0  0  0  0  0  0
  192.0540  177.5060  141.2530 O   0  0  0  0  0  0  0  0  0  0  0  0
  189.7460  177.7200  145.8660 N   0  0  0  0  0  0  0  0  0  0  0  0
  188.7720  177.5030  144.9240 C   0  0  0  0  0  0  0  0  0  0  0  0
  191.5390  176.8940  144.4170 C   0  0  0  0  0  3  0  0  0  0  0  0
  191.0800  177.4370  145.6440 C   0  0  0  0  0  3  0  0  0  0  0  0
  189.1900  176.9820  143.7220 C   0  0  0  0  0  0  0  0  0  0  0  0
  190.5480  176.6820  143.4810 C   0  0  0  0  0  0  0  0  0  0  0  0
  188.8250  176.5230  142.3520 C   0  0  0  0  0  2  0  0  0  0  0  0
  190.2210  176.1980  142.1090 C   0  0  1  0  0  3  0  0  0  0  0  0
  186.9970  177.2600  146.4660 O   0  0  0  0  0  1  0  0  0  0  0  0
  187.3330  177.7700  145.2120 C   0  0  2  0  0  3  0  0  0  0  0  0
  186.5080  177.1370  144.1850 N   0  0  0  0  0  2  0  0  0  0  0  0
  185.6500  178.1150  143.5080 C   0  0  2  0  0  3  0  0  0  0  0  0
  186.3010  178.6590  142.2670 C   0  0  0  0  0  3  0  0  0  0  0  0
  184.9280  179.7070  140.4000 O   0  0  0  0  0  0  0  0  0  0  0  0
  185.6010  179.1980  141.3050 C   0  0  0  0  0  0  0  0  0  0  0  0
  185.1920  179.2160  144.4640 C   0  0  0  0  0  2  0  0  0  0  0  0
  183.4250  179.0010  144.8450 S   0  0  0  0  0  1  0  0  0  0  0  0
  1  4  1  1  0  0  0
  1 11  1  0  0  0  0
  1 27  1  0  0  0  0
  2  4  2  0  0  0  0
  3  9  1  0  0  0  0
  3  2  2  0  0  0  0
  6  7  1  0  0  0  0
  7  5  2  0  0  0  0
  8  5  1  0  0  0  0
  9  8  2  0  0  0  0
 10  6  2  0  0  0  0
 10  9  1  0  0  0  0
 12 11  1  0  0  0  0
 13 14  1  1  0  0  0
 13 12  1  0  0  0  0
 13 11  1  0  0  0  0
 15 19  1  1  0  0  0
 15 17  1  0  0  0  0
 15 14  1  0  0  0  0
 16 17  1  0  0  0  0
 17 18  1  6  0  0  0
 19 20  1  0  0  0  0
 21 20  1  0  0  0  0
 21 23  1  0  0  0  0
 22 21  2  0  0  0  0
 23 25  2  0  0  0  0
 25 26  1  0  0  0  0
 25 24  1  0  0  0  0
 26 24  1  0  0  0  0
 27 29  1  0  0  0  0
 28 27  2  0  0  0  0
 29 30  2  0  0  0  0
 32 40  1  0  0  0  0
 32 31  2  0  0  0  0
 33 34  2  0  0  0  0
 34 31  1  0  0  0  0
 35 32  1  0  0  0  0
 36 35  2  0  0  0  0
 36 33  1  0  0  0  0
 37 35  1  0  0  0  0
 38 29  1  6  0  0  0
 38 37  1  0  0  0  0
 38 36  1  0  0  0  0
 40 39  1  1  0  0  0
 41 40  1  0  0  0  0
 42 43  1  6  0  0  0
 42 41  1  0  0  0  0
 42 46  1  0  0  0  0
 44 45  2  0  0  0  0
 45 43  2  0  0  0  0
 46 47  1  0  0  0  0
M  END
>  <MODEL>
7

>  <REMARK>
 VINA RESULT:      -6.9      2.717      6.013
  Name = 
  17 active torsions:
  status: ('A' for Active; 'I' for Inactive)
    1  A    between atoms: C_1  and  C_17
    2  A    between atoms: C_1  and  C_23
    3  A    between atoms: C_1  and  N_25
    4  A    between atoms: C_5  and  C_46
    5  A    between atoms: C_7  and  C_19
    6  A    between atoms: N_8  and  C_37
    7  A    between atoms: C_9  and  C_34
    8  A    between atoms: N_11  and  C_34
    9  A    between atoms: N_11  and  C_46
   10  A    between atoms: N_12  and  C_18
   11  A    between atoms: C_13  and  C_35
   12  A    between atoms: C_18  and  C_19
   13  A    between atoms: C_19  and  N_38
   14  A    between atoms: C_23  and  C_28
   15  A    between atoms: C_28  and  C_40
   16  A    between atoms: C_29  and  C_46
   17  A    between atoms: N_38  and  C_47
                            x       y       z     vdW  Elec       q    Type
                         _______ _______ _______ _____ _____    ______ ____

>  <TORSDO>
F 17

$$$$
=
 OpenBabel11032420563D

 47 51  0  0  1  0  0  0  0  0999 V2000
  184.0480  177.5260  138.2780 C   0  0  2  0  0  3  0  0  0  0  0  0
  186.2260  176.8130  137.4480 C   0  0  0  0  0  0  0  0  0  0  0  0
  187.1450  175.8860  137.3790 C   0  0  0  0  0  3  0  0  0  0  0  0
  185.3120  177.7420  137.5120 C   0  0  0  0  0  3  0  0  0  0  0  0
  190.7310  176.4350  136.3710 C   0  0  0  0  0  3  0  0  0  0  0  0
  190.5620  176.7760  138.7590 C   0  0  0  0  0  3  0  0  0  0  0  0
  191.3320  176.7430  137.5940 C   0  0  0  0  0  3  0  0  0  0  0  0
  189.3600  176.1580  136.3130 C   0  0  0  0  0  3  0  0  0  0  0  0
  188.5830  176.1900  137.4770 C   0  0  0  0  0  0  0  0  0  0  0  0
  189.1920  176.5000  138.7030 C   0  0  0  0  0  3  0  0  0  0  0  0
  182.9150  177.3910  137.3660 N   0  0  0  0  0  0  0  0  0  0  0  0
  183.2200  176.3590  136.4910 O   0  0  0  0  0  0  0  0  0  0  0  0
  182.3890  176.0550  137.5210 C   0  0  2  0  0  3  0  0  0  0  0  0
  181.0140  176.0060  137.0460 N   0  0  0  0  0  2  0  0  0  0  0  0
  180.2320  175.1870  137.9660 C   0  0  2  0  0  3  0  0  0  0  0  0
  180.0870  173.8610  135.8920 N   0  0  0  0  0  1  0  0  0  0  0  0
  179.7450  173.8930  137.3050 C   0  0  1  0  0  3  0  0  0  0  0  0
  180.2890  172.7840  137.9490 O   0  0  0  0  0  1  0  0  0  0  0  0
  179.0600  175.9970  138.4900 C   0  0  0  0  0  2  0  0  0  0  0  0
  179.1060  176.0610  139.9440 N   0  0  0  0  0  2  0  0  0  0  0  0
  179.5500  177.2330  140.6360 C   0  0  0  0  0  0  0  0  0  0  0  0
  179.9110  178.2560  139.9850 O   0  0  0  0  0  0  0  0  0  0  0  0
  179.5770  177.2320  142.0690 N   0  0  0  0  0  0  0  0  0  0  0  0
  180.3750  178.8780  144.0940 C   0  0  0  0  0  2  0  0  0  0  0  0
  180.0450  178.2180  142.7620 C   0  0  0  0  0  0  0  0  0  0  0  0
  180.6810  179.5940  142.8990 C   0  0  0  0  0  2  0  0  0  0  0  0
  183.8340  178.6540  139.2520 C   0  0  0  0  0  0  0  0  0  0  0  0
  183.4440  179.8250  138.7570 C   0  0  0  0  0  2  0  0  0  0  0  0
  184.0000  178.4730  140.7170 C   0  0  0  0  0  0  0  0  0  0  0  0
  183.2530  177.6620  141.3310 O   0  0  0  0  0  0  0  0  0  0  0  0
  186.0560  177.9860  145.2090 N   0  0  0  0  0  0  0  0  0  0  0  0
  186.8100  177.9070  144.0650 C   0  0  0  0  0  0  0  0  0  0  0  0
  184.1770  179.0690  144.0730 C   0  0  0  0  0  3  0  0  0  0  0  0
  184.7900  178.5370  145.2360 C   0  0  0  0  0  3  0  0  0  0  0  0
  186.2380  178.4110  142.9200 C   0  0  0  0  0  0  0  0  0  0  0  0
  184.9470  178.9820  142.9320 C   0  0  0  0  0  0  0  0  0  0  0  0
  186.3610  178.6690  141.4570 C   0  0  0  0  0  2  0  0  0  0  0  0
  185.0380  179.2720  141.4720 C   0  0  1  0  0  3  0  0  0  0  0  0
  188.3290  176.3860  143.0830 O   0  0  0  0  0  1  0  0  0  0  0  0
  188.1950  177.3540  144.0790 C   0  0  2  0  0  3  0  0  0  0  0  0
  188.4660  176.7560  145.3850 N   0  0  0  0  0  2  0  0  0  0  0  0
  189.4910  177.5070  146.1160 C   0  0  2  0  0  3  0  0  0  0  0  0
  190.8640  177.2670  145.5520 C   0  0  0  0  0  3  0  0  0  0  0  0
  192.4220  175.5220  146.5490 O   0  0  0  0  0  0  0  0  0  0  0  0
  191.6680  176.3720  146.0590 C   0  0  0  0  0  0  0  0  0  0  0  0
  189.4170  177.2410  147.6190 C   0  0  0  0  0  2  0  0  0  0  0  0
  188.0530  178.2020  148.3460 S   0  0  0  0  0  1  0  0  0  0  0  0
  1  4  1  6  0  0  0
  1 27  1  0  0  0  0
  2  4  2  0  0  0  0
  3  2  2  0  0  0  0
  3  9  1  0  0  0  0
  5  7  1  0  0  0  0
  7  6  2  0  0  0  0
  8  5  2  0  0  0  0
  8  9  1  0  0  0  0
  9 10  2  0  0  0  0
 10  6  1  0  0  0  0
 11 13  1  0  0  0  0
 11  1  1  0  0  0  0
 12 11  1  0  0  0  0
 12 13  1  0  0  0  0
 13 14  1  6  0  0  0
 14 15  1  0  0  0  0
 15 19  1  6  0  0  0
 17 16  1  6  0  0  0
 17 18  1  0  0  0  0
 17 15  1  0  0  0  0
 19 20  1  0  0  0  0
 20 21  1  0  0  0  0
 21 23  1  0  0  0  0
 22 21  2  0  0  0  0
 23 25  2  0  0  0  0
 25 26  1  0  0  0  0
 25 24  1  0  0  0  0
 26 24  1  0  0  0  0
 27 29  1  0  0  0  0
 28 27  2  0  0  0  0
 29 30  2  0  0  0  0
 31 34  1  0  0  0  0
 32 40  1  0  0  0  0
 32 31  2  0  0  0  0
 33 34  2  0  0  0  0
 35 36  2  0  0  0  0
 35 32  1  0  0  0  0
 36 33  1  0  0  0  0
 37 38  1  0  0  0  0
 37 35  1  0  0  0  0
 38 29  1  6  0  0  0
 38 36  1  0  0  0  0
 40 39  1  6  0  0  0
 40 41  1  0  0  0  0
 41 42  1  0  0  0  0
 42 43  1  6  0  0  0
 42 46  1  0  0  0  0
 43 45  2  0  0  0  0
 45 44  2  0  0  0  0
 46 47  1  0  0  0  0
M  END
>  <MODEL>
8

>  <REMARK>
 VINA RESULT:      -6.9      4.553     10.674
  Name = 
  17 active torsions:
  status: ('A' for Active; 'I' for Inactive)
    1  A    between atoms: C_1  and  C_17
    2  A    between atoms: C_1  and  C_23
    3  A    between atoms: C_1  and  N_25
    4  A    between atoms: C_5  and  C_46
    5  A    between atoms: C_7  and  C_19
    6  A    between atoms: N_8  and  C_37
    7  A    between atoms: C_9  and  C_34
    8  A    between atoms: N_11  and  C_34
    9  A    between atoms: N_11  and  C_46
   10  A    between atoms: N_12  and  C_18
   11  A    between atoms: C_13  and  C_35
   12  A    between atoms: C_18  and  C_19
   13  A    between atoms: C_19  and  N_38
   14  A    between atoms: C_23  and  C_28
   15  A    between atoms: C_28  and  C_40
   16  A    between atoms: C_29  and  C_46
   17  A    between atoms: N_38  and  C_47
                            x       y       z     vdW  Elec       q    Type
                         _______ _______ _______ _____ _____    ______ ____

>  <TORSDO>
F 17

$$$$
=
 OpenBabel11032420563D

 47 51  0  0  1  0  0  0  0  0999 V2000
  188.9100  177.4790  138.9400 C   0  0  2  0  0  3  0  0  0  0  0  0
  188.5820  177.6210  141.3510 C   0  0  0  0  0  0  0  0  0  0  0  0
  188.4240  177.0060  142.4940 C   0  0  0  0  0  3  0  0  0  0  0  0
  188.7420  178.2400  140.2140 C   0  0  0  0  0  3  0  0  0  0  0  0
  185.2610  178.3400  144.0400 C   0  0  0  0  0  3  0  0  0  0  0  0
  186.8560  177.9490  145.8140 C   0  0  0  0  0  3  0  0  0  0  0  0
  185.5920  178.3700  145.3970 C   0  0  0  0  0  3  0  0  0  0  0  0
  186.1950  177.8910  143.1000 C   0  0  0  0  0  3  0  0  0  0  0  0
  187.4640  177.4660  143.5120 C   0  0  0  0  0  0  0  0  0  0  0  0
  187.7910  177.4980  144.8770 C   0  0  0  0  0  3  0  0  0  0  0  0
  190.3130  177.1270  138.7360 N   0  0  0  0  0  0  0  0  0  0  0  0
  190.5630  176.0010  139.5060 O   0  0  0  0  0  0  0  0  0  0  0  0
  190.3510  175.7940  138.1810 C   0  0  2  0  0  3  0  0  0  0  0  0
  191.6210  175.5740  137.5070 N   0  0  0  0  0  2  0  0  0  0  0  0
  191.6120  174.2380  136.9200 C   0  0  2  0  0  3  0  0  0  0  0  0
  193.6270  173.9260  135.5330 N   0  0  0  0  0  1  0  0  0  0  0  0
  193.0230  173.6470  136.8260 C   0  0  1  0  0  3  0  0  0  0  0  0
  193.8290  174.1480  137.8440 O   0  0  0  0  0  1  0  0  0  0  0  0
  190.9610  174.2940  135.5500 C   0  0  0  0  0  2  0  0  0  0  0  0
  189.8390  173.3670  135.4910 N   0  0  0  0  0  2  0  0  0  0  0  0
  188.4820  173.8210  135.4760 C   0  0  0  0  0  0  0  0  0  0  0  0
  188.2260  175.0600  135.5060 O   0  0  0  0  0  0  0  0  0  0  0  0
  187.4220  172.8580  135.4210 N   0  0  0  0  0  0  0  0  0  0  0  0
  185.1860  172.2050  136.8420 C   0  0  0  0  0  2  0  0  0  0  0  0
  186.4670  172.8170  136.2910 C   0  0  0  0  0  0  0  0  0  0  0  0
  185.7470  173.3170  137.5360 C   0  0  0  0  0  2  0  0  0  0  0  0
  188.3740  178.2810  137.7830 C   0  0  0  0  0  0  0  0  0  0  0  0
  189.0450  179.3750  137.4340 C   0  0  0  0  0  2  0  0  0  0  0  0
  187.1720  177.8570  137.0200 C   0  0  0  0  0  0  0  0  0  0  0  0
  187.0580  178.1890  135.8070 O   0  0  0  0  0  0  0  0  0  0  0  0
  182.8200  179.0990  139.0600 N   0  0  0  0  0  0  0  0  0  0  0  0
  182.8880  178.2650  137.9720 C   0  0  0  0  0  0  0  0  0  0  0  0
  185.1810  178.7890  139.6310 C   0  0  0  0  0  3  0  0  0  0  0  0
  183.9070  179.3660  139.8690 C   0  0  0  0  0  3  0  0  0  0  0  0
  184.1130  177.6950  137.7150 C   0  0  0  0  0  0  0  0  0  0  0  0
  185.2330  177.9540  138.5340 C   0  0  0  0  0  0  0  0  0  0  0  0
  184.9320  176.8050  136.8430 C   0  0  0  0  0  2  0  0  0  0  0  0
  186.0810  177.0580  137.6970 C   0  0  1  0  0  3  0  0  0  0  0  0
  181.2960  179.0860  136.4290 O   0  0  0  0  0  1  0  0  0  0  0  0
  181.6840  177.9550  137.1480 C   0  0  2  0  0  3  0  0  0  0  0  0
  180.5930  177.5310  138.0250 N   0  0  0  0  0  2  0  0  0  0  0  0
  180.3800  176.0820  137.9520 C   0  0  2  0  0  3  0  0  0  0  0  0
  180.7950  175.3960  139.2240 C   0  0  0  0  0  3  0  0  0  0  0  0
  179.0800  174.3960  140.8130 O   0  0  0  0  0  0  0  0  0  0  0  0
  179.9190  174.8800  140.0430 C   0  0  0  0  0  0  0  0  0  0  0  0
  181.0420  175.4790  136.7140 C   0  0  0  0  0  2  0  0  0  0  0  0
  179.7700  174.7640  135.6260 S   0  0  0  0  0  1  0  0  0  0  0  0
  1  4  1  1  0  0  0
  2  3  2  0  0  0  0
  3  9  1  0  0  0  0
  4  2  2  0  0  0  0
  5  7  1  0  0  0  0
  7  6  2  0  0  0  0
  8  9  1  0  0  0  0
  8  5  2  0  0  0  0
  9 10  2  0  0  0  0
 10  6  1  0  0  0  0
 11  1  1  0  0  0  0
 11 12  1  0  0  0  0
 13 14  1  6  0  0  0
 13 11  1  0  0  0  0
 13 12  1  0  0  0  0
 15 19  1  6  0  0  0
 15 14  1  0  0  0  0
 17 16  1  6  0  0  0
 17 15  1  0  0  0  0
 17 18  1  0  0  0  0
 20 19  1  0  0  0  0
 21 20  1  0  0  0  0
 21 22  2  0  0  0  0
 23 21  1  0  0  0  0
 23 25  2  0  0  0  0
 24 26  1  0  0  0  0
 25 24  1  0  0  0  0
 25 26  1  0  0  0  0
 27  1  1  0  0  0  0
 28 27  2  0  0  0  0
 29 27  1  0  0  0  0
 30 29  2  0  0  0  0
 31 34  1  0  0  0  0
 32 31  2  0  0  0  0
 33 34  2  0  0  0  0
 35 32  1  0  0  0  0
 35 36  2  0  0  0  0
 36 33  1  0  0  0  0
 37 38  1  0  0  0  0
 37 35  1  0  0  0  0
 38 29  1  6  0  0  0
 38 36  1  0  0  0  0
 40 39  1  1  0  0  0
 40 32  1  0  0  0  0
 40 41  1  0  0  0  0
 42 46  1  6  0  0  0
 42 41  1  0  0  0  0
 42 43  1  0  0  0  0
 43 45  2  0  0  0  0
 45 44  2  0  0  0  0
 47 46  1  0  0  0  0
M  END
>  <MODEL>
9

>  <REMARK>
 VINA RESULT:      -6.8      2.648      4.955
  Name = 
  17 active torsions:
  status: ('A' for Active; 'I' for Inactive)
    1  A    between atoms: C_1  and  C_17
    2  A    between atoms: C_1  and  C_23
    3  A    between atoms: C_1  and  N_25
    4  A    between atoms: C_5  and  C_46
    5  A    between atoms: C_7  and  C_19
    6  A    between atoms: N_8  and  C_37
    7  A    between atoms: C_9  and  C_34
    8  A    between atoms: N_11  and  C_34
    9  A    between atoms: N_11  and  C_46
   10  A    between atoms: N_12  and  C_18
   11  A    between atoms: C_13  and  C_35
   12  A    between atoms: C_18  and  C_19
   13  A    between atoms: C_19  and  N_38
   14  A    between atoms: C_23  and  C_28
   15  A    between atoms: C_28  and  C_40
   16  A    between atoms: C_29  and  C_46
   17  A    between atoms: N_38  and  C_47
                            x       y       z     vdW  Elec       q    Type
                         _______ _______ _______ _____ _____    ______ ____

>  <TORSDO>
F 17

$$$$
