=
 OpenBabel11042413333D

 41 46  0  0  1  0  0  0  0  0999 V2000
  191.0530  175.5730  136.4110 C   0  0  0  0  0  0  0  0  0  0  0  0
  192.5390  176.3710  138.2600 S   0  0  0  0  0  0  0  0  0  0  0  0
  188.3920  177.8130  139.7650 N   0  0  0  0  0  0  0  0  0  0  0  0
  193.1970  175.4220  137.0240 C   0  0  0  0  0  0  0  0  0  0  0  0
  187.3470  177.3290  137.7430 C   0  0  2  0  0  3  0  0  0  0  0  0
  189.8190  176.9090  138.0250 C   0  0  0  0  0  0  0  0  0  0  0  0
  189.9040  175.3690  135.6490 C   0  0  0  0  0  3  0  0  0  0  0  0
  192.2710  175.0580  136.1040 N   0  0  0  0  0  0  0  0  0  0  0  0
  191.0050  176.3290  137.5740 C   0  0  0  0  0  0  0  0  0  0  0  0
  187.6010  178.3710  138.7430 N   0  0  0  0  0  2  0  0  0  0  0  0
  189.7680  177.7440  139.2720 C   0  0  0  0  0  2  0  0  0  0  0  0
  188.6530  176.7430  137.2450 C   0  0  0  0  0  0  0  0  0  0  0  0
  188.7010  175.9510  136.0770 C   0  0  0  0  0  3  0  0  0  0  0  0
  194.6150  174.9740  136.9750 C   0  0  0  0  0  2  0  0  0  0  0  0
  195.8360  174.0410  138.5610 C   0  0  0  0  0  1  0  0  0  0  0  0
  195.2360  175.2510  138.1930 O   0  0  0  0  0  0  0  0  0  0  0  0
  186.5270  177.9280  136.6100 C   0  0  0  0  0  2  0  0  0  0  0  0
  185.3990  176.9870  136.2300 C   0  0  0  0  0  2  0  0  0  0  0  0
  183.1050  177.6510  139.1230 C   0  0  0  0  0  3  0  0  0  0  0  0
  183.7730  175.7020  137.6860 C   0  0  0  0  0  0  0  0  0  0  0  0
  184.0560  177.9650  138.1500 C   0  0  0  0  0  3  0  0  0  0  0  0
  182.7400  176.0120  138.9720 S   0  0  0  0  0  0  0  0  0  0  0  0
  184.4320  176.8740  137.3570 C   0  0  0  0  0  0  0  0  0  0  0  0
  183.9530  174.4410  137.0330 N   0  0  0  0  0  2  0  0  0  0  0  0
  186.0980  173.3800  137.3990 C   0  0  0  0  0  1  0  0  0  0  0  0
  184.6070  173.3080  137.6690 C   0  0  2  0  0  3  0  0  0  0  0  0
  182.6560  172.0870  137.0240 O   0  0  0  0  0  1  0  0  0  0  0  0
  184.0470  172.0120  137.1040 C   0  0  0  0  0  2  0  0  0  0  0  0
  188.3830  178.7610  140.8660 C   0  0  0  0  0  2  0  0  0  0  0  0
  186.3700  177.4970  143.6880 N   0  0  0  0  0  0  0  0  0  0  0  0
  188.5450  177.2750  142.8590 C   0  0  0  0  0  3  0  0  0  0  0  0
  187.8560  178.1000  142.0930 C   0  0  0  0  0  0  0  0  0  0  0  0
  186.5150  178.2130  142.6260 C   0  0  0  0  0  0  0  0  0  0  0  0
  187.6310  176.8070  143.9550 C   0  0  1  0  0  3  0  0  0  0  0  0
  185.4230  179.0540  142.0630 C   0  0  0  0  0  1  0  0  0  0  0  0
  187.4200  177.5840  146.3970 C   0  0  0  0  0  3  0  0  0  0  0  0
  188.2870  177.8220  147.3900 N   0  0  0  0  0  0  0  0  0  0  0  0
  187.9350  178.2390  148.6790 N   0  0  0  0  0  1  0  0  0  0  0  0
  188.1630  177.1820  145.3030 C   0  0  0  0  0  0  0  0  0  0  0  0
  189.5430  177.5840  146.9730 C   0  0  0  0  0  3  0  0  0  0  0  0
  189.5040  177.1780  145.6490 C   0  0  0  0  0  3  0  0  0  0  0  0
  1  9  1  0  0  0  0
  3 29  1  0  0  0  0
  4  2  1  0  0  0  0
  5 17  1  6  0  0  0
  5 10  1  0  0  0  0
  6 11  1  0  0  0  0
  7 13  1  0  0  0  0
  7  1  2  0  0  0  0
  8  1  1  0  0  0  0
  8  4  2  0  0  0  0
  9  6  2  0  0  0  0
  9  2  1  0  0  0  0
 10  3  1  0  0  0  0
 11  3  1  0  0  0  0
 12  5  1  0  0  0  0
 12  6  1  0  0  0  0
 13 12  2  0  0  0  0
 14  4  1  0  0  0  0
 14 16  1  0  0  0  0
 16 15  1  0  0  0  0
 18 17  1  0  0  0  0
 18 23  1  0  0  0  0
 20 22  1  0  0  0  0
 21 19  2  0  0  0  0
 22 19  1  0  0  0  0
 23 20  2  0  0  0  0
 23 21  1  0  0  0  0
 24 26  1  0  0  0  0
 24 20  1  0  0  0  0
 26 25  1  6  0  0  0
 27 28  1  0  0  0  0
 28 26  1  0  0  0  0
 29 32  1  0  0  0  0
 30 34  1  0  0  0  0
 31 34  1  0  0  0  0
 32 33  1  0  0  0  0
 32 31  2  0  0  0  0
 33 30  2  0  0  0  0
 34 39  1  1  0  0  0
 35 33  1  0  0  0  0
 36 37  1  0  0  0  0
 37 38  1  0  0  0  0
 39 41  1  0  0  0  0
 39 36  2  0  0  0  0
 40 37  1  0  0  0  0
 41 40  2  0  0  0  0
M  END
>  <MODEL>
1

>  <REMARK>
 VINA RESULT:      -8.1      0.000      0.000
  Name = 
  11 active torsions:
  status: ('A' for Active; 'I' for Inactive)
    1  A    between atoms: N_8  and  C_35
    2  A    between atoms: C_9  and  C_15
    3  A    between atoms: C_12  and  C_29
    4  A    between atoms: C_14  and  N_33
    5  A    between atoms: C_15  and  O_31
    6  A    between atoms: C_17  and  C_35
    7  A    between atoms: CA_20  and  C_27
    8  A    between atoms: CA_20  and  N_33
    9  A    between atoms: C_21  and  C_29
   10  A    between atoms: C_21  and  C_37
   11  A    between atoms: C_22  and  C_38
                            x       y       z     vdW  Elec       q    Type
                         _______ _______ _______ _____ _____    ______ ____

>  <TORSDO>
F 11

$$$$
=
 OpenBabel11042413333D

 41 46  0  0  1  0  0  0  0  0999 V2000
  186.2480  178.6380  140.5760 C   0  0  0  0  0  0  0  0  0  0  0  0
  184.2580  178.0990  139.1570 S   0  0  0  0  0  0  0  0  0  0  0  0
  182.2110  179.2640  143.1560 N   0  0  0  0  0  0  0  0  0  0  0  0
  185.7970  178.1040  138.4540 C   0  0  0  0  0  0  0  0  0  0  0  0
  184.2220  179.2920  144.3260 C   0  0  2  0  0  3  0  0  0  0  0  0
  184.1910  178.7090  141.8710 C   0  0  0  0  0  0  0  0  0  0  0  0
  187.0060  178.9830  141.6940 C   0  0  0  0  0  3  0  0  0  0  0  0
  186.7700  178.4240  139.3410 N   0  0  0  0  0  0  0  0  0  0  0  0
  184.8700  178.5040  140.6700 C   0  0  0  0  0  0  0  0  0  0  0  0
  182.8680  178.7350  144.2840 N   0  0  0  0  0  2  0  0  0  0  0  0
  182.7030  178.5470  141.9790 C   0  0  0  0  0  2  0  0  0  0  0  0
  184.9480  179.0230  143.0220 C   0  0  0  0  0  0  0  0  0  0  0  0
  186.3470  179.1840  142.9170 C   0  0  0  0  0  3  0  0  0  0  0  0
  186.0590  177.8550  137.0100 C   0  0  0  0  0  2  0  0  0  0  0  0
  187.9520  177.7190  135.8810 C   0  0  0  0  0  1  0  0  0  0  0  0
  187.1510  178.6180  136.5930 O   0  0  0  0  0  0  0  0  0  0  0  0
  184.9590  178.6970  145.5160 C   0  0  0  0  0  2  0  0  0  0  0  0
  185.9820  177.6820  145.0410 C   0  0  0  0  0  2  0  0  0  0  0  0
  188.2320  177.8780  148.0370 C   0  0  0  0  0  3  0  0  0  0  0  0
  188.4020  177.2090  145.6220 C   0  0  0  0  0  0  0  0  0  0  0  0
  187.0390  178.0200  147.3260 C   0  0  0  0  0  3  0  0  0  0  0  0
  189.3970  177.2880  146.9700 S   0  0  0  0  0  0  0  0  0  0  0  0
  187.1410  177.6530  145.9770 C   0  0  0  0  0  0  0  0  0  0  0  0
  188.7830  176.7610  144.3170 N   0  0  0  0  0  2  0  0  0  0  0  0
  190.2830  178.4770  143.5020 C   0  0  0  0  0  1  0  0  0  0  0  0
  190.1060  176.9910  143.7570 C   0  0  2  0  0  3  0  0  0  0  0  0
  190.1570  177.1060  141.3710 O   0  0  0  0  0  1  0  0  0  0  0  0
  190.2490  176.2280  142.4510 C   0  0  0  0  0  2  0  0  0  0  0  0
  180.8030  178.9330  143.2970 C   0  0  0  0  0  2  0  0  0  0  0  0
  178.9310  179.1360  140.1250 N   0  0  0  0  0  0  0  0  0  0  0  0
  179.7570  180.5900  141.7590 C   0  0  0  0  0  3  0  0  0  0  0  0
  180.0660  179.3450  142.0700 C   0  0  0  0  0  0  0  0  0  0  0  0
  179.5370  178.4690  141.0460 C   0  0  0  0  0  0  0  0  0  0  0  0
  178.9830  180.5550  140.4710 C   0  0  1  0  0  3  0  0  0  0  0  0
  179.6750  176.9870  141.0130 C   0  0  0  0  0  1  0  0  0  0  0  0
  179.3380  182.5970  138.9490 C   0  0  0  0  0  3  0  0  0  0  0  0
  180.2150  182.9170  137.9880 N   0  0  0  0  0  0  0  0  0  0  0  0
  180.2240  184.1250  137.2810 N   0  0  0  0  0  1  0  0  0  0  0  0
  179.6780  181.3350  139.3990 C   0  0  0  0  0  0  0  0  0  0  0  0
  181.0960  181.9160  137.8150 C   0  0  0  0  0  3  0  0  0  0  0  0
  180.7840  180.8900  138.6930 C   0  0  0  0  0  3  0  0  0  0  0  0
  1  9  2  0  0  0  0
  1  7  1  0  0  0  0
  2  9  1  0  0  0  0
  3 29  1  0  0  0  0
  3 10  1  0  0  0  0
  4  2  1  0  0  0  0
  4  8  2  0  0  0  0
  5 17  1  1  0  0  0
  6 11  1  0  0  0  0
  6 12  2  0  0  0  0
  7 13  2  0  0  0  0
  8  1  1  0  0  0  0
  9  6  1  0  0  0  0
 10  5  1  0  0  0  0
 11  3  1  0  0  0  0
 12  5  1  0  0  0  0
 13 12  1  0  0  0  0
 14  4  1  0  0  0  0
 15 16  1  0  0  0  0
 16 14  1  0  0  0  0
 18 17  1  0  0  0  0
 18 23  1  0  0  0  0
 20 23  2  0  0  0  0
 20 22  1  0  0  0  0
 21 19  2  0  0  0  0
 22 19  1  0  0  0  0
 23 21  1  0  0  0  0
 24 20  1  0  0  0  0
 26 25  1  6  0  0  0
 26 24  1  0  0  0  0
 27 28  1  0  0  0  0
 28 26  1  0  0  0  0
 30 34  1  0  0  0  0
 30 33  2  0  0  0  0
 31 32  2  0  0  0  0
 32 29  1  0  0  0  0
 33 32  1  0  0  0  0
 34 39  1  6  0  0  0
 34 31  1  0  0  0  0
 35 33  1  0  0  0  0
 36 39  2  0  0  0  0
 37 36  1  0  0  0  0
 38 37  1  0  0  0  0
 40 37  1  0  0  0  0
 40 41  2  0  0  0  0
 41 39  1  0  0  0  0
M  END
>  <MODEL>
2

>  <REMARK>
 VINA RESULT:      -7.5      4.293      9.247
  Name = 
  11 active torsions:
  status: ('A' for Active; 'I' for Inactive)
    1  A    between atoms: N_8  and  C_35
    2  A    between atoms: C_9  and  C_15
    3  A    between atoms: C_12  and  C_29
    4  A    between atoms: C_14  and  N_33
    5  A    between atoms: C_15  and  O_31
    6  A    between atoms: C_17  and  C_35
    7  A    between atoms: CA_20  and  C_27
    8  A    between atoms: CA_20  and  N_33
    9  A    between atoms: C_21  and  C_29
   10  A    between atoms: C_21  and  C_37
   11  A    between atoms: C_22  and  C_38
                            x       y       z     vdW  Elec       q    Type
                         _______ _______ _______ _____ _____    ______ ____

>  <TORSDO>
F 11

$$$$
=
 OpenBabel11042413333D

 41 46  0  0  1  0  0  0  0  0999 V2000
  185.5460  178.4490  145.5280 C   0  0  0  0  0  0  0  0  0  0  0  0
  187.8260  177.4150  145.5420 S   0  0  0  0  0  0  0  0  0  0  0  0
  187.3900  178.5480  141.0620 N   0  0  0  0  0  0  0  0  0  0  0  0
  187.0120  177.6430  147.0080 C   0  0  0  0  0  0  0  0  0  0  0  0
  185.1310  179.0630  141.2790 C   0  0  2  0  0  3  0  0  0  0  0  0
  186.4450  178.2550  143.2770 C   0  0  0  0  0  0  0  0  0  0  0  0
  184.3750  179.0340  145.0470 C   0  0  0  0  0  3  0  0  0  0  0  0
  185.7980  178.2210  146.8420 N   0  0  0  0  0  0  0  0  0  0  0  0
  186.5560  178.0690  144.6540 C   0  0  0  0  0  0  0  0  0  0  0  0
  186.1120  178.2600  140.5450 N   0  0  0  0  0  2  0  0  0  0  0  0
  187.5280  177.8280  142.3280 C   0  0  0  0  0  2  0  0  0  0  0  0
  185.2500  178.8130  142.7700 C   0  0  0  0  0  0  0  0  0  0  0  0
  184.2360  179.2220  143.6640 C   0  0  0  0  0  3  0  0  0  0  0  0
  187.5820  177.3120  148.3430 C   0  0  0  0  0  2  0  0  0  0  0  0
  189.4820  178.3340  148.8110 C   0  0  0  0  0  1  0  0  0  0  0  0
  188.0950  178.4670  148.9330 O   0  0  0  0  0  0  0  0  0  0  0  0
  183.7400  178.7320  140.7600 C   0  0  0  0  0  2  0  0  0  0  0  0
  183.7570  178.6430  139.2460 C   0  0  0  0  0  2  0  0  0  0  0  0
  182.1810  175.2600  138.8640 C   0  0  0  0  0  3  0  0  0  0  0  0
  183.9450  176.6320  137.7170 C   0  0  0  0  0  0  0  0  0  0  0  0
  182.3990  176.5060  139.4530 C   0  0  0  0  0  3  0  0  0  0  0  0
  183.2250  175.1260  137.5460 S   0  0  0  0  0  0  0  0  0  0  0  0
  183.3890  177.2650  138.8150 C   0  0  0  0  0  0  0  0  0  0  0  0
  184.9650  177.1810  136.8750 N   0  0  0  0  0  2  0  0  0  0  0  0
  187.0960  178.3220  136.7450 C   0  0  0  0  0  1  0  0  0  0  0  0
  186.3840  177.0500  137.1660 C   0  0  2  0  0  3  0  0  0  0  0  0
  186.9710  174.7340  137.2150 O   0  0  0  0  0  1  0  0  0  0  0  0
  186.9560  175.8670  136.4020 C   0  0  0  0  0  2  0  0  0  0  0  0
  188.3550  177.9750  140.1400 C   0  0  0  0  0  2  0  0  0  0  0  0
  191.8260  177.2140  141.1290 N   0  0  0  0  0  0  0  0  0  0  0  0
  189.9780  178.3570  141.9910 C   0  0  0  0  0  3  0  0  0  0  0  0
  189.6730  177.8300  140.8190 C   0  0  0  0  0  0  0  0  0  0  0  0
  190.8360  177.1360  140.3100 C   0  0  0  0  0  0  0  0  0  0  0  0
  191.4090  178.0070  142.2840 C   0  0  1  0  0  3  0  0  0  0  0  0
  190.9100  176.3960  139.0190 C   0  0  0  0  0  1  0  0  0  0  0  0
  191.6000  177.7070  144.8310 C   0  0  0  0  0  3  0  0  0  0  0  0
  191.6940  176.6530  145.6520 N   0  0  0  0  0  0  0  0  0  0  0  0
  191.7780  176.7300  147.0480 N   0  0  0  0  0  1  0  0  0  0  0  0
  191.5250  177.2070  143.5440 C   0  0  0  0  0  0  0  0  0  0  0  0
  191.6790  175.5110  144.9430 C   0  0  0  0  0  3  0  0  0  0  0  0
  191.5760  175.8240  143.5960 C   0  0  0  0  0  3  0  0  0  0  0  0
  1  8  1  0  0  0  0
  2  4  1  0  0  0  0
  3 11  1  0  0  0  0
  4 14  1  0  0  0  0
  5 17  1  6  0  0  0
  5 12  1  0  0  0  0
  6  9  1  0  0  0  0
  7  1  1  0  0  0  0
  8  4  2  0  0  0  0
  9  1  2  0  0  0  0
  9  2  1  0  0  0  0
 10  3  1  0  0  0  0
 10  5  1  0  0  0  0
 11  6  1  0  0  0  0
 12  6  2  0  0  0  0
 12 13  1  0  0  0  0
 13  7  2  0  0  0  0
 14 16  1  0  0  0  0
 15 16  1  0  0  0  0
 18 17  1  0  0  0  0
 19 21  2  0  0  0  0
 20 23  2  0  0  0  0
 22 20  1  0  0  0  0
 22 19  1  0  0  0  0
 23 18  1  0  0  0  0
 23 21  1  0  0  0  0
 24 26  1  0  0  0  0
 24 20  1  0  0  0  0
 26 25  1  6  0  0  0
 28 26  1  0  0  0  0
 28 27  1  0  0  0  0
 29 32  1  0  0  0  0
 29  3  1  0  0  0  0
 30 34  1  0  0  0  0
 31 34  1  0  0  0  0
 32 31  2  0  0  0  0
 33 32  1  0  0  0  0
 33 30  2  0  0  0  0
 34 39  1  1  0  0  0
 35 33  1  0  0  0  0
 36 37  1  0  0  0  0
 37 38  1  0  0  0  0
 39 41  1  0  0  0  0
 39 36  2  0  0  0  0
 40 37  1  0  0  0  0
 41 40  2  0  0  0  0
M  END
>  <MODEL>
3

>  <REMARK>
 VINA RESULT:      -7.5      3.302      6.715
  Name = 
  11 active torsions:
  status: ('A' for Active; 'I' for Inactive)
    1  A    between atoms: N_8  and  C_35
    2  A    between atoms: C_9  and  C_15
    3  A    between atoms: C_12  and  C_29
    4  A    between atoms: C_14  and  N_33
    5  A    between atoms: C_15  and  O_31
    6  A    between atoms: C_17  and  C_35
    7  A    between atoms: CA_20  and  C_27
    8  A    between atoms: CA_20  and  N_33
    9  A    between atoms: C_21  and  C_29
   10  A    between atoms: C_21  and  C_37
   11  A    between atoms: C_22  and  C_38
                            x       y       z     vdW  Elec       q    Type
                         _______ _______ _______ _____ _____    ______ ____

>  <TORSDO>
F 11

$$$$
=
 OpenBabel11042413333D

 41 46  0  0  1  0  0  0  0  0999 V2000
  191.1070  175.6920  136.3870 C   0  0  0  0  0  0  0  0  0  0  0  0
  192.6970  176.5520  138.1180 S   0  0  0  0  0  0  0  0  0  0  0  0
  188.6170  177.7060  140.0060 N   0  0  0  0  0  0  0  0  0  0  0  0
  193.3010  175.6660  136.8080 C   0  0  0  0  0  0  0  0  0  0  0  0
  187.4300  177.1910  138.0710 C   0  0  2  0  0  3  0  0  0  0  0  0
  189.9390  176.9220  138.1300 C   0  0  0  0  0  0  0  0  0  0  0  0
  189.9100  175.4290  135.7220 C   0  0  0  0  0  3  0  0  0  0  0  0
  192.3220  175.2600  135.9640 N   0  0  0  0  0  0  0  0  0  0  0  0
  191.1140  176.4250  137.5650 C   0  0  0  0  0  0  0  0  0  0  0  0
  187.7070  178.2290  139.0670 N   0  0  0  0  0  2  0  0  0  0  0  0
  189.9460  177.7310  139.3940 C   0  0  0  0  0  2  0  0  0  0  0  0
  188.7220  176.6950  137.4500 C   0  0  0  0  0  0  0  0  0  0  0  0
  188.7160  175.9270  136.2650 C   0  0  0  0  0  3  0  0  0  0  0  0
  194.7340  175.3090  136.6280 C   0  0  0  0  0  2  0  0  0  0  0  0
  194.9770  173.6480  138.0630 C   0  0  0  0  0  1  0  0  0  0  0  0
  195.2980  174.9950  137.8640 O   0  0  0  0  0  0  0  0  0  0  0  0
  186.4800  177.7550  137.0270 C   0  0  0  0  0  2  0  0  0  0  0  0
  185.0500  177.6740  137.5260 C   0  0  0  0  0  2  0  0  0  0  0  0
  184.1530  174.4770  135.7810 C   0  0  0  0  0  3  0  0  0  0  0  0
  183.5060  175.6970  137.8790 C   0  0  0  0  0  0  0  0  0  0  0  0
  184.8120  175.6950  135.9520 C   0  0  0  0  0  3  0  0  0  0  0  0
  183.1220  174.2630  137.0980 S   0  0  0  0  0  0  0  0  0  0  0  0
  184.4420  176.3760  137.1190 C   0  0  0  0  0  0  0  0  0  0  0  0
  182.9640  176.1530  139.1230 N   0  0  0  0  0  2  0  0  0  0  0  0
  181.1860  177.1600  137.8230 C   0  0  0  0  0  1  0  0  0  0  0  0
  181.7970  177.0180  139.2050 C   0  0  2  0  0  3  0  0  0  0  0  0
  182.0190  178.4500  141.1050 O   0  0  0  0  0  1  0  0  0  0  0  0
  182.2100  178.3850  139.7240 C   0  0  0  0  0  2  0  0  0  0  0  0
  188.6470  178.6330  141.1230 C   0  0  0  0  0  2  0  0  0  0  0  0
  185.9450  177.7250  143.4660 N   0  0  0  0  0  0  0  0  0  0  0  0
  188.2320  177.3170  143.1970 C   0  0  0  0  0  3  0  0  0  0  0  0
  187.8020  178.1090  142.2320 C   0  0  0  0  0  0  0  0  0  0  0  0
  186.3850  178.3380  142.4220 C   0  0  0  0  0  0  0  0  0  0  0  0
  187.0560  176.9930  144.0740 C   0  0  1  0  0  3  0  0  0  0  0  0
  185.5180  179.1850  141.5570 C   0  0  0  0  0  1  0  0  0  0  0  0
  188.4870  177.4490  146.1610 C   0  0  0  0  0  3  0  0  0  0  0  0
  188.2440  177.9400  147.3830 N   0  0  0  0  0  0  0  0  0  0  0  0
  189.2080  178.1140  148.3830 N   0  0  0  0  0  1  0  0  0  0  0  0
  187.2840  177.4530  145.4800 C   0  0  0  0  0  0  0  0  0  0  0  0
  186.9430  178.2580  147.5030 C   0  0  0  0  0  3  0  0  0  0  0  0
  186.2990  177.9590  146.3130 C   0  0  0  0  0  3  0  0  0  0  0  0
  1  9  1  0  0  0  0
  3 29  1  0  0  0  0
  4  2  1  0  0  0  0
  5 17  1  6  0  0  0
  5 10  1  0  0  0  0
  6 11  1  0  0  0  0
  7 13  1  0  0  0  0
  7  1  2  0  0  0  0
  8  1  1  0  0  0  0
  8  4  2  0  0  0  0
  9  2  1  0  0  0  0
  9  6  2  0  0  0  0
 10  3  1  0  0  0  0
 11  3  1  0  0  0  0
 12  5  1  0  0  0  0
 12  6  1  0  0  0  0
 13 12  2  0  0  0  0
 14  4  1  0  0  0  0
 14 16  1  0  0  0  0
 16 15  1  0  0  0  0
 17 18  1  0  0  0  0
 19 21  2  0  0  0  0
 19 22  1  0  0  0  0
 20 24  1  0  0  0  0
 21 23  1  0  0  0  0
 22 20  1  0  0  0  0
 23 18  1  0  0  0  0
 23 20  2  0  0  0  0
 24 26  1  0  0  0  0
 26 25  1  6  0  0  0
 26 28  1  0  0  0  0
 28 27  1  0  0  0  0
 29 32  1  0  0  0  0
 30 34  1  0  0  0  0
 31 34  1  0  0  0  0
 32 33  1  0  0  0  0
 32 31  2  0  0  0  0
 33 30  2  0  0  0  0
 34 39  1  1  0  0  0
 35 33  1  0  0  0  0
 36 37  1  0  0  0  0
 37 40  1  0  0  0  0
 37 38  1  0  0  0  0
 39 36  2  0  0  0  0
 39 41  1  0  0  0  0
 41 40  2  0  0  0  0
M  END
>  <MODEL>
4

>  <REMARK>
 VINA RESULT:      -7.5      1.634      2.461
  Name = 
  11 active torsions:
  status: ('A' for Active; 'I' for Inactive)
    1  A    between atoms: N_8  and  C_35
    2  A    between atoms: C_9  and  C_15
    3  A    between atoms: C_12  and  C_29
    4  A    between atoms: C_14  and  N_33
    5  A    between atoms: C_15  and  O_31
    6  A    between atoms: C_17  and  C_35
    7  A    between atoms: CA_20  and  C_27
    8  A    between atoms: CA_20  and  N_33
    9  A    between atoms: C_21  and  C_29
   10  A    between atoms: C_21  and  C_37
   11  A    between atoms: C_22  and  C_38
                            x       y       z     vdW  Elec       q    Type
                         _______ _______ _______ _____ _____    ______ ____

>  <TORSDO>
F 11

$$$$
=
 OpenBabel11042413333D

 41 46  0  0  1  0  0  0  0  0999 V2000
  190.5670  175.7470  138.5010 C   0  0  0  0  0  0  0  0  0  0  0  0
  189.0900  175.1570  136.5700 S   0  0  0  0  0  0  0  0  0  0  0  0
  186.6870  178.6270  138.4990 N   0  0  0  0  0  0  0  0  0  0  0  0
  190.5940  174.3970  136.7210 C   0  0  0  0  0  0  0  0  0  0  0  0
  188.0260  178.6680  140.4020 C   0  0  2  0  0  3  0  0  0  0  0  0
  188.4840  176.9990  138.5640 C   0  0  0  0  0  0  0  0  0  0  0  0
  191.0170  176.3700  139.6650 C   0  0  0  0  0  3  0  0  0  0  0  0
  191.2830  174.8270  137.8060 N   0  0  0  0  0  0  0  0  0  0  0  0
  189.3250  176.0600  137.9680 C   0  0  0  0  0  0  0  0  0  0  0  0
  186.6520  178.5560  139.9050 N   0  0  0  0  0  2  0  0  0  0  0  0
  187.1310  177.3250  138.0000 C   0  0  0  0  0  2  0  0  0  0  0  0
  188.9090  177.6120  139.7640 C   0  0  0  0  0  0  0  0  0  0  0  0
  190.1840  177.3110  140.2890 C   0  0  0  0  0  3  0  0  0  0  0  0
  191.1410  173.4180  135.7440 C   0  0  0  0  0  2  0  0  0  0  0  0
  193.0550  172.3200  135.8330 C   0  0  0  0  0  1  0  0  0  0  0  0
  192.5190  173.5950  135.6220 O   0  0  0  0  0  0  0  0  0  0  0  0
  188.0100  178.5500  141.9180 C   0  0  0  0  0  2  0  0  0  0  0  0
  186.9270  177.5810  142.3540 C   0  0  0  0  0  2  0  0  0  0  0  0
  184.8580  178.7630  145.2520 C   0  0  0  0  0  3  0  0  0  0  0  0
  187.1210  177.7420  144.8750 C   0  0  0  0  0  0  0  0  0  0  0  0
  185.1530  178.5230  143.9090 C   0  0  0  0  0  3  0  0  0  0  0  0
  186.1840  178.2600  146.1660 S   0  0  0  0  0  0  0  0  0  0  0  0
  186.4200  177.9610  143.7020 C   0  0  0  0  0  0  0  0  0  0  0  0
  188.4300  177.1680  144.9590 N   0  0  0  0  0  2  0  0  0  0  0  0
  190.3750  178.5660  144.6050 C   0  0  0  0  0  1  0  0  0  0  0  0
  189.5390  177.8260  145.6330 C   0  0  2  0  0  3  0  0  0  0  0  0
  191.7470  177.1240  146.2210 O   0  0  0  0  0  1  0  0  0  0  0  0
  190.3970  176.7880  146.3380 C   0  0  0  0  0  2  0  0  0  0  0  0
  185.3160  178.8070  138.0540 C   0  0  0  0  0  2  0  0  0  0  0  0
  182.9190  176.9040  140.1150 N   0  0  0  0  0  0  0  0  0  0  0  0
  184.1420  178.8920  140.2500 C   0  0  0  0  0  3  0  0  0  0  0  0
  184.3800  178.2970  139.0960 C   0  0  0  0  0  0  0  0  0  0  0  0
  183.6160  177.0700  139.0440 C   0  0  0  0  0  0  0  0  0  0  0  0
  183.1780  178.0280  141.0130 C   0  0  1  0  0  3  0  0  0  0  0  0
  183.5930  176.1070  137.9080 C   0  0  0  0  0  1  0  0  0  0  0  0
  181.3730  178.9960  142.5680 C   0  0  0  0  0  3  0  0  0  0  0  0
  180.2400  179.6870  142.3840 N   0  0  0  0  0  0  0  0  0  0  0  0
  179.3970  180.1320  143.4090 N   0  0  0  0  0  1  0  0  0  0  0  0
  181.9100  178.7660  141.3160 C   0  0  0  0  0  0  0  0  0  0  0  0
  180.0410  179.9070  141.0720 C   0  0  0  0  0  3  0  0  0  0  0  0
  181.0820  179.3320  140.3610 C   0  0  0  0  0  3  0  0  0  0  0  0
  1  7  1  0  0  0  0
  2  4  1  0  0  0  0
  2  9  1  0  0  0  0
  3 10  1  0  0  0  0
  4  8  2  0  0  0  0
  5 17  1  1  0  0  0
  6 12  2  0  0  0  0
  7 13  2  0  0  0  0
  8  1  1  0  0  0  0
  9  1  2  0  0  0  0
  9  6  1  0  0  0  0
 10  5  1  0  0  0  0
 11  3  1  0  0  0  0
 11  6  1  0  0  0  0
 12 13  1  0  0  0  0
 12  5  1  0  0  0  0
 14  4  1  0  0  0  0
 16 14  1  0  0  0  0
 16 15  1  0  0  0  0
 17 18  1  0  0  0  0
 18 23  1  0  0  0  0
 19 22  1  0  0  0  0
 20 24  1  0  0  0  0
 20 22  1  0  0  0  0
 21 19  2  0  0  0  0
 23 21  1  0  0  0  0
 23 20  2  0  0  0  0
 24 26  1  0  0  0  0
 26 25  1  6  0  0  0
 26 28  1  0  0  0  0
 27 28  1  0  0  0  0
 29  3  1  0  0  0  0
 29 32  1  0  0  0  0
 30 34  1  0  0  0  0
 31 34  1  0  0  0  0
 32 31  2  0  0  0  0
 33 32  1  0  0  0  0
 33 30  2  0  0  0  0
 34 39  1  6  0  0  0
 35 33  1  0  0  0  0
 37 36  1  0  0  0  0
 37 38  1  0  0  0  0
 39 36  2  0  0  0  0
 40 37  1  0  0  0  0
 41 40  2  0  0  0  0
 41 39  1  0  0  0  0
M  END
>  <MODEL>
5

>  <REMARK>
 VINA RESULT:      -7.4      3.217      6.705
  Name = 
  11 active torsions:
  status: ('A' for Active; 'I' for Inactive)
    1  A    between atoms: N_8  and  C_35
    2  A    between atoms: C_9  and  C_15
    3  A    between atoms: C_12  and  C_29
    4  A    between atoms: C_14  and  N_33
    5  A    between atoms: C_15  and  O_31
    6  A    between atoms: C_17  and  C_35
    7  A    between atoms: CA_20  and  C_27
    8  A    between atoms: CA_20  and  N_33
    9  A    between atoms: C_21  and  C_29
   10  A    between atoms: C_21  and  C_37
   11  A    between atoms: C_22  and  C_38
                            x       y       z     vdW  Elec       q    Type
                         _______ _______ _______ _____ _____    ______ ____

>  <TORSDO>
F 11

$$$$
=
 OpenBabel11042413333D

 41 46  0  0  1  0  0  0  0  0999 V2000
  184.4280  178.6150  141.4950 C   0  0  0  0  0  0  0  0  0  0  0  0
  184.8360  179.0890  139.0710 S   0  0  0  0  0  0  0  0  0  0  0  0
  188.9740  177.4330  140.3630 N   0  0  0  0  0  0  0  0  0  0  0  0
  183.2750  179.2750  139.6990 C   0  0  0  0  0  0  0  0  0  0  0  0
  188.4340  177.4880  142.6260 C   0  0  2  0  0  3  0  0  0  0  0  0
  186.7590  178.2610  140.9030 C   0  0  0  0  0  0  0  0  0  0  0  0
  184.6720  178.2500  142.8180 C   0  0  0  0  0  3  0  0  0  0  0  0
  183.2080  178.9730  141.0180 N   0  0  0  0  0  0  0  0  0  0  0  0
  185.4560  178.6190  140.5620 C   0  0  0  0  0  0  0  0  0  0  0  0
  189.3970  177.9260  141.6120 N   0  0  0  0  0  2  0  0  0  0  0  0
  187.8770  178.2820  139.9000 C   0  0  0  0  0  2  0  0  0  0  0  0
  187.0310  177.9220  142.2470 C   0  0  0  0  0  0  0  0  0  0  0  0
  185.9780  177.8940  143.1870 C   0  0  0  0  0  3  0  0  0  0  0  0
  182.0870  179.6610  138.8900 C   0  0  0  0  0  2  0  0  0  0  0  0
  180.6380  181.3140  139.0960 C   0  0  0  0  0  1  0  0  0  0  0  0
  181.0860  180.1490  139.7290 O   0  0  0  0  0  0  0  0  0  0  0  0
  188.8540  178.0480  143.9760 C   0  0  0  0  0  2  0  0  0  0  0  0
  189.0260  176.9210  144.9770 C   0  0  0  0  0  2  0  0  0  0  0  0
  187.5590  178.2280  148.1730 C   0  0  0  0  0  3  0  0  0  0  0  0
  189.8090  177.5200  147.3110 C   0  0  0  0  0  0  0  0  0  0  0  0
  187.5500  177.8200  146.8380 C   0  0  0  0  0  3  0  0  0  0  0  0
  189.1420  178.0920  148.7400 S   0  0  0  0  0  0  0  0  0  0  0  0
  188.8080  177.4330  146.3590 C   0  0  0  0  0  0  0  0  0  0  0  0
  191.1820  177.1760  147.0990 N   0  0  0  0  0  2  0  0  0  0  0  0
  192.7940  175.9980  148.4690 C   0  0  0  0  0  1  0  0  0  0  0  0
  191.7230  175.8590  147.4030 C   0  0  2  0  0  3  0  0  0  0  0  0
  191.9640  176.0040  145.0300 O   0  0  0  0  0  1  0  0  0  0  0  0
  192.3270  175.2520  146.1480 C   0  0  0  0  0  2  0  0  0  0  0  0
  190.0790  177.6260  139.4400 C   0  0  0  0  0  2  0  0  0  0  0  0
  189.2290  176.6040  135.9990 N   0  0  0  0  0  0  0  0  0  0  0  0
  189.9570  175.6080  137.9850 C   0  0  0  0  0  3  0  0  0  0  0  0
  189.8000  176.9060  138.1660 C   0  0  0  0  0  0  0  0  0  0  0  0
  189.3560  177.4950  136.9200 C   0  0  0  0  0  0  0  0  0  0  0  0
  189.6080  175.3060  136.5550 C   0  0  1  0  0  3  0  0  0  0  0  0
  189.0520  178.9350  136.7000 C   0  0  0  0  0  1  0  0  0  0  0  0
  187.1890  174.6180  136.0220 C   0  0  0  0  0  3  0  0  0  0  0  0
  186.4900  173.4780  136.1100 N   0  0  0  0  0  0  0  0  0  0  0  0
  185.1480  173.3300  135.7410 N   0  0  0  0  0  1  0  0  0  0  0  0
  188.4670  174.3400  136.4680 C   0  0  0  0  0  0  0  0  0  0  0  0
  187.2720  172.4930  136.5870 C   0  0  0  0  0  3  0  0  0  0  0  0
  188.5360  173.0050  136.8300 C   0  0  0  0  0  3  0  0  0  0  0  0
  1  7  1  0  0  0  0
  2  4  1  0  0  0  0
  2  9  1  0  0  0  0
  3 10  1  0  0  0  0
  4  8  2  0  0  0  0
  5 17  1  1  0  0  0
  6 12  2  0  0  0  0
  7 13  2  0  0  0  0
  8  1  1  0  0  0  0
  9  6  1  0  0  0  0
  9  1  2  0  0  0  0
 10  5  1  0  0  0  0
 11  3  1  0  0  0  0
 11  6  1  0  0  0  0
 12  5  1  0  0  0  0
 12 13  1  0  0  0  0
 14  4  1  0  0  0  0
 14 16  1  0  0  0  0
 15 16  1  0  0  0  0
 17 18  1  0  0  0  0
 18 23  1  0  0  0  0
 19 22  1  0  0  0  0
 20 22  1  0  0  0  0
 21 19  2  0  0  0  0
 23 21  1  0  0  0  0
 23 20  2  0  0  0  0
 24 20  1  0  0  0  0
 24 26  1  0  0  0  0
 26 25  1  1  0  0  0
 27 28  1  0  0  0  0
 28 26  1  0  0  0  0
 29  3  1  0  0  0  0
 30 34  1  0  0  0  0
 30 33  2  0  0  0  0
 31 32  2  0  0  0  0
 32 29  1  0  0  0  0
 33 32  1  0  0  0  0
 34 39  1  1  0  0  0
 34 31  1  0  0  0  0
 35 33  1  0  0  0  0
 36 37  1  0  0  0  0
 36 39  2  0  0  0  0
 37 40  1  0  0  0  0
 38 37  1  0  0  0  0
 39 41  1  0  0  0  0
 40 41  2  0  0  0  0
M  END
>  <MODEL>
6

>  <REMARK>
 VINA RESULT:      -7.4      3.281      9.811
  Name = 
  11 active torsions:
  status: ('A' for Active; 'I' for Inactive)
    1  A    between atoms: N_8  and  C_35
    2  A    between atoms: C_9  and  C_15
    3  A    between atoms: C_12  and  C_29
    4  A    between atoms: C_14  and  N_33
    5  A    between atoms: C_15  and  O_31
    6  A    between atoms: C_17  and  C_35
    7  A    between atoms: CA_20  and  C_27
    8  A    between atoms: CA_20  and  N_33
    9  A    between atoms: C_21  and  C_29
   10  A    between atoms: C_21  and  C_37
   11  A    between atoms: C_22  and  C_38
                            x       y       z     vdW  Elec       q    Type
                         _______ _______ _______ _____ _____    ______ ____

>  <TORSDO>
F 11

$$$$
=
 OpenBabel11042413333D

 41 46  0  0  1  0  0  0  0  0999 V2000
  190.5020  176.9840  143.4990 C   0  0  0  0  0  0  0  0  0  0  0  0
  188.7950  177.6670  145.1970 S   0  0  0  0  0  0  0  0  0  0  0  0
  186.4180  178.2640  141.2560 N   0  0  0  0  0  0  0  0  0  0  0  0
  190.2730  177.0300  145.7210 C   0  0  0  0  0  0  0  0  0  0  0  0
  188.3050  177.9770  139.9240 C   0  0  2  0  0  3  0  0  0  0  0  0
  188.4970  177.8590  142.4380 C   0  0  0  0  0  0  0  0  0  0  0  0
  191.0990  176.7520  142.2610 C   0  0  0  0  0  3  0  0  0  0  0  0
  191.0870  176.6970  144.6900 N   0  0  0  0  0  0  0  0  0  0  0  0
  189.2280  177.5280  143.5780 C   0  0  0  0  0  0  0  0  0  0  0  0
  187.1840  178.8660  140.2390 N   0  0  0  0  0  2  0  0  0  0  0  0
  187.1260  178.4640  142.5210 C   0  0  0  0  0  2  0  0  0  0  0  0
  189.1010  177.6630  141.1760 C   0  0  0  0  0  0  0  0  0  0  0  0
  190.3870  177.0860  141.0980 C   0  0  0  0  0  3  0  0  0  0  0  0
  190.6250  176.7940  147.1470 C   0  0  0  0  0  2  0  0  0  0  0  0
  192.3840  175.7010  147.9120 C   0  0  0  0  0  1  0  0  0  0  0  0
  192.0050  176.9080  147.3150 O   0  0  0  0  0  0  0  0  0  0  0  0
  189.1650  178.6330  138.8560 C   0  0  0  0  0  2  0  0  0  0  0  0
  188.6150  178.3200  137.4770 C   0  0  0  0  0  2  0  0  0  0  0  0
  187.7350  174.7290  136.8420 C   0  0  0  0  0  3  0  0  0  0  0  0
  189.8110  176.1210  137.0850 C   0  0  0  0  0  0  0  0  0  0  0  0
  187.4840  176.0770  137.0990 C   0  0  0  0  0  3  0  0  0  0  0  0
  189.4070  174.5200  136.7880 S   0  0  0  0  0  0  0  0  0  0  0  0
  188.6450  176.8490  137.2420 C   0  0  0  0  0  0  0  0  0  0  0  0
  191.1360  176.6570  137.1650 N   0  0  0  0  0  2  0  0  0  0  0  0
  193.0320  176.6130  138.6700 C   0  0  0  0  0  1  0  0  0  0  0  0
  192.2840  175.8660  137.5810 C   0  0  2  0  0  3  0  0  0  0  0  0
  194.1960  176.6190  136.3610 O   0  0  0  0  0  1  0  0  0  0  0  0
  193.2050  175.6370  136.3940 C   0  0  0  0  0  2  0  0  0  0  0  0
  185.1750  179.0100  141.3420 C   0  0  0  0  0  2  0  0  0  0  0  0
  182.4130  178.2100  139.0310 N   0  0  0  0  0  0  0  0  0  0  0  0
  184.7260  178.5380  138.9380 C   0  0  0  0  0  3  0  0  0  0  0  0
  184.3040  178.6700  140.1820 C   0  0  0  0  0  0  0  0  0  0  0  0
  182.8710  178.4690  140.2070 C   0  0  0  0  0  0  0  0  0  0  0  0
  183.5270  178.2380  138.0840 C   0  0  1  0  0  3  0  0  0  0  0  0
  182.0070  178.5220  141.4180 C   0  0  0  0  0  1  0  0  0  0  0  0
  183.7450  175.6770  138.0050 C   0  0  0  0  0  3  0  0  0  0  0  0
  183.8650  174.7700  137.0260 N   0  0  0  0  0  0  0  0  0  0  0  0
  183.9600  173.3870  137.2230 N   0  0  0  0  0  1  0  0  0  0  0  0
  183.6680  176.9150  137.3960 C   0  0  0  0  0  0  0  0  0  0  0  0
  183.8620  175.3800  135.8280 C   0  0  0  0  0  3  0  0  0  0  0  0
  183.7420  176.7460  136.0230 C   0  0  0  0  0  3  0  0  0  0  0  0
  1  9  1  0  0  0  0
  1  8  1  0  0  0  0
  2  4  1  0  0  0  0
  3 29  1  0  0  0  0
  3 11  1  0  0  0  0
  4 14  1  0  0  0  0
  5 17  1  6  0  0  0
  5 10  1  0  0  0  0
  5 12  1  0  0  0  0
  6 11  1  0  0  0  0
  6  9  2  0  0  0  0
  7  1  2  0  0  0  0
  8  4  2  0  0  0  0
  9  2  1  0  0  0  0
 10  3  1  0  0  0  0
 12  6  1  0  0  0  0
 13 12  2  0  0  0  0
 13  7  1  0  0  0  0
 14 16  1  0  0  0  0
 16 15  1  0  0  0  0
 18 17  1  0  0  0  0
 19 21  2  0  0  0  0
 20 24  1  0  0  0  0
 20 23  2  0  0  0  0
 21 23  1  0  0  0  0
 22 19  1  0  0  0  0
 22 20  1  0  0  0  0
 23 18  1  0  0  0  0
 24 26  1  0  0  0  0
 26 25  1  1  0  0  0
 27 28  1  0  0  0  0
 28 26  1  0  0  0  0
 30 33  2  0  0  0  0
 31 32  2  0  0  0  0
 32 33  1  0  0  0  0
 32 29  1  0  0  0  0
 33 35  1  0  0  0  0
 34 39  1  1  0  0  0
 34 31  1  0  0  0  0
 34 30  1  0  0  0  0
 37 38  1  0  0  0  0
 37 36  1  0  0  0  0
 39 36  2  0  0  0  0
 40 41  2  0  0  0  0
 40 37  1  0  0  0  0
 41 39  1  0  0  0  0
M  END
>  <MODEL>
7

>  <REMARK>
 VINA RESULT:      -7.4      3.031      7.579
  Name = 
  11 active torsions:
  status: ('A' for Active; 'I' for Inactive)
    1  A    between atoms: N_8  and  C_35
    2  A    between atoms: C_9  and  C_15
    3  A    between atoms: C_12  and  C_29
    4  A    between atoms: C_14  and  N_33
    5  A    between atoms: C_15  and  O_31
    6  A    between atoms: C_17  and  C_35
    7  A    between atoms: CA_20  and  C_27
    8  A    between atoms: CA_20  and  N_33
    9  A    between atoms: C_21  and  C_29
   10  A    between atoms: C_21  and  C_37
   11  A    between atoms: C_22  and  C_38
                            x       y       z     vdW  Elec       q    Type
                         _______ _______ _______ _____ _____    ______ ____

>  <TORSDO>
F 11

$$$$
=
 OpenBabel11042413333D

 41 46  0  0  1  0  0  0  0  0999 V2000
  189.7790  177.4070  140.3130 C   0  0  0  0  0  0  0  0  0  0  0  0
  189.1340  177.2570  137.8990 S   0  0  0  0  0  0  0  0  0  0  0  0
  185.3560  179.2560  139.7080 N   0  0  0  0  0  0  0  0  0  0  0  0
  190.6990  176.8130  138.3650 C   0  0  0  0  0  0  0  0  0  0  0  0
  186.0510  178.8870  141.8980 C   0  0  2  0  0  3  0  0  0  0  0  0
  187.4770  178.1080  139.9660 C   0  0  0  0  0  0  0  0  0  0  0  0
  189.6840  177.6520  141.6820 C   0  0  0  0  0  3  0  0  0  0  0  0
  190.9020  176.9580  139.6970 N   0  0  0  0  0  0  0  0  0  0  0  0
  188.6930  177.6320  139.4780 C   0  0  0  0  0  0  0  0  0  0  0  0
  184.9660  178.6840  140.9340 N   0  0  0  0  0  2  0  0  0  0  0  0
  186.2950  178.3340  139.0680 C   0  0  0  0  0  2  0  0  0  0  0  0
  187.3530  178.3270  141.3560 C   0  0  0  0  0  0  0  0  0  0  0  0
  188.4670  178.1220  142.1980 C   0  0  0  0  0  3  0  0  0  0  0  0
  191.7620  176.3750  137.4200 C   0  0  0  0  0  2  0  0  0  0  0  0
  193.7410  175.3990  137.3600 C   0  0  0  0  0  1  0  0  0  0  0  0
  192.9890  176.3310  138.0830 O   0  0  0  0  0  0  0  0  0  0  0  0
  185.6630  178.2370  143.2170 C   0  0  0  0  0  2  0  0  0  0  0  0
  186.8750  177.5860  143.8550 C   0  0  0  0  0  2  0  0  0  0  0  0
  186.0640  178.6780  147.3500 C   0  0  0  0  0  3  0  0  0  0  0  0
  187.9350  177.5040  146.1540 C   0  0  0  0  0  0  0  0  0  0  0  0
  185.8550  178.5340  145.9780 C   0  0  0  0  0  3  0  0  0  0  0  0
  187.5570  177.9850  147.7170 S   0  0  0  0  0  0  0  0  0  0  0  0
  186.9040  177.8860  145.3130 C   0  0  0  0  0  0  0  0  0  0  0  0
  189.1210  176.8150  145.7470 N   0  0  0  0  0  2  0  0  0  0  0  0
  191.3900  177.0960  144.9510 C   0  0  0  0  0  1  0  0  0  0  0  0
  190.4560  177.2420  146.1380 C   0  0  2  0  0  3  0  0  0  0  0  0
  192.3450  176.4280  147.3540 O   0  0  0  0  0  1  0  0  0  0  0  0
  190.9520  176.3800  147.2870 C   0  0  0  0  0  2  0  0  0  0  0  0
  184.1690  179.3020  138.8710 C   0  0  0  0  0  2  0  0  0  0  0  0
  182.8560  175.9170  138.2180 N   0  0  0  0  0  0  0  0  0  0  0  0
  184.4180  177.3910  137.2930 C   0  0  0  0  0  3  0  0  0  0  0  0
  183.8630  177.9370  138.3600 C   0  0  0  0  0  0  0  0  0  0  0  0
  182.8990  177.0060  138.9050 C   0  0  0  0  0  0  0  0  0  0  0  0
  183.7990  176.0340  137.1080 C   0  0  1  0  0  3  0  0  0  0  0  0
  182.0620  177.2320  140.1160 C   0  0  0  0  0  1  0  0  0  0  0  0
  186.1680  175.0700  136.8430 C   0  0  0  0  0  3  0  0  0  0  0  0
  186.7280  173.8710  137.0510 N   0  0  0  0  0  0  0  0  0  0  0  0
  188.0800  173.5710  136.8440 N   0  0  0  0  0  1  0  0  0  0  0  0
  184.8320  174.9520  137.1770 C   0  0  0  0  0  0  0  0  0  0  0  0
  185.8060  173.0030  137.5040 C   0  0  0  0  0  3  0  0  0  0  0  0
  184.5860  173.6550  137.5940 C   0  0  0  0  0  3  0  0  0  0  0  0
  1  7  1  0  0  0  0
  2  4  1  0  0  0  0
  2  9  1  0  0  0  0
  3 10  1  0  0  0  0
  4  8  2  0  0  0  0
  5 17  1  1  0  0  0
  6 12  2  0  0  0  0
  7 13  2  0  0  0  0
  8  1  1  0  0  0  0
  9  6  1  0  0  0  0
  9  1  2  0  0  0  0
 10  5  1  0  0  0  0
 11  3  1  0  0  0  0
 11  6  1  0  0  0  0
 12  5  1  0  0  0  0
 12 13  1  0  0  0  0
 14 16  1  0  0  0  0
 14  4  1  0  0  0  0
 15 16  1  0  0  0  0
 17 18  1  0  0  0  0
 18 23  1  0  0  0  0
 19 22  1  0  0  0  0
 20 22  1  0  0  0  0
 21 19  2  0  0  0  0
 23 21  1  0  0  0  0
 23 20  2  0  0  0  0
 24 26  1  0  0  0  0
 24 20  1  0  0  0  0
 26 25  1  6  0  0  0
 26 28  1  0  0  0  0
 28 27  1  0  0  0  0
 29  3  1  0  0  0  0
 30 33  2  0  0  0  0
 31 32  2  0  0  0  0
 32 29  1  0  0  0  0
 32 33  1  0  0  0  0
 33 35  1  0  0  0  0
 34 39  1  1  0  0  0
 34 31  1  0  0  0  0
 34 30  1  0  0  0  0
 36 37  1  0  0  0  0
 36 39  2  0  0  0  0
 37 40  1  0  0  0  0
 38 37  1  0  0  0  0
 39 41  1  0  0  0  0
 40 41  2  0  0  0  0
M  END
>  <MODEL>
8

>  <REMARK>
 VINA RESULT:      -7.4      2.803      7.728
  Name = 
  11 active torsions:
  status: ('A' for Active; 'I' for Inactive)
    1  A    between atoms: N_8  and  C_35
    2  A    between atoms: C_9  and  C_15
    3  A    between atoms: C_12  and  C_29
    4  A    between atoms: C_14  and  N_33
    5  A    between atoms: C_15  and  O_31
    6  A    between atoms: C_17  and  C_35
    7  A    between atoms: CA_20  and  C_27
    8  A    between atoms: CA_20  and  N_33
    9  A    between atoms: C_21  and  C_29
   10  A    between atoms: C_21  and  C_37
   11  A    between atoms: C_22  and  C_38
                            x       y       z     vdW  Elec       q    Type
                         _______ _______ _______ _____ _____    ______ ____

>  <TORSDO>
F 11

$$$$
=
 OpenBabel11042413333D

 41 46  0  0  1  0  0  0  0  0999 V2000
  185.4650  178.5770  145.1510 C   0  0  0  0  0  0  0  0  0  0  0  0
  187.7110  177.4740  145.1140 S   0  0  0  0  0  0  0  0  0  0  0  0
  187.2130  178.6280  140.6460 N   0  0  0  0  0  0  0  0  0  0  0  0
  186.9380  177.7230  146.5980 C   0  0  0  0  0  0  0  0  0  0  0  0
  184.9760  179.2120  140.9140 C   0  0  2  0  0  3  0  0  0  0  0  0
  186.3080  178.3600  142.8810 C   0  0  0  0  0  0  0  0  0  0  0  0
  184.3030  179.1990  144.6970 C   0  0  0  0  0  3  0  0  0  0  0  0
  185.7390  178.3390  146.4590 N   0  0  0  0  0  0  0  0  0  0  0  0
  186.4430  178.1680  144.2550 C   0  0  0  0  0  0  0  0  0  0  0  0
  185.9160  178.3800  140.1570 N   0  0  0  0  0  2  0  0  0  0  0  0
  187.3560  177.9010  141.9080 C   0  0  0  0  0  2  0  0  0  0  0  0
  185.1200  178.9560  142.4010 C   0  0  0  0  0  0  0  0  0  0  0  0
  184.1390  179.3940  143.3170 C   0  0  0  0  0  3  0  0  0  0  0  0
  187.5260  177.3730  147.9190 C   0  0  0  0  0  2  0  0  0  0  0  0
  189.3260  178.2530  148.8460 C   0  0  0  0  0  1  0  0  0  0  0  0
  187.9870  178.5290  148.5490 O   0  0  0  0  0  0  0  0  0  0  0  0
  183.5650  178.9250  140.4250 C   0  0  0  0  0  2  0  0  0  0  0  0
  183.2330  177.4570  140.6220 C   0  0  0  0  0  2  0  0  0  0  0  0
  181.0110  176.1620  137.8920 C   0  0  0  0  0  3  0  0  0  0  0  0
  180.7550  177.2350  140.1480 C   0  0  0  0  0  0  0  0  0  0  0  0
  182.2230  176.4730  138.5100 C   0  0  0  0  0  3  0  0  0  0  0  0
  179.7690  176.6410  138.9270 S   0  0  0  0  0  0  0  0  0  0  0  0
  182.0750  177.0790  139.7650 C   0  0  0  0  0  0  0  0  0  0  0  0
  180.3160  177.8100  141.3830 N   0  0  0  0  0  2  0  0  0  0  0  0
  180.0630  180.0400  140.4760 C   0  0  0  0  0  1  0  0  0  0  0  0
  179.5060  179.0170  141.4490 C   0  0  2  0  0  3  0  0  0  0  0  0
  180.0550  180.8780  142.8440 O   0  0  0  0  0  1  0  0  0  0  0  0
  179.5420  179.5810  142.8600 C   0  0  0  0  0  2  0  0  0  0  0  0
  188.1390  178.0260  139.7020 C   0  0  0  0  0  2  0  0  0  0  0  0
  191.5780  177.0820  140.6480 N   0  0  0  0  0  0  0  0  0  0  0  0
  189.8380  178.4020  141.4850 C   0  0  0  0  0  3  0  0  0  0  0  0
  189.4630  177.8290  140.3560 C   0  0  0  0  0  0  0  0  0  0  0  0
  190.5600  177.0260  139.8600 C   0  0  0  0  0  0  0  0  0  0  0  0
  191.2510  177.9710  141.7620 C   0  0  1  0  0  3  0  0  0  0  0  0
  190.5450  176.2070  138.6170 C   0  0  0  0  0  1  0  0  0  0  0  0
  191.5130  177.8090  144.3150 C   0  0  0  0  0  3  0  0  0  0  0  0
  191.5520  176.8030  145.1980 N   0  0  0  0  0  0  0  0  0  0  0  0
  191.6940  176.9560  146.5820 N   0  0  0  0  0  1  0  0  0  0  0  0
  191.3490  177.2410  143.0660 C   0  0  0  0  0  0  0  0  0  0  0  0
  191.4150  175.6260  144.5630 C   0  0  0  0  0  3  0  0  0  0  0  0
  191.2870  175.8640  143.2040 C   0  0  0  0  0  3  0  0  0  0  0  0
  1  8  1  0  0  0  0
  2  4  1  0  0  0  0
  3 11  1  0  0  0  0
  4 14  1  0  0  0  0
  5 17  1  6  0  0  0
  5 12  1  0  0  0  0
  6  9  1  0  0  0  0
  7  1  1  0  0  0  0
  8  4  2  0  0  0  0
  9  2  1  0  0  0  0
  9  1  2  0  0  0  0
 10  3  1  0  0  0  0
 10  5  1  0  0  0  0
 11  6  1  0  0  0  0
 12  6  2  0  0  0  0
 12 13  1  0  0  0  0
 13  7  2  0  0  0  0
 14 16  1  0  0  0  0
 16 15  1  0  0  0  0
 17 18  1  0  0  0  0
 19 21  2  0  0  0  0
 19 22  1  0  0  0  0
 20 24  1  0  0  0  0
 21 23  1  0  0  0  0
 22 20  1  0  0  0  0
 23 20  2  0  0  0  0
 23 18  1  0  0  0  0
 24 26  1  0  0  0  0
 26 25  1  6  0  0  0
 26 28  1  0  0  0  0
 27 28  1  0  0  0  0
 29 32  1  0  0  0  0
 29  3  1  0  0  0  0
 30 34  1  0  0  0  0
 31 34  1  0  0  0  0
 32 31  2  0  0  0  0
 33 32  1  0  0  0  0
 33 30  2  0  0  0  0
 34 39  1  1  0  0  0
 35 33  1  0  0  0  0
 36 37  1  0  0  0  0
 37 38  1  0  0  0  0
 39 41  1  0  0  0  0
 39 36  2  0  0  0  0
 40 37  1  0  0  0  0
 41 40  2  0  0  0  0
M  END
>  <MODEL>
9

>  <REMARK>
 VINA RESULT:      -7.3      4.119      7.281
  Name = 
  11 active torsions:
  status: ('A' for Active; 'I' for Inactive)
    1  A    between atoms: N_8  and  C_35
    2  A    between atoms: C_9  and  C_15
    3  A    between atoms: C_12  and  C_29
    4  A    between atoms: C_14  and  N_33
    5  A    between atoms: C_15  and  O_31
    6  A    between atoms: C_17  and  C_35
    7  A    between atoms: CA_20  and  C_27
    8  A    between atoms: CA_20  and  N_33
    9  A    between atoms: C_21  and  C_29
   10  A    between atoms: C_21  and  C_37
   11  A    between atoms: C_22  and  C_38
                            x       y       z     vdW  Elec       q    Type
                         _______ _______ _______ _____ _____    ______ ____

>  <TORSDO>
F 11

$$$$
