=
 OpenBabel11032420573D

 47 52  0  0  1  0  0  0  0  0999 V2000
  188.4760  177.4450  138.0490 C   0  0  0  0  0  0  0  0  0  0  0  0
  188.6230  177.3200  135.7970 N   0  0  0  0  0  0  0  0  0  0  0  0
  190.7250  176.7380  138.6870 C   0  0  0  0  0  0  0  0  0  0  0  0
  188.9200  177.4260  141.7950 C   0  0  0  0  0  3  0  0  0  0  0  0
  190.1220  177.0590  142.2480 C   0  0  0  0  0  0  0  0  0  0  0  0
  189.7380  176.9950  137.7150 C   0  0  0  0  0  0  0  0  0  0  0  0
  190.3250  176.9400  140.0270 C   0  0  0  0  0  0  0  0  0  0  0  0
  188.0750  177.6380  139.3780 C   0  0  0  0  0  3  0  0  0  0  0  0
  189.0430  177.3600  140.3510 C   0  0  0  0  0  0  0  0  0  0  0  0
  187.8090  177.6500  136.9270 C   0  0  0  0  0  0  0  0  0  0  0  0
  189.7750  176.9330  136.2580 C   0  0  0  0  0  3  0  0  0  0  0  0
  191.0280  176.7440  141.1300 C   0  0  0  0  0  3  0  0  0  0  0  0
  189.7490  177.6380  144.6360 C   0  0  0  0  0  3  0  0  0  0  0  0
  191.5680  176.7270  147.7180 O   0  0  0  0  0  1  0  0  0  0  0  0
  190.4870  176.9450  143.6690 C   0  0  0  0  0  0  0  0  0  0  0  0
  191.9370  176.1040  145.4220 C   0  0  0  0  0  3  0  0  0  0  0  0
  190.0880  177.5660  145.9950 C   0  0  0  0  0  0  0  0  0  0  0  0
  191.5820  176.1720  144.0720 C   0  0  0  0  0  3  0  0  0  0  0  0
  191.1970  176.8010  146.3810 C   0  0  0  0  0  0  0  0  0  0  0  0
  187.7430  178.4530  148.6820 O   0  0  0  0  0  1  0  0  0  0  0  0
  188.1330  176.3320  147.9240 O   0  0  0  0  0  0  0  0  0  0  0  0
  188.3720  177.7010  147.8940 C   0  0  0  0  0  0  0  0  0  0  0  0
  189.3360  178.2680  146.9940 N   0  0  0  0  0  2  0  0  0  0  0  0
  192.2580  174.9480  137.8020 N   0  0  0  0  0  2  0  0  0  0  0  0
  193.5190  173.2010  136.9400 O   0  0  0  0  0  0  0  0  0  0  0  0
  193.4560  174.4270  137.2160 C   0  0  0  0  0  0  0  0  0  0  0  0
  192.0780  176.2710  138.3180 C   0  0  0  0  0  0  0  0  0  0  0  0
  193.0690  177.0290  138.4820 O   0  0  0  0  0  0  0  0  0  0  0  0
  194.4450  175.7780  135.4110 C   0  0  0  0  0  1  0  0  0  0  0  0
  194.6010  175.3070  136.8440 C   0  0  0  0  0  2  0  0  0  0  0  0
  186.4120  178.1620  136.8190 C   0  0  0  0  0  2  0  0  0  0  0  0
  185.4800  177.0500  136.7110 N   0  0  0  0  0  2  0  0  0  0  0  0
  184.2660  177.4690  137.2750 N   0  0  0  0  0  2  0  0  0  0  0  0
  183.7950  176.3930  138.1360 C   0  0  0  0  0  2  0  0  0  0  0  0
  182.6170  176.8650  138.9690 C   0  0  0  0  0  2  0  0  0  0  0  0
  183.0890  177.2310  140.3010 N   0  0  0  0  0  2  0  0  0  0  0  0
  185.8190  178.5420  143.7880 C   0  0  0  0  0  3  0  0  0  0  0  0
  183.1070  178.6930  140.4580 C   0  0  2  0  0  0  0  0  0  0  0  0
  184.5250  179.2620  140.3010 C   0  0  0  0  0  2  0  0  0  0  0  0
  185.3390  178.5280  145.1000 C   0  0  0  0  0  3  0  0  0  0  0  0
  183.0810  178.7970  144.2740 C   0  0  0  0  0  3  0  0  0  0  0  0
  183.5510  178.7970  142.9570 C   0  0  0  0  0  0  0  0  0  0  0  0
  184.9380  178.6940  142.7140 C   0  0  0  0  0  0  0  0  0  0  0  0
  183.9720  178.6580  145.3440 C   0  0  0  0  0  3  0  0  0  0  0  0
  182.5720  179.0510  141.8450 C   0  0  0  0  0  2  0  0  0  0  0  0
  185.4880  178.6490  141.3170 C   0  0  0  0  0  2  0  0  0  0  0  0
  182.2700  179.2840  139.5070 O   0  0  0  0  0  1  0  0  0  0  0  0
  1  8  1  0  0  0  0
  2 11  2  0  0  0  0
  2 10  1  0  0  0  0
  3  7  1  0  0  0  0
  4  5  2  0  0  0  0
  5 15  1  0  0  0  0
  6  1  1  0  0  0  0
  6  3  2  0  0  0  0
  7  9  1  0  0  0  0
  7 12  2  0  0  0  0
  8  9  2  0  0  0  0
  9  4  1  0  0  0  0
 10  1  2  0  0  0  0
 11  6  1  0  0  0  0
 12  5  1  0  0  0  0
 13 17  1  0  0  0  0
 15 18  1  0  0  0  0
 15 13  2  0  0  0  0
 16 19  1  0  0  0  0
 17 19  2  0  0  0  0
 17 23  1  0  0  0  0
 18 16  2  0  0  0  0
 19 14  1  0  0  0  0
 22 21  2  0  0  0  0
 22 20  1  0  0  0  0
 23 22  1  0  0  0  0
 24 27  1  0  0  0  0
 25 26  2  0  0  0  0
 26 24  1  0  0  0  0
 27 28  2  0  0  0  0
 27  3  1  0  0  0  0
 29 30  1  0  0  0  0
 30 26  1  0  0  0  0
 31 10  1  0  0  0  0
 32 31  1  0  0  0  0
 32 33  1  0  0  0  0
 33 34  1  0  0  0  0
 34 35  1  0  0  0  0
 35 36  1  0  0  0  0
 36 38  1  0  0  0  0
 37 40  1  0  0  0  0
 38 47  1  6  0  0  0
 38 45  1  0  0  0  0
 39 38  1  0  0  0  0
 39 46  1  0  0  0  0
 40 44  2  0  0  0  0
 41 44  1  0  0  0  0
 42 41  2  0  0  0  0
 43 42  1  0  0  0  0
 43 37  2  0  0  0  0
 45 42  1  0  0  0  0
 46 43  1  0  0  0  0
M  END
>  <MODEL>
1

>  <REMARK>
 VINA RESULT:      -9.6      0.000      0.000
  Name = 
  11 active torsions:
  status: ('A' for Active; 'I' for Inactive)
    1  A    between atoms: N_2  and  N_17
    2  A    between atoms: N_2  and  C_18
    3  A    between atoms: C_8  and  N_12
    4  A    between atoms: C_8  and  C_18
    5  A    between atoms: C_11  and  C_29
    6  A    between atoms: N_12  and  C_13
    7  A    between atoms: C_16  and  N_17
    8  A    between atoms: C_16  and  C_43
    9  A    between atoms: C_22  and  C_25
   10  A    between atoms: C_23  and  N_47
   11  A    between atoms: C_27  and  C_40
                            x       y       z     vdW  Elec       q    Type
                         _______ _______ _______ _____ _____    ______ ____

>  <TORSDO>
F 11

$$$$
=
 OpenBabel11032420573D

 47 52  0  0  1  0  0  0  0  0999 V2000
  185.4260  178.6130  144.4330 C   0  0  0  0  0  0  0  0  0  0  0  0
  184.6540  178.7680  146.5510 N   0  0  0  0  0  0  0  0  0  0  0  0
  187.6370  177.6550  144.8290 C   0  0  0  0  0  0  0  0  0  0  0  0
  187.3120  178.0830  141.2090 C   0  0  0  0  0  3  0  0  0  0  0  0
  188.5340  177.5550  141.3180 C   0  0  0  0  0  0  0  0  0  0  0  0
  186.4080  178.1630  145.2930 C   0  0  0  0  0  0  0  0  0  0  0  0
  187.8090  177.6670  143.4270 C   0  0  0  0  0  0  0  0  0  0  0  0
  185.5990  178.6340  143.0430 C   0  0  0  0  0  3  0  0  0  0  0  0
  186.8280  178.1530  142.5750 C   0  0  0  0  0  0  0  0  0  0  0  0
  184.3810  178.9650  145.1610 C   0  0  0  0  0  0  0  0  0  0  0  0
  185.8580  178.2870  146.6390 C   0  0  0  0  0  3  0  0  0  0  0  0
  188.8660  177.2860  142.7280 C   0  0  0  0  0  3  0  0  0  0  0  0
  188.9510  177.3000  138.8800 C   0  0  0  0  0  3  0  0  0  0  0  0
  192.0030  176.5010  136.9610 O   0  0  0  0  0  1  0  0  0  0  0  0
  189.4470  177.3080  140.1900 C   0  0  0  0  0  0  0  0  0  0  0  0
  191.6520  176.7850  139.3260 C   0  0  0  0  0  3  0  0  0  0  0  0
  189.7940  177.0450  137.7890 C   0  0  0  0  0  0  0  0  0  0  0  0
  190.8070  177.0540  140.4060 C   0  0  0  0  0  3  0  0  0  0  0  0
  191.1500  176.7760  138.0220 C   0  0  0  0  0  0  0  0  0  0  0  0
  188.2490  176.0840  134.5950 O   0  0  0  0  0  0  0  0  0  0  0  0
  188.2030  174.8330  136.5080 O   0  0  0  0  0  1  0  0  0  0  0  0
  188.5720  175.9750  135.8060 C   0  0  0  0  0  0  0  0  0  0  0  0
  189.2970  177.0370  136.4430 N   0  0  0  0  0  2  0  0  0  0  0  0
  189.9280  176.6990  145.2420 N   0  0  0  0  0  2  0  0  0  0  0  0
  192.0790  175.8500  145.4420 O   0  0  0  0  0  0  0  0  0  0  0  0
  191.0940  176.3870  146.0120 C   0  0  0  0  0  0  0  0  0  0  0  0
  188.6760  177.1600  145.7580 C   0  0  0  0  0  0  0  0  0  0  0  0
  188.4450  177.1230  146.9950 O   0  0  0  0  0  0  0  0  0  0  0  0
  192.3830  176.0230  148.0780 C   0  0  0  0  0  1  0  0  0  0  0  0
  191.2120  176.7550  147.4530 C   0  0  0  0  0  2  0  0  0  0  0  0
  183.0840  179.4860  144.6380 C   0  0  0  0  0  2  0  0  0  0  0  0
  182.4840  178.5160  143.7350 N   0  0  0  0  0  2  0  0  0  0  0  0
  181.0920  178.6320  143.8670 N   0  0  0  0  0  2  0  0  0  0  0  0
  180.5250  178.5970  142.5250 C   0  0  0  0  0  2  0  0  0  0  0  0
  181.6320  178.6400  141.4870 C   0  0  0  0  0  2  0  0  0  0  0  0
  181.0600  178.3930  140.1680 N   0  0  0  0  0  2  0  0  0  0  0  0
  183.6100  176.9680  136.5900 C   0  0  0  0  0  3  0  0  0  0  0  0
  181.3790  179.4980  139.2520 C   0  0  2  0  0  0  0  0  0  0  0  0
  180.8420  179.2350  137.8370 C   0  0  0  0  0  2  0  0  0  0  0  0
  184.9950  176.8370  136.7210 C   0  0  0  0  0  3  0  0  0  0  0  0
  184.9810  178.5000  138.4790 C   0  0  0  0  0  3  0  0  0  0  0  0
  183.5930  178.6260  138.3650 C   0  0  0  0  0  0  0  0  0  0  0  0
  182.9050  177.8690  137.3910 C   0  0  0  0  0  0  0  0  0  0  0  0
  185.6810  177.6040  137.6630 C   0  0  0  0  0  3  0  0  0  0  0  0
  182.8970  179.6720  139.1900 C   0  0  0  0  0  2  0  0  0  0  0  0
  181.4110  177.9390  137.2580 C   0  0  0  0  0  2  0  0  0  0  0  0
  180.8280  180.6890  139.7340 O   0  0  0  0  0  1  0  0  0  0  0  0
  1 10  1  0  0  0  0
  1  6  1  0  0  0  0
  2 11  1  0  0  0  0
  3  6  1  0  0  0  0
  3 27  1  0  0  0  0
  4  5  1  0  0  0  0
  4  9  2  0  0  0  0
  5 12  2  0  0  0  0
  6 11  2  0  0  0  0
  7  3  2  0  0  0  0
  8  1  2  0  0  0  0
  9  8  1  0  0  0  0
  9  7  1  0  0  0  0
 10  2  2  0  0  0  0
 12  7  1  0  0  0  0
 13 15  1  0  0  0  0
 14 19  1  0  0  0  0
 15 18  2  0  0  0  0
 15  5  1  0  0  0  0
 16 18  1  0  0  0  0
 17 19  1  0  0  0  0
 17 13  2  0  0  0  0
 19 16  2  0  0  0  0
 20 22  2  0  0  0  0
 22 23  1  0  0  0  0
 22 21  1  0  0  0  0
 23 17  1  0  0  0  0
 24 27  1  0  0  0  0
 24 26  1  0  0  0  0
 25 26  2  0  0  0  0
 26 30  1  0  0  0  0
 27 28  2  0  0  0  0
 30 29  1  0  0  0  0
 31 10  1  0  0  0  0
 32 33  1  0  0  0  0
 32 31  1  0  0  0  0
 34 33  1  0  0  0  0
 35 34  1  0  0  0  0
 36 35  1  0  0  0  0
 37 40  2  0  0  0  0
 37 43  1  0  0  0  0
 38 47  1  1  0  0  0
 38 36  1  0  0  0  0
 39 38  1  0  0  0  0
 40 44  1  0  0  0  0
 42 41  1  0  0  0  0
 42 45  1  0  0  0  0
 43 42  2  0  0  0  0
 44 41  2  0  0  0  0
 45 38  1  0  0  0  0
 46 43  1  0  0  0  0
 46 39  1  0  0  0  0
M  END
>  <MODEL>
2

>  <REMARK>
 VINA RESULT:      -8.9      2.254      7.728
  Name = 
  11 active torsions:
  status: ('A' for Active; 'I' for Inactive)
    1  A    between atoms: N_2  and  N_17
    2  A    between atoms: N_2  and  C_18
    3  A    between atoms: C_8  and  N_12
    4  A    between atoms: C_8  and  C_18
    5  A    between atoms: C_11  and  C_29
    6  A    between atoms: N_12  and  C_13
    7  A    between atoms: C_16  and  N_17
    8  A    between atoms: C_16  and  C_43
    9  A    between atoms: C_22  and  C_25
   10  A    between atoms: C_23  and  N_47
   11  A    between atoms: C_27  and  C_40
                            x       y       z     vdW  Elec       q    Type
                         _______ _______ _______ _____ _____    ______ ____

>  <TORSDO>
F 11

$$$$
=
 OpenBabel11032420573D

 47 52  0  0  1  0  0  0  0  0999 V2000
  189.3290  177.5730  141.5700 C   0  0  0  0  0  0  0  0  0  0  0  0
  191.4750  177.1800  142.1570 N   0  0  0  0  0  0  0  0  0  0  0  0
  188.2900  177.7720  143.7710 C   0  0  0  0  0  0  0  0  0  0  0  0
  185.6270  178.2520  141.3060 C   0  0  0  0  0  3  0  0  0  0  0  0
  184.9650  178.3840  142.4580 C   0  0  0  0  0  0  0  0  0  0  0  0
  189.4080  177.5350  142.9470 C   0  0  0  0  0  0  0  0  0  0  0  0
  187.0760  178.0200  143.0910 C   0  0  0  0  0  0  0  0  0  0  0  0
  188.1240  177.8100  140.8940 C   0  0  0  0  0  3  0  0  0  0  0  0
  187.0030  178.0220  141.7050 C   0  0  0  0  0  0  0  0  0  0  0  0
  190.5430  177.3750  141.0890 C   0  0  0  0  0  0  0  0  0  0  0  0
  190.8080  177.2780  143.2680 C   0  0  0  0  0  3  0  0  0  0  0  0
  185.8770  178.2360  143.6060 C   0  0  0  0  0  3  0  0  0  0  0  0
  182.7190  178.6340  141.4240 C   0  0  0  0  0  3  0  0  0  0  0  0
  179.3960  179.3530  142.8650 O   0  0  0  0  0  1  0  0  0  0  0  0
  183.5160  178.6090  142.5750 C   0  0  0  0  0  0  0  0  0  0  0  0
  181.5450  179.0730  143.9120 C   0  0  0  0  0  3  0  0  0  0  0  0
  181.3390  178.8690  141.5040 C   0  0  0  0  0  0  0  0  0  0  0  0
  182.9180  178.8250  143.8230 C   0  0  0  0  0  3  0  0  0  0  0  0
  180.7570  179.0990  142.7580 C   0  0  0  0  0  0  0  0  0  0  0  0
  179.2180  177.9290  138.6520 O   0  0  0  0  0  0  0  0  0  0  0  0
  179.9300  176.5010  140.2900 O   0  0  0  0  0  1  0  0  0  0  0  0
  179.8670  177.7660  139.7180 C   0  0  0  0  0  0  0  0  0  0  0  0
  180.5130  178.8930  140.3310 N   0  0  0  0  0  2  0  0  0  0  0  0
  189.4760  177.0580  145.8720 N   0  0  0  0  0  2  0  0  0  0  0  0
  190.7110  176.3410  147.7020 O   0  0  0  0  0  0  0  0  0  0  0  0
  189.8210  177.1130  147.2610 C   0  0  0  0  0  0  0  0  0  0  0  0
  188.3880  177.7450  145.2460 C   0  0  0  0  0  0  0  0  0  0  0  0
  187.5030  178.3030  145.9440 O   0  0  0  0  0  0  0  0  0  0  0  0
  188.0030  177.5160  148.8710 C   0  0  0  0  0  1  0  0  0  0  0  0
  189.2150  178.1140  148.1870 C   0  0  0  0  0  2  0  0  0  0  0  0
  190.9230  177.3600  139.6460 C   0  0  0  0  0  2  0  0  0  0  0  0
  190.7720  176.0190  139.1030 N   0  0  0  0  0  2  0  0  0  0  0  0
  191.2550  176.0470  137.7860 N   0  0  0  0  0  2  0  0  0  0  0  0
  190.7440  174.8610  137.1120 C   0  0  0  0  0  2  0  0  0  0  0  0
  189.9410  175.2590  135.8870 C   0  0  0  0  0  2  0  0  0  0  0  0
  188.6680  175.8320  136.3140 N   0  0  0  0  0  2  0  0  0  0  0  0
  184.8720  177.9080  137.9280 C   0  0  0  0  0  3  0  0  0  0  0  0
  188.4530  177.1410  135.6810 C   0  0  2  0  0  0  0  0  0  0  0  0
  188.4420  178.2760  136.7150 C   0  0  0  0  0  2  0  0  0  0  0  0
  183.6170  177.5830  137.4060 C   0  0  0  0  0  3  0  0  0  0  0  0
  184.6580  176.9180  135.3260 C   0  0  0  0  0  3  0  0  0  0  0  0
  185.9190  177.2260  135.8460 C   0  0  0  0  0  0  0  0  0  0  0  0
  186.0230  177.7510  137.1530 C   0  0  0  0  0  0  0  0  0  0  0  0
  183.5090  177.0920  136.1050 C   0  0  0  0  0  3  0  0  0  0  0  0
  187.1140  177.1220  134.9400 C   0  0  0  0  0  2  0  0  0  0  0  0
  187.3570  178.0590  137.7700 C   0  0  0  0  0  2  0  0  0  0  0  0
  189.4600  177.3870  134.7430 O   0  0  0  0  0  1  0  0  0  0  0  0
  1  6  1  0  0  0  0
  2 11  1  0  0  0  0
  3 27  1  0  0  0  0
  4  9  2  0  0  0  0
  4  5  1  0  0  0  0
  5 15  1  0  0  0  0
  5 12  2  0  0  0  0
  6 11  2  0  0  0  0
  6  3  1  0  0  0  0
  7 12  1  0  0  0  0
  7  3  2  0  0  0  0
  8  1  2  0  0  0  0
  8  9  1  0  0  0  0
  9  7  1  0  0  0  0
 10  1  1  0  0  0  0
 10  2  2  0  0  0  0
 13 17  2  0  0  0  0
 13 15  1  0  0  0  0
 15 18  2  0  0  0  0
 17 19  1  0  0  0  0
 18 16  1  0  0  0  0
 19 14  1  0  0  0  0
 19 16  2  0  0  0  0
 20 22  2  0  0  0  0
 22 21  1  0  0  0  0
 22 23  1  0  0  0  0
 23 17  1  0  0  0  0
 24 26  1  0  0  0  0
 26 25  2  0  0  0  0
 26 30  1  0  0  0  0
 27 24  1  0  0  0  0
 27 28  2  0  0  0  0
 30 29  1  0  0  0  0
 31 10  1  0  0  0  0
 32 31  1  0  0  0  0
 33 32  1  0  0  0  0
 34 33  1  0  0  0  0
 35 36  1  0  0  0  0
 35 34  1  0  0  0  0
 38 47  1  6  0  0  0
 38 36  1  0  0  0  0
 38 39  1  0  0  0  0
 39 46  1  0  0  0  0
 40 37  1  0  0  0  0
 41 42  2  0  0  0  0
 41 44  1  0  0  0  0
 42 43  1  0  0  0  0
 43 46  1  0  0  0  0
 43 37  2  0  0  0  0
 44 40  2  0  0  0  0
 45 38  1  0  0  0  0
 45 42  1  0  0  0  0
M  END
>  <MODEL>
3

>  <REMARK>
 VINA RESULT:      -8.6      2.268      8.446
  Name = 
  11 active torsions:
  status: ('A' for Active; 'I' for Inactive)
    1  A    between atoms: N_2  and  N_17
    2  A    between atoms: N_2  and  C_18
    3  A    between atoms: C_8  and  N_12
    4  A    between atoms: C_8  and  C_18
    5  A    between atoms: C_11  and  C_29
    6  A    between atoms: N_12  and  C_13
    7  A    between atoms: C_16  and  N_17
    8  A    between atoms: C_16  and  C_43
    9  A    between atoms: C_22  and  C_25
   10  A    between atoms: C_23  and  N_47
   11  A    between atoms: C_27  and  C_40
                            x       y       z     vdW  Elec       q    Type
                         _______ _______ _______ _____ _____    ______ ____

>  <TORSDO>
F 11

$$$$
=
 OpenBabel11032420573D

 47 52  0  0  1  0  0  0  0  0999 V2000
  185.4410  178.7110  144.1330 C   0  0  0  0  0  0  0  0  0  0  0  0
  184.9850  178.8300  146.3430 N   0  0  0  0  0  0  0  0  0  0  0  0
  187.6890  177.7590  144.1880 C   0  0  0  0  0  0  0  0  0  0  0  0
  186.8390  178.2380  140.6610 C   0  0  0  0  0  3  0  0  0  0  0  0
  188.0650  177.7150  140.5820 C   0  0  0  0  0  0  0  0  0  0  0  0
  186.5390  178.2540  144.8340 C   0  0  0  0  0  0  0  0  0  0  0  0
  187.6550  177.7920  142.7760 C   0  0  0  0  0  0  0  0  0  0  0  0
  185.4090  178.7520  142.7330 C   0  0  0  0  0  3  0  0  0  0  0  0
  186.5590  178.2860  142.0840 C   0  0  0  0  0  0  0  0  0  0  0  0
  184.5110  179.0460  145.0100 C   0  0  0  0  0  0  0  0  0  0  0  0
  186.1900  178.3550  146.2470 C   0  0  0  0  0  3  0  0  0  0  0  0
  188.6000  177.4280  141.9250 C   0  0  0  0  0  3  0  0  0  0  0  0
  189.7920  176.4990  139.2720 C   0  0  0  0  0  3  0  0  0  0  0  0
  191.0050  176.8930  135.8060 O   0  0  0  0  0  1  0  0  0  0  0  0
  188.8050  177.4890  139.3300 C   0  0  0  0  0  0  0  0  0  0  0  0
  189.2910  178.0660  137.0250 C   0  0  0  0  0  3  0  0  0  0  0  0
  190.5280  176.2770  138.0990 C   0  0  0  0  0  0  0  0  0  0  0  0
  188.5550  178.2690  138.1950 C   0  0  0  0  0  3  0  0  0  0  0  0
  190.2780  177.0780  136.9760 C   0  0  0  0  0  0  0  0  0  0  0  0
  193.7300  174.4850  137.8890 O   0  0  0  0  0  0  0  0  0  0  0  0
  193.5020  176.7440  138.1590 O   0  0  0  0  0  1  0  0  0  0  0  0
  192.9600  175.4720  138.0160 C   0  0  0  0  0  0  0  0  0  0  0  0
  191.5400  175.2630  138.0280 N   0  0  0  0  0  2  0  0  0  0  0  0
  189.9240  176.6040  144.2580 N   0  0  0  0  0  2  0  0  0  0  0  0
  191.9860  175.5460  144.1360 O   0  0  0  0  0  0  0  0  0  0  0  0
  191.1950  176.2500  144.8150 C   0  0  0  0  0  0  0  0  0  0  0  0
  188.8540  177.2570  144.9480 C   0  0  0  0  0  0  0  0  0  0  0  0
  188.8880  177.3840  146.2000 O   0  0  0  0  0  0  0  0  0  0  0  0
  192.0990  175.6050  147.0120 C   0  0  0  0  0  1  0  0  0  0  0  0
  191.6460  176.7610  146.1420 C   0  0  0  0  0  2  0  0  0  0  0  0
  183.1510  179.5670  144.6900 C   0  0  0  0  0  2  0  0  0  0  0  0
  182.2820  178.4760  144.2760 N   0  0  0  0  0  2  0  0  0  0  0  0
  181.2500  179.0340  143.5070 N   0  0  0  0  0  2  0  0  0  0  0  0
  181.5660  178.7790  142.1080 C   0  0  0  0  0  2  0  0  0  0  0  0
  180.6490  179.5860  141.2070 C   0  0  0  0  0  2  0  0  0  0  0  0
  180.6740  179.0160  139.8640 N   0  0  0  0  0  2  0  0  0  0  0  0
  182.9100  176.9240  136.4060 C   0  0  0  0  0  3  0  0  0  0  0  0
  181.2170  179.9850  138.9020 C   0  0  2  0  0  0  0  0  0  0  0  0
  180.6490  179.7630  137.4920 C   0  0  0  0  0  2  0  0  0  0  0  0
  184.2390  176.5240  136.5690 C   0  0  0  0  0  3  0  0  0  0  0  0
  184.5490  178.2430  138.2430 C   0  0  0  0  0  3  0  0  0  0  0  0
  183.2160  178.6400  138.0980 C   0  0  0  0  0  0  0  0  0  0  0  0
  182.3960  177.9890  137.1500 C   0  0  0  0  0  0  0  0  0  0  0  0
  185.0590  177.1840  137.4840 C   0  0  0  0  0  3  0  0  0  0  0  0
  182.7400  179.8450  138.8580 C   0  0  0  0  0  2  0  0  0  0  0  0
  180.9480  178.3520  136.9860 C   0  0  0  0  0  2  0  0  0  0  0  0
  180.9150  181.2860  139.3160 O   0  0  0  0  0  1  0  0  0  0  0  0
  1  6  1  0  0  0  0
  1 10  1  0  0  0  0
  3  6  1  0  0  0  0
  3 27  1  0  0  0  0
  4  9  2  0  0  0  0
  5  4  1  0  0  0  0
  5 12  2  0  0  0  0
  6 11  2  0  0  0  0
  7  3  2  0  0  0  0
  8  1  2  0  0  0  0
  9  8  1  0  0  0  0
  9  7  1  0  0  0  0
 10  2  2  0  0  0  0
 11  2  1  0  0  0  0
 12  7  1  0  0  0  0
 13 15  1  0  0  0  0
 14 19  1  0  0  0  0
 15  5  1  0  0  0  0
 16 18  1  0  0  0  0
 17 13  2  0  0  0  0
 18 15  2  0  0  0  0
 19 16  2  0  0  0  0
 19 17  1  0  0  0  0
 20 22  2  0  0  0  0
 22 23  1  0  0  0  0
 22 21  1  0  0  0  0
 23 17  1  0  0  0  0
 24 26  1  0  0  0  0
 24 27  1  0  0  0  0
 25 26  2  0  0  0  0
 26 30  1  0  0  0  0
 27 28  2  0  0  0  0
 30 29  1  0  0  0  0
 31 10  1  0  0  0  0
 32 31  1  0  0  0  0
 33 32  1  0  0  0  0
 34 33  1  0  0  0  0
 35 34  1  0  0  0  0
 36 35  1  0  0  0  0
 37 40  2  0  0  0  0
 37 43  1  0  0  0  0
 38 47  1  1  0  0  0
 38 36  1  0  0  0  0
 39 38  1  0  0  0  0
 40 44  1  0  0  0  0
 42 41  1  0  0  0  0
 42 45  1  0  0  0  0
 43 42  2  0  0  0  0
 44 41  2  0  0  0  0
 45 38  1  0  0  0  0
 46 43  1  0  0  0  0
 46 39  1  0  0  0  0
M  END
>  <MODEL>
4

>  <REMARK>
 VINA RESULT:      -8.5      2.098      7.594
  Name = 
  11 active torsions:
  status: ('A' for Active; 'I' for Inactive)
    1  A    between atoms: N_2  and  N_17
    2  A    between atoms: N_2  and  C_18
    3  A    between atoms: C_8  and  N_12
    4  A    between atoms: C_8  and  C_18
    5  A    between atoms: C_11  and  C_29
    6  A    between atoms: N_12  and  C_13
    7  A    between atoms: C_16  and  N_17
    8  A    between atoms: C_16  and  C_43
    9  A    between atoms: C_22  and  C_25
   10  A    between atoms: C_23  and  N_47
   11  A    between atoms: C_27  and  C_40
                            x       y       z     vdW  Elec       q    Type
                         _______ _______ _______ _____ _____    ______ ____

>  <TORSDO>
F 11

$$$$
=
 OpenBabel11032420573D

 47 52  0  0  1  0  0  0  0  0999 V2000
  188.7290  177.7570  138.7090 C   0  0  0  0  0  0  0  0  0  0  0  0
  188.0650  178.0300  136.5660 N   0  0  0  0  0  0  0  0  0  0  0  0
  186.6470  178.2420  139.8900 C   0  0  0  0  0  0  0  0  0  0  0  0
  189.1500  177.4740  142.4470 C   0  0  0  0  0  3  0  0  0  0  0  0
  188.0640  177.7150  143.1860 C   0  0  0  0  0  0  0  0  0  0  0  0
  187.4000  178.1310  138.7040 C   0  0  0  0  0  0  0  0  0  0  0  0
  187.3530  177.9760  141.0850 C   0  0  0  0  0  0  0  0  0  0  0  0
  189.4320  177.5010  139.8930 C   0  0  0  0  0  3  0  0  0  0  0  0
  188.6970  177.6340  141.0780 C   0  0  0  0  0  0  0  0  0  0  0  0
  189.1330  177.6830  137.4530 C   0  0  0  0  0  0  0  0  0  0  0  0
  187.0280  178.2940  137.3030 C   0  0  0  0  0  3  0  0  0  0  0  0
  186.9100  178.0390  142.3300 C   0  0  0  0  0  3  0  0  0  0  0  0
  189.1950  177.4330  145.3820 C   0  0  0  0  0  3  0  0  0  0  0  0
  187.9300  177.5410  148.8490 O   0  0  0  0  0  1  0  0  0  0  0  0
  188.0260  177.6990  144.6570 C   0  0  0  0  0  0  0  0  0  0  0  0
  186.8050  177.8670  146.7460 C   0  0  0  0  0  3  0  0  0  0  0  0
  189.1830  177.3890  146.7830 C   0  0  0  0  0  0  0  0  0  0  0  0
  186.8300  177.9210  145.3500 C   0  0  0  0  0  3  0  0  0  0  0  0
  187.9740  177.5970  147.4620 C   0  0  0  0  0  0  0  0  0  0  0  0
  192.5120  176.2510  147.8470 O   0  0  0  0  0  1  0  0  0  0  0  0
  191.6890  176.1020  145.7200 O   0  0  0  0  0  0  0  0  0  0  0  0
  191.5620  176.4740  147.0530 C   0  0  0  0  0  0  0  0  0  0  0  0
  190.3750  177.1220  147.5350 N   0  0  0  0  0  2  0  0  0  0  0  0
  184.2350  177.6880  139.4330 N   0  0  0  0  0  2  0  0  0  0  0  0
  182.0640  177.0000  138.9860 O   0  0  0  0  0  0  0  0  0  0  0  0
  182.8160  177.8360  139.5500 C   0  0  0  0  0  0  0  0  0  0  0  0
  185.2200  178.6280  139.8730 C   0  0  0  0  0  0  0  0  0  0  0  0
  184.8810  179.7890  140.2210 O   0  0  0  0  0  0  0  0  0  0  0  0
  181.3770  179.8340  139.5200 C   0  0  0  0  0  1  0  0  0  0  0  0
  182.1990  178.9040  140.3900 C   0  0  0  0  0  2  0  0  0  0  0  0
  190.4960  177.2890  136.9930 C   0  0  0  0  0  2  0  0  0  0  0  0
  190.4180  176.6490  135.6890 N   0  0  0  0  0  2  0  0  0  0  0  0
  191.4450  175.6950  135.6320 N   0  0  0  0  0  2  0  0  0  0  0  0
  191.4560  174.9940  136.9090 C   0  0  0  0  0  2  0  0  0  0  0  0
  190.8740  173.6010  136.7480 C   0  0  0  0  0  2  0  0  0  0  0  0
  189.4320  173.6580  136.9660 N   0  0  0  0  0  2  0  0  0  0  0  0
  185.1610  175.2830  136.2970 C   0  0  0  0  0  3  0  0  0  0  0  0
  188.7220  172.9070  135.9200 C   0  0  2  0  0  0  0  0  0  0  0  0
  188.2980  173.8180  134.7580 C   0  0  0  0  0  2  0  0  0  0  0  0
  184.1150  174.8770  137.1300 C   0  0  0  0  0  3  0  0  0  0  0  0
  185.2930  172.8150  137.5950 C   0  0  0  0  0  3  0  0  0  0  0  0
  186.3510  173.2210  136.7760 C   0  0  0  0  0  0  0  0  0  0  0  0
  186.2710  174.4580  136.1000 C   0  0  0  0  0  0  0  0  0  0  0  0
  184.1790  173.6420  137.7760 C   0  0  0  0  0  3  0  0  0  0  0  0
  187.4780  172.2580  136.5300 C   0  0  0  0  0  2  0  0  0  0  0  0
  187.3980  174.9560  135.2410 C   0  0  0  0  0  2  0  0  0  0  0  0
  189.5420  171.8880  135.4260 O   0  0  0  0  0  1  0  0  0  0  0  0
  1  8  1  0  0  0  0
  2 11  2  0  0  0  0
  2 10  1  0  0  0  0
  3  7  1  0  0  0  0
  4  5  2  0  0  0  0
  5 15  1  0  0  0  0
  6  1  1  0  0  0  0
  6  3  2  0  0  0  0
  7 12  2  0  0  0  0
  8  9  2  0  0  0  0
  9  7  1  0  0  0  0
  9  4  1  0  0  0  0
 10  1  2  0  0  0  0
 11  6  1  0  0  0  0
 12  5  1  0  0  0  0
 13 17  1  0  0  0  0
 15 18  1  0  0  0  0
 15 13  2  0  0  0  0
 16 19  1  0  0  0  0
 17 19  2  0  0  0  0
 17 23  1  0  0  0  0
 18 16  2  0  0  0  0
 19 14  1  0  0  0  0
 21 22  2  0  0  0  0
 22 23  1  0  0  0  0
 22 20  1  0  0  0  0
 24 26  1  0  0  0  0
 24 27  1  0  0  0  0
 25 26  2  0  0  0  0
 26 30  1  0  0  0  0
 27  3  1  0  0  0  0
 27 28  2  0  0  0  0
 29 30  1  0  0  0  0
 31 10  1  0  0  0  0
 32 31  1  0  0  0  0
 33 32  1  0  0  0  0
 33 34  1  0  0  0  0
 35 34  1  0  0  0  0
 35 36  1  0  0  0  0
 37 40  1  0  0  0  0
 38 47  1  6  0  0  0
 38 45  1  0  0  0  0
 38 36  1  0  0  0  0
 39 46  1  0  0  0  0
 39 38  1  0  0  0  0
 40 44  2  0  0  0  0
 41 44  1  0  0  0  0
 42 41  2  0  0  0  0
 43 37  2  0  0  0  0
 43 42  1  0  0  0  0
 45 42  1  0  0  0  0
 46 43  1  0  0  0  0
M  END
>  <MODEL>
5

>  <REMARK>
 VINA RESULT:      -8.5      2.308      7.013
  Name = 
  11 active torsions:
  status: ('A' for Active; 'I' for Inactive)
    1  A    between atoms: N_2  and  N_17
    2  A    between atoms: N_2  and  C_18
    3  A    between atoms: C_8  and  N_12
    4  A    between atoms: C_8  and  C_18
    5  A    between atoms: C_11  and  C_29
    6  A    between atoms: N_12  and  C_13
    7  A    between atoms: C_16  and  N_17
    8  A    between atoms: C_16  and  C_43
    9  A    between atoms: C_22  and  C_25
   10  A    between atoms: C_23  and  N_47
   11  A    between atoms: C_27  and  C_40
                            x       y       z     vdW  Elec       q    Type
                         _______ _______ _______ _____ _____    ______ ____

>  <TORSDO>
F 11

$$$$
=
 OpenBabel11032420573D

 47 52  0  0  1  0  0  0  0  0999 V2000
  189.9920  177.4850  141.4160 C   0  0  0  0  0  0  0  0  0  0  0  0
  192.0710  176.9370  142.1130 N   0  0  0  0  0  0  0  0  0  0  0  0
  188.7620  177.3530  143.5220 C   0  0  0  0  0  0  0  0  0  0  0  0
  186.3400  178.3070  140.9500 C   0  0  0  0  0  3  0  0  0  0  0  0
  185.5790  178.2690  142.0470 C   0  0  0  0  0  0  0  0  0  0  0  0
  189.9460  177.2200  142.7700 C   0  0  0  0  0  0  0  0  0  0  0  0
  187.6190  177.7440  142.7900 C   0  0  0  0  0  0  0  0  0  0  0  0
  188.8570  177.8640  140.6870 C   0  0  0  0  0  3  0  0  0  0  0  0
  187.6700  177.9740  141.4230 C   0  0  0  0  0  0  0  0  0  0  0  0
  191.2420  177.3310  141.0150 C   0  0  0  0  0  0  0  0  0  0  0  0
  191.3080  176.8730  143.1630 C   0  0  0  0  0  3  0  0  0  0  0  0
  186.3820  177.9090  143.2290 C   0  0  0  0  0  3  0  0  0  0  0  0
  183.4060  178.5570  140.8750 C   0  0  0  0  0  3  0  0  0  0  0  0
  180.0100  179.3200  142.1090 O   0  0  0  0  0  1  0  0  0  0  0  0
  184.1290  178.5150  142.0740 C   0  0  0  0  0  0  0  0  0  0  0  0
  182.0850  179.0030  143.2870 C   0  0  0  0  0  3  0  0  0  0  0  0
  182.0270  178.8120  140.8700 C   0  0  0  0  0  0  0  0  0  0  0  0
  183.4570  178.7350  143.2830 C   0  0  0  0  0  3  0  0  0  0  0  0
  181.3720  179.0460  142.0870 C   0  0  0  0  0  0  0  0  0  0  0  0
  180.5890  179.8020  137.6350 O   0  0  0  0  0  0  0  0  0  0  0  0
  182.2740  180.9040  138.7180 O   0  0  0  0  0  1  0  0  0  0  0  0
  181.3550  179.8650  138.6310 C   0  0  0  0  0  0  0  0  0  0  0  0
  181.2770  178.8540  139.6480 N   0  0  0  0  0  2  0  0  0  0  0  0
  189.9340  177.1570  145.7410 N   0  0  0  0  0  2  0  0  0  0  0  0
  191.1660  177.0500  147.7040 O   0  0  0  0  0  0  0  0  0  0  0  0
  190.0300  177.1250  147.1690 C   0  0  0  0  0  0  0  0  0  0  0  0
  188.7270  177.0820  144.9750 C   0  0  0  0  0  0  0  0  0  0  0  0
  187.6430  176.7620  145.5270 O   0  0  0  0  0  0  0  0  0  0  0  0
  188.9150  178.5520  148.8360 C   0  0  0  0  0  1  0  0  0  0  0  0
  188.8300  177.2620  148.0450 C   0  0  0  0  0  2  0  0  0  0  0  0
  191.7490  177.5410  139.6280 C   0  0  0  0  0  2  0  0  0  0  0  0
  193.1400  177.1250  139.5370 N   0  0  0  0  0  2  0  0  0  0  0  0
  193.3500  176.6610  138.2300 N   0  0  0  0  0  2  0  0  0  0  0  0
  193.8270  175.2880  138.3290 C   0  0  0  0  0  2  0  0  0  0  0  0
  193.0030  174.3800  137.4350 C   0  0  0  0  0  2  0  0  0  0  0  0
  191.5860  174.6040  137.7010 N   0  0  0  0  0  2  0  0  0  0  0  0
  188.9990  178.2230  136.4590 C   0  0  0  0  0  3  0  0  0  0  0  0
  190.7830  174.3140  136.5040 C   0  0  2  0  0  0  0  0  0  0  0  0
  191.1110  175.2780  135.3550 C   0  0  0  0  0  2  0  0  0  0  0  0
  187.7690  178.4540  137.0800 C   0  0  0  0  0  3  0  0  0  0  0  0
  187.5860  176.0960  137.5880 C   0  0  0  0  0  3  0  0  0  0  0  0
  188.8230  175.8570  136.9820 C   0  0  0  0  0  0  0  0  0  0  0  0
  189.5240  176.9300  136.3890 C   0  0  0  0  0  0  0  0  0  0  0  0
  187.0610  177.3910  137.6410 C   0  0  0  0  0  3  0  0  0  0  0  0
  189.3000  174.4380  136.8570 C   0  0  0  0  0  2  0  0  0  0  0  0
  190.8750  176.7330  135.7620 C   0  0  0  0  0  2  0  0  0  0  0  0
  191.0180  173.0020  136.0810 O   0  0  0  0  0  1  0  0  0  0  0  0
  1  6  1  0  0  0  0
  2 11  1  0  0  0  0
  3 27  1  0  0  0  0
  4  9  2  0  0  0  0
  4  5  1  0  0  0  0
  5 15  1  0  0  0  0
  5 12  2  0  0  0  0
  6 11  2  0  0  0  0
  6  3  1  0  0  0  0
  7 12  1  0  0  0  0
  7  3  2  0  0  0  0
  8  1  2  0  0  0  0
  8  9  1  0  0  0  0
  9  7  1  0  0  0  0
 10  1  1  0  0  0  0
 10  2  2  0  0  0  0
 13 15  1  0  0  0  0
 15 18  2  0  0  0  0
 17 13  2  0  0  0  0
 17 19  1  0  0  0  0
 18 16  1  0  0  0  0
 19 14  1  0  0  0  0
 19 16  2  0  0  0  0
 20 22  2  0  0  0  0
 22 21  1  0  0  0  0
 22 23  1  0  0  0  0
 23 17  1  0  0  0  0
 24 26  1  0  0  0  0
 26 25  2  0  0  0  0
 26 30  1  0  0  0  0
 27 28  2  0  0  0  0
 27 24  1  0  0  0  0
 30 29  1  0  0  0  0
 31 10  1  0  0  0  0
 32 31  1  0  0  0  0
 33 34  1  0  0  0  0
 33 32  1  0  0  0  0
 35 36  1  0  0  0  0
 35 34  1  0  0  0  0
 37 40  1  0  0  0  0
 38 47  1  6  0  0  0
 38 45  1  0  0  0  0
 38 36  1  0  0  0  0
 39 46  1  0  0  0  0
 39 38  1  0  0  0  0
 40 44  2  0  0  0  0
 41 44  1  0  0  0  0
 42 41  2  0  0  0  0
 43 37  2  0  0  0  0
 43 42  1  0  0  0  0
 45 42  1  0  0  0  0
 46 43  1  0  0  0  0
M  END
>  <MODEL>
6

>  <REMARK>
 VINA RESULT:      -8.5      2.125      8.906
  Name = 
  11 active torsions:
  status: ('A' for Active; 'I' for Inactive)
    1  A    between atoms: N_2  and  N_17
    2  A    between atoms: N_2  and  C_18
    3  A    between atoms: C_8  and  N_12
    4  A    between atoms: C_8  and  C_18
    5  A    between atoms: C_11  and  C_29
    6  A    between atoms: N_12  and  C_13
    7  A    between atoms: C_16  and  N_17
    8  A    between atoms: C_16  and  C_43
    9  A    between atoms: C_22  and  C_25
   10  A    between atoms: C_23  and  N_47
   11  A    between atoms: C_27  and  C_40
                            x       y       z     vdW  Elec       q    Type
                         _______ _______ _______ _____ _____    ______ ____

>  <TORSDO>
F 11

$$$$
=
 OpenBabel11032420573D

 47 52  0  0  1  0  0  0  0  0999 V2000
  186.7840  178.3570  139.8920 C   0  0  0  0  0  0  0  0  0  0  0  0
  185.4640  179.0790  141.5780 N   0  0  0  0  0  0  0  0  0  0  0  0
  188.7260  177.5700  141.1450 C   0  0  0  0  0  0  0  0  0  0  0  0
  189.4530  176.9820  137.6070 C   0  0  0  0  0  3  0  0  0  0  0  0
  190.5570  176.5190  138.1970 C   0  0  0  0  0  0  0  0  0  0  0  0
  187.4540  178.1720  141.0840 C   0  0  0  0  0  0  0  0  0  0  0  0
  189.2820  177.1980  139.9010 C   0  0  0  0  0  0  0  0  0  0  0  0
  187.3380  177.9960  138.6560 C   0  0  0  0  0  3  0  0  0  0  0  0
  188.6130  177.4200  138.7060 C   0  0  0  0  0  0  0  0  0  0  0  0
  185.6030  178.8830  140.1680 C   0  0  0  0  0  0  0  0  0  0  0  0
  186.5600  178.6540  142.1320 C   0  0  0  0  0  3  0  0  0  0  0  0
  190.4640  176.6520  139.6620 C   0  0  0  0  0  3  0  0  0  0  0  0
  192.9490  175.8420  138.1600 C   0  0  0  0  0  3  0  0  0  0  0  0
  195.1160  174.5540  135.4620 O   0  0  0  0  0  1  0  0  0  0  0  0
  191.7290  175.9820  137.4870 C   0  0  0  0  0  0  0  0  0  0  0  0
  192.7850  175.1550  135.4660 C   0  0  0  0  0  3  0  0  0  0  0  0
  194.0870  175.3540  137.5030 C   0  0  0  0  0  0  0  0  0  0  0  0
  191.6530  175.6300  136.1340 C   0  0  0  0  0  3  0  0  0  0  0  0
  193.9990  175.0210  136.1440 C   0  0  0  0  0  0  0  0  0  0  0  0
  196.8850  174.0820  139.5180 O   0  0  0  0  0  1  0  0  0  0  0  0
  195.0150  172.8910  138.9640 O   0  0  0  0  0  0  0  0  0  0  0  0
  195.7800  174.0500  138.9180 C   0  0  0  0  0  0  0  0  0  0  0  0
  195.3400  175.2030  138.1840 N   0  0  0  0  0  2  0  0  0  0  0  0
  190.4160  178.3050  142.8590 N   0  0  0  0  0  2  0  0  0  0  0  0
  191.9890  179.1430  144.3460 O   0  0  0  0  0  0  0  0  0  0  0  0
  191.0280  178.3540  144.1530 C   0  0  0  0  0  0  0  0  0  0  0  0
  189.4290  177.3620  142.4290 C   0  0  0  0  0  0  0  0  0  0  0  0
  189.1750  176.3450  143.1260 O   0  0  0  0  0  0  0  0  0  0  0  0
  191.5770  176.6040  145.7950 C   0  0  0  0  0  1  0  0  0  0  0  0
  190.5080  177.5600  145.3040 C   0  0  0  0  0  2  0  0  0  0  0  0
  184.5430  179.2250  139.1760 C   0  0  0  0  0  2  0  0  0  0  0  0
  183.2270  179.0220  139.7610 N   0  0  0  0  0  2  0  0  0  0  0  0
  182.5810  178.0350  139.0020 N   0  0  0  0  0  2  0  0  0  0  0  0
  182.6580  176.7900  139.7540 C   0  0  0  0  0  2  0  0  0  0  0  0
  182.5580  175.6020  138.8150 C   0  0  0  0  0  2  0  0  0  0  0  0
  183.7630  175.5390  137.9940 N   0  0  0  0  0  2  0  0  0  0  0  0
  187.4650  172.9350  137.0710 C   0  0  0  0  0  3  0  0  0  0  0  0
  183.5450  174.6780  136.8220 C   0  0  2  0  0  0  0  0  0  0  0  0
  183.6870  173.1900  137.1780 C   0  0  0  0  0  2  0  0  0  0  0  0
  188.5290  173.4630  136.3350 C   0  0  0  0  0  3  0  0  0  0  0  0
  187.0170  175.0270  135.2760 C   0  0  0  0  0  3  0  0  0  0  0  0
  185.9490  174.5160  136.0200 C   0  0  0  0  0  0  0  0  0  0  0  0
  186.1730  173.4410  136.9080 C   0  0  0  0  0  0  0  0  0  0  0  0
  188.3060  174.5050  135.4360 C   0  0  0  0  0  3  0  0  0  0  0  0
  184.5670  175.0360  135.7430 C   0  0  0  0  0  2  0  0  0  0  0  0
  185.0670  172.8850  137.7590 C   0  0  0  0  0  2  0  0  0  0  0  0
  182.2680  174.9020  136.2980 O   0  0  0  0  0  1  0  0  0  0  0  0
  1 10  1  0  0  0  0
  1  6  1  0  0  0  0
  2 11  1  0  0  0  0
  3 27  1  0  0  0  0
  4  5  1  0  0  0  0
  4  9  2  0  0  0  0
  5 12  2  0  0  0  0
  6  3  1  0  0  0  0
  6 11  2  0  0  0  0
  7  3  2  0  0  0  0
  8  9  1  0  0  0  0
  8  1  2  0  0  0  0
  9  7  1  0  0  0  0
 10  2  2  0  0  0  0
 12  7  1  0  0  0  0
 14 19  1  0  0  0  0
 15 13  2  0  0  0  0
 15  5  1  0  0  0  0
 16 18  2  0  0  0  0
 16 19  1  0  0  0  0
 17 13  1  0  0  0  0
 17 23  1  0  0  0  0
 18 15  1  0  0  0  0
 19 17  2  0  0  0  0
 22 21  2  0  0  0  0
 22 20  1  0  0  0  0
 23 22  1  0  0  0  0
 24 26  1  0  0  0  0
 26 25  2  0  0  0  0
 26 30  1  0  0  0  0
 27 24  1  0  0  0  0
 27 28  2  0  0  0  0
 30 29  1  0  0  0  0
 31 32  1  0  0  0  0
 31 10  1  0  0  0  0
 33 34  1  0  0  0  0
 33 32  1  0  0  0  0
 35 34  1  0  0  0  0
 36 35  1  0  0  0  0
 38 47  1  6  0  0  0
 38 39  1  0  0  0  0
 38 36  1  0  0  0  0
 39 46  1  0  0  0  0
 40 37  2  0  0  0  0
 41 44  2  0  0  0  0
 41 42  1  0  0  0  0
 42 43  2  0  0  0  0
 43 37  1  0  0  0  0
 43 46  1  0  0  0  0
 44 40  1  0  0  0  0
 45 42  1  0  0  0  0
 45 38  1  0  0  0  0
M  END
>  <MODEL>
7

>  <REMARK>
 VINA RESULT:      -8.4      2.635      7.620
  Name = 
  11 active torsions:
  status: ('A' for Active; 'I' for Inactive)
    1  A    between atoms: N_2  and  N_17
    2  A    between atoms: N_2  and  C_18
    3  A    between atoms: C_8  and  N_12
    4  A    between atoms: C_8  and  C_18
    5  A    between atoms: C_11  and  C_29
    6  A    between atoms: N_12  and  C_13
    7  A    between atoms: C_16  and  N_17
    8  A    between atoms: C_16  and  C_43
    9  A    between atoms: C_22  and  C_25
   10  A    between atoms: C_23  and  N_47
   11  A    between atoms: C_27  and  C_40
                            x       y       z     vdW  Elec       q    Type
                         _______ _______ _______ _____ _____    ______ ____

>  <TORSDO>
F 11

$$$$
=
 OpenBabel11032420573D

 47 52  0  0  1  0  0  0  0  0999 V2000
  188.1480  177.9050  138.6500 C   0  0  0  0  0  0  0  0  0  0  0  0
  187.3530  178.1900  136.5550 N   0  0  0  0  0  0  0  0  0  0  0  0
  186.1310  178.3300  139.9590 C   0  0  0  0  0  0  0  0  0  0  0  0
  188.7970  177.5850  142.3530 C   0  0  0  0  0  3  0  0  0  0  0  0
  187.7520  177.7930  143.1580 C   0  0  0  0  0  0  0  0  0  0  0  0
  186.8150  178.2500  138.7300 C   0  0  0  0  0  0  0  0  0  0  0  0
  186.9120  178.0650  141.1060 C   0  0  0  0  0  0  0  0  0  0  0  0
  188.9260  177.6500  139.7880 C   0  0  0  0  0  3  0  0  0  0  0  0
  188.2600  177.7520  141.0150 C   0  0  0  0  0  0  0  0  0  0  0  0
  188.4790  177.8560  137.3720 C   0  0  0  0  0  0  0  0  0  0  0  0
  186.3560  178.4220  137.3550 C   0  0  0  0  0  3  0  0  0  0  0  0
  186.5420  178.1020  142.3760 C   0  0  0  0  0  3  0  0  0  0  0  0
  188.9090  177.1960  145.2750 C   0  0  0  0  0  3  0  0  0  0  0  0
  187.9270  177.5460  148.8180 O   0  0  0  0  0  1  0  0  0  0  0  0
  187.8020  177.7580  144.6280 C   0  0  0  0  0  0  0  0  0  0  0  0
  186.7910  178.1830  146.7920 C   0  0  0  0  0  3  0  0  0  0  0  0
  188.9730  177.1280  146.6740 C   0  0  0  0  0  0  0  0  0  0  0  0
  186.7440  178.2570  145.3980 C   0  0  0  0  0  3  0  0  0  0  0  0
  187.8980  177.6170  147.4300 C   0  0  0  0  0  0  0  0  0  0  0  0
  192.3640  176.0620  147.6070 O   0  0  0  0  0  1  0  0  0  0  0  0
  191.8540  177.4490  145.8630 O   0  0  0  0  0  0  0  0  0  0  0  0
  191.4790  176.6690  146.9500 C   0  0  0  0  0  0  0  0  0  0  0  0
  190.1040  176.5580  147.3470 N   0  0  0  0  0  2  0  0  0  0  0  0
  183.7110  177.6500  140.0830 N   0  0  0  0  0  2  0  0  0  0  0  0
  181.5380  176.8470  140.2240 O   0  0  0  0  0  0  0  0  0  0  0  0
  182.3170  177.8260  140.3580 C   0  0  0  0  0  0  0  0  0  0  0  0
  184.6980  178.6850  140.0320 C   0  0  0  0  0  0  0  0  0  0  0  0
  184.3500  179.8950  140.0230 O   0  0  0  0  0  0  0  0  0  0  0  0
  181.4670  178.9810  142.3590 C   0  0  0  0  0  1  0  0  0  0  0  0
  181.7710  179.1130  140.8800 C   0  0  0  0  0  2  0  0  0  0  0  0
  189.8210  177.4980  136.8270 C   0  0  0  0  0  2  0  0  0  0  0  0
  189.7710  176.1870  136.1970 N   0  0  0  0  0  2  0  0  0  0  0  0
  190.3670  176.3090  134.9340 N   0  0  0  0  0  2  0  0  0  0  0  0
  190.9320  175.0100  134.5940 C   0  0  0  0  0  2  0  0  0  0  0  0
  191.2290  174.2210  135.8550 C   0  0  0  0  0  2  0  0  0  0  0  0
  192.6750  174.1160  136.0240 N   0  0  0  0  0  2  0  0  0  0  0  0
  196.9780  175.6980  135.4660 C   0  0  0  0  0  3  0  0  0  0  0  0
  193.1180  174.9060  137.1820 C   0  0  2  0  0  0  0  0  0  0  0  0
  193.4840  176.3430  136.7810 C   0  0  0  0  0  2  0  0  0  0  0  0
  198.0720  174.8790  135.7590 C   0  0  0  0  0  3  0  0  0  0  0  0
  196.7140  173.6310  137.3250 C   0  0  0  0  0  3  0  0  0  0  0  0
  195.6100  174.4360  137.0270 C   0  0  0  0  0  0  0  0  0  0  0  0
  195.7520  175.4970  136.1060 C   0  0  0  0  0  0  0  0  0  0  0  0
  197.9410  173.8480  136.6900 C   0  0  0  0  0  3  0  0  0  0  0  0
  194.3410  174.2320  137.8060 C   0  0  0  0  0  2  0  0  0  0  0  0
  194.5870  176.3630  135.7220 C   0  0  0  0  0  2  0  0  0  0  0  0
  192.1080  174.9440  138.1470 O   0  0  0  0  0  1  0  0  0  0  0  0
  1  6  1  0  0  0  0
  1  8  1  0  0  0  0
  2 11  2  0  0  0  0
  2 10  1  0  0  0  0
  3 27  1  0  0  0  0
  3  7  1  0  0  0  0
  4  5  2  0  0  0  0
  5 15  1  0  0  0  0
  6  3  2  0  0  0  0
  7 12  2  0  0  0  0
  8  9  2  0  0  0  0
  9  7  1  0  0  0  0
  9  4  1  0  0  0  0
 10  1  2  0  0  0  0
 11  6  1  0  0  0  0
 12  5  1  0  0  0  0
 13 17  1  0  0  0  0
 15 13  2  0  0  0  0
 15 18  1  0  0  0  0
 16 19  1  0  0  0  0
 17 23  1  0  0  0  0
 17 19  2  0  0  0  0
 18 16  2  0  0  0  0
 19 14  1  0  0  0  0
 21 22  2  0  0  0  0
 22 23  1  0  0  0  0
 22 20  1  0  0  0  0
 24 26  1  0  0  0  0
 25 26  2  0  0  0  0
 26 30  1  0  0  0  0
 27 24  1  0  0  0  0
 28 27  2  0  0  0  0
 30 29  1  0  0  0  0
 31 10  1  0  0  0  0
 32 31  1  0  0  0  0
 33 32  1  0  0  0  0
 34 33  1  0  0  0  0
 34 35  1  0  0  0  0
 35 36  1  0  0  0  0
 36 38  1  0  0  0  0
 37 40  2  0  0  0  0
 37 43  1  0  0  0  0
 38 45  1  0  0  0  0
 38 47  1  1  0  0  0
 39 38  1  0  0  0  0
 40 44  1  0  0  0  0
 42 41  1  0  0  0  0
 42 45  1  0  0  0  0
 43 42  2  0  0  0  0
 44 41  2  0  0  0  0
 46 43  1  0  0  0  0
 46 39  1  0  0  0  0
M  END
>  <MODEL>
8

>  <REMARK>
 VINA RESULT:      -8.3      1.735      8.777
  Name = 
  11 active torsions:
  status: ('A' for Active; 'I' for Inactive)
    1  A    between atoms: N_2  and  N_17
    2  A    between atoms: N_2  and  C_18
    3  A    between atoms: C_8  and  N_12
    4  A    between atoms: C_8  and  C_18
    5  A    between atoms: C_11  and  C_29
    6  A    between atoms: N_12  and  C_13
    7  A    between atoms: C_16  and  N_17
    8  A    between atoms: C_16  and  C_43
    9  A    between atoms: C_22  and  C_25
   10  A    between atoms: C_23  and  N_47
   11  A    between atoms: C_27  and  C_40
                            x       y       z     vdW  Elec       q    Type
                         _______ _______ _______ _____ _____    ______ ____

>  <TORSDO>
F 11

$$$$
=
 OpenBabel11032420573D

 47 52  0  0  1  0  0  0  0  0999 V2000
  188.4750  177.7450  138.9000 C   0  0  0  0  0  0  0  0  0  0  0  0
  187.7730  177.9730  136.7640 N   0  0  0  0  0  0  0  0  0  0  0  0
  186.4180  178.2650  140.1080 C   0  0  0  0  0  0  0  0  0  0  0  0
  188.9650  177.5450  142.6350 C   0  0  0  0  0  3  0  0  0  0  0  0
  187.8940  177.8060  143.3880 C   0  0  0  0  0  0  0  0  0  0  0  0
  187.1480  178.1240  138.9120 C   0  0  0  0  0  0  0  0  0  0  0  0
  187.1440  178.0230  141.2950 C   0  0  0  0  0  0  0  0  0  0  0  0
  189.2000  177.5130  140.0770 C   0  0  0  0  0  3  0  0  0  0  0  0
  188.4870  177.6750  141.2710 C   0  0  0  0  0  0  0  0  0  0  0  0
  188.8560  177.6430  137.6380 C   0  0  0  0  0  0  0  0  0  0  0  0
  186.7500  178.2580  137.5140 C   0  0  0  0  0  3  0  0  0  0  0  0
  186.7240  178.1150  142.5470 C   0  0  0  0  0  3  0  0  0  0  0  0
  189.0530  177.5250  145.5690 C   0  0  0  0  0  3  0  0  0  0  0  0
  187.8600  177.7580  149.0560 O   0  0  0  0  0  1  0  0  0  0  0  0
  187.8830  177.8230  144.8590 C   0  0  0  0  0  0  0  0  0  0  0  0
  186.7090  178.0840  146.9660 C   0  0  0  0  0  3  0  0  0  0  0  0
  189.0670  177.5120  146.9710 C   0  0  0  0  0  0  0  0  0  0  0  0
  186.7100  178.1080  145.5690 C   0  0  0  0  0  3  0  0  0  0  0  0
  187.8800  177.7830  147.6670 C   0  0  0  0  0  0  0  0  0  0  0  0
  192.4190  176.3750  147.9610 O   0  0  0  0  0  1  0  0  0  0  0  0
  191.6120  176.3880  145.8210 O   0  0  0  0  0  0  0  0  0  0  0  0
  191.4680  176.6400  147.1810 C   0  0  0  0  0  0  0  0  0  0  0  0
  190.2610  177.2120  147.7070 N   0  0  0  0  0  2  0  0  0  0  0  0
  183.9800  177.6520  139.9890 N   0  0  0  0  0  2  0  0  0  0  0  0
  181.7840  176.9070  139.8940 O   0  0  0  0  0  0  0  0  0  0  0  0
  182.5730  177.8440  140.1770 C   0  0  0  0  0  0  0  0  0  0  0  0
  184.9920  178.6560  140.1090 C   0  0  0  0  0  0  0  0  0  0  0  0
  184.6750  179.8710  140.1900 O   0  0  0  0  0  0  0  0  0  0  0  0
  181.9290  178.9440  142.2830 C   0  0  0  0  0  1  0  0  0  0  0  0
  182.0200  179.0930  140.7770 C   0  0  0  0  0  2  0  0  0  0  0  0
  190.2090  177.2330  137.1620 C   0  0  0  0  0  2  0  0  0  0  0  0
  190.2950  175.7830  137.0890 N   0  0  0  0  0  2  0  0  0  0  0  0
  191.2180  175.3720  138.0630 N   0  0  0  0  0  2  0  0  0  0  0  0
  192.3400  176.2990  138.0150 C   0  0  0  0  0  2  0  0  0  0  0  0
  193.4670  175.7170  137.1820 C   0  0  0  0  0  2  0  0  0  0  0  0
  193.9490  174.4940  137.8170 N   0  0  0  0  0  2  0  0  0  0  0  0
  198.4260  173.5850  137.1380 C   0  0  0  0  0  3  0  0  0  0  0  0
  194.1430  173.4350  136.8160 C   0  0  2  0  0  0  0  0  0  0  0  0
  194.8970  172.2320  137.4030 C   0  0  0  0  0  2  0  0  0  0  0  0
  199.1800  174.3780  136.2680 C   0  0  0  0  0  3  0  0  0  0  0  0
  197.1700  174.9490  135.0500 C   0  0  0  0  0  3  0  0  0  0  0  0
  196.4050  174.1700  135.9240 C   0  0  0  0  0  0  0  0  0  0  0  0
  197.0450  173.4610  136.9630 C   0  0  0  0  0  0  0  0  0  0  0  0
  198.5540  175.0570  135.2240 C   0  0  0  0  0  3  0  0  0  0  0  0
  194.9390  174.0020  135.6390 C   0  0  0  0  0  2  0  0  0  0  0  0
  196.2630  172.6440  137.9520 C   0  0  0  0  0  2  0  0  0  0  0  0
  192.9040  173.0050  136.3320 O   0  0  0  0  0  1  0  0  0  0  0  0
  1  6  1  0  0  0  0
  1  8  1  0  0  0  0
  2 11  2  0  0  0  0
  2 10  1  0  0  0  0
  3 27  1  0  0  0  0
  3  7  1  0  0  0  0
  4  5  2  0  0  0  0
  5 15  1  0  0  0  0
  6  3  2  0  0  0  0
  7 12  2  0  0  0  0
  8  9  2  0  0  0  0
  9  7  1  0  0  0  0
  9  4  1  0  0  0  0
 10  1  2  0  0  0  0
 11  6  1  0  0  0  0
 12  5  1  0  0  0  0
 13 17  1  0  0  0  0
 15 18  1  0  0  0  0
 15 13  2  0  0  0  0
 16 19  1  0  0  0  0
 17 19  2  0  0  0  0
 17 23  1  0  0  0  0
 18 16  2  0  0  0  0
 19 14  1  0  0  0  0
 21 22  2  0  0  0  0
 22 23  1  0  0  0  0
 22 20  1  0  0  0  0
 24 27  1  0  0  0  0
 24 26  1  0  0  0  0
 25 26  2  0  0  0  0
 26 30  1  0  0  0  0
 27 28  2  0  0  0  0
 30 29  1  0  0  0  0
 31 10  1  0  0  0  0
 32 31  1  0  0  0  0
 32 33  1  0  0  0  0
 34 33  1  0  0  0  0
 35 36  1  0  0  0  0
 35 34  1  0  0  0  0
 38 47  1  6  0  0  0
 38 39  1  0  0  0  0
 38 36  1  0  0  0  0
 39 46  1  0  0  0  0
 40 37  2  0  0  0  0
 41 44  2  0  0  0  0
 41 42  1  0  0  0  0
 42 43  2  0  0  0  0
 43 37  1  0  0  0  0
 43 46  1  0  0  0  0
 44 40  1  0  0  0  0
 45 42  1  0  0  0  0
 45 38  1  0  0  0  0
M  END
>  <MODEL>
9

>  <REMARK>
 VINA RESULT:      -8.3      1.914      9.290
  Name = 
  11 active torsions:
  status: ('A' for Active; 'I' for Inactive)
    1  A    between atoms: N_2  and  N_17
    2  A    between atoms: N_2  and  C_18
    3  A    between atoms: C_8  and  N_12
    4  A    between atoms: C_8  and  C_18
    5  A    between atoms: C_11  and  C_29
    6  A    between atoms: N_12  and  C_13
    7  A    between atoms: C_16  and  N_17
    8  A    between atoms: C_16  and  C_43
    9  A    between atoms: C_22  and  C_25
   10  A    between atoms: C_23  and  N_47
   11  A    between atoms: C_27  and  C_40
                            x       y       z     vdW  Elec       q    Type
                         _______ _______ _______ _____ _____    ______ ____

>  <TORSDO>
F 11

$$$$
