=
 OpenBabel11042410353D

 38 41  0  0  1  0  0  0  0  0999 V2000
  188.5230  178.3060  137.8870 C   0  0  2  0  0  3  0  0  0  0  0  0
  193.6120  172.4060  135.7930 N   0  0  0  0  0  1  0  0  0  0  0  0
  190.7210  177.1340  138.1020 C   0  0  1  0  0  3  0  0  0  0  0  0
  191.6090  177.3340  140.4610 C   0  0  1  0  0  3  0  0  0  0  0  0
  189.3250  177.0830  137.4830 C   0  0  1  0  0  3  0  0  0  0  0  0
  193.0650  176.2330  137.8750 C   0  0  0  0  0  0  0  0  0  0  0  0
  190.5500  177.0570  139.5310 N   0  0  1  0  0  0  0  0  0  0  0  0
  192.9140  177.2650  140.1560 C   0  0  0  0  0  3  0  0  0  0  0  0
  194.0110  174.7970  136.1320 N   0  0  0  0  0  0  0  0  0  0  0  0
  193.1400  173.6620  136.2620 C   0  0  0  0  0  0  0  0  0  0  0  0
  194.0160  175.9010  136.8150 C   0  0  0  0  0  3  0  0  0  0  0  0
  189.1540  177.0090  139.9200 C   0  0  0  0  0  2  0  0  0  0  0  0
  191.8770  173.7250  136.6890 C   0  0  0  0  0  3  0  0  0  0  0  0
  191.1280  174.8930  137.1710 C   0  0  0  0  0  3  0  0  0  0  0  0
  193.5420  176.8210  138.9350 N   0  0  0  0  0  0  0  0  0  0  0  0
  188.3380  176.9990  138.6360 C   0  0  1  0  0  3  0  0  0  0  0  0
  191.6290  176.0320  137.6580 C   0  0  1  0  0  3  0  0  0  0  0  0
  191.2810  177.7390  141.8040 C   0  0  0  0  0  0  0  0  0  0  0  0
  191.0000  178.0800  142.9260 C   0  0  0  0  0  0  0  0  0  0  0  0
  190.6480  178.4920  144.2880 C   0  0  0  0  0  2  0  0  0  0  0  0
  189.8130  177.4200  144.9650 C   0  0  0  0  0  2  0  0  0  0  0  0
  190.1840  177.3080  146.3670 N   0  0  0  0  0  2  0  0  0  0  0  0
  188.9860  178.5960  148.3490 O   0  0  0  0  0  0  0  0  0  0  0  0
  188.7500  177.5350  147.3090 S   0  0  0  0  0  0  0  0  0  0  0  0
  188.3740  176.2460  147.9860 O   0  0  0  0  0  0  0  0  0  0  0  0
  187.4180  178.0360  146.2410 C   0  0  0  0  0  2  0  0  0  0  0  0
  184.9720  178.3130  146.4600 C   0  0  0  0  0  1  0  0  0  0  0  0
  186.3140  178.6820  147.0540 C   0  0  0  0  0  2  0  0  0  0  0  0
  187.3710  178.4910  136.9200 C   0  0  0  0  0  2  0  0  0  0  0  0
  185.2870  177.3040  137.1080 N   0  0  0  0  0  2  0  0  0  0  0  0
  186.0840  178.1920  137.6060 C   0  0  0  0  0  0  0  0  0  0  0  0
  185.7070  178.9520  138.7580 N   0  0  0  0  0  2  0  0  0  0  0  0
  184.4270  178.7900  139.4330 C   0  0  0  0  0  2  0  0  0  0  0  0
  184.5950  179.0150  140.9260 C   0  0  0  0  0  2  0  0  0  0  0  0
  186.0550  178.8600  141.3240 C   0  0  0  0  0  2  0  0  0  0  0  0
  186.1810  178.3270  142.7420 C   0  0  1  0  0  3  0  0  0  0  0  0
  184.9530  177.8550  143.1650 F   0  0  0  0  0  0  0  0  0  0  0  0
  187.1110  177.2880  142.7750 O   0  0  0  0  0  1  0  0  0  0  0  0
  1 29  1  6  0  0  0
  1 16  1  0  0  0  0
  2 10  1  0  0  0  0
  3  7  1  0  0  0  0
  4 18  1  0  0  0  0
  5  1  1  0  0  0  0
  5  3  1  0  0  0  0
  5 16  1  0  0  0  0
  6 15  1  0  0  0  0
  7 12  1  0  0  0  0
  7  4  1  0  0  0  0
  8  4  1  0  0  0  0
  9 10  2  0  0  0  0
  9 11  1  0  0  0  0
 10 13  1  0  0  0  0
 11  6  2  0  0  0  0
 13 14  2  0  0  0  0
 14 17  1  0  0  0  0
 15  8  2  0  0  0  0
 16 12  1  0  0  0  0
 17  6  1  0  0  0  0
 17  3  1  0  0  0  0
 18 19  3  0  0  0  0
 19 20  1  0  0  0  0
 20 21  1  0  0  0  0
 21 22  1  0  0  0  0
 22 24  1  0  0  0  0
 24 25  2  0  0  0  0
 24 23  2  0  0  0  0
 26 28  1  0  0  0  0
 26 24  1  0  0  0  0
 27 28  1  0  0  0  0
 29 31  1  0  0  0  0
 30 31  2  0  0  0  0
 31 32  1  0  0  0  0
 32 33  1  0  0  0  0
 33 34  1  0  0  0  0
 34 35  1  0  0  0  0
 35 36  1  0  0  0  0
 36 38  1  0  0  0  0
 36 37  1  0  0  0  0
M  END
>  <MODEL>
1

>  <REMARK>
 VINA RESULT:      -7.6      0.000      0.000
  Name = 
  13 active torsions:
  status: ('A' for Active; 'I' for Inactive)
    1  A    between atoms: C_1  and  C_23
    2  A    between atoms: C_2  and  S_13
    3  A    between atoms: C_2  and  C_37
    4  A    between atoms: C_5  and  C_27
    5  A    between atoms: C_11  and  C_14
    6  A    between atoms: S_13  and  N_31
    7  A    between atoms: C_14  and  C_36
    8  A    between atoms: C_18  and  C_28
    9  A    between atoms: C_18  and  C_32
   10  A    between atoms: C_23  and  C_29
   11  A    between atoms: C_26  and  N_35
   12  A    between atoms: C_26  and  C_36
   13  A    between atoms: N_31  and  C_32
                            x       y       z     vdW  Elec       q    Type
                         _______ _______ _______ _____ _____    ______ ____

>  <TORSDO>
F 13

$$$$
=
 OpenBabel11042410353D

 38 41  0  0  1  0  0  0  0  0999 V2000
  189.3500  177.1690  140.9610 C   0  0  2  0  0  3  0  0  0  0  0  0
  195.4860  175.6690  135.9420 N   0  0  0  0  0  1  0  0  0  0  0  0
  190.3110  176.0080  138.9650 C   0  0  1  0  0  3  0  0  0  0  0  0
  188.5250  175.6160  137.2190 C   0  0  1  0  0  3  0  0  0  0  0  0
  190.5480  177.0730  140.0350 C   0  0  1  0  0  3  0  0  0  0  0  0
  191.4860  174.4990  137.3220 C   0  0  0  0  0  0  0  0  0  0  0  0
  189.2070  176.4620  138.1580 N   0  0  1  0  0  0  0  0  0  0  0  0
  189.0620  174.5140  136.6730 C   0  0  0  0  0  3  0  0  0  0  0  0
  193.8850  174.1420  136.9870 N   0  0  0  0  0  0  0  0  0  0  0  0
  194.2820  175.4860  136.6760 C   0  0  0  0  0  0  0  0  0  0  0  0
  192.6990  173.6860  137.2510 C   0  0  0  0  0  3  0  0  0  0  0  0
  188.6540  177.7170  138.6300 C   0  0  0  0  0  2  0  0  0  0  0  0
  193.6620  176.5810  137.1230 C   0  0  0  0  0  3  0  0  0  0  0  0
  192.4460  176.6760  137.9410 C   0  0  0  0  0  3  0  0  0  0  0  0
  190.4040  173.9960  136.8000 N   0  0  0  0  0  0  0  0  0  0  0  0
  189.5020  178.1540  139.8160 C   0  0  1  0  0  3  0  0  0  0  0  0
  191.4900  175.7530  138.0820 C   0  0  1  0  0  3  0  0  0  0  0  0
  187.1720  175.9300  136.8380 C   0  0  0  0  0  0  0  0  0  0  0  0
  186.0360  176.1870  136.5240 C   0  0  0  0  0  0  0  0  0  0  0  0
  184.6520  176.4970  136.1530 C   0  0  0  0  0  2  0  0  0  0  0  0
  183.8940  177.0380  137.3510 C   0  0  0  0  0  2  0  0  0  0  0  0
  184.7900  177.7970  138.2100 N   0  0  0  0  0  2  0  0  0  0  0  0
  182.4150  178.8600  138.7140 O   0  0  0  0  0  0  0  0  0  0  0  0
  183.8150  178.7730  139.2550 S   0  0  0  0  0  0  0  0  0  0  0  0
  184.4000  180.1550  139.3550 O   0  0  0  0  0  0  0  0  0  0  0  0
  183.7800  178.0430  140.8780 C   0  0  0  0  0  2  0  0  0  0  0  0
  185.9240  178.4720  142.0290 C   0  0  0  0  0  1  0  0  0  0  0  0
  184.4950  178.9400  141.8680 C   0  0  0  0  0  2  0  0  0  0  0  0
  189.7670  177.8410  142.2520 C   0  0  0  0  0  2  0  0  0  0  0  0
  188.4410  176.0740  143.2050 N   0  0  0  0  0  2  0  0  0  0  0  0
  189.1800  177.1140  143.4120 C   0  0  0  0  0  0  0  0  0  0  0  0
  189.3720  177.6260  144.7340 N   0  0  0  0  0  2  0  0  0  0  0  0
  188.7580  177.0340  145.9130 C   0  0  0  0  0  2  0  0  0  0  0  0
  187.7580  178.0020  146.5210 C   0  0  0  0  0  2  0  0  0  0  0  0
  186.3850  177.8050  145.8980 C   0  0  0  0  0  2  0  0  0  0  0  0
  185.3070  178.4940  146.7210 C   0  0  1  0  0  3  0  0  0  0  0  0
  185.8600  179.5690  147.3910 F   0  0  0  0  0  0  0  0  0  0  0  0
  184.2890  178.9470  145.8820 O   0  0  0  0  0  1  0  0  0  0  0  0
  1 29  1  1  0  0  0
  2 10  1  0  0  0  0
  3  5  1  0  0  0  0
  4  7  1  0  0  0  0
  5  1  1  0  0  0  0
  6 17  1  0  0  0  0
  7 12  1  0  0  0  0
  7  3  1  0  0  0  0
  8 15  2  0  0  0  0
  8  4  1  0  0  0  0
  9 11  1  0  0  0  0
 10  9  2  0  0  0  0
 10 13  1  0  0  0  0
 11  6  2  0  0  0  0
 12 16  1  0  0  0  0
 13 14  2  0  0  0  0
 14 17  1  0  0  0  0
 15  6  1  0  0  0  0
 16  5  1  0  0  0  0
 16  1  1  0  0  0  0
 17  3  1  0  0  0  0
 18  4  1  0  0  0  0
 19 18  3  0  0  0  0
 20 19  1  0  0  0  0
 20 21  1  0  0  0  0
 21 22  1  0  0  0  0
 22 24  1  0  0  0  0
 23 24  2  0  0  0  0
 24 25  2  0  0  0  0
 24 26  1  0  0  0  0
 26 28  1  0  0  0  0
 28 27  1  0  0  0  0
 29 31  1  0  0  0  0
 30 31  2  0  0  0  0
 31 32  1  0  0  0  0
 32 33  1  0  0  0  0
 33 34  1  0  0  0  0
 35 34  1  0  0  0  0
 35 36  1  0  0  0  0
 36 37  1  0  0  0  0
 38 36  1  0  0  0  0
M  END
>  <MODEL>
2

>  <REMARK>
 VINA RESULT:      -7.3      2.792      5.987
  Name = 
  13 active torsions:
  status: ('A' for Active; 'I' for Inactive)
    1  A    between atoms: C_1  and  C_23
    2  A    between atoms: C_2  and  S_13
    3  A    between atoms: C_2  and  C_37
    4  A    between atoms: C_5  and  C_27
    5  A    between atoms: C_11  and  C_14
    6  A    between atoms: S_13  and  N_31
    7  A    between atoms: C_14  and  C_36
    8  A    between atoms: C_18  and  C_28
    9  A    between atoms: C_18  and  C_32
   10  A    between atoms: C_23  and  C_29
   11  A    between atoms: C_26  and  N_35
   12  A    between atoms: C_26  and  C_36
   13  A    between atoms: N_31  and  C_32
                            x       y       z     vdW  Elec       q    Type
                         _______ _______ _______ _____ _____    ______ ____

>  <TORSDO>
F 13

$$$$
=
 OpenBabel11042410353D

 38 41  0  0  1  0  0  0  0  0999 V2000
  189.3360  177.1900  141.3220 C   0  0  2  0  0  3  0  0  0  0  0  0
  195.2650  175.8490  136.0180 N   0  0  0  0  0  1  0  0  0  0  0  0
  190.2050  176.1190  139.2360 C   0  0  1  0  0  3  0  0  0  0  0  0
  188.3520  175.8520  137.5360 C   0  0  1  0  0  3  0  0  0  0  0  0
  190.4990  177.1220  140.3510 C   0  0  1  0  0  3  0  0  0  0  0  0
  191.2920  174.6790  137.4760 C   0  0  0  0  0  0  0  0  0  0  0  0
  189.0820  176.6340  138.4930 N   0  0  1  0  0  0  0  0  0  0  0  0
  188.8490  174.7700  136.9150 C   0  0  0  0  0  3  0  0  0  0  0  0
  193.6710  174.2970  137.0380 N   0  0  0  0  0  0  0  0  0  0  0  0
  194.0840  175.6490  136.7830 C   0  0  0  0  0  0  0  0  0  0  0  0
  192.4860  173.8480  137.3190 C   0  0  0  0  0  3  0  0  0  0  0  0
  188.5710  177.8720  139.0490 C   0  0  0  0  0  2  0  0  0  0  0  0
  193.5010  176.7290  137.3080 C   0  0  0  0  0  3  0  0  0  0  0  0
  192.3160  176.8020  138.1730 C   0  0  0  0  0  3  0  0  0  0  0  0
  190.1830  174.2230  136.9670 N   0  0  0  0  0  0  0  0  0  0  0  0
  189.4680  178.2310  140.2250 C   0  0  1  0  0  3  0  0  0  0  0  0
  191.3470  175.8900  138.2990 C   0  0  1  0  0  3  0  0  0  0  0  0
  186.9930  176.2080  137.2200 C   0  0  0  0  0  0  0  0  0  0  0  0
  185.8560  176.5040  136.9500 C   0  0  0  0  0  0  0  0  0  0  0  0
  184.4730  176.8560  136.6130 C   0  0  0  0  0  2  0  0  0  0  0  0
  183.9710  177.9570  137.5300 C   0  0  0  0  0  2  0  0  0  0  0  0
  183.7770  177.4390  138.8750 N   0  0  0  0  0  2  0  0  0  0  0  0
  182.3570  179.4820  139.7890 O   0  0  0  0  0  0  0  0  0  0  0  0
  183.6840  178.7920  139.9510 S   0  0  0  0  0  0  0  0  0  0  0  0
  184.7910  179.7630  139.6480 O   0  0  0  0  0  0  0  0  0  0  0  0
  183.8570  178.2240  141.6280 C   0  0  0  0  0  2  0  0  0  0  0  0
  185.4110  178.3090  143.5470 C   0  0  0  0  0  1  0  0  0  0  0  0
  184.8650  179.0810  142.3670 C   0  0  0  0  0  2  0  0  0  0  0  0
  189.8110  177.7850  142.6310 C   0  0  0  0  0  2  0  0  0  0  0  0
  188.2640  176.1960  143.5650 N   0  0  0  0  0  2  0  0  0  0  0  0
  189.0010  177.2410  143.7560 C   0  0  0  0  0  0  0  0  0  0  0  0
  188.9830  177.9310  145.0090 N   0  0  0  0  0  2  0  0  0  0  0  0
  188.1500  177.5230  146.1300 C   0  0  0  0  0  2  0  0  0  0  0  0
  188.9910  176.8010  147.1690 C   0  0  0  0  0  2  0  0  0  0  0  0
  190.3920  177.3900  147.2170 C   0  0  0  0  0  2  0  0  0  0  0  0
  191.4450  176.3140  147.0030 C   0  0  1  0  0  3  0  0  0  0  0  0
  192.0410  176.4960  145.7690 F   0  0  0  0  0  0  0  0  0  0  0  0
  192.4170  176.3980  148.0010 O   0  0  0  0  0  1  0  0  0  0  0  0
  1 29  1  1  0  0  0
  2 10  1  0  0  0  0
  3  5  1  0  0  0  0
  4  7  1  0  0  0  0
  5  1  1  0  0  0  0
  6 17  1  0  0  0  0
  7 12  1  0  0  0  0
  7  3  1  0  0  0  0
  8 15  2  0  0  0  0
  8  4  1  0  0  0  0
  9 11  1  0  0  0  0
 10  9  2  0  0  0  0
 10 13  1  0  0  0  0
 11  6  2  0  0  0  0
 12 16  1  0  0  0  0
 13 14  2  0  0  0  0
 14 17  1  0  0  0  0
 15  6  1  0  0  0  0
 16  5  1  0  0  0  0
 16  1  1  0  0  0  0
 17  3  1  0  0  0  0
 18  4  1  0  0  0  0
 19 18  3  0  0  0  0
 20 19  1  0  0  0  0
 20 21  1  0  0  0  0
 21 22  1  0  0  0  0
 22 24  1  0  0  0  0
 23 24  2  0  0  0  0
 24 26  1  0  0  0  0
 25 24  2  0  0  0  0
 26 28  1  0  0  0  0
 28 27  1  0  0  0  0
 29 31  1  0  0  0  0
 30 31  2  0  0  0  0
 31 32  1  0  0  0  0
 32 33  1  0  0  0  0
 33 34  1  0  0  0  0
 34 35  1  0  0  0  0
 36 35  1  0  0  0  0
 36 38  1  0  0  0  0
 37 36  1  0  0  0  0
M  END
>  <MODEL>
3

>  <REMARK>
 VINA RESULT:      -7.1      2.916      6.182
  Name = 
  13 active torsions:
  status: ('A' for Active; 'I' for Inactive)
    1  A    between atoms: C_1  and  C_23
    2  A    between atoms: C_2  and  S_13
    3  A    between atoms: C_2  and  C_37
    4  A    between atoms: C_5  and  C_27
    5  A    between atoms: C_11  and  C_14
    6  A    between atoms: S_13  and  N_31
    7  A    between atoms: C_14  and  C_36
    8  A    between atoms: C_18  and  C_28
    9  A    between atoms: C_18  and  C_32
   10  A    between atoms: C_23  and  C_29
   11  A    between atoms: C_26  and  N_35
   12  A    between atoms: C_26  and  C_36
   13  A    between atoms: N_31  and  C_32
                            x       y       z     vdW  Elec       q    Type
                         _______ _______ _______ _____ _____    ______ ____

>  <TORSDO>
F 13

$$$$
=
 OpenBabel11042410353D

 38 41  0  0  1  0  0  0  0  0999 V2000
  184.4040  177.0110  138.0140 C   0  0  2  0  0  3  0  0  0  0  0  0
  179.1110  183.0370  138.8860 N   0  0  0  0  0  1  0  0  0  0  0  0
  182.8630  178.3830  139.4270 C   0  0  1  0  0  3  0  0  0  0  0  0
  183.7300  178.5340  141.7980 C   0  0  0  0  0  0  0  0  0  0  0  0
  183.5180  178.2420  138.0540 C   0  0  1  0  0  3  0  0  0  0  0  0
  180.9270  179.4460  140.6420 C   0  0  0  0  0  0  0  0  0  0  0  0
  183.9230  178.6110  140.3770 N   0  0  0  0  0  0  0  0  0  0  0  0
  182.5410  178.6780  142.4030 C   0  0  0  0  0  3  0  0  0  0  0  0
  179.0570  180.7440  139.7420 N   0  0  0  0  0  0  0  0  0  0  0  0
  179.7890  181.8090  139.1130 C   0  0  0  0  0  0  0  0  0  0  0  0
  179.5110  179.7320  140.4150 C   0  0  0  0  0  2  0  0  0  0  0  0
  185.2350  178.5850  139.7590 C   0  0  0  0  0  2  0  0  0  0  0  0
  181.0260  181.6890  138.6260 C   0  0  0  0  0  3  0  0  0  0  0  0
  181.9210  180.5260  138.6710 C   0  0  0  0  0  3  0  0  0  0  0  0
  181.2640  179.0280  141.8290 N   0  0  0  0  0  2  0  0  0  0  0  0
  185.0170  178.3760  138.2680 C   0  0  1  0  0  3  0  0  0  0  0  0
  181.8730  179.4980  139.5230 C   0  0  0  0  0  0  0  0  0  0  0  0
  184.8590  178.2630  142.6500 C   0  0  0  0  0  0  0  0  0  0  0  0
  185.7990  178.0350  143.3700 C   0  0  0  0  0  0  0  0  0  0  0  0
  186.9360  177.7510  144.2520 C   0  0  0  0  0  2  0  0  0  0  0  0
  187.9390  176.8560  143.5470 C   0  0  0  0  0  2  0  0  0  0  0  0
  188.9120  177.6650  142.8280 N   0  0  0  0  0  2  0  0  0  0  0  0
  190.6650  176.7250  141.0750 O   0  0  0  0  0  0  0  0  0  0  0  0
  190.3020  176.6750  142.5340 S   0  0  0  0  0  0  0  0  0  0  0  0
  190.0090  175.2540  142.9270 O   0  0  0  0  0  0  0  0  0  0  0  0
  191.6660  177.2730  143.5070 C   0  0  0  0  0  2  0  0  0  0  0  0
  191.6790  176.6030  145.8850 C   0  0  0  0  0  1  0  0  0  0  0  0
  191.1920  177.6410  144.8980 C   0  0  0  0  0  2  0  0  0  0  0  0
  184.6490  176.6180  136.5720 C   0  0  0  0  0  2  0  0  0  0  0  0
  186.1640  174.7830  136.9280 N   0  0  0  0  0  2  0  0  0  0  0  0
  185.9830  175.9680  136.4460 C   0  0  0  0  0  0  0  0  0  0  0  0
  187.0700  176.6980  135.8690 N   0  0  0  0  0  2  0  0  0  0  0  0
  188.4270  176.1770  135.7910 C   0  0  0  0  0  2  0  0  0  0  0  0
  189.4210  177.2510  136.1970 C   0  0  0  0  0  2  0  0  0  0  0  0
  189.4930  177.3600  137.7120 C   0  0  0  0  0  2  0  0  0  0  0  0
  188.6960  178.5540  138.2130 C   0  0  1  0  0  3  0  0  0  0  0  0
  189.0920  178.8610  139.5010 F   0  0  0  0  0  0  0  0  0  0  0  0
  188.9240  179.6550  137.3860 O   0  0  0  0  0  1  0  0  0  0  0  0
  1 29  1  6  0  0  0
  1  5  1  0  0  0  0
  1 16  1  0  0  0  0
  2 10  1  0  0  0  0
  3 17  1  6  0  0  0
  3  7  1  0  0  0  0
  4  8  2  0  0  0  0
  4 18  1  0  0  0  0
  5 16  1  0  0  0  0
  5  3  1  0  0  0  0
  6 15  1  0  0  0  0
  7  4  1  0  0  0  0
  9 11  1  0  0  0  0
 10  9  2  0  0  0  0
 11  6  1  0  0  0  0
 12  7  1  0  0  0  0
 13 14  2  0  0  0  0
 13 10  1  0  0  0  0
 14 17  1  0  0  0  0
 15  8  1  0  0  0  0
 16 12  1  0  0  0  0
 17  6  2  0  0  0  0
 18 19  3  0  0  0  0
 19 20  1  0  0  0  0
 21 20  1  0  0  0  0
 22 21  1  0  0  0  0
 23 24  2  0  0  0  0
 24 22  1  0  0  0  0
 24 25  2  0  0  0  0
 24 26  1  0  0  0  0
 26 28  1  0  0  0  0
 28 27  1  0  0  0  0
 31 29  1  0  0  0  0
 31 30  2  0  0  0  0
 32 31  1  0  0  0  0
 33 32  1  0  0  0  0
 33 34  1  0  0  0  0
 34 35  1  0  0  0  0
 35 36  1  0  0  0  0
 36 37  1  0  0  0  0
 38 36  1  0  0  0  0
M  END
>  <MODEL>
4

>  <REMARK>
 VINA RESULT:      -7.0      3.635      8.564
  Name = 
  13 active torsions:
  status: ('A' for Active; 'I' for Inactive)
    1  A    between atoms: C_1  and  C_23
    2  A    between atoms: C_2  and  S_13
    3  A    between atoms: C_2  and  C_37
    4  A    between atoms: C_5  and  C_27
    5  A    between atoms: C_11  and  C_14
    6  A    between atoms: S_13  and  N_31
    7  A    between atoms: C_14  and  C_36
    8  A    between atoms: C_18  and  C_28
    9  A    between atoms: C_18  and  C_32
   10  A    between atoms: C_23  and  C_29
   11  A    between atoms: C_26  and  N_35
   12  A    between atoms: C_26  and  C_36
   13  A    between atoms: N_31  and  C_32
                            x       y       z     vdW  Elec       q    Type
                         _______ _______ _______ _____ _____    ______ ____

>  <TORSDO>
F 13

$$$$
=
 OpenBabel11042410353D

 38 41  0  0  1  0  0  0  0  0999 V2000
  185.6060  178.9500  144.6970 C   0  0  2  0  0  3  0  0  0  0  0  0
  180.6590  177.0110  138.6260 N   0  0  0  0  0  1  0  0  0  0  0  0
  185.0970  178.7920  142.2540 C   0  0  1  0  0  3  0  0  0  0  0  0
  187.2110  178.3670  140.9320 C   0  0  1  0  0  3  0  0  0  0  0  0
  184.6240  178.4340  143.6620 C   0  0  1  0  0  3  0  0  0  0  0  0
  184.3160  179.0940  139.8760 C   0  0  0  0  0  0  0  0  0  0  0  0
  186.3340  178.0850  142.0340 N   0  0  1  0  0  0  0  0  0  0  0  0
  186.8200  178.9620  139.7940 C   0  0  0  0  0  3  0  0  0  0  0  0
  182.0450  178.9990  138.9670 N   0  0  0  0  0  0  0  0  0  0  0  0
  181.6910  177.6620  139.3550 C   0  0  0  0  0  0  0  0  0  0  0  0
  183.1610  179.6330  139.1590 C   0  0  0  0  0  3  0  0  0  0  0  0
  186.7510  177.3230  143.1950 C   0  0  0  0  0  2  0  0  0  0  0  0
  182.1830  177.0300  140.4230 C   0  0  0  0  0  3  0  0  0  0  0  0
  183.2040  177.4920  141.3720 C   0  0  0  0  0  3  0  0  0  0  0  0
  185.4930  179.3430  139.3750 N   0  0  0  0  0  0  0  0  0  0  0  0
  185.6700  177.5010  144.2510 C   0  0  1  0  0  3  0  0  0  0  0  0
  184.1300  178.4340  141.1720 C   0  0  1  0  0  3  0  0  0  0  0  0
  188.6070  178.0260  141.0350 C   0  0  0  0  0  0  0  0  0  0  0  0
  189.7730  177.7340  141.1210 C   0  0  0  0  0  0  0  0  0  0  0  0
  191.1900  177.3680  141.2230 C   0  0  0  0  0  2  0  0  0  0  0  0
  191.7220  176.9400  139.8680 C   0  0  0  0  0  2  0  0  0  0  0  0
  190.8280  175.9620  139.2660 N   0  0  0  0  0  2  0  0  0  0  0  0
  191.4740  174.1560  137.4360 O   0  0  0  0  0  0  0  0  0  0  0  0
  191.4030  175.6410  137.6650 S   0  0  0  0  0  0  0  0  0  0  0  0
  192.7690  176.2420  137.4830 O   0  0  0  0  0  0  0  0  0  0  0  0
  190.2900  176.3710  136.4840 C   0  0  0  0  0  2  0  0  0  0  0  0
  187.9070  176.8310  136.9500 C   0  0  0  0  0  1  0  0  0  0  0  0
  189.3240  177.3050  137.1860 C   0  0  0  0  0  2  0  0  0  0  0  0
  184.9180  179.0250  146.0450 C   0  0  0  0  0  2  0  0  0  0  0  0
  186.0030  180.0920  147.9080 N   0  0  0  0  0  2  0  0  0  0  0  0
  185.9370  179.0630  147.1300 C   0  0  0  0  0  0  0  0  0  0  0  0
  186.8860  177.9980  147.2420 N   0  0  0  0  0  2  0  0  0  0  0  0
  187.9720  177.9990  148.2110 C   0  0  0  0  0  2  0  0  0  0  0  0
  189.2890  177.6930  147.5170 C   0  0  0  0  0  2  0  0  0  0  0  0
  189.0370  177.1480  146.1200 C   0  0  0  0  0  2  0  0  0  0  0  0
  190.2080  177.4480  145.1970 C   0  0  1  0  0  3  0  0  0  0  0  0
  190.1250  178.7580  144.7650 F   0  0  0  0  0  0  0  0  0  0  0  0
  191.4090  177.2630  145.8820 O   0  0  0  0  0  1  0  0  0  0  0  0
  1 29  1  1  0  0  0
  2 10  1  0  0  0  0
  3  5  1  0  0  0  0
  4 18  1  0  0  0  0
  4  7  1  0  0  0  0
  5 16  1  0  0  0  0
  5  1  1  0  0  0  0
  6 17  1  0  0  0  0
  7  3  1  0  0  0  0
  7 12  1  0  0  0  0
  8  4  1  0  0  0  0
  9 11  1  0  0  0  0
  9 10  2  0  0  0  0
 10 13  1  0  0  0  0
 11  6  2  0  0  0  0
 12 16  1  0  0  0  0
 13 14  2  0  0  0  0
 15  8  2  0  0  0  0
 15  6  1  0  0  0  0
 16  1  1  0  0  0  0
 17 14  1  0  0  0  0
 17  3  1  0  0  0  0
 18 19  3  0  0  0  0
 19 20  1  0  0  0  0
 21 20  1  0  0  0  0
 22 21  1  0  0  0  0
 23 24  2  0  0  0  0
 24 22  1  0  0  0  0
 25 24  2  0  0  0  0
 26 28  1  0  0  0  0
 26 24  1  0  0  0  0
 27 28  1  0  0  0  0
 29 31  1  0  0  0  0
 31 32  1  0  0  0  0
 31 30  2  0  0  0  0
 32 33  1  0  0  0  0
 34 33  1  0  0  0  0
 35 34  1  0  0  0  0
 36 38  1  0  0  0  0
 36 35  1  0  0  0  0
 37 36  1  0  0  0  0
M  END
>  <MODEL>
5

>  <REMARK>
 VINA RESULT:      -6.8      3.341      8.683
  Name = 
  13 active torsions:
  status: ('A' for Active; 'I' for Inactive)
    1  A    between atoms: C_1  and  C_23
    2  A    between atoms: C_2  and  S_13
    3  A    between atoms: C_2  and  C_37
    4  A    between atoms: C_5  and  C_27
    5  A    between atoms: C_11  and  C_14
    6  A    between atoms: S_13  and  N_31
    7  A    between atoms: C_14  and  C_36
    8  A    between atoms: C_18  and  C_28
    9  A    between atoms: C_18  and  C_32
   10  A    between atoms: C_23  and  C_29
   11  A    between atoms: C_26  and  N_35
   12  A    between atoms: C_26  and  C_36
   13  A    between atoms: N_31  and  C_32
                            x       y       z     vdW  Elec       q    Type
                         _______ _______ _______ _____ _____    ______ ____

>  <TORSDO>
F 13

$$$$
=
 OpenBabel11042410353D

 38 41  0  0  1  0  0  0  0  0999 V2000
  189.2160  176.6430  142.6720 C   0  0  2  0  0  3  0  0  0  0  0  0
  194.3730  176.4850  136.4700 N   0  0  0  0  0  1  0  0  0  0  0  0
  189.6930  176.4160  140.2280 C   0  0  1  0  0  3  0  0  0  0  0  0
  187.7620  177.3070  138.8590 C   0  0  1  0  0  3  0  0  0  0  0  0
  190.2800  176.7530  141.5970 C   0  0  1  0  0  3  0  0  0  0  0  0
  190.3000  175.6780  137.8950 C   0  0  0  0  0  0  0  0  0  0  0  0
  188.7080  177.4260  139.9330 N   0  0  1  0  0  0  0  0  0  0  0  0
  187.9390  176.5200  137.7860 C   0  0  0  0  0  3  0  0  0  0  0  0
  192.4810  175.0250  136.9950 N   0  0  0  0  0  0  0  0  0  0  0  0
  193.2140  176.2320  137.2530 C   0  0  0  0  0  0  0  0  0  0  0  0
  191.2340  174.7620  137.2400 C   0  0  0  0  0  3  0  0  0  0  0  0
  188.5540  178.3820  141.0130 C   0  0  0  0  0  2  0  0  0  0  0  0
  192.9490  177.0780  138.2510 C   0  0  0  0  0  3  0  0  0  0  0  0
  191.8600  177.0230  139.2350 C   0  0  0  0  0  3  0  0  0  0  0  0
  189.0900  175.7330  137.4140 N   0  0  0  0  0  0  0  0  0  0  0  0
  189.5620  178.0000  142.0870 C   0  0  1  0  0  3  0  0  0  0  0  0
  190.6970  176.3750  139.1220 C   0  0  1  0  0  3  0  0  0  0  0  0
  186.5270  178.0460  138.9200 C   0  0  0  0  0  0  0  0  0  0  0  0
  185.4890  178.6580  138.9720 C   0  0  0  0  0  0  0  0  0  0  0  0
  184.2230  179.3940  139.0420 C   0  0  0  0  0  2  0  0  0  0  0  0
  183.1220  178.6160  138.3450 C   0  0  0  0  0  2  0  0  0  0  0  0
  182.9670  177.3070  138.9600 N   0  0  0  0  0  2  0  0  0  0  0  0
  181.9030  176.8500  136.5750 O   0  0  0  0  0  0  0  0  0  0  0  0
  182.6360  176.1690  137.6980 S   0  0  0  0  0  0  0  0  0  0  0  0
  181.7960  175.0430  138.2330 O   0  0  0  0  0  0  0  0  0  0  0  0
  184.1700  175.5050  137.0890 C   0  0  0  0  0  2  0  0  0  0  0  0
  184.2330  173.1230  136.4320 C   0  0  0  0  0  1  0  0  0  0  0  0
  184.3600  174.0870  137.5910 C   0  0  0  0  0  2  0  0  0  0  0  0
  189.8820  176.5010  144.0250 C   0  0  0  0  0  2  0  0  0  0  0  0
  189.5820  177.5220  146.1820 N   0  0  0  0  0  2  0  0  0  0  0  0
  189.0400  177.1410  145.0720 C   0  0  0  0  0  0  0  0  0  0  0  0
  187.6280  177.2490  144.8720 N   0  0  0  0  0  2  0  0  0  0  0  0
  186.7190  177.7750  145.8800 C   0  0  0  0  0  2  0  0  0  0  0  0
  185.5010  178.3900  145.2120 C   0  0  0  0  0  2  0  0  0  0  0  0
  185.6370  178.3240  143.6990 C   0  0  0  0  0  2  0  0  0  0  0  0
  184.3340  178.7050  143.0150 C   0  0  1  0  0  3  0  0  0  0  0  0
  184.0970  177.8380  141.9650 F   0  0  0  0  0  0  0  0  0  0  0  0
  183.2810  178.6240  143.9270 O   0  0  0  0  0  1  0  0  0  0  0  0
  1 29  1  1  0  0  0
  2 10  1  0  0  0  0
  3  5  1  0  0  0  0
  4 18  1  0  0  0  0
  4  7  1  0  0  0  0
  5 16  1  0  0  0  0
  5  1  1  0  0  0  0
  6 17  1  0  0  0  0
  7  3  1  0  0  0  0
  7 12  1  0  0  0  0
  8  4  1  0  0  0  0
  9 11  1  0  0  0  0
  9 10  2  0  0  0  0
 10 13  1  0  0  0  0
 11  6  2  0  0  0  0
 12 16  1  0  0  0  0
 13 14  2  0  0  0  0
 15  8  2  0  0  0  0
 15  6  1  0  0  0  0
 16  1  1  0  0  0  0
 17 14  1  0  0  0  0
 17  3  1  0  0  0  0
 18 19  3  0  0  0  0
 19 20  1  0  0  0  0
 21 22  1  0  0  0  0
 21 20  1  0  0  0  0
 23 24  2  0  0  0  0
 24 25  2  0  0  0  0
 24 22  1  0  0  0  0
 26 28  1  0  0  0  0
 26 24  1  0  0  0  0
 27 28  1  0  0  0  0
 29 31  1  0  0  0  0
 31 30  2  0  0  0  0
 32 31  1  0  0  0  0
 32 33  1  0  0  0  0
 34 33  1  0  0  0  0
 35 34  1  0  0  0  0
 36 35  1  0  0  0  0
 36 38  1  0  0  0  0
 37 36  1  0  0  0  0
M  END
>  <MODEL>
6

>  <REMARK>
 VINA RESULT:      -6.6      3.276      6.757
  Name = 
  13 active torsions:
  status: ('A' for Active; 'I' for Inactive)
    1  A    between atoms: C_1  and  C_23
    2  A    between atoms: C_2  and  S_13
    3  A    between atoms: C_2  and  C_37
    4  A    between atoms: C_5  and  C_27
    5  A    between atoms: C_11  and  C_14
    6  A    between atoms: S_13  and  N_31
    7  A    between atoms: C_14  and  C_36
    8  A    between atoms: C_18  and  C_28
    9  A    between atoms: C_18  and  C_32
   10  A    between atoms: C_23  and  C_29
   11  A    between atoms: C_26  and  N_35
   12  A    between atoms: C_26  and  C_36
   13  A    between atoms: N_31  and  C_32
                            x       y       z     vdW  Elec       q    Type
                         _______ _______ _______ _____ _____    ______ ____

>  <TORSDO>
F 13

$$$$
=
 OpenBabel11042410353D

 38 41  0  0  1  0  0  0  0  0999 V2000
  190.7040  176.5710  144.1320 C   0  0  2  0  0  3  0  0  0  0  0  0
  194.1710  177.1240  136.8680 N   0  0  0  0  0  1  0  0  0  0  0  0
  190.5580  176.6240  141.6360 C   0  0  1  0  0  3  0  0  0  0  0  0
  188.3760  177.6640  140.8950 C   0  0  1  0  0  3  0  0  0  0  0  0
  191.4740  176.8030  142.8460 C   0  0  1  0  0  3  0  0  0  0  0  0
  190.5520  176.1570  139.1590 C   0  0  0  0  0  0  0  0  0  0  0  0
  189.5600  177.6610  141.7080 N   0  0  1  0  0  0  0  0  0  0  0  0
  188.2610  177.0040  139.7320 C   0  0  0  0  0  3  0  0  0  0  0  0
  192.4250  175.6120  137.6800 N   0  0  0  0  0  0  0  0  0  0  0  0
  193.2330  176.7830  137.8810 C   0  0  0  0  0  0  0  0  0  0  0  0
  191.2700  175.3230  138.1960 C   0  0  0  0  0  3  0  0  0  0  0  0
  189.7030  178.4870  142.8910 C   0  0  0  0  0  2  0  0  0  0  0  0
  193.2450  177.5090  139.0010 C   0  0  0  0  0  3  0  0  0  0  0  0
  192.4310  177.3410  140.2120 C   0  0  0  0  0  3  0  0  0  0  0  0
  189.2630  176.2660  139.0020 N   0  0  0  0  0  0  0  0  0  0  0  0
  190.9330  177.9860  143.6330 C   0  0  1  0  0  3  0  0  0  0  0  0
  191.2580  176.7100  140.3180 C   0  0  1  0  0  3  0  0  0  0  0  0
  187.2140  178.3900  141.3420 C   0  0  0  0  0  0  0  0  0  0  0  0
  186.2440  179.0030  141.7110 C   0  0  0  0  0  0  0  0  0  0  0  0
  185.0640  179.7550  142.1510 C   0  0  0  0  0  2  0  0  0  0  0  0
  183.8820  178.8200  142.3330 C   0  0  0  0  0  2  0  0  0  0  0  0
  183.7810  177.9140  141.1990 N   0  0  0  0  0  2  0  0  0  0  0  0
  181.4190  179.1140  141.2850 O   0  0  0  0  0  0  0  0  0  0  0  0
  182.2570  178.2020  140.4310 S   0  0  0  0  0  0  0  0  0  0  0  0
  181.5320  176.9000  140.2300 O   0  0  0  0  0  0  0  0  0  0  0  0
  182.5320  178.9600  138.8450 C   0  0  0  0  0  2  0  0  0  0  0  0
  184.8430  178.2750  138.3030 C   0  0  0  0  0  1  0  0  0  0  0  0
  183.3830  178.0550  137.9760 C   0  0  0  0  0  2  0  0  0  0  0  0
  191.6790  176.2750  145.2530 C   0  0  0  0  0  2  0  0  0  0  0  0
  191.8450  176.7680  147.6020 N   0  0  0  0  0  2  0  0  0  0  0  0
  191.0890  176.6890  146.5570 C   0  0  0  0  0  0  0  0  0  0  0  0
  189.6790  176.9080  146.6530 N   0  0  0  0  0  2  0  0  0  0  0  0
  189.0060  177.2230  147.9050 C   0  0  0  0  0  2  0  0  0  0  0  0
  187.7420  178.0190  147.6310 C   0  0  0  0  0  2  0  0  0  0  0  0
  187.3330  177.8760  146.1740 C   0  0  0  0  0  2  0  0  0  0  0  0
  185.8410  178.1120  145.9990 C   0  0  1  0  0  3  0  0  0  0  0  0
  185.2160  178.0180  147.2290 F   0  0  0  0  0  0  0  0  0  0  0  0
  185.6220  179.3830  145.4670 O   0  0  0  0  0  1  0  0  0  0  0  0
  1 29  1  1  0  0  0
  2 10  1  0  0  0  0
  3  7  1  0  0  0  0
  3  5  1  0  0  0  0
  4 18  1  0  0  0  0
  4  7  1  0  0  0  0
  5 16  1  0  0  0  0
  5  1  1  0  0  0  0
  6 17  1  0  0  0  0
  7 12  1  0  0  0  0
  8  4  1  0  0  0  0
  9 10  2  0  0  0  0
  9 11  1  0  0  0  0
 10 13  1  0  0  0  0
 11  6  2  0  0  0  0
 12 16  1  0  0  0  0
 13 14  2  0  0  0  0
 14 17  1  0  0  0  0
 15  6  1  0  0  0  0
 15  8  2  0  0  0  0
 16  1  1  0  0  0  0
 17  3  1  0  0  0  0
 18 19  3  0  0  0  0
 19 20  1  0  0  0  0
 20 21  1  0  0  0  0
 22 21  1  0  0  0  0
 24 22  1  0  0  0  0
 24 23  2  0  0  0  0
 25 24  2  0  0  0  0
 26 24  1  0  0  0  0
 28 27  1  0  0  0  0
 28 26  1  0  0  0  0
 29 31  1  0  0  0  0
 31 32  1  0  0  0  0
 31 30  2  0  0  0  0
 32 33  1  0  0  0  0
 34 33  1  0  0  0  0
 35 34  1  0  0  0  0
 36 35  1  0  0  0  0
 36 37  1  0  0  0  0
 38 36  1  0  0  0  0
M  END
>  <MODEL>
7

>  <REMARK>
 VINA RESULT:      -6.6      2.725      6.665
  Name = 
  13 active torsions:
  status: ('A' for Active; 'I' for Inactive)
    1  A    between atoms: C_1  and  C_23
    2  A    between atoms: C_2  and  S_13
    3  A    between atoms: C_2  and  C_37
    4  A    between atoms: C_5  and  C_27
    5  A    between atoms: C_11  and  C_14
    6  A    between atoms: S_13  and  N_31
    7  A    between atoms: C_14  and  C_36
    8  A    between atoms: C_18  and  C_28
    9  A    between atoms: C_18  and  C_32
   10  A    between atoms: C_23  and  C_29
   11  A    between atoms: C_26  and  N_35
   12  A    between atoms: C_26  and  C_36
   13  A    between atoms: N_31  and  C_32
                            x       y       z     vdW  Elec       q    Type
                         _______ _______ _______ _____ _____    ______ ____

>  <TORSDO>
F 13

$$$$
=
 OpenBabel11042410353D

 38 41  0  0  1  0  0  0  0  0999 V2000
  184.6250  177.0750  138.1330 C   0  0  2  0  0  3  0  0  0  0  0  0
  179.0920  182.9020  138.8590 N   0  0  0  0  0  1  0  0  0  0  0  0
  182.9860  178.3790  139.5000 C   0  0  1  0  0  3  0  0  0  0  0  0
  183.7620  178.5400  141.9020 C   0  0  1  0  0  3  0  0  0  0  0  0
  183.6950  178.2740  138.1500 C   0  0  1  0  0  3  0  0  0  0  0  0
  180.9710  179.3630  140.6530 C   0  0  0  0  0  0  0  0  0  0  0  0
  184.0030  178.6360  140.4890 N   0  0  1  0  0  0  0  0  0  0  0  0
  182.5470  178.6360  142.4640 C   0  0  0  0  0  3  0  0  0  0  0  0
  179.0900  180.6020  139.6940 N   0  0  0  0  0  0  0  0  0  0  0  0
  179.8050  181.6970  139.1010 C   0  0  0  0  0  0  0  0  0  0  0  0
  179.5550  179.6000  140.3760 C   0  0  0  0  0  2  0  0  0  0  0  0
  185.3360  178.6620  139.9200 C   0  0  0  0  0  2  0  0  0  0  0  0
  181.0630  181.6260  138.6580 C   0  0  0  0  0  3  0  0  0  0  0  0
  181.9960  180.4940  138.7270 C   0  0  0  0  0  3  0  0  0  0  0  0
  181.2790  178.9460  141.8480 N   0  0  0  0  0  0  0  0  0  0  0  0
  185.1790  178.4590  138.4200 C   0  0  1  0  0  3  0  0  0  0  0  0
  181.9540  179.4580  139.5690 C   0  0  0  0  0  0  0  0  0  0  0  0
  184.8680  178.3010  142.7930 C   0  0  0  0  0  0  0  0  0  0  0  0
  185.7900  178.1050  143.5440 C   0  0  0  0  0  0  0  0  0  0  0  0
  186.9060  177.8680  144.4660 C   0  0  0  0  0  2  0  0  0  0  0  0
  187.9450  176.9710  143.8170 C   0  0  0  0  0  2  0  0  0  0  0  0
  188.7910  177.7510  142.9260 N   0  0  0  0  0  2  0  0  0  0  0  0
  191.1860  177.4840  141.8200 O   0  0  0  0  0  0  0  0  0  0  0  0
  190.4010  177.1250  143.0510 S   0  0  0  0  0  0  0  0  0  0  0  0
  190.3560  175.6290  143.1970 O   0  0  0  0  0  0  0  0  0  0  0  0
  191.1920  177.8210  144.4850 C   0  0  0  0  0  2  0  0  0  0  0  0
  190.1880  177.0690  146.6140 C   0  0  0  0  0  1  0  0  0  0  0  0
  191.2670  176.7880  145.5920 C   0  0  0  0  0  2  0  0  0  0  0  0
  184.9360  176.7040  136.6980 C   0  0  0  0  0  2  0  0  0  0  0  0
  186.5860  174.9800  137.0000 N   0  0  0  0  0  2  0  0  0  0  0  0
  186.3270  176.1820  136.6020 C   0  0  0  0  0  0  0  0  0  0  0  0
  187.3740  177.0460  136.1510 N   0  0  0  0  0  2  0  0  0  0  0  0
  188.7740  176.6490  136.1150 C   0  0  0  0  0  2  0  0  0  0  0  0
  189.4780  177.1080  137.3800 C   0  0  0  0  0  2  0  0  0  0  0  0
  190.1790  175.9360  138.0500 C   0  0  0  0  0  2  0  0  0  0  0  0
  191.4980  175.6230  137.3620 C   0  0  1  0  0  3  0  0  0  0  0  0
  192.3360  176.7190  137.4580 F   0  0  0  0  0  0  0  0  0  0  0  0
  192.1030  174.5260  137.9750 O   0  0  0  0  0  1  0  0  0  0  0  0
  1 29  1  6  0  0  0
  1  5  1  0  0  0  0
  1 16  1  0  0  0  0
  2 10  1  0  0  0  0
  3 17  1  6  0  0  0
  3  7  1  0  0  0  0
  4  8  1  0  0  0  0
  4 18  1  6  0  0  0
  5 16  1  0  0  0  0
  5  3  1  0  0  0  0
  6 15  1  0  0  0  0
  7  4  1  0  0  0  0
  9 11  1  0  0  0  0
 10  9  2  0  0  0  0
 11  6  1  0  0  0  0
 12  7  1  0  0  0  0
 13 14  2  0  0  0  0
 13 10  1  0  0  0  0
 14 17  1  0  0  0  0
 15  8  2  0  0  0  0
 16 12  1  0  0  0  0
 17  6  2  0  0  0  0
 18 19  3  0  0  0  0
 19 20  1  0  0  0  0
 21 20  1  0  0  0  0
 22 24  1  0  0  0  0
 22 21  1  0  0  0  0
 23 24  2  0  0  0  0
 24 25  2  0  0  0  0
 24 26  1  0  0  0  0
 26 28  1  0  0  0  0
 28 27  1  0  0  0  0
 31 29  1  0  0  0  0
 31 30  2  0  0  0  0
 32 31  1  0  0  0  0
 33 32  1  0  0  0  0
 33 34  1  0  0  0  0
 34 35  1  0  0  0  0
 36 37  1  0  0  0  0
 36 38  1  0  0  0  0
 36 35  1  0  0  0  0
M  END
>  <MODEL>
8

>  <REMARK>
 VINA RESULT:      -6.5      3.699      8.617
  Name = 
  13 active torsions:
  status: ('A' for Active; 'I' for Inactive)
    1  A    between atoms: C_1  and  C_23
    2  A    between atoms: C_2  and  S_13
    3  A    between atoms: C_2  and  C_37
    4  A    between atoms: C_5  and  C_27
    5  A    between atoms: C_11  and  C_14
    6  A    between atoms: S_13  and  N_31
    7  A    between atoms: C_14  and  C_36
    8  A    between atoms: C_18  and  C_28
    9  A    between atoms: C_18  and  C_32
   10  A    between atoms: C_23  and  C_29
   11  A    between atoms: C_26  and  N_35
   12  A    between atoms: C_26  and  C_36
   13  A    between atoms: N_31  and  C_32
                            x       y       z     vdW  Elec       q    Type
                         _______ _______ _______ _____ _____    ______ ____

>  <TORSDO>
F 13

$$$$
=
 OpenBabel11042410353D

 38 41  0  0  1  0  0  0  0  0999 V2000
  188.7120  177.4430  140.6680 C   0  0  2  0  0  3  0  0  0  0  0  0
  195.2200  175.5450  136.2930 N   0  0  0  0  0  1  0  0  0  0  0  0
  189.7940  176.2290  138.7680 C   0  0  1  0  0  3  0  0  0  0  0  0
  188.1770  175.9740  136.8400 C   0  0  1  0  0  3  0  0  0  0  0  0
  189.9910  177.2680  139.8700 C   0  0  1  0  0  3  0  0  0  0  0  0
  191.0260  174.6510  137.2350 C   0  0  0  0  0  0  0  0  0  0  0  0
  188.8130  176.7640  137.8560 N   0  0  1  0  0  0  0  0  0  0  0  0
  188.6900  174.8400  136.3390 C   0  0  0  0  0  3  0  0  0  0  0  0
  193.4160  174.1280  137.1460 N   0  0  0  0  0  0  0  0  0  0  0  0
  193.9360  175.4430  136.8950 C   0  0  0  0  0  0  0  0  0  0  0  0
  192.1800  173.7550  137.2790 C   0  0  0  0  0  3  0  0  0  0  0  0
  188.3030  178.0520  138.2850 C   0  0  0  0  0  2  0  0  0  0  0  0
  193.3500  176.5760  137.2900 C   0  0  0  0  0  3  0  0  0  0  0  0
  192.0650  176.7510  137.9790 C   0  0  0  0  0  3  0  0  0  0  0  0
  189.9720  174.2280  136.5970 N   0  0  0  0  0  0  0  0  0  0  0  0
  189.0510  178.4210  139.5580 C   0  0  1  0  0  3  0  0  0  0  0  0
  191.0380  175.8970  138.0080 C   0  0  1  0  0  3  0  0  0  0  0  0
  186.8950  176.3840  136.3260 C   0  0  0  0  0  0  0  0  0  0  0  0
  185.8210  176.7200  135.8930 C   0  0  0  0  0  0  0  0  0  0  0  0
  184.5120  177.1190  135.3670 C   0  0  0  0  0  2  0  0  0  0  0  0
  183.4110  176.3090  136.0260 C   0  0  0  0  0  2  0  0  0  0  0  0
  182.5080  177.1900  136.7520 N   0  0  0  0  0  2  0  0  0  0  0  0
  183.2240  175.3570  138.5280 O   0  0  0  0  0  0  0  0  0  0  0  0
  182.3560  176.5740  138.3630 S   0  0  0  0  0  0  0  0  0  0  0  0
  180.9240  176.2080  138.6360 O   0  0  0  0  0  0  0  0  0  0  0  0
  182.8620  177.8270  139.5210 C   0  0  0  0  0  2  0  0  0  0  0  0
  185.1050  178.7470  140.0010 C   0  0  0  0  0  1  0  0  0  0  0  0
  184.0200  178.6240  138.9540 C   0  0  0  0  0  2  0  0  0  0  0  0
  189.0380  178.0760  142.0040 C   0  0  0  0  0  2  0  0  0  0  0  0
  188.8160  176.0110  143.2180 N   0  0  0  0  0  2  0  0  0  0  0  0
  189.5490  177.0390  142.9430 C   0  0  0  0  0  0  0  0  0  0  0  0
  190.8080  177.2360  143.5930 N   0  0  0  0  0  2  0  0  0  0  0  0
  191.3390  176.3210  144.5930 C   0  0  0  0  0  2  0  0  0  0  0  0
  191.6770  177.0800  145.8650 C   0  0  0  0  0  2  0  0  0  0  0  0
  190.6970  176.7200  146.9710 C   0  0  0  0  0  2  0  0  0  0  0  0
  189.4750  177.6240  146.9340 C   0  0  1  0  0  3  0  0  0  0  0  0
  188.4630  176.9970  146.2330 F   0  0  0  0  0  0  0  0  0  0  0  0
  189.0420  177.8860  148.2340 O   0  0  0  0  0  1  0  0  0  0  0  0
  1 29  1  1  0  0  0
  2 10  1  0  0  0  0
  3  5  1  0  0  0  0
  4  7  1  0  0  0  0
  5  1  1  0  0  0  0
  6 11  2  0  0  0  0
  6 17  1  0  0  0  0
  7 12  1  0  0  0  0
  7  3  1  0  0  0  0
  8 15  2  0  0  0  0
  8  4  1  0  0  0  0
  9 11  1  0  0  0  0
 10  9  2  0  0  0  0
 10 13  1  0  0  0  0
 12 16  1  0  0  0  0
 13 14  2  0  0  0  0
 14 17  1  0  0  0  0
 15  6  1  0  0  0  0
 16  5  1  0  0  0  0
 16  1  1  0  0  0  0
 17  3  1  0  0  0  0
 18  4  1  0  0  0  0
 19 18  3  0  0  0  0
 20 19  1  0  0  0  0
 20 21  1  0  0  0  0
 21 22  1  0  0  0  0
 22 24  1  0  0  0  0
 24 23  2  0  0  0  0
 24 25  2  0  0  0  0
 24 26  1  0  0  0  0
 28 26  1  0  0  0  0
 28 27  1  0  0  0  0
 29 31  1  0  0  0  0
 31 30  2  0  0  0  0
 31 32  1  0  0  0  0
 32 33  1  0  0  0  0
 33 34  1  0  0  0  0
 34 35  1  0  0  0  0
 36 35  1  0  0  0  0
 36 38  1  0  0  0  0
 37 36  1  0  0  0  0
M  END
>  <MODEL>
9

>  <REMARK>
 VINA RESULT:      -6.4      3.140      6.791
  Name = 
  13 active torsions:
  status: ('A' for Active; 'I' for Inactive)
    1  A    between atoms: C_1  and  C_23
    2  A    between atoms: C_2  and  S_13
    3  A    between atoms: C_2  and  C_37
    4  A    between atoms: C_5  and  C_27
    5  A    between atoms: C_11  and  C_14
    6  A    between atoms: S_13  and  N_31
    7  A    between atoms: C_14  and  C_36
    8  A    between atoms: C_18  and  C_28
    9  A    between atoms: C_18  and  C_32
   10  A    between atoms: C_23  and  C_29
   11  A    between atoms: C_26  and  N_35
   12  A    between atoms: C_26  and  C_36
   13  A    between atoms: N_31  and  C_32
                            x       y       z     vdW  Elec       q    Type
                         _______ _______ _______ _____ _____    ______ ____

>  <TORSDO>
F 13

$$$$
