=
 OpenBabel11032419363D

 49 55  0  0  1  0  0  0  0  0999 V2000
  190.8160  175.1410  138.9760 O   0  0  0  0  0  0  0  0  0  0  0  0
  190.7230  175.2840  136.6670 N   0  0  0  0  0  0  0  0  0  0  0  0
  190.4830  175.8210  137.9670 C   0  0  0  0  0  0  0  0  0  0  0  0
  191.7530  176.3410  134.6600 C   0  0  0  0  0  1  0  0  0  0  0  0
  191.2080  174.1940  135.7590 C   0  0  0  0  0  2  0  0  0  0  0  0
  189.8800  177.1230  138.1250 N   0  0  0  0  0  0  0  0  0  0  0  0
  190.7310  175.3490  135.1800 C   0  0  1  0  0  0  0  0  0  0  0  0
  189.7740  177.7630  139.4460 C   0  0  1  0  0  3  0  0  0  0  0  0
  191.5340  176.9590  142.6250 N   0  0  0  0  0  2  0  0  0  0  0  0
  190.6430  177.1300  141.5200 C   0  0  0  0  0  0  0  0  0  0  0  0
  189.3930  176.8230  141.5840 N   0  0  0  0  0  0  0  0  0  0  0  0
  188.7210  177.0880  140.3270 C   0  0  0  0  0  2  0  0  0  0  0  0
  191.0830  177.6890  140.2230 C   0  0  0  0  0  2  0  0  0  0  0  0
  191.1140  176.4010  143.9040 C   0  0  0  0  0  2  0  0  0  0  0  0
  191.0520  177.4660  144.9490 C   0  0  0  0  0  0  0  0  0  0  0  0
  190.3910  178.5200  144.7350 O   0  0  0  0  0  0  0  0  0  0  0  0
  192.1270  175.9850  146.5950 C   0  0  0  0  0  1  0  0  0  0  0  0
  191.7160  177.2730  146.1610 O   0  0  0  0  0  0  0  0  0  0  0  0
  187.9710  177.2520  136.5960 C   0  0  0  0  0  2  0  0  0  0  0  0
  188.7280  179.1580  137.2240 C   0  0  0  0  0  2  0  0  0  0  0  0
  189.3500  177.7970  136.9300 C   0  0  1  0  0  3  0  0  0  0  0  0
  187.3530  178.6080  136.8910 C   0  0  2  0  0  3  0  0  0  0  0  0
  186.5430  178.5290  138.1100 C   0  0  0  0  0  0  0  0  0  0  0  0
  185.8790  178.4750  139.1160 C   0  0  0  0  0  0  0  0  0  0  0  0
  185.0780  178.4180  140.3400 C   0  0  0  0  0  2  0  0  0  0  0  0
  185.7480  179.1100  141.3860 O   0  0  0  0  0  0  0  0  0  0  0  0
  183.5510  179.1970  143.7330 S   0  0  0  0  0  0  0  0  0  0  0  0
  186.8200  177.5620  144.3010 C   0  0  0  0  0  3  0  0  0  0  0  0
  185.6110  177.9530  144.7690 N   0  0  0  0  0  0  0  0  0  0  0  0
  187.0090  177.9480  143.0210 N   0  0  0  0  0  2  0  0  0  0  0  0
  185.9180  178.5980  142.6620 N   0  0  0  0  0  0  0  0  0  0  0  0
  185.0750  178.5970  143.7150 C   0  0  0  0  0  0  0  0  0  0  0  0
  189.3290  175.3120  134.5940 C   0  0  0  0  0  2  0  0  0  0  0  0
  188.5920  174.1900  135.1500 N   0  0  0  0  0  2  0  0  0  0  0  0
  187.2480  174.2550  134.6020 C   0  0  0  0  0  2  0  0  0  0  0  0
  184.3120  174.8180  136.9410 C   0  0  0  0  0  0  0  0  0  0  0  0
  185.2210  174.9630  135.8780 C   0  0  0  0  0  3  0  0  0  0  0  0
  186.4020  172.9700  136.5740 C   0  0  0  0  0  3  0  0  0  0  0  0
  186.2600  174.0470  135.6940 C   0  0  0  0  0  0  0  0  0  0  0  0
  184.4570  173.7160  137.8050 C   0  0  0  0  0  3  0  0  0  0  0  0
  185.4970  172.8000  137.6250 C   0  0  0  0  0  3  0  0  0  0  0  0
  181.8180  175.6620  139.1560 C   0  0  0  0  0  2  0  0  0  0  0  0
  181.8170  175.2020  136.7760 C   0  0  2  0  0  0  0  0  0  0  0  0
  183.1010  176.2400  138.5710 C   0  0  0  0  0  2  0  0  0  0  0  0
  180.5290  175.9560  137.0360 C   0  0  0  0  0  2  0  0  0  0  0  0
  181.0540  174.9460  138.0520 C   0  0  2  0  0  3  0  0  0  0  0  0
  183.3760  177.0660  136.2540 C   0  0  0  0  0  1  0  0  0  0  0  0
  183.1770  175.8190  137.1110 C   0  0  1  0  0  0  0  0  0  0  0  0
  181.7270  174.1480  135.8630 O   0  0  0  0  0  1  0  0  0  0  0  0
  2  3  1  0  0  0  0
  3  6  1  0  0  0  0
  3  1  2  0  0  0  0
  5  2  1  0  0  0  0
  7  4  1  6  0  0  0
  7  5  1  0  0  0  0
  7  2  1  0  0  0  0
  8  6  1  6  0  0  0
  8 13  1  0  0  0  0
  8 12  1  0  0  0  0
  9 14  1  0  0  0  0
 10 11  2  0  0  0  0
 10  9  1  0  0  0  0
 12 11  1  0  0  0  0
 13 10  1  0  0  0  0
 14 15  1  0  0  0  0
 15 18  1  0  0  0  0
 16 15  2  0  0  0  0
 18 17  1  0  0  0  0
 19 22  1  0  0  0  0
 19 21  1  0  0  0  0
 21 20  1  0  0  0  0
 21  6  1  1  0  0  0
 22 20  1  0  0  0  0
 22 23  1  1  0  0  0
 23 24  3  0  0  0  0
 24 25  1  0  0  0  0
 25 26  1  0  0  0  0
 26 31  1  0  0  0  0
 28 29  2  0  0  0  0
 30 28  1  0  0  0  0
 31 30  1  0  0  0  0
 31 32  1  0  0  0  0
 32 27  2  0  0  0  0
 32 29  1  0  0  0  0
 33 34  1  0  0  0  0
 33  7  1  0  0  0  0
 35 34  1  0  0  0  0
 35 39  1  0  0  0  0
 36 48  1  0  0  0  0
 36 40  1  0  0  0  0
 37 36  2  0  0  0  0
 38 41  1  0  0  0  0
 39 37  1  0  0  0  0
 39 38  2  0  0  0  0
 41 40  2  0  0  0  0
 43 49  1  6  0  0  0
 43 45  1  0  0  0  0
 43 48  1  0  0  0  0
 43 46  1  0  0  0  0
 44 42  1  0  0  0  0
 46 45  1  6  0  0  0
 46 42  1  0  0  0  0
 48 47  1  6  0  0  0
 48 44  1  0  0  0  0
M  END
>  <MODEL>
1

>  <REMARK>
 VINA RESULT:      -6.9      0.000      0.000
  Name = 
  14 active torsions:
  status: ('A' for Active; 'I' for Inactive)
    1  A    between atoms: C_1  and  N_36
    2  A    between atoms: N_3  and  C_44
    3  A    between atoms: C_4  and  O_15
    4  A    between atoms: C_4  and  C_26
    5  A    between atoms: C_5  and  C_32
    6  A    between atoms: C_7  and  C_35
    7  A    between atoms: O_15  and  N_45
    8  A    between atoms: C_24  and  N_36
    9  A    between atoms: C_27  and  C_43
   10  A    between atoms: C_37  and  O_39
   11  A    between atoms: C_37  and  C_44
   12  A    between atoms: C_38  and  C_41
   13  A    between atoms: C_38  and  N_49
   14  A    between atoms: C_43  and  N_49
                            x       y       z     vdW  Elec       q    Type
                         _______ _______ _______ _____ _____    ______ ____

>  <TORSDO>
F 14

$$$$
=
 OpenBabel11032419363D

 49 55  0  0  1  0  0  0  0  0999 V2000
  190.6730  175.7800  140.2360 O   0  0  0  0  0  0  0  0  0  0  0  0
  191.4060  175.5040  138.0570 N   0  0  0  0  0  0  0  0  0  0  0  0
  190.6470  176.1990  139.0460 C   0  0  0  0  0  0  0  0  0  0  0  0
  192.9550  176.3810  136.3150 C   0  0  0  0  0  1  0  0  0  0  0  0
  192.3170  174.3900  137.6350 C   0  0  0  0  0  2  0  0  0  0  0  0
  189.8730  177.3650  138.6940 N   0  0  0  0  0  0  0  0  0  0  0  0
  191.9440  175.3130  136.6830 C   0  0  1  0  0  0  0  0  0  0  0  0
  189.2180  178.1890  139.7230 C   0  0  1  0  0  3  0  0  0  0  0  0
  189.6470  178.1600  143.4200 N   0  0  0  0  0  2  0  0  0  0  0  0
  189.2490  178.0250  142.0530 C   0  0  0  0  0  0  0  0  0  0  0  0
  188.0960  177.5620  141.7090 N   0  0  0  0  0  0  0  0  0  0  0  0
  187.9520  177.5260  140.2680 C   0  0  0  0  0  2  0  0  0  0  0  0
  190.1220  178.4230  140.9280 C   0  0  0  0  0  2  0  0  0  0  0  0
  188.7990  177.7630  144.5360 C   0  0  0  0  0  2  0  0  0  0  0  0
  189.6180  177.1660  145.6340 C   0  0  0  0  0  0  0  0  0  0  0  0
  189.1410  177.0800  146.7990 O   0  0  0  0  0  0  0  0  0  0  0  0
  191.8150  176.3460  146.3790 C   0  0  0  0  0  1  0  0  0  0  0  0
  190.9010  176.6970  145.3510 O   0  0  0  0  0  0  0  0  0  0  0  0
  188.5620  176.9510  136.6670 C   0  0  0  0  0  2  0  0  0  0  0  0
  188.9970  179.0210  137.0290 C   0  0  0  0  0  2  0  0  0  0  0  0
  189.7340  177.7070  137.2700 C   0  0  1  0  0  3  0  0  0  0  0  0
  187.8280  178.2600  136.4300 C   0  0  2  0  0  3  0  0  0  0  0  0
  186.6690  178.3480  137.3240 C   0  0  0  0  0  0  0  0  0  0  0  0
  185.7080  178.4210  138.0490 C   0  0  0  0  0  0  0  0  0  0  0  0
  184.5380  178.5130  138.9220 C   0  0  0  0  0  2  0  0  0  0  0  0
  184.7790  179.4620  139.9540 O   0  0  0  0  0  0  0  0  0  0  0  0
  181.9440  178.4910  141.1220 S   0  0  0  0  0  0  0  0  0  0  0  0
  184.8170  179.0070  143.3930 C   0  0  0  0  0  3  0  0  0  0  0  0
  183.5130  178.6930  143.2100 N   0  0  0  0  0  0  0  0  0  0  0  0
  185.4210  179.3320  142.2300 N   0  0  0  0  0  2  0  0  0  0  0  0
  184.5000  179.2330  141.2910 N   0  0  0  0  0  0  0  0  0  0  0  0
  183.3510  178.8440  141.8820 C   0  0  0  0  0  0  0  0  0  0  0  0
  190.8660  174.9030  135.6940 C   0  0  0  0  0  2  0  0  0  0  0  0
  190.2140  173.6880  136.1500 N   0  0  0  0  0  2  0  0  0  0  0  0
  190.1290  172.7980  135.0040 C   0  0  0  0  0  2  0  0  0  0  0  0
  186.4210  172.0980  135.4070 C   0  0  0  0  0  0  0  0  0  0  0  0
  187.6510  172.7720  135.3110 C   0  0  0  0  0  3  0  0  0  0  0  0
  188.7930  170.6890  134.8530 C   0  0  0  0  0  3  0  0  0  0  0  0
  188.8300  172.0740  135.0370 C   0  0  0  0  0  0  0  0  0  0  0  0
  186.3980  170.7060  135.1980 C   0  0  0  0  0  3  0  0  0  0  0  0
  187.5760  170.0050  134.9270 C   0  0  0  0  0  3  0  0  0  0  0  0
  185.2720  175.3360  135.5780 C   0  0  0  0  0  2  0  0  0  0  0  0
  185.1330  173.4600  137.1070 C   0  0  2  0  0  0  0  0  0  0  0  0
  185.0780  174.0740  134.7470 C   0  0  0  0  0  2  0  0  0  0  0  0
  184.0480  174.4180  137.5530 C   0  0  0  0  0  2  0  0  0  0  0  0
  185.3860  174.9470  137.0440 C   0  0  2  0  0  3  0  0  0  0  0  0
  183.8920  172.0340  135.4940 C   0  0  0  0  0  1  0  0  0  0  0  0
  185.1460  172.8820  135.6890 C   0  0  1  0  0  0  0  0  0  0  0  0
  185.8410  172.8270  138.1320 O   0  0  0  0  0  1  0  0  0  0  0  0
  2  3  1  0  0  0  0
  3  1  2  0  0  0  0
  5  2  1  0  0  0  0
  6  3  1  0  0  0  0
  7  4  1  6  0  0  0
  7  5  1  0  0  0  0
  7  2  1  0  0  0  0
  8  6  1  6  0  0  0
  8 12  1  0  0  0  0
  8 13  1  0  0  0  0
  9 14  1  0  0  0  0
 10  9  1  0  0  0  0
 11 10  2  0  0  0  0
 12 11  1  0  0  0  0
 13 10  1  0  0  0  0
 14 15  1  0  0  0  0
 15 16  2  0  0  0  0
 18 15  1  0  0  0  0
 18 17  1  0  0  0  0
 19 21  1  0  0  0  0
 20 21  1  0  0  0  0
 21  6  1  1  0  0  0
 22 19  1  0  0  0  0
 22 20  1  0  0  0  0
 22 23  1  1  0  0  0
 23 24  3  0  0  0  0
 24 25  1  0  0  0  0
 25 26  1  0  0  0  0
 26 31  1  0  0  0  0
 27 32  2  0  0  0  0
 29 28  2  0  0  0  0
 30 28  1  0  0  0  0
 31 32  1  0  0  0  0
 31 30  1  0  0  0  0
 32 29  1  0  0  0  0
 33 34  1  0  0  0  0
 33  7  1  0  0  0  0
 35 39  1  0  0  0  0
 35 34  1  0  0  0  0
 36 48  1  0  0  0  0
 37 36  1  0  0  0  0
 38 41  2  0  0  0  0
 38 39  1  0  0  0  0
 39 37  2  0  0  0  0
 40 36  2  0  0  0  0
 41 40  1  0  0  0  0
 43 45  1  0  0  0  0
 43 49  1  1  0  0  0
 44 42  1  0  0  0  0
 44 48  1  0  0  0  0
 46 42  1  6  0  0  0
 46 43  1  0  0  0  0
 46 45  1  0  0  0  0
 48 47  1  6  0  0  0
 48 43  1  0  0  0  0
M  END
>  <MODEL>
2

>  <REMARK>
 VINA RESULT:      -6.5      1.887      2.750
  Name = 
  14 active torsions:
  status: ('A' for Active; 'I' for Inactive)
    1  A    between atoms: C_1  and  N_36
    2  A    between atoms: N_3  and  C_44
    3  A    between atoms: C_4  and  O_15
    4  A    between atoms: C_4  and  C_26
    5  A    between atoms: C_5  and  C_32
    6  A    between atoms: C_7  and  C_35
    7  A    between atoms: O_15  and  N_45
    8  A    between atoms: C_24  and  N_36
    9  A    between atoms: C_27  and  C_43
   10  A    between atoms: C_37  and  O_39
   11  A    between atoms: C_37  and  C_44
   12  A    between atoms: C_38  and  C_41
   13  A    between atoms: C_38  and  N_49
   14  A    between atoms: C_43  and  N_49
                            x       y       z     vdW  Elec       q    Type
                         _______ _______ _______ _____ _____    ______ ____

>  <TORSDO>
F 14

$$$$
=
 OpenBabel11032419363D

 49 55  0  0  1  0  0  0  0  0999 V2000
  185.8330  178.8320  139.2700 O   0  0  0  0  0  0  0  0  0  0  0  0
  187.3350  178.2140  137.6190 N   0  0  0  0  0  0  0  0  0  0  0  0
  186.0320  178.1890  138.2020 C   0  0  0  0  0  0  0  0  0  0  0  0
  188.0300  178.6120  135.2600 C   0  0  0  0  0  1  0  0  0  0  0  0
  188.7720  178.6410  137.6190 C   0  0  0  0  0  2  0  0  0  0  0  0
  184.9610  177.4520  137.5770 N   0  0  0  0  0  0  0  0  0  0  0  0
  188.3260  177.8850  136.5580 C   0  0  1  0  0  0  0  0  0  0  0  0
  183.5770  177.5470  138.0680 C   0  0  1  0  0  3  0  0  0  0  0  0
  182.2340  179.2970  141.0660 N   0  0  0  0  0  2  0  0  0  0  0  0
  182.7270  178.3940  140.0730 C   0  0  0  0  0  0  0  0  0  0  0  0
  182.6750  177.1140  140.2130 N   0  0  0  0  0  0  0  0  0  0  0  0
  183.2460  176.4360  139.0670 C   0  0  0  0  0  2  0  0  0  0  0  0
  183.3190  178.8590  138.8000 C   0  0  0  0  0  2  0  0  0  0  0  0
  181.6570  178.8520  142.3270 C   0  0  0  0  0  2  0  0  0  0  0  0
  182.6980  178.8090  143.3970 C   0  0  0  0  0  0  0  0  0  0  0  0
  182.4020  179.1460  144.5770 O   0  0  0  0  0  0  0  0  0  0  0  0
  185.0560  179.2970  142.8880 C   0  0  0  0  0  1  0  0  0  0  0  0
  183.9870  178.3810  143.0790 O   0  0  0  0  0  0  0  0  0  0  0  0
  184.0900  175.7040  136.0980 C   0  0  0  0  0  2  0  0  0  0  0  0
  185.1490  177.2710  135.0840 C   0  0  0  0  0  2  0  0  0  0  0  0
  185.2850  176.5800  136.4370 C   0  0  1  0  0  3  0  0  0  0  0  0
  183.9550  176.3940  134.7520 C   0  0  2  0  0  3  0  0  0  0  0  0
  182.7350  177.2060  134.7320 C   0  0  0  0  0  0  0  0  0  0  0  0
  181.7370  177.8850  134.7130 C   0  0  0  0  0  0  0  0  0  0  0  0
  180.5320  178.7150  134.6920 C   0  0  0  0  0  2  0  0  0  0  0  0
  180.8800  180.0740  134.9320 O   0  0  0  0  0  0  0  0  0  0  0  0
  180.6440  183.2600  135.3010 S   0  0  0  0  0  0  0  0  0  0  0  0
  180.2230  181.0100  138.2070 C   0  0  0  0  0  3  0  0  0  0  0  0
  180.2860  182.2630  137.6980 N   0  0  0  0  0  0  0  0  0  0  0  0
  180.4420  180.0740  137.2600 N   0  0  0  0  0  2  0  0  0  0  0  0
  180.6540  180.7250  136.1330 N   0  0  0  0  0  0  0  0  0  0  0  0
  180.5550  182.0450  136.3970 C   0  0  0  0  0  0  0  0  0  0  0  0
  188.6900  176.4100  136.5460 C   0  0  0  0  0  2  0  0  0  0  0  0
  190.1310  176.2570  136.6470 N   0  0  0  0  0  2  0  0  0  0  0  0
  190.3840  175.3640  137.7650 C   0  0  0  0  0  2  0  0  0  0  0  0
  190.9990  177.2590  140.9960 C   0  0  0  0  0  0  0  0  0  0  0  0
  190.3760  176.4980  139.9910 C   0  0  0  0  0  3  0  0  0  0  0  0
  192.4180  176.4860  138.6930 C   0  0  0  0  0  3  0  0  0  0  0  0
  191.0790  176.1140  138.8460 C   0  0  0  0  0  0  0  0  0  0  0  0
  192.3530  177.6070  140.8370 C   0  0  0  0  0  3  0  0  0  0  0  0
  193.0570  177.2260  139.6910 C   0  0  0  0  0  3  0  0  0  0  0  0
  191.5020  178.4270  144.1930 C   0  0  0  0  0  2  0  0  0  0  0  0
  190.2490  176.5500  143.3070 C   0  0  2  0  0  0  0  0  0  0  0  0
  190.8740  178.8690  142.8770 C   0  0  0  0  0  2  0  0  0  0  0  0
  189.6870  176.7850  144.6940 C   0  0  0  0  0  2  0  0  0  0  0  0
  191.1790  176.9580  144.4230 C   0  0  2  0  0  3  0  0  0  0  0  0
  188.7630  177.9900  141.9300 C   0  0  0  0  0  1  0  0  0  0  0  0
  190.2180  177.6510  142.2430 C   0  0  1  0  0  0  0  0  0  0  0  0
  190.3970  175.2130  142.9310 O   0  0  0  0  0  1  0  0  0  0  0  0
  2  5  1  0  0  0  0
  2  3  1  0  0  0  0
  3  1  2  0  0  0  0
  6  3  1  0  0  0  0
  7  4  1  6  0  0  0
  7  2  1  0  0  0  0
  7  5  1  0  0  0  0
  8  6  1  1  0  0  0
  8 13  1  0  0  0  0
  8 12  1  0  0  0  0
  9 14  1  0  0  0  0
 10 11  2  0  0  0  0
 10  9  1  0  0  0  0
 12 11  1  0  0  0  0
 13 10  1  0  0  0  0
 14 15  1  0  0  0  0
 15 16  2  0  0  0  0
 17 18  1  0  0  0  0
 18 15  1  0  0  0  0
 19 21  1  0  0  0  0
 20 21  1  0  0  0  0
 21  6  1  1  0  0  0
 22 23  1  1  0  0  0
 22 20  1  0  0  0  0
 22 19  1  0  0  0  0
 24 23  3  0  0  0  0
 25 24  1  0  0  0  0
 25 26  1  0  0  0  0
 26 31  1  0  0  0  0
 27 32  2  0  0  0  0
 29 28  2  0  0  0  0
 30 28  1  0  0  0  0
 31 32  1  0  0  0  0
 31 30  1  0  0  0  0
 32 29  1  0  0  0  0
 33  7  1  0  0  0  0
 33 34  1  0  0  0  0
 34 35  1  0  0  0  0
 35 39  1  0  0  0  0
 36 48  1  0  0  0  0
 37 36  2  0  0  0  0
 38 39  2  0  0  0  0
 38 41  1  0  0  0  0
 39 37  1  0  0  0  0
 40 36  1  0  0  0  0
 41 40  2  0  0  0  0
 43 49  1  6  0  0  0
 43 46  1  0  0  0  0
 43 45  1  0  0  0  0
 44 42  1  0  0  0  0
 46 42  1  6  0  0  0
 46 45  1  0  0  0  0
 48 47  1  6  0  0  0
 48 44  1  0  0  0  0
 48 43  1  0  0  0  0
M  END
>  <MODEL>
3

>  <REMARK>
 VINA RESULT:      -6.3      3.552      7.797
  Name = 
  14 active torsions:
  status: ('A' for Active; 'I' for Inactive)
    1  A    between atoms: C_1  and  N_36
    2  A    between atoms: N_3  and  C_44
    3  A    between atoms: C_4  and  O_15
    4  A    between atoms: C_4  and  C_26
    5  A    between atoms: C_5  and  C_32
    6  A    between atoms: C_7  and  C_35
    7  A    between atoms: O_15  and  N_45
    8  A    between atoms: C_24  and  N_36
    9  A    between atoms: C_27  and  C_43
   10  A    between atoms: C_37  and  O_39
   11  A    between atoms: C_37  and  C_44
   12  A    between atoms: C_38  and  C_41
   13  A    between atoms: C_38  and  N_49
   14  A    between atoms: C_43  and  N_49
                            x       y       z     vdW  Elec       q    Type
                         _______ _______ _______ _____ _____    ______ ____

>  <TORSDO>
F 14

$$$$
=
 OpenBabel11032419363D

 49 55  0  0  1  0  0  0  0  0999 V2000
  185.0640  178.2480  139.0490 O   0  0  0  0  0  0  0  0  0  0  0  0
  186.7340  177.9700  137.4690 N   0  0  0  0  0  0  0  0  0  0  0  0
  185.4270  177.6960  137.9740 C   0  0  0  0  0  0  0  0  0  0  0  0
  187.4670  178.5830  135.1690 C   0  0  0  0  0  1  0  0  0  0  0  0
  188.0720  178.6380  137.5660 C   0  0  0  0  0  2  0  0  0  0  0  0
  184.5330  176.8130  137.2640 N   0  0  0  0  0  0  0  0  0  0  0  0
  187.8190  177.8630  136.4570 C   0  0  1  0  0  0  0  0  0  0  0  0
  183.1310  176.6460  137.6780 C   0  0  1  0  0  3  0  0  0  0  0  0
  181.0930  178.6760  140.0400 N   0  0  0  0  0  2  0  0  0  0  0  0
  181.8980  177.7180  139.3480 C   0  0  0  0  0  0  0  0  0  0  0  0
  182.1660  176.5550  139.8370 N   0  0  0  0  0  0  0  0  0  0  0  0
  183.0030  175.7870  138.9370 C   0  0  0  0  0  2  0  0  0  0  0  0
  182.4720  177.9800  138.0100 C   0  0  0  0  0  2  0  0  0  0  0  0
  180.5310  178.4330  141.3620 C   0  0  0  0  0  2  0  0  0  0  0  0
  181.4160  178.9970  142.4240 C   0  0  0  0  0  0  0  0  0  0  0  0
  181.0840  180.0570  143.0230 O   0  0  0  0  0  0  0  0  0  0  0  0
  183.8620  178.9770  142.6920 C   0  0  0  0  0  1  0  0  0  0  0  0
  182.5990  178.3320  142.7510 O   0  0  0  0  0  0  0  0  0  0  0  0
  184.3700  174.7110  136.0180 C   0  0  0  0  0  2  0  0  0  0  0  0
  184.4410  176.4640  134.7840 C   0  0  0  0  0  2  0  0  0  0  0  0
  185.0630  176.0600  136.1160 C   0  0  1  0  0  3  0  0  0  0  0  0
  183.7500  175.1160  134.6920 C   0  0  2  0  0  3  0  0  0  0  0  0
  182.3030  175.2890  134.8530 C   0  0  0  0  0  0  0  0  0  0  0  0
  181.1110  175.4290  134.9740 C   0  0  0  0  0  0  0  0  0  0  0  0
  179.6640  175.6010  135.1110 C   0  0  0  0  0  2  0  0  0  0  0  0
  179.1250  174.5390  135.8870 O   0  0  0  0  0  0  0  0  0  0  0  0
  180.2730  172.0160  137.5170 S   0  0  0  0  0  0  0  0  0  0  0  0
  179.1960  175.0620  139.3170 C   0  0  0  0  0  3  0  0  0  0  0  0
  179.6710  173.7950  139.3430 N   0  0  0  0  0  0  0  0  0  0  0  0
  178.9340  175.4710  138.0570 N   0  0  0  0  0  2  0  0  0  0  0  0
  179.2370  174.4600  137.2660 N   0  0  0  0  0  0  0  0  0  0  0  0
  179.6850  173.4510  138.0420 C   0  0  0  0  0  0  0  0  0  0  0  0
  188.4350  176.4740  136.4170 C   0  0  0  0  0  2  0  0  0  0  0  0
  188.6900  176.0090  137.7690 N   0  0  0  0  0  2  0  0  0  0  0  0
  190.0490  175.4930  137.7890 C   0  0  0  0  0  2  0  0  0  0  0  0
  190.8970  177.2680  141.0350 C   0  0  0  0  0  0  0  0  0  0  0  0
  190.1980  176.5560  140.0440 C   0  0  0  0  0  3  0  0  0  0  0  0
  192.1630  176.5320  138.6320 C   0  0  0  0  0  3  0  0  0  0  0  0
  190.8250  176.1900  138.8500 C   0  0  0  0  0  0  0  0  0  0  0  0
  192.2490  177.5860  140.8090 C   0  0  0  0  0  3  0  0  0  0  0  0
  192.8770  177.2230  139.6140 C   0  0  0  0  0  3  0  0  0  0  0  0
  191.6110  178.3270  144.2290 C   0  0  0  0  0  2  0  0  0  0  0  0
  190.2620  176.5080  143.3630 C   0  0  2  0  0  0  0  0  0  0  0  0
  190.9200  178.8230  142.9650 C   0  0  0  0  0  2  0  0  0  0  0  0
  189.7860  176.7140  144.7870 C   0  0  0  0  0  2  0  0  0  0  0  0
  191.2640  176.8600  144.4360 C   0  0  2  0  0  3  0  0  0  0  0  0
  188.7370  178.0240  142.1170 C   0  0  0  0  0  1  0  0  0  0  0  0
  190.1980  177.6410  142.3350 C   0  0  1  0  0  0  0  0  0  0  0  0
  190.3550  175.1800  142.9420 O   0  0  0  0  0  1  0  0  0  0  0  0
  2  5  1  0  0  0  0
  2  3  1  0  0  0  0
  3  1  2  0  0  0  0
  6  3  1  0  0  0  0
  7  4  1  6  0  0  0
  7  2  1  0  0  0  0
  7  5  1  0  0  0  0
  8  6  1  1  0  0  0
  8 13  1  0  0  0  0
  8 12  1  0  0  0  0
  9 14  1  0  0  0  0
 10 11  2  0  0  0  0
 10  9  1  0  0  0  0
 12 11  1  0  0  0  0
 13 10  1  0  0  0  0
 14 15  1  0  0  0  0
 15 18  1  0  0  0  0
 15 16  2  0  0  0  0
 17 18  1  0  0  0  0
 19 21  1  0  0  0  0
 20 21  1  0  0  0  0
 21  6  1  1  0  0  0
 22 20  1  0  0  0  0
 22 23  1  1  0  0  0
 22 19  1  0  0  0  0
 23 24  3  0  0  0  0
 24 25  1  0  0  0  0
 25 26  1  0  0  0  0
 26 31  1  0  0  0  0
 27 32  2  0  0  0  0
 28 29  2  0  0  0  0
 30 28  1  0  0  0  0
 31 32  1  0  0  0  0
 31 30  1  0  0  0  0
 32 29  1  0  0  0  0
 33  7  1  0  0  0  0
 33 34  1  0  0  0  0
 34 35  1  0  0  0  0
 35 39  1  0  0  0  0
 36 48  1  0  0  0  0
 37 36  2  0  0  0  0
 38 39  2  0  0  0  0
 38 41  1  0  0  0  0
 39 37  1  0  0  0  0
 40 36  1  0  0  0  0
 41 40  2  0  0  0  0
 43 49  1  6  0  0  0
 43 46  1  0  0  0  0
 43 45  1  0  0  0  0
 44 42  1  0  0  0  0
 46 42  1  6  0  0  0
 46 45  1  0  0  0  0
 48 47  1  6  0  0  0
 48 44  1  0  0  0  0
 48 43  1  0  0  0  0
M  END
>  <MODEL>
4

>  <REMARK>
 VINA RESULT:      -6.2      3.546      8.220
  Name = 
  14 active torsions:
  status: ('A' for Active; 'I' for Inactive)
    1  A    between atoms: C_1  and  N_36
    2  A    between atoms: N_3  and  C_44
    3  A    between atoms: C_4  and  O_15
    4  A    between atoms: C_4  and  C_26
    5  A    between atoms: C_5  and  C_32
    6  A    between atoms: C_7  and  C_35
    7  A    between atoms: O_15  and  N_45
    8  A    between atoms: C_24  and  N_36
    9  A    between atoms: C_27  and  C_43
   10  A    between atoms: C_37  and  O_39
   11  A    between atoms: C_37  and  C_44
   12  A    between atoms: C_38  and  C_41
   13  A    between atoms: C_38  and  N_49
   14  A    between atoms: C_43  and  N_49
                            x       y       z     vdW  Elec       q    Type
                         _______ _______ _______ _____ _____    ______ ____

>  <TORSDO>
F 14

$$$$
=
 OpenBabel11032419363D

 49 55  0  0  1  0  0  0  0  0999 V2000
  185.9430  178.9600  139.4720 O   0  0  0  0  0  0  0  0  0  0  0  0
  187.1540  178.2890  137.6150 N   0  0  0  0  0  0  0  0  0  0  0  0
  185.9610  178.2950  138.4000 C   0  0  0  0  0  0  0  0  0  0  0  0
  187.4650  178.6330  135.1680 C   0  0  0  0  0  1  0  0  0  0  0  0
  188.5770  178.6940  137.3760 C   0  0  0  0  0  2  0  0  0  0  0  0
  184.7940  177.5630  137.9690 N   0  0  0  0  0  0  0  0  0  0  0  0
  187.9570  177.9260  136.4160 C   0  0  1  0  0  0  0  0  0  0  0  0
  183.5080  177.6870  138.6740 C   0  0  1  0  0  3  0  0  0  0  0  0
  182.7180  179.3780  141.8940 N   0  0  0  0  0  2  0  0  0  0  0  0
  183.0140  178.4930  140.8100 C   0  0  0  0  0  0  0  0  0  0  0  0
  182.9350  177.2120  140.9200 N   0  0  0  0  0  0  0  0  0  0  0  0
  183.2940  176.5540  139.6790 C   0  0  0  0  0  2  0  0  0  0  0  0
  183.4190  178.9810  139.4740 C   0  0  0  0  0  2  0  0  0  0  0  0
  182.3270  178.9090  143.2170 C   0  0  0  0  0  2  0  0  0  0  0  0
  183.4950  178.9210  144.1470 C   0  0  0  0  0  0  0  0  0  0  0  0
  183.3160  179.1200  145.3810 O   0  0  0  0  0  0  0  0  0  0  0  0
  185.8030  178.1140  144.4260 C   0  0  0  0  0  1  0  0  0  0  0  0
  184.7750  178.6960  143.6390 O   0  0  0  0  0  0  0  0  0  0  0  0
  184.0600  175.4300  137.0150 C   0  0  0  0  0  2  0  0  0  0  0  0
  184.0430  177.0680  135.6300 C   0  0  0  0  0  2  0  0  0  0  0  0
  184.9210  176.6650  136.8100 C   0  0  1  0  0  3  0  0  0  0  0  0
  183.1860  175.8330  135.8410 C   0  0  2  0  0  3  0  0  0  0  0  0
  181.8590  176.2280  136.3220 C   0  0  0  0  0  0  0  0  0  0  0  0
  180.7700  176.5650  136.7190 C   0  0  0  0  0  0  0  0  0  0  0  0
  179.4530  176.9820  137.2020 C   0  0  0  0  0  2  0  0  0  0  0  0
  179.6000  178.0040  138.1800 O   0  0  0  0  0  0  0  0  0  0  0  0
  179.5190  175.1340  139.6300 S   0  0  0  0  0  0  0  0  0  0  0  0
  179.2260  178.2370  141.6210 C   0  0  0  0  0  3  0  0  0  0  0  0
  179.2340  176.8850  141.5580 N   0  0  0  0  0  0  0  0  0  0  0  0
  179.3480  178.7960  140.3980 N   0  0  0  0  0  2  0  0  0  0  0  0
  179.4300  177.7980  139.5390 N   0  0  0  0  0  0  0  0  0  0  0  0
  179.3650  176.6460  140.2400 C   0  0  0  0  0  0  0  0  0  0  0  0
  188.2960  176.4450  136.3760 C   0  0  0  0  0  2  0  0  0  0  0  0
  189.7300  176.2640  136.5290 N   0  0  0  0  0  2  0  0  0  0  0  0
  189.9260  175.3840  137.6690 C   0  0  0  0  0  2  0  0  0  0  0  0
  190.7950  177.2260  140.8710 C   0  0  0  0  0  0  0  0  0  0  0  0
  190.0880  176.4980  139.8980 C   0  0  0  0  0  3  0  0  0  0  0  0
  192.0510  176.4190  138.4850 C   0  0  0  0  0  3  0  0  0  0  0  0
  190.7100  176.0970  138.7120 C   0  0  0  0  0  0  0  0  0  0  0  0
  192.1500  177.5230  140.6370 C   0  0  0  0  0  3  0  0  0  0  0  0
  192.7740  177.1260  139.4500 C   0  0  0  0  0  3  0  0  0  0  0  0
  191.5260  178.3150  144.0520 C   0  0  0  0  0  2  0  0  0  0  0  0
  190.1340  176.5180  143.2090 C   0  0  2  0  0  0  0  0  0  0  0  0
  190.8520  178.8090  142.7770 C   0  0  0  0  0  2  0  0  0  0  0  0
  189.6590  176.7580  144.6280 C   0  0  0  0  0  2  0  0  0  0  0  0
  191.1420  176.8610  144.2790 C   0  0  2  0  0  3  0  0  0  0  0  0
  188.6520  178.0520  141.9330 C   0  0  0  0  0  1  0  0  0  0  0  0
  190.1020  177.6360  142.1630 C   0  0  1  0  0  0  0  0  0  0  0  0
  190.1950  175.1810  142.8080 O   0  0  0  0  0  1  0  0  0  0  0  0
  2  3  1  0  0  0  0
  3  1  2  0  0  0  0
  5  2  1  0  0  0  0
  6  3  1  0  0  0  0
  7  4  1  6  0  0  0
  7  5  1  0  0  0  0
  7  2  1  0  0  0  0
  8  6  1  1  0  0  0
  8 13  1  0  0  0  0
  8 12  1  0  0  0  0
  9 14  1  0  0  0  0
 10 11  2  0  0  0  0
 10  9  1  0  0  0  0
 12 11  1  0  0  0  0
 13 10  1  0  0  0  0
 14 15  1  0  0  0  0
 15 16  2  0  0  0  0
 18 15  1  0  0  0  0
 18 17  1  0  0  0  0
 20 22  1  0  0  0  0
 20 21  1  0  0  0  0
 21 19  1  0  0  0  0
 21  6  1  1  0  0  0
 22 23  1  1  0  0  0
 22 19  1  0  0  0  0
 23 24  3  0  0  0  0
 24 25  1  0  0  0  0
 25 26  1  0  0  0  0
 26 31  1  0  0  0  0
 27 32  2  0  0  0  0
 29 28  2  0  0  0  0
 30 28  1  0  0  0  0
 31 32  1  0  0  0  0
 31 30  1  0  0  0  0
 32 29  1  0  0  0  0
 33  7  1  0  0  0  0
 33 34  1  0  0  0  0
 34 35  1  0  0  0  0
 35 39  1  0  0  0  0
 36 48  1  0  0  0  0
 37 36  2  0  0  0  0
 38 39  2  0  0  0  0
 38 41  1  0  0  0  0
 39 37  1  0  0  0  0
 40 36  1  0  0  0  0
 41 40  2  0  0  0  0
 43 49  1  6  0  0  0
 43 46  1  0  0  0  0
 43 45  1  0  0  0  0
 44 42  1  0  0  0  0
 46 42  1  6  0  0  0
 46 45  1  0  0  0  0
 48 47  1  6  0  0  0
 48 44  1  0  0  0  0
 48 43  1  0  0  0  0
M  END
>  <MODEL>
5

>  <REMARK>
 VINA RESULT:      -6.1      2.943      7.326
  Name = 
  14 active torsions:
  status: ('A' for Active; 'I' for Inactive)
    1  A    between atoms: C_1  and  N_36
    2  A    between atoms: N_3  and  C_44
    3  A    between atoms: C_4  and  O_15
    4  A    between atoms: C_4  and  C_26
    5  A    between atoms: C_5  and  C_32
    6  A    between atoms: C_7  and  C_35
    7  A    between atoms: O_15  and  N_45
    8  A    between atoms: C_24  and  N_36
    9  A    between atoms: C_27  and  C_43
   10  A    between atoms: C_37  and  O_39
   11  A    between atoms: C_37  and  C_44
   12  A    between atoms: C_38  and  C_41
   13  A    between atoms: C_38  and  N_49
   14  A    between atoms: C_43  and  N_49
                            x       y       z     vdW  Elec       q    Type
                         _______ _______ _______ _____ _____    ______ ____

>  <TORSDO>
F 14

$$$$
=
 OpenBabel11032419363D

 49 55  0  0  1  0  0  0  0  0999 V2000
  182.7710  179.0620  144.4840 O   0  0  0  0  0  0  0  0  0  0  0  0
  181.1470  178.7190  142.8690 N   0  0  0  0  0  0  0  0  0  0  0  0
  182.5100  178.8800  143.2630 C   0  0  0  0  0  0  0  0  0  0  0  0
  180.0980  177.0210  141.3790 C   0  0  0  0  0  1  0  0  0  0  0  0
  179.6810  178.6630  143.1800 C   0  0  0  0  0  2  0  0  0  0  0  0
  183.5700  178.8260  142.2850 N   0  0  0  0  0  0  0  0  0  0  0  0
  180.0710  178.4540  141.8760 C   0  0  1  0  0  0  0  0  0  0  0  0
  184.9850  178.8250  142.6880 C   0  0  1  0  0  3  0  0  0  0  0  0
  186.5930  177.3700  145.7130 N   0  0  0  0  0  2  0  0  0  0  0  0
  185.9980  178.1720  144.6890 C   0  0  0  0  0  0  0  0  0  0  0  0
  186.0020  179.4600  144.7280 N   0  0  0  0  0  0  0  0  0  0  0  0
  185.3290  180.0230  143.5750 C   0  0  0  0  0  2  0  0  0  0  0  0
  185.3470  177.5860  143.4980 C   0  0  0  0  0  2  0  0  0  0  0  0
  187.2300  177.9360  146.8950 C   0  0  0  0  0  2  0  0  0  0  0  0
  188.3930  177.1000  147.3190 C   0  0  0  0  0  0  0  0  0  0  0  0
  188.2720  176.2970  148.2860 O   0  0  0  0  0  0  0  0  0  0  0  0
  190.8490  176.9690  147.2580 C   0  0  0  0  0  1  0  0  0  0  0  0
  189.5990  177.2090  146.6280 O   0  0  0  0  0  0  0  0  0  0  0  0
  184.0720  179.7620  140.0780 C   0  0  0  0  0  2  0  0  0  0  0  0
  183.8360  177.6300  140.0990 C   0  0  0  0  0  2  0  0  0  0  0  0
  183.2040  178.7900  140.8600 C   0  0  1  0  0  3  0  0  0  0  0  0
  184.7020  178.6050  139.3220 C   0  0  2  0  0  3  0  0  0  0  0  0
  186.1030  178.4530  139.7260 C   0  0  0  0  0  0  0  0  0  0  0  0
  187.2530  178.3310  140.0690 C   0  0  0  0  0  0  0  0  0  0  0  0
  188.6470  178.1890  140.4930 C   0  0  0  0  0  2  0  0  0  0  0  0
  188.7040  177.9870  141.8990 O   0  0  0  0  0  0  0  0  0  0  0  0
  191.0070  179.2340  143.7660 S   0  0  0  0  0  0  0  0  0  0  0  0
  190.8180  175.5790  143.2300 C   0  0  0  0  0  3  0  0  0  0  0  0
  191.4420  176.6510  143.7730 N   0  0  0  0  0  0  0  0  0  0  0  0
  189.7580  175.9460  142.4790 N   0  0  0  0  0  2  0  0  0  0  0  0
  189.7000  177.2630  142.5330 N   0  0  0  0  0  0  0  0  0  0  0  0
  190.7140  177.6860  143.3160 C   0  0  0  0  0  0  0  0  0  0  0  0
  179.8920  179.6020  140.8980 C   0  0  0  0  0  2  0  0  0  0  0  0
  179.8380  179.0900  139.5400 N   0  0  0  0  0  2  0  0  0  0  0  0
  180.3820  180.1240  138.6760 C   0  0  0  0  0  2  0  0  0  0  0  0
  181.5520  177.6210  136.0720 C   0  0  0  0  0  0  0  0  0  0  0  0
  181.1440  178.1880  137.2930 C   0  0  0  0  0  3  0  0  0  0  0  0
  180.7560  180.3180  136.2100 C   0  0  0  0  0  3  0  0  0  0  0  0
  180.7490  179.5270  137.3630 C   0  0  0  0  0  0  0  0  0  0  0  0
  181.5330  178.4250  134.9170 C   0  0  0  0  0  3  0  0  0  0  0  0
  181.1410  179.7650  134.9860 C   0  0  0  0  0  3  0  0  0  0  0  0
  182.2540  174.9740  138.1540 C   0  0  0  0  0  2  0  0  0  0  0  0
  183.4540  175.9680  136.2970 C   0  0  2  0  0  0  0  0  0  0  0  0
  181.2260  175.3940  137.1100 C   0  0  0  0  0  2  0  0  0  0  0  0
  184.0520  174.5860  136.4640 C   0  0  0  0  0  2  0  0  0  0  0  0
  183.6360  175.4020  137.6850 C   0  0  2  0  0  3  0  0  0  0  0  0
  181.6290  175.5150  134.6710 C   0  0  0  0  0  1  0  0  0  0  0  0
  181.9600  176.1560  136.0170 C   0  0  1  0  0  0  0  0  0  0  0  0
  184.3600  176.9880  135.9980 O   0  0  0  0  0  1  0  0  0  0  0  0
  2  5  1  0  0  0  0
  2  3  1  0  0  0  0
  3  1  2  0  0  0  0
  6  3  1  0  0  0  0
  7  4  1  6  0  0  0
  7  2  1  0  0  0  0
  7  5  1  0  0  0  0
  8  6  1  1  0  0  0
  8 13  1  0  0  0  0
  8 12  1  0  0  0  0
  9 14  1  0  0  0  0
 10 11  2  0  0  0  0
 10  9  1  0  0  0  0
 12 11  1  0  0  0  0
 13 10  1  0  0  0  0
 14 15  1  0  0  0  0
 15 16  2  0  0  0  0
 18 17  1  0  0  0  0
 18 15  1  0  0  0  0
 19 21  1  0  0  0  0
 20 21  1  0  0  0  0
 21  6  1  1  0  0  0
 22 23  1  1  0  0  0
 22 19  1  0  0  0  0
 22 20  1  0  0  0  0
 23 24  3  0  0  0  0
 24 25  1  0  0  0  0
 25 26  1  0  0  0  0
 26 31  1  0  0  0  0
 28 29  2  0  0  0  0
 30 31  1  0  0  0  0
 30 28  1  0  0  0  0
 31 32  1  0  0  0  0
 32 27  2  0  0  0  0
 32 29  1  0  0  0  0
 33  7  1  0  0  0  0
 34 33  1  0  0  0  0
 35 34  1  0  0  0  0
 36 37  1  0  0  0  0
 37 39  2  0  0  0  0
 38 39  1  0  0  0  0
 39 35  1  0  0  0  0
 40 41  1  0  0  0  0
 40 36  2  0  0  0  0
 41 38  2  0  0  0  0
 43 49  1  6  0  0  0
 43 45  1  0  0  0  0
 43 46  1  0  0  0  0
 44 42  1  0  0  0  0
 46 45  1  6  0  0  0
 46 42  1  0  0  0  0
 48 47  1  6  0  0  0
 48 36  1  0  0  0  0
 48 43  1  0  0  0  0
 48 44  1  0  0  0  0
M  END
>  <MODEL>
6

>  <REMARK>
 VINA RESULT:      -6.1      3.330      6.872
  Name = 
  14 active torsions:
  status: ('A' for Active; 'I' for Inactive)
    1  A    between atoms: C_1  and  N_36
    2  A    between atoms: N_3  and  C_44
    3  A    between atoms: C_4  and  O_15
    4  A    between atoms: C_4  and  C_26
    5  A    between atoms: C_5  and  C_32
    6  A    between atoms: C_7  and  C_35
    7  A    between atoms: O_15  and  N_45
    8  A    between atoms: C_24  and  N_36
    9  A    between atoms: C_27  and  C_43
   10  A    between atoms: C_37  and  O_39
   11  A    between atoms: C_37  and  C_44
   12  A    between atoms: C_38  and  C_41
   13  A    between atoms: C_38  and  N_49
   14  A    between atoms: C_43  and  N_49
                            x       y       z     vdW  Elec       q    Type
                         _______ _______ _______ _____ _____    ______ ____

>  <TORSDO>
F 14

$$$$
=
 OpenBabel11032419363D

 49 55  0  0  1  0  0  0  0  0999 V2000
  186.2980  177.6600  139.2930 O   0  0  0  0  0  0  0  0  0  0  0  0
  184.1230  178.4580  139.2850 N   0  0  0  0  0  0  0  0  0  0  0  0
  185.3870  178.2670  139.9220 C   0  0  0  0  0  0  0  0  0  0  0  0
  182.7180  180.5050  139.0920 C   0  0  0  0  0  1  0  0  0  0  0  0
  183.1900  178.2780  138.1260 C   0  0  0  0  0  2  0  0  0  0  0  0
  185.6230  178.7690  141.2540 N   0  0  0  0  0  0  0  0  0  0  0  0
  182.7370  178.9930  139.2120 C   0  0  1  0  0  0  0  0  0  0  0  0
  186.9620  178.7280  141.8630 C   0  0  1  0  0  3  0  0  0  0  0  0
  190.2790  178.1640  140.2720 N   0  0  0  0  0  2  0  0  0  0  0  0
  189.0270  178.1120  140.9600 C   0  0  0  0  0  0  0  0  0  0  0  0
  188.6790  177.1090  141.6920 N   0  0  0  0  0  0  0  0  0  0  0  0
  187.3650  177.3090  142.2680 C   0  0  0  0  0  2  0  0  0  0  0  0
  188.0410  179.2120  140.9010 C   0  0  0  0  0  2  0  0  0  0  0  0
  191.2540  177.0820  140.3150 C   0  0  0  0  0  2  0  0  0  0  0  0
  191.3630  176.4170  138.9830 C   0  0  0  0  0  0  0  0  0  0  0  0
  190.4520  175.6350  138.5930 O   0  0  0  0  0  0  0  0  0  0  0  0
  193.4650  175.7010  137.9210 C   0  0  0  0  0  1  0  0  0  0  0  0
  192.4700  176.6820  138.1760 O   0  0  0  0  0  0  0  0  0  0  0  0
  183.9150  178.2410  142.9290 C   0  0  0  0  0  2  0  0  0  0  0  0
  184.8910  180.1280  143.2290 C   0  0  0  0  0  2  0  0  0  0  0  0
  184.4810  179.3090  142.0090 C   0  0  1  0  0  3  0  0  0  0  0  0
  184.3260  179.0560  144.1430 C   0  0  2  0  0  3  0  0  0  0  0  0
  185.4190  178.3800  144.8480 C   0  0  0  0  0  0  0  0  0  0  0  0
  186.3190  177.8330  145.4360 C   0  0  0  0  0  0  0  0  0  0  0  0
  187.4140  177.1770  146.1520 C   0  0  0  0  0  2  0  0  0  0  0  0
  188.6620  177.6170  145.6300 O   0  0  0  0  0  0  0  0  0  0  0  0
  191.4650  177.9460  144.0880 S   0  0  0  0  0  0  0  0  0  0  0  0
  191.3500  176.3530  147.4240 C   0  0  0  0  0  3  0  0  0  0  0  0
  192.0570  176.7370  146.3350 N   0  0  0  0  0  2  0  0  0  0  0  0
  190.0340  176.6210  147.2850 N   0  0  0  0  0  0  0  0  0  0  0  0
  189.8890  177.1760  146.0970 N   0  0  0  0  0  0  0  0  0  0  0  0
  191.1100  177.2480  145.5270 C   0  0  0  0  0  0  0  0  0  0  0  0
  181.7950  178.2870  140.1730 C   0  0  0  0  0  2  0  0  0  0  0  0
  180.5980  179.0880  140.3670 N   0  0  0  0  0  2  0  0  0  0  0  0
  179.5910  178.5700  139.4570 C   0  0  0  0  0  2  0  0  0  0  0  0
  179.7840  174.9470  138.3420 C   0  0  0  0  0  0  0  0  0  0  0  0
  179.8280  176.3520  138.3320 C   0  0  0  0  0  3  0  0  0  0  0  0
  179.3310  176.4150  140.7000 C   0  0  0  0  0  3  0  0  0  0  0  0
  179.6030  177.0830  139.5020 C   0  0  0  0  0  0  0  0  0  0  0  0
  179.5310  174.2900  139.5600 C   0  0  0  0  0  3  0  0  0  0  0  0
  179.3020  175.0180  140.7310 C   0  0  0  0  0  3  0  0  0  0  0  0
  180.2140  171.7220  137.2230 C   0  0  0  0  0  2  0  0  0  0  0  0
  181.5160  173.7470  136.9410 C   0  0  2  0  0  0  0  0  0  0  0  0
  179.2390  172.8840  137.0800 C   0  0  0  0  0  2  0  0  0  0  0  0
  181.9780  172.8200  135.8350 C   0  0  0  0  0  2  0  0  0  0  0  0
  181.6340  172.2680  137.2160 C   0  0  2  0  0  3  0  0  0  0  0  0
  179.6680  174.9670  135.8140 C   0  0  0  0  0  1  0  0  0  0  0  0
  180.0500  174.1720  137.0590 C   0  0  1  0  0  0  0  0  0  0  0  0
  182.5180  174.5000  137.5580 O   0  0  0  0  0  1  0  0  0  0  0  0
  1  3  2  0  0  0  0
  2  3  1  0  0  0  0
  3  6  1  0  0  0  0
  5  7  1  0  0  0  0
  5  2  1  0  0  0  0
  7  4  1  6  0  0  0
  7  2  1  0  0  0  0
  7 33  1  0  0  0  0
  8  6  1  6  0  0  0
  8 12  1  0  0  0  0
  9 14  1  0  0  0  0
  9 10  1  0  0  0  0
 10 11  2  0  0  0  0
 11 12  1  0  0  0  0
 13 10  1  0  0  0  0
 13  8  1  0  0  0  0
 15 14  1  0  0  0  0
 16 15  2  0  0  0  0
 17 18  1  0  0  0  0
 18 15  1  0  0  0  0
 19 22  1  0  0  0  0
 20 22  1  0  0  0  0
 21  6  1  1  0  0  0
 21 19  1  0  0  0  0
 21 20  1  0  0  0  0
 22 23  1  1  0  0  0
 23 24  3  0  0  0  0
 24 25  1  0  0  0  0
 26 31  1  0  0  0  0
 26 25  1  0  0  0  0
 27 32  2  0  0  0  0
 29 28  1  0  0  0  0
 30 28  2  0  0  0  0
 31 30  1  0  0  0  0
 32 31  1  0  0  0  0
 32 29  1  0  0  0  0
 33 34  1  0  0  0  0
 35 39  1  0  0  0  0
 35 34  1  0  0  0  0
 36 40  1  0  0  0  0
 37 36  2  0  0  0  0
 37 39  1  0  0  0  0
 38 41  1  0  0  0  0
 39 38  2  0  0  0  0
 40 41  2  0  0  0  0
 43 48  1  0  0  0  0
 43 46  1  0  0  0  0
 43 49  1  1  0  0  0
 44 42  1  0  0  0  0
 45 43  1  0  0  0  0
 46 45  1  6  0  0  0
 46 42  1  0  0  0  0
 48 47  1  6  0  0  0
 48 44  1  0  0  0  0
 48 36  1  0  0  0  0
M  END
>  <MODEL>
7

>  <REMARK>
 VINA RESULT:      -5.9      3.139      6.493
  Name = 
  14 active torsions:
  status: ('A' for Active; 'I' for Inactive)
    1  A    between atoms: C_1  and  N_36
    2  A    between atoms: N_3  and  C_44
    3  A    between atoms: C_4  and  O_15
    4  A    between atoms: C_4  and  C_26
    5  A    between atoms: C_5  and  C_32
    6  A    between atoms: C_7  and  C_35
    7  A    between atoms: O_15  and  N_45
    8  A    between atoms: C_24  and  N_36
    9  A    between atoms: C_27  and  C_43
   10  A    between atoms: C_37  and  O_39
   11  A    between atoms: C_37  and  C_44
   12  A    between atoms: C_38  and  C_41
   13  A    between atoms: C_38  and  N_49
   14  A    between atoms: C_43  and  N_49
                            x       y       z     vdW  Elec       q    Type
                         _______ _______ _______ _____ _____    ______ ____

>  <TORSDO>
F 14

$$$$
=
 OpenBabel11032419363D

 49 55  0  0  1  0  0  0  0  0999 V2000
  184.3970  178.2440  139.6220 O   0  0  0  0  0  0  0  0  0  0  0  0
  186.2930  178.0960  138.2990 N   0  0  0  0  0  0  0  0  0  0  0  0
  184.8890  177.9330  138.5020 C   0  0  0  0  0  0  0  0  0  0  0  0
  187.5290  179.1430  136.4070 C   0  0  0  0  0  1  0  0  0  0  0  0
  187.6610  178.4730  138.7840 C   0  0  0  0  0  2  0  0  0  0  0  0
  184.0460  177.4330  137.4430 N   0  0  0  0  0  0  0  0  0  0  0  0
  187.5310  178.0660  137.4750 C   0  0  1  0  0  0  0  0  0  0  0  0
  182.5800  177.4120  137.5750 C   0  0  1  0  0  3  0  0  0  0  0  0
  180.3520  179.5450  139.6570 N   0  0  0  0  0  2  0  0  0  0  0  0
  181.1690  178.5350  139.0600 C   0  0  0  0  0  0  0  0  0  0  0  0
  181.2120  177.3260  139.5040 N   0  0  0  0  0  0  0  0  0  0  0  0
  182.1210  176.5110  138.7220 C   0  0  0  0  0  2  0  0  0  0  0  0
  182.0150  178.7950  137.8740 C   0  0  0  0  0  2  0  0  0  0  0  0
  179.5210  179.3030  140.8300 C   0  0  0  0  0  2  0  0  0  0  0  0
  180.2090  179.7740  142.0690 C   0  0  0  0  0  0  0  0  0  0  0  0
  179.9470  180.9160  142.5380 O   0  0  0  0  0  0  0  0  0  0  0  0
  181.0880  178.7040  144.1030 C   0  0  0  0  0  1  0  0  0  0  0  0
  181.1260  178.9350  142.7020 O   0  0  0  0  0  0  0  0  0  0  0  0
  184.9740  175.4350  136.3720 C   0  0  0  0  0  2  0  0  0  0  0  0
  183.7020  176.6060  135.1020 C   0  0  0  0  0  2  0  0  0  0  0  0
  184.6880  176.9200  136.2220 C   0  0  1  0  0  3  0  0  0  0  0  0
  183.9900  175.1240  135.2570 C   0  0  2  0  0  3  0  0  0  0  0  0
  182.8140  174.4460  135.8090 C   0  0  0  0  0  0  0  0  0  0  0  0
  181.8500  173.8770  136.2610 C   0  0  0  0  0  0  0  0  0  0  0  0
  180.6840  173.1790  136.8030 C   0  0  0  0  0  2  0  0  0  0  0  0
  181.0380  171.8460  137.1480 O   0  0  0  0  0  0  0  0  0  0  0  0
  180.4420  169.9810  134.5970 S   0  0  0  0  0  0  0  0  0  0  0  0
  183.8910  170.3300  135.8850 C   0  0  0  0  0  3  0  0  0  0  0  0
  183.0200  169.7730  135.0110 N   0  0  0  0  0  2  0  0  0  0  0  0
  183.2660  171.1380  136.7670 N   0  0  0  0  0  0  0  0  0  0  0  0
  181.9830  171.0990  136.4650 N   0  0  0  0  0  0  0  0  0  0  0  0
  181.8360  170.2790  135.4030 C   0  0  0  0  0  0  0  0  0  0  0  0
  187.9630  176.6500  137.1350 C   0  0  0  0  0  2  0  0  0  0  0  0
  188.5430  176.0160  138.3070 N   0  0  0  0  0  2  0  0  0  0  0  0
  189.9520  175.8060  138.0200 C   0  0  0  0  0  2  0  0  0  0  0  0
  190.9270  177.4590  141.2950 C   0  0  0  0  0  0  0  0  0  0  0  0
  190.1850  176.7950  140.3020 C   0  0  0  0  0  3  0  0  0  0  0  0
  192.1130  176.7650  138.8380 C   0  0  0  0  0  3  0  0  0  0  0  0
  190.7720  176.4500  139.0810 C   0  0  0  0  0  0  0  0  0  0  0  0
  192.2810  177.7490  141.0430 C   0  0  0  0  0  3  0  0  0  0  0  0
  192.8690  177.4080  139.8220 C   0  0  0  0  0  3  0  0  0  0  0  0
  191.7190  178.6870  144.4090 C   0  0  0  0  0  2  0  0  0  0  0  0
  190.5020  176.7220  143.6780 C   0  0  2  0  0  0  0  0  0  0  0  0
  190.9130  179.0740  143.1750 C   0  0  0  0  0  2  0  0  0  0  0  0
  190.0900  176.9310  145.1210 C   0  0  0  0  0  2  0  0  0  0  0  0
  191.5250  177.2020  144.6770 C   0  0  2  0  0  3  0  0  0  0  0  0
  188.7710  178.0460  142.4820 C   0  0  0  0  0  1  0  0  0  0  0  0
  190.2720  177.8090  142.6240 C   0  0  1  0  0  0  0  0  0  0  0  0
  190.6960  175.3950  143.2890 O   0  0  0  0  0  1  0  0  0  0  0  0
  2  3  1  0  0  0  0
  2  5  1  0  0  0  0
  3  1  2  0  0  0  0
  6  3  1  0  0  0  0
  7  4  1  6  0  0  0
  7  2  1  0  0  0  0
  7  5  1  0  0  0  0
  8  6  1  1  0  0  0
  8 13  1  0  0  0  0
  8 12  1  0  0  0  0
  9 14  1  0  0  0  0
 10 11  2  0  0  0  0
 10  9  1  0  0  0  0
 12 11  1  0  0  0  0
 13 10  1  0  0  0  0
 14 15  1  0  0  0  0
 15 16  2  0  0  0  0
 15 18  1  0  0  0  0
 18 17  1  0  0  0  0
 20 22  1  0  0  0  0
 20 21  1  0  0  0  0
 21 19  1  0  0  0  0
 21  6  1  1  0  0  0
 22 23  1  1  0  0  0
 22 19  1  0  0  0  0
 23 24  3  0  0  0  0
 24 25  1  0  0  0  0
 25 26  1  0  0  0  0
 27 32  2  0  0  0  0
 28 30  2  0  0  0  0
 29 32  1  0  0  0  0
 29 28  1  0  0  0  0
 31 30  1  0  0  0  0
 31 26  1  0  0  0  0
 32 31  1  0  0  0  0
 33  7  1  0  0  0  0
 33 34  1  0  0  0  0
 35 34  1  0  0  0  0
 35 39  1  0  0  0  0
 36 48  1  0  0  0  0
 37 36  2  0  0  0  0
 38 39  2  0  0  0  0
 38 41  1  0  0  0  0
 39 37  1  0  0  0  0
 40 36  1  0  0  0  0
 41 40  2  0  0  0  0
 43 49  1  6  0  0  0
 43 46  1  0  0  0  0
 43 45  1  0  0  0  0
 44 42  1  0  0  0  0
 46 42  1  6  0  0  0
 46 45  1  0  0  0  0
 48 47  1  6  0  0  0
 48 44  1  0  0  0  0
 48 43  1  0  0  0  0
M  END
>  <MODEL>
8

>  <REMARK>
 VINA RESULT:      -5.9      3.795      8.985
  Name = 
  14 active torsions:
  status: ('A' for Active; 'I' for Inactive)
    1  A    between atoms: C_1  and  N_36
    2  A    between atoms: N_3  and  C_44
    3  A    between atoms: C_4  and  O_15
    4  A    between atoms: C_4  and  C_26
    5  A    between atoms: C_5  and  C_32
    6  A    between atoms: C_7  and  C_35
    7  A    between atoms: O_15  and  N_45
    8  A    between atoms: C_24  and  N_36
    9  A    between atoms: C_27  and  C_43
   10  A    between atoms: C_37  and  O_39
   11  A    between atoms: C_37  and  C_44
   12  A    between atoms: C_38  and  C_41
   13  A    between atoms: C_38  and  N_49
   14  A    between atoms: C_43  and  N_49
                            x       y       z     vdW  Elec       q    Type
                         _______ _______ _______ _____ _____    ______ ____

>  <TORSDO>
F 14

$$$$
=
 OpenBabel11032419363D

 49 55  0  0  1  0  0  0  0  0999 V2000
  182.0740  178.3420  141.2680 O   0  0  0  0  0  0  0  0  0  0  0  0
  183.1470  178.7520  143.2790 N   0  0  0  0  0  0  0  0  0  0  0  0
  183.1590  178.5970  141.8600 C   0  0  0  0  0  0  0  0  0  0  0  0
  184.1650  180.5200  144.7070 C   0  0  0  0  0  1  0  0  0  0  0  0
  182.4380  178.7540  144.6000 C   0  0  0  0  0  2  0  0  0  0  0  0
  184.3860  178.7400  141.1140 N   0  0  0  0  0  0  0  0  0  0  0  0
  183.7810  179.0580  144.5900 C   0  0  1  0  0  0  0  0  0  0  0  0
  184.3930  178.7470  139.6420 C   0  0  1  0  0  3  0  0  0  0  0  0
  181.6990  179.7040  137.2590 N   0  0  0  0  0  2  0  0  0  0  0  0
  182.6570  179.0740  138.1130 C   0  0  0  0  0  0  0  0  0  0  0  0
  182.8720  177.8030  138.0940 N   0  0  0  0  0  0  0  0  0  0  0  0
  183.8840  177.4260  139.0610 C   0  0  0  0  0  2  0  0  0  0  0  0
  183.4880  179.8330  139.0730 C   0  0  0  0  0  2  0  0  0  0  0  0
  180.8690  178.9660  136.3160 C   0  0  0  0  0  2  0  0  0  0  0  0
  179.6930  178.3610  137.0110 C   0  0  0  0  0  0  0  0  0  0  0  0
  179.0130  179.0550  137.8170 O   0  0  0  0  0  0  0  0  0  0  0  0
  180.2740  176.1250  136.1640 C   0  0  0  0  0  1  0  0  0  0  0  0
  179.3520  177.0340  136.7460 O   0  0  0  0  0  0  0  0  0  0  0  0
  186.5070  177.6280  141.6320 C   0  0  0  0  0  2  0  0  0  0  0  0
  186.6960  179.7110  141.1530 C   0  0  0  0  0  2  0  0  0  0  0  0
  185.6470  178.8610  141.8620 C   0  0  1  0  0  3  0  0  0  0  0  0
  187.5490  178.4760  140.9240 C   0  0  2  0  0  3  0  0  0  0  0  0
  187.5700  178.1460  139.4960 C   0  0  0  0  0  0  0  0  0  0  0  0
  187.5800  177.8830  138.3180 C   0  0  0  0  0  0  0  0  0  0  0  0
  187.5840  177.5700  136.8890 C   0  0  0  0  0  2  0  0  0  0  0  0
  188.9170  177.3400  136.4500 O   0  0  0  0  0  0  0  0  0  0  0  0
  188.8650  174.1270  136.5620 S   0  0  0  0  0  0  0  0  0  0  0  0
  191.5500  176.0080  138.2750 C   0  0  0  0  0  3  0  0  0  0  0  0
  190.9580  174.8290  137.9730 N   0  0  0  0  0  0  0  0  0  0  0  0
  190.8670  177.0550  137.7630 N   0  0  0  0  0  2  0  0  0  0  0  0
  189.8260  176.5490  137.1320 N   0  0  0  0  0  0  0  0  0  0  0  0
  189.8840  175.2060  137.2550 C   0  0  0  0  0  0  0  0  0  0  0  0
  184.7490  177.9720  145.0300 C   0  0  0  0  0  2  0  0  0  0  0  0
  186.0060  178.5700  145.4430 N   0  0  0  0  0  2  0  0  0  0  0  0
  186.1720  178.2710  146.8560 C   0  0  0  0  0  2  0  0  0  0  0  0
  189.8490  177.4600  146.3730 C   0  0  0  0  0  0  0  0  0  0  0  0
  188.4940  177.7280  146.1100 C   0  0  0  0  0  3  0  0  0  0  0  0
  188.0830  178.1170  148.4630 C   0  0  0  0  0  3  0  0  0  0  0  0
  187.6150  178.0540  147.1470 C   0  0  0  0  0  0  0  0  0  0  0  0
  190.3080  177.5490  147.7000 C   0  0  0  0  0  3  0  0  0  0  0  0
  189.4310  177.8720  148.7390 C   0  0  0  0  0  3  0  0  0  0  0  0
  191.2660  178.8970  143.5870 C   0  0  0  0  0  2  0  0  0  0  0  0
  190.0310  176.8390  143.9260 C   0  0  2  0  0  0  0  0  0  0  0  0
  191.6760  178.3280  144.9400 C   0  0  0  0  0  2  0  0  0  0  0  0
  190.7650  176.6520  142.6140 C   0  0  0  0  0  2  0  0  0  0  0  0
  190.1830  178.0120  142.9890 C   0  0  2  0  0  3  0  0  0  0  0  0
  191.6840  175.9280  145.5430 C   0  0  0  0  0  1  0  0  0  0  0  0
  190.7910  177.1240  145.2250 C   0  0  1  0  0  0  0  0  0  0  0  0
  188.7280  176.3380  143.9690 O   0  0  0  0  0  1  0  0  0  0  0  0
  1  3  2  0  0  0  0
  2  7  1  0  0  0  0
  2  5  1  0  0  0  0
  3  2  1  0  0  0  0
  6  3  1  0  0  0  0
  7  5  1  0  0  0  0
  7  4  1  1  0  0  0
  7 33  1  0  0  0  0
  8  6  1  1  0  0  0
  9 10  1  0  0  0  0
 10 13  1  0  0  0  0
 11 10  2  0  0  0  0
 11 12  1  0  0  0  0
 12  8  1  0  0  0  0
 13  8  1  0  0  0  0
 14 15  1  0  0  0  0
 14  9  1  0  0  0  0
 15 16  2  0  0  0  0
 17 18  1  0  0  0  0
 18 15  1  0  0  0  0
 19 21  1  0  0  0  0
 20 21  1  0  0  0  0
 21  6  1  6  0  0  0
 22 23  1  6  0  0  0
 22 20  1  0  0  0  0
 22 19  1  0  0  0  0
 24 23  3  0  0  0  0
 25 24  1  0  0  0  0
 26 25  1  0  0  0  0
 26 31  1  0  0  0  0
 27 32  2  0  0  0  0
 29 28  2  0  0  0  0
 30 28  1  0  0  0  0
 31 32  1  0  0  0  0
 31 30  1  0  0  0  0
 32 29  1  0  0  0  0
 33 34  1  0  0  0  0
 34 35  1  0  0  0  0
 35 39  1  0  0  0  0
 36 40  1  0  0  0  0
 37 36  2  0  0  0  0
 37 39  1  0  0  0  0
 38 41  1  0  0  0  0
 39 38  2  0  0  0  0
 40 41  2  0  0  0  0
 42 44  1  0  0  0  0
 43 49  1  1  0  0  0
 43 48  1  0  0  0  0
 44 48  1  0  0  0  0
 45 43  1  0  0  0  0
 46 45  1  6  0  0  0
 46 42  1  0  0  0  0
 46 43  1  0  0  0  0
 48 47  1  1  0  0  0
 48 36  1  0  0  0  0
M  END
>  <MODEL>
9

>  <REMARK>
 VINA RESULT:      -5.8      3.060     10.263
  Name = 
  14 active torsions:
  status: ('A' for Active; 'I' for Inactive)
    1  A    between atoms: C_1  and  N_36
    2  A    between atoms: N_3  and  C_44
    3  A    between atoms: C_4  and  O_15
    4  A    between atoms: C_4  and  C_26
    5  A    between atoms: C_5  and  C_32
    6  A    between atoms: C_7  and  C_35
    7  A    between atoms: O_15  and  N_45
    8  A    between atoms: C_24  and  N_36
    9  A    between atoms: C_27  and  C_43
   10  A    between atoms: C_37  and  O_39
   11  A    between atoms: C_37  and  C_44
   12  A    between atoms: C_38  and  C_41
   13  A    between atoms: C_38  and  N_49
   14  A    between atoms: C_43  and  N_49
                            x       y       z     vdW  Elec       q    Type
                         _______ _______ _______ _____ _____    ______ ____

>  <TORSDO>
F 14

$$$$
