=
 OpenBabel11042410343D

 38 44  0  0  1  0  0  0  0  0999 V2000
  190.1010  177.3160  145.1420 S   0  0  0  0  0  0  0  0  0  0  0  0
  186.1710  177.4180  145.1220 C   0  0  2  0  0  3  0  0  0  0  0  0
  187.6310  177.4640  144.7850 C   0  0  0  0  0  0  0  0  0  0  0  0
  186.8500  178.2360  147.3510 N   0  0  0  0  0  0  0  0  0  0  0  0
  188.1390  177.2990  143.5370 N   0  0  0  0  0  0  0  0  0  0  0  0
  188.5660  177.4980  145.8070 C   0  0  0  0  0  0  0  0  0  0  0  0
  185.3510  178.2220  144.2380 N   0  0  0  0  0  0  0  0  0  0  0  0
  189.4930  177.2260  143.5670 C   0  0  0  0  0  0  0  0  0  0  0  0
  184.8960  179.0940  146.2880 N   0  0  0  0  0  0  0  0  0  0  0  0
  188.1420  177.5440  147.2510 C   0  0  1  0  0  3  0  0  0  0  0  0
  185.9370  178.1330  146.4210 C   0  0  0  0  0  0  0  0  0  0  0  0
  184.5780  179.1270  145.0340 C   0  0  0  0  0  3  0  0  0  0  0  0
  189.1670  178.2730  148.1000 C   0  0  0  0  0  1  0  0  0  0  0  0
  183.1460  179.2140  139.6820 C   0  0  0  0  0  2  0  0  0  0  0  0
  182.2660  178.3870  140.5260 N   0  0  0  0  0  0  0  0  0  0  0  0
  185.1710  177.9640  142.8670 N   0  0  2  0  0  0  0  0  0  0  0  0
  184.9350  179.7050  141.0870 C   0  0  2  0  0  3  0  0  0  0  0  0
  183.4650  177.7020  141.0710 C   0  0  1  0  0  3  0  0  0  0  0  0
  185.8510  179.0430  142.1100 C   0  0  2  0  0  3  0  0  0  0  0  0
  184.3810  178.5530  140.2210 C   0  0  1  0  0  0  0  0  0  0  0  0
  183.7230  177.8550  142.5970 C   0  0  0  0  0  2  0  0  0  0  0  0
  185.8610  178.6780  140.6270 C   0  0  1  0  0  3  0  0  0  0  0  0
  181.6240  179.2900  141.4810 C   0  0  0  0  0  2  0  0  0  0  0  0
  180.1900  178.4640  142.2350 S   0  0  0  0  0  0  0  0  0  0  0  0
  179.6580  177.7400  140.6540 C   0  0  0  0  0  2  0  0  0  0  0  0
  179.0310  176.4490  140.8870 N   0  0  0  0  0  2  0  0  0  0  0  0
  178.9760  173.8110  139.9160 O   0  0  0  0  0  1  0  0  0  0  0  0
  179.1010  175.8450  138.2880 O   0  0  0  0  0  0  0  0  0  0  0  0
  179.5940  175.3610  139.6320 P   0  0  1  0  0  0  0  0  0  0  0  0
  181.6480  175.2580  138.2680 C   0  0  0  0  0  1  0  0  0  0  0  0
  181.2890  175.3100  139.6160 O   0  0  0  0  0  0  0  0  0  0  0  0
  189.8810  177.3770  141.1670 C   0  0  0  0  0  3  0  0  0  0  0  0
  190.3280  177.0600  142.3770 C   0  0  0  0  0  3  0  0  0  0  0  0
  190.7470  177.2060  139.9650 C   0  0  1  0  0  3  0  0  0  0  0  0
  192.1950  177.4030  140.3670 C   0  0  0  0  0  1  0  0  0  0  0  0
  190.5830  175.9210  139.4400 O   0  0  0  0  0  0  0  0  0  0  0  0
  191.5620  174.5540  137.9020 O   0  0  0  0  0  1  0  0  0  0  0  0
  191.4190  175.8780  138.3230 C   0  0  0  0  0  2  0  0  0  0  0  0
  1  6  1  0  0  0  0
  2  3  1  6  0  0  0
  2 11  1  0  0  0  0
  3  6  2  0  0  0  0
  5  8  2  0  0  0  0
  5  3  1  0  0  0  0
  6 10  1  0  0  0  0
  7 12  1  0  0  0  0
  7  2  1  0  0  0  0
  8  1  1  0  0  0  0
  9 11  1  0  0  0  0
 10  4  1  0  0  0  0
 10 13  1  1  0  0  0
 11  4  2  0  0  0  0
 12  9  2  0  0  0  0
 14 20  1  0  0  0  0
 14 15  1  0  0  0  0
 15 18  1  0  0  0  0
 15 23  1  0  0  0  0
 16 21  1  1  0  0  0
 16  7  1  0  0  0  0
 17 19  1  0  0  0  0
 18 21  1  0  0  0  0
 19 16  1  0  0  0  0
 20 22  1  0  0  0  0
 20 18  1  0  0  0  0
 20 17  1  0  0  0  0
 22 17  1  0  0  0  0
 22 19  1  0  0  0  0
 23 24  1  0  0  0  0
 25 26  1  0  0  0  0
 25 24  1  0  0  0  0
 28 29  2  0  0  0  0
 29 27  1  0  0  0  0
 29 26  1  0  0  0  0
 30 31  1  0  0  0  0
 31 29  1  0  0  0  0
 32 33  2  0  0  0  0
 33  8  1  0  0  0  0
 34 35  1  0  0  0  0
 34 32  1  0  0  0  0
 36 34  1  0  0  0  0
 37 38  1  0  0  0  0
 38 36  1  0  0  0  0
M  END
>  <MODEL>
1

>  <REMARK>
 VINA RESULT:      -6.9      0.000      0.000
  Name = 
  11 active torsions:
  status: ('A' for Active; 'I' for Inactive)
    1  A    between atoms: N_6  and  C_8
    2  A    between atoms: C_8  and  S_29
    3  A    between atoms: N_11  and  N_18
    4  A    between atoms: C_13  and  N_15
    5  A    between atoms: C_13  and  S_29
    6  A    between atoms: N_15  and  P_20
    7  A    between atoms: P_20  and  O_24
    8  A    between atoms: C_21  and  C_22
    9  A    between atoms: C_22  and  O_26
   10  A    between atoms: C_23  and  C_38
   11  A    between atoms: O_26  and  C_32
                            x       y       z     vdW  Elec       q    Type
                         _______ _______ _______ _____ _____    ______ ____

>  <TORSDO>
F 11

$$$$
=
 OpenBabel11042410343D

 38 44  0  0  1  0  0  0  0  0999 V2000
  184.7900  178.1250  137.8630 S   0  0  0  0  0  0  0  0  0  0  0  0
  186.1780  179.0430  141.4250 C   0  0  2  0  0  3  0  0  0  0  0  0
  185.9660  178.5330  140.0300 C   0  0  0  0  0  0  0  0  0  0  0  0
  183.7530  178.6910  141.7230 N   0  0  0  0  0  0  0  0  0  0  0  0
  186.9640  178.2280  139.1610 N   0  0  0  0  0  0  0  0  0  0  0  0
  184.6890  178.5270  139.4930 C   0  0  0  0  0  0  0  0  0  0  0  0
  187.1520  178.2760  142.1750 N   0  0  0  0  0  0  0  0  0  0  0  0
  186.4700  177.9520  137.9300 C   0  0  0  0  0  0  0  0  0  0  0  0
  185.2820  178.1210  143.4590 N   0  0  0  0  0  0  0  0  0  0  0  0
  183.5000  178.9740  140.3020 C   0  0  1  0  0  3  0  0  0  0  0  0
  184.9480  178.7800  142.2430 C   0  0  0  0  0  0  0  0  0  0  0  0
  186.5450  177.8440  143.3970 C   0  0  0  0  0  3  0  0  0  0  0  0
  182.2380  178.2530  139.8650 C   0  0  0  0  0  1  0  0  0  0  0  0
  191.9920  176.8570  143.2550 C   0  0  0  0  0  2  0  0  0  0  0  0
  191.6440  178.1130  143.9420 N   0  0  0  0  0  0  0  0  0  0  0  0
  188.5210  178.2030  141.8590 N   0  0  2  0  0  0  0  0  0  0  0  0
  189.9920  176.2190  142.2530 C   0  0  2  0  0  3  0  0  0  0  0  0
  190.8200  178.5030  142.7700 C   0  0  1  0  0  3  0  0  0  0  0  0
  188.8220  176.8040  141.4700 C   0  0  2  0  0  3  0  0  0  0  0  0
  191.1580  177.2120  142.0590 C   0  0  1  0  0  0  0  0  0  0  0  0
  189.2960  178.6880  143.0190 C   0  0  0  0  0  2  0  0  0  0  0  0
  190.2430  176.7380  140.9150 C   0  0  1  0  0  3  0  0  0  0  0  0
  190.8530  177.7490  145.1170 C   0  0  0  0  0  2  0  0  0  0  0  0
  191.7160  176.4540  146.0590 S   0  0  0  0  0  0  0  0  0  0  0  0
  190.7990  176.8220  147.5850 C   0  0  0  0  0  2  0  0  0  0  0  0
  189.4380  176.3230  147.4770 N   0  0  0  0  0  2  0  0  0  0  0  0
  187.4660  177.1990  149.2790 O   0  0  0  0  0  1  0  0  0  0  0  0
  189.1780  178.8690  148.2370 O   0  0  0  0  0  0  0  0  0  0  0  0
  188.3630  177.6380  147.9120 P   0  0  1  0  0  0  0  0  0  0  0  0
  186.2580  178.7060  147.1910 C   0  0  0  0  0  1  0  0  0  0  0  0
  187.3150  177.9900  146.6260 O   0  0  0  0  0  0  0  0  0  0  0  0
  188.2070  176.6120  136.8700 C   0  0  0  0  0  3  0  0  0  0  0  0
  187.3000  177.5780  136.7830 C   0  0  0  0  0  3  0  0  0  0  0  0
  189.0400  176.2400  135.6910 C   0  0  1  0  0  3  0  0  0  0  0  0
  189.2810  177.4750  134.8460 C   0  0  0  0  0  1  0  0  0  0  0  0
  190.2670  175.7250  136.1190 O   0  0  0  0  0  0  0  0  0  0  0  0
  190.3310  173.9150  137.5020 O   0  0  0  0  0  1  0  0  0  0  0  0
  190.0370  175.2770  137.4210 C   0  0  0  0  0  2  0  0  0  0  0  0
  1  8  1  0  0  0  0
  1  6  1  0  0  0  0
  2  3  1  6  0  0  0
  2  7  1  0  0  0  0
  2 11  1  0  0  0  0
  4 11  2  0  0  0  0
  5  3  1  0  0  0  0
  6  3  2  0  0  0  0
  6 10  1  0  0  0  0
  7 12  1  0  0  0  0
  8  5  2  0  0  0  0
 10 13  1  6  0  0  0
 10  4  1  0  0  0  0
 11  9  1  0  0  0  0
 12  9  2  0  0  0  0
 14 15  1  0  0  0  0
 15 23  1  0  0  0  0
 16  7  1  1  0  0  0
 16 21  1  0  0  0  0
 18 21  1  0  0  0  0
 18 15  1  0  0  0  0
 19 16  1  0  0  0  0
 19 17  1  0  0  0  0
 20 17  1  0  0  0  0
 20 18  1  0  0  0  0
 20 14  1  0  0  0  0
 22 19  1  0  0  0  0
 22 20  1  0  0  0  0
 22 17  1  0  0  0  0
 23 24  1  0  0  0  0
 24 25  1  0  0  0  0
 26 25  1  0  0  0  0
 26 29  1  0  0  0  0
 29 28  2  0  0  0  0
 29 27  1  0  0  0  0
 31 30  1  0  0  0  0
 31 29  1  0  0  0  0
 33 32  2  0  0  0  0
 33  8  1  0  0  0  0
 34 36  1  0  0  0  0
 34 32  1  0  0  0  0
 35 34  1  0  0  0  0
 36 38  1  0  0  0  0
 38 37  1  0  0  0  0
M  END
>  <MODEL>
2

>  <REMARK>
 VINA RESULT:      -6.9      4.250      7.940
  Name = 
  11 active torsions:
  status: ('A' for Active; 'I' for Inactive)
    1  A    between atoms: N_6  and  C_8
    2  A    between atoms: C_8  and  S_29
    3  A    between atoms: N_11  and  N_18
    4  A    between atoms: C_13  and  N_15
    5  A    between atoms: C_13  and  S_29
    6  A    between atoms: N_15  and  P_20
    7  A    between atoms: P_20  and  O_24
    8  A    between atoms: C_21  and  C_22
    9  A    between atoms: C_22  and  O_26
   10  A    between atoms: C_23  and  C_38
   11  A    between atoms: O_26  and  C_32
                            x       y       z     vdW  Elec       q    Type
                         _______ _______ _______ _____ _____    ______ ____

>  <TORSDO>
F 11

$$$$
=
 OpenBabel11042410343D

 38 44  0  0  1  0  0  0  0  0999 V2000
  189.8390  177.1870  144.9370 S   0  0  0  0  0  0  0  0  0  0  0  0
  185.9200  177.4490  144.7700 C   0  0  2  0  0  3  0  0  0  0  0  0
  187.3930  177.4230  144.4850 C   0  0  0  0  0  0  0  0  0  0  0  0
  186.5540  178.3160  146.9930 N   0  0  0  0  0  0  0  0  0  0  0  0
  187.9370  177.1940  143.2620 N   0  0  0  0  0  0  0  0  0  0  0  0
  188.2920  177.4550  145.5390 C   0  0  0  0  0  0  0  0  0  0  0  0
  185.1670  178.2540  143.8300 N   0  0  0  0  0  0  0  0  0  0  0  0
  189.2840  177.0680  143.3450 C   0  0  0  0  0  0  0  0  0  0  0  0
  184.6770  179.2150  145.8320 N   0  0  0  0  0  0  0  0  0  0  0  0
  187.8190  177.5680  146.9640 C   0  0  1  0  0  3  0  0  0  0  0  0
  185.6710  178.2170  146.0350 C   0  0  0  0  0  0  0  0  0  0  0  0
  184.4050  179.2170  144.5660 C   0  0  0  0  0  3  0  0  0  0  0  0
  188.8430  178.2840  147.8250 C   0  0  0  0  0  1  0  0  0  0  0  0
  183.0920  179.1150  139.1860 C   0  0  0  0  0  2  0  0  0  0  0  0
  182.1880  178.3150  140.0290 N   0  0  0  0  0  0  0  0  0  0  0  0
  185.0250  177.9550  142.4620 N   0  0  2  0  0  0  0  0  0  0  0  0
  184.8420  179.6440  140.6260 C   0  0  2  0  0  3  0  0  0  0  0  0
  183.3690  177.6430  140.6280 C   0  0  1  0  0  3  0  0  0  0  0  0
  185.7280  179.0110  141.6930 C   0  0  2  0  0  3  0  0  0  0  0  0
  184.3110  178.4670  139.7790 C   0  0  1  0  0  0  0  0  0  0  0  0
  183.5840  177.8420  142.1550 C   0  0  0  0  0  2  0  0  0  0  0  0
  185.7790  178.6020  140.2220 C   0  0  1  0  0  3  0  0  0  0  0  0
  181.5210  179.2460  140.9390 C   0  0  0  0  0  2  0  0  0  0  0  0
  179.7310  178.9260  140.9400 S   0  0  0  0  0  0  0  0  0  0  0  0
  179.4610  179.9010  139.4300 C   0  0  0  0  0  2  0  0  0  0  0  0
  179.5960  181.3180  139.7260 N   0  0  0  0  0  2  0  0  0  0  0  0
  181.8010  182.2570  138.2560 O   0  0  0  0  0  1  0  0  0  0  0  0
  179.6980  181.2820  137.0590 O   0  0  0  0  0  0  0  0  0  0  0  0
  180.1140  182.1130  138.2510 P   0  0  1  0  0  0  0  0  0  0  0  0
  180.3490  184.4440  137.4780 C   0  0  0  0  0  1  0  0  0  0  0  0
  179.4060  183.6490  138.1320 O   0  0  0  0  0  0  0  0  0  0  0  0
  189.8740  177.3320  140.9960 C   0  0  0  0  0  3  0  0  0  0  0  0
  190.1530  176.8270  142.1920 C   0  0  0  0  0  3  0  0  0  0  0  0
  190.7730  177.0800  139.8330 C   0  0  1  0  0  3  0  0  0  0  0  0
  192.1910  177.4580  140.2130 C   0  0  0  0  0  1  0  0  0  0  0  0
  190.7320  175.7280  139.4850 O   0  0  0  0  0  0  0  0  0  0  0  0
  190.4600  174.4300  137.6320 O   0  0  0  0  0  1  0  0  0  0  0  0
  190.7670  175.7120  138.0890 C   0  0  0  0  0  2  0  0  0  0  0  0
  1  6  1  0  0  0  0
  2  3  1  6  0  0  0
  2 11  1  0  0  0  0
  3  6  2  0  0  0  0
  5  8  2  0  0  0  0
  5  3  1  0  0  0  0
  6 10  1  0  0  0  0
  7 12  1  0  0  0  0
  7  2  1  0  0  0  0
  8  1  1  0  0  0  0
  9 11  1  0  0  0  0
 10  4  1  0  0  0  0
 10 13  1  1  0  0  0
 11  4  2  0  0  0  0
 12  9  2  0  0  0  0
 14 20  1  0  0  0  0
 14 15  1  0  0  0  0
 15 18  1  0  0  0  0
 15 23  1  0  0  0  0
 16 21  1  6  0  0  0
 16  7  1  0  0  0  0
 17 19  1  0  0  0  0
 18 21  1  0  0  0  0
 19 16  1  0  0  0  0
 20 22  1  0  0  0  0
 20 17  1  0  0  0  0
 20 18  1  0  0  0  0
 22 17  1  0  0  0  0
 22 19  1  0  0  0  0
 23 24  1  0  0  0  0
 25 26  1  0  0  0  0
 25 24  1  0  0  0  0
 28 29  2  0  0  0  0
 29 27  1  0  0  0  0
 29 26  1  0  0  0  0
 30 31  1  0  0  0  0
 31 29  1  0  0  0  0
 32 33  2  0  0  0  0
 33  8  1  0  0  0  0
 34 35  1  0  0  0  0
 34 32  1  0  0  0  0
 36 34  1  0  0  0  0
 37 38  1  0  0  0  0
 38 36  1  0  0  0  0
M  END
>  <MODEL>
3

>  <REMARK>
 VINA RESULT:      -6.9      2.616      3.094
  Name = 
  11 active torsions:
  status: ('A' for Active; 'I' for Inactive)
    1  A    between atoms: N_6  and  C_8
    2  A    between atoms: C_8  and  S_29
    3  A    between atoms: N_11  and  N_18
    4  A    between atoms: C_13  and  N_15
    5  A    between atoms: C_13  and  S_29
    6  A    between atoms: N_15  and  P_20
    7  A    between atoms: P_20  and  O_24
    8  A    between atoms: C_21  and  C_22
    9  A    between atoms: C_22  and  O_26
   10  A    between atoms: C_23  and  C_38
   11  A    between atoms: O_26  and  C_32
                            x       y       z     vdW  Elec       q    Type
                         _______ _______ _______ _____ _____    ______ ____

>  <TORSDO>
F 11

$$$$
=
 OpenBabel11042410343D

 38 44  0  0  1  0  0  0  0  0999 V2000
  189.9470  177.1010  141.0190 S   0  0  0  0  0  0  0  0  0  0  0  0
  187.3860  178.3510  138.3100 C   0  0  2  0  0  3  0  0  0  0  0  0
  188.0780  177.8890  139.5580 C   0  0  0  0  0  0  0  0  0  0  0  0
  188.9490  176.8600  137.1150 N   0  0  0  0  0  0  0  0  0  0  0  0
  187.6500  178.1550  140.8190 N   0  0  0  0  0  0  0  0  0  0  0  0
  189.3310  177.3040  139.4670 C   0  0  0  0  0  0  0  0  0  0  0  0
  185.9580  178.1010  138.3180 N   0  0  0  0  0  0  0  0  0  0  0  0
  188.5630  177.7530  141.7380 C   0  0  0  0  0  0  0  0  0  0  0  0
  186.6600  176.9890  136.4640 N   0  0  0  0  0  0  0  0  0  0  0  0
  189.9880  177.0730  138.1320 C   0  0  1  0  0  3  0  0  0  0  0  0
  187.8000  177.4800  137.1600 C   0  0  0  0  0  0  0  0  0  0  0  0
  185.6220  177.3560  137.1440 C   0  0  0  0  0  3  0  0  0  0  0  0
  190.9040  175.8640  138.1740 C   0  0  0  0  0  1  0  0  0  0  0  0
  181.1580  179.2380  139.8230 C   0  0  0  0  0  2  0  0  0  0  0  0
  181.6100  180.1540  138.7610 N   0  0  0  0  0  0  0  0  0  0  0  0
  185.0500  178.7140  139.2000 N   0  0  2  0  0  0  0  0  0  0  0  0
  182.9010  177.7070  139.9920 C   0  0  2  0  0  3  0  0  0  0  0  0
  182.9820  180.0990  139.3240 C   0  0  1  0  0  3  0  0  0  0  0  0
  184.4240  177.6480  140.0200 C   0  0  2  0  0  3  0  0  0  0  0  0
  182.5360  179.1470  140.4110 C   0  0  1  0  0  0  0  0  0  0  0  0
  184.0890  179.5070  138.4050 C   0  0  0  0  0  2  0  0  0  0  0  0
  183.5980  178.2950  141.1290 C   0  0  1  0  0  3  0  0  0  0  0  0
  181.4680  179.4370  137.4940 C   0  0  0  0  0  2  0  0  0  0  0  0
  180.7410  180.5400  136.2440 S   0  0  0  0  0  0  0  0  0  0  0  0
  180.8970  182.0050  137.3110 C   0  0  0  0  0  2  0  0  0  0  0  0
  179.8360  182.9520  137.0080 N   0  0  0  0  0  2  0  0  0  0  0  0
  182.0860  184.6060  137.3330 O   0  0  0  0  0  1  0  0  0  0  0  0
  180.8430  184.4540  135.0450 O   0  0  0  0  0  0  0  0  0  0  0  0
  180.6000  184.4590  136.5370 P   0  0  1  0  0  0  0  0  0  0  0  0
  179.6530  185.8720  138.3240 C   0  0  0  0  0  1  0  0  0  0  0  0
  179.6020  185.7720  136.9330 O   0  0  0  0  0  0  0  0  0  0  0  0
  187.3500  177.3400  143.8100 C   0  0  0  0  0  3  0  0  0  0  0  0
  188.3820  177.8940  143.1830 C   0  0  0  0  0  3  0  0  0  0  0  0
  187.1840  177.4900  145.2840 C   0  0  1  0  0  3  0  0  0  0  0  0
  188.5410  177.7450  145.9120 C   0  0  0  0  0  1  0  0  0  0  0  0
  186.3370  178.5670  145.5600 O   0  0  0  0  0  0  0  0  0  0  0  0
  184.4670  178.7860  146.8430 O   0  0  0  0  0  1  0  0  0  0  0  0
  185.7620  178.2670  146.7960 C   0  0  0  0  0  2  0  0  0  0  0  0
  1  8  1  0  0  0  0
  2 11  1  6  0  0  0
  2  7  1  0  0  0  0
  2  3  1  0  0  0  0
  3  5  1  0  0  0  0
  4 11  2  0  0  0  0
  4 10  1  0  0  0  0
  5  8  2  0  0  0  0
  6  3  2  0  0  0  0
  6  1  1  0  0  0  0
  8 33  1  0  0  0  0
  9 12  2  0  0  0  0
  9 11  1  0  0  0  0
 10 13  1  1  0  0  0
 10  6  1  0  0  0  0
 12  7  1  0  0  0  0
 14 20  1  0  0  0  0
 15 18  1  0  0  0  0
 15 14  1  0  0  0  0
 16  7  1  6  0  0  0
 16 19  1  0  0  0  0
 17 19  1  0  0  0  0
 17 20  1  0  0  0  0
 17 22  1  0  0  0  0
 18 20  1  0  0  0  0
 19 22  1  0  0  0  0
 20 22  1  0  0  0  0
 21 16  1  0  0  0  0
 21 18  1  0  0  0  0
 23 15  1  0  0  0  0
 24 25  1  0  0  0  0
 24 23  1  0  0  0  0
 26 25  1  0  0  0  0
 28 29  2  0  0  0  0
 29 31  1  0  0  0  0
 29 26  1  0  0  0  0
 29 27  1  0  0  0  0
 31 30  1  0  0  0  0
 32 34  1  0  0  0  0
 33 32  2  0  0  0  0
 34 36  1  0  0  0  0
 34 35  1  0  0  0  0
 36 38  1  0  0  0  0
 38 37  1  0  0  0  0
M  END
>  <MODEL>
4

>  <REMARK>
 VINA RESULT:      -6.9      4.793      7.161
  Name = 
  11 active torsions:
  status: ('A' for Active; 'I' for Inactive)
    1  A    between atoms: N_6  and  C_8
    2  A    between atoms: C_8  and  S_29
    3  A    between atoms: N_11  and  N_18
    4  A    between atoms: C_13  and  N_15
    5  A    between atoms: C_13  and  S_29
    6  A    between atoms: N_15  and  P_20
    7  A    between atoms: P_20  and  O_24
    8  A    between atoms: C_21  and  C_22
    9  A    between atoms: C_22  and  O_26
   10  A    between atoms: C_23  and  C_38
   11  A    between atoms: O_26  and  C_32
                            x       y       z     vdW  Elec       q    Type
                         _______ _______ _______ _____ _____    ______ ____

>  <TORSDO>
F 11

$$$$
=
 OpenBabel11042410343D

 38 44  0  0  1  0  0  0  0  0999 V2000
  184.7180  178.3280  143.3790 S   0  0  0  0  0  0  0  0  0  0  0  0
  188.2460  178.6370  141.6700 C   0  0  2  0  0  3  0  0  0  0  0  0
  186.7880  178.4770  141.9860 C   0  0  0  0  0  0  0  0  0  0  0  0
  188.6460  177.5120  143.8310 N   0  0  0  0  0  0  0  0  0  0  0  0
  185.7790  178.7260  141.1120 N   0  0  0  0  0  0  0  0  0  0  0  0
  186.3960  178.2340  143.2920 C   0  0  0  0  0  0  0  0  0  0  0  0
  188.6330  178.0250  140.4150 N   0  0  0  0  0  0  0  0  0  0  0  0
  184.5730  178.6540  141.7260 C   0  0  0  0  0  0  0  0  0  0  0  0
  189.9760  176.9840  141.9260 N   0  0  0  0  0  0  0  0  0  0  0  0
  187.4090  178.0730  144.3940 C   0  0  1  0  0  3  0  0  0  0  0  0
  189.0550  177.8120  142.6270 C   0  0  0  0  0  0  0  0  0  0  0  0
  189.7160  177.1230  140.6650 C   0  0  0  0  0  3  0  0  0  0  0  0
  186.8920  177.1520  145.4840 C   0  0  0  0  0  1  0  0  0  0  0  0
  188.0910  177.3610  135.3290 C   0  0  0  0  0  2  0  0  0  0  0  0
  189.4270  177.8890  135.6540 N   0  0  0  0  0  0  0  0  0  0  0  0
  188.1840  178.4510  139.1520 N   0  0  2  0  0  0  0  0  0  0  0  0
  187.1400  176.9810  137.4180 C   0  0  2  0  0  3  0  0  0  0  0  0
  188.8260  178.6820  136.7560 C   0  0  1  0  0  3  0  0  0  0  0  0
  187.0030  177.6300  138.7900 C   0  0  2  0  0  3  0  0  0  0  0  0
  187.4500  178.1370  136.4430 C   0  0  1  0  0  0  0  0  0  0  0  0
  189.3070  178.3480  138.1970 C   0  0  0  0  0  2  0  0  0  0  0  0
  186.3630  178.2080  137.5300 C   0  0  1  0  0  3  0  0  0  0  0  0
  190.2300  176.7580  136.1170 C   0  0  0  0  0  2  0  0  0  0  0  0
  190.4770  175.5820  134.7520 S   0  0  0  0  0  0  0  0  0  0  0  0
  191.9640  174.8660  135.5140 C   0  0  0  0  0  2  0  0  0  0  0  0
  192.9710  175.8980  135.6990 N   0  0  0  0  0  2  0  0  0  0  0  0
  193.5650  176.7130  138.3220 O   0  0  0  0  0  1  0  0  0  0  0  0
  193.3710  174.1860  137.7070 O   0  0  0  0  0  0  0  0  0  0  0  0
  193.8520  175.5120  137.1650 P   0  0  1  0  0  0  0  0  0  0  0  0
  195.6270  175.4630  135.4520 C   0  0  0  0  0  1  0  0  0  0  0  0
  195.5140  175.4100  136.8420 O   0  0  0  0  0  0  0  0  0  0  0  0
  182.1380  178.6690  141.6660 C   0  0  0  0  0  3  0  0  0  0  0  0
  183.2950  178.8620  141.0440 C   0  0  0  0  0  3  0  0  0  0  0  0
  180.8450  178.8910  140.9570 C   0  0  1  0  0  3  0  0  0  0  0  0
  180.8020  178.0140  139.7210 C   0  0  0  0  0  1  0  0  0  0  0  0
  179.7790  178.5580  141.7980 O   0  0  0  0  0  0  0  0  0  0  0  0
  179.6780  177.8080  143.9460 O   0  0  0  0  0  1  0  0  0  0  0  0
  180.2690  178.7400  143.0920 C   0  0  0  0  0  2  0  0  0  0  0  0
  2  3  1  1  0  0  0
  2 11  1  0  0  0  0
  3  6  2  0  0  0  0
  4 10  1  0  0  0  0
  5  8  2  0  0  0  0
  5  3  1  0  0  0  0
  6  1  1  0  0  0  0
  6 10  1  0  0  0  0
  7 12  1  0  0  0  0
  7  2  1  0  0  0  0
  8  1  1  0  0  0  0
  9 11  1  0  0  0  0
 10 13  1  1  0  0  0
 11  4  2  0  0  0  0
 12  9  2  0  0  0  0
 14 15  1  0  0  0  0
 14 20  1  0  0  0  0
 15 23  1  0  0  0  0
 15 18  1  0  0  0  0
 16 21  1  6  0  0  0
 16  7  1  0  0  0  0
 17 22  1  0  0  0  0
 17 19  1  0  0  0  0
 18 21  1  0  0  0  0
 19 16  1  0  0  0  0
 20 18  1  0  0  0  0
 20 17  1  0  0  0  0
 20 22  1  0  0  0  0
 22 19  1  0  0  0  0
 24 25  1  0  0  0  0
 24 23  1  0  0  0  0
 25 26  1  0  0  0  0
 26 29  1  0  0  0  0
 29 28  2  0  0  0  0
 29 27  1  0  0  0  0
 30 31  1  0  0  0  0
 31 29  1  0  0  0  0
 33 32  2  0  0  0  0
 33  8  1  0  0  0  0
 34 32  1  0  0  0  0
 34 36  1  0  0  0  0
 35 34  1  0  0  0  0
 36 38  1  0  0  0  0
 38 37  1  0  0  0  0
M  END
>  <MODEL>
5

>  <REMARK>
 VINA RESULT:      -6.5      4.504      9.151
  Name = 
  11 active torsions:
  status: ('A' for Active; 'I' for Inactive)
    1  A    between atoms: N_6  and  C_8
    2  A    between atoms: C_8  and  S_29
    3  A    between atoms: N_11  and  N_18
    4  A    between atoms: C_13  and  N_15
    5  A    between atoms: C_13  and  S_29
    6  A    between atoms: N_15  and  P_20
    7  A    between atoms: P_20  and  O_24
    8  A    between atoms: C_21  and  C_22
    9  A    between atoms: C_22  and  O_26
   10  A    between atoms: C_23  and  C_38
   11  A    between atoms: O_26  and  C_32
                            x       y       z     vdW  Elec       q    Type
                         _______ _______ _______ _____ _____    ______ ____

>  <TORSDO>
F 11

$$$$
=
 OpenBabel11042410343D

 38 44  0  0  1  0  0  0  0  0999 V2000
  189.9030  177.2320  141.6240 S   0  0  0  0  0  0  0  0  0  0  0  0
  187.5060  178.5660  138.8080 C   0  0  2  0  0  3  0  0  0  0  0  0
  188.1210  178.0550  140.0770 C   0  0  0  0  0  0  0  0  0  0  0  0
  189.1840  177.1720  137.6530 N   0  0  0  0  0  0  0  0  0  0  0  0
  187.6010  178.2460  141.3170 N   0  0  0  0  0  0  0  0  0  0  0  0
  189.3910  177.5020  140.0450 C   0  0  0  0  0  0  0  0  0  0  0  0
  186.0880  178.2870  138.7040 N   0  0  0  0  0  0  0  0  0  0  0  0
  188.4570  177.8160  142.2760 C   0  0  0  0  0  0  0  0  0  0  0  0
  186.9430  177.2860  136.8500 N   0  0  0  0  0  0  0  0  0  0  0  0
  190.1450  177.3540  138.7500 C   0  0  1  0  0  3  0  0  0  0  0  0
  188.0190  177.7640  137.6480 C   0  0  0  0  0  0  0  0  0  0  0  0
  185.8510  177.5960  137.4720 C   0  0  0  0  0  3  0  0  0  0  0  0
  191.0840  176.1640  138.7960 C   0  0  0  0  0  1  0  0  0  0  0  0
  181.2240  178.6260  140.3870 C   0  0  0  0  0  2  0  0  0  0  0  0
  181.4170  179.4250  139.1650 N   0  0  0  0  0  0  0  0  0  0  0  0
  185.1050  178.8340  139.5490 N   0  0  2  0  0  0  0  0  0  0  0  0
  183.2670  177.5460  140.6530 C   0  0  2  0  0  3  0  0  0  0  0  0
  182.7920  179.7550  139.6190 C   0  0  1  0  0  3  0  0  0  0  0  0
  184.7660  177.8130  140.5700 C   0  0  2  0  0  3  0  0  0  0  0  0
  182.6120  178.9270  140.8720 C   0  0  1  0  0  0  0  0  0  0  0  0
  183.9600  179.2630  138.7190 C   0  0  0  0  0  2  0  0  0  0  0  0
  183.8660  178.4490  141.6280 C   0  0  1  0  0  3  0  0  0  0  0  0
  181.3820  178.4920  138.0390 C   0  0  0  0  0  2  0  0  0  0  0  0
  180.2840  177.0970  138.4330 S   0  0  0  0  0  0  0  0  0  0  0  0
  181.2400  175.9350  137.4130 C   0  0  0  0  0  2  0  0  0  0  0  0
  182.4860  175.5980  138.0830 N   0  0  0  0  0  2  0  0  0  0  0  0
  182.1990  173.2460  136.5700 O   0  0  0  0  0  1  0  0  0  0  0  0
  183.9010  175.0960  135.8760 O   0  0  0  0  0  0  0  0  0  0  0  0
  183.3100  174.4130  137.0870 P   0  0  1  0  0  0  0  0  0  0  0  0
  185.6940  173.7810  137.1690 C   0  0  0  0  0  1  0  0  0  0  0  0
  184.5550  173.6700  137.9680 O   0  0  0  0  0  0  0  0  0  0  0  0
  187.0060  177.4820  144.2040 C   0  0  0  0  0  3  0  0  0  0  0  0
  188.1730  177.8790  143.7100 C   0  0  0  0  0  3  0  0  0  0  0  0
  186.7360  177.5480  145.6690 C   0  0  1  0  0  3  0  0  0  0  0  0
  188.0530  177.5050  146.4180 C   0  0  0  0  0  1  0  0  0  0  0  0
  186.0670  178.7370  145.9760 O   0  0  0  0  0  0  0  0  0  0  0  0
  183.8090  179.0030  145.8440 O   0  0  0  0  0  1  0  0  0  0  0  0
  184.9730  178.7690  145.1100 C   0  0  0  0  0  2  0  0  0  0  0  0
  1  8  1  0  0  0  0
  2 11  1  6  0  0  0
  2  3  1  0  0  0  0
  3  5  1  0  0  0  0
  4 10  1  0  0  0  0
  5  8  2  0  0  0  0
  6  3  2  0  0  0  0
  6  1  1  0  0  0  0
  7  2  1  0  0  0  0
  8 33  1  0  0  0  0
  9 12  2  0  0  0  0
  9 11  1  0  0  0  0
 10 13  1  1  0  0  0
 10  6  1  0  0  0  0
 11  4  2  0  0  0  0
 12  7  1  0  0  0  0
 14 20  1  0  0  0  0
 15 18  1  0  0  0  0
 15 14  1  0  0  0  0
 16  7  1  6  0  0  0
 16 19  1  0  0  0  0
 17 20  1  0  0  0  0
 17 22  1  0  0  0  0
 18 20  1  0  0  0  0
 19 17  1  0  0  0  0
 19 22  1  0  0  0  0
 20 22  1  0  0  0  0
 21 16  1  0  0  0  0
 21 18  1  0  0  0  0
 23 24  1  0  0  0  0
 23 15  1  0  0  0  0
 25 26  1  0  0  0  0
 25 24  1  0  0  0  0
 27 29  1  0  0  0  0
 28 29  2  0  0  0  0
 29 31  1  0  0  0  0
 29 26  1  0  0  0  0
 30 31  1  0  0  0  0
 32 34  1  0  0  0  0
 33 32  2  0  0  0  0
 34 36  1  0  0  0  0
 34 35  1  0  0  0  0
 38 37  1  0  0  0  0
 38 36  1  0  0  0  0
M  END
>  <MODEL>
6

>  <REMARK>
 VINA RESULT:      -6.5      3.380      5.937
  Name = 
  11 active torsions:
  status: ('A' for Active; 'I' for Inactive)
    1  A    between atoms: N_6  and  C_8
    2  A    between atoms: C_8  and  S_29
    3  A    between atoms: N_11  and  N_18
    4  A    between atoms: C_13  and  N_15
    5  A    between atoms: C_13  and  S_29
    6  A    between atoms: N_15  and  P_20
    7  A    between atoms: P_20  and  O_24
    8  A    between atoms: C_21  and  C_22
    9  A    between atoms: C_22  and  O_26
   10  A    between atoms: C_23  and  C_38
   11  A    between atoms: O_26  and  C_32
                            x       y       z     vdW  Elec       q    Type
                         _______ _______ _______ _____ _____    ______ ____

>  <TORSDO>
F 11

$$$$
=
 OpenBabel11042410343D

 38 44  0  0  1  0  0  0  0  0999 V2000
  190.0390  177.3050  143.8900 S   0  0  0  0  0  0  0  0  0  0  0  0
  186.1110  177.3530  144.0510 C   0  0  2  0  0  3  0  0  0  0  0  0
  187.5540  177.4180  143.6470 C   0  0  0  0  0  0  0  0  0  0  0  0
  186.8810  178.1840  146.2450 N   0  0  0  0  0  0  0  0  0  0  0  0
  188.0060  177.2580  142.3770 N   0  0  0  0  0  0  0  0  0  0  0  0
  188.5350  177.4670  144.6240 C   0  0  0  0  0  0  0  0  0  0  0  0
  185.2410  178.1450  143.2050 N   0  0  0  0  0  0  0  0  0  0  0  0
  189.3600  177.2040  142.3450 C   0  0  0  0  0  0  0  0  0  0  0  0
  184.8690  179.0130  145.2730 N   0  0  0  0  0  0  0  0  0  0  0  0
  188.1770  177.5090  146.0870 C   0  0  1  0  0  3  0  0  0  0  0  0
  185.9280  178.0660  145.3590 C   0  0  0  0  0  0  0  0  0  0  0  0
  184.4930  179.0400  144.0350 C   0  0  0  0  0  3  0  0  0  0  0  0
  189.2300  178.2530  146.8870 C   0  0  0  0  0  1  0  0  0  0  0  0
  182.7170  179.0050  138.7900 C   0  0  0  0  0  2  0  0  0  0  0  0
  181.9460  178.1150  139.6740 N   0  0  0  0  0  0  0  0  0  0  0  0
  185.0020  177.8810  141.8440 N   0  0  2  0  0  0  0  0  0  0  0  0
  184.5450  179.6110  140.0960 C   0  0  2  0  0  3  0  0  0  0  0  0
  183.2180  177.5110  140.1440 C   0  0  1  0  0  3  0  0  0  0  0  0
  185.5610  179.0090  141.0590 C   0  0  2  0  0  3  0  0  0  0  0  0
  184.0240  178.4280  139.2520 C   0  0  1  0  0  0  0  0  0  0  0  0
  183.5510  177.6740  141.6550 C   0  0  0  0  0  2  0  0  0  0  0  0
  185.5120  178.6540  139.5750 C   0  0  1  0  0  3  0  0  0  0  0  0
  181.2990  178.9650  140.6720 C   0  0  0  0  0  2  0  0  0  0  0  0
  179.9160  178.0670  141.4390 S   0  0  0  0  0  0  0  0  0  0  0  0
  179.3610  177.3780  139.8500 C   0  0  0  0  0  2  0  0  0  0  0  0
  179.2260  175.9340  139.9570 N   0  0  0  0  0  2  0  0  0  0  0  0
  179.6540  176.3800  137.2150 O   0  0  0  0  0  0  0  0  0  0  0  0
  181.2740  174.8820  138.6070 O   0  0  0  0  0  1  0  0  0  0  0  0
  179.8130  175.2420  138.4570 P   0  0  1  0  0  0  0  0  0  0  0  0
  179.1810  173.6090  136.7180 C   0  0  0  0  0  1  0  0  0  0  0  0
  178.9340  173.8430  138.0720 O   0  0  0  0  0  0  0  0  0  0  0  0
  189.5900  177.2060  139.9200 C   0  0  0  0  0  3  0  0  0  0  0  0
  190.1420  177.0480  141.1170 C   0  0  0  0  0  3  0  0  0  0  0  0
  190.4030  177.0470  138.6790 C   0  0  1  0  0  3  0  0  0  0  0  0
  190.4320  175.5820  138.2900 C   0  0  0  0  0  1  0  0  0  0  0  0
  189.8350  177.7910  137.6410 O   0  0  0  0  0  0  0  0  0  0  0  0
  188.7010  179.7460  137.3550 O   0  0  0  0  0  1  0  0  0  0  0  0
  189.0480  178.7540  138.2740 C   0  0  0  0  0  2  0  0  0  0  0  0
  1  6  1  0  0  0  0
  2  3  1  6  0  0  0
  2 11  1  0  0  0  0
  3  6  2  0  0  0  0
  5  3  1  0  0  0  0
  6 10  1  0  0  0  0
  7 12  1  0  0  0  0
  7  2  1  0  0  0  0
  8  5  2  0  0  0  0
  8  1  1  0  0  0  0
  9 11  1  0  0  0  0
 10  4  1  0  0  0  0
 10 13  1  1  0  0  0
 11  4  2  0  0  0  0
 12  9  2  0  0  0  0
 14 20  1  0  0  0  0
 14 15  1  0  0  0  0
 15 18  1  0  0  0  0
 15 23  1  0  0  0  0
 16 21  1  1  0  0  0
 16  7  1  0  0  0  0
 17 19  1  0  0  0  0
 18 21  1  0  0  0  0
 19 16  1  0  0  0  0
 20 22  1  0  0  0  0
 20 17  1  0  0  0  0
 20 18  1  0  0  0  0
 22 17  1  0  0  0  0
 22 19  1  0  0  0  0
 23 24  1  0  0  0  0
 25 26  1  0  0  0  0
 25 24  1  0  0  0  0
 27 29  2  0  0  0  0
 29 28  1  0  0  0  0
 29 26  1  0  0  0  0
 30 31  1  0  0  0  0
 31 29  1  0  0  0  0
 32 33  2  0  0  0  0
 33  8  1  0  0  0  0
 34 32  1  0  0  0  0
 35 34  1  0  0  0  0
 36 38  1  0  0  0  0
 36 34  1  0  0  0  0
 37 38  1  0  0  0  0
M  END
>  <MODEL>
7

>  <REMARK>
 VINA RESULT:      -6.3      1.505      1.955
  Name = 
  11 active torsions:
  status: ('A' for Active; 'I' for Inactive)
    1  A    between atoms: N_6  and  C_8
    2  A    between atoms: C_8  and  S_29
    3  A    between atoms: N_11  and  N_18
    4  A    between atoms: C_13  and  N_15
    5  A    between atoms: C_13  and  S_29
    6  A    between atoms: N_15  and  P_20
    7  A    between atoms: P_20  and  O_24
    8  A    between atoms: C_21  and  C_22
    9  A    between atoms: C_22  and  O_26
   10  A    between atoms: C_23  and  C_38
   11  A    between atoms: O_26  and  C_32
                            x       y       z     vdW  Elec       q    Type
                         _______ _______ _______ _____ _____    ______ ____

>  <TORSDO>
F 11

$$$$
=
 OpenBabel11042410343D

 38 44  0  0  1  0  0  0  0  0999 V2000
  184.9680  178.3830  143.0420 S   0  0  0  0  0  0  0  0  0  0  0  0
  188.6080  178.3950  141.5580 C   0  0  2  0  0  3  0  0  0  0  0  0
  187.1260  178.3440  141.7830 C   0  0  0  0  0  0  0  0  0  0  0  0
  188.7940  177.3220  143.7740 N   0  0  0  0  0  0  0  0  0  0  0  0
  186.1940  178.6290  140.8380 N   0  0  0  0  0  0  0  0  0  0  0  0
  186.6370  178.1740  143.0680 C   0  0  0  0  0  0  0  0  0  0  0  0
  189.0300  177.7150  140.3500 N   0  0  0  0  0  0  0  0  0  0  0  0
  184.9490  178.6590  141.3750 C   0  0  0  0  0  0  0  0  0  0  0  0
  190.2010  176.6400  141.9760 N   0  0  0  0  0  0  0  0  0  0  0  0
  187.5660  177.9840  144.2380 C   0  0  1  0  0  3  0  0  0  0  0  0
  189.2970  177.5520  142.5910 C   0  0  0  0  0  0  0  0  0  0  0  0
  190.0310  176.7520  140.6980 C   0  0  0  0  0  3  0  0  0  0  0  0
  186.9190  177.1390  145.3190 C   0  0  0  0  0  1  0  0  0  0  0  0
  188.5770  176.8370  135.2880 C   0  0  0  0  0  2  0  0  0  0  0  0
  189.9630  177.1890  135.6410 N   0  0  0  0  0  0  0  0  0  0  0  0
  188.6920  178.1250  139.0480 N   0  0  2  0  0  0  0  0  0  0  0  0
  187.5090  176.7180  137.3510 C   0  0  2  0  0  3  0  0  0  0  0  0
  189.4440  178.1210  136.6730 C   0  0  1  0  0  3  0  0  0  0  0  0
  187.4180  177.4600  138.6800 C   0  0  2  0  0  3  0  0  0  0  0  0
  188.0160  177.7600  136.3300 C   0  0  1  0  0  0  0  0  0  0  0  0
  189.8210  177.8080  138.1490 C   0  0  0  0  0  2  0  0  0  0  0  0
  186.9130  178.0480  137.3640 C   0  0  1  0  0  3  0  0  0  0  0  0
  190.5780  175.9840  136.1980 C   0  0  0  0  0  2  0  0  0  0  0  0
  192.3040  175.8620  135.6390 S   0  0  0  0  0  0  0  0  0  0  0  0
  192.9420  175.7240  137.3360 C   0  0  0  0  0  2  0  0  0  0  0  0
  193.4120  174.3700  137.5790 N   0  0  0  0  0  2  0  0  0  0  0  0
  195.0510  175.6250  139.4880 O   0  0  0  0  0  1  0  0  0  0  0  0
  195.4570  173.1470  138.7820 O   0  0  0  0  0  0  0  0  0  0  0  0
  195.0350  174.4900  138.2320 P   0  0  1  0  0  0  0  0  0  0  0  0
  196.0200  173.9830  136.0270 C   0  0  0  0  0  1  0  0  0  0  0  0
  196.1230  174.9600  137.0190 O   0  0  0  0  0  0  0  0  0  0  0  0
  183.7910  179.3800  139.3570 C   0  0  0  0  0  3  0  0  0  0  0  0
  183.7340  178.9280  140.6050 C   0  0  0  0  0  3  0  0  0  0  0  0
  182.5430  179.6450  138.5850 C   0  0  1  0  0  3  0  0  0  0  0  0
  182.2470  178.4520  137.6970 C   0  0  0  0  0  1  0  0  0  0  0  0
  181.4740  179.8450  139.4630 O   0  0  0  0  0  0  0  0  0  0  0  0
  181.8740  181.7890  138.3460 O   0  0  0  0  0  1  0  0  0  0  0  0
  180.9400  181.0840  139.1060 C   0  0  0  0  0  2  0  0  0  0  0  0
  1  6  1  0  0  0  0
  2  3  1  1  0  0  0
  2 11  1  0  0  0  0
  3  6  2  0  0  0  0
  4 10  1  0  0  0  0
  5  8  2  0  0  0  0
  5  3  1  0  0  0  0
  6 10  1  0  0  0  0
  7 12  1  0  0  0  0
  7  2  1  0  0  0  0
  8  1  1  0  0  0  0
  9 11  1  0  0  0  0
 10 13  1  1  0  0  0
 11  4  2  0  0  0  0
 12  9  2  0  0  0  0
 14 15  1  0  0  0  0
 14 20  1  0  0  0  0
 15 23  1  0  0  0  0
 15 18  1  0  0  0  0
 16 21  1  6  0  0  0
 16  7  1  0  0  0  0
 17 22  1  0  0  0  0
 17 19  1  0  0  0  0
 18 21  1  0  0  0  0
 19 16  1  0  0  0  0
 20 18  1  0  0  0  0
 20 17  1  0  0  0  0
 20 22  1  0  0  0  0
 22 19  1  0  0  0  0
 24 23  1  0  0  0  0
 24 25  1  0  0  0  0
 25 26  1  0  0  0  0
 26 29  1  0  0  0  0
 29 28  2  0  0  0  0
 29 27  1  0  0  0  0
 30 31  1  0  0  0  0
 31 29  1  0  0  0  0
 32 33  2  0  0  0  0
 33  8  1  0  0  0  0
 34 32  1  0  0  0  0
 34 36  1  0  0  0  0
 35 34  1  0  0  0  0
 37 38  1  0  0  0  0
 38 36  1  0  0  0  0
M  END
>  <MODEL>
8

>  <REMARK>
 VINA RESULT:      -6.2      4.649      9.304
  Name = 
  11 active torsions:
  status: ('A' for Active; 'I' for Inactive)
    1  A    between atoms: N_6  and  C_8
    2  A    between atoms: C_8  and  S_29
    3  A    between atoms: N_11  and  N_18
    4  A    between atoms: C_13  and  N_15
    5  A    between atoms: C_13  and  S_29
    6  A    between atoms: N_15  and  P_20
    7  A    between atoms: P_20  and  O_24
    8  A    between atoms: C_21  and  C_22
    9  A    between atoms: C_22  and  O_26
   10  A    between atoms: C_23  and  C_38
   11  A    between atoms: O_26  and  C_32
                            x       y       z     vdW  Elec       q    Type
                         _______ _______ _______ _____ _____    ______ ____

>  <TORSDO>
F 11

$$$$
=
 OpenBabel11042410343D

 38 44  0  0  1  0  0  0  0  0999 V2000
  188.6130  177.8450  144.9310 S   0  0  0  0  0  0  0  0  0  0  0  0
  184.8100  177.8240  143.9360 C   0  0  2  0  0  3  0  0  0  0  0  0
  186.3080  177.8880  143.9660 C   0  0  0  0  0  0  0  0  0  0  0  0
  184.9060  178.8350  146.1860 N   0  0  0  0  0  0  0  0  0  0  0  0
  187.1110  177.6410  142.9000 N   0  0  0  0  0  0  0  0  0  0  0  0
  186.9600  178.0310  145.1800 C   0  0  0  0  0  0  0  0  0  0  0  0
  184.2260  178.5310  142.8130 N   0  0  0  0  0  0  0  0  0  0  0  0
  188.4150  177.6130  143.2680 C   0  0  0  0  0  0  0  0  0  0  0  0
  183.2690  179.5470  144.6070 N   0  0  0  0  0  0  0  0  0  0  0  0
  186.1900  178.1770  146.4660 C   0  0  1  0  0  3  0  0  0  0  0  0
  184.2540  178.6310  145.0730 C   0  0  0  0  0  0  0  0  0  0  0  0
  183.2710  179.4710  143.3150 C   0  0  0  0  0  3  0  0  0  0  0  0
  186.9650  179.0020  147.4770 C   0  0  0  0  0  1  0  0  0  0  0  0
  182.6430  178.4070  137.9050 C   0  0  0  0  0  2  0  0  0  0  0  0
  181.9910  177.3510  138.6980 N   0  0  0  0  0  0  0  0  0  0  0  0
  184.3950  178.1600  141.4660 N   0  0  2  0  0  0  0  0  0  0  0  0
  183.8570  179.5990  139.4920 C   0  0  2  0  0  3  0  0  0  0  0  0
  183.2420  177.1920  139.4820 C   0  0  1  0  0  3  0  0  0  0  0  0
  184.7580  179.3780  140.7020 C   0  0  2  0  0  3  0  0  0  0  0  0
  183.9200  178.2840  138.6850 C   0  0  1  0  0  0  0  0  0  0  0  0
  183.1560  177.5020  141.0030 C   0  0  0  0  0  2  0  0  0  0  0  0
  185.1580  178.9750  139.2850 C   0  0  1  0  0  3  0  0  0  0  0  0
  180.9090  177.9890  139.4460 C   0  0  0  0  0  2  0  0  0  0  0  0
  179.6680  176.7430  139.9120 S   0  0  0  0  0  0  0  0  0  0  0  0
  179.9610  175.7550  138.4140 C   0  0  0  0  0  2  0  0  0  0  0  0
  179.5860  174.3710  138.6540 N   0  0  0  0  0  2  0  0  0  0  0  0
  182.0700  173.9260  137.4150 O   0  0  0  0  0  0  0  0  0  0  0  0
  180.4660  171.9460  137.9680 O   0  0  0  0  0  1  0  0  0  0  0  0
  180.4700  173.3840  137.5040 P   0  0  1  0  0  0  0  0  0  0  0  0
  180.3780  172.4990  135.2030 C   0  0  0  0  0  1  0  0  0  0  0  0
  179.7450  173.4760  135.9730 O   0  0  0  0  0  0  0  0  0  0  0  0
  189.3720  177.5450  141.0290 C   0  0  0  0  0  3  0  0  0  0  0  0
  189.5210  177.3800  142.3390 C   0  0  0  0  0  3  0  0  0  0  0  0
  190.5110  177.3070  140.0960 C   0  0  1  0  0  3  0  0  0  0  0  0
  191.8140  177.5000  140.8470 C   0  0  0  0  0  1  0  0  0  0  0  0
  190.4530  176.0030  139.5970 O   0  0  0  0  0  0  0  0  0  0  0  0
  190.1990  177.4320  137.8420 O   0  0  0  0  0  1  0  0  0  0  0  0
  190.5720  176.1400  138.2130 C   0  0  0  0  0  2  0  0  0  0  0  0
  1  6  1  0  0  0  0
  2  3  1  6  0  0  0
  2 11  1  0  0  0  0
  3  6  2  0  0  0  0
  4 10  1  0  0  0  0
  5  8  2  0  0  0  0
  5  3  1  0  0  0  0
  6 10  1  0  0  0  0
  7 12  1  0  0  0  0
  7  2  1  0  0  0  0
  8  1  1  0  0  0  0
  9 11  1  0  0  0  0
 10 13  1  1  0  0  0
 11  4  2  0  0  0  0
 12  9  2  0  0  0  0
 14 20  1  0  0  0  0
 14 15  1  0  0  0  0
 15 23  1  0  0  0  0
 15 18  1  0  0  0  0
 16 21  1  6  0  0  0
 16  7  1  0  0  0  0
 17 19  1  0  0  0  0
 18 21  1  0  0  0  0
 19 16  1  0  0  0  0
 20 22  1  0  0  0  0
 20 18  1  0  0  0  0
 20 17  1  0  0  0  0
 22 17  1  0  0  0  0
 22 19  1  0  0  0  0
 23 24  1  0  0  0  0
 25 26  1  0  0  0  0
 25 24  1  0  0  0  0
 27 29  2  0  0  0  0
 29 28  1  0  0  0  0
 29 26  1  0  0  0  0
 30 31  1  0  0  0  0
 31 29  1  0  0  0  0
 32 33  2  0  0  0  0
 33  8  1  0  0  0  0
 34 35  1  0  0  0  0
 34 32  1  0  0  0  0
 36 34  1  0  0  0  0
 37 38  1  0  0  0  0
 38 36  1  0  0  0  0
M  END
>  <MODEL>
9

>  <REMARK>
 VINA RESULT:      -6.2      1.862      2.321
  Name = 
  11 active torsions:
  status: ('A' for Active; 'I' for Inactive)
    1  A    between atoms: N_6  and  C_8
    2  A    between atoms: C_8  and  S_29
    3  A    between atoms: N_11  and  N_18
    4  A    between atoms: C_13  and  N_15
    5  A    between atoms: C_13  and  S_29
    6  A    between atoms: N_15  and  P_20
    7  A    between atoms: P_20  and  O_24
    8  A    between atoms: C_21  and  C_22
    9  A    between atoms: C_22  and  O_26
   10  A    between atoms: C_23  and  C_38
   11  A    between atoms: O_26  and  C_32
                            x       y       z     vdW  Elec       q    Type
                         _______ _______ _______ _____ _____    ______ ____

>  <TORSDO>
F 11

$$$$
