=
 OpenBabel11032421073D

 54 57  0  0  1  0  0  0  0  0999 V2000
  187.3480  176.9900  136.7330 C   0  0  0  0  0  0  0  0  0  0  0  0
  189.5240  175.9990  136.4740 C   0  0  0  0  0  0  0  0  0  0  0  0
  188.0470  175.9180  136.4350 C   0  0  0  0  0  0  0  0  0  0  0  0
  187.8030  173.4720  136.5710 C   0  0  0  0  0  3  0  0  0  0  0  0
  190.3710  174.9440  135.9950 N   0  0  0  0  0  0  0  0  0  0  0  0
  187.3950  174.7030  135.8250 C   0  0  1  0  0  3  0  0  0  0  0  0
  186.9650  179.2230  136.3470 F   0  0  0  0  0  0  0  0  0  0  0  0
  186.6680  178.0750  137.0080 C   0  0  0  0  0  0  0  0  0  0  0  0
  190.1670  173.6570  135.9890 C   0  0  0  0  0  0  0  0  0  0  0  0
  189.0240  173.0410  136.6030 N   0  0  0  0  0  0  0  0  0  0  0  0
  190.0720  177.0630  136.8700 O   0  0  0  0  0  0  0  0  0  0  0  0
  191.2080  172.8140  135.5130 N   0  0  0  0  0  1  0  0  0  0  0  0
  185.0810  174.2100  136.5150 C   0  0  0  0  0  0  0  0  0  0  0  0
  185.3250  175.6500  134.5940 C   0  0  0  0  0  1  0  0  0  0  0  0
  185.8940  174.7810  135.6620 C   0  0  0  0  0  0  0  0  0  0  0  0
  184.2930  173.6200  137.3690 C   0  0  0  0  0  3  0  0  0  0  0  0
  183.7420  172.2720  137.0590 C   0  0  0  0  0  2  0  0  0  0  0  0
  182.2170  172.3210  137.0250 C   0  0  2  0  0  3  0  0  0  0  0  0
  181.6960  171.8240  135.6810 C   0  0  0  0  0  2  0  0  0  0  0  0
  182.0010  170.3490  135.5110 C   0  0  0  0  0  2  0  0  0  0  0  0
  180.8290  169.6630  134.8460 C   0  0  0  0  0  1  0  0  0  0  0  0
  181.7070  173.7280  137.3250 C   0  0  0  0  0  2  0  0  0  0  0  0
  180.5340  173.6910  138.1850 N   0  0  0  0  0  2  0  0  0  0  0  0
  180.1740  175.0730  138.4510 C   0  0  0  0  0  2  0  0  0  0  0  0
  180.4890  175.4190  139.8980 C   0  0  0  0  0  2  0  0  0  0  0  0
  181.1710  176.7820  140.0010 C   0  0  0  0  0  2  0  0  0  0  0  0
  180.2190  177.9580  139.7530 C   0  0  2  0  0  3  0  0  0  0  0  0
  180.9670  179.2160  139.3410 C   0  0  0  0  0  1  0  0  0  0  0  0
  179.3260  178.2420  140.9530 C   0  0  0  0  0  2  0  0  0  0  0  0
  180.1490  178.3840  142.2250 C   0  0  0  0  0  2  0  0  0  0  0  0
  179.3610  178.0790  143.3370 O   0  0  0  0  0  1  0  0  0  0  0  0
  185.5880  178.0750  138.0060 C   0  0  0  0  0  0  0  0  0  0  0  0
  184.5650  177.3530  137.8490 O   0  0  0  0  0  0  0  0  0  0  0  0
  185.7180  178.8960  139.1660 N   0  0  0  0  0  2  0  0  0  0  0  0
  186.3480  178.4380  141.8960 C   0  0  0  0  0  3  0  0  0  0  0  0
  184.9790  178.7820  141.4550 C   0  0  0  0  0  0  0  0  0  0  0  0
  186.6050  178.1560  143.1740 C   0  0  0  0  0  3  0  0  0  0  0  0
  185.5020  178.1080  144.1980 C   0  0  2  0  0  3  0  0  0  0  0  0
  184.7030  178.9820  140.1680 C   0  0  0  0  0  3  0  0  0  0  0  0
  184.4140  179.1280  143.8660 C   0  0  0  0  0  2  0  0  0  0  0  0
  183.8630  178.8610  142.4620 C   0  0  0  0  0  2  0  0  0  0  0  0
  186.0230  178.3630  145.4670 O   0  0  0  0  0  0  0  0  0  0  0  0
  186.9560  177.3480  145.6900 C   0  0  0  0  0  2  0  0  0  0  0  0
  188.3510  177.9370  145.7150 C   0  0  0  0  0  2  0  0  0  0  0  0
  190.7110  179.4810  143.8730 O   0  0  0  0  0  0  0  0  0  0  0  0
  191.9160  178.8860  144.2850 C   0  0  0  0  0  2  0  0  0  0  0  0
  189.3790  176.8510  145.3830 C   0  0  2  0  0  3  0  0  0  0  0  0
  189.9230  178.4230  143.3950 C   0  0  0  0  0  2  0  0  0  0  0  0
  190.4090  176.6820  146.4870 C   0  0  2  0  0  3  0  0  0  0  0  0
  191.6140  177.4920  144.7920 C   0  0  2  0  0  3  0  0  0  0  0  0
  190.2720  177.1740  144.1910 C   0  0  1  0  0  0  0  0  0  0  0  0
  189.8950  176.9780  147.7510 O   0  0  0  0  0  1  0  0  0  0  0  0
  191.4970  177.5180  146.1940 O   0  0  0  0  0  0  0  0  0  0  0  0
  190.3730  175.9720  143.2680 C   0  0  0  0  0  1  0  0  0  0  0  0
  1  8  2  0  0  0  0
  2 11  2  0  0  0  0
  3  2  1  0  0  0  0
  3  1  2  0  0  0  0
  4 10  2  0  0  0  0
  5  2  1  0  0  0  0
  6 15  1  1  0  0  0
  6  3  1  0  0  0  0
  6  4  1  0  0  0  0
  7  8  1  0  0  0  0
  8 32  1  0  0  0  0
  9  5  2  0  0  0  0
  9 10  1  0  0  0  0
 12  9  1  0  0  0  0
 13 16  2  0  0  0  0
 14 15  1  0  0  0  0
 15 13  2  0  0  0  0
 17 16  1  0  0  0  0
 18 19  1  6  0  0  0
 18 17  1  0  0  0  0
 18 22  1  0  0  0  0
 20 19  1  0  0  0  0
 21 20  1  0  0  0  0
 22 23  1  0  0  0  0
 23 24  1  0  0  0  0
 24 25  1  0  0  0  0
 25 26  1  0  0  0  0
 27 28  1  1  0  0  0
 27 26  1  0  0  0  0
 27 29  1  0  0  0  0
 29 30  1  0  0  0  0
 30 31  1  0  0  0  0
 32 34  1  0  0  0  0
 33 32  2  0  0  0  0
 34 39  1  0  0  0  0
 35 37  2  0  0  0  0
 36 35  1  0  0  0  0
 36 41  1  0  0  0  0
 37 38  1  0  0  0  0
 38 42  1  1  0  0  0
 39 36  2  0  0  0  0
 40 38  1  0  0  0  0
 41 40  1  0  0  0  0
 42 43  1  0  0  0  0
 43 44  1  0  0  0  0
 45 46  1  0  0  0  0
 47 44  1  1  0  0  0
 47 49  1  0  0  0  0
 48 45  1  0  0  0  0
 48 51  1  0  0  0  0
 49 52  1  1  0  0  0
 50 46  1  6  0  0  0
 50 53  1  0  0  0  0
 51 54  1  6  0  0  0
 51 50  1  0  0  0  0
 51 47  1  0  0  0  0
 53 49  1  0  0  0  0
M  END
>  <MODEL>
1

>  <REMARK>
 VINA RESULT:      -7.5      0.000      0.000
  Name = 
  19 active torsions:
  status: ('A' for Active; 'I' for Inactive)
    1  A    between atoms: C_1  and  C_42
    2  A    between atoms: C_1  and  C_44
    3  A    between atoms: C_5  and  N_7
    4  A    between atoms: C_5  and  C_32
    5  A    between atoms: N_7  and  C_54
    6  A    between atoms: C_8  and  C_25
    7  A    between atoms: C_9  and  C_39
    8  A    between atoms: C_10  and  C_19
    9  A    between atoms: C_13  and  C_43
   10  A    between atoms: C_18  and  C_39
   11  A    between atoms: C_18  and  C_51
   12  A    between atoms: C_25  and  C_42
   13  A    between atoms: O_28  and  C_33
   14  A    between atoms: O_28  and  C_45
   15  A    between atoms: C_30  and  C_37
   16  A    between atoms: C_32  and  C_51
   17  A    between atoms: C_34  and  N_40
   18  A    between atoms: C_37  and  C_45
   19  A    between atoms: C_42  and  C_54
                            x       y       z     vdW  Elec       q    Type
                         _______ _______ _______ _____ _____    ______ ____

>  <TORSDO>
F 19

$$$$
=
 OpenBabel11032421073D

 54 57  0  0  1  0  0  0  0  0999 V2000
  186.1730  177.0410  137.4280 C   0  0  0  0  0  0  0  0  0  0  0  0
  187.6970  175.2020  137.1410 C   0  0  0  0  0  0  0  0  0  0  0  0
  186.3270  175.7580  137.1860 C   0  0  0  0  0  0  0  0  0  0  0  0
  185.0860  173.6620  137.5410 C   0  0  0  0  0  3  0  0  0  0  0  0
  187.9770  173.8630  136.7090 N   0  0  0  0  0  0  0  0  0  0  0  0
  185.1750  174.9060  136.7160 C   0  0  1  0  0  3  0  0  0  0  0  0
  186.7380  179.1980  136.8740 F   0  0  0  0  0  0  0  0  0  0  0  0
  186.0400  178.3250  137.6450 C   0  0  0  0  0  0  0  0  0  0  0  0
  187.2490  172.7880  136.8230 C   0  0  0  0  0  0  0  0  0  0  0  0
  186.0090  172.7530  137.5460 N   0  0  0  0  0  0  0  0  0  0  0  0
  188.6740  175.9500  137.4160 O   0  0  0  0  0  0  0  0  0  0  0  0
  187.7930  171.5560  136.3670 N   0  0  0  0  0  1  0  0  0  0  0  0
  183.1980  176.0030  137.6970 C   0  0  0  0  0  0  0  0  0  0  0  0
  183.3120  175.9940  135.2860 C   0  0  0  0  0  1  0  0  0  0  0  0
  183.8390  175.6090  136.6260 C   0  0  0  0  0  0  0  0  0  0  0  0
  182.5710  176.3710  138.7790 C   0  0  0  0  0  3  0  0  0  0  0  0
  181.5000  175.5060  139.3450 C   0  0  0  0  0  2  0  0  0  0  0  0
  180.1400  176.1790  139.1850 C   0  0  2  0  0  3  0  0  0  0  0  0
  179.1990  175.2970  138.3710 C   0  0  0  0  0  2  0  0  0  0  0  0
  179.9920  174.3060  137.5420 C   0  0  0  0  0  2  0  0  0  0  0  0
  179.6640  174.4950  136.0780 C   0  0  0  0  0  1  0  0  0  0  0  0
  180.2820  177.5600  138.5510 C   0  0  0  0  0  2  0  0  0  0  0  0
  179.5970  178.5750  139.3380 N   0  0  0  0  0  2  0  0  0  0  0  0
  180.5280  179.6810  139.4830 C   0  0  0  0  0  2  0  0  0  0  0  0
  179.7680  180.9510  139.8370 C   0  0  0  0  0  2  0  0  0  0  0  0
  179.2400  181.6430  138.5820 C   0  0  0  0  0  2  0  0  0  0  0  0
  179.9310  182.9800  138.2900 C   0  0  2  0  0  3  0  0  0  0  0  0
  178.9310  184.1180  138.1600 C   0  0  0  0  0  1  0  0  0  0  0  0
  180.8210  182.9140  137.0560 C   0  0  0  0  0  2  0  0  0  0  0  0
  181.2650  184.3050  136.6260 C   0  0  0  0  0  2  0  0  0  0  0  0
  182.1800  184.8170  137.5490 O   0  0  0  0  0  1  0  0  0  0  0  0
  185.1490  178.8400  138.6950 C   0  0  0  0  0  0  0  0  0  0  0  0
  184.1120  179.4950  138.3960 O   0  0  0  0  0  0  0  0  0  0  0  0
  185.4670  178.5800  140.0620 N   0  0  0  0  0  2  0  0  0  0  0  0
  186.2620  178.1270  142.7490 C   0  0  0  0  0  3  0  0  0  0  0  0
  185.0350  178.8800  142.4120 C   0  0  0  0  0  0  0  0  0  0  0  0
  186.5760  177.8630  144.0180 C   0  0  0  0  0  3  0  0  0  0  0  0
  185.6610  178.2610  145.1460 C   0  0  2  0  0  3  0  0  0  0  0  0
  184.6740  179.0720  141.1450 C   0  0  0  0  0  3  0  0  0  0  0  0
  184.9320  179.5620  144.8150 C   0  0  0  0  0  2  0  0  0  0  0  0
  184.1470  179.4000  143.5100 C   0  0  0  0  0  2  0  0  0  0  0  0
  186.3970  178.4130  146.3220 O   0  0  0  0  0  0  0  0  0  0  0  0
  187.3120  177.3580  146.3190 C   0  0  0  0  0  2  0  0  0  0  0  0
  188.7080  177.8980  146.0810 C   0  0  0  0  0  2  0  0  0  0  0  0
  190.6770  179.4320  143.8200 O   0  0  0  0  0  0  0  0  0  0  0  0
  191.9190  178.7860  143.9480 C   0  0  0  0  0  2  0  0  0  0  0  0
  189.6000  176.7930  145.5070 C   0  0  2  0  0  3  0  0  0  0  0  0
  189.7660  178.4160  143.4930 C   0  0  0  0  0  2  0  0  0  0  0  0
  190.8350  176.5540  146.3590 C   0  0  2  0  0  3  0  0  0  0  0  0
  191.6800  177.3860  144.4690 C   0  0  2  0  0  3  0  0  0  0  0  0
  190.2300  177.1300  144.1600 C   0  0  1  0  0  0  0  0  0  0  0  0
  190.6130  176.8210  147.7120 O   0  0  0  0  0  1  0  0  0  0  0  0
  191.8650  177.3660  145.8640 O   0  0  0  0  0  0  0  0  0  0  0  0
  190.0880  175.9590  143.2050 C   0  0  0  0  0  1  0  0  0  0  0  0
  1  8  2  0  0  0  0
  2  3  1  0  0  0  0
  2 11  2  0  0  0  0
  3  1  2  0  0  0  0
  4 10  2  0  0  0  0
  5  9  2  0  0  0  0
  5  2  1  0  0  0  0
  6 15  1  1  0  0  0
  6  3  1  0  0  0  0
  6  4  1  0  0  0  0
  7  8  1  0  0  0  0
  8 32  1  0  0  0  0
  9 10  1  0  0  0  0
 12  9  1  0  0  0  0
 13 16  2  0  0  0  0
 14 15  1  0  0  0  0
 15 13  2  0  0  0  0
 16 17  1  0  0  0  0
 18 19  1  6  0  0  0
 18 17  1  0  0  0  0
 20 19  1  0  0  0  0
 21 20  1  0  0  0  0
 22 18  1  0  0  0  0
 22 23  1  0  0  0  0
 23 24  1  0  0  0  0
 24 25  1  0  0  0  0
 26 25  1  0  0  0  0
 27 28  1  6  0  0  0
 27 26  1  0  0  0  0
 29 27  1  0  0  0  0
 30 29  1  0  0  0  0
 30 31  1  0  0  0  0
 32 34  1  0  0  0  0
 33 32  2  0  0  0  0
 34 39  1  0  0  0  0
 35 37  2  0  0  0  0
 36 35  1  0  0  0  0
 36 41  1  0  0  0  0
 37 38  1  0  0  0  0
 38 42  1  1  0  0  0
 39 36  2  0  0  0  0
 40 38  1  0  0  0  0
 41 40  1  0  0  0  0
 43 42  1  0  0  0  0
 44 43  1  0  0  0  0
 45 46  1  0  0  0  0
 47 44  1  1  0  0  0
 47 49  1  0  0  0  0
 48 45  1  0  0  0  0
 48 51  1  0  0  0  0
 49 52  1  1  0  0  0
 50 46  1  1  0  0  0
 50 53  1  0  0  0  0
 51 54  1  6  0  0  0
 51 50  1  0  0  0  0
 51 47  1  0  0  0  0
 53 49  1  0  0  0  0
M  END
>  <MODEL>
2

>  <REMARK>
 VINA RESULT:      -7.4      2.255      3.380
  Name = 
  19 active torsions:
  status: ('A' for Active; 'I' for Inactive)
    1  A    between atoms: C_1  and  C_42
    2  A    between atoms: C_1  and  C_44
    3  A    between atoms: C_5  and  N_7
    4  A    between atoms: C_5  and  C_32
    5  A    between atoms: N_7  and  C_54
    6  A    between atoms: C_8  and  C_25
    7  A    between atoms: C_9  and  C_39
    8  A    between atoms: C_10  and  C_19
    9  A    between atoms: C_13  and  C_43
   10  A    between atoms: C_18  and  C_39
   11  A    between atoms: C_18  and  C_51
   12  A    between atoms: C_25  and  C_42
   13  A    between atoms: O_28  and  C_33
   14  A    between atoms: O_28  and  C_45
   15  A    between atoms: C_30  and  C_37
   16  A    between atoms: C_32  and  C_51
   17  A    between atoms: C_34  and  N_40
   18  A    between atoms: C_37  and  C_45
   19  A    between atoms: C_42  and  C_54
                            x       y       z     vdW  Elec       q    Type
                         _______ _______ _______ _____ _____    ______ ____

>  <TORSDO>
F 19

$$$$
=
 OpenBabel11032421073D

 54 57  0  0  1  0  0  0  0  0999 V2000
  184.3520  176.9040  136.9840 C   0  0  0  0  0  0  0  0  0  0  0  0
  182.8250  175.1400  136.3970 C   0  0  0  0  0  0  0  0  0  0  0  0
  183.1960  176.3200  137.2080 C   0  0  0  0  0  0  0  0  0  0  0  0
  181.6480  175.9790  139.0920 C   0  0  0  0  0  3  0  0  0  0  0  0
  181.5190  174.5480  136.4410 N   0  0  0  0  0  0  0  0  0  0  0  0
  182.1510  176.9640  138.0850 C   0  0  1  0  0  3  0  0  0  0  0  0
  185.7810  177.8480  135.4520 F   0  0  0  0  0  0  0  0  0  0  0  0
  185.4960  177.4870  136.7300 C   0  0  0  0  0  0  0  0  0  0  0  0
  180.6780  174.4730  137.4330 C   0  0  0  0  0  0  0  0  0  0  0  0
  180.9940  174.9100  138.7640 N   0  0  0  0  0  0  0  0  0  0  0  0
  183.6570  174.6750  135.5720 O   0  0  0  0  0  0  0  0  0  0  0  0
  179.4620  173.7640  137.2310 N   0  0  0  0  0  1  0  0  0  0  0  0
  183.2600  178.2860  139.8440 C   0  0  0  0  0  0  0  0  0  0  0  0
  182.2880  179.5480  138.0300 C   0  0  0  0  0  1  0  0  0  0  0  0
  182.5600  178.2650  138.7390 C   0  0  0  0  0  0  0  0  0  0  0  0
  183.9430  178.2810  140.9540 C   0  0  0  0  0  3  0  0  0  0  0  0
  183.2420  178.4410  142.2570 C   0  0  0  0  0  2  0  0  0  0  0  0
  184.0710  179.3080  143.2000 C   0  0  2  0  0  3  0  0  0  0  0  0
  185.5460  179.2580  142.8160 C   0  0  0  0  0  2  0  0  0  0  0  0
  186.0940  177.8570  143.0150 C   0  0  0  0  0  2  0  0  0  0  0  0
  187.4770  177.7650  142.4100 C   0  0  0  0  0  1  0  0  0  0  0  0
  183.8680  178.8880  144.6530 C   0  0  0  0  0  2  0  0  0  0  0  0
  184.9440  179.3800  145.5000 N   0  0  0  0  0  2  0  0  0  0  0  0
  185.1430  178.3810  146.5350 C   0  0  0  0  0  2  0  0  0  0  0  0
  186.5820  178.4270  147.0270 C   0  0  0  0  0  2  0  0  0  0  0  0
  187.4110  177.3040  146.4060 C   0  0  0  0  0  2  0  0  0  0  0  0
  188.9230  177.5410  146.5020 C   0  0  2  0  0  3  0  0  0  0  0  0
  189.6080  177.3800  145.1540 C   0  0  0  0  0  1  0  0  0  0  0  0
  189.5840  176.6470  147.5420 C   0  0  0  0  0  2  0  0  0  0  0  0
  191.0570  176.4340  147.2230 C   0  0  0  0  0  2  0  0  0  0  0  0
  191.8350  177.3470  147.9400 O   0  0  0  0  0  1  0  0  0  0  0  0
  186.4710  177.7670  137.7940 C   0  0  0  0  0  0  0  0  0  0  0  0
  186.3440  178.7820  138.5350 O   0  0  0  0  0  0  0  0  0  0  0  0
  187.5620  176.8680  137.9870 N   0  0  0  0  0  2  0  0  0  0  0  0
  190.2840  176.3020  137.4080 C   0  0  0  0  0  3  0  0  0  0  0  0
  189.8560  176.8340  138.7210 C   0  0  0  0  0  0  0  0  0  0  0  0
  191.5570  175.9750  137.1850 C   0  0  0  0  0  3  0  0  0  0  0  0
  192.5890  176.0690  138.2770 C   0  0  2  0  0  3  0  0  0  0  0  0
  188.5730  177.0820  138.9750 C   0  0  0  0  0  3  0  0  0  0  0  0
  192.2740  177.2320  139.2170 C   0  0  0  0  0  2  0  0  0  0  0  0
  190.8720  177.0560  139.8080 C   0  0  0  0  0  2  0  0  0  0  0  0
  193.8560  176.2380  137.7180 O   0  0  0  0  0  0  0  0  0  0  0  0
  193.9610  175.2450  136.7420 C   0  0  0  0  0  2  0  0  0  0  0  0
  195.3750  174.7030  136.7170 C   0  0  0  0  0  2  0  0  0  0  0  0
  198.3790  173.8750  135.4400 O   0  0  0  0  0  0  0  0  0  0  0  0
  198.6990  172.6590  136.0690 C   0  0  0  0  0  2  0  0  0  0  0  0
  195.3430  173.1790  136.5660 C   0  0  2  0  0  3  0  0  0  0  0  0
  197.1640  173.6390  134.7800 C   0  0  0  0  0  2  0  0  0  0  0  0
  195.7390  172.4690  137.8500 C   0  0  2  0  0  3  0  0  0  0  0  0
  197.4110  171.9680  136.4600 C   0  0  2  0  0  3  0  0  0  0  0  0
  196.3730  172.6230  135.5900 C   0  0  1  0  0  0  0  0  0  0  0  0
  195.3990  173.1960  138.9920 O   0  0  0  0  0  1  0  0  0  0  0  0
  197.1230  172.2430  137.8100 O   0  0  0  0  0  0  0  0  0  0  0  0
  195.7280  171.6010  134.6700 C   0  0  0  0  0  1  0  0  0  0  0  0
  1  3  2  0  0  0  0
  2  5  1  0  0  0  0
  2  3  1  0  0  0  0
  3  6  1  0  0  0  0
  5  9  2  0  0  0  0
  6 15  1  1  0  0  0
  6  4  1  0  0  0  0
  7  8  1  0  0  0  0
  8  1  2  0  0  0  0
  8 32  1  0  0  0  0
  9 10  1  0  0  0  0
 10  4  2  0  0  0  0
 11  2  2  0  0  0  0
 12  9  1  0  0  0  0
 13 16  2  0  0  0  0
 14 15  1  0  0  0  0
 15 13  2  0  0  0  0
 16 17  1  0  0  0  0
 18 17  1  6  0  0  0
 18 22  1  0  0  0  0
 19 20  1  0  0  0  0
 19 18  1  0  0  0  0
 21 20  1  0  0  0  0
 22 23  1  0  0  0  0
 23 24  1  0  0  0  0
 24 25  1  0  0  0  0
 26 27  1  0  0  0  0
 26 25  1  0  0  0  0
 27 28  1  6  0  0  0
 27 29  1  0  0  0  0
 30 29  1  0  0  0  0
 30 31  1  0  0  0  0
 32 34  1  0  0  0  0
 32 33  2  0  0  0  0
 34 39  1  0  0  0  0
 35 36  1  0  0  0  0
 36 39  2  0  0  0  0
 36 41  1  0  0  0  0
 37 35  2  0  0  0  0
 37 38  1  0  0  0  0
 38 42  1  6  0  0  0
 38 40  1  0  0  0  0
 40 41  1  0  0  0  0
 43 42  1  0  0  0  0
 44 43  1  0  0  0  0
 45 46  1  0  0  0  0
 47 44  1  1  0  0  0
 47 49  1  0  0  0  0
 48 45  1  0  0  0  0
 48 51  1  0  0  0  0
 49 52  1  1  0  0  0
 50 46  1  6  0  0  0
 50 53  1  0  0  0  0
 51 54  1  6  0  0  0
 51 50  1  0  0  0  0
 51 47  1  0  0  0  0
 53 49  1  0  0  0  0
M  END
>  <MODEL>
3

>  <REMARK>
 VINA RESULT:      -7.2      3.822      9.284
  Name = 
  19 active torsions:
  status: ('A' for Active; 'I' for Inactive)
    1  A    between atoms: C_1  and  C_42
    2  A    between atoms: C_1  and  C_44
    3  A    between atoms: C_5  and  N_7
    4  A    between atoms: C_5  and  C_32
    5  A    between atoms: N_7  and  C_54
    6  A    between atoms: C_8  and  C_25
    7  A    between atoms: C_9  and  C_39
    8  A    between atoms: C_10  and  C_19
    9  A    between atoms: C_13  and  C_43
   10  A    between atoms: C_18  and  C_39
   11  A    between atoms: C_18  and  C_51
   12  A    between atoms: C_25  and  C_42
   13  A    between atoms: O_28  and  C_33
   14  A    between atoms: O_28  and  C_45
   15  A    between atoms: C_30  and  C_37
   16  A    between atoms: C_32  and  C_51
   17  A    between atoms: C_34  and  N_40
   18  A    between atoms: C_37  and  C_45
   19  A    between atoms: C_42  and  C_54
                            x       y       z     vdW  Elec       q    Type
                         _______ _______ _______ _____ _____    ______ ____

>  <TORSDO>
F 19

$$$$
=
 OpenBabel11032421073D

 54 57  0  0  1  0  0  0  0  0999 V2000
  188.3170  177.7720  145.1860 C   0  0  0  0  0  0  0  0  0  0  0  0
  189.4970  176.7810  147.0330 C   0  0  0  0  0  0  0  0  0  0  0  0
  189.4670  177.3610  145.6720 C   0  0  0  0  0  0  0  0  0  0  0  0
  191.5950  176.4530  144.8320 C   0  0  0  0  0  3  0  0  0  0  0  0
  190.7200  176.4730  147.7180 N   0  0  0  0  0  0  0  0  0  0  0  0
  190.7690  177.6910  144.9870 C   0  0  1  0  0  3  0  0  0  0  0  0
  186.4370  179.0590  145.4820 F   0  0  0  0  0  0  0  0  0  0  0  0
  187.1670  178.1980  144.7280 C   0  0  0  0  0  0  0  0  0  0  0  0
  191.8670  176.0900  147.2310 C   0  0  0  0  0  0  0  0  0  0  0  0
  192.0690  175.7930  145.8410 N   0  0  0  0  0  0  0  0  0  0  0  0
  188.4140  176.6190  147.6570 O   0  0  0  0  0  0  0  0  0  0  0  0
  192.9130  175.7800  148.1420 N   0  0  0  0  0  1  0  0  0  0  0  0
  190.4370  177.8200  142.5480 C   0  0  0  0  0  0  0  0  0  0  0  0
  190.6130  179.9320  143.7030 C   0  0  0  0  0  1  0  0  0  0  0  0
  190.6460  178.4420  143.6810 C   0  0  0  0  0  0  0  0  0  0  0  0
  190.2450  177.1760  141.4320 C   0  0  0  0  0  3  0  0  0  0  0  0
  191.4020  176.8610  140.5500 C   0  0  0  0  0  2  0  0  0  0  0  0
  191.0800  177.2300  139.1050 C   0  0  2  0  0  3  0  0  0  0  0  0
  189.5740  177.2020  138.8680 C   0  0  0  0  0  2  0  0  0  0  0  0
  189.2680  177.4220  137.3990 C   0  0  0  0  0  2  0  0  0  0  0  0
  188.6480  178.7890  137.2110 C   0  0  0  0  0  1  0  0  0  0  0  0
  191.8050  176.3080  138.1280 C   0  0  0  0  0  2  0  0  0  0  0  0
  193.2450  176.5170  138.1760 N   0  0  0  0  0  2  0  0  0  0  0  0
  193.7600  176.1330  136.8730 C   0  0  0  0  0  2  0  0  0  0  0  0
  194.9570  175.2100  137.0440 C   0  0  0  0  0  2  0  0  0  0  0  0
  195.2760  174.4780  135.7410 C   0  0  0  0  0  2  0  0  0  0  0  0
  195.4660  172.9670  135.9250 C   0  0  2  0  0  3  0  0  0  0  0  0
  195.4540  172.2300  134.5950 C   0  0  0  0  0  1  0  0  0  0  0  0
  194.4360  172.3670  136.8730 C   0  0  0  0  0  2  0  0  0  0  0  0
  193.3060  171.7010  136.1020 C   0  0  0  0  0  2  0  0  0  0  0  0
  192.3300  172.6460  135.7770 O   0  0  0  0  0  1  0  0  0  0  0  0
  186.6560  177.7750  143.4160 C   0  0  0  0  0  0  0  0  0  0  0  0
  187.4010  177.1640  142.6000 O   0  0  0  0  0  0  0  0  0  0  0  0
  185.2980  178.0570  143.0790 N   0  0  0  0  0  2  0  0  0  0  0  0
  182.7040  178.9670  142.3680 C   0  0  0  0  0  3  0  0  0  0  0  0
  183.5200  178.1370  141.4550 C   0  0  0  0  0  0  0  0  0  0  0  0
  181.4600  179.3210  142.0430 C   0  0  0  0  0  3  0  0  0  0  0  0
  180.8190  178.8320  140.7710 C   0  0  2  0  0  3  0  0  0  0  0  0
  184.7300  177.7110  141.8130 C   0  0  0  0  0  3  0  0  0  0  0  0
  181.8620  178.6810  139.6650 C   0  0  0  0  0  2  0  0  0  0  0  0
  182.9650  177.7200  140.1200 C   0  0  0  0  0  2  0  0  0  0  0  0
  179.8250  179.7260  140.3690 O   0  0  0  0  0  0  0  0  0  0  0  0
  180.0720  179.9620  139.0150 C   0  0  0  0  0  2  0  0  0  0  0  0
  179.9920  181.4490  138.7360 C   0  0  0  0  0  2  0  0  0  0  0  0
  179.1410  184.6050  137.9270 O   0  0  0  0  0  0  0  0  0  0  0  0
  180.3450  185.1880  137.4940 C   0  0  0  0  0  2  0  0  0  0  0  0
  180.8340  181.7910  137.5030 C   0  0  2  0  0  3  0  0  0  0  0  0
  178.9390  183.5060  137.0790 C   0  0  0  0  0  2  0  0  0  0  0  0
  182.2150  182.3030  137.8800 C   0  0  2  0  0  3  0  0  0  0  0  0
  181.2450  184.0920  136.9650 C   0  0  2  0  0  3  0  0  0  0  0  0
  180.3000  182.9570  136.6800 C   0  0  1  0  0  0  0  0  0  0  0  0
  182.6810  181.7590  139.0780 O   0  0  0  0  0  1  0  0  0  0  0  0
  182.1470  183.7000  137.9720 O   0  0  0  0  0  0  0  0  0  0  0  0
  180.3160  182.6090  135.2030 C   0  0  0  0  0  1  0  0  0  0  0  0
  1  3  2  0  0  0  0
  2 11  2  0  0  0  0
  2  5  1  0  0  0  0
  3  2  1  0  0  0  0
  4  6  1  0  0  0  0
  4 10  2  0  0  0  0
  6 15  1  6  0  0  0
  6  3  1  0  0  0  0
  8  1  2  0  0  0  0
  8  7  1  0  0  0  0
  9  5  2  0  0  0  0
  9 12  1  0  0  0  0
 10  9  1  0  0  0  0
 13 15  2  0  0  0  0
 15 14  1  0  0  0  0
 16 13  2  0  0  0  0
 17 16  1  0  0  0  0
 18 22  1  6  0  0  0
 18 17  1  0  0  0  0
 19 18  1  0  0  0  0
 20 19  1  0  0  0  0
 21 20  1  0  0  0  0
 22 23  1  0  0  0  0
 24 25  1  0  0  0  0
 24 23  1  0  0  0  0
 26 27  1  0  0  0  0
 26 25  1  0  0  0  0
 27 28  1  6  0  0  0
 27 29  1  0  0  0  0
 30 29  1  0  0  0  0
 31 30  1  0  0  0  0
 32  8  1  0  0  0  0
 33 32  2  0  0  0  0
 34 32  1  0  0  0  0
 36 39  2  0  0  0  0
 36 35  1  0  0  0  0
 37 35  2  0  0  0  0
 38 42  1  6  0  0  0
 38 37  1  0  0  0  0
 39 34  1  0  0  0  0
 40 41  1  0  0  0  0
 40 38  1  0  0  0  0
 41 36  1  0  0  0  0
 43 42  1  0  0  0  0
 44 43  1  0  0  0  0
 46 45  1  0  0  0  0
 47 49  1  0  0  0  0
 47 44  1  1  0  0  0
 48 45  1  0  0  0  0
 49 53  1  0  0  0  0
 49 52  1  1  0  0  0
 50 46  1  1  0  0  0
 50 53  1  0  0  0  0
 51 54  1  6  0  0  0
 51 50  1  0  0  0  0
 51 48  1  0  0  0  0
 51 47  1  0  0  0  0
M  END
>  <MODEL>
4

>  <REMARK>
 VINA RESULT:      -6.6      4.451     11.253
  Name = 
  19 active torsions:
  status: ('A' for Active; 'I' for Inactive)
    1  A    between atoms: C_1  and  C_42
    2  A    between atoms: C_1  and  C_44
    3  A    between atoms: C_5  and  N_7
    4  A    between atoms: C_5  and  C_32
    5  A    between atoms: N_7  and  C_54
    6  A    between atoms: C_8  and  C_25
    7  A    between atoms: C_9  and  C_39
    8  A    between atoms: C_10  and  C_19
    9  A    between atoms: C_13  and  C_43
   10  A    between atoms: C_18  and  C_39
   11  A    between atoms: C_18  and  C_51
   12  A    between atoms: C_25  and  C_42
   13  A    between atoms: O_28  and  C_33
   14  A    between atoms: O_28  and  C_45
   15  A    between atoms: C_30  and  C_37
   16  A    between atoms: C_32  and  C_51
   17  A    between atoms: C_34  and  N_40
   18  A    between atoms: C_37  and  C_45
   19  A    between atoms: C_42  and  C_54
                            x       y       z     vdW  Elec       q    Type
                         _______ _______ _______ _____ _____    ______ ____

>  <TORSDO>
F 19

$$$$
=
 OpenBabel11032421073D

 54 57  0  0  1  0  0  0  0  0999 V2000
  188.2520  177.9870  146.1250 C   0  0  0  0  0  0  0  0  0  0  0  0
  189.9230  176.9680  147.5230 C   0  0  0  0  0  0  0  0  0  0  0  0
  189.4550  177.4640  146.2110 C   0  0  0  0  0  0  0  0  0  0  0  0
  191.0320  176.2450  144.7670 C   0  0  0  0  0  3  0  0  0  0  0  0
  191.2750  176.5500  147.7570 N   0  0  0  0  0  0  0  0  0  0  0  0
  190.4430  177.5840  145.0780 C   0  0  1  0  0  3  0  0  0  0  0  0
  186.7420  179.5170  146.9360 F   0  0  0  0  0  0  0  0  0  0  0  0
  187.0610  178.5260  146.0640 C   0  0  0  0  0  0  0  0  0  0  0  0
  192.1240  175.9960  146.9370 C   0  0  0  0  0  0  0  0  0  0  0  0
  191.7750  175.5920  145.6040 N   0  0  0  0  0  0  0  0  0  0  0  0
  189.1320  176.9820  148.5050 O   0  0  0  0  0  0  0  0  0  0  0  0
  193.3950  175.6120  147.4430 N   0  0  0  0  0  1  0  0  0  0  0  0
  189.2600  177.6060  142.9160 C   0  0  0  0  0  0  0  0  0  0  0  0
  190.0450  179.7450  143.7110 C   0  0  0  0  0  1  0  0  0  0  0  0
  189.9250  178.2640  143.8310 C   0  0  0  0  0  0  0  0  0  0  0  0
  188.6140  176.9250  142.0120 C   0  0  0  0  0  3  0  0  0  0  0  0
  189.3340  176.4140  140.8140 C   0  0  0  0  0  2  0  0  0  0  0  0
  189.7030  177.5680  139.8870 C   0  0  2  0  0  3  0  0  0  0  0  0
  188.5750  177.8430  138.8980 C   0  0  0  0  0  2  0  0  0  0  0  0
  189.1250  178.4770  137.6350 C   0  0  0  0  0  2  0  0  0  0  0  0
  187.9830  178.8280  136.7070 C   0  0  0  0  0  1  0  0  0  0  0  0
  191.0150  177.2900  139.1580 C   0  0  0  0  0  2  0  0  0  0  0  0
  191.2790  175.8610  139.0760 N   0  0  0  0  0  2  0  0  0  0  0  0
  192.2770  175.6860  138.0340 C   0  0  0  0  0  2  0  0  0  0  0  0
  191.6150  175.7770  136.6670 C   0  0  0  0  0  2  0  0  0  0  0  0
  190.9540  174.4530  136.2890 C   0  0  0  0  0  2  0  0  0  0  0  0
  189.7050  174.6260  135.4160 C   0  0  2  0  0  3  0  0  0  0  0  0
  189.6130  176.0260  134.8310 C   0  0  0  0  0  1  0  0  0  0  0  0
  188.4250  174.2800  136.1630 C   0  0  0  0  0  2  0  0  0  0  0  0
  187.3450  175.3230  135.9120 C   0  0  0  0  0  2  0  0  0  0  0  0
  186.5450  175.4620  137.0480 O   0  0  0  0  0  1  0  0  0  0  0  0
  186.0690  178.0930  145.0690 C   0  0  0  0  0  0  0  0  0  0  0  0
  186.2430  177.0340  144.4040 O   0  0  0  0  0  0  0  0  0  0  0  0
  184.8960  178.8820  144.8730 N   0  0  0  0  0  2  0  0  0  0  0  0
  185.5010  178.9530  142.1000 C   0  0  0  0  0  3  0  0  0  0  0  0
  184.1640  178.5680  142.5990 C   0  0  0  0  0  0  0  0  0  0  0  0
  185.7410  179.0510  140.7920 C   0  0  0  0  0  3  0  0  0  0  0  0
  184.6450  178.8410  139.7810 C   0  0  2  0  0  3  0  0  0  0  0  0
  183.8980  178.5520  143.9040 C   0  0  0  0  0  3  0  0  0  0  0  0
  183.6470  177.7960  140.2780 C   0  0  0  0  0  2  0  0  0  0  0  0
  183.0660  178.2340  141.6260 C   0  0  0  0  0  2  0  0  0  0  0  0
  185.1950  178.4330  138.5640 O   0  0  0  0  0  0  0  0  0  0  0  0
  184.1580  177.7780  137.8970 C   0  0  0  0  0  2  0  0  0  0  0  0
  183.2510  178.7980  137.2410 C   0  0  0  0  0  2  0  0  0  0  0  0
  181.3970  181.5480  137.8210 O   0  0  0  0  0  0  0  0  0  0  0  0
  180.2350  181.3510  137.0540 C   0  0  0  0  0  2  0  0  0  0  0  0
  181.8010  178.3060  137.2840 C   0  0  2  0  0  3  0  0  0  0  0  0
  181.4510  180.4510  138.6950 C   0  0  0  0  0  2  0  0  0  0  0  0
  181.1820  178.2310  135.8990 C   0  0  2  0  0  3  0  0  0  0  0  0
  180.0210  179.8630  136.8820 C   0  0  2  0  0  3  0  0  0  0  0  0
  180.8370  179.2520  137.9890 C   0  0  1  0  0  0  0  0  0  0  0  0
  182.1220  177.9530  134.9040 O   0  0  0  0  0  1  0  0  0  0  0  0
  180.5470  179.4540  135.6420 O   0  0  0  0  0  0  0  0  0  0  0  0
  179.9440  178.4790  138.9430 C   0  0  0  0  0  1  0  0  0  0  0  0
  1  3  2  0  0  0  0
  2  5  1  0  0  0  0
  2 11  2  0  0  0  0
  3  2  1  0  0  0  0
  4  6  1  0  0  0  0
  4 10  2  0  0  0  0
  6 15  1  6  0  0  0
  6  3  1  0  0  0  0
  8  1  2  0  0  0  0
  8  7  1  0  0  0  0
  9 12  1  0  0  0  0
  9  5  2  0  0  0  0
 10  9  1  0  0  0  0
 13 15  2  0  0  0  0
 14 15  1  0  0  0  0
 16 13  2  0  0  0  0
 17 16  1  0  0  0  0
 18 19  1  6  0  0  0
 18 17  1  0  0  0  0
 20 19  1  0  0  0  0
 21 20  1  0  0  0  0
 22 18  1  0  0  0  0
 23 22  1  0  0  0  0
 24 23  1  0  0  0  0
 25 24  1  0  0  0  0
 26 25  1  0  0  0  0
 27 28  1  1  0  0  0
 27 29  1  0  0  0  0
 27 26  1  0  0  0  0
 30 29  1  0  0  0  0
 30 31  1  0  0  0  0
 32  8  1  0  0  0  0
 33 32  2  0  0  0  0
 34 32  1  0  0  0  0
 35 36  1  0  0  0  0
 36 39  2  0  0  0  0
 37 35  2  0  0  0  0
 38 42  1  6  0  0  0
 38 40  1  0  0  0  0
 38 37  1  0  0  0  0
 39 34  1  0  0  0  0
 40 41  1  0  0  0  0
 41 36  1  0  0  0  0
 43 42  1  0  0  0  0
 44 43  1  0  0  0  0
 45 48  1  0  0  0  0
 46 45  1  0  0  0  0
 47 44  1  6  0  0  0
 47 51  1  0  0  0  0
 49 52  1  6  0  0  0
 49 47  1  0  0  0  0
 50 46  1  6  0  0  0
 50 51  1  0  0  0  0
 51 48  1  0  0  0  0
 51 54  1  1  0  0  0
 53 49  1  0  0  0  0
 53 50  1  0  0  0  0
M  END
>  <MODEL>
5

>  <REMARK>
 VINA RESULT:      -6.4      3.730     10.044
  Name = 
  19 active torsions:
  status: ('A' for Active; 'I' for Inactive)
    1  A    between atoms: C_1  and  C_42
    2  A    between atoms: C_1  and  C_44
    3  A    between atoms: C_5  and  N_7
    4  A    between atoms: C_5  and  C_32
    5  A    between atoms: N_7  and  C_54
    6  A    between atoms: C_8  and  C_25
    7  A    between atoms: C_9  and  C_39
    8  A    between atoms: C_10  and  C_19
    9  A    between atoms: C_13  and  C_43
   10  A    between atoms: C_18  and  C_39
   11  A    between atoms: C_18  and  C_51
   12  A    between atoms: C_25  and  C_42
   13  A    between atoms: O_28  and  C_33
   14  A    between atoms: O_28  and  C_45
   15  A    between atoms: C_30  and  C_37
   16  A    between atoms: C_32  and  C_51
   17  A    between atoms: C_34  and  N_40
   18  A    between atoms: C_37  and  C_45
   19  A    between atoms: C_42  and  C_54
                            x       y       z     vdW  Elec       q    Type
                         _______ _______ _______ _____ _____    ______ ____

>  <TORSDO>
F 19

$$$$
=
 OpenBabel11032421073D

 54 57  0  0  1  0  0  0  0  0999 V2000
  188.1370  177.8980  145.8140 C   0  0  0  0  0  0  0  0  0  0  0  0
  189.7110  176.9560  147.3690 C   0  0  0  0  0  0  0  0  0  0  0  0
  189.3400  177.4090  146.0100 C   0  0  0  0  0  0  0  0  0  0  0  0
  191.0590  176.1970  144.7310 C   0  0  0  0  0  3  0  0  0  0  0  0
  191.0490  176.5780  147.7220 N   0  0  0  0  0  0  0  0  0  0  0  0
  190.4150  177.5270  144.9590 C   0  0  1  0  0  3  0  0  0  0  0  0
  186.5300  179.4080  146.4600 F   0  0  0  0  0  0  0  0  0  0  0  0
  186.9420  178.4060  145.6420 C   0  0  0  0  0  0  0  0  0  0  0  0
  191.9750  176.0270  146.9880 C   0  0  0  0  0  0  0  0  0  0  0  0
  191.7470  175.5830  145.6420 N   0  0  0  0  0  0  0  0  0  0  0  0
  188.8420  176.9730  148.2820 O   0  0  0  0  0  0  0  0  0  0  0  0
  193.2090  175.6870  147.6060 N   0  0  0  0  0  1  0  0  0  0  0  0
  189.7800  177.4510  142.5780 C   0  0  0  0  0  0  0  0  0  0  0  0
  189.6440  179.6150  143.6390 C   0  0  0  0  0  1  0  0  0  0  0  0
  189.9850  178.1650  143.6570 C   0  0  0  0  0  0  0  0  0  0  0  0
  189.5980  176.7210  141.5140 C   0  0  0  0  0  3  0  0  0  0  0  0
  190.6830  176.6010  140.5030 C   0  0  0  0  0  2  0  0  0  0  0  0
  190.1300  176.8460  139.1030 C   0  0  2  0  0  3  0  0  0  0  0  0
  188.8770  177.7120  139.1660 C   0  0  0  0  0  2  0  0  0  0  0  0
  189.0750  178.9820  138.3600 C   0  0  0  0  0  2  0  0  0  0  0  0
  189.3500  178.6270  136.9160 C   0  0  0  0  0  1  0  0  0  0  0  0
  189.8490  175.5280  138.3860 C   0  0  0  0  0  2  0  0  0  0  0  0
  190.9900  175.1090  137.5860 N   0  0  0  0  0  2  0  0  0  0  0  0
  190.5380  173.9880  136.7790 C   0  0  0  0  0  2  0  0  0  0  0  0
  191.7150  173.3870  136.0260 C   0  0  0  0  0  2  0  0  0  0  0  0
  192.8780  174.3740  135.9470 C   0  0  0  0  0  2  0  0  0  0  0  0
  194.2340  173.7410  136.2830 C   0  0  2  0  0  3  0  0  0  0  0  0
  194.4990  172.4950  135.4530 C   0  0  0  0  0  1  0  0  0  0  0  0
  194.3740  173.4280  137.7670 C   0  0  0  0  0  2  0  0  0  0  0  0
  195.1530  174.5210  138.4860 C   0  0  0  0  0  2  0  0  0  0  0  0
  195.9230  173.9620  139.5080 O   0  0  0  0  0  1  0  0  0  0  0  0
  186.0450  177.9240  144.5820 C   0  0  0  0  0  0  0  0  0  0  0  0
  186.3410  176.9020  143.9020 O   0  0  0  0  0  0  0  0  0  0  0  0
  184.8250  178.6220  144.3370 N   0  0  0  0  0  2  0  0  0  0  0  0
  185.5310  178.9340  141.6050 C   0  0  0  0  0  3  0  0  0  0  0  0
  184.2280  178.3690  142.0170 C   0  0  0  0  0  0  0  0  0  0  0  0
  185.8110  179.1390  140.3170 C   0  0  0  0  0  3  0  0  0  0  0  0
  184.7890  178.8700  139.2450 C   0  0  2  0  0  3  0  0  0  0  0  0
  183.9120  178.2420  143.3040 C   0  0  0  0  0  3  0  0  0  0  0  0
  183.8990  177.6900  139.6340 C   0  0  0  0  0  2  0  0  0  0  0  0
  183.2170  177.9750  140.9750 C   0  0  0  0  0  2  0  0  0  0  0  0
  185.4310  178.6040  138.0350 O   0  0  0  0  0  0  0  0  0  0  0  0
  185.8270  177.2670  138.1170 C   0  0  0  0  0  2  0  0  0  0  0  0
  185.7420  176.6260  136.7480 C   0  0  0  0  0  2  0  0  0  0  0  0
  183.4480  174.6190  135.3140 O   0  0  0  0  0  0  0  0  0  0  0  0
  184.2100  173.6810  134.5960 C   0  0  0  0  0  2  0  0  0  0  0  0
  186.3490  175.2210  136.7940 C   0  0  2  0  0  3  0  0  0  0  0  0
  183.8670  174.4900  136.6470 C   0  0  0  0  0  2  0  0  0  0  0  0
  187.2630  174.9540  135.6100 C   0  0  2  0  0  3  0  0  0  0  0  0
  185.5630  173.5520  135.2610 C   0  0  2  0  0  3  0  0  0  0  0  0
  185.3350  174.0920  136.6460 C   0  0  1  0  0  0  0  0  0  0  0  0
  187.8870  176.1120  135.1420 O   0  0  0  0  0  1  0  0  0  0  0  0
  186.4940  174.3690  134.5940 O   0  0  0  0  0  0  0  0  0  0  0  0
  185.5910  173.0160  137.6860 C   0  0  0  0  0  1  0  0  0  0  0  0
  1  3  2  0  0  0  0
  2  5  1  0  0  0  0
  2 11  2  0  0  0  0
  3  2  1  0  0  0  0
  4  6  1  0  0  0  0
  4 10  2  0  0  0  0
  6 15  1  6  0  0  0
  6  3  1  0  0  0  0
  8  1  2  0  0  0  0
  8  7  1  0  0  0  0
  9 12  1  0  0  0  0
  9  5  2  0  0  0  0
 10  9  1  0  0  0  0
 13 15  2  0  0  0  0
 14 15  1  0  0  0  0
 16 13  2  0  0  0  0
 17 16  1  0  0  0  0
 18 22  1  1  0  0  0
 18 19  1  0  0  0  0
 18 17  1  0  0  0  0
 20 19  1  0  0  0  0
 21 20  1  0  0  0  0
 23 22  1  0  0  0  0
 24 23  1  0  0  0  0
 25 24  1  0  0  0  0
 26 25  1  0  0  0  0
 26 27  1  0  0  0  0
 27 28  1  6  0  0  0
 27 29  1  0  0  0  0
 29 30  1  0  0  0  0
 30 31  1  0  0  0  0
 32  8  1  0  0  0  0
 33 32  2  0  0  0  0
 34 32  1  0  0  0  0
 35 36  1  0  0  0  0
 36 39  2  0  0  0  0
 37 35  2  0  0  0  0
 38 42  1  6  0  0  0
 38 40  1  0  0  0  0
 38 37  1  0  0  0  0
 39 34  1  0  0  0  0
 40 41  1  0  0  0  0
 41 36  1  0  0  0  0
 42 43  1  0  0  0  0
 44 43  1  0  0  0  0
 45 48  1  0  0  0  0
 46 45  1  0  0  0  0
 47 44  1  6  0  0  0
 49 52  1  6  0  0  0
 49 47  1  0  0  0  0
 50 46  1  6  0  0  0
 50 51  1  0  0  0  0
 51 48  1  0  0  0  0
 51 47  1  0  0  0  0
 51 54  1  1  0  0  0
 53 50  1  0  0  0  0
 53 49  1  0  0  0  0
M  END
>  <MODEL>
6

>  <REMARK>
 VINA RESULT:      -6.4      3.754     10.322
  Name = 
  19 active torsions:
  status: ('A' for Active; 'I' for Inactive)
    1  A    between atoms: C_1  and  C_42
    2  A    between atoms: C_1  and  C_44
    3  A    between atoms: C_5  and  N_7
    4  A    between atoms: C_5  and  C_32
    5  A    between atoms: N_7  and  C_54
    6  A    between atoms: C_8  and  C_25
    7  A    between atoms: C_9  and  C_39
    8  A    between atoms: C_10  and  C_19
    9  A    between atoms: C_13  and  C_43
   10  A    between atoms: C_18  and  C_39
   11  A    between atoms: C_18  and  C_51
   12  A    between atoms: C_25  and  C_42
   13  A    between atoms: O_28  and  C_33
   14  A    between atoms: O_28  and  C_45
   15  A    between atoms: C_30  and  C_37
   16  A    between atoms: C_32  and  C_51
   17  A    between atoms: C_34  and  N_40
   18  A    between atoms: C_37  and  C_45
   19  A    between atoms: C_42  and  C_54
                            x       y       z     vdW  Elec       q    Type
                         _______ _______ _______ _____ _____    ______ ____

>  <TORSDO>
F 19

$$$$
=
 OpenBabel11032421073D

 54 57  0  0  1  0  0  0  0  0999 V2000
  190.0790  176.8660  144.5340 C   0  0  0  0  0  0  0  0  0  0  0  0
  190.0890  177.3550  146.8890 C   0  0  0  0  0  0  0  0  0  0  0  0
  189.3830  177.1950  145.5990 C   0  0  0  0  0  0  0  0  0  0  0  0
  187.3350  178.4490  146.1360 C   0  0  0  0  0  3  0  0  0  0  0  0
  189.3990  177.5330  148.1340 N   0  0  0  0  0  0  0  0  0  0  0  0
  187.8750  177.1670  145.5880 C   0  0  1  0  0  3  0  0  0  0  0  0
  191.5900  175.4250  143.5750 F   0  0  0  0  0  0  0  0  0  0  0  0
  190.7850  176.5150  143.4880 C   0  0  0  0  0  0  0  0  0  0  0  0
  188.2590  178.1170  148.3720 C   0  0  0  0  0  0  0  0  0  0  0  0
  187.5120  178.8190  147.3650 N   0  0  0  0  0  0  0  0  0  0  0  0
  191.3460  177.2550  146.9190 O   0  0  0  0  0  0  0  0  0  0  0  0
  187.8240  178.2190  149.7210 N   0  0  0  0  0  1  0  0  0  0  0  0
  186.4630  177.6660  143.6300 C   0  0  0  0  0  0  0  0  0  0  0  0
  187.6240  175.5500  143.5820 C   0  0  0  0  0  1  0  0  0  0  0  0
  187.2390  176.8210  144.2600 C   0  0  0  0  0  0  0  0  0  0  0  0
  185.6800  178.5180  143.0300 C   0  0  0  0  0  3  0  0  0  0  0  0
  184.2040  178.4040  143.1850 C   0  0  0  0  0  2  0  0  0  0  0  0
  183.5020  178.9040  141.9250 C   0  0  2  0  0  3  0  0  0  0  0  0
  182.0280  178.5160  141.9440 C   0  0  0  0  0  2  0  0  0  0  0  0
  181.4070  178.7390  140.5790 C   0  0  0  0  0  2  0  0  0  0  0  0
  180.3430  179.8100  140.6760 C   0  0  0  0  0  1  0  0  0  0  0  0
  184.1910  178.3790  140.6690 C   0  0  0  0  0  2  0  0  0  0  0  0
  184.8650  179.4490  139.9500 N   0  0  0  0  0  2  0  0  0  0  0  0
  185.1460  178.9390  138.6190 C   0  0  0  0  0  2  0  0  0  0  0  0
  184.5350  177.5550  138.4580 C   0  0  0  0  0  2  0  0  0  0  0  0
  184.5740  177.1040  136.9990 C   0  0  0  0  0  2  0  0  0  0  0  0
  185.9950  176.8620  136.4770 C   0  0  2  0  0  3  0  0  0  0  0  0
  186.0340  176.7740  134.9590 C   0  0  0  0  0  1  0  0  0  0  0  0
  186.6360  175.6270  137.0950 C   0  0  0  0  0  2  0  0  0  0  0  0
  185.7830  174.3890  136.8540 C   0  0  0  0  0  2  0  0  0  0  0  0
  186.4820  173.4780  136.0590 O   0  0  0  0  0  1  0  0  0  0  0  0
  190.7190  177.2650  142.2260 C   0  0  0  0  0  0  0  0  0  0  0  0
  191.6530  178.0430  141.8880 O   0  0  0  0  0  0  0  0  0  0  0  0
  189.5830  177.0940  141.3780 N   0  0  0  0  0  2  0  0  0  0  0  0
  190.5880  176.0250  138.9470 C   0  0  0  0  0  3  0  0  0  0  0  0
  189.8750  177.3200  138.9980 C   0  0  0  0  0  0  0  0  0  0  0  0
  191.1150  175.5790  137.8070 C   0  0  0  0  0  3  0  0  0  0  0  0
  191.0650  176.4060  136.5500 C   0  0  2  0  0  3  0  0  0  0  0  0
  189.4220  177.8080  140.1510 C   0  0  0  0  0  3  0  0  0  0  0  0
  189.7840  177.2360  136.5020 C   0  0  0  0  0  2  0  0  0  0  0  0
  189.6980  178.1300  137.7420 C   0  0  0  0  0  2  0  0  0  0  0  0
  191.1350  175.5720  135.4320 O   0  0  0  0  0  0  0  0  0  0  0  0
  192.0820  176.1640  134.5940 C   0  0  0  0  0  2  0  0  0  0  0  0
  193.3740  175.3760  134.6500 C   0  0  0  0  0  2  0  0  0  0  0  0
  195.6670  172.9360  135.0130 O   0  0  0  0  0  0  0  0  0  0  0  0
  196.8000  173.5980  135.5190 C   0  0  0  0  0  2  0  0  0  0  0  0
  194.1400  175.7280  135.9290 C   0  0  2  0  0  3  0  0  0  0  0  0
  194.6480  173.1870  135.9440 C   0  0  0  0  0  2  0  0  0  0  0  0
  195.2770  176.7010  135.6640 C   0  0  2  0  0  3  0  0  0  0  0  0
  196.3410  174.8330  136.2630 C   0  0  2  0  0  3  0  0  0  0  0  0
  194.8910  174.5590  136.5550 C   0  0  1  0  0  0  0  0  0  0  0  0
  195.0130  177.5580  134.5940 O   0  0  0  0  0  1  0  0  0  0  0  0
  196.4370  175.9530  135.4160 O   0  0  0  0  0  0  0  0  0  0  0  0
  194.6480  174.5200  138.0530 C   0  0  0  0  0  1  0  0  0  0  0  0
  1  3  2  0  0  0  0
  2 11  2  0  0  0  0
  2  5  1  0  0  0  0
  3  2  1  0  0  0  0
  4 10  2  0  0  0  0
  5  9  2  0  0  0  0
  6 15  1  6  0  0  0
  6  3  1  0  0  0  0
  6  4  1  0  0  0  0
  8  7  1  0  0  0  0
  8  1  2  0  0  0  0
  9 12  1  0  0  0  0
 10  9  1  0  0  0  0
 13 15  2  0  0  0  0
 14 15  1  0  0  0  0
 16 17  1  0  0  0  0
 16 13  2  0  0  0  0
 18 22  1  6  0  0  0
 18 19  1  0  0  0  0
 18 17  1  0  0  0  0
 20 21  1  0  0  0  0
 20 19  1  0  0  0  0
 23 22  1  0  0  0  0
 24 23  1  0  0  0  0
 25 24  1  0  0  0  0
 26 25  1  0  0  0  0
 27 28  1  6  0  0  0
 27 26  1  0  0  0  0
 27 29  1  0  0  0  0
 30 29  1  0  0  0  0
 31 30  1  0  0  0  0
 32  8  1  0  0  0  0
 33 32  2  0  0  0  0
 34 32  1  0  0  0  0
 35 36  1  0  0  0  0
 36 39  2  0  0  0  0
 37 35  2  0  0  0  0
 38 42  1  6  0  0  0
 38 37  1  0  0  0  0
 39 34  1  0  0  0  0
 40 38  1  0  0  0  0
 40 41  1  0  0  0  0
 41 36  1  0  0  0  0
 43 44  1  0  0  0  0
 43 42  1  0  0  0  0
 45 46  1  0  0  0  0
 45 48  1  0  0  0  0
 47 44  1  6  0  0  0
 47 51  1  0  0  0  0
 48 51  1  0  0  0  0
 49 52  1  6  0  0  0
 49 47  1  0  0  0  0
 50 46  1  6  0  0  0
 50 51  1  0  0  0  0
 51 54  1  1  0  0  0
 53 49  1  0  0  0  0
 53 50  1  0  0  0  0
M  END
>  <MODEL>
7

>  <REMARK>
 VINA RESULT:      -6.3      4.032      9.555
  Name = 
  19 active torsions:
  status: ('A' for Active; 'I' for Inactive)
    1  A    between atoms: C_1  and  C_42
    2  A    between atoms: C_1  and  C_44
    3  A    between atoms: C_5  and  N_7
    4  A    between atoms: C_5  and  C_32
    5  A    between atoms: N_7  and  C_54
    6  A    between atoms: C_8  and  C_25
    7  A    between atoms: C_9  and  C_39
    8  A    between atoms: C_10  and  C_19
    9  A    between atoms: C_13  and  C_43
   10  A    between atoms: C_18  and  C_39
   11  A    between atoms: C_18  and  C_51
   12  A    between atoms: C_25  and  C_42
   13  A    between atoms: O_28  and  C_33
   14  A    between atoms: O_28  and  C_45
   15  A    between atoms: C_30  and  C_37
   16  A    between atoms: C_32  and  C_51
   17  A    between atoms: C_34  and  N_40
   18  A    between atoms: C_37  and  C_45
   19  A    between atoms: C_42  and  C_54
                            x       y       z     vdW  Elec       q    Type
                         _______ _______ _______ _____ _____    ______ ____

>  <TORSDO>
F 19

$$$$
=
 OpenBabel11032421073D

 54 57  0  0  1  0  0  0  0  0999 V2000
  190.0600  176.8990  144.2990 C   0  0  0  0  0  0  0  0  0  0  0  0
  190.1210  177.2240  146.6810 C   0  0  0  0  0  0  0  0  0  0  0  0
  189.3880  177.1610  145.3980 C   0  0  0  0  0  0  0  0  0  0  0  0
  187.3660  178.3990  146.0620 C   0  0  0  0  0  3  0  0  0  0  0  0
  189.4570  177.3240  147.9500 N   0  0  0  0  0  0  0  0  0  0  0  0
  187.8800  177.1520  145.4150 C   0  0  1  0  0  3  0  0  0  0  0  0
  191.5340  175.5110  143.2140 F   0  0  0  0  0  0  0  0  0  0  0  0
  190.7410  176.6130  143.2180 C   0  0  0  0  0  0  0  0  0  0  0  0
  188.3290  177.9030  148.2500 C   0  0  0  0  0  0  0  0  0  0  0  0
  187.5720  178.6800  147.3100 N   0  0  0  0  0  0  0  0  0  0  0  0
  191.3770  177.1090  146.6800 O   0  0  0  0  0  0  0  0  0  0  0  0
  187.9220  177.9170  149.6120 N   0  0  0  0  0  1  0  0  0  0  0  0
  186.3060  177.7190  143.6060 C   0  0  0  0  0  0  0  0  0  0  0  0
  187.7110  175.7950  143.2180 C   0  0  0  0  0  1  0  0  0  0  0  0
  187.2150  176.9050  144.0800 C   0  0  0  0  0  0  0  0  0  0  0  0
  185.3910  178.5350  143.1630 C   0  0  0  0  0  3  0  0  0  0  0  0
  183.9520  178.2130  143.3610 C   0  0  0  0  0  2  0  0  0  0  0  0
  183.0820  179.1580  142.5370 C   0  0  2  0  0  3  0  0  0  0  0  0
  181.9040  179.6600  143.3650 C   0  0  0  0  0  2  0  0  0  0  0  0
  180.8300  178.5920  143.4540 C   0  0  0  0  0  2  0  0  0  0  0  0
  179.5430  179.1180  142.8580 C   0  0  0  0  0  1  0  0  0  0  0  0
  182.6030  178.4840  141.2540 C   0  0  0  0  0  2  0  0  0  0  0  0
  183.2470  179.0600  140.0840 N   0  0  0  0  0  2  0  0  0  0  0  0
  183.2410  178.0290  139.0600 C   0  0  0  0  0  2  0  0  0  0  0  0
  183.0820  176.6610  139.7080 C   0  0  0  0  0  2  0  0  0  0  0  0
  182.5450  175.6390  138.7080 C   0  0  0  0  0  2  0  0  0  0  0  0
  181.2500  176.0860  138.0190 C   0  0  2  0  0  3  0  0  0  0  0  0
  180.0830  176.1480  138.9930 C   0  0  0  0  0  1  0  0  0  0  0  0
  180.8970  175.2090  136.8260 C   0  0  0  0  0  2  0  0  0  0  0  0
  180.7160  176.0450  135.5670 C   0  0  0  0  0  2  0  0  0  0  0  0
  181.0790  177.3700  135.8200 O   0  0  0  0  0  1  0  0  0  0  0  0
  190.6590  177.4500  142.0120 C   0  0  0  0  0  0  0  0  0  0  0  0
  191.7010  177.9410  141.4960 O   0  0  0  0  0  0  0  0  0  0  0  0
  189.3820  177.6910  141.4230 N   0  0  0  0  0  2  0  0  0  0  0  0
  189.2130  176.5380  138.8340 C   0  0  0  0  0  3  0  0  0  0  0  0
  189.1150  177.9980  139.0490 C   0  0  0  0  0  0  0  0  0  0  0  0
  189.2040  176.0250  137.6030 C   0  0  0  0  0  3  0  0  0  0  0  0
  189.1660  176.9150  136.3890 C   0  0  2  0  0  3  0  0  0  0  0  0
  189.2090  178.5190  140.2700 C   0  0  0  0  0  3  0  0  0  0  0  0
  188.3570  178.1790  136.6740 C   0  0  0  0  0  2  0  0  0  0  0  0
  188.9580  178.9210  137.8710 C   0  0  0  0  0  2  0  0  0  0  0  0
  188.6060  176.2230  135.3130 O   0  0  0  0  0  0  0  0  0  0  0  0
  187.2580  176.0690  135.6390 C   0  0  0  0  0  2  0  0  0  0  0  0
  186.7350  174.7770  135.0450 C   0  0  0  0  0  2  0  0  0  0  0  0
  183.8220  173.1460  134.6070 O   0  0  0  0  0  0  0  0  0  0  0  0
  184.1360  171.8000  134.8670 C   0  0  0  0  0  2  0  0  0  0  0  0
  186.7210  173.6820  136.1150 C   0  0  2  0  0  3  0  0  0  0  0  0
  184.1560  173.8360  135.7820 C   0  0  0  0  0  2  0  0  0  0  0  0
  187.4450  172.4270  135.6580 C   0  0  2  0  0  3  0  0  0  0  0  0
  185.3220  171.7580  135.8060 C   0  0  2  0  0  3  0  0  0  0  0  0
  185.3360  173.1270  136.4290 C   0  0  1  0  0  0  0  0  0  0  0  0
  188.4840  172.7010  134.7670 O   0  0  0  0  0  1  0  0  0  0  0  0
  186.5030  171.5760  135.0630 O   0  0  0  0  0  0  0  0  0  0  0  0
  185.1360  173.0310  137.9310 C   0  0  0  0  0  1  0  0  0  0  0  0
  1  3  2  0  0  0  0
  2  5  1  0  0  0  0
  3  6  1  0  0  0  0
  3  2  1  0  0  0  0
  4 10  2  0  0  0  0
  5  9  2  0  0  0  0
  6 15  1  6  0  0  0
  6  4  1  0  0  0  0
  7  8  1  0  0  0  0
  8  1  2  0  0  0  0
  9 12  1  0  0  0  0
 10  9  1  0  0  0  0
 11  2  2  0  0  0  0
 13 15  2  0  0  0  0
 14 15  1  0  0  0  0
 16 17  1  0  0  0  0
 16 13  2  0  0  0  0
 18 22  1  6  0  0  0
 18 17  1  0  0  0  0
 18 19  1  0  0  0  0
 19 20  1  0  0  0  0
 21 20  1  0  0  0  0
 23 22  1  0  0  0  0
 24 25  1  0  0  0  0
 24 23  1  0  0  0  0
 26 25  1  0  0  0  0
 27 26  1  0  0  0  0
 27 28  1  1  0  0  0
 29 27  1  0  0  0  0
 30 31  1  0  0  0  0
 30 29  1  0  0  0  0
 32  8  1  0  0  0  0
 33 32  2  0  0  0  0
 34 32  1  0  0  0  0
 35 36  1  0  0  0  0
 36 39  2  0  0  0  0
 37 35  2  0  0  0  0
 38 42  1  6  0  0  0
 38 40  1  0  0  0  0
 38 37  1  0  0  0  0
 39 34  1  0  0  0  0
 40 41  1  0  0  0  0
 41 36  1  0  0  0  0
 42 43  1  0  0  0  0
 44 43  1  0  0  0  0
 45 46  1  0  0  0  0
 45 48  1  0  0  0  0
 47 44  1  6  0  0  0
 47 51  1  0  0  0  0
 48 51  1  0  0  0  0
 49 52  1  6  0  0  0
 49 47  1  0  0  0  0
 50 46  1  6  0  0  0
 50 51  1  0  0  0  0
 51 54  1  1  0  0  0
 53 49  1  0  0  0  0
 53 50  1  0  0  0  0
M  END
>  <MODEL>
8

>  <REMARK>
 VINA RESULT:      -6.0      3.448      9.340
  Name = 
  19 active torsions:
  status: ('A' for Active; 'I' for Inactive)
    1  A    between atoms: C_1  and  C_42
    2  A    between atoms: C_1  and  C_44
    3  A    between atoms: C_5  and  N_7
    4  A    between atoms: C_5  and  C_32
    5  A    between atoms: N_7  and  C_54
    6  A    between atoms: C_8  and  C_25
    7  A    between atoms: C_9  and  C_39
    8  A    between atoms: C_10  and  C_19
    9  A    between atoms: C_13  and  C_43
   10  A    between atoms: C_18  and  C_39
   11  A    between atoms: C_18  and  C_51
   12  A    between atoms: C_25  and  C_42
   13  A    between atoms: O_28  and  C_33
   14  A    between atoms: O_28  and  C_45
   15  A    between atoms: C_30  and  C_37
   16  A    between atoms: C_32  and  C_51
   17  A    between atoms: C_34  and  N_40
   18  A    between atoms: C_37  and  C_45
   19  A    between atoms: C_42  and  C_54
                            x       y       z     vdW  Elec       q    Type
                         _______ _______ _______ _____ _____    ______ ____

>  <TORSDO>
F 19

$$$$
=
 OpenBabel11032421073D

 54 57  0  0  1  0  0  0  0  0999 V2000
  182.2950  178.1440  137.8140 C   0  0  0  0  0  0  0  0  0  0  0  0
  180.4040  179.5980  138.1230 C   0  0  0  0  0  0  0  0  0  0  0  0
  181.6730  179.0000  138.5940 C   0  0  0  0  0  0  0  0  0  0  0  0
  181.4250  179.4440  141.0020 C   0  0  0  0  0  3  0  0  0  0  0  0
  179.7490  180.6700  138.8160 N   0  0  0  0  0  0  0  0  0  0  0  0
  182.3370  179.5650  139.8240 C   0  0  1  0  0  3  0  0  0  0  0  0
  183.1690  177.6950  135.7370 F   0  0  0  0  0  0  0  0  0  0  0  0
  182.9130  177.3120  137.0140 C   0  0  0  0  0  0  0  0  0  0  0  0
  179.7210  180.9370  140.0910 C   0  0  0  0  0  0  0  0  0  0  0  0
  180.2960  180.0740  141.0850 N   0  0  0  0  0  0  0  0  0  0  0  0
  179.9100  179.2120  137.0300 O   0  0  0  0  0  0  0  0  0  0  0  0
  178.9310  182.0330  140.5320 N   0  0  0  0  0  1  0  0  0  0  0  0
  184.0020  178.5000  141.2970 C   0  0  0  0  0  0  0  0  0  0  0  0
  184.7190  178.9320  139.0340 C   0  0  0  0  0  1  0  0  0  0  0  0
  183.7140  179.0190  140.1300 C   0  0  0  0  0  0  0  0  0  0  0  0
  184.2680  178.0040  142.4720 C   0  0  0  0  0  3  0  0  0  0  0  0
  184.9370  178.8490  143.5000 C   0  0  0  0  0  2  0  0  0  0  0  0
  186.1800  178.1440  144.0340 C   0  0  2  0  0  3  0  0  0  0  0  0
  186.4040  176.8250  143.3050 C   0  0  0  0  0  2  0  0  0  0  0  0
  187.8600  176.4110  143.4000 C   0  0  0  0  0  2  0  0  0  0  0  0
  188.5830  176.8110  142.1340 C   0  0  0  0  0  1  0  0  0  0  0  0
  186.0810  177.9270  145.5420 C   0  0  0  0  0  2  0  0  0  0  0  0
  187.3310  178.2630  146.2070 N   0  0  0  0  0  2  0  0  0  0  0  0
  187.3270  177.5530  147.4750 C   0  0  0  0  0  2  0  0  0  0  0  0
  188.6740  176.8810  147.6930 C   0  0  0  0  0  2  0  0  0  0  0  0
  189.8120  177.7400  147.1450 C   0  0  0  0  0  2  0  0  0  0  0  0
  190.3510  177.2450  145.7970 C   0  0  2  0  0  3  0  0  0  0  0  0
  191.6340  176.4450  145.9600 C   0  0  0  0  0  1  0  0  0  0  0  0
  190.5590  178.3820  144.8060 C   0  0  0  0  0  2  0  0  0  0  0  0
  191.8180  178.1640  143.9790 C   0  0  0  0  0  2  0  0  0  0  0  0
  191.4740  177.7620  142.6860 O   0  0  0  0  0  1  0  0  0  0  0  0
  183.3430  175.9820  137.4700 C   0  0  0  0  0  0  0  0  0  0  0  0
  182.6510  175.3290  138.2980 O   0  0  0  0  0  0  0  0  0  0  0  0
  184.5540  175.4320  136.9520 N   0  0  0  0  0  2  0  0  0  0  0  0
  186.7900  174.2790  135.6360 C   0  0  0  0  0  3  0  0  0  0  0  0
  186.1170  173.6080  136.7690 C   0  0  0  0  0  0  0  0  0  0  0  0
  187.7920  173.6840  134.9860 C   0  0  0  0  0  3  0  0  0  0  0  0
  188.2260  172.2860  135.3360 C   0  0  2  0  0  3  0  0  0  0  0  0
  185.0630  174.1610  137.3650 C   0  0  0  0  0  3  0  0  0  0  0  0
  188.0520  172.0260  136.8320 C   0  0  0  0  0  2  0  0  0  0  0  0
  186.5920  172.2570  137.2320 C   0  0  0  0  0  2  0  0  0  0  0  0
  189.5610  172.1000  134.9720 O   0  0  0  0  0  0  0  0  0  0  0  0
  190.0180  173.3650  134.5990 C   0  0  0  0  0  2  0  0  0  0  0  0
  190.9160  173.9210  135.6850 C   0  0  0  0  0  2  0  0  0  0  0  0
  190.4990  175.2710  138.7420 O   0  0  0  0  0  0  0  0  0  0  0  0
  191.4280  176.3260  138.7840 C   0  0  0  0  0  2  0  0  0  0  0  0
  191.0940  175.4300  135.4880 C   0  0  2  0  0  3  0  0  0  0  0  0
  189.6680  175.5570  137.6480 C   0  0  0  0  0  2  0  0  0  0  0  0
  192.5550  175.8450  135.5490 C   0  0  2  0  0  3  0  0  0  0  0  0
  191.6830  176.7970  137.3690 C   0  0  2  0  0  3  0  0  0  0  0  0
  190.4970  176.2840  136.6000 C   0  0  1  0  0  0  0  0  0  0  0  0
  193.4170  174.8430  135.1000 O   0  0  0  0  0  1  0  0  0  0  0  0
  192.8520  176.1870  136.8760 O   0  0  0  0  0  0  0  0  0  0  0  0
  189.7060  177.4380  136.0100 C   0  0  0  0  0  1  0  0  0  0  0  0
  1  3  2  0  0  0  0
  2  3  1  0  0  0  0
  2  5  1  0  0  0  0
  3  6  1  0  0  0  0
  4 10  2  0  0  0  0
  5  9  2  0  0  0  0
  6 15  1  1  0  0  0
  6  4  1  0  0  0  0
  7  8  1  0  0  0  0
  8 32  1  0  0  0  0
  8  1  2  0  0  0  0
  9 12  1  0  0  0  0
  9 10  1  0  0  0  0
 11  2  2  0  0  0  0
 13 16  2  0  0  0  0
 14 15  1  0  0  0  0
 15 13  2  0  0  0  0
 16 17  1  0  0  0  0
 17 18  1  0  0  0  0
 18 19  1  6  0  0  0
 18 22  1  0  0  0  0
 19 20  1  0  0  0  0
 21 20  1  0  0  0  0
 22 23  1  0  0  0  0
 23 24  1  0  0  0  0
 24 25  1  0  0  0  0
 26 25  1  0  0  0  0
 27 28  1  1  0  0  0
 27 26  1  0  0  0  0
 29 27  1  0  0  0  0
 30 29  1  0  0  0  0
 31 30  1  0  0  0  0
 32 33  2  0  0  0  0
 34 39  1  0  0  0  0
 34 32  1  0  0  0  0
 35 36  1  0  0  0  0
 36 41  1  0  0  0  0
 36 39  2  0  0  0  0
 37 38  1  0  0  0  0
 37 35  2  0  0  0  0
 38 42  1  1  0  0  0
 38 40  1  0  0  0  0
 40 41  1  0  0  0  0
 43 42  1  0  0  0  0
 43 44  1  0  0  0  0
 45 46  1  0  0  0  0
 47 49  1  0  0  0  0
 47 44  1  1  0  0  0
 47 51  1  0  0  0  0
 48 45  1  0  0  0  0
 49 52  1  1  0  0  0
 49 53  1  0  0  0  0
 50 46  1  1  0  0  0
 51 54  1  6  0  0  0
 51 50  1  0  0  0  0
 51 48  1  0  0  0  0
 53 50  1  0  0  0  0
M  END
>  <MODEL>
9

>  <REMARK>
 VINA RESULT:      -6.0      3.156      9.746
  Name = 
  19 active torsions:
  status: ('A' for Active; 'I' for Inactive)
    1  A    between atoms: C_1  and  C_42
    2  A    between atoms: C_1  and  C_44
    3  A    between atoms: C_5  and  N_7
    4  A    between atoms: C_5  and  C_32
    5  A    between atoms: N_7  and  C_54
    6  A    between atoms: C_8  and  C_25
    7  A    between atoms: C_9  and  C_39
    8  A    between atoms: C_10  and  C_19
    9  A    between atoms: C_13  and  C_43
   10  A    between atoms: C_18  and  C_39
   11  A    between atoms: C_18  and  C_51
   12  A    between atoms: C_25  and  C_42
   13  A    between atoms: O_28  and  C_33
   14  A    between atoms: O_28  and  C_45
   15  A    between atoms: C_30  and  C_37
   16  A    between atoms: C_32  and  C_51
   17  A    between atoms: C_34  and  N_40
   18  A    between atoms: C_37  and  C_45
   19  A    between atoms: C_42  and  C_54
                            x       y       z     vdW  Elec       q    Type
                         _______ _______ _______ _____ _____    ______ ____

>  <TORSDO>
F 19

$$$$
