=
 OpenBabel11042412533D

 43 47  0  0  1  0  0  0  0  0999 V2000
  191.9390  177.0000  143.8560 C   0  0  0  0  0  3  0  0  0  0  0  0
  189.3560  177.0070  141.3500 C   0  0  0  0  0  0  0  0  0  0  0  0
  191.2260  177.3500  142.6160 C   0  0  1  0  0  3  0  0  0  0  0  0
  188.1340  177.3430  141.4580 N   0  0  0  0  0  0  0  0  0  0  0  0
  191.3840  176.8960  145.0970 C   0  0  0  0  0  0  0  0  0  0  0  0
  189.9850  177.0720  145.6820 C   0  0  0  0  0  0  0  0  0  0  0  0
  191.9710  177.5900  140.9340 S   0  0  0  0  0  0  0  0  0  0  0  0
  187.6090  177.4460  146.0760 C   0  0  0  0  0  0  0  0  0  0  0  0
  189.1790  177.2210  147.9090 N   0  0  0  0  0  0  0  0  0  0  0  0
  186.2200  177.5050  145.6010 N   0  0  0  0  0  0  0  0  0  0  0  0
  190.2280  176.9740  147.0410 C   0  0  0  0  0  0  0  0  0  0  0  0
  186.4930  177.9770  143.2720 C   0  0  1  0  0  3  0  0  0  0  0  0
  191.5680  176.7400  147.3700 N   0  0  0  0  0  0  0  0  0  0  0  0
  185.8520  177.0140  144.2430 C   0  0  0  0  0  2  0  0  0  0  0  0
  192.2850  176.6910  146.1430 N   0  0  0  0  0  0  0  0  0  0  0  0
  190.2660  177.3010  140.2160 C   0  0  1  0  0  3  0  0  0  0  0  0
  187.5740  177.2820  142.7480 N   0  0  0  0  0  2  0  0  0  0  0  0
  188.7160  177.3350  145.1890 C   0  0  0  0  0  3  0  0  0  0  0  0
  190.0130  176.7120  142.5440 O   0  0  0  0  0  0  0  0  0  0  0  0
  187.9130  177.4480  147.4500 C   0  0  0  0  0  3  0  0  0  0  0  0
  183.6230  178.9340  145.0480 O   0  0  0  0  0  0  0  0  0  0  0  0
  184.9130  178.5810  146.1120 P   0  0  0  0  0  0  0  0  0  0  0  0
  185.6180  179.9190  146.1750 O   0  0  0  0  0  1  0  0  0  0  0  0
  184.3740  178.2540  147.6650 O   0  0  0  0  0  1  0  0  0  0  0  0
  185.7080  178.6590  142.0860 C   0  0  2  0  0  3  0  0  0  0  0  0
  185.4990  180.1250  142.4420 C   0  0  0  0  0  1  0  0  0  0  0  0
  184.4660  177.8880  141.5620 C   0  0  0  0  0  2  0  0  0  0  0  0
  183.3360  178.9130  141.5080 C   0  0  0  0  0  2  0  0  0  0  0  0
  181.9900  178.4100  141.6310 C   0  0  0  0  0  2  0  0  0  0  0  0
  181.2390  178.8740  142.5780 N   0  0  0  0  0  2  0  0  0  0  0  0
  179.2920  178.4650  143.9050 O   0  0  0  0  0  1  0  0  0  0  0  0
  180.0400  178.2140  142.7450 C   0  0  0  0  0  0  0  0  0  0  0  0
  179.6330  177.3660  141.9040 O   0  0  0  0  0  0  0  0  0  0  0  0
  190.6200  175.2790  138.6960 O   0  0  0  0  0  1  0  0  0  0  0  0
  190.1920  176.6250  138.8520 C   0  0  1  0  0  3  0  0  0  0  0  0
  190.0170  177.0320  136.1030 O   0  0  0  0  0  1  0  0  0  0  0  0
  188.8710  176.9860  138.1010 C   0  0  2  0  0  3  0  0  0  0  0  0
  188.9400  177.5940  136.7500 C   0  0  1  0  0  0  0  0  0  0  0  0
  189.0880  178.4550  138.0150 C   0  0  0  0  0  2  0  0  0  0  0  0
  187.4930  177.5870  136.1840 C   0  0  0  0  0  2  0  0  0  0  0  0
  185.4200  177.9090  137.7890 C   0  0  0  0  0  1  0  0  0  0  0  0
  185.5560  175.9000  136.5670 C   0  0  0  0  0  1  0  0  0  0  0  0
  186.3720  177.0080  137.0750 C   0  0  0  0  0  3  0  0  0  0  0  0
  1  5  2  0  0  0  0
  2  4  2  0  0  0  0
  2 19  1  0  0  0  0
  3  1  1  1  0  0  0
  4 17  1  0  0  0  0
  5  6  1  0  0  0  0
  5 15  1  0  0  0  0
  6 11  1  0  0  0  0
  7  3  1  0  0  0  0
  8 20  2  0  0  0  0
 10  8  1  0  0  0  0
 10 22  1  0  0  0  0
 11 13  1  0  0  0  0
 11  9  2  0  0  0  0
 12 25  1  6  0  0  0
 12 14  1  0  0  0  0
 14 10  1  0  0  0  0
 15 13  2  0  0  0  0
 16 35  1  6  0  0  0
 16  7  1  0  0  0  0
 16  2  1  0  0  0  0
 17 12  1  0  0  0  0
 18  6  2  0  0  0  0
 18  8  1  0  0  0  0
 19  3  1  0  0  0  0
 20  9  1  0  0  0  0
 21 22  2  0  0  0  0
 22 23  1  0  0  0  0
 22 24  1  0  0  0  0
 25 26  1  1  0  0  0
 27 25  1  0  0  0  0
 28 27  1  0  0  0  0
 28 29  1  0  0  0  0
 29 30  1  0  0  0  0
 30 32  1  0  0  0  0
 32 31  1  0  0  0  0
 33 32  2  0  0  0  0
 35 34  1  1  0  0  0
 37 35  1  6  0  0  0
 38 36  1  6  0  0  0
 38 39  1  0  0  0  0
 38 37  1  0  0  0  0
 39 37  1  0  0  0  0
 40 38  1  0  0  0  0
 40 43  1  0  0  0  0
 42 43  1  0  0  0  0
 43 41  1  0  0  0  0
M  END
>  <MODEL>
1

>  <REMARK>
 VINA RESULT:      -7.8      0.000      0.000
  Name = 
  10 active torsions:
  status: ('A' for Active; 'I' for Inactive)
    1  A    between atoms: C_2  and  C_24
    2  A    between atoms: C_2  and  C_28
    3  A    between atoms: C_3  and  C_34
    4  A    between atoms: C_3  and  C_40
    5  A    between atoms: C_13  and  C_39
    6  A    between atoms: C_16  and  C_32
    7  A    between atoms: C_16  and  C_33
    8  A    between atoms: N_19  and  P_22
    9  A    between atoms: C_27  and  N_43
   10  A    between atoms: C_28  and  C_39
                            x       y       z     vdW  Elec       q    Type
                         _______ _______ _______ _____ _____    ______ ____

>  <TORSDO>
F 10

$$$$
=
 OpenBabel11042412533D

 43 47  0  0  1  0  0  0  0  0999 V2000
  191.9420  176.7870  143.8220 C   0  0  0  0  0  3  0  0  0  0  0  0
  189.2700  177.0930  141.4310 C   0  0  0  0  0  0  0  0  0  0  0  0
  191.2090  177.2430  142.6300 C   0  0  1  0  0  3  0  0  0  0  0  0
  188.0810  177.5100  141.6060 N   0  0  0  0  0  0  0  0  0  0  0  0
  191.4310  176.6660  145.0800 C   0  0  0  0  0  0  0  0  0  0  0  0
  190.0730  176.9150  145.7310 C   0  0  0  0  0  0  0  0  0  0  0  0
  191.9020  177.5060  140.9290 S   0  0  0  0  0  0  0  0  0  0  0  0
  187.7470  177.4400  146.2420 C   0  0  0  0  0  0  0  0  0  0  0  0
  189.3680  177.0190  147.9950 N   0  0  0  0  0  0  0  0  0  0  0  0
  186.3490  177.6190  145.8300 N   0  0  0  0  0  0  0  0  0  0  0  0
  190.3610  176.7380  147.0730 C   0  0  0  0  0  0  0  0  0  0  0  0
  186.5640  178.1760  143.5130 C   0  0  1  0  0  3  0  0  0  0  0  0
  191.6920  176.3930  147.3350 N   0  0  0  0  0  0  0  0  0  0  0  0
  185.8930  177.2180  144.4690 C   0  0  0  0  0  2  0  0  0  0  0  0
  192.3550  176.3490  146.0780 N   0  0  0  0  0  0  0  0  0  0  0  0
  190.1540  177.3720  140.2730 C   0  0  1  0  0  3  0  0  0  0  0  0
  187.5690  177.4300  142.9140 N   0  0  0  0  0  2  0  0  0  0  0  0
  188.8080  177.2900  145.3040 C   0  0  0  0  0  3  0  0  0  0  0  0
  189.9500  176.6970  142.5830 O   0  0  0  0  0  0  0  0  0  0  0  0
  188.1050  177.3570  147.6010 C   0  0  0  0  0  3  0  0  0  0  0  0
  185.6420  180.1870  147.2430 O   0  0  0  0  0  1  0  0  0  0  0  0
  185.1460  178.7610  146.4410 P   0  0  0  0  0  0  0  0  0  0  0  0
  184.5260  177.9820  147.5810 O   0  0  0  0  0  1  0  0  0  0  0  0
  183.9150  179.0560  145.3420 O   0  0  0  0  0  0  0  0  0  0  0  0
  185.7850  178.9650  142.3920 C   0  0  2  0  0  3  0  0  0  0  0  0
  185.4550  180.3510  142.9340 C   0  0  0  0  0  1  0  0  0  0  0  0
  184.6260  178.1970  141.7010 C   0  0  0  0  0  2  0  0  0  0  0  0
  184.7340  178.5330  140.2160 C   0  0  0  0  0  2  0  0  0  0  0  0
  183.5340  178.9870  139.5580 C   0  0  0  0  0  2  0  0  0  0  0  0
  183.5210  180.1740  139.0430 N   0  0  0  0  0  2  0  0  0  0  0  0
  181.3650  179.6450  138.1540 O   0  0  0  0  0  0  0  0  0  0  0  0
  182.2870  180.6030  138.6010 C   0  0  0  0  0  0  0  0  0  0  0  0
  181.9950  181.8290  138.5540 O   0  0  0  0  0  1  0  0  0  0  0  0
  190.2720  175.3940  138.6610 O   0  0  0  0  0  1  0  0  0  0  0  0
  189.9770  176.7660  138.8860 C   0  0  1  0  0  3  0  0  0  0  0  0
  189.7640  177.3220  136.1660 O   0  0  0  0  0  1  0  0  0  0  0  0
  188.6730  177.2800  138.1940 C   0  0  2  0  0  3  0  0  0  0  0  0
  188.7610  177.9450  136.8720 C   0  0  1  0  0  0  0  0  0  0  0  0
  189.0200  178.7270  138.1710 C   0  0  0  0  0  2  0  0  0  0  0  0
  187.3040  178.0950  136.3530 C   0  0  0  0  0  2  0  0  0  0  0  0
  185.0200  176.8690  136.8570 C   0  0  0  0  0  1  0  0  0  0  0  0
  186.3430  176.0350  135.0970 C   0  0  0  0  0  1  0  0  0  0  0  0
  186.4140  176.8340  136.3260 C   0  0  0  0  0  3  0  0  0  0  0  0
  1  5  2  0  0  0  0
  2  4  2  0  0  0  0
  2 19  1  0  0  0  0
  3  1  1  1  0  0  0
  4 17  1  0  0  0  0
  5  6  1  0  0  0  0
  5 15  1  0  0  0  0
  6 11  1  0  0  0  0
  7  3  1  0  0  0  0
  8 20  2  0  0  0  0
 10  8  1  0  0  0  0
 10 22  1  0  0  0  0
 11 13  1  0  0  0  0
 11  9  2  0  0  0  0
 12 25  1  6  0  0  0
 12 14  1  0  0  0  0
 14 10  1  0  0  0  0
 15 13  2  0  0  0  0
 16 35  1  6  0  0  0
 16  7  1  0  0  0  0
 16  2  1  0  0  0  0
 17 12  1  0  0  0  0
 18  6  2  0  0  0  0
 18  8  1  0  0  0  0
 19  3  1  0  0  0  0
 20  9  1  0  0  0  0
 22 21  1  0  0  0  0
 22 23  1  0  0  0  0
 24 22  2  0  0  0  0
 25 26  1  1  0  0  0
 27 25  1  0  0  0  0
 28 27  1  0  0  0  0
 29 28  1  0  0  0  0
 30 29  1  0  0  0  0
 31 32  2  0  0  0  0
 32 30  1  0  0  0  0
 33 32  1  0  0  0  0
 35 34  1  1  0  0  0
 37 35  1  6  0  0  0
 38 36  1  6  0  0  0
 38 39  1  0  0  0  0
 38 37  1  0  0  0  0
 39 37  1  0  0  0  0
 40 38  1  0  0  0  0
 42 43  1  0  0  0  0
 43 40  1  0  0  0  0
 43 41  1  0  0  0  0
M  END
>  <MODEL>
2

>  <REMARK>
 VINA RESULT:      -7.7      1.572      1.964
  Name = 
  10 active torsions:
  status: ('A' for Active; 'I' for Inactive)
    1  A    between atoms: C_2  and  C_24
    2  A    between atoms: C_2  and  C_28
    3  A    between atoms: C_3  and  C_34
    4  A    between atoms: C_3  and  C_40
    5  A    between atoms: C_13  and  C_39
    6  A    between atoms: C_16  and  C_32
    7  A    between atoms: C_16  and  C_33
    8  A    between atoms: N_19  and  P_22
    9  A    between atoms: C_27  and  N_43
   10  A    between atoms: C_28  and  C_39
                            x       y       z     vdW  Elec       q    Type
                         _______ _______ _______ _____ _____    ______ ____

>  <TORSDO>
F 10

$$$$
=
 OpenBabel11042412533D

 43 47  0  0  1  0  0  0  0  0999 V2000
  183.6790  178.1340  138.6040 C   0  0  0  0  0  3  0  0  0  0  0  0
  187.1670  178.3570  139.4600 C   0  0  0  0  0  0  0  0  0  0  0  0
  185.1110  177.7960  138.6380 C   0  0  1  0  0  3  0  0  0  0  0  0
  187.7180  178.2830  140.6040 N   0  0  0  0  0  0  0  0  0  0  0  0
  182.9120  178.4830  139.6760 C   0  0  0  0  0  0  0  0  0  0  0  0
  183.1490  178.6530  141.1740 C   0  0  0  0  0  0  0  0  0  0  0  0
  186.1550  177.2270  137.2140 S   0  0  0  0  0  0  0  0  0  0  0  0
  184.0640  178.8010  143.4290 C   0  0  0  0  0  0  0  0  0  0  0  0
  181.6770  178.9160  143.0170 N   0  0  0  0  0  0  0  0  0  0  0  0
  185.1960  178.9650  144.3500 N   0  0  0  0  0  0  0  0  0  0  0  0
  181.8640  178.8520  141.6480 C   0  0  0  0  0  0  0  0  0  0  0  0
  187.0410  178.1910  143.0370 C   0  0  1  0  0  3  0  0  0  0  0  0
  180.8790  178.8530  140.6540 N   0  0  0  0  0  0  0  0  0  0  0  0
  186.5410  179.3640  143.8470 C   0  0  0  0  0  2  0  0  0  0  0  0
  181.5460  178.6220  139.4200 N   0  0  0  0  0  0  0  0  0  0  0  0
  187.6570  177.7650  138.1920 C   0  0  1  0  0  3  0  0  0  0  0  0
  186.9140  178.5970  141.7150 N   0  0  0  0  0  2  0  0  0  0  0  0
  184.2370  178.5920  142.0320 C   0  0  0  0  0  3  0  0  0  0  0  0
  185.8030  178.6480  139.4610 O   0  0  0  0  0  0  0  0  0  0  0  0
  182.7340  178.8930  143.8820 C   0  0  0  0  0  3  0  0  0  0  0  0
  184.2040  178.2300  147.1000 O   0  0  0  0  0  1  0  0  0  0  0  0
  185.4560  178.2320  145.9370 P   0  0  0  0  0  0  0  0  0  0  0  0
  186.4420  179.1920  146.5670 O   0  0  0  0  0  1  0  0  0  0  0  0
  186.2300  176.7470  145.8460 O   0  0  0  0  0  0  0  0  0  0  0  0
  188.4680  177.5500  143.2330 C   0  0  2  0  0  3  0  0  0  0  0  0
  188.3100  176.0350  143.2040 C   0  0  0  0  0  1  0  0  0  0  0  0
  189.3230  178.1370  144.3890 C   0  0  0  0  0  2  0  0  0  0  0  0
  190.7750  177.8530  144.0140 C   0  0  0  0  0  2  0  0  0  0  0  0
  191.6170  177.2880  145.0390 C   0  0  0  0  0  2  0  0  0  0  0  0
  191.0660  176.5810  145.9730 N   0  0  0  0  0  2  0  0  0  0  0  0
  191.9790  177.0860  148.1260 O   0  0  0  0  0  1  0  0  0  0  0  0
  191.9060  176.2360  147.0120 C   0  0  0  0  0  0  0  0  0  0  0  0
  192.6310  175.2050  146.9570 O   0  0  0  0  0  0  0  0  0  0  0  0
  189.0260  179.6820  137.2050 O   0  0  0  0  0  1  0  0  0  0  0  0
  188.8520  178.2860  137.4010 C   0  0  1  0  0  3  0  0  0  0  0  0
  190.2640  176.7210  135.5820 O   0  0  0  0  0  1  0  0  0  0  0  0
  190.1580  177.5020  137.7470 C   0  0  2  0  0  3  0  0  0  0  0  0
  190.5920  176.3830  136.8750 C   0  0  1  0  0  0  0  0  0  0  0  0
  189.5350  176.1700  137.9710 C   0  0  0  0  0  2  0  0  0  0  0  0
  192.0270  175.9960  137.3300 C   0  0  0  0  0  2  0  0  0  0  0  0
  194.4530  175.3260  136.5290 C   0  0  0  0  0  1  0  0  0  0  0  0
  192.6330  174.1480  135.6090 C   0  0  0  0  0  1  0  0  0  0  0  0
  192.9850  175.4090  136.2710 C   0  0  0  0  0  3  0  0  0  0  0  0
  1  5  2  0  0  0  0
  2 19  1  0  0  0  0
  2  4  2  0  0  0  0
  3  1  1  6  0  0  0
  3 19  1  0  0  0  0
  4 17  1  0  0  0  0
  5  6  1  0  0  0  0
  6 11  1  0  0  0  0
  6 18  2  0  0  0  0
  7 16  1  0  0  0  0
  7  3  1  0  0  0  0
  8 20  2  0  0  0  0
  8 10  1  0  0  0  0
  9 20  1  0  0  0  0
 10 22  1  0  0  0  0
 11  9  2  0  0  0  0
 12 25  1  1  0  0  0
 12 14  1  0  0  0  0
 13 11  1  0  0  0  0
 14 10  1  0  0  0  0
 15  5  1  0  0  0  0
 15 13  2  0  0  0  0
 16 35  1  6  0  0  0
 16  2  1  0  0  0  0
 17 12  1  0  0  0  0
 18  8  1  0  0  0  0
 22 23  1  0  0  0  0
 22 21  1  0  0  0  0
 24 22  2  0  0  0  0
 25 26  1  1  0  0  0
 25 27  1  0  0  0  0
 28 27  1  0  0  0  0
 28 29  1  0  0  0  0
 29 30  1  0  0  0  0
 30 32  1  0  0  0  0
 32 31  1  0  0  0  0
 33 32  2  0  0  0  0
 35 34  1  1  0  0  0
 37 35  1  6  0  0  0
 37 39  1  0  0  0  0
 38 36  1  6  0  0  0
 38 40  1  0  0  0  0
 38 37  1  0  0  0  0
 38 39  1  0  0  0  0
 42 43  1  0  0  0  0
 43 41  1  0  0  0  0
 43 40  1  0  0  0  0
M  END
>  <MODEL>
3

>  <REMARK>
 VINA RESULT:      -7.5      2.699      7.176
  Name = 
  10 active torsions:
  status: ('A' for Active; 'I' for Inactive)
    1  A    between atoms: C_2  and  C_24
    2  A    between atoms: C_2  and  C_28
    3  A    between atoms: C_3  and  C_34
    4  A    between atoms: C_3  and  C_40
    5  A    between atoms: C_13  and  C_39
    6  A    between atoms: C_16  and  C_32
    7  A    between atoms: C_16  and  C_33
    8  A    between atoms: N_19  and  P_22
    9  A    between atoms: C_27  and  N_43
   10  A    between atoms: C_28  and  C_39
                            x       y       z     vdW  Elec       q    Type
                         _______ _______ _______ _____ _____    ______ ____

>  <TORSDO>
F 10

$$$$
=
 OpenBabel11042412533D

 43 47  0  0  1  0  0  0  0  0999 V2000
  183.7250  178.6260  144.1580 C   0  0  0  0  0  3  0  0  0  0  0  0
  185.1880  179.0010  140.8910 C   0  0  0  0  0  0  0  0  0  0  0  0
  183.9140  178.4570  142.7070 C   0  0  1  0  0  3  0  0  0  0  0  0
  186.3510  178.6770  140.4910 N   0  0  0  0  0  0  0  0  0  0  0  0
  184.7050  178.5760  145.1050 C   0  0  0  0  0  0  0  0  0  0  0  0
  186.2150  178.3520  145.0980 C   0  0  0  0  0  0  0  0  0  0  0  0
  182.5900  178.4260  141.4080 S   0  0  0  0  0  0  0  0  0  0  0  0
  188.5540  177.9760  144.5240 C   0  0  0  0  0  0  0  0  0  0  0  0
  187.7870  177.9270  146.8240 N   0  0  0  0  0  0  0  0  0  0  0  0
  189.6650  178.0080  143.5630 N   0  0  0  0  0  0  0  0  0  0  0  0
  186.4980  178.2650  146.4490 C   0  0  0  0  0  0  0  0  0  0  0  0
  188.5290  177.8420  141.4630 C   0  0  1  0  0  3  0  0  0  0  0  0
  185.3860  178.4280  147.2820 N   0  0  0  0  0  0  0  0  0  0  0  0
  189.5150  178.6800  142.2410 C   0  0  0  0  0  2  0  0  0  0  0  0
  184.2650  178.6240  146.4290 N   0  0  0  0  0  0  0  0  0  0  0  0
  183.9120  178.8410  140.1510 C   0  0  1  0  0  3  0  0  0  0  0  0
  187.3530  178.5790  141.4750 N   0  0  0  0  0  2  0  0  0  0  0  0
  187.2000  178.1820  144.1370 C   0  0  0  0  0  3  0  0  0  0  0  0
  185.0320  179.1230  142.2720 O   0  0  0  0  0  0  0  0  0  0  0  0
  188.7830  177.7870  145.9000 C   0  0  0  0  0  3  0  0  0  0  0  0
  190.7680  175.2140  143.2970 O   0  0  0  0  0  1  0  0  0  0  0  0
  191.0330  176.9000  143.4050 P   0  0  0  0  0  0  0  0  0  0  0  0
  191.6820  177.0100  144.7670 O   0  0  0  0  0  1  0  0  0  0  0  0
  192.1690  177.4290  142.2920 O   0  0  0  0  0  0  0  0  0  0  0  0
  188.7940  177.3390  139.9920 C   0  0  2  0  0  3  0  0  0  0  0  0
  189.9580  176.3560  140.0340 C   0  0  0  0  0  1  0  0  0  0  0  0
  188.8560  178.4390  138.8990 C   0  0  0  0  0  2  0  0  0  0  0  0
  189.1950  177.7130  137.5990 C   0  0  0  0  0  2  0  0  0  0  0  0
  188.1590  177.6420  136.5990 C   0  0  0  0  0  2  0  0  0  0  0  0
  187.0190  177.1220  136.9230 N   0  0  0  0  0  2  0  0  0  0  0  0
  185.4200  175.7240  135.8250 O   0  0  0  0  0  1  0  0  0  0  0  0
  186.1520  176.9190  135.8700 C   0  0  0  0  0  0  0  0  0  0  0  0
  186.0420  177.7620  134.9380 O   0  0  0  0  0  0  0  0  0  0  0  0
  184.0310  180.9970  138.7870 O   0  0  0  0  0  1  0  0  0  0  0  0
  183.4940  179.6930  138.9580 C   0  0  1  0  0  3  0  0  0  0  0  0
  181.1260  178.6290  137.9530 O   0  0  0  0  0  1  0  0  0  0  0  0
  183.3990  178.8440  137.6490 C   0  0  2  0  0  3  0  0  0  0  0  0
  182.2170  177.9780  137.4240 C   0  0  1  0  0  0  0  0  0  0  0  0
  183.3970  177.5000  138.2860 C   0  0  0  0  0  2  0  0  0  0  0  0
  182.2990  177.4860  135.9520 C   0  0  0  0  0  2  0  0  0  0  0  0
  180.0820  176.4810  134.9270 C   0  0  0  0  0  1  0  0  0  0  0  0
  182.0380  175.1750  134.7970 C   0  0  0  0  0  1  0  0  0  0  0  0
  181.4260  176.2800  135.5450 C   0  0  0  0  0  3  0  0  0  0  0  0
  1  5  2  0  0  0  0
  2 19  1  0  0  0  0
  3  1  1  1  0  0  0
  4  2  2  0  0  0  0
  4 17  1  0  0  0  0
  5 15  1  0  0  0  0
  6  5  1  0  0  0  0
  6 11  1  0  0  0  0
  7  3  1  0  0  0  0
  8 20  2  0  0  0  0
 10  8  1  0  0  0  0
 11  9  2  0  0  0  0
 11 13  1  0  0  0  0
 12 25  1  6  0  0  0
 12 17  1  0  0  0  0
 12 14  1  0  0  0  0
 14 10  1  0  0  0  0
 15 13  2  0  0  0  0
 16 35  1  1  0  0  0
 16  2  1  0  0  0  0
 16  7  1  0  0  0  0
 18  8  1  0  0  0  0
 18  6  2  0  0  0  0
 19  3  1  0  0  0  0
 20  9  1  0  0  0  0
 21 22  1  0  0  0  0
 22 10  1  0  0  0  0
 22 23  1  0  0  0  0
 24 22  2  0  0  0  0
 25 26  1  1  0  0  0
 27 25  1  0  0  0  0
 28 27  1  0  0  0  0
 29 30  1  0  0  0  0
 29 28  1  0  0  0  0
 31 32  1  0  0  0  0
 32 30  1  0  0  0  0
 33 32  2  0  0  0  0
 35 34  1  6  0  0  0
 37 39  1  0  0  0  0
 37 35  1  1  0  0  0
 38 37  1  0  0  0  0
 38 36  1  1  0  0  0
 38 39  1  0  0  0  0
 40 38  1  0  0  0  0
 41 43  1  0  0  0  0
 42 43  1  0  0  0  0
 43 40  1  0  0  0  0
M  END
>  <MODEL>
4

>  <REMARK>
 VINA RESULT:      -7.5      3.267      6.484
  Name = 
  10 active torsions:
  status: ('A' for Active; 'I' for Inactive)
    1  A    between atoms: C_2  and  C_24
    2  A    between atoms: C_2  and  C_28
    3  A    between atoms: C_3  and  C_34
    4  A    between atoms: C_3  and  C_40
    5  A    between atoms: C_13  and  C_39
    6  A    between atoms: C_16  and  C_32
    7  A    between atoms: C_16  and  C_33
    8  A    between atoms: N_19  and  P_22
    9  A    between atoms: C_27  and  N_43
   10  A    between atoms: C_28  and  C_39
                            x       y       z     vdW  Elec       q    Type
                         _______ _______ _______ _____ _____    ______ ____

>  <TORSDO>
F 10

$$$$
=
 OpenBabel11042412533D

 43 47  0  0  1  0  0  0  0  0999 V2000
  186.3260  178.1880  143.5860 C   0  0  0  0  0  3  0  0  0  0  0  0
  185.2970  178.6880  140.1740 C   0  0  0  0  0  0  0  0  0  0  0  0
  185.5140  178.0740  142.3630 C   0  0  1  0  0  3  0  0  0  0  0  0
  185.9060  178.3840  139.0990 N   0  0  0  0  0  0  0  0  0  0  0  0
  187.6850  178.1060  143.6560 C   0  0  0  0  0  0  0  0  0  0  0  0
  188.8160  177.8880  142.6530 C   0  0  0  0  0  0  0  0  0  0  0  0
  183.6620  178.0860  142.2510 S   0  0  0  0  0  0  0  0  0  0  0  0
  190.1970  177.5410  140.6750 C   0  0  0  0  0  0  0  0  0  0  0  0
  191.1240  177.4040  142.9110 N   0  0  0  0  0  0  0  0  0  0  0  0
  190.4060  177.6120  139.2220 N   0  0  0  0  0  0  0  0  0  0  0  0
  189.9140  177.7510  143.4840 C   0  0  0  0  0  0  0  0  0  0  0  0
  188.1690  177.5200  138.3780 C   0  0  1  0  0  3  0  0  0  0  0  0
  189.6230  177.8790  144.8470 N   0  0  0  0  0  0  0  0  0  0  0  0
  189.4420  178.3330  138.3440 C   0  0  0  0  0  2  0  0  0  0  0  0
  188.2220  178.1030  144.9440 N   0  0  0  0  0  0  0  0  0  0  0  0
  183.8450  178.5520  140.4470 C   0  0  1  0  0  3  0  0  0  0  0  0
  187.3050  178.2530  139.1810 N   0  0  0  0  0  2  0  0  0  0  0  0
  188.9260  177.7560  141.2770 C   0  0  0  0  0  3  0  0  0  0  0  0
  186.0870  178.7590  141.3210 O   0  0  0  0  0  0  0  0  0  0  0  0
  191.2680  177.3010  141.5570 C   0  0  0  0  0  3  0  0  0  0  0  0
  190.9360  176.4110  136.5080 O   0  0  0  0  0  0  0  0  0  0  0  0
  191.3110  176.5150  138.1720 P   0  0  0  0  0  0  0  0  0  0  0  0
  190.8490  175.1610  138.6640 O   0  0  0  0  0  1  0  0  0  0  0  0
  192.9640  176.5800  138.4400 O   0  0  0  0  0  1  0  0  0  0  0  0
  187.3940  177.0730  137.0800 C   0  0  2  0  0  3  0  0  0  0  0  0
  187.5670  175.5670  136.9240 C   0  0  0  0  0  1  0  0  0  0  0  0
  187.6400  177.9340  135.8110 C   0  0  0  0  0  2  0  0  0  0  0  0
  186.3810  177.7860  134.9600 C   0  0  0  0  0  3  0  0  0  0  0  0
  185.1640  177.4320  135.6470 C   0  0  0  0  0  3  0  0  0  0  0  0
  184.0640  177.3720  134.9680 N   0  0  0  0  0  2  0  0  0  0  0  0
  182.9920  176.4330  136.8890 O   0  0  0  0  0  1  0  0  0  0  0  0
  182.9220  177.2130  135.7250 C   0  0  0  0  0  0  0  0  0  0  0  0
  181.8210  177.7160  135.3680 O   0  0  0  0  0  0  0  0  0  0  0  0
  182.5950  179.5140  138.4380 O   0  0  0  0  0  1  0  0  0  0  0  0
  182.7660  179.4460  139.8470 C   0  0  1  0  0  3  0  0  0  0  0  0
  181.0830  177.2300  139.9150 O   0  0  0  0  0  1  0  0  0  0  0  0
  181.4390  179.3770  140.6680 C   0  0  2  0  0  3  0  0  0  0  0  0
  180.4150  178.3630  140.3190 C   0  0  1  0  0  0  0  0  0  0  0  0
  180.5030  179.6950  139.5560 C   0  0  0  0  0  2  0  0  0  0  0  0
  179.3610  178.3840  141.4600 C   0  0  0  0  0  2  0  0  0  0  0  0
  179.0550  180.1240  143.4240 C   0  0  0  0  0  1  0  0  0  0  0  0
  180.0550  178.0550  143.9410 C   0  0  0  0  0  1  0  0  0  0  0  0
  179.7860  178.9690  142.8250 C   0  0  0  0  0  3  0  0  0  0  0  0
  1  5  2  0  0  0  0
  2 16  1  0  0  0  0
  2 19  1  0  0  0  0
  3  1  1  1  0  0  0
  4 17  1  0  0  0  0
  4  2  2  0  0  0  0
  5 15  1  0  0  0  0
  6 11  1  0  0  0  0
  6  5  1  0  0  0  0
  7  3  1  0  0  0  0
  8 18  1  0  0  0  0
  8 20  2  0  0  0  0
  9 11  2  0  0  0  0
 10  8  1  0  0  0  0
 11 13  1  0  0  0  0
 12 25  1  6  0  0  0
 12 17  1  0  0  0  0
 13 15  2  0  0  0  0
 14 12  1  0  0  0  0
 14 10  1  0  0  0  0
 16 35  1  1  0  0  0
 16  7  1  0  0  0  0
 18  6  2  0  0  0  0
 19  3  1  0  0  0  0
 20  9  1  0  0  0  0
 21 22  2  0  0  0  0
 22 24  1  0  0  0  0
 22 23  1  0  0  0  0
 22 10  1  0  0  0  0
 25 26  1  6  0  0  0
 27 25  1  0  0  0  0
 28 29  2  0  0  0  0
 28 27  1  0  0  0  0
 30 29  1  0  0  0  0
 30 32  1  0  0  0  0
 32 31  1  0  0  0  0
 33 32  2  0  0  0  0
 35 34  1  6  0  0  0
 37 35  1  6  0  0  0
 38 36  1  6  0  0  0
 38 37  1  0  0  0  0
 38 40  1  0  0  0  0
 39 38  1  0  0  0  0
 39 37  1  0  0  0  0
 40 43  1  0  0  0  0
 43 41  1  0  0  0  0
 43 42  1  0  0  0  0
M  END
>  <MODEL>
5

>  <REMARK>
 VINA RESULT:      -7.2      3.409      7.431
  Name = 
  10 active torsions:
  status: ('A' for Active; 'I' for Inactive)
    1  A    between atoms: C_2  and  C_24
    2  A    between atoms: C_2  and  C_28
    3  A    between atoms: C_3  and  C_34
    4  A    between atoms: C_3  and  C_40
    5  A    between atoms: C_13  and  C_39
    6  A    between atoms: C_16  and  C_32
    7  A    between atoms: C_16  and  C_33
    8  A    between atoms: N_19  and  P_22
    9  A    between atoms: C_27  and  N_43
   10  A    between atoms: C_28  and  C_39
                            x       y       z     vdW  Elec       q    Type
                         _______ _______ _______ _____ _____    ______ ____

>  <TORSDO>
F 10

$$$$
=
 OpenBabel11042412533D

 43 47  0  0  1  0  0  0  0  0999 V2000
  190.4800  176.8470  138.6720 C   0  0  0  0  0  2  0  0  0  0  0  0
  188.7210  178.2140  141.4980 C   0  0  0  0  0  0  0  0  0  0  0  0
  189.9860  176.9780  140.0520 C   0  0  1  0  0  3  0  0  0  0  0  0
  187.4720  178.4000  141.6520 N   0  0  0  0  0  0  0  0  0  0  0  0
  189.7430  177.0170  137.5370 C   0  0  0  0  0  0  0  0  0  0  0  0
  188.2880  177.3620  137.2250 C   0  0  0  0  0  0  0  0  0  0  0  0
  190.9410  176.6620  141.6110 S   0  0  0  0  0  0  0  0  0  0  0  0
  185.9250  177.9540  137.2920 C   0  0  0  0  0  0  0  0  0  0  0  0
  187.0080  177.2850  135.2290 N   0  0  0  0  0  0  0  0  0  0  0  0
  184.7620  178.5320  137.9790 N   0  0  0  0  0  0  0  0  0  0  0  0
  188.2390  177.1820  135.8540 C   0  0  0  0  0  0  0  0  0  0  0  0
  185.3510  178.2800  140.2840 C   0  0  1  0  0  3  0  0  0  0  0  0
  189.4560  176.8020  135.2790 N   0  0  0  0  0  2  0  0  0  0  0  0
  184.9220  179.2930  139.2490 C   0  0  0  0  0  2  0  0  0  0  0  0
  190.3940  176.7020  136.3430 N   0  0  0  0  0  0  0  0  0  0  0  0
  189.6810  177.7130  142.5120 C   0  0  1  0  0  3  0  0  0  0  0  0
  186.7020  178.5270  140.4810 N   0  0  0  0  0  2  0  0  0  0  0  0
  187.1600  177.7080  137.9540 C   0  0  0  0  0  3  0  0  0  0  0  0
  189.1550  178.0630  140.1810 O   0  0  0  0  0  0  0  0  0  0  0  0
  185.8890  177.6570  135.9160 C   0  0  0  0  0  3  0  0  0  0  0  0
  182.6290  176.4170  138.2420 O   0  0  0  0  0  1  0  0  0  0  0  0
  183.0670  178.0350  137.9080 P   0  0  0  0  0  0  0  0  0  0  0  0
  182.7790  178.1180  136.4240 O   0  0  0  0  0  0  0  0  0  0  0  0
  182.0390  179.1300  138.6540 O   0  0  0  0  0  1  0  0  0  0  0  0
  184.6550  178.1340  141.6920 C   0  0  2  0  0  3  0  0  0  0  0  0
  183.2810  177.5110  141.4740 C   0  0  0  0  0  1  0  0  0  0  0  0
  184.7110  179.3850  142.6100 C   0  0  0  0  0  2  0  0  0  0  0  0
  183.6310  179.1710  143.6670 C   0  0  0  0  0  2  0  0  0  0  0  0
  184.0750  178.8660  145.0040 C   0  0  0  0  0  2  0  0  0  0  0  0
  185.1940  179.3690  145.4160 N   0  0  0  0  0  2  0  0  0  0  0  0
  185.6830  179.7550  147.7240 O   0  0  0  0  0  1  0  0  0  0  0  0
  185.6400  178.8830  146.6270 C   0  0  0  0  0  0  0  0  0  0  0  0
  186.0440  177.6940  146.7490 O   0  0  0  0  0  0  0  0  0  0  0  0
  190.3280  179.9310  143.6010 O   0  0  0  0  0  1  0  0  0  0  0  0
  190.1770  178.5220  143.7050 C   0  0  1  0  0  3  0  0  0  0  0  0
  191.3530  176.6480  145.3950 O   0  0  0  0  0  1  0  0  0  0  0  0
  189.5410  178.0260  145.0430 C   0  0  2  0  0  3  0  0  0  0  0  0
  190.0040  176.7520  145.6440 C   0  0  1  0  0  0  0  0  0  0  0  0
  188.9510  176.7630  144.5230 C   0  0  0  0  0  2  0  0  0  0  0  0
  189.3790  176.6780  147.0650 C   0  0  0  0  0  2  0  0  0  0  0  0
  188.3910  178.2630  148.9330 C   0  0  0  0  0  1  0  0  0  0  0  0
  190.7310  178.2140  148.6650 C   0  0  0  0  0  1  0  0  0  0  0  0
  189.4740  177.9320  147.9610 C   0  0  0  0  0  3  0  0  0  0  0  0
  2  4  2  0  0  0  0
  2 16  1  0  0  0  0
  3  1  1  6  0  0  0
  3 19  1  0  0  0  0
  3  7  1  0  0  0  0
  5  1  1  0  0  0  0
  6  5  1  0  0  0  0
  6 18  2  0  0  0  0
  7 16  1  0  0  0  0
  8 18  1  0  0  0  0
  8 10  1  0  0  0  0
  9 11  2  0  0  0  0
  9 20  1  0  0  0  0
 10 14  1  0  0  0  0
 11  6  1  0  0  0  0
 12 17  1  0  0  0  0
 12 25  1  1  0  0  0
 13 11  1  0  0  0  0
 13 15  1  0  0  0  0
 14 12  1  0  0  0  0
 15  5  2  0  0  0  0
 16 35  1  6  0  0  0
 17  4  1  0  0  0  0
 19  2  1  0  0  0  0
 20  8  2  0  0  0  0
 22 10  1  0  0  0  0
 22 21  1  0  0  0  0
 22 24  1  0  0  0  0
 23 22  2  0  0  0  0
 25 26  1  6  0  0  0
 25 27  1  0  0  0  0
 27 28  1  0  0  0  0
 28 29  1  0  0  0  0
 29 30  1  0  0  0  0
 30 32  1  0  0  0  0
 32 33  2  0  0  0  0
 32 31  1  0  0  0  0
 35 34  1  6  0  0  0
 37 35  1  6  0  0  0
 37 38  1  0  0  0  0
 38 36  1  6  0  0  0
 38 40  1  0  0  0  0
 39 37  1  0  0  0  0
 39 38  1  0  0  0  0
 40 43  1  0  0  0  0
 43 42  1  0  0  0  0
 43 41  1  0  0  0  0
M  END
>  <MODEL>
6

>  <REMARK>
 VINA RESULT:      -7.2      3.071      7.729
  Name = 
  10 active torsions:
  status: ('A' for Active; 'I' for Inactive)
    1  A    between atoms: C_2  and  C_24
    2  A    between atoms: C_2  and  C_28
    3  A    between atoms: C_3  and  C_34
    4  A    between atoms: C_3  and  C_40
    5  A    between atoms: C_13  and  C_39
    6  A    between atoms: C_16  and  C_32
    7  A    between atoms: C_16  and  C_33
    8  A    between atoms: N_19  and  P_22
    9  A    between atoms: C_27  and  N_43
   10  A    between atoms: C_28  and  C_39
                            x       y       z     vdW  Elec       q    Type
                         _______ _______ _______ _____ _____    ______ ____

>  <TORSDO>
F 10

$$$$
=
 OpenBabel11042412533D

 43 47  0  0  1  0  0  0  0  0999 V2000
  185.6680  178.1530  143.3750 C   0  0  0  0  0  3  0  0  0  0  0  0
  184.9950  178.9640  139.9340 C   0  0  0  0  0  0  0  0  0  0  0  0
  184.9730  178.1750  142.0770 C   0  0  1  0  0  3  0  0  0  0  0  0
  185.6890  178.7090  138.8990 N   0  0  0  0  0  0  0  0  0  0  0  0
  187.0100  177.9930  143.5620 C   0  0  0  0  0  0  0  0  0  0  0  0
  188.2190  177.7890  142.6530 C   0  0  0  0  0  0  0  0  0  0  0  0
  183.1430  178.2970  141.7970 S   0  0  0  0  0  0  0  0  0  0  0  0
  189.7660  177.5170  140.7880 C   0  0  0  0  0  0  0  0  0  0  0  0
  190.4670  177.1620  143.0820 N   0  0  0  0  0  0  0  0  0  0  0  0
  190.1150  177.6860  139.3710 N   0  0  0  0  0  0  0  0  0  0  0  0
  189.2250  177.5310  143.5670 C   0  0  0  0  0  0  0  0  0  0  0  0
  187.9670  177.7800  138.3210 C   0  0  1  0  0  3  0  0  0  0  0  0
  188.8120  177.5710  144.9040 N   0  0  0  0  0  0  0  0  0  0  0  0
  189.2750  178.5220  138.4690 C   0  0  0  0  0  2  0  0  0  0  0  0
  187.4200  177.8630  144.8900 N   0  0  0  0  0  0  0  0  0  0  0  0
  183.5190  178.8870  140.0610 C   0  0  1  0  0  3  0  0  0  0  0  0
  187.0660  178.4960  139.0980 N   0  0  0  0  0  2  0  0  0  0  0  0
  188.4540  177.7560  141.2870 C   0  0  0  0  0  3  0  0  0  0  0  0
  185.6750  178.9050  141.1500 O   0  0  0  0  0  0  0  0  0  0  0  0
  190.7350  177.1540  141.7430 C   0  0  0  0  0  3  0  0  0  0  0  0
  190.7880  176.6070  136.6380 O   0  0  0  0  0  0  0  0  0  0  0  0
  191.0640  176.6240  138.3240 P   0  0  0  0  0  0  0  0  0  0  0  0
  190.5510  175.2560  138.7210 O   0  0  0  0  0  1  0  0  0  0  0  0
  192.6990  176.6440  138.6920 O   0  0  0  0  0  1  0  0  0  0  0  0
  187.3000  177.4750  136.9260 C   0  0  2  0  0  3  0  0  0  0  0  0
  187.2530  178.7750  136.1330 C   0  0  0  0  0  1  0  0  0  0  0  0
  185.9900  176.6410  136.9670 C   0  0  0  0  0  2  0  0  0  0  0  0
  186.4270  175.1970  137.2010 C   0  0  0  0  0  2  0  0  0  0  0  0
  185.6130  174.1630  136.6120 C   0  0  0  0  0  2  0  0  0  0  0  0
  185.1190  173.2480  137.3840 N   0  0  0  0  0  2  0  0  0  0  0  0
  185.0240  171.8040  135.4800 O   0  0  0  0  0  0  0  0  0  0  0  0
  184.5140  172.1980  136.7260 C   0  0  0  0  0  0  0  0  0  0  0  0
  183.4960  171.6230  137.2000 O   0  0  0  0  0  1  0  0  0  0  0  0
  183.0340  181.0060  138.7210 O   0  0  0  0  0  1  0  0  0  0  0  0
  182.5460  179.8810  139.4380 C   0  0  1  0  0  3  0  0  0  0  0  0
  182.7350  178.1870  137.2370 O   0  0  0  0  0  1  0  0  0  0  0  0
  181.3270  179.1590  138.7800 C   0  0  2  0  0  3  0  0  0  0  0  0
  181.4450  178.6400  137.3960 C   0  0  1  0  0  0  0  0  0  0  0  0
  181.1100  180.1170  137.6620 C   0  0  0  0  0  2  0  0  0  0  0  0
  180.1850  177.7670  137.1390 C   0  0  0  0  0  2  0  0  0  0  0  0
  179.1460  175.6030  138.2400 C   0  0  0  0  0  1  0  0  0  0  0  0
  180.6800  175.3050  136.4780 C   0  0  0  0  0  1  0  0  0  0  0  0
  180.2600  176.2680  137.5020 C   0  0  0  0  0  3  0  0  0  0  0  0
  1  5  2  0  0  0  0
  2 16  1  0  0  0  0
  2 19  1  0  0  0  0
  3  1  1  1  0  0  0
  4 17  1  0  0  0  0
  4  2  2  0  0  0  0
  5 15  1  0  0  0  0
  6  5  1  0  0  0  0
  6 11  1  0  0  0  0
  7  3  1  0  0  0  0
  8 18  1  0  0  0  0
  8 20  2  0  0  0  0
  9 11  2  0  0  0  0
 10  8  1  0  0  0  0
 11 13  1  0  0  0  0
 12 25  1  6  0  0  0
 12 14  1  0  0  0  0
 12 17  1  0  0  0  0
 14 10  1  0  0  0  0
 15 13  2  0  0  0  0
 16 35  1  1  0  0  0
 16  7  1  0  0  0  0
 18  6  2  0  0  0  0
 19  3  1  0  0  0  0
 20  9  1  0  0  0  0
 21 22  2  0  0  0  0
 22 24  1  0  0  0  0
 22 23  1  0  0  0  0
 22 10  1  0  0  0  0
 25 26  1  1  0  0  0
 25 27  1  0  0  0  0
 27 28  1  0  0  0  0
 29 28  1  0  0  0  0
 29 30  1  0  0  0  0
 31 32  2  0  0  0  0
 32 33  1  0  0  0  0
 32 30  1  0  0  0  0
 35 34  1  6  0  0  0
 37 35  1  1  0  0  0
 38 36  1  6  0  0  0
 38 39  1  0  0  0  0
 38 37  1  0  0  0  0
 39 37  1  0  0  0  0
 40 38  1  0  0  0  0
 40 43  1  0  0  0  0
 42 43  1  0  0  0  0
 43 41  1  0  0  0  0
M  END
>  <MODEL>
7

>  <REMARK>
 VINA RESULT:      -7.0      3.964      7.233
  Name = 
  10 active torsions:
  status: ('A' for Active; 'I' for Inactive)
    1  A    between atoms: C_2  and  C_24
    2  A    between atoms: C_2  and  C_28
    3  A    between atoms: C_3  and  C_34
    4  A    between atoms: C_3  and  C_40
    5  A    between atoms: C_13  and  C_39
    6  A    between atoms: C_16  and  C_32
    7  A    between atoms: C_16  and  C_33
    8  A    between atoms: N_19  and  P_22
    9  A    between atoms: C_27  and  N_43
   10  A    between atoms: C_28  and  C_39
                            x       y       z     vdW  Elec       q    Type
                         _______ _______ _______ _____ _____    ______ ____

>  <TORSDO>
F 10

$$$$
=
 OpenBabel11042412533D

 43 47  0  0  1  0  0  0  0  0999 V2000
  183.5070  178.1580  138.6860 C   0  0  0  0  0  3  0  0  0  0  0  0
  187.0070  178.4100  139.4860 C   0  0  0  0  0  0  0  0  0  0  0  0
  184.9430  177.8330  138.6950 C   0  0  1  0  0  3  0  0  0  0  0  0
  187.5780  178.3360  140.6200 N   0  0  0  0  0  0  0  0  0  0  0  0
  182.7550  178.4970  139.7720 C   0  0  0  0  0  0  0  0  0  0  0  0
  183.0150  178.6640  141.2670 C   0  0  0  0  0  0  0  0  0  0  0  0
  185.9680  177.2780  137.2520 S   0  0  0  0  0  0  0  0  0  0  0  0
  183.9660  178.8130  143.5070 C   0  0  0  0  0  0  0  0  0  0  0  0
  181.5720  178.9080  143.1340 N   0  0  0  0  0  0  0  0  0  0  0  0
  185.1120  178.9830  144.4090 N   0  0  0  0  0  0  0  0  0  0  0  0
  181.7370  178.8500  141.7620 C   0  0  0  0  0  0  0  0  0  0  0  0
  186.9410  178.2300  143.0630 C   0  0  1  0  0  3  0  0  0  0  0  0
  180.7350  178.8460  140.7840 N   0  0  0  0  0  0  0  0  0  0  0  0
  186.4450  179.3960  143.8860 C   0  0  0  0  0  2  0  0  0  0  0  0
  181.3850  178.6250  139.5380 N   0  0  0  0  0  0  0  0  0  0  0  0
  187.4820  177.8260  138.2070 C   0  0  1  0  0  3  0  0  0  0  0  0
  186.7890  178.6390  141.7460 N   0  0  0  0  0  2  0  0  0  0  0  0
  184.1180  178.6100  142.1060 C   0  0  0  0  0  3  0  0  0  0  0  0
  185.6410  178.6890  139.5100 O   0  0  0  0  0  0  0  0  0  0  0  0
  182.6430  178.8910  143.9820 C   0  0  0  0  0  3  0  0  0  0  0  0
  184.1800  178.2520  147.1820 O   0  0  0  0  0  1  0  0  0  0  0  0
  185.4040  178.2470  145.9890 P   0  0  0  0  0  0  0  0  0  0  0  0
  186.4110  179.2000  146.5960 O   0  0  0  0  0  1  0  0  0  0  0  0
  186.1660  176.7570  145.8790 O   0  0  0  0  0  0  0  0  0  0  0  0
  188.3770  177.6010  143.2330 C   0  0  2  0  0  3  0  0  0  0  0  0
  188.2400  176.0860  143.1430 C   0  0  0  0  0  1  0  0  0  0  0  0
  189.2240  178.1520  144.4130 C   0  0  0  0  0  2  0  0  0  0  0  0
  190.5650  178.5550  143.8050 C   0  0  0  0  0  2  0  0  0  0  0  0
  190.7690  178.2540  142.4100 C   0  0  0  0  0  2  0  0  0  0  0  0
  191.5010  177.2330  142.0970 N   0  0  0  0  0  2  0  0  0  0  0  0
  191.1290  176.1530  139.9960 O   0  0  0  0  0  0  0  0  0  0  0  0
  191.8010  177.1230  140.7550 C   0  0  0  0  0  0  0  0  0  0  0  0
  192.6880  177.8410  140.2190 O   0  0  0  0  0  1  0  0  0  0  0  0
  189.0150  179.7330  137.4760 O   0  0  0  0  0  1  0  0  0  0  0  0
  188.6580  178.3600  137.3990 C   0  0  1  0  0  3  0  0  0  0  0  0
  189.7950  177.2570  135.1090 O   0  0  0  0  0  1  0  0  0  0  0  0
  189.8630  177.3660  137.4090 C   0  0  2  0  0  3  0  0  0  0  0  0
  190.1200  176.5160  136.2220 C   0  0  1  0  0  0  0  0  0  0  0  0
  189.0820  176.1070  137.2800 C   0  0  0  0  0  2  0  0  0  0  0  0
  191.5070  175.8510  136.4430 C   0  0  0  0  0  2  0  0  0  0  0  0
  193.3290  174.5210  135.0680 C   0  0  0  0  0  1  0  0  0  0  0  0
  191.4190  173.3410  135.7810 C   0  0  0  0  0  1  0  0  0  0  0  0
  191.9110  174.6950  135.5020 C   0  0  0  0  0  3  0  0  0  0  0  0
  1  5  2  0  0  0  0
  2 19  1  0  0  0  0
  2  4  2  0  0  0  0
  3  1  1  6  0  0  0
  3 19  1  0  0  0  0
  4 17  1  0  0  0  0
  5  6  1  0  0  0  0
  6 11  1  0  0  0  0
  6 18  2  0  0  0  0
  7 16  1  0  0  0  0
  7  3  1  0  0  0  0
  8 20  2  0  0  0  0
  8 10  1  0  0  0  0
  9 20  1  0  0  0  0
 10 22  1  0  0  0  0
 11  9  2  0  0  0  0
 12 25  1  1  0  0  0
 12 14  1  0  0  0  0
 13 11  1  0  0  0  0
 14 10  1  0  0  0  0
 15  5  1  0  0  0  0
 15 13  2  0  0  0  0
 16 35  1  6  0  0  0
 16  2  1  0  0  0  0
 17 12  1  0  0  0  0
 18  8  1  0  0  0  0
 22 23  1  0  0  0  0
 22 21  1  0  0  0  0
 24 22  2  0  0  0  0
 25 26  1  1  0  0  0
 25 27  1  0  0  0  0
 28 27  1  0  0  0  0
 29 28  1  0  0  0  0
 30 29  1  0  0  0  0
 31 32  2  0  0  0  0
 32 30  1  0  0  0  0
 33 32  1  0  0  0  0
 35 34  1  1  0  0  0
 37 35  1  6  0  0  0
 38 36  1  6  0  0  0
 38 40  1  0  0  0  0
 38 39  1  0  0  0  0
 38 37  1  0  0  0  0
 39 37  1  0  0  0  0
 41 43  1  0  0  0  0
 43 42  1  0  0  0  0
 43 40  1  0  0  0  0
M  END
>  <MODEL>
8

>  <REMARK>
 VINA RESULT:      -6.5      2.739      6.974
  Name = 
  10 active torsions:
  status: ('A' for Active; 'I' for Inactive)
    1  A    between atoms: C_2  and  C_24
    2  A    between atoms: C_2  and  C_28
    3  A    between atoms: C_3  and  C_34
    4  A    between atoms: C_3  and  C_40
    5  A    between atoms: C_13  and  C_39
    6  A    between atoms: C_16  and  C_32
    7  A    between atoms: C_16  and  C_33
    8  A    between atoms: N_19  and  P_22
    9  A    between atoms: C_27  and  N_43
   10  A    between atoms: C_28  and  C_39
                            x       y       z     vdW  Elec       q    Type
                         _______ _______ _______ _____ _____    ______ ____

>  <TORSDO>
F 10

$$$$
=
 OpenBabel11042412533D

 43 47  0  0  1  0  0  0  0  0999 V2000
  185.0440  178.1490  143.4480 C   0  0  0  0  0  3  0  0  0  0  0  0
  184.6820  179.0960  139.9950 C   0  0  0  0  0  0  0  0  0  0  0  0
  184.4620  178.2330  142.0990 C   0  0  1  0  0  3  0  0  0  0  0  0
  185.4560  178.8630  139.0140 N   0  0  0  0  0  0  0  0  0  0  0  0
  186.3610  177.9520  143.7420 C   0  0  0  0  0  0  0  0  0  0  0  0
  187.6390  177.7540  142.9320 C   0  0  0  0  0  0  0  0  0  0  0  0
  182.6650  178.4050  141.6700 S   0  0  0  0  0  0  0  0  0  0  0  0
  189.3340  177.5150  141.1950 C   0  0  0  0  0  0  0  0  0  0  0  0
  189.8310  177.0630  143.5250 N   0  0  0  0  0  0  0  0  0  0  0  0
  189.8060  177.7260  139.8210 N   0  0  0  0  0  0  0  0  0  0  0  0
  188.5580  177.4420  143.9180 C   0  0  0  0  0  0  0  0  0  0  0  0
  187.7570  177.9050  138.5970 C   0  0  1  0  0  3  0  0  0  0  0  0
  188.0340  177.4440  145.2150 N   0  0  0  0  0  0  0  0  0  0  0  0
  189.0610  178.6120  138.8820 C   0  0  0  0  0  2  0  0  0  0  0  0
  186.6540  177.7670  145.0950 N   0  0  0  0  0  0  0  0  0  0  0  0
  183.1990  179.0470  139.9950 C   0  0  1  0  0  3  0  0  0  0  0  0
  186.8070  178.6120  139.3200 N   0  0  0  0  0  2  0  0  0  0  0  0
  187.9890  177.7650  141.5900 C   0  0  0  0  0  3  0  0  0  0  0  0
  185.2540  178.9790  141.2620 O   0  0  0  0  0  0  0  0  0  0  0  0
  190.2110  177.0970  142.2140 C   0  0  0  0  0  3  0  0  0  0  0  0
  192.4560  176.4150  139.2340 O   0  0  0  0  0  1  0  0  0  0  0  0
  190.8200  176.6810  138.8190 P   0  0  0  0  0  0  0  0  0  0  0  0
  190.9650  177.5040  137.5570 O   0  0  0  0  0  0  0  0  0  0  0  0
  190.0460  175.2620  138.3740 O   0  0  0  0  0  1  0  0  0  0  0  0
  187.2050  177.6640  137.1400 C   0  0  2  0  0  3  0  0  0  0  0  0
  187.0600  176.1610  136.9350 C   0  0  0  0  0  1  0  0  0  0  0  0
  187.9140  178.4540  136.0060 C   0  0  0  0  0  2  0  0  0  0  0  0
  188.3850  177.4040  135.0020 C   0  0  0  0  0  2  0  0  0  0  0  0
  189.7270  176.9010  135.1620 C   0  0  0  0  0  2  0  0  0  0  0  0
  190.0240  175.7530  134.6440 N   0  0  0  0  0  2  0  0  0  0  0  0
  191.3410  173.9640  135.5290 O   0  0  0  0  0  1  0  0  0  0  0  0
  191.2630  175.2600  134.9970 C   0  0  0  0  0  0  0  0  0  0  0  0
  192.3050  175.9620  134.8920 O   0  0  0  0  0  0  0  0  0  0  0  0
  182.8720  181.1650  138.6050 O   0  0  0  0  0  1  0  0  0  0  0  0
  182.3010  180.0840  139.3300 C   0  0  1  0  0  3  0  0  0  0  0  0
  182.4270  178.5030  137.0410 O   0  0  0  0  0  1  0  0  0  0  0  0
  181.0590  179.4210  138.6520 C   0  0  2  0  0  3  0  0  0  0  0  0
  181.1490  178.9730  137.2410 C   0  0  1  0  0  0  0  0  0  0  0  0
  180.8480  180.4400  137.5890 C   0  0  0  0  0  2  0  0  0  0  0  0
  179.8680  178.1390  136.9580 C   0  0  0  0  0  2  0  0  0  0  0  0
  180.2670  175.7770  135.8470 C   0  0  0  0  0  1  0  0  0  0  0  0
  180.7610  176.0060  138.1390 C   0  0  0  0  0  1  0  0  0  0  0  0
  179.9710  176.6020  137.0550 C   0  0  0  0  0  3  0  0  0  0  0  0
  1  5  2  0  0  0  0
  2 16  1  0  0  0  0
  2 19  1  0  0  0  0
  3  1  1  1  0  0  0
  4 17  1  0  0  0  0
  4  2  2  0  0  0  0
  5 15  1  0  0  0  0
  6  5  1  0  0  0  0
  6 11  1  0  0  0  0
  7  3  1  0  0  0  0
  8 18  1  0  0  0  0
  8 20  2  0  0  0  0
  9 11  2  0  0  0  0
 10  8  1  0  0  0  0
 11 13  1  0  0  0  0
 12 25  1  6  0  0  0
 12 14  1  0  0  0  0
 12 17  1  0  0  0  0
 14 10  1  0  0  0  0
 15 13  2  0  0  0  0
 16 35  1  1  0  0  0
 16  7  1  0  0  0  0
 18  6  2  0  0  0  0
 19  3  1  0  0  0  0
 20  9  1  0  0  0  0
 22 21  1  0  0  0  0
 22 10  1  0  0  0  0
 23 22  2  0  0  0  0
 24 22  1  0  0  0  0
 25 26  1  6  0  0  0
 27 25  1  0  0  0  0
 28 29  1  0  0  0  0
 28 27  1  0  0  0  0
 30 32  1  0  0  0  0
 30 29  1  0  0  0  0
 32 31  1  0  0  0  0
 33 32  2  0  0  0  0
 35 34  1  6  0  0  0
 37 35  1  6  0  0  0
 38 36  1  6  0  0  0
 38 39  1  0  0  0  0
 38 37  1  0  0  0  0
 39 37  1  0  0  0  0
 40 43  1  0  0  0  0
 40 38  1  0  0  0  0
 41 43  1  0  0  0  0
 43 42  1  0  0  0  0
M  END
>  <MODEL>
9

>  <REMARK>
 VINA RESULT:      -6.4      3.700      8.008
  Name = 
  10 active torsions:
  status: ('A' for Active; 'I' for Inactive)
    1  A    between atoms: C_2  and  C_24
    2  A    between atoms: C_2  and  C_28
    3  A    between atoms: C_3  and  C_34
    4  A    between atoms: C_3  and  C_40
    5  A    between atoms: C_13  and  C_39
    6  A    between atoms: C_16  and  C_32
    7  A    between atoms: C_16  and  C_33
    8  A    between atoms: N_19  and  P_22
    9  A    between atoms: C_27  and  N_43
   10  A    between atoms: C_28  and  C_39
                            x       y       z     vdW  Elec       q    Type
                         _______ _______ _______ _____ _____    ______ ____

>  <TORSDO>
F 10

$$$$
