=
 OpenBabel11042413103D

 32 34  0  0  1  0  0  0  0  0999 V2000
  185.6220  179.2340  141.6390 C   0  0  0  0  0  2  0  0  0  0  0  0
  184.4890  178.3600  141.1320 C   0  0  1  0  0  3  0  0  0  0  0  0
  183.1780  178.7370  141.8390 C   0  0  0  0  0  2  0  0  0  0  0  0
  184.4060  178.4510  139.6010 C   0  0  0  0  0  2  0  0  0  0  0  0
  183.2990  179.3970  139.1440 C   0  0  0  0  0  2  0  0  0  0  0  0
  181.9270  178.9180  139.6400 C   0  0  1  0  0  3  0  0  0  0  0  0
  181.9690  178.2690  141.0320 C   0  0  0  0  0  2  0  0  0  0  0  0
  180.9930  180.0320  139.6490 N   0  0  0  0  0  2  0  0  0  0  0  0
  180.5300  180.3450  137.9720 S   0  0  0  0  0  0  0  0  0  0  0  0
  181.2440  182.0200  138.0040 C   0  0  0  0  0  2  0  0  0  0  0  0
  179.9150  184.1910  137.6560 C   0  0  0  0  0  2  0  0  0  0  0  0
  181.1480  184.3000  136.7760 C   0  0  2  0  0  0  0  0  0  0  0  0
  180.5190  182.9410  137.0310 C   0  0  1  0  0  0  0  0  0  0  0  0
  182.2980  184.6150  137.5040 O   0  0  0  0  0  1  0  0  0  0  0  0
  180.9090  185.0420  135.4730 C   0  0  0  0  0  1  0  0  0  0  0  0
  179.6850  182.3350  135.9140 C   0  0  0  0  0  1  0  0  0  0  0  0
  186.8710  178.6870  141.2470 O   0  0  0  0  0  0  0  0  0  0  0  0
  190.3650  177.0270  143.4420 C   0  0  0  0  0  0  0  0  0  0  0  0
  189.0470  178.5910  142.0310 N   0  0  0  0  0  0  0  0  0  0  0  0
  189.4080  175.9080  143.3760 C   0  0  0  0  0  3  0  0  0  0  0  0
  190.1870  178.2050  142.8170 C   0  0  0  0  0  3  0  0  0  0  0  0
  187.3680  177.3350  143.3050 C   0  0  2  0  0  3  0  0  0  0  0  0
  188.0830  176.0250  143.2890 C   0  0  0  0  0  3  0  0  0  0  0  0
  187.8090  178.2150  142.1680 C   0  0  0  0  0  0  0  0  0  0  0  0
  187.5430  177.9850  144.5310 O   0  0  0  0  0  0  0  0  0  0  0  0
  186.2920  177.9360  145.1510 C   0  0  0  0  0  1  0  0  0  0  0  0
  191.5980  176.7780  144.1240 N   0  0  0  0  0  2  0  0  0  0  0  0
  191.8890  177.3120  145.3900 N   0  0  0  0  0  2  0  0  0  0  0  0
  191.6570  176.2610  146.3680 C   0  0  0  0  0  2  0  0  0  0  0  0
  191.0030  176.8320  147.6160 C   0  0  0  0  0  2  0  0  0  0  0  0
  189.7240  177.5800  147.2730 C   0  0  0  0  0  2  0  0  0  0  0  0
  188.5150  176.8670  147.8490 C   0  0  0  0  0  1  0  0  0  0  0  0
  2  1  1  1  0  0  0
  2  3  1  0  0  0  0
  4  2  1  0  0  0  0
  5  4  1  0  0  0  0
  5  6  1  0  0  0  0
  6  8  1  1  0  0  0
  6  7  1  0  0  0  0
  7  3  1  0  0  0  0
  9 10  1  0  0  0  0
  9  8  1  0  0  0  0
 12 15  1  6  0  0  0
 12 13  1  0  0  0  0
 12 14  1  0  0  0  0
 12 11  1  0  0  0  0
 13 16  1  6  0  0  0
 13 11  1  0  0  0  0
 13 10  1  0  0  0  0
 17  1  1  0  0  0  0
 17 24  1  0  0  0  0
 18 27  1  0  0  0  0
 19 24  2  0  0  0  0
 19 21  1  0  0  0  0
 20 18  1  0  0  0  0
 21 18  2  0  0  0  0
 22 25  1  1  0  0  0
 23 22  1  0  0  0  0
 23 20  2  0  0  0  0
 24 22  1  0  0  0  0
 25 26  1  0  0  0  0
 27 28  1  0  0  0  0
 28 29  1  0  0  0  0
 29 30  1  0  0  0  0
 31 30  1  0  0  0  0
 31 32  1  0  0  0  0
M  END
>  <MODEL>
1

>  <REMARK>
 VINA RESULT:      -6.9      0.000      0.000
  Name = 
  13 active torsions:
  status: ('A' for Active; 'I' for Inactive)
    1  A    between atoms: C_1  and  N_2
    2  A    between atoms: C_1  and  C_19
    3  A    between atoms: N_2  and  N_12
    4  A    between atoms: C_3  and  C_11
    5  A    between atoms: C_6  and  N_12
    6  A    between atoms: C_11  and  O_25
    7  A    between atoms: C_14  and  N_17
    8  A    between atoms: C_15  and  O_20
    9  A    between atoms: C_16  and  S_18
   10  A    between atoms: C_16  and  C_26
   11  A    between atoms: N_17  and  S_18
   12  A    between atoms: C_19  and  C_23
   13  A    between atoms: O_25  and  C_32
                            x       y       z     vdW  Elec       q    Type
                         _______ _______ _______ _____ _____    ______ ____

>  <TORSDO>
F 13

$$$$
=
 OpenBabel11042413103D

 32 34  0  0  1  0  0  0  0  0999 V2000
  185.2930  179.3700  142.3940 C   0  0  0  0  0  2  0  0  0  0  0  0
  185.0810  178.3200  143.4700 C   0  0  1  0  0  3  0  0  0  0  0  0
  186.4160  177.6420  143.8120 C   0  0  0  0  0  2  0  0  0  0  0  0
  184.3880  178.9540  144.6870 C   0  0  0  0  0  2  0  0  0  0  0  0
  185.3760  179.2730  145.8060 C   0  0  0  0  0  2  0  0  0  0  0  0
  186.0760  178.0000  146.3010 C   0  0  1  0  0  3  0  0  0  0  0  0
  186.3560  176.9790  145.1860 C   0  0  0  0  0  2  0  0  0  0  0  0
  187.3210  178.3520  146.9630 N   0  0  0  0  0  2  0  0  0  0  0  0
  188.4470  177.0120  146.7170 S   0  0  0  0  0  0  0  0  0  0  0  0
  189.6020  178.0500  145.7660 C   0  0  0  0  0  2  0  0  0  0  0  0
  191.6920  177.7650  144.3010 C   0  0  0  0  0  2  0  0  0  0  0  0
  191.5850  176.5050  145.1410 C   0  0  2  0  0  0  0  0  0  0  0  0
  190.3240  177.2320  144.7040 C   0  0  1  0  0  0  0  0  0  0  0  0
  192.0100  176.7010  146.4570 O   0  0  0  0  0  1  0  0  0  0  0  0
  192.0520  175.2490  144.4260 C   0  0  0  0  0  1  0  0  0  0  0  0
  189.5280  176.6260  143.5610 C   0  0  0  0  0  1  0  0  0  0  0  0
  185.2190  178.7700  141.1100 O   0  0  0  0  0  0  0  0  0  0  0  0
  181.6030  179.9320  138.7960 C   0  0  0  0  0  0  0  0  0  0  0  0
  183.9900  179.8700  139.4860 N   0  0  0  0  0  0  0  0  0  0  0  0
  181.0710  179.2750  140.0030 C   0  0  0  0  0  3  0  0  0  0  0  0
  182.9070  180.2010  138.6000 C   0  0  0  0  0  3  0  0  0  0  0  0
  183.0350  177.7850  140.3570 C   0  0  2  0  0  3  0  0  0  0  0  0
  181.6990  178.3450  140.7200 C   0  0  0  0  0  3  0  0  0  0  0  0
  184.0840  178.8610  140.3010 C   0  0  0  0  0  0  0  0  0  0  0  0
  182.9720  177.0900  139.1440 O   0  0  0  0  0  0  0  0  0  0  0  0
  182.2000  175.9580  139.4120 C   0  0  0  0  0  1  0  0  0  0  0  0
  180.6430  180.3990  137.8420 N   0  0  0  0  0  2  0  0  0  0  0  0
  180.9850  180.7390  136.5230 N   0  0  0  0  0  2  0  0  0  0  0  0
  180.3920  182.0380  136.2430 C   0  0  0  0  0  2  0  0  0  0  0  0
  180.8130  183.0510  137.2960 C   0  0  0  0  0  2  0  0  0  0  0  0
  181.2290  184.3670  136.6580 C   0  0  0  0  0  2  0  0  0  0  0  0
  180.7540  184.4390  135.2190 C   0  0  0  0  0  1  0  0  0  0  0  0
  2  1  1  6  0  0  0
  2  3  1  0  0  0  0
  2  4  1  0  0  0  0
  3  7  1  0  0  0  0
  4  5  1  0  0  0  0
  5  6  1  0  0  0  0
  6  8  1  6  0  0  0
  7  6  1  0  0  0  0
  9  8  1  0  0  0  0
 10  9  1  0  0  0  0
 11 13  1  0  0  0  0
 11 12  1  0  0  0  0
 12 15  1  6  0  0  0
 12 14  1  0  0  0  0
 13 16  1  6  0  0  0
 13 12  1  0  0  0  0
 13 10  1  0  0  0  0
 17  1  1  0  0  0  0
 18 20  1  0  0  0  0
 19 24  2  0  0  0  0
 20 23  2  0  0  0  0
 21 18  2  0  0  0  0
 21 19  1  0  0  0  0
 22 25  1  6  0  0  0
 22 23  1  0  0  0  0
 24 22  1  0  0  0  0
 24 17  1  0  0  0  0
 25 26  1  0  0  0  0
 27 18  1  0  0  0  0
 28 27  1  0  0  0  0
 29 28  1  0  0  0  0
 29 30  1  0  0  0  0
 31 30  1  0  0  0  0
 32 31  1  0  0  0  0
M  END
>  <MODEL>
2

>  <REMARK>
 VINA RESULT:      -6.8      3.335     11.013
  Name = 
  13 active torsions:
  status: ('A' for Active; 'I' for Inactive)
    1  A    between atoms: C_1  and  N_2
    2  A    between atoms: C_1  and  C_19
    3  A    between atoms: N_2  and  N_12
    4  A    between atoms: C_3  and  C_11
    5  A    between atoms: C_6  and  N_12
    6  A    between atoms: C_11  and  O_25
    7  A    between atoms: C_14  and  N_17
    8  A    between atoms: C_15  and  O_20
    9  A    between atoms: C_16  and  S_18
   10  A    between atoms: C_16  and  C_26
   11  A    between atoms: N_17  and  S_18
   12  A    between atoms: C_19  and  C_23
   13  A    between atoms: O_25  and  C_32
                            x       y       z     vdW  Elec       q    Type
                         _______ _______ _______ _____ _____    ______ ____

>  <TORSDO>
F 13

$$$$
=
 OpenBabel11042413103D

 32 34  0  0  1  0  0  0  0  0999 V2000
  190.8870  177.1900  138.6600 C   0  0  0  0  0  2  0  0  0  0  0  0
  190.1230  177.1570  137.3480 C   0  0  1  0  0  3  0  0  0  0  0  0
  189.3590  175.8310  137.2190 C   0  0  0  0  0  2  0  0  0  0  0  0
  189.2210  178.3960  137.2400 C   0  0  0  0  0  2  0  0  0  0  0  0
  187.7690  178.0780  137.5910 C   0  0  0  0  0  2  0  0  0  0  0  0
  187.1940  177.0180  136.6400 C   0  0  1  0  0  3  0  0  0  0  0  0
  188.2170  175.9550  136.2130 C   0  0  0  0  0  2  0  0  0  0  0  0
  186.0500  176.3720  137.2620 N   0  0  0  0  0  2  0  0  0  0  0  0
  184.6110  177.2920  136.8040 S   0  0  0  0  0  0  0  0  0  0  0  0
  184.0760  177.4710  138.5350 C   0  0  0  0  0  2  0  0  0  0  0  0
  182.5480  178.9050  140.0200 C   0  0  0  0  0  2  0  0  0  0  0  0
  183.0510  179.8200  138.9170 C   0  0  2  0  0  0  0  0  0  0  0  0
  182.8310  178.3430  138.6340 C   0  0  1  0  0  0  0  0  0  0  0  0
  184.3660  180.2380  139.1280 O   0  0  0  0  0  1  0  0  0  0  0  0
  182.0380  180.8610  138.4740 C   0  0  0  0  0  1  0  0  0  0  0  0
  181.5880  177.9590  137.8490 C   0  0  0  0  0  1  0  0  0  0  0  0
  190.1550  176.5040  139.6650 O   0  0  0  0  0  0  0  0  0  0  0  0
  190.6480  177.3210  144.0090 C   0  0  0  0  0  0  0  0  0  0  0  0
  191.2150  177.2270  141.5910 N   0  0  0  0  0  0  0  0  0  0  0  0
  189.4860  176.4180  143.9350 C   0  0  0  0  0  3  0  0  0  0  0  0
  191.4130  177.6500  142.9510 C   0  0  0  0  0  3  0  0  0  0  0  0
  188.7650  177.1330  141.6610 C   0  0  2  0  0  3  0  0  0  0  0  0
  188.6590  176.3030  142.8970 C   0  0  0  0  0  3  0  0  0  0  0  0
  190.0970  176.9480  140.9880 C   0  0  0  0  0  0  0  0  0  0  0  0
  188.5370  178.4830  141.9450 O   0  0  0  0  0  0  0  0  0  0  0  0
  187.2090  178.7140  141.5740 C   0  0  0  0  0  1  0  0  0  0  0  0
  191.0310  177.7720  145.3130 N   0  0  0  0  0  2  0  0  0  0  0  0
  191.7690  176.9780  146.2060 N   0  0  0  0  0  2  0  0  0  0  0  0
  190.8790  176.6090  147.2950 C   0  0  0  0  0  2  0  0  0  0  0  0
  189.7830  177.6500  147.4610 C   0  0  0  0  0  2  0  0  0  0  0  0
  188.4270  176.9920  147.6710 C   0  0  0  0  0  2  0  0  0  0  0  0
  187.3150  177.8760  147.1390 C   0  0  0  0  0  1  0  0  0  0  0  0
  1 17  1  0  0  0  0
  2  1  1  1  0  0  0
  3  2  1  0  0  0  0
  4  2  1  0  0  0  0
  4  5  1  0  0  0  0
  6  8  1  1  0  0  0
  6  5  1  0  0  0  0
  7  6  1  0  0  0  0
  7  3  1  0  0  0  0
  9  8  1  0  0  0  0
  9 10  1  0  0  0  0
 10 13  1  0  0  0  0
 12 15  1  6  0  0  0
 12 14  1  0  0  0  0
 12 11  1  0  0  0  0
 13 16  1  6  0  0  0
 13 12  1  0  0  0  0
 13 11  1  0  0  0  0
 17 24  1  0  0  0  0
 18 27  1  0  0  0  0
 19 21  1  0  0  0  0
 20 18  1  0  0  0  0
 21 18  2  0  0  0  0
 22 25  1  1  0  0  0
 22 23  1  0  0  0  0
 23 20  2  0  0  0  0
 24 19  2  0  0  0  0
 24 22  1  0  0  0  0
 26 25  1  0  0  0  0
 27 28  1  0  0  0  0
 28 29  1  0  0  0  0
 29 30  1  0  0  0  0
 30 31  1  0  0  0  0
 32 31  1  0  0  0  0
M  END
>  <MODEL>
3

>  <REMARK>
 VINA RESULT:      -6.8      3.095      4.583
  Name = 
  13 active torsions:
  status: ('A' for Active; 'I' for Inactive)
    1  A    between atoms: C_1  and  N_2
    2  A    between atoms: C_1  and  C_19
    3  A    between atoms: N_2  and  N_12
    4  A    between atoms: C_3  and  C_11
    5  A    between atoms: C_6  and  N_12
    6  A    between atoms: C_11  and  O_25
    7  A    between atoms: C_14  and  N_17
    8  A    between atoms: C_15  and  O_20
    9  A    between atoms: C_16  and  S_18
   10  A    between atoms: C_16  and  C_26
   11  A    between atoms: N_17  and  S_18
   12  A    between atoms: C_19  and  C_23
   13  A    between atoms: O_25  and  C_32
                            x       y       z     vdW  Elec       q    Type
                         _______ _______ _______ _____ _____    ______ ____

>  <TORSDO>
F 13

$$$$
=
 OpenBabel11042413103D

 32 34  0  0  1  0  0  0  0  0999 V2000
  190.7850  176.7240  139.3500 C   0  0  0  0  0  2  0  0  0  0  0  0
  190.1590  177.0420  138.0050 C   0  0  1  0  0  3  0  0  0  0  0  0
  189.4410  175.8000  137.4540 C   0  0  0  0  0  2  0  0  0  0  0  0
  189.2440  178.2700  138.1330 C   0  0  0  0  0  2  0  0  0  0  0  0
  187.7720  177.8780  138.2360 C   0  0  0  0  0  2  0  0  0  0  0  0
  187.3190  177.1090  136.9860 C   0  0  1  0  0  3  0  0  0  0  0  0
  188.4040  176.1900  136.4040 C   0  0  0  0  0  2  0  0  0  0  0  0
  186.1330  176.3280  137.2960 N   0  0  0  0  0  2  0  0  0  0  0  0
  184.7320  177.2640  136.7620 S   0  0  0  0  0  0  0  0  0  0  0  0
  184.0810  177.4070  138.4570 C   0  0  0  0  0  2  0  0  0  0  0  0
  182.4460  178.7730  139.8910 C   0  0  0  0  0  2  0  0  0  0  0  0
  183.1020  179.7570  138.9390 C   0  0  2  0  0  0  0  0  0  0  0  0
  182.8640  178.3220  138.4990 C   0  0  1  0  0  0  0  0  0  0  0  0
  184.3990  180.0960  139.3300 O   0  0  0  0  0  1  0  0  0  0  0  0
  182.1820  180.8770  138.4860 C   0  0  0  0  0  1  0  0  0  0  0  0
  181.7050  178.0640  137.5510 C   0  0  0  0  0  1  0  0  0  0  0  0
  190.4420  177.7270  140.2950 O   0  0  0  0  0  0  0  0  0  0  0  0
  188.2460  177.4870  144.1540 C   0  0  0  0  0  0  0  0  0  0  0  0
  188.6300  177.4160  141.7000 N   0  0  0  0  0  0  0  0  0  0  0  0
  189.5130  178.1590  144.4940 C   0  0  0  0  0  3  0  0  0  0  0  0
  187.8690  177.1860  142.8980 C   0  0  0  0  0  3  0  0  0  0  0  0
  190.8500  177.0860  142.6880 C   0  0  2  0  0  3  0  0  0  0  0  0
  190.6660  178.0130  143.8430 C   0  0  0  0  0  3  0  0  0  0  0  0
  189.9220  177.4270  141.5560 C   0  0  0  0  0  0  0  0  0  0  0  0
  190.6790  175.7550  143.0850 O   0  0  0  0  0  0  0  0  0  0  0  0
  191.7710  175.4780  143.9120 C   0  0  0  0  0  1  0  0  0  0  0  0
  187.3310  177.2560  145.2310 N   0  0  0  0  0  2  0  0  0  0  0  0
  187.0720  178.2110  146.2280 N   0  0  0  0  0  2  0  0  0  0  0  0
  185.6280  178.3520  146.3270 C   0  0  0  0  0  2  0  0  0  0  0  0
  185.0040  178.4190  144.9420 C   0  0  0  0  0  2  0  0  0  0  0  0
  183.5990  178.9980  144.9990 C   0  0  0  0  0  2  0  0  0  0  0  0
  182.9680  179.0090  143.6200 C   0  0  0  0  0  1  0  0  0  0  0  0
  1 17  1  0  0  0  0
  2  4  1  0  0  0  0
  2  1  1  1  0  0  0
  3  2  1  0  0  0  0
  4  5  1  0  0  0  0
  6  8  1  1  0  0  0
  6  5  1  0  0  0  0
  7  6  1  0  0  0  0
  7  3  1  0  0  0  0
  9  8  1  0  0  0  0
  9 10  1  0  0  0  0
 10 13  1  0  0  0  0
 12 15  1  6  0  0  0
 12 14  1  0  0  0  0
 12 11  1  0  0  0  0
 13 16  1  6  0  0  0
 13 12  1  0  0  0  0
 13 11  1  0  0  0  0
 17 24  1  0  0  0  0
 18 20  1  0  0  0  0
 18 27  1  0  0  0  0
 19 21  1  0  0  0  0
 21 18  2  0  0  0  0
 22 25  1  1  0  0  0
 22 23  1  0  0  0  0
 23 20  2  0  0  0  0
 24 19  2  0  0  0  0
 24 22  1  0  0  0  0
 25 26  1  0  0  0  0
 27 28  1  0  0  0  0
 28 29  1  0  0  0  0
 30 31  1  0  0  0  0
 30 29  1  0  0  0  0
 32 31  1  0  0  0  0
M  END
>  <MODEL>
4

>  <REMARK>
 VINA RESULT:      -6.7      3.250      5.404
  Name = 
  13 active torsions:
  status: ('A' for Active; 'I' for Inactive)
    1  A    between atoms: C_1  and  N_2
    2  A    between atoms: C_1  and  C_19
    3  A    between atoms: N_2  and  N_12
    4  A    between atoms: C_3  and  C_11
    5  A    between atoms: C_6  and  N_12
    6  A    between atoms: C_11  and  O_25
    7  A    between atoms: C_14  and  N_17
    8  A    between atoms: C_15  and  O_20
    9  A    between atoms: C_16  and  S_18
   10  A    between atoms: C_16  and  C_26
   11  A    between atoms: N_17  and  S_18
   12  A    between atoms: C_19  and  C_23
   13  A    between atoms: O_25  and  C_32
                            x       y       z     vdW  Elec       q    Type
                         _______ _______ _______ _____ _____    ______ ____

>  <TORSDO>
F 13

$$$$
=
 OpenBabel11042413103D

 32 34  0  0  1  0  0  0  0  0999 V2000
  191.4310  177.6900  141.2140 C   0  0  0  0  0  2  0  0  0  0  0  0
  191.4210  177.0200  142.5760 C   0  0  1  0  0  3  0  0  0  0  0  0
  191.4230  178.0840  143.6850 C   0  0  0  0  0  2  0  0  0  0  0  0
  190.2380  176.0440  142.6680 C   0  0  0  0  0  2  0  0  0  0  0  0
  189.0620  176.6410  143.4370 C   0  0  0  0  0  2  0  0  0  0  0  0
  189.4690  176.9920  144.8770 C   0  0  1  0  0  3  0  0  0  0  0  0
  190.9120  177.5020  145.0010 C   0  0  0  0  0  2  0  0  0  0  0  0
  188.5530  177.9830  145.4160 N   0  0  0  0  0  2  0  0  0  0  0  0
  187.0160  177.1670  145.7280 S   0  0  0  0  0  0  0  0  0  0  0  0
  186.2120  177.9610  144.3010 C   0  0  0  0  0  2  0  0  0  0  0  0
  184.5820  179.9190  143.9730 C   0  0  0  0  0  2  0  0  0  0  0  0
  183.7950  178.6550  143.6760 C   0  0  2  0  0  0  0  0  0  0  0  0
  184.9060  178.6290  144.7120 C   0  0  1  0  0  0  0  0  0  0  0  0
  184.0860  178.1270  142.4170 O   0  0  0  0  0  1  0  0  0  0  0  0
  182.3370  178.7290  144.0940 C   0  0  0  0  0  1  0  0  0  0  0  0
  184.4980  178.6280  146.1760 C   0  0  0  0  0  1  0  0  0  0  0  0
  191.1390  176.7380  140.2020 O   0  0  0  0  0  0  0  0  0  0  0  0
  188.5010  177.0730  136.6380 C   0  0  0  0  0  0  0  0  0  0  0  0
  189.9450  176.0100  138.3580 N   0  0  0  0  0  0  0  0  0  0  0  0
  188.8980  178.4620  136.9310 C   0  0  0  0  0  3  0  0  0  0  0  0
  188.9980  175.9980  137.2770 C   0  0  0  0  0  3  0  0  0  0  0  0
  189.2060  178.1150  139.3780 C   0  0  2  0  0  3  0  0  0  0  0  0
  189.2380  178.9330  138.1310 C   0  0  0  0  0  3  0  0  0  0  0  0
  190.1110  176.9190  139.2740 C   0  0  0  0  0  0  0  0  0  0  0  0
  187.8990  177.7220  139.6850 O   0  0  0  0  0  0  0  0  0  0  0  0
  187.4840  178.5930  140.6950 C   0  0  0  0  0  1  0  0  0  0  0  0
  187.6170  176.8790  135.5280 N   0  0  0  0  0  2  0  0  0  0  0  0
  186.3660  177.5090  135.4320 N   0  0  0  0  0  2  0  0  0  0  0  0
  185.3520  176.5060  135.7190 C   0  0  0  0  0  2  0  0  0  0  0  0
  185.0230  176.4940  137.2030 C   0  0  0  0  0  2  0  0  0  0  0  0
  184.6460  177.8830  137.6940 C   0  0  0  0  0  2  0  0  0  0  0  0
  183.8690  177.7990  138.9940 C   0  0  0  0  0  1  0  0  0  0  0  0
  2  1  1  6  0  0  0
  2  4  1  0  0  0  0
  2  3  1  0  0  0  0
  3  7  1  0  0  0  0
  4  5  1  0  0  0  0
  5  6  1  0  0  0  0
  6  7  1  0  0  0  0
  6  8  1  6  0  0  0
  8  9  1  0  0  0  0
 10 13  1  0  0  0  0
 10  9  1  0  0  0  0
 11 13  1  0  0  0  0
 12 11  1  0  0  0  0
 12 15  1  1  0  0  0
 12 13  1  0  0  0  0
 13 16  1  1  0  0  0
 14 12  1  0  0  0  0
 17  1  1  0  0  0  0
 18 20  1  0  0  0  0
 18 21  2  0  0  0  0
 19 24  2  0  0  0  0
 20 23  2  0  0  0  0
 21 19  1  0  0  0  0
 22 25  1  6  0  0  0
 23 22  1  0  0  0  0
 24 22  1  0  0  0  0
 24 17  1  0  0  0  0
 25 26  1  0  0  0  0
 27 18  1  0  0  0  0
 28 27  1  0  0  0  0
 28 29  1  0  0  0  0
 29 30  1  0  0  0  0
 30 31  1  0  0  0  0
 31 32  1  0  0  0  0
M  END
>  <MODEL>
5

>  <REMARK>
 VINA RESULT:      -6.7      4.539      8.593
  Name = 
  13 active torsions:
  status: ('A' for Active; 'I' for Inactive)
    1  A    between atoms: C_1  and  N_2
    2  A    between atoms: C_1  and  C_19
    3  A    between atoms: N_2  and  N_12
    4  A    between atoms: C_3  and  C_11
    5  A    between atoms: C_6  and  N_12
    6  A    between atoms: C_11  and  O_25
    7  A    between atoms: C_14  and  N_17
    8  A    between atoms: C_15  and  O_20
    9  A    between atoms: C_16  and  S_18
   10  A    between atoms: C_16  and  C_26
   11  A    between atoms: N_17  and  S_18
   12  A    between atoms: C_19  and  C_23
   13  A    between atoms: O_25  and  C_32
                            x       y       z     vdW  Elec       q    Type
                         _______ _______ _______ _____ _____    ______ ____

>  <TORSDO>
F 13

$$$$
=
 OpenBabel11042413103D

 32 34  0  0  1  0  0  0  0  0999 V2000
  190.4470  176.4420  139.0610 C   0  0  0  0  0  2  0  0  0  0  0  0
  190.3120  177.3250  137.8340 C   0  0  1  0  0  3  0  0  0  0  0  0
  189.8900  176.4790  136.6230 C   0  0  0  0  0  2  0  0  0  0  0  0
  189.3530  178.4870  138.1320 C   0  0  0  0  0  2  0  0  0  0  0  0
  187.9570  178.2360  137.5670 C   0  0  0  0  0  2  0  0  0  0  0  0
  188.0030  178.0710  136.0410 C   0  0  1  0  0  3  0  0  0  0  0  0
  189.2640  177.3530  135.5380 C   0  0  0  0  0  2  0  0  0  0  0  0
  186.8210  177.3540  135.5910 N   0  0  0  0  0  2  0  0  0  0  0  0
  186.1650  176.4900  136.9870 S   0  0  0  0  0  0  0  0  0  0  0  0
  184.4830  177.1180  136.6870 C   0  0  0  0  0  2  0  0  0  0  0  0
  182.3780  177.8920  137.9380 C   0  0  0  0  0  2  0  0  0  0  0  0
  183.0060  176.8070  138.7930 C   0  0  2  0  0  0  0  0  0  0  0  0
  183.8900  177.7170  137.9560 C   0  0  1  0  0  0  0  0  0  0  0  0
  182.7610  175.5250  138.2960 O   0  0  0  0  0  1  0  0  0  0  0  0
  182.8450  177.0310  140.2860 C   0  0  0  0  0  1  0  0  0  0  0  0
  184.6390  178.8230  138.6790 C   0  0  0  0  0  1  0  0  0  0  0  0
  191.2340  177.0960  140.0460 O   0  0  0  0  0  0  0  0  0  0  0  0
  190.4900  177.2680  144.4270 C   0  0  0  0  0  0  0  0  0  0  0  0
  191.6550  177.6200  142.2600 N   0  0  0  0  0  0  0  0  0  0  0  0
  189.5330  176.2630  143.9320 C   0  0  0  0  0  3  0  0  0  0  0  0
  191.4380  177.8420  143.6640 C   0  0  0  0  0  3  0  0  0  0  0  0
  189.3090  177.2410  141.6520 C   0  0  2  0  0  3  0  0  0  0  0  0
  189.0210  176.2200  142.7020 C   0  0  0  0  0  3  0  0  0  0  0  0
  190.7800  177.3160  141.3480 C   0  0  0  0  0  0  0  0  0  0  0  0
  188.8170  178.4960  142.0270 O   0  0  0  0  0  0  0  0  0  0  0  0
  187.5730  178.6020  141.3990 C   0  0  0  0  0  1  0  0  0  0  0  0
  190.4600  177.5470  145.8310 N   0  0  0  0  0  2  0  0  0  0  0  0
  189.5950  176.8890  146.7190 N   0  0  0  0  0  2  0  0  0  0  0  0
  188.6640  177.8820  147.2320 C   0  0  0  0  0  2  0  0  0  0  0  0
  187.2370  177.5140  146.8600 C   0  0  0  0  0  2  0  0  0  0  0  0
  186.8350  178.1420  145.5330 C   0  0  0  0  0  2  0  0  0  0  0  0
  185.4450  178.7420  145.6240 C   0  0  0  0  0  1  0  0  0  0  0  0
  1 17  1  0  0  0  0
  2  4  1  0  0  0  0
  2  1  1  1  0  0  0
  3  2  1  0  0  0  0
  5  4  1  0  0  0  0
  6  8  1  1  0  0  0
  6  5  1  0  0  0  0
  7  6  1  0  0  0  0
  7  3  1  0  0  0  0
  8  9  1  0  0  0  0
 10  9  1  0  0  0  0
 10 13  1  0  0  0  0
 11 13  1  0  0  0  0
 11 12  1  0  0  0  0
 12 15  1  1  0  0  0
 13 16  1  1  0  0  0
 13 12  1  0  0  0  0
 14 12  1  0  0  0  0
 17 24  1  0  0  0  0
 18 27  1  0  0  0  0
 19 21  1  0  0  0  0
 20 18  1  0  0  0  0
 21 18  2  0  0  0  0
 22 25  1  1  0  0  0
 22 23  1  0  0  0  0
 23 20  2  0  0  0  0
 24 22  1  0  0  0  0
 24 19  2  0  0  0  0
 26 25  1  0  0  0  0
 27 28  1  0  0  0  0
 28 29  1  0  0  0  0
 30 29  1  0  0  0  0
 31 32  1  0  0  0  0
 31 30  1  0  0  0  0
M  END
>  <MODEL>
6

>  <REMARK>
 VINA RESULT:      -6.7      3.935      5.601
  Name = 
  13 active torsions:
  status: ('A' for Active; 'I' for Inactive)
    1  A    between atoms: C_1  and  N_2
    2  A    between atoms: C_1  and  C_19
    3  A    between atoms: N_2  and  N_12
    4  A    between atoms: C_3  and  C_11
    5  A    between atoms: C_6  and  N_12
    6  A    between atoms: C_11  and  O_25
    7  A    between atoms: C_14  and  N_17
    8  A    between atoms: C_15  and  O_20
    9  A    between atoms: C_16  and  S_18
   10  A    between atoms: C_16  and  C_26
   11  A    between atoms: N_17  and  S_18
   12  A    between atoms: C_19  and  C_23
   13  A    between atoms: O_25  and  C_32
                            x       y       z     vdW  Elec       q    Type
                         _______ _______ _______ _____ _____    ______ ____

>  <TORSDO>
F 13

$$$$
=
 OpenBabel11042413103D

 32 34  0  0  1  0  0  0  0  0999 V2000
  184.5430  179.5980  144.0290 C   0  0  0  0  0  2  0  0  0  0  0  0
  184.8930  178.3730  144.8550 C   0  0  1  0  0  3  0  0  0  0  0  0
  186.3630  177.9890  144.6270 C   0  0  0  0  0  2  0  0  0  0  0  0
  184.5490  178.6250  146.3310 C   0  0  0  0  0  2  0  0  0  0  0  0
  185.7840  178.9930  147.1510 C   0  0  0  0  0  2  0  0  0  0  0  0
  186.8220  177.8620  147.1180 C   0  0  1  0  0  3  0  0  0  0  0  0
  186.8850  177.1240  145.7710 C   0  0  0  0  0  2  0  0  0  0  0  0
  188.1350  178.3940  147.4450 N   0  0  0  0  0  2  0  0  0  0  0  0
  189.3110  177.1040  147.1660 S   0  0  0  0  0  0  0  0  0  0  0  0
  190.1530  178.0460  145.8550 C   0  0  0  0  0  2  0  0  0  0  0  0
  189.8160  176.7380  143.6710 C   0  0  0  0  0  2  0  0  0  0  0  0
  190.9720  177.6900  143.4220 C   0  0  2  0  0  0  0  0  0  0  0  0
  190.7520  177.1130  144.8100 C   0  0  1  0  0  0  0  0  0  0  0  0
  190.5460  179.0030  143.2040 O   0  0  0  0  0  1  0  0  0  0  0  0
  192.0420  177.1300  142.5020 C   0  0  0  0  0  1  0  0  0  0  0  0
  191.6750  175.9910  145.2560 C   0  0  0  0  0  1  0  0  0  0  0  0
  183.5680  179.2620  143.0530 O   0  0  0  0  0  0  0  0  0  0  0  0
  185.1450  178.7890  138.9220 C   0  0  0  0  0  0  0  0  0  0  0  0
  185.1560  178.9310  141.4030 N   0  0  0  0  0  0  0  0  0  0  0  0
  183.7930  179.3430  138.7370 C   0  0  0  0  0  3  0  0  0  0  0  0
  185.7360  178.6340  140.1220 C   0  0  0  0  0  3  0  0  0  0  0  0
  182.8410  178.3680  140.8210 C   0  0  2  0  0  3  0  0  0  0  0  0
  182.7700  179.1890  139.5770 C   0  0  0  0  0  3  0  0  0  0  0  0
  183.9050  178.8750  141.7540 C   0  0  0  0  0  0  0  0  0  0  0  0
  183.0510  177.0180  140.5180 O   0  0  0  0  0  0  0  0  0  0  0  0
  181.8960  176.6130  139.8440 C   0  0  0  0  0  1  0  0  0  0  0  0
  185.8950  178.5120  137.7340 N   0  0  0  0  0  2  0  0  0  0  0  0
  187.2640  178.8010  137.6140 N   0  0  0  0  0  2  0  0  0  0  0  0
  187.9670  177.5310  137.5070 C   0  0  0  0  0  2  0  0  0  0  0  0
  189.4680  177.7600  137.4380 C   0  0  0  0  0  2  0  0  0  0  0  0
  190.1750  177.1320  138.6290 C   0  0  0  0  0  2  0  0  0  0  0  0
  189.4010  177.3910  139.9080 C   0  0  0  0  0  1  0  0  0  0  0  0
  2  1  1  6  0  0  0
  2  4  1  0  0  0  0
  3  2  1  0  0  0  0
  3  7  1  0  0  0  0
  4  5  1  0  0  0  0
  6  5  1  0  0  0  0
  6  8  1  6  0  0  0
  7  6  1  0  0  0  0
  9  8  1  0  0  0  0
 10  9  1  0  0  0  0
 11 13  1  0  0  0  0
 12 15  1  6  0  0  0
 12 11  1  0  0  0  0
 12 13  1  0  0  0  0
 13 16  1  1  0  0  0
 13 10  1  0  0  0  0
 14 12  1  0  0  0  0
 17  1  1  0  0  0  0
 18 21  2  0  0  0  0
 19 24  2  0  0  0  0
 20 18  1  0  0  0  0
 20 23  2  0  0  0  0
 21 19  1  0  0  0  0
 22 25  1  6  0  0  0
 22 24  1  0  0  0  0
 23 22  1  0  0  0  0
 24 17  1  0  0  0  0
 26 25  1  0  0  0  0
 27 18  1  0  0  0  0
 28 27  1  0  0  0  0
 29 28  1  0  0  0  0
 30 29  1  0  0  0  0
 30 31  1  0  0  0  0
 31 32  1  0  0  0  0
M  END
>  <MODEL>
7

>  <REMARK>
 VINA RESULT:      -6.7      4.241      9.347
  Name = 
  13 active torsions:
  status: ('A' for Active; 'I' for Inactive)
    1  A    between atoms: C_1  and  N_2
    2  A    between atoms: C_1  and  C_19
    3  A    between atoms: N_2  and  N_12
    4  A    between atoms: C_3  and  C_11
    5  A    between atoms: C_6  and  N_12
    6  A    between atoms: C_11  and  O_25
    7  A    between atoms: C_14  and  N_17
    8  A    between atoms: C_15  and  O_20
    9  A    between atoms: C_16  and  S_18
   10  A    between atoms: C_16  and  C_26
   11  A    between atoms: N_17  and  S_18
   12  A    between atoms: C_19  and  C_23
   13  A    between atoms: O_25  and  C_32
                            x       y       z     vdW  Elec       q    Type
                         _______ _______ _______ _____ _____    ______ ____

>  <TORSDO>
F 13

$$$$
=
 OpenBabel11042413103D

 32 34  0  0  1  0  0  0  0  0999 V2000
  187.8200  178.0660  139.5250 C   0  0  0  0  0  2  0  0  0  0  0  0
  187.7700  178.1530  138.0110 C   0  0  1  0  0  3  0  0  0  0  0  0
  189.1950  178.2510  137.4440 C   0  0  0  0  0  2  0  0  0  0  0  0
  186.9690  176.9690  137.4470 C   0  0  0  0  0  2  0  0  0  0  0  0
  187.8790  175.8620  136.9190 C   0  0  0  0  0  2  0  0  0  0  0  0
  188.7730  176.3810  135.7830 C   0  0  1  0  0  3  0  0  0  0  0  0
  189.2280  177.8360  135.9750 C   0  0  0  0  0  2  0  0  0  0  0  0
  189.9360  175.5200  135.6440 N   0  0  0  0  0  2  0  0  0  0  0  0
  189.9480  174.4220  137.0290 S   0  0  0  0  0  0  0  0  0  0  0  0
  191.3780  175.2610  137.7830 C   0  0  0  0  0  2  0  0  0  0  0  0
  193.4910  175.8140  136.4310 C   0  0  0  0  0  2  0  0  0  0  0  0
  193.9690  175.3070  137.7800 C   0  0  2  0  0  0  0  0  0  0  0  0
  192.6840  174.7610  137.1790 C   0  0  1  0  0  0  0  0  0  0  0  0
  193.8430  176.2660  138.7870 O   0  0  0  0  0  1  0  0  0  0  0  0
  195.2620  174.5130  137.7140 C   0  0  0  0  0  1  0  0  0  0  0  0
  192.7350  173.3760  136.5570 C   0  0  0  0  0  1  0  0  0  0  0  0
  189.1120  177.6530  139.9460 O   0  0  0  0  0  0  0  0  0  0  0  0
  191.0580  177.0880  143.9040 C   0  0  0  0  0  0  0  0  0  0  0  0
  190.6360  178.0330  141.6450 N   0  0  0  0  0  0  0  0  0  0  0  0
  190.2130  175.8920  143.7370 C   0  0  0  0  0  3  0  0  0  0  0  0
  191.2440  178.0160  142.9480 C   0  0  0  0  0  3  0  0  0  0  0  0
  188.5100  176.9970  142.2940 C   0  0  2  0  0  3  0  0  0  0  0  0
  189.0990  175.8260  143.0090 C   0  0  0  0  0  3  0  0  0  0  0  0
  189.4730  177.5690  141.2920 C   0  0  0  0  0  0  0  0  0  0  0  0
  188.0950  177.9790  143.2010 O   0  0  0  0  0  0  0  0  0  0  0  0
  186.7020  177.8770  143.2370 C   0  0  0  0  0  1  0  0  0  0  0  0
  191.8020  177.1840  145.1240 N   0  0  0  0  0  2  0  0  0  0  0  0
  191.7860  176.1810  146.1060 N   0  0  0  0  0  2  0  0  0  0  0  0
  191.2070  176.7620  147.3080 C   0  0  0  0  0  2  0  0  0  0  0  0
  189.7020  176.5480  147.3290 C   0  0  0  0  0  2  0  0  0  0  0  0
  188.9580  177.8740  147.2900 C   0  0  0  0  0  2  0  0  0  0  0  0
  188.2660  178.1390  148.6130 C   0  0  0  0  0  1  0  0  0  0  0  0
  1 17  1  0  0  0  0
  2  1  1  1  0  0  0
  3  2  1  0  0  0  0
  4  2  1  0  0  0  0
  5  4  1  0  0  0  0
  6  8  1  1  0  0  0
  6  7  1  0  0  0  0
  6  5  1  0  0  0  0
  7  3  1  0  0  0  0
  8  9  1  0  0  0  0
  9 10  1  0  0  0  0
 11 13  1  0  0  0  0
 11 12  1  0  0  0  0
 12 15  1  1  0  0  0
 12 14  1  0  0  0  0
 13 16  1  6  0  0  0
 13 12  1  0  0  0  0
 13 10  1  0  0  0  0
 17 24  1  0  0  0  0
 18 27  1  0  0  0  0
 19 21  1  0  0  0  0
 20 18  1  0  0  0  0
 21 18  2  0  0  0  0
 22 23  1  0  0  0  0
 22 25  1  1  0  0  0
 23 20  2  0  0  0  0
 24 19  2  0  0  0  0
 24 22  1  0  0  0  0
 25 26  1  0  0  0  0
 27 28  1  0  0  0  0
 28 29  1  0  0  0  0
 29 30  1  0  0  0  0
 31 30  1  0  0  0  0
 31 32  1  0  0  0  0
M  END
>  <MODEL>
8

>  <REMARK>
 VINA RESULT:      -6.6      5.530      8.302
  Name = 
  13 active torsions:
  status: ('A' for Active; 'I' for Inactive)
    1  A    between atoms: C_1  and  N_2
    2  A    between atoms: C_1  and  C_19
    3  A    between atoms: N_2  and  N_12
    4  A    between atoms: C_3  and  C_11
    5  A    between atoms: C_6  and  N_12
    6  A    between atoms: C_11  and  O_25
    7  A    between atoms: C_14  and  N_17
    8  A    between atoms: C_15  and  O_20
    9  A    between atoms: C_16  and  S_18
   10  A    between atoms: C_16  and  C_26
   11  A    between atoms: N_17  and  S_18
   12  A    between atoms: C_19  and  C_23
   13  A    between atoms: O_25  and  C_32
                            x       y       z     vdW  Elec       q    Type
                         _______ _______ _______ _____ _____    ______ ____

>  <TORSDO>
F 13

$$$$
=
 OpenBabel11042413103D

 32 34  0  0  1  0  0  0  0  0999 V2000
  190.1760  176.5300  139.3800 C   0  0  0  0  0  2  0  0  0  0  0  0
  190.1230  177.4640  138.1850 C   0  0  1  0  0  3  0  0  0  0  0  0
  189.9060  176.6560  136.8960 C   0  0  0  0  0  2  0  0  0  0  0  0
  189.0550  178.5440  138.4150 C   0  0  0  0  0  2  0  0  0  0  0  0
  187.7560  178.2310  137.6780 C   0  0  0  0  0  2  0  0  0  0  0  0
  187.9910  178.1480  136.1620 C   0  0  1  0  0  3  0  0  0  0  0  0
  189.3510  177.5410  135.7830 C   0  0  0  0  0  2  0  0  0  0  0  0
  186.9240  177.3790  135.5430 N   0  0  0  0  0  2  0  0  0  0  0  0
  186.0670  176.5310  136.8360 S   0  0  0  0  0  0  0  0  0  0  0  0
  185.5500  175.1870  135.7200 C   0  0  0  0  0  2  0  0  0  0  0  0
  186.0940  172.7130  135.2980 C   0  0  0  0  0  2  0  0  0  0  0  0
  187.2790  173.2860  136.0540 C   0  0  2  0  0  0  0  0  0  0  0  0
  185.8820  173.8250  136.3160 C   0  0  1  0  0  0  0  0  0  0  0  0
  188.1140  174.0520  135.2380 O   0  0  0  0  0  1  0  0  0  0  0  0
  187.9300  172.3040  137.0110 C   0  0  0  0  0  1  0  0  0  0  0  0
  185.1880  173.3810  137.5930 C   0  0  0  0  0  1  0  0  0  0  0  0
  190.8640  177.1540  140.4540 O   0  0  0  0  0  0  0  0  0  0  0  0
  189.5170  177.7730  144.6470 C   0  0  0  0  0  0  0  0  0  0  0  0
  190.9720  177.9140  142.6370 N   0  0  0  0  0  0  0  0  0  0  0  0
  188.6380  176.7080  144.1330 C   0  0  0  0  0  3  0  0  0  0  0  0
  190.5620  178.2780  143.9660 C   0  0  0  0  0  3  0  0  0  0  0  0
  188.7340  177.4390  141.7540 C   0  0  2  0  0  3  0  0  0  0  0  0
  188.3020  176.5290  142.8550 C   0  0  0  0  0  3  0  0  0  0  0  0
  190.2320  177.5030  141.6500 C   0  0  0  0  0  0  0  0  0  0  0  0
  188.1940  178.7190  141.9220 O   0  0  0  0  0  0  0  0  0  0  0  0
  186.8860  178.6290  141.4410 C   0  0  0  0  0  1  0  0  0  0  0  0
  189.2920  178.1970  145.9960 N   0  0  0  0  0  2  0  0  0  0  0  0
  188.6170  177.4060  146.9390 N   0  0  0  0  0  2  0  0  0  0  0  0
  187.4740  178.1730  147.4090 C   0  0  0  0  0  2  0  0  0  0  0  0
  186.2290  177.8090  146.6170 C   0  0  0  0  0  2  0  0  0  0  0  0
  185.7060  179.0040  145.8350 C   0  0  0  0  0  2  0  0  0  0  0  0
  184.4070  178.6570  145.1320 C   0  0  0  0  0  1  0  0  0  0  0  0
  1 17  1  0  0  0  0
  2  4  1  0  0  0  0
  2  1  1  1  0  0  0
  3  2  1  0  0  0  0
  5  4  1  0  0  0  0
  6  8  1  6  0  0  0
  6  5  1  0  0  0  0
  7  6  1  0  0  0  0
  7  3  1  0  0  0  0
  8  9  1  0  0  0  0
 10 13  1  0  0  0  0
 10  9  1  0  0  0  0
 11 12  1  0  0  0  0
 11 13  1  0  0  0  0
 12 13  1  0  0  0  0
 12 15  1  1  0  0  0
 13 16  1  1  0  0  0
 14 12  1  0  0  0  0
 17 24  1  0  0  0  0
 18 27  1  0  0  0  0
 19 21  1  0  0  0  0
 20 18  1  0  0  0  0
 21 18  2  0  0  0  0
 22 25  1  1  0  0  0
 22 23  1  0  0  0  0
 23 20  2  0  0  0  0
 24 22  1  0  0  0  0
 24 19  2  0  0  0  0
 26 25  1  0  0  0  0
 27 28  1  0  0  0  0
 28 29  1  0  0  0  0
 30 29  1  0  0  0  0
 31 30  1  0  0  0  0
 32 31  1  0  0  0  0
M  END
>  <MODEL>
9

>  <REMARK>
 VINA RESULT:      -6.6      5.153      7.093
  Name = 
  13 active torsions:
  status: ('A' for Active; 'I' for Inactive)
    1  A    between atoms: C_1  and  N_2
    2  A    between atoms: C_1  and  C_19
    3  A    between atoms: N_2  and  N_12
    4  A    between atoms: C_3  and  C_11
    5  A    between atoms: C_6  and  N_12
    6  A    between atoms: C_11  and  O_25
    7  A    between atoms: C_14  and  N_17
    8  A    between atoms: C_15  and  O_20
    9  A    between atoms: C_16  and  S_18
   10  A    between atoms: C_16  and  C_26
   11  A    between atoms: N_17  and  S_18
   12  A    between atoms: C_19  and  C_23
   13  A    between atoms: O_25  and  C_32
                            x       y       z     vdW  Elec       q    Type
                         _______ _______ _______ _____ _____    ______ ____

>  <TORSDO>
F 13

$$$$
