=
 OpenBabel11042412353D

 41 46  0  0  1  0  0  0  0  0999 V2000
  188.7940  177.4220  138.2820 C   0  0  1  0  0  0  0  0  0  0  0  0
  190.0810  176.7910  138.7620 C   0  0  0  0  0  2  0  0  0  0  0  0
  188.7450  177.4090  140.6820 N   0  0  0  0  0  0  0  0  0  0  0  0
  190.0390  176.8520  140.2890 C   0  0  0  0  0  2  0  0  0  0  0  0
  188.2310  178.1100  139.5150 C   0  0  0  0  0  2  0  0  0  0  0  0
  188.9200  179.7370  137.5930 O   0  0  0  0  0  1  0  0  0  0  0  0
  189.0810  178.4190  137.1580 C   0  0  0  0  0  2  0  0  0  0  0  0
  189.0100  178.4190  141.6960 C   0  0  0  0  0  2  0  0  0  0  0  0
  189.3460  177.7560  143.0330 C   0  0  0  0  0  2  0  0  0  0  0  0
  188.2060  176.9820  143.5140 N   0  0  0  0  0  2  0  0  0  0  0  0
  187.6890  177.6370  144.7160 C   0  0  1  0  0  3  0  0  0  0  0  0
  185.1790  179.2590  143.8090 C   0  0  1  0  0  3  0  0  0  0  0  0
  183.4010  178.9120  145.2630 C   0  0  0  0  0  3  0  0  0  0  0  0
  186.2230  177.5950  144.7410 N   0  0  0  0  0  0  0  0  0  0  0  0
  185.7280  177.9060  143.3970 C   0  0  0  0  0  2  0  0  0  0  0  0
  184.5720  178.7390  146.0440 N   0  0  0  0  0  2  0  0  0  0  0  0
  183.6950  179.2000  144.0060 C   0  0  0  0  0  3  0  0  0  0  0  0
  185.7370  178.9040  145.1830 C   0  0  2  0  0  3  0  0  0  0  0  0
  188.2490  177.0130  145.9250 N   0  0  0  0  0  2  0  0  0  0  0  0
  189.2890  177.8670  146.4960 C   0  0  0  0  0  2  0  0  0  0  0  0
  189.3140  177.7090  148.0070 C   0  0  0  0  0  2  0  0  0  0  0  0
  187.9320  177.9530  148.5860 C   0  0  0  0  0  1  0  0  0  0  0  0
  187.9040  176.3540  137.8130 N   0  0  0  0  0  2  0  0  0  0  0  0
  187.1380  176.7780  136.6440 C   0  0  0  0  0  2  0  0  0  0  0  0
  185.7870  174.7870  135.7990 C   0  0  1  0  0  0  0  0  0  0  0  0
  184.8790  173.5890  135.5020 C   0  0  2  0  0  3  0  0  0  0  0  0
  185.8650  174.7890  137.2970 N   0  0  0  0  0  2  0  0  0  0  0  0
  185.8050  176.0510  136.6100 C   0  0  1  0  0  0  0  0  0  0  0  0
  184.4850  174.8750  135.2110 O   0  0  0  0  0  0  0  0  0  0  0  0
  183.9570  172.9940  136.5900 C   0  0  0  0  0  0  0  0  0  0  0  0
  183.3750  171.8270  136.1180 F   0  0  0  0  0  0  0  0  0  0  0  0
  184.6290  172.7220  137.7770 F   0  0  0  0  0  0  0  0  0  0  0  0
  182.9540  173.9070  136.8490 F   0  0  0  0  0  0  0  0  0  0  0  0
  184.5250  176.8310  136.9680 C   0  0  0  0  0  2  0  0  0  0  0  0
  182.0170  177.9250  138.6710 C   0  0  0  0  0  0  0  0  0  0  0  0
  184.3340  178.4720  138.8910 C   0  0  1  0  0  3  0  0  0  0  0  0
  182.7220  176.3140  138.9790 S   0  0  0  0  0  0  0  0  0  0  0  0
  184.3360  176.9950  138.4790 C   0  0  1  0  0  3  0  0  0  0  0  0
  185.3310  179.2010  138.2350 O   0  0  0  0  0  1  0  0  0  0  0  0
  180.8270  178.0750  138.4470 O   0  0  0  0  0  0  0  0  0  0  0  0
  182.9640  179.0640  138.6150 C   0  0  0  0  0  2  0  0  0  0  0  0
  1  7  1  6  0  0  0
  1  2  1  0  0  0  0
  1  5  1  0  0  0  0
  2  4  1  0  0  0  0
  3  8  1  0  0  0  0
  4  3  1  0  0  0  0
  5  3  1  0  0  0  0
  7  6  1  0  0  0  0
  8  9  1  0  0  0  0
  9 10  1  0  0  0  0
 11 10  1  6  0  0  0
 11 14  1  0  0  0  0
 11 19  1  0  0  0  0
 12 15  1  6  0  0  0
 12 17  1  0  0  0  0
 12 18  1  0  0  0  0
 13 16  1  0  0  0  0
 14 18  1  0  0  0  0
 15 14  1  0  0  0  0
 17 13  2  0  0  0  0
 18 16  1  1  0  0  0
 19 20  1  0  0  0  0
 20 21  1  0  0  0  0
 21 22  1  0  0  0  0
 23  1  1  0  0  0  0
 24 23  1  0  0  0  0
 25 29  1  1  0  0  0
 25 28  1  0  0  0  0
 25 27  1  0  0  0  0
 26 25  1  0  0  0  0
 26 30  1  1  0  0  0
 28 24  1  6  0  0  0
 28 34  1  0  0  0  0
 28 27  1  0  0  0  0
 29 26  1  0  0  0  0
 30 33  1  0  0  0  0
 30 32  1  0  0  0  0
 31 30  1  0  0  0  0
 35 37  1  0  0  0  0
 36 39  1  6  0  0  0
 38 34  1  6  0  0  0
 38 36  1  0  0  0  0
 38 37  1  0  0  0  0
 40 35  2  0  0  0  0
 41 35  1  0  0  0  0
 41 36  1  0  0  0  0
M  END
>  <MODEL>
1

>  <REMARK>
 VINA RESULT:      -7.0      0.000      0.000
  Name = 
  15 active torsions:
  status: ('A' for Active; 'I' for Inactive)
    1  A    between atoms: C_2  and  N_26
    2  A    between atoms: C_2  and  C_30
    3  A    between atoms: C_5  and  C_32
    4  A    between atoms: C_6  and  C_7
    5  A    between atoms: N_11  and  C_31
    6  A    between atoms: C_12  and  C_19
    7  A    between atoms: C_12  and  N_21
    8  A    between atoms: C_15  and  N_21
    9  A    between atoms: C_15  and  C_39
   10  A    between atoms: C_19  and  C_41
   11  A    between atoms: C_23  and  C_41
   12  A    between atoms: C_30  and  N_34
   13  A    between atoms: C_31  and  N_34
   14  A    between atoms: C_31  and  N_40
   15  A    between atoms: C_32  and  N_40
                            x       y       z     vdW  Elec       q    Type
                         _______ _______ _______ _____ _____    ______ ____

>  <TORSDO>
F 15

$$$$
=
 OpenBabel11042412353D

 41 46  0  0  1  0  0  0  0  0999 V2000
  188.7900  177.3010  137.6570 C   0  0  1  0  0  0  0  0  0  0  0  0
  190.1000  176.6380  137.2960 C   0  0  0  0  0  2  0  0  0  0  0  0
  189.8460  176.6210  139.7020 N   0  0  0  0  0  0  0  0  0  0  0  0
  190.7680  176.2710  138.6220 C   0  0  0  0  0  2  0  0  0  0  0  0
  188.9110  177.5860  139.1450 C   0  0  0  0  0  2  0  0  0  0  0  0
  188.9780  179.7110  137.5860 O   0  0  0  0  0  1  0  0  0  0  0  0
  188.6060  178.5850  136.8460 C   0  0  0  0  0  2  0  0  0  0  0  0
  190.6240  177.3230  140.7110 C   0  0  0  0  0  2  0  0  0  0  0  0
  190.2840  176.7990  142.1070 C   0  0  0  0  0  2  0  0  0  0  0  0
  189.5820  177.8230  142.8740 N   0  0  0  0  0  2  0  0  0  0  0  0
  188.7350  177.1500  143.8580 C   0  0  1  0  0  3  0  0  0  0  0  0
  189.3200  177.0030  146.9230 C   0  0  1  0  0  3  0  0  0  0  0  0
  187.8180  178.3140  148.1150 C   0  0  0  0  0  3  0  0  0  0  0  0
  188.6340  177.9460  145.0870 N   0  0  0  0  0  0  0  0  0  0  0  0
  189.9070  177.8470  145.8070 C   0  0  0  0  0  2  0  0  0  0  0  0
  187.1250  177.9080  146.9450 N   0  0  0  0  0  2  0  0  0  0  0  0
  189.0500  177.8340  148.1400 C   0  0  0  0  0  3  0  0  0  0  0  0
  188.0250  177.1080  146.1230 C   0  0  2  0  0  3  0  0  0  0  0  0
  187.4000  176.8870  143.2970 N   0  0  0  0  0  2  0  0  0  0  0  0
  186.8980  178.0780  142.6160 C   0  0  0  0  0  2  0  0  0  0  0  0
  185.3830  178.1380  142.7300 C   0  0  0  0  0  2  0  0  0  0  0  0
  184.9760  178.5460  144.1350 C   0  0  0  0  0  1  0  0  0  0  0  0
  187.7030  176.3540  137.3810 N   0  0  0  0  0  2  0  0  0  0  0  0
  186.7580  176.9010  136.4100 C   0  0  0  0  0  2  0  0  0  0  0  0
  185.1920  174.9980  135.7520 C   0  0  1  0  0  0  0  0  0  0  0  0
  184.1910  173.8510  135.5810 C   0  0  2  0  0  3  0  0  0  0  0  0
  185.5140  174.9500  137.2170 N   0  0  0  0  0  2  0  0  0  0  0  0
  185.4040  176.2350  136.5790 C   0  0  1  0  0  0  0  0  0  0  0  0
  183.8180  175.1620  135.3890 O   0  0  0  0  0  0  0  0  0  0  0  0
  183.4310  173.2630  136.7910 C   0  0  0  0  0  0  0  0  0  0  0  0
  184.3370  172.7200  137.6890 F   0  0  0  0  0  0  0  0  0  0  0  0
  182.6470  174.2080  137.4470 F   0  0  0  0  0  0  0  0  0  0  0  0
  182.6120  172.2510  136.3320 F   0  0  0  0  0  0  0  0  0  0  0  0
  184.2380  177.0580  137.1610 C   0  0  0  0  0  2  0  0  0  0  0  0
  182.1980  178.4130  139.2560 C   0  0  0  0  0  0  0  0  0  0  0  0
  184.5780  178.6120  139.1350 C   0  0  1  0  0  3  0  0  0  0  0  0
  182.6930  176.7050  139.4080 S   0  0  0  0  0  0  0  0  0  0  0  0
  184.2990  177.1720  138.6870 C   0  0  1  0  0  3  0  0  0  0  0  0
  185.5650  179.2220  138.3560 O   0  0  0  0  0  1  0  0  0  0  0  0
  181.0240  178.7430  139.2200 O   0  0  0  0  0  0  0  0  0  0  0  0
  183.2860  179.4070  139.0880 C   0  0  0  0  0  2  0  0  0  0  0  0
  1  7  1  6  0  0  0
  1  5  1  0  0  0  0
  2  1  1  0  0  0  0
  2  4  1  0  0  0  0
  3  8  1  0  0  0  0
  4  3  1  0  0  0  0
  5  3  1  0  0  0  0
  7  6  1  0  0  0  0
  8  9  1  0  0  0  0
  9 10  1  0  0  0  0
 11 10  1  6  0  0  0
 11 14  1  0  0  0  0
 12 15  1  6  0  0  0
 12 17  1  0  0  0  0
 13 17  2  0  0  0  0
 14 15  1  0  0  0  0
 14 18  1  0  0  0  0
 16 13  1  0  0  0  0
 18 12  1  0  0  0  0
 18 16  1  1  0  0  0
 19 11  1  0  0  0  0
 20 21  1  0  0  0  0
 20 19  1  0  0  0  0
 21 22  1  0  0  0  0
 23  1  1  0  0  0  0
 24 23  1  0  0  0  0
 25 29  1  1  0  0  0
 25 28  1  0  0  0  0
 25 27  1  0  0  0  0
 26 25  1  0  0  0  0
 26 30  1  1  0  0  0
 28 24  1  6  0  0  0
 28 34  1  0  0  0  0
 28 27  1  0  0  0  0
 29 26  1  0  0  0  0
 30 32  1  0  0  0  0
 30 31  1  0  0  0  0
 33 30  1  0  0  0  0
 35 37  1  0  0  0  0
 36 39  1  6  0  0  0
 38 34  1  6  0  0  0
 38 36  1  0  0  0  0
 38 37  1  0  0  0  0
 40 35  2  0  0  0  0
 41 36  1  0  0  0  0
 41 35  1  0  0  0  0
M  END
>  <MODEL>
2

>  <REMARK>
 VINA RESULT:      -7.0      1.056      2.692
  Name = 
  15 active torsions:
  status: ('A' for Active; 'I' for Inactive)
    1  A    between atoms: C_2  and  N_26
    2  A    between atoms: C_2  and  C_30
    3  A    between atoms: C_5  and  C_32
    4  A    between atoms: C_6  and  C_7
    5  A    between atoms: N_11  and  C_31
    6  A    between atoms: C_12  and  C_19
    7  A    between atoms: C_12  and  N_21
    8  A    between atoms: C_15  and  N_21
    9  A    between atoms: C_15  and  C_39
   10  A    between atoms: C_19  and  C_41
   11  A    between atoms: C_23  and  C_41
   12  A    between atoms: C_30  and  N_34
   13  A    between atoms: C_31  and  N_34
   14  A    between atoms: C_31  and  N_40
   15  A    between atoms: C_32  and  N_40
                            x       y       z     vdW  Elec       q    Type
                         _______ _______ _______ _____ _____    ______ ____

>  <TORSDO>
F 15

$$$$
=
 OpenBabel11042412353D

 41 46  0  0  1  0  0  0  0  0999 V2000
  189.2500  177.8340  138.8130 C   0  0  1  0  0  0  0  0  0  0  0  0
  189.2150  178.9060  137.7480 C   0  0  0  0  0  2  0  0  0  0  0  0
  187.2970  177.4580  137.4700 N   0  0  0  0  0  0  0  0  0  0  0  0
  187.9930  178.6010  136.8800 C   0  0  0  0  0  2  0  0  0  0  0  0
  188.2650  176.7850  138.3230 C   0  0  0  0  0  2  0  0  0  0  0  0
  190.6400  175.8890  139.1770 O   0  0  0  0  0  1  0  0  0  0  0  0
  190.6640  177.2660  138.9450 C   0  0  0  0  0  2  0  0  0  0  0  0
  186.9900  176.5430  136.3800 C   0  0  0  0  0  2  0  0  0  0  0  0
  185.5240  176.6810  135.9660 C   0  0  0  0  0  2  0  0  0  0  0  0
  184.7110  177.0780  137.1120 N   0  0  0  0  0  2  0  0  0  0  0  0
  183.8960  175.9290  137.5080 C   0  0  1  0  0  3  0  0  0  0  0  0
  182.5390  177.3000  139.9650 C   0  0  1  0  0  3  0  0  0  0  0  0
  180.3580  176.5450  140.2320 C   0  0  0  0  0  3  0  0  0  0  0  0
  182.5850  176.3680  138.0010 N   0  0  0  0  0  0  0  0  0  0  0  0
  182.7190  177.7310  138.5220 C   0  0  0  0  0  2  0  0  0  0  0  0
  181.0590  175.4770  139.6150 N   0  0  0  0  0  2  0  0  0  0  0  0
  181.1470  177.5860  140.4410 C   0  0  0  0  0  3  0  0  0  0  0  0
  182.4350  175.8950  139.3790 C   0  0  2  0  0  3  0  0  0  0  0  0
  183.7440  174.9920  136.3850 N   0  0  0  0  0  2  0  0  0  0  0  0
  183.7050  173.6170  136.8790 C   0  0  0  0  0  2  0  0  0  0  0  0
  184.9120  173.3530  137.7650 C   0  0  0  0  0  2  0  0  0  0  0  0
  186.0660  172.8160  136.9370 C   0  0  0  0  0  1  0  0  0  0  0  0
  188.8100  178.4290  140.0810 N   0  0  0  0  0  2  0  0  0  0  0  0
  188.1570  177.4370  140.9320 C   0  0  0  0  0  2  0  0  0  0  0  0
  189.7680  176.6470  142.7440 C   0  0  1  0  0  0  0  0  0  0  0  0
  190.7540  176.3960  143.8900 C   0  0  2  0  0  3  0  0  0  0  0  0
  189.9970  178.0910  142.4120 N   0  0  0  0  0  2  0  0  0  0  0  0
  188.6550  177.5780  142.3600 C   0  0  1  0  0  0  0  0  0  0  0  0
  189.3930  176.3360  144.0900 O   0  0  0  0  0  0  0  0  0  0  0  0
  191.3500  177.5650  144.7050 C   0  0  0  0  0  0  0  0  0  0  0  0
  192.0810  177.0630  145.7720 F   0  0  0  0  0  0  0  0  0  0  0  0
  192.1670  178.3930  143.9420 F   0  0  0  0  0  0  0  0  0  0  0  0
  190.3050  178.3150  145.2070 F   0  0  0  0  0  0  0  0  0  0  0  0
  187.7460  178.2640  143.3990 C   0  0  0  0  0  2  0  0  0  0  0  0
  184.7620  179.2030  144.1740 C   0  0  0  0  0  0  0  0  0  0  0  0
  186.1230  177.5270  145.2020 C   0  0  1  0  0  3  0  0  0  0  0  0
  185.0670  178.1140  142.7930 S   0  0  0  0  0  0  0  0  0  0  0  0
  186.4890  177.4470  143.7160 C   0  0  1  0  0  3  0  0  0  0  0  0
  187.2470  177.4160  146.0260 O   0  0  0  0  0  1  0  0  0  0  0  0
  184.1280  180.2380  144.0510 O   0  0  0  0  0  0  0  0  0  0  0  0
  185.3900  178.8310  145.4650 C   0  0  0  0  0  2  0  0  0  0  0  0
  1  7  1  1  0  0  0
  1 23  1  0  0  0  0
  2  1  1  0  0  0  0
  3  5  1  0  0  0  0
  4  3  1  0  0  0  0
  4  2  1  0  0  0  0
  5  1  1  0  0  0  0
  7  6  1  0  0  0  0
  8  3  1  0  0  0  0
  9  8  1  0  0  0  0
  9 10  1  0  0  0  0
 10 11  1  0  0  0  0
 11 19  1  6  0  0  0
 11 14  1  0  0  0  0
 12 15  1  6  0  0  0
 12 17  1  0  0  0  0
 13 17  2  0  0  0  0
 14 15  1  0  0  0  0
 14 18  1  0  0  0  0
 16 13  1  0  0  0  0
 18 16  1  6  0  0  0
 18 12  1  0  0  0  0
 19 20  1  0  0  0  0
 20 21  1  0  0  0  0
 22 21  1  0  0  0  0
 23 24  1  0  0  0  0
 25 27  1  1  0  0  0
 25 26  1  0  0  0  0
 25 29  1  0  0  0  0
 26 29  1  0  0  0  0
 26 30  1  1  0  0  0
 28 24  1  6  0  0  0
 28 27  1  0  0  0  0
 28 25  1  0  0  0  0
 28 34  1  0  0  0  0
 30 33  1  0  0  0  0
 30 31  1  0  0  0  0
 32 30  1  0  0  0  0
 35 41  1  0  0  0  0
 36 41  1  0  0  0  0
 36 39  1  1  0  0  0
 37 38  1  0  0  0  0
 37 35  1  0  0  0  0
 38 34  1  1  0  0  0
 38 36  1  0  0  0  0
 40 35  2  0  0  0  0
M  END
>  <MODEL>
3

>  <REMARK>
 VINA RESULT:      -6.7      4.365      7.869
  Name = 
  15 active torsions:
  status: ('A' for Active; 'I' for Inactive)
    1  A    between atoms: C_2  and  N_26
    2  A    between atoms: C_2  and  C_30
    3  A    between atoms: C_5  and  C_32
    4  A    between atoms: C_6  and  C_7
    5  A    between atoms: N_11  and  C_31
    6  A    between atoms: C_12  and  C_19
    7  A    between atoms: C_12  and  N_21
    8  A    between atoms: C_15  and  N_21
    9  A    between atoms: C_15  and  C_39
   10  A    between atoms: C_19  and  C_41
   11  A    between atoms: C_23  and  C_41
   12  A    between atoms: C_30  and  N_34
   13  A    between atoms: C_31  and  N_34
   14  A    between atoms: C_31  and  N_40
   15  A    between atoms: C_32  and  N_40
                            x       y       z     vdW  Elec       q    Type
                         _______ _______ _______ _____ _____    ______ ____

>  <TORSDO>
F 15

$$$$
=
 OpenBabel11042412353D

 41 46  0  0  1  0  0  0  0  0999 V2000
  190.5900  176.8450  141.8770 C   0  0  1  0  0  0  0  0  0  0  0  0
  190.2480  175.8070  142.9210 C   0  0  0  0  0  2  0  0  0  0  0  0
  188.2260  176.9650  142.2700 N   0  0  0  0  0  0  0  0  0  0  0  0
  188.7490  175.9520  143.1860 C   0  0  0  0  0  2  0  0  0  0  0  0
  189.3700  177.7500  141.8330 C   0  0  0  0  0  2  0  0  0  0  0  0
  191.6020  178.4520  143.3750 O   0  0  0  0  0  1  0  0  0  0  0  0
  191.8490  177.6110  142.2860 C   0  0  0  0  0  2  0  0  0  0  0  0
  187.3830  177.8520  143.0580 C   0  0  0  0  0  2  0  0  0  0  0  0
  185.9630  177.8830  142.4900 C   0  0  0  0  0  2  0  0  0  0  0  0
  185.5720  179.2550  142.1810 N   0  0  0  0  0  2  0  0  0  0  0  0
  184.1370  179.2640  141.9000 C   0  0  1  0  0  3  0  0  0  0  0  0
  182.8660  179.5180  139.0580 C   0  0  1  0  0  3  0  0  0  0  0  0
  181.8940  177.5110  138.4050 C   0  0  0  0  0  3  0  0  0  0  0  0
  183.8380  178.4740  140.7000 N   0  0  0  0  0  0  0  0  0  0  0  0
  184.2800  179.2310  139.5250 C   0  0  0  0  0  2  0  0  0  0  0  0
  181.8220  177.5270  139.8220 N   0  0  0  0  0  2  0  0  0  0  0  0
  182.4750  178.6030  137.9370 C   0  0  0  0  0  3  0  0  0  0  0  0
  182.4530  178.7480  140.3080 C   0  0  2  0  0  3  0  0  0  0  0  0
  183.3810  178.7600  143.0570 N   0  0  0  0  0  2  0  0  0  0  0  0
  183.6530  179.5850  144.2320 C   0  0  0  0  0  2  0  0  0  0  0  0
  183.9500  178.6970  145.4290 C   0  0  0  0  0  2  0  0  0  0  0  0
  185.3150  179.0270  146.0050 C   0  0  0  0  0  1  0  0  0  0  0  0
  190.7940  176.1600  140.5950 N   0  0  0  0  0  2  0  0  0  0  0  0
  191.3240  177.0740  139.5850 C   0  0  0  0  0  2  0  0  0  0  0  0
  192.2890  175.8360  137.5750 C   0  0  1  0  0  0  0  0  0  0  0  0
  192.6640  174.9830  136.3580 C   0  0  2  0  0  3  0  0  0  0  0  0
  191.1650  175.0610  138.1960 N   0  0  0  0  0  2  0  0  0  0  0  0
  191.0940  176.4980  138.1990 C   0  0  1  0  0  0  0  0  0  0  0  0
  192.1290  176.2430  136.2130 O   0  0  0  0  0  0  0  0  0  0  0  0
  191.6880  173.9310  135.7850 C   0  0  0  0  0  0  0  0  0  0  0  0
  190.4510  174.5180  135.5630 F   0  0  0  0  0  0  0  0  0  0  0  0
  192.1430  173.3620  134.6000 F   0  0  0  0  0  0  0  0  0  0  0  0
  191.5340  172.9320  136.7250 F   0  0  0  0  0  0  0  0  0  0  0  0
  189.8970  177.0070  137.3730 C   0  0  0  0  0  2  0  0  0  0  0  0
  186.8830  177.1760  136.2450 C   0  0  0  0  0  0  0  0  0  0  0  0
  187.7790  178.0690  138.2730 C   0  0  1  0  0  3  0  0  0  0  0  0
  187.5040  175.6960  137.0260 S   0  0  0  0  0  0  0  0  0  0  0  0
  188.5530  176.7630  138.0660 C   0  0  1  0  0  3  0  0  0  0  0  0
  188.6070  179.1060  138.7150 O   0  0  0  0  0  1  0  0  0  0  0  0
  186.3790  177.1550  135.1330 O   0  0  0  0  0  0  0  0  0  0  0  0
  187.0860  178.4490  136.9770 C   0  0  0  0  0  2  0  0  0  0  0  0
  1  7  1  1  0  0  0
  1  2  1  0  0  0  0
  2  4  1  0  0  0  0
  3  8  1  0  0  0  0
  3  4  1  0  0  0  0
  5  1  1  0  0  0  0
  5  3  1  0  0  0  0
  7  6  1  0  0  0  0
  9  8  1  0  0  0  0
 10  9  1  0  0  0  0
 11 10  1  1  0  0  0
 11 19  1  0  0  0  0
 12 17  1  6  0  0  0
 12 15  1  0  0  0  0
 12 18  1  0  0  0  0
 13 16  1  0  0  0  0
 14 11  1  0  0  0  0
 15 14  1  0  0  0  0
 17 13  2  0  0  0  0
 18 16  1  6  0  0  0
 18 14  1  0  0  0  0
 19 20  1  0  0  0  0
 20 21  1  0  0  0  0
 21 22  1  0  0  0  0
 23  1  1  0  0  0  0
 24 23  1  0  0  0  0
 25 29  1  6  0  0  0
 25 27  1  0  0  0  0
 25 28  1  0  0  0  0
 26 30  1  6  0  0  0
 26 25  1  0  0  0  0
 27 28  1  0  0  0  0
 28 34  1  6  0  0  0
 28 24  1  0  0  0  0
 29 26  1  0  0  0  0
 30 33  1  0  0  0  0
 31 30  1  0  0  0  0
 32 30  1  0  0  0  0
 35 41  1  0  0  0  0
 35 37  1  0  0  0  0
 36 39  1  6  0  0  0
 37 38  1  0  0  0  0
 38 34  1  6  0  0  0
 38 36  1  0  0  0  0
 40 35  2  0  0  0  0
 41 36  1  0  0  0  0
M  END
>  <MODEL>
4

>  <REMARK>
 VINA RESULT:      -6.6      3.371      5.582
  Name = 
  15 active torsions:
  status: ('A' for Active; 'I' for Inactive)
    1  A    between atoms: C_2  and  N_26
    2  A    between atoms: C_2  and  C_30
    3  A    between atoms: C_5  and  C_32
    4  A    between atoms: C_6  and  C_7
    5  A    between atoms: N_11  and  C_31
    6  A    between atoms: C_12  and  C_19
    7  A    between atoms: C_12  and  N_21
    8  A    between atoms: C_15  and  N_21
    9  A    between atoms: C_15  and  C_39
   10  A    between atoms: C_19  and  C_41
   11  A    between atoms: C_23  and  C_41
   12  A    between atoms: C_30  and  N_34
   13  A    between atoms: C_31  and  N_34
   14  A    between atoms: C_31  and  N_40
   15  A    between atoms: C_32  and  N_40
                            x       y       z     vdW  Elec       q    Type
                         _______ _______ _______ _____ _____    ______ ____

>  <TORSDO>
F 15

$$$$
=
 OpenBabel11042412353D

 41 46  0  0  1  0  0  0  0  0999 V2000
  190.1910  177.0020  142.1020 C   0  0  1  0  0  0  0  0  0  0  0  0
  189.8280  175.8760  143.0440 C   0  0  0  0  0  2  0  0  0  0  0  0
  187.8190  177.0910  142.4610 N   0  0  0  0  0  0  0  0  0  0  0  0
  188.3250  175.9990  143.2930 C   0  0  0  0  0  2  0  0  0  0  0  0
  188.9720  177.9100  142.1160 C   0  0  0  0  0  2  0  0  0  0  0  0
  191.7450  177.3690  143.9180 O   0  0  0  0  0  1  0  0  0  0  0  0
  191.4420  177.7260  142.6020 C   0  0  0  0  0  2  0  0  0  0  0  0
  186.9620  177.9070  143.3080 C   0  0  0  0  0  2  0  0  0  0  0  0
  185.9590  178.6880  142.4580 C   0  0  0  0  0  2  0  0  0  0  0  0
  184.5960  178.2820  142.7860 N   0  0  0  0  0  2  0  0  0  0  0  0
  183.7130  178.7610  141.7230 C   0  0  1  0  0  3  0  0  0  0  0  0
  182.8330  178.6780  138.7270 C   0  0  1  0  0  3  0  0  0  0  0  0
  183.1950  176.5710  137.8180 C   0  0  0  0  0  3  0  0  0  0  0  0
  184.0290  178.1030  140.4500 N   0  0  0  0  0  0  0  0  0  0  0  0
  184.1120  179.1290  139.4070 C   0  0  0  0  0  2  0  0  0  0  0  0
  182.9700  176.3560  139.2020 N   0  0  0  0  0  2  0  0  0  0  0  0
  183.1320  177.8560  137.5100 C   0  0  0  0  0  3  0  0  0  0  0  0
  182.7720  177.6470  139.8500 C   0  0  2  0  0  3  0  0  0  0  0  0
  182.3040  178.5470  142.0860 N   0  0  0  0  0  2  0  0  0  0  0  0
  182.0210  179.1530  143.3850 C   0  0  0  0  0  2  0  0  0  0  0  0
  180.7210  178.5980  143.9430 C   0  0  0  0  0  2  0  0  0  0  0  0
  179.5400  179.3980  143.4250 C   0  0  0  0  0  1  0  0  0  0  0  0
  190.4180  176.4330  140.7690 N   0  0  0  0  0  2  0  0  0  0  0  0
  190.7220  177.4760  139.7930 C   0  0  0  0  0  2  0  0  0  0  0  0
  188.4420  177.3280  138.6610 C   0  0  1  0  0  0  0  0  0  0  0  0
  187.1730  177.3450  137.8010 C   0  0  2  0  0  3  0  0  0  0  0  0
  189.2710  178.4250  138.0610 N   0  0  0  0  0  2  0  0  0  0  0  0
  189.9340  177.2330  138.5180 C   0  0  1  0  0  0  0  0  0  0  0  0
  188.0300  176.2680  137.7910 O   0  0  0  0  0  0  0  0  0  0  0  0
  187.1580  178.0140  136.4080 C   0  0  0  0  0  0  0  0  0  0  0  0
  187.3060  179.3850  136.5500 F   0  0  0  0  0  0  0  0  0  0  0  0
  188.1550  177.5310  135.5670 F   0  0  0  0  0  0  0  0  0  0  0  0
  185.9300  177.7660  135.8270 F   0  0  0  0  0  0  0  0  0  0  0  0
  190.6140  176.4830  137.3560 C   0  0  0  0  0  2  0  0  0  0  0  0
  193.0890  175.2280  135.7170 C   0  0  0  0  0  0  0  0  0  0  0  0
  191.6500  174.1700  137.3060 C   0  0  1  0  0  3  0  0  0  0  0  0
  193.3480  176.2570  137.1520 S   0  0  0  0  0  0  0  0  0  0  0  0
  191.7820  175.6080  137.8200 C   0  0  1  0  0  3  0  0  0  0  0  0
  190.3410  173.6910  137.4160 O   0  0  0  0  0  1  0  0  0  0  0  0
  193.6210  175.4700  134.6460 O   0  0  0  0  0  0  0  0  0  0  0  0
  192.1270  174.1100  135.8660 C   0  0  0  0  0  2  0  0  0  0  0  0
  1  5  1  0  0  0  0
  1  7  1  1  0  0  0
  1  2  1  0  0  0  0
  2  4  1  0  0  0  0
  3  4  1  0  0  0  0
  3  8  1  0  0  0  0
  5  3  1  0  0  0  0
  7  6  1  0  0  0  0
  9 10  1  0  0  0  0
  9  8  1  0  0  0  0
 11 19  1  1  0  0  0
 11 10  1  0  0  0  0
 12 17  1  6  0  0  0
 12 15  1  0  0  0  0
 12 18  1  0  0  0  0
 13 16  1  0  0  0  0
 14 11  1  0  0  0  0
 15 14  1  0  0  0  0
 17 13  2  0  0  0  0
 18 16  1  6  0  0  0
 18 14  1  0  0  0  0
 19 20  1  0  0  0  0
 20 21  1  0  0  0  0
 22 21  1  0  0  0  0
 23  1  1  0  0  0  0
 24 23  1  0  0  0  0
 25 29  1  6  0  0  0
 26 30  1  6  0  0  0
 26 25  1  0  0  0  0
 27 28  1  0  0  0  0
 27 25  1  0  0  0  0
 28 34  1  6  0  0  0
 28 25  1  0  0  0  0
 28 24  1  0  0  0  0
 29 26  1  0  0  0  0
 30 31  1  0  0  0  0
 32 30  1  0  0  0  0
 33 30  1  0  0  0  0
 35 41  1  0  0  0  0
 35 37  1  0  0  0  0
 36 39  1  6  0  0  0
 36 38  1  0  0  0  0
 37 38  1  0  0  0  0
 38 34  1  6  0  0  0
 40 35  2  0  0  0  0
 41 36  1  0  0  0  0
M  END
>  <MODEL>
5

>  <REMARK>
 VINA RESULT:      -6.6      3.781      6.808
  Name = 
  15 active torsions:
  status: ('A' for Active; 'I' for Inactive)
    1  A    between atoms: C_2  and  N_26
    2  A    between atoms: C_2  and  C_30
    3  A    between atoms: C_5  and  C_32
    4  A    between atoms: C_6  and  C_7
    5  A    between atoms: N_11  and  C_31
    6  A    between atoms: C_12  and  C_19
    7  A    between atoms: C_12  and  N_21
    8  A    between atoms: C_15  and  N_21
    9  A    between atoms: C_15  and  C_39
   10  A    between atoms: C_19  and  C_41
   11  A    between atoms: C_23  and  C_41
   12  A    between atoms: C_30  and  N_34
   13  A    between atoms: C_31  and  N_34
   14  A    between atoms: C_31  and  N_40
   15  A    between atoms: C_32  and  N_40
                            x       y       z     vdW  Elec       q    Type
                         _______ _______ _______ _____ _____    ______ ____

>  <TORSDO>
F 15

$$$$
=
 OpenBabel11042412353D

 41 46  0  0  1  0  0  0  0  0999 V2000
  190.1650  177.0860  142.2090 C   0  0  1  0  0  0  0  0  0  0  0  0
  189.6580  175.9970  143.1260 C   0  0  0  0  0  2  0  0  0  0  0  0
  187.8470  177.5280  142.6480 N   0  0  0  0  0  0  0  0  0  0  0  0
  188.1990  176.3420  143.4280 C   0  0  0  0  0  2  0  0  0  0  0  0
  189.1030  178.1710  142.2910 C   0  0  0  0  0  2  0  0  0  0  0  0
  191.4380  178.1650  143.9600 O   0  0  0  0  0  1  0  0  0  0  0  0
  191.5280  177.5900  142.6890 C   0  0  0  0  0  2  0  0  0  0  0  0
  187.1510  178.4350  143.5490 C   0  0  0  0  0  2  0  0  0  0  0  0
  185.6740  178.0530  143.6530 C   0  0  0  0  0  2  0  0  0  0  0  0
  184.8390  179.1040  143.0810 N   0  0  0  0  0  2  0  0  0  0  0  0
  183.5710  178.5020  142.6700 C   0  0  1  0  0  3  0  0  0  0  0  0
  180.6050  178.2380  143.6140 C   0  0  1  0  0  3  0  0  0  0  0  0
  179.3930  180.1450  143.0730 C   0  0  0  0  0  3  0  0  0  0  0  0
  182.4380  179.3080  143.1370 N   0  0  0  0  0  0  0  0  0  0  0  0
  181.8730  178.6670  144.3280 C   0  0  0  0  0  2  0  0  0  0  0  0
  180.4150  180.0510  142.0930 N   0  0  0  0  0  2  0  0  0  0  0  0
  179.4660  179.1530  143.9450 C   0  0  0  0  0  3  0  0  0  0  0  0
  181.2460  178.8920  142.3930 C   0  0  2  0  0  3  0  0  0  0  0  0
  183.5280  178.3380  141.2090 N   0  0  0  0  0  2  0  0  0  0  0  0
  184.5420  179.1800  140.5780 C   0  0  0  0  0  2  0  0  0  0  0  0
  184.2180  179.3640  139.1050 C   0  0  0  0  0  2  0  0  0  0  0  0
  183.1310  178.3930  138.6790 C   0  0  0  0  0  1  0  0  0  0  0  0
  190.2650  176.5380  140.8510 N   0  0  0  0  0  2  0  0  0  0  0  0
  190.5850  177.5820  139.8810 C   0  0  0  0  0  2  0  0  0  0  0  0
  188.3200  177.3570  138.7300 C   0  0  1  0  0  0  0  0  0  0  0  0
  187.0570  177.3400  137.8640 C   0  0  2  0  0  3  0  0  0  0  0  0
  189.0970  178.5130  138.1710 N   0  0  0  0  0  2  0  0  0  0  0  0
  189.8160  177.3410  138.5940 C   0  0  1  0  0  0  0  0  0  0  0  0
  187.9660  176.3070  137.8240 O   0  0  0  0  0  0  0  0  0  0  0  0
  187.0150  178.0520  136.4930 C   0  0  0  0  0  0  0  0  0  0  0  0
  187.1910  179.4150  136.6720 F   0  0  0  0  0  0  0  0  0  0  0  0
  187.9800  177.5780  135.6090 F   0  0  0  0  0  0  0  0  0  0  0  0
  185.7680  177.8420  135.9380 F   0  0  0  0  0  0  0  0  0  0  0  0
  190.5380  176.6630  137.4130 C   0  0  0  0  0  2  0  0  0  0  0  0
  192.9070  175.2760  135.7240 C   0  0  0  0  0  0  0  0  0  0  0  0
  191.5080  174.3210  137.4110 C   0  0  1  0  0  3  0  0  0  0  0  0
  193.2540  176.3510  137.1060 S   0  0  0  0  0  0  0  0  0  0  0  0
  191.7010  175.7730  137.8630 C   0  0  1  0  0  3  0  0  0  0  0  0
  190.1920  173.8850  137.5930 O   0  0  0  0  0  1  0  0  0  0  0  0
  193.4000  175.4620  134.6240 O   0  0  0  0  0  0  0  0  0  0  0  0
  191.9220  174.1930  135.9560 C   0  0  0  0  0  2  0  0  0  0  0  0
  1  5  1  0  0  0  0
  1  7  1  1  0  0  0
  1  2  1  0  0  0  0
  2  4  1  0  0  0  0
  3  4  1  0  0  0  0
  3  8  1  0  0  0  0
  5  3  1  0  0  0  0
  7  6  1  0  0  0  0
  8  9  1  0  0  0  0
 10  9  1  0  0  0  0
 11 19  1  6  0  0  0
 11 10  1  0  0  0  0
 11 14  1  0  0  0  0
 12 17  1  1  0  0  0
 12 15  1  0  0  0  0
 13 17  2  0  0  0  0
 14 15  1  0  0  0  0
 16 13  1  0  0  0  0
 18 16  1  1  0  0  0
 18 14  1  0  0  0  0
 18 12  1  0  0  0  0
 20 19  1  0  0  0  0
 21 20  1  0  0  0  0
 22 21  1  0  0  0  0
 23  1  1  0  0  0  0
 24 23  1  0  0  0  0
 25 29  1  6  0  0  0
 26 30  1  6  0  0  0
 26 25  1  0  0  0  0
 27 28  1  0  0  0  0
 27 25  1  0  0  0  0
 28 34  1  6  0  0  0
 28 25  1  0  0  0  0
 28 24  1  0  0  0  0
 29 26  1  0  0  0  0
 30 31  1  0  0  0  0
 32 30  1  0  0  0  0
 33 30  1  0  0  0  0
 35 41  1  0  0  0  0
 35 37  1  0  0  0  0
 36 39  1  6  0  0  0
 36 38  1  0  0  0  0
 37 38  1  0  0  0  0
 38 34  1  6  0  0  0
 40 35  2  0  0  0  0
 41 36  1  0  0  0  0
M  END
>  <MODEL>
6

>  <REMARK>
 VINA RESULT:      -6.5      3.825      6.594
  Name = 
  15 active torsions:
  status: ('A' for Active; 'I' for Inactive)
    1  A    between atoms: C_2  and  N_26
    2  A    between atoms: C_2  and  C_30
    3  A    between atoms: C_5  and  C_32
    4  A    between atoms: C_6  and  C_7
    5  A    between atoms: N_11  and  C_31
    6  A    between atoms: C_12  and  C_19
    7  A    between atoms: C_12  and  N_21
    8  A    between atoms: C_15  and  N_21
    9  A    between atoms: C_15  and  C_39
   10  A    between atoms: C_19  and  C_41
   11  A    between atoms: C_23  and  C_41
   12  A    between atoms: C_30  and  N_34
   13  A    between atoms: C_31  and  N_34
   14  A    between atoms: C_31  and  N_40
   15  A    between atoms: C_32  and  N_40
                            x       y       z     vdW  Elec       q    Type
                         _______ _______ _______ _____ _____    ______ ____

>  <TORSDO>
F 15

$$$$
=
 OpenBabel11042412353D

 41 46  0  0  1  0  0  0  0  0999 V2000
  183.3810  178.0980  139.4030 C   0  0  1  0  0  0  0  0  0  0  0  0
  184.2240  179.3530  139.4330 C   0  0  0  0  0  2  0  0  0  0  0  0
  184.4950  178.1740  141.5280 N   0  0  0  0  0  0  0  0  0  0  0  0
  184.8710  179.3960  140.8170 C   0  0  0  0  0  2  0  0  0  0  0  0
  183.3120  177.6590  140.8560 C   0  0  0  0  0  2  0  0  0  0  0  0
  181.5230  177.3560  138.0440 O   0  0  0  0  0  1  0  0  0  0  0  0
  181.9940  178.4060  138.8370 C   0  0  0  0  0  2  0  0  0  0  0  0
  184.0810  178.5730  142.8650 C   0  0  0  0  0  2  0  0  0  0  0  0
  185.1810  178.2610  143.8800 C   0  0  0  0  0  2  0  0  0  0  0  0
  186.2460  177.4870  143.2480 N   0  0  0  0  0  2  0  0  0  0  0  0
  187.3600  177.3970  144.1910 C   0  0  1  0  0  3  0  0  0  0  0  0
  189.7450  176.3920  142.4430 C   0  0  1  0  0  3  0  0  0  0  0  0
  191.6850  177.5730  142.9330 C   0  0  0  0  0  3  0  0  0  0  0  0
  188.6050  177.8620  143.5700 N   0  0  0  0  0  0  0  0  0  0  0  0
  188.6330  177.3910  142.1820 C   0  0  0  0  0  2  0  0  0  0  0  0
  190.9170  177.5870  144.1270 N   0  0  0  0  0  2  0  0  0  0  0  0
  191.0640  176.9190  141.9660 C   0  0  0  0  0  3  0  0  0  0  0  0
  189.6590  176.8930  143.8810 C   0  0  2  0  0  3  0  0  0  0  0  0
  187.0680  178.1660  145.4110 N   0  0  0  0  0  2  0  0  0  0  0  0
  187.3840  177.3700  146.5950 C   0  0  0  0  0  2  0  0  0  0  0  0
  187.3960  178.2600  147.8270 C   0  0  0  0  0  2  0  0  0  0  0  0
  188.7720  178.2550  148.4680 C   0  0  0  0  0  1  0  0  0  0  0  0
  184.0690  177.1000  138.5760 N   0  0  0  0  0  2  0  0  0  0  0  0
  184.8090  177.7340  137.4870 C   0  0  0  0  0  2  0  0  0  0  0  0
  187.2940  178.1640  137.1050 C   0  0  1  0  0  0  0  0  0  0  0  0
  188.8210  178.2720  137.0490 C   0  0  2  0  0  3  0  0  0  0  0  0
  187.0420  177.6570  138.4940 N   0  0  0  0  0  2  0  0  0  0  0  0
  186.2160  177.1670  137.4230 C   0  0  1  0  0  0  0  0  0  0  0  0
  188.1380  177.3720  136.2630 O   0  0  0  0  0  0  0  0  0  0  0  0
  189.7160  177.5140  138.0550 C   0  0  0  0  0  0  0  0  0  0  0  0
  189.8170  178.2440  139.2290 F   0  0  0  0  0  0  0  0  0  0  0  0
  189.2380  176.2400  138.3480 F   0  0  0  0  0  0  0  0  0  0  0  0
  190.9770  177.3970  137.5040 F   0  0  0  0  0  0  0  0  0  0  0  0
  186.3970  175.6500  137.2180 C   0  0  0  0  0  2  0  0  0  0  0  0
  184.8330  172.9120  136.5520 C   0  0  0  0  0  0  0  0  0  0  0  0
  186.5640  173.9930  135.3070 C   0  0  1  0  0  3  0  0  0  0  0  0
  184.0910  174.5070  136.2480 S   0  0  0  0  0  0  0  0  0  0  0  0
  185.7630  175.1500  135.9170 C   0  0  1  0  0  3  0  0  0  0  0  0
  187.9420  174.2220  135.3620 O   0  0  0  0  0  1  0  0  0  0  0  0
  184.2730  172.0580  137.2200 O   0  0  0  0  0  0  0  0  0  0  0  0
  186.2020  172.7050  136.0240 C   0  0  0  0  0  2  0  0  0  0  0  0
  1  7  1  6  0  0  0
  1  2  1  0  0  0  0
  1  5  1  0  0  0  0
  2  4  1  0  0  0  0
  3  8  1  0  0  0  0
  4  3  1  0  0  0  0
  5  3  1  0  0  0  0
  6  7  1  0  0  0  0
  8  9  1  0  0  0  0
 10  9  1  0  0  0  0
 11 10  1  6  0  0  0
 11 19  1  0  0  0  0
 12 17  1  6  0  0  0
 12 18  1  0  0  0  0
 13 16  1  0  0  0  0
 14 18  1  0  0  0  0
 14 11  1  0  0  0  0
 15 12  1  0  0  0  0
 15 14  1  0  0  0  0
 17 13  2  0  0  0  0
 18 16  1  6  0  0  0
 19 20  1  0  0  0  0
 20 21  1  0  0  0  0
 21 22  1  0  0  0  0
 23  1  1  0  0  0  0
 24 23  1  0  0  0  0
 25 29  1  1  0  0  0
 25 28  1  0  0  0  0
 25 27  1  0  0  0  0
 26 25  1  0  0  0  0
 26 30  1  1  0  0  0
 28 34  1  6  0  0  0
 28 24  1  0  0  0  0
 28 27  1  0  0  0  0
 29 26  1  0  0  0  0
 30 32  1  0  0  0  0
 30 31  1  0  0  0  0
 33 30  1  0  0  0  0
 35 40  2  0  0  0  0
 36 39  1  1  0  0  0
 36 38  1  0  0  0  0
 36 41  1  0  0  0  0
 37 35  1  0  0  0  0
 38 37  1  0  0  0  0
 38 34  1  1  0  0  0
 41 35  1  0  0  0  0
M  END
>  <MODEL>
7

>  <REMARK>
 VINA RESULT:      -6.3      2.657      5.416
  Name = 
  15 active torsions:
  status: ('A' for Active; 'I' for Inactive)
    1  A    between atoms: C_2  and  N_26
    2  A    between atoms: C_2  and  C_30
    3  A    between atoms: C_5  and  C_32
    4  A    between atoms: C_6  and  C_7
    5  A    between atoms: N_11  and  C_31
    6  A    between atoms: C_12  and  C_19
    7  A    between atoms: C_12  and  N_21
    8  A    between atoms: C_15  and  N_21
    9  A    between atoms: C_15  and  C_39
   10  A    between atoms: C_19  and  C_41
   11  A    between atoms: C_23  and  C_41
   12  A    between atoms: C_30  and  N_34
   13  A    between atoms: C_31  and  N_34
   14  A    between atoms: C_31  and  N_40
   15  A    between atoms: C_32  and  N_40
                            x       y       z     vdW  Elec       q    Type
                         _______ _______ _______ _____ _____    ______ ____

>  <TORSDO>
F 15

$$$$
=
 OpenBabel11042412353D

 41 46  0  0  1  0  0  0  0  0999 V2000
  187.9820  177.3240  137.0380 C   0  0  1  0  0  0  0  0  0  0  0  0
  189.4890  177.3100  136.9290 C   0  0  0  0  0  2  0  0  0  0  0  0
  188.8670  177.1240  139.2600 N   0  0  0  0  0  0  0  0  0  0  0  0
  190.0170  177.2390  138.3630 C   0  0  0  0  0  2  0  0  0  0  0  0
  187.7140  177.5970  138.5090 C   0  0  0  0  0  2  0  0  0  0  0  0
  187.4020  179.6590  136.7880 O   0  0  0  0  0  1  0  0  0  0  0  0
  187.3980  178.4190  136.1430 C   0  0  0  0  0  2  0  0  0  0  0  0
  189.0810  178.0710  140.3440 C   0  0  0  0  0  2  0  0  0  0  0  0
  189.4520  177.3330  141.6310 C   0  0  0  0  0  2  0  0  0  0  0  0
  189.0260  178.1020  142.7960 N   0  0  0  0  0  2  0  0  0  0  0  0
  188.1570  177.2500  143.6080 C   0  0  1  0  0  3  0  0  0  0  0  0
  189.4020  177.9020  146.3980 C   0  0  1  0  0  3  0  0  0  0  0  0
  191.2850  176.5980  146.7880 C   0  0  0  0  0  3  0  0  0  0  0  0
  188.9140  176.6310  144.7020 N   0  0  0  0  0  0  0  0  0  0  0  0
  188.2700  176.9870  145.9690 C   0  0  0  0  0  2  0  0  0  0  0  0
  191.2080  176.7460  145.3790 N   0  0  0  0  0  2  0  0  0  0  0  0
  190.2910  177.2250  147.3960 C   0  0  0  0  0  3  0  0  0  0  0  0
  190.0190  177.5260  145.0550 C   0  0  2  0  0  3  0  0  0  0  0  0
  187.0210  178.0230  144.1320 N   0  0  0  0  0  2  0  0  0  0  0  0
  185.9830  178.1450  143.1100 C   0  0  0  0  0  2  0  0  0  0  0  0
  184.6580  178.5070  143.7610 C   0  0  0  0  0  2  0  0  0  0  0  0
  184.8820  178.9840  145.1840 C   0  0  0  0  0  1  0  0  0  0  0  0
  187.4780  176.0050  136.6390 N   0  0  0  0  0  2  0  0  0  0  0  0
  186.2260  176.1190  135.8940 C   0  0  0  0  0  2  0  0  0  0  0  0
  185.1400  173.9490  135.1110 C   0  0  1  0  0  0  0  0  0  0  0  0
  184.5310  172.5670  134.8540 C   0  0  2  0  0  3  0  0  0  0  0  0
  186.0540  173.7050  136.2750 N   0  0  0  0  0  2  0  0  0  0  0  0
  185.3240  174.9430  136.2220 C   0  0  1  0  0  0  0  0  0  0  0  0
  183.7580  173.6200  135.2840 O   0  0  0  0  0  0  0  0  0  0  0  0
  184.5610  171.4640  135.9360 C   0  0  0  0  0  0  0  0  0  0  0  0
  185.7900  170.8220  135.9110 F   0  0  0  0  0  0  0  0  0  0  0  0
  184.3300  171.9580  137.2160 F   0  0  0  0  0  0  0  0  0  0  0  0
  183.5790  170.5400  135.6340 F   0  0  0  0  0  0  0  0  0  0  0  0
  184.3370  175.0690  137.3990 C   0  0  0  0  0  2  0  0  0  0  0  0
  183.0510  177.0370  139.6040 C   0  0  0  0  0  0  0  0  0  0  0  0
  181.9820  175.9280  137.7760 C   0  0  1  0  0  3  0  0  0  0  0  0
  183.9890  177.6700  138.2240 S   0  0  0  0  0  0  0  0  0  0  0  0
  183.3820  176.2570  137.2470 C   0  0  1  0  0  3  0  0  0  0  0  0
  181.5630  174.6500  137.3930 O   0  0  0  0  0  1  0  0  0  0  0  0
  183.3240  177.3300  140.7570 O   0  0  0  0  0  0  0  0  0  0  0  0
  181.9760  176.0670  139.2870 C   0  0  0  0  0  2  0  0  0  0  0  0
  1  7  1  6  0  0  0
  1  5  1  0  0  0  0
  2  1  1  0  0  0  0
  2  4  1  0  0  0  0
  3  8  1  0  0  0  0
  4  3  1  0  0  0  0
  5  3  1  0  0  0  0
  7  6  1  0  0  0  0
  8  9  1  0  0  0  0
  9 10  1  0  0  0  0
 11 10  1  1  0  0  0
 11 19  1  0  0  0  0
 11 14  1  0  0  0  0
 12 15  1  6  0  0  0
 12 17  1  0  0  0  0
 13 17  2  0  0  0  0
 14 18  1  0  0  0  0
 14 15  1  0  0  0  0
 16 13  1  0  0  0  0
 18 16  1  1  0  0  0
 18 12  1  0  0  0  0
 20 21  1  0  0  0  0
 20 19  1  0  0  0  0
 21 22  1  0  0  0  0
 23  1  1  0  0  0  0
 24 23  1  0  0  0  0
 25 29  1  1  0  0  0
 25 28  1  0  0  0  0
 25 27  1  0  0  0  0
 26 25  1  0  0  0  0
 26 29  1  0  0  0  0
 26 30  1  1  0  0  0
 28 24  1  6  0  0  0
 28 27  1  0  0  0  0
 28 34  1  0  0  0  0
 30 32  1  0  0  0  0
 31 30  1  0  0  0  0
 33 30  1  0  0  0  0
 35 40  2  0  0  0  0
 36 39  1  1  0  0  0
 36 41  1  0  0  0  0
 37 35  1  0  0  0  0
 38 34  1  1  0  0  0
 38 36  1  0  0  0  0
 38 37  1  0  0  0  0
 41 35  1  0  0  0  0
M  END
>  <MODEL>
8

>  <REMARK>
 VINA RESULT:      -6.1      1.662      3.444
  Name = 
  15 active torsions:
  status: ('A' for Active; 'I' for Inactive)
    1  A    between atoms: C_2  and  N_26
    2  A    between atoms: C_2  and  C_30
    3  A    between atoms: C_5  and  C_32
    4  A    between atoms: C_6  and  C_7
    5  A    between atoms: N_11  and  C_31
    6  A    between atoms: C_12  and  C_19
    7  A    between atoms: C_12  and  N_21
    8  A    between atoms: C_15  and  N_21
    9  A    between atoms: C_15  and  C_39
   10  A    between atoms: C_19  and  C_41
   11  A    between atoms: C_23  and  C_41
   12  A    between atoms: C_30  and  N_34
   13  A    between atoms: C_31  and  N_34
   14  A    between atoms: C_31  and  N_40
   15  A    between atoms: C_32  and  N_40
                            x       y       z     vdW  Elec       q    Type
                         _______ _______ _______ _____ _____    ______ ____

>  <TORSDO>
F 15

$$$$
=
 OpenBabel11042412353D

 41 46  0  0  1  0  0  0  0  0999 V2000
  183.0990  178.1890  139.1730 C   0  0  1  0  0  0  0  0  0  0  0  0
  184.2540  179.1640  139.1480 C   0  0  0  0  0  2  0  0  0  0  0  0
  184.1950  178.0710  141.3050 N   0  0  0  0  0  0  0  0  0  0  0  0
  184.8910  179.1020  140.5360 C   0  0  0  0  0  2  0  0  0  0  0  0
  182.9140  177.8650  140.6470 C   0  0  0  0  0  2  0  0  0  0  0  0
  181.5790  180.0710  139.1700 O   0  0  0  0  0  1  0  0  0  0  0  0
  181.8490  178.8360  138.5740 C   0  0  0  0  0  2  0  0  0  0  0  0
  183.9090  178.6400  142.6140 C   0  0  0  0  0  2  0  0  0  0  0  0
  185.2040  178.8420  143.4020 C   0  0  0  0  0  2  0  0  0  0  0  0
  185.8550  177.5570  143.6420 N   0  0  0  0  0  2  0  0  0  0  0  0
  187.3000  177.7810  143.6760 C   0  0  1  0  0  3  0  0  0  0  0  0
  188.0470  178.0220  146.6990 C   0  0  1  0  0  3  0  0  0  0  0  0
  189.9300  176.7540  147.1890 C   0  0  0  0  0  3  0  0  0  0  0  0
  187.9170  177.0250  144.7710 N   0  0  0  0  0  0  0  0  0  0  0  0
  187.0610  177.1430  145.9550 C   0  0  0  0  0  2  0  0  0  0  0  0
  190.0640  177.1250  145.8260 N   0  0  0  0  0  2  0  0  0  0  0  0
  188.8140  177.2310  147.7140 C   0  0  0  0  0  3  0  0  0  0  0  0
  188.8900  177.8960  145.4340 C   0  0  2  0  0  3  0  0  0  0  0  0
  187.9080  177.4210  142.3860 N   0  0  0  0  0  2  0  0  0  0  0  0
  188.3000  178.6280  141.6610 C   0  0  0  0  0  2  0  0  0  0  0  0
  188.7040  178.2680  140.2400 C   0  0  0  0  0  2  0  0  0  0  0  0
  189.9360  177.3810  140.2510 C   0  0  0  0  0  1  0  0  0  0  0  0
  183.4840  176.9980  138.4080 N   0  0  0  0  0  2  0  0  0  0  0  0
  183.8190  177.3400  137.0280 C   0  0  0  0  0  2  0  0  0  0  0  0
  186.2520  177.4980  136.2800 C   0  0  1  0  0  0  0  0  0  0  0  0
  187.7490  177.4080  135.9660 C   0  0  2  0  0  3  0  0  0  0  0  0
  186.1350  176.7620  137.5810 N   0  0  0  0  0  2  0  0  0  0  0  0
  185.0840  176.6120  136.6100 C   0  0  1  0  0  0  0  0  0  0  0  0
  186.8120  176.7850  135.1730 O   0  0  0  0  0  0  0  0  0  0  0  0
  188.6470  176.3490  136.6430 C   0  0  0  0  0  0  0  0  0  0  0  0
  189.9380  176.8420  136.7610 F   0  0  0  0  0  0  0  0  0  0  0  0
  188.1850  175.9730  137.9010 F   0  0  0  0  0  0  0  0  0  0  0  0
  188.6800  175.2310  135.8320 F   0  0  0  0  0  0  0  0  0  0  0  0
  184.9750  175.1570  136.1140 C   0  0  0  0  0  2  0  0  0  0  0  0
  185.4140  171.9640  136.0940 C   0  0  0  0  0  0  0  0  0  0  0  0
  183.7400  173.2420  137.2260 C   0  0  1  0  0  3  0  0  0  0  0  0
  186.4240  173.0380  137.1000 S   0  0  0  0  0  0  0  0  0  0  0  0
  184.9820  174.1400  137.2590 C   0  0  1  0  0  3  0  0  0  0  0  0
  182.5760  173.9670  136.9520 O   0  0  0  0  0  1  0  0  0  0  0  0
  185.9030  171.1700  135.3070 O   0  0  0  0  0  0  0  0  0  0  0  0
  183.9460  172.1450  136.1970 C   0  0  0  0  0  2  0  0  0  0  0  0
  1  7  1  6  0  0  0
  1  5  1  0  0  0  0
  2  1  1  0  0  0  0
  2  4  1  0  0  0  0
  3  8  1  0  0  0  0
  4  3  1  0  0  0  0
  5  3  1  0  0  0  0
  7  6  1  0  0  0  0
  8  9  1  0  0  0  0
  9 10  1  0  0  0  0
 10 11  1  0  0  0  0
 11 19  1  6  0  0  0
 11 14  1  0  0  0  0
 12 15  1  6  0  0  0
 12 17  1  0  0  0  0
 13 17  2  0  0  0  0
 14 18  1  0  0  0  0
 14 15  1  0  0  0  0
 16 13  1  0  0  0  0
 18 16  1  1  0  0  0
 18 12  1  0  0  0  0
 20 19  1  0  0  0  0
 21 22  1  0  0  0  0
 21 20  1  0  0  0  0
 23  1  1  0  0  0  0
 24 23  1  0  0  0  0
 25 29  1  6  0  0  0
 25 28  1  0  0  0  0
 25 27  1  0  0  0  0
 26 25  1  0  0  0  0
 26 30  1  1  0  0  0
 28 34  1  6  0  0  0
 28 24  1  0  0  0  0
 28 27  1  0  0  0  0
 29 26  1  0  0  0  0
 30 31  1  0  0  0  0
 30 32  1  0  0  0  0
 33 30  1  0  0  0  0
 35 41  1  0  0  0  0
 35 37  1  0  0  0  0
 36 39  1  6  0  0  0
 36 38  1  0  0  0  0
 37 38  1  0  0  0  0
 38 34  1  6  0  0  0
 40 35  2  0  0  0  0
 41 36  1  0  0  0  0
M  END
>  <MODEL>
9

>  <REMARK>
 VINA RESULT:      -6.1      2.430      5.408
  Name = 
  15 active torsions:
  status: ('A' for Active; 'I' for Inactive)
    1  A    between atoms: C_2  and  N_26
    2  A    between atoms: C_2  and  C_30
    3  A    between atoms: C_5  and  C_32
    4  A    between atoms: C_6  and  C_7
    5  A    between atoms: N_11  and  C_31
    6  A    between atoms: C_12  and  C_19
    7  A    between atoms: C_12  and  N_21
    8  A    between atoms: C_15  and  N_21
    9  A    between atoms: C_15  and  C_39
   10  A    between atoms: C_19  and  C_41
   11  A    between atoms: C_23  and  C_41
   12  A    between atoms: C_30  and  N_34
   13  A    between atoms: C_31  and  N_34
   14  A    between atoms: C_31  and  N_40
   15  A    between atoms: C_32  and  N_40
                            x       y       z     vdW  Elec       q    Type
                         _______ _______ _______ _____ _____    ______ ____

>  <TORSDO>
F 15

$$$$
