=
 OpenBabel11032419303D

 31 33  0  0  1  0  0  0  0  0999 V2000
  185.8590  178.0000  142.3160 N   0  0  0  0  0  0  0  0  0  0  0  0
  188.2230  177.6570  146.4230 N   0  0  0  0  0  0  0  0  0  0  0  0
  185.3680  178.3900  144.6240 C   0  0  0  0  0  0  0  0  0  0  0  0
  183.7080  178.8740  142.9920 C   0  0  0  0  0  3  0  0  0  0  0  0
  186.2260  177.9730  143.6210 C   0  0  0  0  0  0  0  0  0  0  0  0
  188.3210  178.0220  148.8340 N   0  0  0  0  0  1  0  0  0  0  0  0
  184.6050  178.4420  141.9850 C   0  0  0  0  0  0  0  0  0  0  0  0
  187.4370  177.6000  144.1070 N   0  0  0  0  0  0  0  0  0  0  0  0
  186.0930  178.2660  145.7800 C   0  0  0  0  0  0  0  0  0  0  0  0
  187.6320  178.0400  147.5900 C   0  0  0  0  0  0  0  0  0  0  0  0
  186.0060  178.5680  147.4210 S   0  0  0  0  0  0  0  0  0  0  0  0
  187.3090  177.7960  145.4380 C   0  0  0  0  0  0  0  0  0  0  0  0
  184.0910  178.8560  144.3450 C   0  0  0  0  0  3  0  0  0  0  0  0
  188.6110  177.1790  143.3420 C   0  0  2  0  0  3  0  0  0  0  0  0
  189.4900  176.2580  144.1870 C   0  0  0  0  0  2  0  0  0  0  0  0
  190.3630  175.3810  143.3050 C   0  0  0  0  0  2  0  0  0  0  0  0
  191.6320  175.9360  144.9490 F   0  0  0  0  0  0  0  0  0  0  0  0
  191.6950  175.4740  143.7110 O   0  0  0  0  0  0  0  0  0  0  0  0
  189.4020  178.3940  142.8390 C   0  0  1  0  0  3  0  0  0  0  0  0
  191.6860  178.9750  143.6160 C   0  0  0  0  0  2  0  0  0  0  0  0
  190.3800  178.8900  143.8670 C   0  0  0  0  0  3  0  0  0  0  0  0
  190.1090  178.0730  141.6040 N   0  0  0  0  0  2  0  0  0  0  0  0
  189.1440  177.5000  140.6770 C   0  0  0  0  0  2  0  0  0  0  0  0
  188.8720  178.4710  139.5450 C   0  0  0  0  0  2  0  0  0  0  0  0
  187.9810  177.4890  137.0320 O   0  0  0  0  0  0  0  0  0  0  0  0
  185.6670  177.7550  137.5030 C   0  0  0  0  0  1  0  0  0  0  0  0
  187.4810  178.3640  139.1400 N   0  0  0  0  0  2  0  0  0  0  0  0
  187.1050  177.8540  137.8620 C   0  0  0  0  0  0  0  0  0  0  0  0
  184.1900  178.4810  140.6180 N   0  0  0  0  0  2  0  0  0  0  0  0
  182.8340  178.1590  140.1950 C   0  0  0  0  0  2  0  0  0  0  0  0
  182.7460  176.6990  139.7940 C   0  0  0  0  0  1  0  0  0  0  0  0
  1  5  1  0  0  0  0
  2 10  2  0  0  0  0
  3  9  1  0  0  0  0
  4 13  2  0  0  0  0
  5  8  1  0  0  0  0
  5  3  2  0  0  0  0
  7  1  2  0  0  0  0
  7  4  1  0  0  0  0
  8 12  1  0  0  0  0
  9 11  1  0  0  0  0
 10  6  1  0  0  0  0
 11 10  1  0  0  0  0
 12  9  2  0  0  0  0
 12  2  1  0  0  0  0
 13  3  1  0  0  0  0
 14  8  1  0  0  0  0
 14 15  1  1  0  0  0
 16 18  1  0  0  0  0
 16 15  1  0  0  0  0
 18 17  1  0  0  0  0
 19 14  1  0  0  0  0
 19 21  1  1  0  0  0
 20 21  2  0  0  0  0
 22 19  1  0  0  0  0
 23 22  1  0  0  0  0
 24 23  1  0  0  0  0
 25 28  2  0  0  0  0
 26 28  1  0  0  0  0
 27 24  1  0  0  0  0
 28 27  1  0  0  0  0
 29  7  1  0  0  0  0
 30 29  1  0  0  0  0
 31 30  1  0  0  0  0
M  END
>  <MODEL>
1

>  <REMARK>
 VINA RESULT:      -6.9      0.000      0.000
  Name = 
  12 active torsions:
  status: ('A' for Active; 'I' for Inactive)
    1  A    between atoms: C_4  and  O_14
    2  A    between atoms: C_4  and  C_19
    3  A    between atoms: N_5  and  C_26
    4  A    between atoms: N_5  and  C_28
    5  A    between atoms: C_6  and  C_19
    6  A    between atoms: C_6  and  N_20
    7  A    between atoms: C_6  and  C_28
    8  A    between atoms: C_8  and  N_18
    9  A    between atoms: C_16  and  N_18
   10  A    between atoms: N_17  and  C_22
   11  A    between atoms: C_22  and  C_26
   12  A    between atoms: C_24  and  C_28
                            x       y       z     vdW  Elec       q    Type
                         _______ _______ _______ _____ _____    ______ ____

>  <TORSDO>
F 12

$$$$
=
 OpenBabel11032419303D

 31 33  0  0  1  0  0  0  0  0999 V2000
  185.9020  177.8980  142.5390 N   0  0  0  0  0  0  0  0  0  0  0  0
  188.6220  177.6880  146.4280 N   0  0  0  0  0  0  0  0  0  0  0  0
  185.6170  178.3630  144.8670 C   0  0  0  0  0  0  0  0  0  0  0  0
  183.8170  178.7940  143.3750 C   0  0  0  0  0  3  0  0  0  0  0  0
  186.3830  177.9140  143.8060 C   0  0  0  0  0  0  0  0  0  0  0  0
  188.9340  178.1310  148.8080 N   0  0  0  0  0  1  0  0  0  0  0  0
  184.6220  178.3290  142.3070 C   0  0  0  0  0  0  0  0  0  0  0  0
  187.6340  177.5560  144.1950 N   0  0  0  0  0  0  0  0  0  0  0  0
  186.4420  178.2760  145.9580 C   0  0  0  0  0  0  0  0  0  0  0  0
  188.1370  178.1090  147.6300 C   0  0  0  0  0  0  0  0  0  0  0  0
  186.5010  178.6320  147.5900 S   0  0  0  0  0  0  0  0  0  0  0  0
  187.6250  177.7960  145.5240 C   0  0  0  0  0  0  0  0  0  0  0  0
  184.3190  178.8200  144.6880 C   0  0  0  0  0  3  0  0  0  0  0  0
  188.7360  177.1100  143.3420 C   0  0  2  0  0  3  0  0  0  0  0  0
  189.6450  176.1520  144.1110 C   0  0  0  0  0  2  0  0  0  0  0  0
  190.5430  175.3760  143.1630 C   0  0  0  0  0  2  0  0  0  0  0  0
  191.7320  175.7930  144.9030 F   0  0  0  0  0  0  0  0  0  0  0  0
  191.8410  175.3220  143.6720 O   0  0  0  0  0  0  0  0  0  0  0  0
  189.5260  178.3070  142.7960 C   0  0  1  0  0  3  0  0  0  0  0  0
  191.0060  179.8240  144.0860 C   0  0  0  0  0  2  0  0  0  0  0  0
  190.7430  178.6000  143.6270 C   0  0  0  0  0  3  0  0  0  0  0  0
  189.9210  178.0750  141.4110 N   0  0  0  0  0  2  0  0  0  0  0  0
  188.7070  177.9320  140.6220 C   0  0  0  0  0  2  0  0  0  0  0  0
  189.0160  177.2280  139.3150 C   0  0  0  0  0  2  0  0  0  0  0  0
  190.6920  175.1210  138.4050 O   0  0  0  0  0  0  0  0  0  0  0  0
  192.6530  176.4540  138.2550 C   0  0  0  0  0  1  0  0  0  0  0  0
  190.4310  177.3610  139.0170 N   0  0  0  0  0  2  0  0  0  0  0  0
  191.2120  176.2590  138.5560 C   0  0  0  0  0  0  0  0  0  0  0  0
  184.0860  178.3240  140.9820 N   0  0  0  0  0  2  0  0  0  0  0  0
  184.7420  178.9850  139.8630 C   0  0  0  0  0  2  0  0  0  0  0  0
  183.7210  179.7410  139.0330 C   0  0  0  0  0  1  0  0  0  0  0  0
  1  5  1  0  0  0  0
  2 10  2  0  0  0  0
  3  9  1  0  0  0  0
  4 13  2  0  0  0  0
  5  8  1  0  0  0  0
  5  3  2  0  0  0  0
  7  1  2  0  0  0  0
  7  4  1  0  0  0  0
  8 12  1  0  0  0  0
  9 11  1  0  0  0  0
 10  6  1  0  0  0  0
 11 10  1  0  0  0  0
 12  9  2  0  0  0  0
 12  2  1  0  0  0  0
 13  3  1  0  0  0  0
 14 15  1  1  0  0  0
 14  8  1  0  0  0  0
 16 18  1  0  0  0  0
 16 15  1  0  0  0  0
 18 17  1  0  0  0  0
 19 14  1  0  0  0  0
 19 21  1  1  0  0  0
 21 20  2  0  0  0  0
 22 19  1  0  0  0  0
 23 22  1  0  0  0  0
 24 23  1  0  0  0  0
 25 28  2  0  0  0  0
 26 28  1  0  0  0  0
 27 24  1  0  0  0  0
 28 27  1  0  0  0  0
 29  7  1  0  0  0  0
 30 29  1  0  0  0  0
 31 30  1  0  0  0  0
M  END
>  <MODEL>
2

>  <REMARK>
 VINA RESULT:      -6.8      1.469      1.942
  Name = 
  12 active torsions:
  status: ('A' for Active; 'I' for Inactive)
    1  A    between atoms: C_4  and  O_14
    2  A    between atoms: C_4  and  C_19
    3  A    between atoms: N_5  and  C_26
    4  A    between atoms: N_5  and  C_28
    5  A    between atoms: C_6  and  C_19
    6  A    between atoms: C_6  and  N_20
    7  A    between atoms: C_6  and  C_28
    8  A    between atoms: C_8  and  N_18
    9  A    between atoms: C_16  and  N_18
   10  A    between atoms: N_17  and  C_22
   11  A    between atoms: C_22  and  C_26
   12  A    between atoms: C_24  and  C_28
                            x       y       z     vdW  Elec       q    Type
                         _______ _______ _______ _____ _____    ______ ____

>  <TORSDO>
F 12

$$$$
=
 OpenBabel11032419303D

 31 33  0  0  1  0  0  0  0  0999 V2000
  186.6050  178.4870  144.5310 N   0  0  0  0  0  0  0  0  0  0  0  0
  185.2520  178.7850  139.9880 N   0  0  0  0  0  0  0  0  0  0  0  0
  184.5290  178.6930  143.3630 C   0  0  0  0  0  0  0  0  0  0  0  0
  184.5050  178.4810  145.7310 C   0  0  0  0  0  3  0  0  0  0  0  0
  185.9110  178.6280  143.3750 C   0  0  0  0  0  0  0  0  0  0  0  0
  183.4710  178.8450  138.3190 N   0  0  0  0  0  1  0  0  0  0  0  0
  185.9190  178.4170  145.7160 C   0  0  0  0  0  0  0  0  0  0  0  0
  186.4360  178.6750  142.1240 N   0  0  0  0  0  0  0  0  0  0  0  0
  184.1940  178.7840  142.0380 C   0  0  0  0  0  0  0  0  0  0  0  0
  183.9280  178.8260  139.6660 C   0  0  0  0  0  0  0  0  0  0  0  0
  182.8690  178.8230  141.0190 S   0  0  0  0  0  0  0  0  0  0  0  0
  185.3440  178.7710  141.3350 C   0  0  0  0  0  0  0  0  0  0  0  0
  183.7840  178.6170  144.5320 C   0  0  0  0  0  3  0  0  0  0  0  0
  187.8450  178.5560  141.7460 C   0  0  2  0  0  3  0  0  0  0  0  0
  187.9730  177.8300  140.4080 C   0  0  0  0  0  2  0  0  0  0  0  0
  188.9380  178.5560  139.4860 C   0  0  0  0  0  2  0  0  0  0  0  0
  189.2670  179.2870  137.4920 F   0  0  0  0  0  0  0  0  0  0  0  0
  188.2920  178.9050  138.2990 O   0  0  0  0  0  0  0  0  0  0  0  0
  188.6490  177.8450  142.8430 C   0  0  1  0  0  3  0  0  0  0  0  0
  189.7810  175.6360  142.8670 C   0  0  0  0  0  2  0  0  0  0  0  0
  188.6830  176.3560  142.6360 C   0  0  0  0  0  3  0  0  0  0  0  0
  190.0110  178.3640  142.9030 N   0  0  0  0  0  2  0  0  0  0  0  0
  190.3130  178.6550  144.2960 C   0  0  0  0  0  2  0  0  0  0  0  0
  191.6860  178.1190  144.6530 C   0  0  0  0  0  2  0  0  0  0  0  0
  192.1550  175.3880  145.2840 O   0  0  0  0  0  0  0  0  0  0  0  0
  191.8720  175.6560  147.6280 C   0  0  0  0  0  1  0  0  0  0  0  0
  191.6530  177.5580  145.9920 N   0  0  0  0  0  2  0  0  0  0  0  0
  191.9060  176.1750  146.2370 C   0  0  0  0  0  0  0  0  0  0  0  0
  186.6230  178.2700  146.9510 N   0  0  0  0  0  2  0  0  0  0  0  0
  187.9570  177.6920  147.0360 C   0  0  0  0  0  2  0  0  0  0  0  0
  188.6270  178.1140  148.3290 C   0  0  0  0  0  1  0  0  0  0  0  0
  1  7  2  0  0  0  0
  2 12  1  0  0  0  0
  3  5  2  0  0  0  0
  3 13  1  0  0  0  0
  5  1  1  0  0  0  0
  6 10  1  0  0  0  0
  7  4  1  0  0  0  0
  7 29  1  0  0  0  0
  8  5  1  0  0  0  0
  9  3  1  0  0  0  0
 10  2  2  0  0  0  0
 10 11  1  0  0  0  0
 11  9  1  0  0  0  0
 12  9  2  0  0  0  0
 12  8  1  0  0  0  0
 13  4  2  0  0  0  0
 14 15  1  6  0  0  0
 14  8  1  0  0  0  0
 14 19  1  0  0  0  0
 16 15  1  0  0  0  0
 17 18  1  0  0  0  0
 18 16  1  0  0  0  0
 19 21  1  6  0  0  0
 19 22  1  0  0  0  0
 21 20  2  0  0  0  0
 22 23  1  0  0  0  0
 23 24  1  0  0  0  0
 24 27  1  0  0  0  0
 25 28  2  0  0  0  0
 27 28  1  0  0  0  0
 28 26  1  0  0  0  0
 29 30  1  0  0  0  0
 30 31  1  0  0  0  0
M  END
>  <MODEL>
3

>  <REMARK>
 VINA RESULT:      -6.8      2.562      6.407
  Name = 
  12 active torsions:
  status: ('A' for Active; 'I' for Inactive)
    1  A    between atoms: C_4  and  O_14
    2  A    between atoms: C_4  and  C_19
    3  A    between atoms: N_5  and  C_26
    4  A    between atoms: N_5  and  C_28
    5  A    between atoms: C_6  and  C_19
    6  A    between atoms: C_6  and  N_20
    7  A    between atoms: C_6  and  C_28
    8  A    between atoms: C_8  and  N_18
    9  A    between atoms: C_16  and  N_18
   10  A    between atoms: N_17  and  C_22
   11  A    between atoms: C_22  and  C_26
   12  A    between atoms: C_24  and  C_28
                            x       y       z     vdW  Elec       q    Type
                         _______ _______ _______ _____ _____    ______ ____

>  <TORSDO>
F 12

$$$$
=
 OpenBabel11032419303D

 31 33  0  0  1  0  0  0  0  0999 V2000
  187.5940  177.7060  145.7510 N   0  0  0  0  0  0  0  0  0  0  0  0
  185.8030  178.1480  141.3740 N   0  0  0  0  0  0  0  0  0  0  0  0
  185.5160  178.4170  144.8040 C   0  0  0  0  0  0  0  0  0  0  0  0
  185.7370  178.3320  147.1700 C   0  0  0  0  0  3  0  0  0  0  0  0
  186.8210  177.9760  144.6700 C   0  0  0  0  0  0  0  0  0  0  0  0
  183.9060  178.6130  139.9100 N   0  0  0  0  0  1  0  0  0  0  0  0
  187.0700  177.8830  147.0060 C   0  0  0  0  0  0  0  0  0  0  0  0
  187.1770  177.8200  143.3700 N   0  0  0  0  0  0  0  0  0  0  0  0
  185.0520  178.5330  143.5200 C   0  0  0  0  0  0  0  0  0  0  0  0
  184.5080  178.5340  141.1960 C   0  0  0  0  0  0  0  0  0  0  0  0
  183.6670  178.8840  142.6530 S   0  0  0  0  0  0  0  0  0  0  0  0
  186.0590  178.1730  142.6990 C   0  0  0  0  0  0  0  0  0  0  0  0
  184.9320  178.6030  146.0500 C   0  0  0  0  0  3  0  0  0  0  0  0
  188.4430  177.3020  142.8510 C   0  0  2  0  0  3  0  0  0  0  0  0
  189.0760  176.3440  143.8590 C   0  0  0  0  0  2  0  0  0  0  0  0
  189.9440  175.3130  143.1580 C   0  0  0  0  0  2  0  0  0  0  0  0
  191.2870  175.9070  144.7270 F   0  0  0  0  0  0  0  0  0  0  0  0
  191.2890  175.5400  143.4570 O   0  0  0  0  0  0  0  0  0  0  0  0
  189.4010  178.4480  142.4970 C   0  0  1  0  0  3  0  0  0  0  0  0
  191.5570  178.9620  143.6130 C   0  0  0  0  0  2  0  0  0  0  0  0
  190.2290  178.8700  143.6780 C   0  0  0  0  0  3  0  0  0  0  0  0
  190.2760  178.0670  141.3940 N   0  0  0  0  0  2  0  0  0  0  0  0
  189.4460  177.4890  140.3490 C   0  0  0  0  0  2  0  0  0  0  0  0
  189.1590  178.5260  139.2800 C   0  0  0  0  0  2  0  0  0  0  0  0
  187.8120  179.2240  136.8780 O   0  0  0  0  0  0  0  0  0  0  0  0
  189.0800  177.7720  135.4890 C   0  0  0  0  0  1  0  0  0  0  0  0
  189.4490  177.9660  137.9720 N   0  0  0  0  0  2  0  0  0  0  0  0
  188.7340  178.3690  136.8040 C   0  0  0  0  0  0  0  0  0  0  0  0
  187.8600  177.6070  148.1640 N   0  0  0  0  0  2  0  0  0  0  0  0
  189.2200  178.0990  148.3270 C   0  0  0  0  0  2  0  0  0  0  0  0
  190.1980  177.1700  147.6330 C   0  0  0  0  0  1  0  0  0  0  0  0
  1  7  2  0  0  0  0
  2 12  1  0  0  0  0
  3 13  1  0  0  0  0
  5  3  2  0  0  0  0
  5  1  1  0  0  0  0
  6 10  1  0  0  0  0
  7  4  1  0  0  0  0
  7 29  1  0  0  0  0
  8  5  1  0  0  0  0
  9  3  1  0  0  0  0
 10  2  2  0  0  0  0
 10 11  1  0  0  0  0
 11  9  1  0  0  0  0
 12  8  1  0  0  0  0
 12  9  2  0  0  0  0
 13  4  2  0  0  0  0
 14  8  1  0  0  0  0
 14 15  1  1  0  0  0
 16 18  1  0  0  0  0
 16 15  1  0  0  0  0
 18 17  1  0  0  0  0
 19 14  1  0  0  0  0
 19 21  1  1  0  0  0
 20 21  2  0  0  0  0
 22 19  1  0  0  0  0
 23 22  1  0  0  0  0
 24 23  1  0  0  0  0
 26 28  1  0  0  0  0
 27 24  1  0  0  0  0
 28 25  2  0  0  0  0
 28 27  1  0  0  0  0
 29 30  1  0  0  0  0
 31 30  1  0  0  0  0
M  END
>  <MODEL>
4

>  <REMARK>
 VINA RESULT:      -6.6      1.581      4.491
  Name = 
  12 active torsions:
  status: ('A' for Active; 'I' for Inactive)
    1  A    between atoms: C_4  and  O_14
    2  A    between atoms: C_4  and  C_19
    3  A    between atoms: N_5  and  C_26
    4  A    between atoms: N_5  and  C_28
    5  A    between atoms: C_6  and  C_19
    6  A    between atoms: C_6  and  N_20
    7  A    between atoms: C_6  and  C_28
    8  A    between atoms: C_8  and  N_18
    9  A    between atoms: C_16  and  N_18
   10  A    between atoms: N_17  and  C_22
   11  A    between atoms: C_22  and  C_26
   12  A    between atoms: C_24  and  C_28
                            x       y       z     vdW  Elec       q    Type
                         _______ _______ _______ _____ _____    ______ ____

>  <TORSDO>
F 12

$$$$
=
 OpenBabel11032419303D

 31 33  0  0  1  0  0  0  0  0999 V2000
  187.4080  177.7190  145.1720 N   0  0  0  0  0  0  0  0  0  0  0  0
  186.9290  178.2130  140.4720 N   0  0  0  0  0  0  0  0  0  0  0  0
  185.7020  178.4970  143.6870 C   0  0  0  0  0  0  0  0  0  0  0  0
  185.2500  178.4080  146.0200 C   0  0  0  0  0  3  0  0  0  0  0  0
  186.9780  178.0130  143.9200 C   0  0  0  0  0  0  0  0  0  0  0  0
  185.5320  178.7400  138.5400 N   0  0  0  0  0  1  0  0  0  0  0  0
  186.5600  177.9140  146.2310 C   0  0  0  0  0  0  0  0  0  0  0  0
  187.6780  177.8430  142.7700 N   0  0  0  0  0  0  0  0  0  0  0  0
  185.6200  178.6260  142.3260 C   0  0  0  0  0  0  0  0  0  0  0  0
  185.7480  178.6420  139.9430 C   0  0  0  0  0  0  0  0  0  0  0  0
  184.5450  179.0230  141.1080 S   0  0  0  0  0  0  0  0  0  0  0  0
  186.8040  178.2320  141.8160 C   0  0  0  0  0  0  0  0  0  0  0  0
  184.8000  178.7040  144.7210 C   0  0  0  0  0  3  0  0  0  0  0  0
  189.0210  177.2820  142.6210 C   0  0  2  0  0  3  0  0  0  0  0  0
  189.3590  176.3950  143.8180 C   0  0  0  0  0  2  0  0  0  0  0  0
  190.2570  175.2420  143.4040 C   0  0  0  0  0  2  0  0  0  0  0  0
  191.4660  175.9340  145.0400 F   0  0  0  0  0  0  0  0  0  0  0  0
  191.5720  175.4970  143.7970 O   0  0  0  0  0  0  0  0  0  0  0  0
  190.0630  178.3950  142.4430 C   0  0  1  0  0  3  0  0  0  0  0  0
  191.9110  179.0100  143.9810 C   0  0  0  0  0  2  0  0  0  0  0  0
  190.6030  178.8730  143.7610 C   0  0  0  0  0  3  0  0  0  0  0  0
  191.1620  177.9420  141.5970 N   0  0  0  0  0  2  0  0  0  0  0  0
  190.6140  177.0170  140.6160 C   0  0  0  0  0  2  0  0  0  0  0  0
  190.8720  177.5340  139.2140 C   0  0  0  0  0  2  0  0  0  0  0  0
  193.5450  176.8540  138.5310 O   0  0  0  0  0  0  0  0  0  0  0  0
  192.9560  174.9890  137.1810 C   0  0  0  0  0  1  0  0  0  0  0  0
  191.2540  176.4280  138.3540 N   0  0  0  0  0  2  0  0  0  0  0  0
  192.6200  176.1400  138.0580 C   0  0  0  0  0  0  0  0  0  0  0  0
  186.9860  177.6140  147.5620 N   0  0  0  0  0  2  0  0  0  0  0  0
  188.3070  177.0850  147.8680 C   0  0  0  0  0  2  0  0  0  0  0  0
  189.2190  178.2020  148.3400 C   0  0  0  0  0  1  0  0  0  0  0  0
  1  7  2  0  0  0  0
  2 12  1  0  0  0  0
  3  5  2  0  0  0  0
  3 13  1  0  0  0  0
  4  7  1  0  0  0  0
  5  1  1  0  0  0  0
  6 10  1  0  0  0  0
  7 29  1  0  0  0  0
  8  5  1  0  0  0  0
  9  3  1  0  0  0  0
 10  2  2  0  0  0  0
 10 11  1  0  0  0  0
 11  9  1  0  0  0  0
 12  9  2  0  0  0  0
 12  8  1  0  0  0  0
 13  4  2  0  0  0  0
 14  8  1  0  0  0  0
 14 15  1  1  0  0  0
 16 18  1  0  0  0  0
 16 15  1  0  0  0  0
 18 17  1  0  0  0  0
 19 14  1  0  0  0  0
 19 21  1  1  0  0  0
 21 20  2  0  0  0  0
 22 19  1  0  0  0  0
 23 22  1  0  0  0  0
 24 23  1  0  0  0  0
 26 28  1  0  0  0  0
 27 24  1  0  0  0  0
 28 27  1  0  0  0  0
 28 25  2  0  0  0  0
 29 30  1  0  0  0  0
 30 31  1  0  0  0  0
M  END
>  <MODEL>
5

>  <REMARK>
 VINA RESULT:      -6.4      2.431      4.924
  Name = 
  12 active torsions:
  status: ('A' for Active; 'I' for Inactive)
    1  A    between atoms: C_4  and  O_14
    2  A    between atoms: C_4  and  C_19
    3  A    between atoms: N_5  and  C_26
    4  A    between atoms: N_5  and  C_28
    5  A    between atoms: C_6  and  C_19
    6  A    between atoms: C_6  and  N_20
    7  A    between atoms: C_6  and  C_28
    8  A    between atoms: C_8  and  N_18
    9  A    between atoms: C_16  and  N_18
   10  A    between atoms: N_17  and  C_22
   11  A    between atoms: C_22  and  C_26
   12  A    between atoms: C_24  and  C_28
                            x       y       z     vdW  Elec       q    Type
                         _______ _______ _______ _____ _____    ______ ____

>  <TORSDO>
F 12

$$$$
=
 OpenBabel11032419303D

 31 33  0  0  1  0  0  0  0  0999 V2000
  186.1750  178.0620  143.6100 N   0  0  0  0  0  0  0  0  0  0  0  0
  187.4320  178.6260  139.0640 N   0  0  0  0  0  0  0  0  0  0  0  0
  188.1460  177.6870  142.3100 C   0  0  0  0  0  0  0  0  0  0  0  0
  188.2120  177.2780  144.6510 C   0  0  0  0  0  3  0  0  0  0  0  0
  186.8180  178.0640  142.4180 C   0  0  0  0  0  0  0  0  0  0  0  0
  189.1530  178.5830  137.3330 N   0  0  0  0  0  1  0  0  0  0  0  0
  186.8540  177.6680  144.7340 C   0  0  0  0  0  0  0  0  0  0  0  0
  186.3010  178.4580  141.2260 N   0  0  0  0  0  0  0  0  0  0  0  0
  188.4530  177.8610  140.9860 C   0  0  0  0  0  0  0  0  0  0  0  0
  188.7100  178.3640  138.6670 C   0  0  0  0  0  0  0  0  0  0  0  0
  189.7340  177.7780  139.9150 S   0  0  0  0  0  0  0  0  0  0  0  0
  187.3420  178.3180  140.3760 C   0  0  0  0  0  0  0  0  0  0  0  0
  188.8840  177.2890  143.4160 C   0  0  0  0  0  3  0  0  0  0  0  0
  184.9630  178.9920  140.9710 C   0  0  2  0  0  3  0  0  0  0  0  0
  183.9170  178.1820  141.7350 C   0  0  0  0  0  2  0  0  0  0  0  0
  182.9710  179.0960  142.4960 C   0  0  0  0  0  2  0  0  0  0  0  0
  183.4200  179.5180  144.5550 F   0  0  0  0  0  0  0  0  0  0  0  0
  182.8010  178.6270  143.8000 O   0  0  0  0  0  0  0  0  0  0  0  0
  184.6590  179.0140  139.4670 C   0  0  1  0  0  3  0  0  0  0  0  0
  184.2590  176.9690  138.1210 C   0  0  0  0  0  2  0  0  0  0  0  0
  183.8350  177.8300  139.0450 C   0  0  0  0  0  3  0  0  0  0  0  0
  183.9720  180.2470  139.0980 N   0  0  0  0  0  2  0  0  0  0  0  0
  182.6390  179.8910  138.6350 C   0  0  0  0  0  2  0  0  0  0  0  0
  181.6540  180.9840  138.9980 C   0  0  0  0  0  2  0  0  0  0  0  0
  179.8670  182.7520  137.6720 O   0  0  0  0  0  0  0  0  0  0  0  0
  181.5370  184.3280  137.0590 C   0  0  0  0  0  1  0  0  0  0  0  0
  182.0410  182.2220  138.3440 N   0  0  0  0  0  2  0  0  0  0  0  0
  181.0870  183.0660  137.7020 C   0  0  0  0  0  0  0  0  0  0  0  0
  186.2010  177.6550  146.0060 N   0  0  0  0  0  2  0  0  0  0  0  0
  186.4390  178.6670  147.0250 C   0  0  0  0  0  2  0  0  0  0  0  0
  187.5350  178.2100  147.9680 C   0  0  0  0  0  1  0  0  0  0  0  0
  1  7  2  0  0  0  0
  2 12  1  0  0  0  0
  3  5  2  0  0  0  0
  3 13  1  0  0  0  0
  4  7  1  0  0  0  0
  5  1  1  0  0  0  0
  6 10  1  0  0  0  0
  7 29  1  0  0  0  0
  8  5  1  0  0  0  0
  9  3  1  0  0  0  0
 10  2  2  0  0  0  0
 10 11  1  0  0  0  0
 11  9  1  0  0  0  0
 12  9  2  0  0  0  0
 12  8  1  0  0  0  0
 13  4  2  0  0  0  0
 14  8  1  0  0  0  0
 14 15  1  1  0  0  0
 15 16  1  0  0  0  0
 16 18  1  0  0  0  0
 18 17  1  0  0  0  0
 19 21  1  1  0  0  0
 19 14  1  0  0  0  0
 20 21  2  0  0  0  0
 22 19  1  0  0  0  0
 23 24  1  0  0  0  0
 23 22  1  0  0  0  0
 25 28  2  0  0  0  0
 26 28  1  0  0  0  0
 27 24  1  0  0  0  0
 28 27  1  0  0  0  0
 29 30  1  0  0  0  0
 30 31  1  0  0  0  0
M  END
>  <MODEL>
6

>  <REMARK>
 VINA RESULT:      -6.2      3.963      7.158
  Name = 
  12 active torsions:
  status: ('A' for Active; 'I' for Inactive)
    1  A    between atoms: C_4  and  O_14
    2  A    between atoms: C_4  and  C_19
    3  A    between atoms: N_5  and  C_26
    4  A    between atoms: N_5  and  C_28
    5  A    between atoms: C_6  and  C_19
    6  A    between atoms: C_6  and  N_20
    7  A    between atoms: C_6  and  C_28
    8  A    between atoms: C_8  and  N_18
    9  A    between atoms: C_16  and  N_18
   10  A    between atoms: N_17  and  C_22
   11  A    between atoms: C_22  and  C_26
   12  A    between atoms: C_24  and  C_28
                            x       y       z     vdW  Elec       q    Type
                         _______ _______ _______ _____ _____    ______ ____

>  <TORSDO>
F 12

$$$$
=
 OpenBabel11032419303D

 31 33  0  0  1  0  0  0  0  0999 V2000
  186.7660  178.6250  140.8300 N   0  0  0  0  0  0  0  0  0  0  0  0
  191.1090  177.0640  139.7050 N   0  0  0  0  0  0  0  0  0  0  0  0
  187.9090  178.0140  138.8200 C   0  0  0  0  0  0  0  0  0  0  0  0
  185.6170  178.6360  138.7010 C   0  0  0  0  0  3  0  0  0  0  0  0
  187.8900  178.2210  140.1890 C   0  0  0  0  0  0  0  0  0  0  0  0
  192.6720  176.2010  138.0410 N   0  0  0  0  0  1  0  0  0  0  0  0
  185.6240  178.8420  140.1020 C   0  0  0  0  0  0  0  0  0  0  0  0
  189.0830  177.9310  140.7660 N   0  0  0  0  0  0  0  0  0  0  0  0
  189.1780  177.5730  138.5500 C   0  0  0  0  0  0  0  0  0  0  0  0
  191.4090  176.7380  138.4160 C   0  0  0  0  0  0  0  0  0  0  0  0
  190.1300  177.0030  137.3010 S   0  0  0  0  0  0  0  0  0  0  0  0
  189.8440  177.5360  139.7220 C   0  0  0  0  0  0  0  0  0  0  0  0
  186.7800  178.2080  138.0360 C   0  0  0  0  0  3  0  0  0  0  0  0
  189.4110  177.9580  142.1920 C   0  0  2  0  0  3  0  0  0  0  0  0
  190.8300  178.4840  142.3980 C   0  0  0  0  0  2  0  0  0  0  0  0
  190.9790  179.1210  143.7700 C   0  0  0  0  0  2  0  0  0  0  0  0
  191.5620  178.1260  145.5830 F   0  0  0  0  0  0  0  0  0  0  0  0
  192.0670  178.5590  144.4400 O   0  0  0  0  0  0  0  0  0  0  0  0
  189.2360  176.5690  142.8210 C   0  0  1  0  0  3  0  0  0  0  0  0
  191.0530  175.3420  143.9830 C   0  0  0  0  0  2  0  0  0  0  0  0
  190.5270  175.8000  142.8470 C   0  0  0  0  0  3  0  0  0  0  0  0
  188.7020  176.6790  144.1740 N   0  0  0  0  0  2  0  0  0  0  0  0
  187.2520  176.7510  144.0750 C   0  0  0  0  0  2  0  0  0  0  0  0
  186.7470  178.0120  144.7460 C   0  0  0  0  0  2  0  0  0  0  0  0
  184.4250  178.6160  146.2690 O   0  0  0  0  0  0  0  0  0  0  0  0
  183.0390  179.0500  144.3880 C   0  0  0  0  0  1  0  0  0  0  0  0
  185.4570  178.3750  144.1860 N   0  0  0  0  0  2  0  0  0  0  0  0
  184.3330  178.6730  145.0130 C   0  0  0  0  0  0  0  0  0  0  0  0
  184.4240  179.2690  140.7490 N   0  0  0  0  0  2  0  0  0  0  0  0
  183.1990  178.4830  140.7400 C   0  0  0  0  0  2  0  0  0  0  0  0
  182.1910  179.0990  139.7890 C   0  0  0  0  0  1  0  0  0  0  0  0
  2 12  1  0  0  0  0
  3  5  2  0  0  0  0
  4  7  1  0  0  0  0
  5  8  1  0  0  0  0
  5  1  1  0  0  0  0
  6 10  1  0  0  0  0
  7 29  1  0  0  0  0
  7  1  2  0  0  0  0
  8 14  1  0  0  0  0
  9  3  1  0  0  0  0
  9 12  2  0  0  0  0
 10  2  2  0  0  0  0
 11 10  1  0  0  0  0
 11  9  1  0  0  0  0
 12  8  1  0  0  0  0
 13  4  2  0  0  0  0
 13  3  1  0  0  0  0
 14 15  1  6  0  0  0
 14 19  1  0  0  0  0
 15 16  1  0  0  0  0
 16 18  1  0  0  0  0
 18 17  1  0  0  0  0
 19 21  1  1  0  0  0
 19 22  1  0  0  0  0
 21 20  2  0  0  0  0
 23 22  1  0  0  0  0
 23 24  1  0  0  0  0
 26 28  1  0  0  0  0
 27 24  1  0  0  0  0
 27 28  1  0  0  0  0
 28 25  2  0  0  0  0
 30 29  1  0  0  0  0
 31 30  1  0  0  0  0
M  END
>  <MODEL>
7

>  <REMARK>
 VINA RESULT:      -6.2      3.043      5.799
  Name = 
  12 active torsions:
  status: ('A' for Active; 'I' for Inactive)
    1  A    between atoms: C_4  and  O_14
    2  A    between atoms: C_4  and  C_19
    3  A    between atoms: N_5  and  C_26
    4  A    between atoms: N_5  and  C_28
    5  A    between atoms: C_6  and  C_19
    6  A    between atoms: C_6  and  N_20
    7  A    between atoms: C_6  and  C_28
    8  A    between atoms: C_8  and  N_18
    9  A    between atoms: C_16  and  N_18
   10  A    between atoms: N_17  and  C_22
   11  A    between atoms: C_22  and  C_26
   12  A    between atoms: C_24  and  C_28
                            x       y       z     vdW  Elec       q    Type
                         _______ _______ _______ _____ _____    ______ ____

>  <TORSDO>
F 12

$$$$
=
 OpenBabel11032419303D

 31 33  0  0  1  0  0  0  0  0999 V2000
  187.4530  177.7910  144.0510 N   0  0  0  0  0  0  0  0  0  0  0  0
  187.6320  178.5640  139.3680 N   0  0  0  0  0  0  0  0  0  0  0  0
  189.0260  177.3800  142.2970 C   0  0  0  0  0  0  0  0  0  0  0  0
  189.6170  176.8200  144.5310 C   0  0  0  0  0  3  0  0  0  0  0  0
  187.7930  177.8290  142.7400 C   0  0  0  0  0  0  0  0  0  0  0  0
  188.8830  178.5280  137.2720 N   0  0  0  0  0  1  0  0  0  0  0  0
  188.3490  177.2860  144.9580 C   0  0  0  0  0  0  0  0  0  0  0  0
  187.0380  178.3290  141.7290 N   0  0  0  0  0  0  0  0  0  0  0  0
  189.0220  177.6190  140.9480 C   0  0  0  0  0  0  0  0  0  0  0  0
  188.7550  178.2510  138.6620 C   0  0  0  0  0  0  0  0  0  0  0  0
  190.0010  177.5270  139.5960 S   0  0  0  0  0  0  0  0  0  0  0  0
  187.8330  178.1800  140.6470 C   0  0  0  0  0  0  0  0  0  0  0  0
  189.9740  176.8690  143.1720 C   0  0  0  0  0  3  0  0  0  0  0  0
  185.7210  178.9570  141.8300 C   0  0  2  0  0  3  0  0  0  0  0  0
  185.0350  178.5410  143.1300 C   0  0  0  0  0  2  0  0  0  0  0  0
  184.5250  179.7540  143.8890 C   0  0  0  0  0  2  0  0  0  0  0  0
  184.5010  178.1880  145.3600 F   0  0  0  0  0  0  0  0  0  0  0  0
  184.5560  179.5050  145.2620 O   0  0  0  0  0  0  0  0  0  0  0  0
  184.8540  178.6150  140.6100 C   0  0  1  0  0  3  0  0  0  0  0  0
  183.0620  176.9510  140.1910 C   0  0  0  0  0  2  0  0  0  0  0  0
  183.6180  177.8540  140.9980 C   0  0  0  0  0  3  0  0  0  0  0  0
  184.4800  179.8250  139.8870 N   0  0  0  0  0  2  0  0  0  0  0  0
  183.6800  179.4270  138.7390 C   0  0  0  0  0  2  0  0  0  0  0  0
  182.5000  180.3640  138.5770 C   0  0  0  0  0  2  0  0  0  0  0  0
  180.7770  179.9890  140.8050 O   0  0  0  0  0  0  0  0  0  0  0  0
  179.1920  178.6620  139.6330 C   0  0  0  0  0  1  0  0  0  0  0  0
  181.2690  179.5930  138.5560 N   0  0  0  0  0  2  0  0  0  0  0  0
  180.4480  179.4520  139.7140 C   0  0  0  0  0  0  0  0  0  0  0  0
  188.0190  177.2320  146.3470 N   0  0  0  0  0  2  0  0  0  0  0  0
  188.9920  177.4840  147.4000 C   0  0  0  0  0  2  0  0  0  0  0  0
  188.3400  178.2380  148.5440 C   0  0  0  0  0  1  0  0  0  0  0  0
  1  7  2  0  0  0  0
  2 12  1  0  0  0  0
  3  5  2  0  0  0  0
  3 13  1  0  0  0  0
  4  7  1  0  0  0  0
  5  1  1  0  0  0  0
  6 10  1  0  0  0  0
  7 29  1  0  0  0  0
  8 14  1  0  0  0  0
  8  5  1  0  0  0  0
  9  3  1  0  0  0  0
 10  2  2  0  0  0  0
 10 11  1  0  0  0  0
 11  9  1  0  0  0  0
 12  9  2  0  0  0  0
 12  8  1  0  0  0  0
 13  4  2  0  0  0  0
 14 15  1  1  0  0  0
 15 16  1  0  0  0  0
 16 18  1  0  0  0  0
 18 17  1  0  0  0  0
 19 21  1  1  0  0  0
 19 14  1  0  0  0  0
 20 21  2  0  0  0  0
 22 19  1  0  0  0  0
 23 22  1  0  0  0  0
 24 23  1  0  0  0  0
 26 28  1  0  0  0  0
 27 24  1  0  0  0  0
 27 28  1  0  0  0  0
 28 25  2  0  0  0  0
 29 30  1  0  0  0  0
 30 31  1  0  0  0  0
M  END
>  <MODEL>
8

>  <REMARK>
 VINA RESULT:      -6.2      3.384      6.982
  Name = 
  12 active torsions:
  status: ('A' for Active; 'I' for Inactive)
    1  A    between atoms: C_4  and  O_14
    2  A    between atoms: C_4  and  C_19
    3  A    between atoms: N_5  and  C_26
    4  A    between atoms: N_5  and  C_28
    5  A    between atoms: C_6  and  C_19
    6  A    between atoms: C_6  and  N_20
    7  A    between atoms: C_6  and  C_28
    8  A    between atoms: C_8  and  N_18
    9  A    between atoms: C_16  and  N_18
   10  A    between atoms: N_17  and  C_22
   11  A    between atoms: C_22  and  C_26
   12  A    between atoms: C_24  and  C_28
                            x       y       z     vdW  Elec       q    Type
                         _______ _______ _______ _____ _____    ______ ____

>  <TORSDO>
F 12

$$$$
=
 OpenBabel11032419303D

 31 33  0  0  1  0  0  0  0  0999 V2000
  187.8050  177.6810  144.2130 N   0  0  0  0  0  0  0  0  0  0  0  0
  187.8030  178.6270  139.5580 N   0  0  0  0  0  0  0  0  0  0  0  0
  189.3160  177.3530  142.3890 C   0  0  0  0  0  0  0  0  0  0  0  0
  189.9940  176.7190  144.5780 C   0  0  0  0  0  3  0  0  0  0  0  0
  188.0960  177.7720  142.8930 C   0  0  0  0  0  0  0  0  0  0  0  0
  188.9770  178.6820  137.4190 N   0  0  0  0  0  1  0  0  0  0  0  0
  188.7390  177.1540  145.0670 C   0  0  0  0  0  0  0  0  0  0  0  0
  187.2990  178.2990  141.9290 N   0  0  0  0  0  0  0  0  0  0  0  0
  189.2600  177.6420  141.0510 C   0  0  0  0  0  0  0  0  0  0  0  0
  188.9030  178.3530  138.8010 C   0  0  0  0  0  0  0  0  0  0  0  0
  190.1890  177.6100  139.6620 S   0  0  0  0  0  0  0  0  0  0  0  0
  188.0550  178.1990  140.8140 C   0  0  0  0  0  0  0  0  0  0  0  0
  190.3010  176.8220  143.2100 C   0  0  0  0  0  3  0  0  0  0  0  0
  185.9800  178.9080  142.1010 C   0  0  2  0  0  3  0  0  0  0  0  0
  185.3750  178.4900  143.4400 C   0  0  0  0  0  2  0  0  0  0  0  0
  184.9160  179.7030  144.2320 C   0  0  0  0  0  2  0  0  0  0  0  0
  183.0630  178.9740  145.0400 F   0  0  0  0  0  0  0  0  0  0  0  0
  184.2910  179.2930  145.4110 O   0  0  0  0  0  0  0  0  0  0  0  0
  185.0510  178.5440  140.9350 C   0  0  1  0  0  3  0  0  0  0  0  0
  182.6550  178.6270  141.5730 C   0  0  0  0  0  2  0  0  0  0  0  0
  183.7710  177.9170  141.4130 C   0  0  0  0  0  3  0  0  0  0  0  0
  184.7500  179.7210  140.1280 N   0  0  0  0  0  2  0  0  0  0  0  0
  184.1670  179.2640  138.8760 C   0  0  0  0  0  2  0  0  0  0  0  0
  185.1570  178.3910  138.1300 C   0  0  0  0  0  2  0  0  0  0  0  0
  186.4630  176.1170  137.0360 O   0  0  0  0  0  0  0  0  0  0  0  0
  184.4690  174.8810  136.6600 C   0  0  0  0  0  1  0  0  0  0  0  0
  184.4840  177.1940  137.6540 N   0  0  0  0  0  2  0  0  0  0  0  0
  185.2060  176.0850  137.1210 C   0  0  0  0  0  0  0  0  0  0  0  0
  188.4600  177.0460  146.4650 N   0  0  0  0  0  2  0  0  0  0  0  0
  187.4900  177.8920  147.1450 C   0  0  0  0  0  2  0  0  0  0  0  0
  187.9930  178.2540  148.5290 C   0  0  0  0  0  1  0  0  0  0  0  0
  1  7  2  0  0  0  0
  2 12  1  0  0  0  0
  3  5  2  0  0  0  0
  3 13  1  0  0  0  0
  4  7  1  0  0  0  0
  5  1  1  0  0  0  0
  6 10  1  0  0  0  0
  7 29  1  0  0  0  0
  8 14  1  0  0  0  0
  8  5  1  0  0  0  0
  9  3  1  0  0  0  0
 10  2  2  0  0  0  0
 10 11  1  0  0  0  0
 11  9  1  0  0  0  0
 12  9  2  0  0  0  0
 12  8  1  0  0  0  0
 13  4  2  0  0  0  0
 14 15  1  1  0  0  0
 15 16  1  0  0  0  0
 16 18  1  0  0  0  0
 17 18  1  0  0  0  0
 19 21  1  1  0  0  0
 19 14  1  0  0  0  0
 21 20  2  0  0  0  0
 22 19  1  0  0  0  0
 23 22  1  0  0  0  0
 24 23  1  0  0  0  0
 25 28  2  0  0  0  0
 26 28  1  0  0  0  0
 27 24  1  0  0  0  0
 28 27  1  0  0  0  0
 29 30  1  0  0  0  0
 30 31  1  0  0  0  0
M  END
>  <MODEL>
9

>  <REMARK>
 VINA RESULT:      -6.1      3.123      6.456
  Name = 
  12 active torsions:
  status: ('A' for Active; 'I' for Inactive)
    1  A    between atoms: C_4  and  O_14
    2  A    between atoms: C_4  and  C_19
    3  A    between atoms: N_5  and  C_26
    4  A    between atoms: N_5  and  C_28
    5  A    between atoms: C_6  and  C_19
    6  A    between atoms: C_6  and  N_20
    7  A    between atoms: C_6  and  C_28
    8  A    between atoms: C_8  and  N_18
    9  A    between atoms: C_16  and  N_18
   10  A    between atoms: N_17  and  C_22
   11  A    between atoms: C_22  and  C_26
   12  A    between atoms: C_24  and  C_28
                            x       y       z     vdW  Elec       q    Type
                         _______ _______ _______ _____ _____    ______ ____

>  <TORSDO>
F 12

$$$$
