=
 OpenBabel11042412143D

 67 75  0  0  1  0  0  0  0  0999 V2000
  190.9510  176.5280  139.9490 C   0  0  1  0  0  3  0  0  0  0  0  0
  184.5120  177.8970  137.4260 N   0  0  0  0  0  0  0  0  0  0  0  0
  185.0810  178.7520  139.5830 C   0  0  0  0  0  3  0  0  0  0  0  0
  188.4830  177.1820  137.2010 C   0  0  1  0  0  3  0  0  0  0  0  0
  187.8650  177.5100  138.3140 C   0  0  1  0  0  3  0  0  0  0  0  0
  183.8660  179.4570  139.5820 C   0  0  0  0  0  3  0  0  0  0  0  0
  189.8660  176.7300  137.5310 C   0  0  1  0  0  3  0  0  0  0  0  0
  186.4610  177.2050  138.1790 C   0  0  1  0  0  3  0  0  0  0  0  0
  187.5370  176.6720  136.1390 C   0  0  0  0  0  2  0  0  0  0  0  0
  189.8300  176.9280  139.0280 C   0  0  0  0  0  0  0  0  0  0  0  0
  185.0690  177.2350  136.4210 N   0  0  0  0  0  2  0  0  0  0  0  0
  182.9840  179.3680  138.4880 C   0  0  0  0  0  0  0  0  0  0  0  0
  188.6690  177.3160  139.4620 N   0  0  0  0  0  0  0  0  0  0  0  0
  185.3480  177.9490  138.4800 C   0  0  2  0  0  3  0  0  0  0  0  0
  183.3430  178.5800  137.3780 C   0  0  0  0  0  3  0  0  0  0  0  0
  186.2500  176.7810  136.8950 C   0  0  2  0  0  3  0  0  0  0  0  0
  190.0070  175.3700  137.2410 O   0  0  0  0  0  0  0  0  0  0  0  0
  190.4680  175.3310  135.9230 C   0  0  0  0  0  1  0  0  0  0  0  0
  181.7480  180.0870  138.5190 N   0  0  0  0  0  2  0  0  0  0  0  0
  180.1560  181.2830  137.3170 O   0  0  0  0  0  1  0  0  0  0  0  0
  180.7760  180.0380  137.4350 C   0  0  2  0  0  3  0  0  0  0  0  0
  180.0510  176.7270  137.2180 C   0  0  0  0  0  2  0  0  0  0  0  0
  179.7570  178.0000  136.6580 O   0  0  0  0  0  0  0  0  0  0  0  0
  180.3030  176.8840  138.6340 N   0  0  0  0  0  0  0  0  0  0  0  0
  179.7350  178.9560  137.7070 C   0  0  1  0  0  3  0  0  0  0  0  0
  180.0630  178.2270  138.9460 C   0  0  0  0  0  0  0  0  0  0  0  0
  179.6170  178.7370  140.4370 S   0  0  0  0  0  0  0  0  0  0  0  0
  178.9310  175.1650  139.6910 C   0  0  0  0  0  1  0  0  0  0  0  0
  180.3130  175.7820  139.5860 C   0  0  0  0  0  2  0  0  0  0  0  0
  192.8340  176.1520  138.3150 N   0  0  0  0  0  2  0  0  0  0  0  0
  192.2810  176.9210  139.3810 C   0  0  0  0  0  0  0  0  0  0  0  0
  192.8940  177.9280  139.8290 O   0  0  0  0  0  0  0  0  0  0  0  0
  195.1390  176.0480  135.4900 C   0  0  0  0  0  2  0  0  0  0  0  0
  194.5940  175.3880  136.7390 C   0  0  2  0  0  0  0  0  0  0  0  0
  193.9910  176.6890  136.2410 C   0  0  1  0  0  3  0  0  0  0  0  0
  194.1360  176.4550  137.7320 C   0  0  1  0  0  3  0  0  0  0  0  0
  193.5860  174.2860  136.4180 C   0  0  0  0  0  2  0  0  0  0  0  0
  194.0440  173.0590  136.9020 O   0  0  0  0  0  0  0  0  0  0  0  0
  195.3370  173.3140  137.3610 C   0  0  0  0  0  2  0  0  0  0  0  0
  196.3400  172.3830  136.6780 C   0  0  1  0  0  3  0  0  0  0  0  0
  197.8200  172.7310  137.0040 C   0  0  0  0  0  0  0  0  0  0  0  0
  198.5970  171.4670  137.3350 C   0  0  0  0  0  1  0  0  0  0  0  0
  197.9340  173.6630  138.2150 C   0  0  0  0  0  2  0  0  0  0  0  0
  198.7020  174.7930  137.9240 O   0  0  0  0  0  1  0  0  0  0  0  0
  197.8010  173.1680  134.6180 O   0  0  0  0  0  1  0  0  0  0  0  0
  198.5120  173.3850  135.8020 C   0  0  0  0  0  2  0  0  0  0  0  0
  196.0010  170.9340  137.0280 C   0  0  0  0  0  2  0  0  0  0  0  0
  195.1920  169.6610  135.1700 O   0  0  0  0  0  1  0  0  0  0  0  0
  196.3450  169.9960  135.8830 C   0  0  0  0  0  2  0  0  0  0  0  0
  190.7740  177.1020  141.3540 C   0  0  0  0  0  2  0  0  0  0  0  0
  190.0340  176.1290  142.2620 C   0  0  1  0  0  3  0  0  0  0  0  0
  190.8260  175.0130  142.5460 O   0  0  0  0  0  1  0  0  0  0  0  0
  189.6050  176.8190  143.5510 C   0  0  0  0  0  2  0  0  0  0  0  0
  191.0170  177.5420  144.4500 S   0  0  0  0  0  0  0  0  0  0  0  0
  189.9370  178.2710  145.7080 C   0  0  0  0  0  2  0  0  0  0  0  0
  188.6350  177.4870  145.7750 C   0  0  0  0  0  2  0  0  0  0  0  0
  183.9040  178.0590  144.9860 C   0  0  2  0  0  3  0  0  0  0  0  0
  183.2560  179.2150  145.4370 O   0  0  0  0  0  1  0  0  0  0  0  0
  186.9230  178.5740  147.6660 S   0  0  0  0  0  0  0  0  0  0  0  0
  187.4200  178.4020  145.9210 C   0  0  2  0  0  3  0  0  0  0  0  0
  185.1590  178.4380  147.2190 C   0  0  0  0  0  2  0  0  0  0  0  0
  184.1550  179.4990  143.0340 O   0  0  0  0  0  1  0  0  0  0  0  0
  185.0660  177.6480  145.9230 C   0  0  2  0  0  3  0  0  0  0  0  0
  186.8560  178.5350  143.0050 O   0  0  0  0  0  0  0  0  0  0  0  0
  186.2830  177.8800  145.1860 N   0  0  0  0  0  0  0  0  0  0  0  0
  185.9740  178.2470  143.8580 C   0  0  0  0  0  0  0  0  0  0  0  0
  184.5230  178.2680  143.5870 C   0  0  1  0  0  3  0  0  0  0  0  0
  1 50  1  1  0  0  0
  2 14  1  0  0  0  0
  4  9  1  1  0  0  0
  4  7  1  0  0  0  0
  4  5  1  0  0  0  0
  5 13  1  1  0  0  0
  6  3  2  0  0  0  0
  7 17  1  1  0  0  0
  7 10  1  0  0  0  0
  8  5  1  0  0  0  0
  8 14  1  0  0  0  0
  9 16  1  0  0  0  0
 10 13  2  0  0  0  0
 10  1  1  0  0  0  0
 11 16  1  0  0  0  0
 11  2  1  0  0  0  0
 12 19  1  0  0  0  0
 12  6  1  0  0  0  0
 14  3  1  0  0  0  0
 15  2  1  0  0  0  0
 15 12  2  0  0  0  0
 16  8  1  0  0  0  0
 18 17  1  0  0  0  0
 20 21  1  0  0  0  0
 21 25  1  0  0  0  0
 21 19  1  0  0  0  0
 22 24  1  0  0  0  0
 23 22  1  0  0  0  0
 23 25  1  0  0  0  0
 24 26  1  0  0  0  0
 24 29  1  0  0  0  0
 25 26  1  0  0  0  0
 26 27  2  0  0  0  0
 29 28  1  0  0  0  0
 30 31  1  0  0  0  0
 31 32  2  0  0  0  0
 31  1  1  0  0  0  0
 33 35  1  0  0  0  0
 33 34  1  0  0  0  0
 34 36  1  0  0  0  0
 35 34  1  0  0  0  0
 35 36  1  0  0  0  0
 36 30  1  0  0  0  0
 37 34  1  0  0  0  0
 37 38  1  0  0  0  0
 38 39  1  0  0  0  0
 40 41  1  0  0  0  0
 40 47  1  0  0  0  0
 40 39  1  0  0  0  0
 41 42  1  0  0  0  0
 41 43  1  0  0  0  0
 44 43  1  0  0  0  0
 45 46  1  0  0  0  0
 46 41  1  0  0  0  0
 48 49  1  0  0  0  0
 49 47  1  0  0  0  0
 50 51  1  0  0  0  0
 51 52  1  0  0  0  0
 51 53  1  0  0  0  0
 53 54  1  0  0  0  0
 54 55  1  0  0  0  0
 55 56  1  0  0  0  0
 56 60  1  0  0  0  0
 57 58  1  0  0  0  0
 57 63  1  0  0  0  0
 60 59  1  0  0  0  0
 61 59  1  0  0  0  0
 62 67  1  0  0  0  0
 63 61  1  0  0  0  0
 64 66  2  0  0  0  0
 65 60  1  0  0  0  0
 65 63  1  0  0  0  0
 66 65  1  0  0  0  0
 67 66  1  0  0  0  0
 67 57  1  0  0  0  0
M  END
>  <MODEL>
1

>  <REMARK>
 VINA RESULT:      -4.6      0.000      0.000
  Name = 
  24 active torsions:
  status: ('A' for Active; 'I' for Inactive)
    1  A    between atoms: C_3  and  C_15
    2  A    between atoms: C_3  and  C_17
    3  A    between atoms: C_3  and  C_27
    4  A    between atoms: O_7  and  C_20
    5  A    between atoms: O_7  and  C_45
    6  A    between atoms: C_8  and  C_31
    7  A    between atoms: N_11  and  C_61
    8  A    between atoms: C_12  and  C_37
    9  A    between atoms: C_12  and  C_49
   10  A    between atoms: O_18  and  C_29
   11  A    between atoms: C_19  and  C_60
   12  A    between atoms: C_20  and  C_27
   13  A    between atoms: C_23  and  C_45
   14  A    between atoms: C_25  and  C_59
   15  A    between atoms: C_27  and  C_59
   16  A    between atoms: C_30  and  C_31
   17  A    between atoms: C_30  and  S_51
   18  A    between atoms: N_34  and  C_42
   19  A    between atoms: N_34  and  C_54
   20  A    between atoms: C_36  and  C_60
   21  A    between atoms: C_37  and  S_51
   22  A    between atoms: N_43  and  C_55
   23  A    between atoms: C_47  and  C_54
   24  A    between atoms: C_49  and  C_60
                            x       y       z     vdW  Elec       q    Type
                         _______ _______ _______ _____ _____    ______ ____

>  <TORSDO>
F 24

$$$$
=
 OpenBabel11042412143D

 67 75  0  0  1  0  0  0  0  0999 V2000
  190.5680  176.3870  138.8820 C   0  0  1  0  0  3  0  0  0  0  0  0
  184.0850  175.4560  136.2750 N   0  0  0  0  0  0  0  0  0  0  0  0
  184.4860  177.3800  137.6340 C   0  0  0  0  0  3  0  0  0  0  0  0
  188.1170  175.2000  136.3020 C   0  0  1  0  0  3  0  0  0  0  0  0
  187.4340  175.9900  137.0990 C   0  0  1  0  0  3  0  0  0  0  0  0
  183.1960  177.8310  137.3100 C   0  0  0  0  0  3  0  0  0  0  0  0
  189.5350  175.1550  136.7660 C   0  0  1  0  0  3  0  0  0  0  0  0
  186.0810  175.4990  137.2020 C   0  0  1  0  0  3  0  0  0  0  0  0
  187.2690  174.1000  135.7080 C   0  0  0  0  0  2  0  0  0  0  0  0
  189.4330  176.1070  137.9340 C   0  0  0  0  0  0  0  0  0  0  0  0
  184.7450  174.4340  135.7480 N   0  0  0  0  0  2  0  0  0  0  0  0
  182.3620  177.0750  136.4630 C   0  0  0  0  0  0  0  0  0  0  0  0
  188.2230  176.5270  138.1450 N   0  0  0  0  0  0  0  0  0  0  0  0
  184.8780  176.1530  137.1100 C   0  0  2  0  0  3  0  0  0  0  0  0
  182.8440  175.8690  135.9220 C   0  0  0  0  0  3  0  0  0  0  0  0
  185.9590  174.4400  136.3430 C   0  0  2  0  0  3  0  0  0  0  0  0
  189.8470  173.8740  137.2300 O   0  0  0  0  0  0  0  0  0  0  0  0
  190.3310  173.1950  136.1100 C   0  0  0  0  0  1  0  0  0  0  0  0
  181.0480  177.5530  136.1600 N   0  0  0  0  0  2  0  0  0  0  0  0
  181.7250  179.6940  136.7670 O   0  0  0  0  0  1  0  0  0  0  0  0
  180.6120  178.9110  136.4580 C   0  0  2  0  0  3  0  0  0  0  0  0
  179.8310  177.5280  139.4600 C   0  0  0  0  0  2  0  0  0  0  0  0
  179.4490  177.5800  138.0920 O   0  0  0  0  0  0  0  0  0  0  0  0
  180.3440  178.8230  139.8530 N   0  0  0  0  0  0  0  0  0  0  0  0
  179.6300  178.9080  137.6260 C   0  0  1  0  0  3  0  0  0  0  0  0
  180.1770  179.6780  138.7580 C   0  0  0  0  0  0  0  0  0  0  0  0
  180.0210  181.3020  138.9030 S   0  0  0  0  0  0  0  0  0  0  0  0
  179.8920  178.2320  142.1770 C   0  0  0  0  0  1  0  0  0  0  0  0
  180.5220  179.2420  141.2370 C   0  0  0  0  0  2  0  0  0  0  0  0
  191.9570  176.2310  136.7830 N   0  0  0  0  0  2  0  0  0  0  0  0
  191.8370  176.6670  138.1360 C   0  0  0  0  0  0  0  0  0  0  0  0
  192.7800  177.2950  138.6920 O   0  0  0  0  0  0  0  0  0  0  0  0
  194.5790  174.9410  134.6000 C   0  0  0  0  0  2  0  0  0  0  0  0
  194.0850  175.2150  136.0050 C   0  0  2  0  0  0  0  0  0  0  0  0
  193.1890  175.5010  134.8140 C   0  0  1  0  0  3  0  0  0  0  0  0
  193.1720  176.4410  136.0030 C   0  0  1  0  0  3  0  0  0  0  0  0
  193.5330  173.9620  136.6810 C   0  0  0  0  0  2  0  0  0  0  0  0
  194.3840  172.8780  136.4540 O   0  0  0  0  0  0  0  0  0  0  0  0
  195.2070  172.8280  137.5810 C   0  0  0  0  0  2  0  0  0  0  0  0
  196.6180  172.3830  137.1920 C   0  0  1  0  0  3  0  0  0  0  0  0
  196.7100  170.8720  136.8390 C   0  0  0  0  0  0  0  0  0  0  0  0
  198.1640  170.4290  136.7980 C   0  0  0  0  0  1  0  0  0  0  0  0
  196.1060  170.5700  135.4640 C   0  0  0  0  0  2  0  0  0  0  0  0
  196.8850  169.6550  134.7500 O   0  0  0  0  0  1  0  0  0  0  0  0
  194.7040  169.6830  137.5070 O   0  0  0  0  0  1  0  0  0  0  0  0
  196.0060  170.0130  137.8960 C   0  0  0  0  0  2  0  0  0  0  0  0
  197.1310  173.2700  136.0570 C   0  0  0  0  0  2  0  0  0  0  0  0
  198.1130  174.3060  137.9770 O   0  0  0  0  0  1  0  0  0  0  0  0
  197.9980  174.3990  136.5890 C   0  0  0  0  0  2  0  0  0  0  0  0
  190.2460  177.5300  139.8440 C   0  0  0  0  0  2  0  0  0  0  0  0
  189.1060  177.1600  140.7830 C   0  0  1  0  0  3  0  0  0  0  0  0
  189.5790  176.4330  141.8790 O   0  0  0  0  0  1  0  0  0  0  0  0
  188.3690  178.4090  141.2510 C   0  0  0  0  0  2  0  0  0  0  0  0
  186.6160  178.4060  140.7460 S   0  0  0  0  0  0  0  0  0  0  0  0
  186.0460  178.4280  142.4650 C   0  0  0  0  0  2  0  0  0  0  0  0
  187.2440  178.3620  143.3990 C   0  0  0  0  0  2  0  0  0  0  0  0
  188.0940  178.1400  148.1480 C   0  0  2  0  0  3  0  0  0  0  0  0
  187.3610  177.2560  148.9480 O   0  0  0  0  0  1  0  0  0  0  0  0
  185.2160  178.0960  145.2710 S   0  0  0  0  0  0  0  0  0  0  0  0
  186.9050  177.6810  144.7240 C   0  0  2  0  0  3  0  0  0  0  0  0
  185.7820  178.2990  146.9940 C   0  0  0  0  0  2  0  0  0  0  0  0
  189.5210  176.1650  148.0480 O   0  0  0  0  0  1  0  0  0  0  0  0
  187.2550  178.6730  146.9610 C   0  0  2  0  0  3  0  0  0  0  0  0
  189.6810  176.7520  145.2460 O   0  0  0  0  0  0  0  0  0  0  0  0
  187.8230  178.0910  145.7700 N   0  0  0  0  0  0  0  0  0  0  0  0
  189.0000  177.3830  146.0990 C   0  0  0  0  0  0  0  0  0  0  0  0
  189.3340  177.4520  147.5350 C   0  0  1  0  0  3  0  0  0  0  0  0
  1 50  1  6  0  0  0
  2 14  1  0  0  0  0
  4  9  1  1  0  0  0
  4  7  1  0  0  0  0
  4  5  1  0  0  0  0
  5  8  1  0  0  0  0
  5 13  1  1  0  0  0
  6  3  2  0  0  0  0
  7 17  1  1  0  0  0
  7 10  1  0  0  0  0
  9 16  1  0  0  0  0
 10 13  2  0  0  0  0
 10  1  1  0  0  0  0
 11  2  1  0  0  0  0
 11 16  1  0  0  0  0
 12  6  1  0  0  0  0
 14  8  1  0  0  0  0
 14  3  1  0  0  0  0
 15  2  1  0  0  0  0
 15 12  2  0  0  0  0
 16  8  1  0  0  0  0
 18 17  1  0  0  0  0
 19 21  1  0  0  0  0
 19 12  1  0  0  0  0
 21 20  1  0  0  0  0
 21 25  1  0  0  0  0
 22 24  1  0  0  0  0
 23 22  1  0  0  0  0
 24 29  1  0  0  0  0
 25 23  1  0  0  0  0
 25 26  1  0  0  0  0
 26 27  2  0  0  0  0
 26 24  1  0  0  0  0
 29 28  1  0  0  0  0
 30 31  1  0  0  0  0
 31 32  2  0  0  0  0
 31  1  1  0  0  0  0
 33 35  1  0  0  0  0
 33 34  1  0  0  0  0
 34 37  1  0  0  0  0
 35 36  1  0  0  0  0
 35 34  1  0  0  0  0
 36 34  1  0  0  0  0
 36 30  1  0  0  0  0
 38 37  1  0  0  0  0
 38 39  1  0  0  0  0
 40 39  1  0  0  0  0
 41 40  1  0  0  0  0
 41 46  1  0  0  0  0
 42 41  1  0  0  0  0
 43 41  1  0  0  0  0
 44 43  1  0  0  0  0
 45 46  1  0  0  0  0
 47 49  1  0  0  0  0
 47 40  1  0  0  0  0
 49 48  1  0  0  0  0
 50 51  1  0  0  0  0
 51 53  1  0  0  0  0
 51 52  1  0  0  0  0
 54 53  1  0  0  0  0
 54 55  1  0  0  0  0
 55 56  1  0  0  0  0
 56 60  1  0  0  0  0
 57 58  1  0  0  0  0
 59 61  1  0  0  0  0
 60 59  1  0  0  0  0
 60 65  1  0  0  0  0
 63 61  1  0  0  0  0
 63 57  1  0  0  0  0
 64 66  2  0  0  0  0
 65 66  1  0  0  0  0
 65 63  1  0  0  0  0
 66 67  1  0  0  0  0
 67 62  1  0  0  0  0
 67 57  1  0  0  0  0
M  END
>  <MODEL>
2

>  <REMARK>
 VINA RESULT:      -4.3      2.150      3.194
  Name = 
  24 active torsions:
  status: ('A' for Active; 'I' for Inactive)
    1  A    between atoms: C_3  and  C_15
    2  A    between atoms: C_3  and  C_17
    3  A    between atoms: C_3  and  C_27
    4  A    between atoms: O_7  and  C_20
    5  A    between atoms: O_7  and  C_45
    6  A    between atoms: C_8  and  C_31
    7  A    between atoms: N_11  and  C_61
    8  A    between atoms: C_12  and  C_37
    9  A    between atoms: C_12  and  C_49
   10  A    between atoms: O_18  and  C_29
   11  A    between atoms: C_19  and  C_60
   12  A    between atoms: C_20  and  C_27
   13  A    between atoms: C_23  and  C_45
   14  A    between atoms: C_25  and  C_59
   15  A    between atoms: C_27  and  C_59
   16  A    between atoms: C_30  and  C_31
   17  A    between atoms: C_30  and  S_51
   18  A    between atoms: N_34  and  C_42
   19  A    between atoms: N_34  and  C_54
   20  A    between atoms: C_36  and  C_60
   21  A    between atoms: C_37  and  S_51
   22  A    between atoms: N_43  and  C_55
   23  A    between atoms: C_47  and  C_54
   24  A    between atoms: C_49  and  C_60
                            x       y       z     vdW  Elec       q    Type
                         _______ _______ _______ _____ _____    ______ ____

>  <TORSDO>
F 24

$$$$
=
 OpenBabel11042412143D

 67 75  0  0  1  0  0  0  0  0999 V2000
  190.5520  176.6090  138.9510 C   0  0  1  0  0  3  0  0  0  0  0  0
  183.9510  176.7990  136.4840 N   0  0  0  0  0  0  0  0  0  0  0  0
  184.4200  177.9350  138.5330 C   0  0  0  0  0  3  0  0  0  0  0  0
  187.9800  176.6330  136.2200 C   0  0  1  0  0  3  0  0  0  0  0  0
  187.3370  176.9790  137.3130 C   0  0  1  0  0  3  0  0  0  0  0  0
  183.1170  178.4580  138.4980 C   0  0  0  0  0  3  0  0  0  0  0  0
  189.4180  176.4150  136.5550 C   0  0  1  0  0  3  0  0  0  0  0  0
  185.9890  176.4670  137.2470 C   0  0  1  0  0  3  0  0  0  0  0  0
  187.1020  175.8920  135.2390 C   0  0  0  0  0  2  0  0  0  0  0  0
  189.3740  176.7540  138.0270 C   0  0  0  0  0  0  0  0  0  0  0  0
  184.5830  176.1260  135.5320 N   0  0  0  0  0  2  0  0  0  0  0  0
  182.2430  178.1370  137.4410 C   0  0  0  0  0  0  0  0  0  0  0  0
  188.1750  177.0140  138.4530 N   0  0  0  0  0  0  0  0  0  0  0  0
  184.7850  177.0720  137.5050 C   0  0  2  0  0  3  0  0  0  0  0  0
  182.6960  177.3020  136.4030 C   0  0  0  0  0  3  0  0  0  0  0  0
  185.8240  175.8920  136.0160 C   0  0  2  0  0  3  0  0  0  0  0  0
  189.7480  175.0670  136.3930 O   0  0  0  0  0  0  0  0  0  0  0  0
  189.8610  174.8900  135.0120 C   0  0  0  0  0  1  0  0  0  0  0  0
  180.9170  178.6750  137.4370 N   0  0  0  0  0  2  0  0  0  0  0  0
  180.4230  178.3860  135.1820 O   0  0  0  0  0  1  0  0  0  0  0  0
  180.3090  179.2720  136.2550 C   0  0  2  0  0  3  0  0  0  0  0  0
  180.0200  182.2460  134.6410 C   0  0  0  0  0  2  0  0  0  0  0  0
  180.6600  180.9780  134.5940 O   0  0  0  0  0  0  0  0  0  0  0  0
  179.8630  182.6410  136.0230 N   0  0  0  0  0  0  0  0  0  0  0  0
  180.9920  180.5940  135.9190 C   0  0  1  0  0  3  0  0  0  0  0  0
  180.4970  181.6670  136.8020 C   0  0  0  0  0  0  0  0  0  0  0  0
  181.1130  181.9660  138.2900 S   0  0  0  0  0  0  0  0  0  0  0  0
  179.1470  184.8460  135.2600 C   0  0  0  0  0  1  0  0  0  0  0  0
  179.5540  183.9990  136.4510 C   0  0  0  0  0  2  0  0  0  0  0  0
  192.2150  176.1850  137.1020 N   0  0  0  0  0  2  0  0  0  0  0  0
  191.8320  176.9440  138.2480 C   0  0  0  0  0  0  0  0  0  0  0  0
  192.5540  177.8960  138.6530 O   0  0  0  0  0  0  0  0  0  0  0  0
  194.6900  175.1820  134.6180 C   0  0  0  0  0  2  0  0  0  0  0  0
  194.2090  175.1430  136.0540 C   0  0  2  0  0  0  0  0  0  0  0  0
  193.3780  175.8400  134.9920 C   0  0  1  0  0  3  0  0  0  0  0  0
  193.4600  176.4330  136.3850 C   0  0  1  0  0  3  0  0  0  0  0  0
  193.4900  173.8380  136.3880 C   0  0  0  0  0  2  0  0  0  0  0  0
  194.2060  173.1270  137.3530 O   0  0  0  0  0  0  0  0  0  0  0  0
  195.0930  174.0560  137.8980 C   0  0  0  0  0  2  0  0  0  0  0  0
  196.4530  173.4070  138.1610 C   0  0  1  0  0  3  0  0  0  0  0  0
  197.3380  173.2970  136.8880 C   0  0  0  0  0  0  0  0  0  0  0  0
  198.7620  172.9230  137.2670 C   0  0  0  0  0  1  0  0  0  0  0  0
  197.4070  174.6250  136.1250 C   0  0  0  0  0  2  0  0  0  0  0  0
  198.0310  175.6200  136.8830 O   0  0  0  0  0  1  0  0  0  0  0  0
  197.1790  170.9290  136.3890 O   0  0  0  0  0  1  0  0  0  0  0  0
  196.8190  172.2050  135.9450 C   0  0  0  0  0  2  0  0  0  0  0  0
  197.1610  174.1580  139.2890 C   0  0  0  0  0  2  0  0  0  0  0  0
  196.9200  176.0980  140.6700 O   0  0  0  0  0  1  0  0  0  0  0  0
  196.2060  175.0970  140.0090 C   0  0  0  0  0  2  0  0  0  0  0  0
  190.3970  177.4500  140.2170 C   0  0  0  0  0  2  0  0  0  0  0  0
  189.3580  176.8520  141.1550 C   0  0  1  0  0  3  0  0  0  0  0  0
  189.8960  175.7840  141.8800 O   0  0  0  0  0  1  0  0  0  0  0  0
  188.8140  177.9160  142.1010 C   0  0  0  0  0  2  0  0  0  0  0  0
  187.0020  178.0880  141.9760 S   0  0  0  0  0  0  0  0  0  0  0  0
  186.8140  178.1760  143.7760 C   0  0  0  0  0  2  0  0  0  0  0  0
  188.1780  178.3630  144.4210 C   0  0  0  0  0  2  0  0  0  0  0  0
  191.3870  176.5530  147.5440 C   0  0  2  0  0  3  0  0  0  0  0  0
  191.1270  175.3370  148.1870 O   0  0  0  0  0  1  0  0  0  0  0  0
  187.4300  177.1250  146.7870 S   0  0  0  0  0  0  0  0  0  0  0  0
  188.5420  177.2020  145.3450 C   0  0  2  0  0  3  0  0  0  0  0  0
  188.8310  176.7680  147.8990 C   0  0  0  0  0  2  0  0  0  0  0  0
  192.4060  174.9940  145.9700 O   0  0  0  0  0  1  0  0  0  0  0  0
  190.0880  177.3480  147.2690 C   0  0  2  0  0  3  0  0  0  0  0  0
  191.1040  176.5810  143.9690 O   0  0  0  0  0  0  0  0  0  0  0  0
  189.9000  177.3360  145.8390 N   0  0  0  0  0  0  0  0  0  0  0  0
  191.0210  176.7450  145.2160 C   0  0  0  0  0  0  0  0  0  0  0  0
  192.0660  176.3350  146.1740 C   0  0  1  0  0  3  0  0  0  0  0  0
  1 50  1  1  0  0  0
  2 14  1  0  0  0  0
  4  9  1  1  0  0  0
  4  7  1  0  0  0  0
  4  5  1  0  0  0  0
  5 13  1  1  0  0  0
  6  3  2  0  0  0  0
  7 17  1  1  0  0  0
  7 10  1  0  0  0  0
  8  5  1  0  0  0  0
  8 14  1  0  0  0  0
  9 16  1  0  0  0  0
 10 13  2  0  0  0  0
 10  1  1  0  0  0  0
 11 16  1  0  0  0  0
 11  2  1  0  0  0  0
 12  6  1  0  0  0  0
 14  3  1  0  0  0  0
 15  2  1  0  0  0  0
 15 12  2  0  0  0  0
 16  8  1  0  0  0  0
 18 17  1  0  0  0  0
 19 12  1  0  0  0  0
 20 21  1  0  0  0  0
 21 19  1  0  0  0  0
 22 24  1  0  0  0  0
 23 22  1  0  0  0  0
 23 25  1  0  0  0  0
 24 29  1  0  0  0  0
 24 26  1  0  0  0  0
 25 21  1  0  0  0  0
 25 26  1  0  0  0  0
 26 27  2  0  0  0  0
 28 29  1  0  0  0  0
 30 31  1  0  0  0  0
 31 32  2  0  0  0  0
 31  1  1  0  0  0  0
 33 35  1  0  0  0  0
 33 34  1  0  0  0  0
 34 36  1  0  0  0  0
 34 37  1  0  0  0  0
 35 34  1  0  0  0  0
 35 36  1  0  0  0  0
 36 30  1  0  0  0  0
 37 38  1  0  0  0  0
 38 39  1  0  0  0  0
 39 40  1  0  0  0  0
 40 47  1  0  0  0  0
 41 42  1  0  0  0  0
 41 40  1  0  0  0  0
 43 44  1  0  0  0  0
 43 41  1  0  0  0  0
 46 45  1  0  0  0  0
 46 41  1  0  0  0  0
 47 49  1  0  0  0  0
 49 48  1  0  0  0  0
 50 51  1  0  0  0  0
 51 52  1  0  0  0  0
 51 53  1  0  0  0  0
 54 53  1  0  0  0  0
 54 55  1  0  0  0  0
 55 56  1  0  0  0  0
 56 60  1  0  0  0  0
 57 58  1  0  0  0  0
 59 61  1  0  0  0  0
 60 65  1  0  0  0  0
 60 59  1  0  0  0  0
 62 67  1  0  0  0  0
 63 57  1  0  0  0  0
 63 61  1  0  0  0  0
 64 66  2  0  0  0  0
 65 63  1  0  0  0  0
 66 65  1  0  0  0  0
 66 67  1  0  0  0  0
 67 57  1  0  0  0  0
M  END
>  <MODEL>
3

>  <REMARK>
 VINA RESULT:      -4.2      2.403      3.919
  Name = 
  24 active torsions:
  status: ('A' for Active; 'I' for Inactive)
    1  A    between atoms: C_3  and  C_15
    2  A    between atoms: C_3  and  C_17
    3  A    between atoms: C_3  and  C_27
    4  A    between atoms: O_7  and  C_20
    5  A    between atoms: O_7  and  C_45
    6  A    between atoms: C_8  and  C_31
    7  A    between atoms: N_11  and  C_61
    8  A    between atoms: C_12  and  C_37
    9  A    between atoms: C_12  and  C_49
   10  A    between atoms: O_18  and  C_29
   11  A    between atoms: C_19  and  C_60
   12  A    between atoms: C_20  and  C_27
   13  A    between atoms: C_23  and  C_45
   14  A    between atoms: C_25  and  C_59
   15  A    between atoms: C_27  and  C_59
   16  A    between atoms: C_30  and  C_31
   17  A    between atoms: C_30  and  S_51
   18  A    between atoms: N_34  and  C_42
   19  A    between atoms: N_34  and  C_54
   20  A    between atoms: C_36  and  C_60
   21  A    between atoms: C_37  and  S_51
   22  A    between atoms: N_43  and  C_55
   23  A    between atoms: C_47  and  C_54
   24  A    between atoms: C_49  and  C_60
                            x       y       z     vdW  Elec       q    Type
                         _______ _______ _______ _____ _____    ______ ____

>  <TORSDO>
F 24

$$$$
=
 OpenBabel11042412143D

 67 75  0  0  1  0  0  0  0  0999 V2000
  190.7880  176.4550  139.8670 C   0  0  1  0  0  3  0  0  0  0  0  0
  184.2990  177.7780  137.4530 N   0  0  0  0  0  0  0  0  0  0  0  0
  184.8460  178.5010  139.6630 C   0  0  0  0  0  3  0  0  0  0  0  0
  188.2900  177.2140  137.1740 C   0  0  1  0  0  3  0  0  0  0  0  0
  187.6660  177.4430  138.3080 C   0  0  1  0  0  3  0  0  0  0  0  0
  183.6090  179.1630  139.7120 C   0  0  0  0  0  3  0  0  0  0  0  0
  189.6890  176.7860  137.4700 C   0  0  1  0  0  3  0  0  0  0  0  0
  186.2730  177.1010  138.1540 C   0  0  1  0  0  3  0  0  0  0  0  0
  187.3580  176.7460  136.0810 C   0  0  0  0  0  2  0  0  0  0  0  0
  189.6510  176.8800  138.9780 C   0  0  0  0  0  0  0  0  0  0  0  0
  184.8740  177.2060  136.4040 N   0  0  0  0  0  2  0  0  0  0  0  0
  182.7260  179.1200  138.6160 C   0  0  0  0  0  0  0  0  0  0  0  0
  188.4800  177.1970  139.4390 N   0  0  0  0  0  0  0  0  0  0  0  0
  185.1360  177.7840  138.5070 C   0  0  2  0  0  3  0  0  0  0  0  0
  183.1070  178.4230  137.4540 C   0  0  0  0  0  3  0  0  0  0  0  0
  186.0710  176.7600  136.8440 C   0  0  2  0  0  3  0  0  0  0  0  0
  189.8740  175.4550  137.0870 O   0  0  0  0  0  0  0  0  0  0  0  0
  190.1740  175.5140  135.7240 C   0  0  0  0  0  1  0  0  0  0  0  0
  181.4670  179.7940  138.6980 N   0  0  0  0  0  2  0  0  0  0  0  0
  180.4380  178.3820  137.1620 O   0  0  0  0  0  1  0  0  0  0  0  0
  180.4410  179.6820  137.6700 C   0  0  2  0  0  3  0  0  0  0  0  0
  179.0390  181.7480  135.3670 C   0  0  0  0  0  2  0  0  0  0  0  0
  179.7350  180.5190  135.5260 O   0  0  0  0  0  0  0  0  0  0  0  0
  179.5130  182.6870  136.3590 N   0  0  0  0  0  0  0  0  0  0  0  0
  180.7050  180.6830  136.5480 C   0  0  1  0  0  3  0  0  0  0  0  0
  180.5600  182.0630  137.0460 C   0  0  0  0  0  0  0  0  0  0  0  0
  181.7680  182.8870  137.7840 S   0  0  0  0  0  0  0  0  0  0  0  0
  180.1100  184.7480  135.1980 C   0  0  0  0  0  1  0  0  0  0  0  0
  179.2750  184.1230  136.3000 C   0  0  0  0  0  2  0  0  0  0  0  0
  192.6300  175.9900  138.2090 N   0  0  0  0  0  2  0  0  0  0  0  0
  192.1110  176.8060  139.2570 C   0  0  0  0  0  0  0  0  0  0  0  0
  192.7480  177.8210  139.6520 O   0  0  0  0  0  0  0  0  0  0  0  0
  194.8560  175.7840  135.3260 C   0  0  0  0  0  2  0  0  0  0  0  0
  194.3280  175.1570  136.6000 C   0  0  2  0  0  0  0  0  0  0  0  0
  193.7440  176.4640  136.0970 C   0  0  1  0  0  3  0  0  0  0  0  0
  193.9230  176.2510  137.5870 C   0  0  1  0  0  3  0  0  0  0  0  0
  193.2860  174.0750  136.3250 C   0  0  0  0  0  2  0  0  0  0  0  0
  193.7540  172.8340  136.7590 O   0  0  0  0  0  0  0  0  0  0  0  0
  195.0740  173.0650  137.1500 C   0  0  0  0  0  2  0  0  0  0  0  0
  196.0070  172.0300  136.5200 C   0  0  1  0  0  3  0  0  0  0  0  0
  195.4950  170.5700  136.6710 C   0  0  0  0  0  0  0  0  0  0  0  0
  196.6600  169.6280  136.9310 C   0  0  0  0  0  1  0  0  0  0  0  0
  194.7910  170.0780  135.4010 C   0  0  0  0  0  2  0  0  0  0  0  0
  193.4390  169.8120  135.6340 O   0  0  0  0  0  1  0  0  0  0  0  0
  195.2220  170.4210  139.0760 O   0  0  0  0  0  1  0  0  0  0  0  0
  194.5350  170.4390  137.8580 C   0  0  0  0  0  2  0  0  0  0  0  0
  196.2580  172.4020  135.0580 C   0  0  0  0  0  2  0  0  0  0  0  0
  198.5920  172.8870  135.2670 O   0  0  0  0  0  1  0  0  0  0  0  0
  197.6740  172.0470  134.6350 C   0  0  0  0  0  2  0  0  0  0  0  0
  190.6710  177.0440  141.2720 C   0  0  0  0  0  2  0  0  0  0  0  0
  189.9470  176.0910  142.2140 C   0  0  1  0  0  3  0  0  0  0  0  0
  190.7480  174.9860  142.5170 O   0  0  0  0  0  1  0  0  0  0  0  0
  189.5290  176.8120  143.4900 C   0  0  0  0  0  2  0  0  0  0  0  0
  190.9630  177.4210  144.4380 S   0  0  0  0  0  0  0  0  0  0  0  0
  189.9060  178.0610  145.7640 C   0  0  0  0  0  2  0  0  0  0  0  0
  188.5670  177.3400  145.7380 C   0  0  0  0  0  2  0  0  0  0  0  0
  183.9080  178.1560  144.7640 C   0  0  2  0  0  3  0  0  0  0  0  0
  183.2940  179.3300  145.2180 O   0  0  0  0  0  1  0  0  0  0  0  0
  186.8260  178.4610  147.5830 S   0  0  0  0  0  0  0  0  0  0  0  0
  187.3910  178.3080  145.8560 C   0  0  2  0  0  3  0  0  0  0  0  0
  185.0800  178.4200  147.0570 C   0  0  0  0  0  2  0  0  0  0  0  0
  184.3110  179.6300  142.8640 O   0  0  0  0  0  1  0  0  0  0  0  0
  185.0070  177.6670  145.7380 C   0  0  2  0  0  3  0  0  0  0  0  0
  186.9620  178.5410  142.9230 O   0  0  0  0  0  0  0  0  0  0  0  0
  186.2650  177.8590  145.0600 N   0  0  0  0  0  0  0  0  0  0  0  0
  186.0320  178.2730  143.7300 C   0  0  0  0  0  0  0  0  0  0  0  0
  184.5970  178.3700  143.3980 C   0  0  1  0  0  3  0  0  0  0  0  0
  1 50  1  1  0  0  0
  2 15  1  0  0  0  0
  2 14  1  0  0  0  0
  3  6  2  0  0  0  0
  4  9  1  1  0  0  0
  4  7  1  0  0  0  0
  4  5  1  0  0  0  0
  5 13  1  1  0  0  0
  7 17  1  1  0  0  0
  7 10  1  0  0  0  0
  8  5  1  0  0  0  0
  8 14  1  0  0  0  0
  9 16  1  0  0  0  0
 10 13  2  0  0  0  0
 10  1  1  0  0  0  0
 11 16  1  0  0  0  0
 11  2  1  0  0  0  0
 12 19  1  0  0  0  0
 12  6  1  0  0  0  0
 14  3  1  0  0  0  0
 15 12  2  0  0  0  0
 16  8  1  0  0  0  0
 18 17  1  0  0  0  0
 20 21  1  0  0  0  0
 21 19  1  0  0  0  0
 22 23  1  0  0  0  0
 22 24  1  0  0  0  0
 23 25  1  0  0  0  0
 24 26  1  0  0  0  0
 25 26  1  0  0  0  0
 25 21  1  0  0  0  0
 26 27  2  0  0  0  0
 28 29  1  0  0  0  0
 29 24  1  0  0  0  0
 30 31  1  0  0  0  0
 31 32  2  0  0  0  0
 31  1  1  0  0  0  0
 33 35  1  0  0  0  0
 33 34  1  0  0  0  0
 34 36  1  0  0  0  0
 35 34  1  0  0  0  0
 35 36  1  0  0  0  0
 36 30  1  0  0  0  0
 37 34  1  0  0  0  0
 37 38  1  0  0  0  0
 38 39  1  0  0  0  0
 40 41  1  0  0  0  0
 40 39  1  0  0  0  0
 41 42  1  0  0  0  0
 41 46  1  0  0  0  0
 43 44  1  0  0  0  0
 43 41  1  0  0  0  0
 46 45  1  0  0  0  0
 47 40  1  0  0  0  0
 49 47  1  0  0  0  0
 49 48  1  0  0  0  0
 50 51  1  0  0  0  0
 51 52  1  0  0  0  0
 51 53  1  0  0  0  0
 53 54  1  0  0  0  0
 54 55  1  0  0  0  0
 56 55  1  0  0  0  0
 56 60  1  0  0  0  0
 57 58  1  0  0  0  0
 57 63  1  0  0  0  0
 60 59  1  0  0  0  0
 61 59  1  0  0  0  0
 62 67  1  0  0  0  0
 63 61  1  0  0  0  0
 64 66  2  0  0  0  0
 65 63  1  0  0  0  0
 65 60  1  0  0  0  0
 66 65  1  0  0  0  0
 67 66  1  0  0  0  0
 67 57  1  0  0  0  0
M  END
>  <MODEL>
4

>  <REMARK>
 VINA RESULT:      -4.1      1.492      2.842
  Name = 
  24 active torsions:
  status: ('A' for Active; 'I' for Inactive)
    1  A    between atoms: C_3  and  C_15
    2  A    between atoms: C_3  and  C_17
    3  A    between atoms: C_3  and  C_27
    4  A    between atoms: O_7  and  C_20
    5  A    between atoms: O_7  and  C_45
    6  A    between atoms: C_8  and  C_31
    7  A    between atoms: N_11  and  C_61
    8  A    between atoms: C_12  and  C_37
    9  A    between atoms: C_12  and  C_49
   10  A    between atoms: O_18  and  C_29
   11  A    between atoms: C_19  and  C_60
   12  A    between atoms: C_20  and  C_27
   13  A    between atoms: C_23  and  C_45
   14  A    between atoms: C_25  and  C_59
   15  A    between atoms: C_27  and  C_59
   16  A    between atoms: C_30  and  C_31
   17  A    between atoms: C_30  and  S_51
   18  A    between atoms: N_34  and  C_42
   19  A    between atoms: N_34  and  C_54
   20  A    between atoms: C_36  and  C_60
   21  A    between atoms: C_37  and  S_51
   22  A    between atoms: N_43  and  C_55
   23  A    between atoms: C_47  and  C_54
   24  A    between atoms: C_49  and  C_60
                            x       y       z     vdW  Elec       q    Type
                         _______ _______ _______ _____ _____    ______ ____

>  <TORSDO>
F 24

$$$$
=
 OpenBabel11042412143D

 67 75  0  0  1  0  0  0  0  0999 V2000
  189.2380  177.8810  140.6580 C   0  0  1  0  0  3  0  0  0  0  0  0
  186.0050  174.4110  135.4430 N   0  0  0  0  0  0  0  0  0  0  0  0
  185.6200  173.6840  137.6860 C   0  0  0  0  0  3  0  0  0  0  0  0
  187.6290  177.6230  137.2790 C   0  0  1  0  0  3  0  0  0  0  0  0
  187.3170  176.5090  137.9040 C   0  0  1  0  0  3  0  0  0  0  0  0
  184.6460  172.8010  137.1930 C   0  0  0  0  0  3  0  0  0  0  0  0
  188.4470  178.4750  138.1910 C   0  0  1  0  0  3  0  0  0  0  0  0
  187.2490  175.4350  136.9420 C   0  0  1  0  0  3  0  0  0  0  0  0
  187.7430  177.4390  135.7840 C   0  0  0  0  0  2  0  0  0  0  0  0
  188.4540  177.5810  139.4090 C   0  0  0  0  0  0  0  0  0  0  0  0
  186.6380  175.3730  134.7850 N   0  0  0  0  0  2  0  0  0  0  0  0
  184.3660  172.7370  135.8140 C   0  0  0  0  0  0  0  0  0  0  0  0
  187.8580  176.4450  139.2100 N   0  0  0  0  0  0  0  0  0  0  0  0
  186.3050  174.4570  136.7540 C   0  0  2  0  0  3  0  0  0  0  0  0
  185.0580  173.5880  134.9320 C   0  0  0  0  0  3  0  0  0  0  0  0
  187.4280  175.9790  135.7000 C   0  0  2  0  0  3  0  0  0  0  0  0
  189.7470  178.6000  137.6930 O   0  0  0  0  0  0  0  0  0  0  0  0
  190.0280  177.3600  137.1140 C   0  0  0  0  0  1  0  0  0  0  0  0
  183.3780  171.8180  135.3380 N   0  0  0  0  0  2  0  0  0  0  0  0
  182.1340  173.6400  134.5990 O   0  0  0  0  0  1  0  0  0  0  0  0
  182.1660  172.2460  134.6520 C   0  0  2  0  0  3  0  0  0  0  0  0
  180.8070  171.4720  137.6670 C   0  0  0  0  0  2  0  0  0  0  0  0
  181.3340  170.9090  136.4730 O   0  0  0  0  0  0  0  0  0  0  0  0
  180.1280  172.7070  137.3430 N   0  0  0  0  0  0  0  0  0  0  0  0
  180.9320  171.7200  135.3800 C   0  0  1  0  0  3  0  0  0  0  0  0
  180.1570  172.8370  135.9500 C   0  0  0  0  0  0  0  0  0  0  0  0
  179.0400  173.6840  135.1030 S   0  0  0  0  0  0  0  0  0  0  0  0
  179.9600  174.2670  139.2120 C   0  0  0  0  0  1  0  0  0  0  0  0
  179.2000  173.3850  138.2380 C   0  0  0  0  0  2  0  0  0  0  0  0
  187.2970  179.0210  141.7940 N   0  0  0  0  0  2  0  0  0  0  0  0
  188.3310  178.0390  141.8400 C   0  0  0  0  0  0  0  0  0  0  0  0
  188.4680  177.3020  142.8540 O   0  0  0  0  0  0  0  0  0  0  0  0
  184.1900  178.2930  143.5610 C   0  0  0  0  0  2  0  0  0  0  0  0
  184.9250  179.1130  142.5220 C   0  0  2  0  0  0  0  0  0  0  0  0
  185.6360  177.9800  143.2390 C   0  0  1  0  0  3  0  0  0  0  0  0
  186.3950  179.2530  142.9160 C   0  0  1  0  0  3  0  0  0  0  0  0
  184.6490  178.6300  141.1000 C   0  0  0  0  0  2  0  0  0  0  0  0
  183.8230  179.5360  140.4330 O   0  0  0  0  0  0  0  0  0  0  0  0
  182.5490  178.9710  140.4940 C   0  0  0  0  0  2  0  0  0  0  0  0
  182.0210  178.6900  139.0860 C   0  0  1  0  0  3  0  0  0  0  0  0
  180.6970  179.4390  138.7660 C   0  0  0  0  0  0  0  0  0  0  0  0
  179.5010  178.5640  139.1080 C   0  0  0  0  0  1  0  0  0  0  0  0
  180.5870  179.7930  137.2790 C   0  0  0  0  0  2  0  0  0  0  0  0
  179.7350  178.9160  136.6030 O   0  0  0  0  0  1  0  0  0  0  0  0
  180.1670  181.8050  138.8130 O   0  0  0  0  0  1  0  0  0  0  0  0
  180.5700  180.7210  139.5980 C   0  0  0  0  0  2  0  0  0  0  0  0
  183.1170  179.0010  138.0660 C   0  0  0  0  0  2  0  0  0  0  0  0
  183.7600  176.6950  138.0840 O   0  0  0  0  0  1  0  0  0  0  0  0
  183.4680  177.7720  137.2440 C   0  0  0  0  0  2  0  0  0  0  0  0
  190.3040  176.8230  140.9360 C   0  0  0  0  0  2  0  0  0  0  0  0
  191.6870  177.4480  141.0650 C   0  0  1  0  0  3  0  0  0  0  0  0
  192.4640  176.7520  141.9940 O   0  0  0  0  0  1  0  0  0  0  0  0
  192.3860  177.4890  139.7110 C   0  0  0  0  0  2  0  0  0  0  0  0
  194.0390  176.7200  139.7650 S   0  0  0  0  0  0  0  0  0  0  0  0
  193.6040  175.5260  138.4730 C   0  0  0  0  0  2  0  0  0  0  0  0
  193.8330  176.1520  137.1060 C   0  0  0  0  0  2  0  0  0  0  0  0
  193.3670  171.4940  135.9190 C   0  0  2  0  0  3  0  0  0  0  0  0
  193.5800  171.0850  134.5970 O   0  0  0  0  0  1  0  0  0  0  0  0
  192.6550  175.3220  134.7370 S   0  0  0  0  0  0  0  0  0  0  0  0
  193.9470  175.1000  136.0030 C   0  0  2  0  0  3  0  0  0  0  0  0
  192.3710  173.5220  134.6530 C   0  0  0  0  0  2  0  0  0  0  0  0
  195.7500  170.9840  135.9910 O   0  0  0  0  0  1  0  0  0  0  0  0
  192.7770  172.9230  135.9920 C   0  0  2  0  0  3  0  0  0  0  0  0
  195.9600  173.4490  137.4400 O   0  0  0  0  0  0  0  0  0  0  0  0
  193.8110  173.7610  136.5450 N   0  0  0  0  0  0  0  0  0  0  0  0
  194.9050  172.9650  136.9490 C   0  0  0  0  0  0  0  0  0  0  0  0
  194.6860  171.5230  136.7210 C   0  0  1  0  0  3  0  0  0  0  0  0
  1 50  1  1  0  0  0
  1 31  1  0  0  0  0
  2 14  1  0  0  0  0
  4  9  1  6  0  0  0
  4  5  1  0  0  0  0
  4  7  1  0  0  0  0
  5 13  1  1  0  0  0
  6  3  2  0  0  0  0
  7 17  1  6  0  0  0
  7 10  1  0  0  0  0
  8  5  1  0  0  0  0
 10  1  1  0  0  0  0
 11  2  1  0  0  0  0
 11 16  1  0  0  0  0
 12  6  1  0  0  0  0
 13 10  2  0  0  0  0
 14  8  1  0  0  0  0
 14  3  1  0  0  0  0
 15  2  1  0  0  0  0
 15 12  2  0  0  0  0
 16  9  1  0  0  0  0
 16  8  1  0  0  0  0
 18 17  1  0  0  0  0
 19 12  1  0  0  0  0
 20 21  1  0  0  0  0
 21 19  1  0  0  0  0
 21 25  1  0  0  0  0
 23 22  1  0  0  0  0
 24 22  1  0  0  0  0
 24 29  1  0  0  0  0
 25 26  1  0  0  0  0
 25 23  1  0  0  0  0
 26 24  1  0  0  0  0
 27 26  2  0  0  0  0
 29 28  1  0  0  0  0
 30 31  1  0  0  0  0
 30 36  1  0  0  0  0
 31 32  2  0  0  0  0
 34 36  1  0  0  0  0
 34 35  1  0  0  0  0
 34 33  1  0  0  0  0
 35 33  1  0  0  0  0
 36 35  1  0  0  0  0
 37 34  1  0  0  0  0
 38 39  1  0  0  0  0
 38 37  1  0  0  0  0
 40 39  1  0  0  0  0
 41 40  1  0  0  0  0
 41 42  1  0  0  0  0
 41 46  1  0  0  0  0
 43 41  1  0  0  0  0
 44 43  1  0  0  0  0
 45 46  1  0  0  0  0
 47 40  1  0  0  0  0
 49 47  1  0  0  0  0
 49 48  1  0  0  0  0
 50 51  1  0  0  0  0
 51 52  1  0  0  0  0
 53 54  1  0  0  0  0
 53 51  1  0  0  0  0
 55 54  1  0  0  0  0
 56 55  1  0  0  0  0
 57 63  1  0  0  0  0
 57 67  1  0  0  0  0
 58 57  1  0  0  0  0
 59 60  1  0  0  0  0
 60 65  1  0  0  0  0
 60 56  1  0  0  0  0
 61 59  1  0  0  0  0
 61 63  1  0  0  0  0
 62 67  1  0  0  0  0
 63 65  1  0  0  0  0
 65 66  1  0  0  0  0
 66 64  2  0  0  0  0
 67 66  1  0  0  0  0
M  END
>  <MODEL>
5

>  <REMARK>
 VINA RESULT:      -3.7      3.150     10.554
  Name = 
  24 active torsions:
  status: ('A' for Active; 'I' for Inactive)
    1  A    between atoms: C_3  and  C_15
    2  A    between atoms: C_3  and  C_17
    3  A    between atoms: C_3  and  C_27
    4  A    between atoms: O_7  and  C_20
    5  A    between atoms: O_7  and  C_45
    6  A    between atoms: C_8  and  C_31
    7  A    between atoms: N_11  and  C_61
    8  A    between atoms: C_12  and  C_37
    9  A    between atoms: C_12  and  C_49
   10  A    between atoms: O_18  and  C_29
   11  A    between atoms: C_19  and  C_60
   12  A    between atoms: C_20  and  C_27
   13  A    between atoms: C_23  and  C_45
   14  A    between atoms: C_25  and  C_59
   15  A    between atoms: C_27  and  C_59
   16  A    between atoms: C_30  and  C_31
   17  A    between atoms: C_30  and  S_51
   18  A    between atoms: N_34  and  C_42
   19  A    between atoms: N_34  and  C_54
   20  A    between atoms: C_36  and  C_60
   21  A    between atoms: C_37  and  S_51
   22  A    between atoms: N_43  and  C_55
   23  A    between atoms: C_47  and  C_54
   24  A    between atoms: C_49  and  C_60
                            x       y       z     vdW  Elec       q    Type
                         _______ _______ _______ _____ _____    ______ ____

>  <TORSDO>
F 24

$$$$
=
 OpenBabel11042412143D

 67 75  0  0  1  0  0  0  0  0999 V2000
  184.1450  177.8030  138.5690 C   0  0  1  0  0  3  0  0  0  0  0  0
  184.2910  178.6880  145.5610 N   0  0  0  0  0  0  0  0  0  0  0  0
  186.3240  178.0850  144.4610 C   0  0  0  0  0  3  0  0  0  0  0  0
  183.0210  179.3700  141.7860 C   0  0  1  0  0  3  0  0  0  0  0  0
  184.1340  178.7340  142.0750 C   0  0  1  0  0  3  0  0  0  0  0  0
  186.9950  178.2730  145.6800 C   0  0  0  0  0  3  0  0  0  0  0  0
  182.7300  179.2000  140.3330 C   0  0  1  0  0  3  0  0  0  0  0  0
  184.0490  178.2260  143.4220 C   0  0  1  0  0  3  0  0  0  0  0  0
  182.0630  179.4240  142.9540 C   0  0  0  0  0  2  0  0  0  0  0  0
  183.9380  178.3810  139.9430 C   0  0  0  0  0  0  0  0  0  0  0  0
  183.0350  178.9970  145.2690 N   0  0  0  0  0  2  0  0  0  0  0  0
  186.2920  178.6700  146.8330 C   0  0  0  0  0  0  0  0  0  0  0  0
  184.6940  178.0760  140.9540 N   0  0  0  0  0  0  0  0  0  0  0  0
  184.9460  178.2760  144.4600 C   0  0  2  0  0  3  0  0  0  0  0  0
  184.9070  178.9020  146.7490 C   0  0  0  0  0  3  0  0  0  0  0  0
  182.8770  178.6800  143.9640 C   0  0  2  0  0  3  0  0  0  0  0  0
  181.5710  178.4380  140.1610 O   0  0  0  0  0  0  0  0  0  0  0  0
  180.7200  178.8460  141.1910 C   0  0  0  0  0  1  0  0  0  0  0  0
  187.0000  178.8420  148.0640 N   0  0  0  0  0  2  0  0  0  0  0  0
  188.0190  177.8800  149.9210 O   0  0  0  0  0  1  0  0  0  0  0  0
  188.0240  177.9130  148.5250 C   0  0  2  0  0  3  0  0  0  0  0  0
  191.3790  177.7500  149.0280 C   0  0  0  0  0  2  0  0  0  0  0  0
  190.2510  178.6110  149.1150 O   0  0  0  0  0  0  0  0  0  0  0  0
  191.2030  176.8590  147.9030 N   0  0  0  0  0  0  0  0  0  0  0  0
  189.3960  178.3410  148.0150 C   0  0  1  0  0  3  0  0  0  0  0  0
  190.0260  177.2460  147.2540 C   0  0  0  0  0  0  0  0  0  0  0  0
  189.7480  176.9790  145.6620 S   0  0  0  0  0  0  0  0  0  0  0  0
  193.2420  175.6090  148.3870 C   0  0  0  0  0  1  0  0  0  0  0  0
  192.2780  176.0730  147.3120 C   0  0  0  0  0  2  0  0  0  0  0  0
  181.9590  177.1910  137.4720 N   0  0  0  0  0  2  0  0  0  0  0  0
  183.0020  178.1440  137.6630 C   0  0  0  0  0  0  0  0  0  0  0  0
  182.9550  179.2670  137.0890 O   0  0  0  0  0  0  0  0  0  0  0  0
  178.9890  176.0040  135.7180 C   0  0  0  0  0  2  0  0  0  0  0  0
  180.4870  176.2260  135.7210 C   0  0  2  0  0  0  0  0  0  0  0  0
  179.6690  176.5410  136.9600 C   0  0  1  0  0  3  0  0  0  0  0  0
  180.8300  177.4400  136.5830 C   0  0  1  0  0  3  0  0  0  0  0  0
  181.2620  174.9440  136.0200 C   0  0  0  0  0  2  0  0  0  0  0  0
  180.8390  173.9170  135.1740 O   0  0  0  0  0  0  0  0  0  0  0  0
  182.0120  173.4140  134.6080 C   0  0  0  0  0  2  0  0  0  0  0  0
  182.8110  172.6260  135.6470 C   0  0  1  0  0  3  0  0  0  0  0  0
  182.1630  171.2630  136.0160 C   0  0  0  0  0  0  0  0  0  0  0  0
  181.1550  170.8550  134.9540 C   0  0  0  0  0  1  0  0  0  0  0  0
  181.4110  171.3320  137.3500 C   0  0  0  0  0  2  0  0  0  0  0  0
  180.0350  171.4810  137.1570 O   0  0  0  0  0  1  0  0  0  0  0  0
  183.7140  169.8280  134.8260 O   0  0  0  0  0  1  0  0  0  0  0  0
  183.2150  170.1510  136.0910 C   0  0  0  0  0  2  0  0  0  0  0  0
  184.2510  172.4630  135.1580 C   0  0  0  0  0  2  0  0  0  0  0  0
  186.3370  173.6320  135.0670 O   0  0  0  0  0  1  0  0  0  0  0  0
  184.9520  173.8070  135.0520 C   0  0  0  0  0  2  0  0  0  0  0  0
  185.4720  178.2450  137.9530 C   0  0  0  0  0  2  0  0  0  0  0  0
  186.0750  177.1470  137.0880 C   0  0  1  0  0  3  0  0  0  0  0  0
  185.5550  175.8970  137.4350 O   0  0  0  0  0  1  0  0  0  0  0  0
  185.8300  177.4320  135.6100 C   0  0  0  0  0  2  0  0  0  0  0  0
  187.3130  177.1220  134.5940 S   0  0  0  0  0  0  0  0  0  0  0  0
  188.3570  176.8960  136.0570 C   0  0  0  0  0  2  0  0  0  0  0  0
  188.4460  178.2060  136.8240 C   0  0  0  0  0  2  0  0  0  0  0  0
  189.7260  176.4160  141.1230 C   0  0  2  0  0  3  0  0  0  0  0  0
  190.9820  176.7200  141.6610 O   0  0  0  0  0  1  0  0  0  0  0  0
  191.0050  177.2790  137.3580 S   0  0  0  0  0  0  0  0  0  0  0  0
  189.5100  178.1600  137.9200 C   0  0  2  0  0  3  0  0  0  0  0  0
  191.1510  176.4220  138.9620 C   0  0  0  0  0  2  0  0  0  0  0  0
  189.1900  178.4270  142.3940 O   0  0  0  0  0  1  0  0  0  0  0  0
  189.7630  176.3430  139.5780 C   0  0  2  0  0  3  0  0  0  0  0  0
  187.7150  179.1870  140.0560 O   0  0  0  0  0  0  0  0  0  0  0  0
  189.0130  177.4780  139.1000 N   0  0  0  0  0  0  0  0  0  0  0  0
  188.4060  178.1420  140.1900 C   0  0  0  0  0  0  0  0  0  0  0  0
  188.6800  177.4930  141.4870 C   0  0  1  0  0  3  0  0  0  0  0  0
  1 50  1  6  0  0  0
  1 10  1  0  0  0  0
  2 15  1  0  0  0  0
  3  6  2  0  0  0  0
  4  5  1  0  0  0  0
  4  9  1  1  0  0  0
  5 13  1  6  0  0  0
  5  8  1  0  0  0  0
  6 12  1  0  0  0  0
  7 17  1  1  0  0  0
  7  4  1  0  0  0  0
  8 16  1  0  0  0  0
  8 14  1  0  0  0  0
  9 16  1  0  0  0  0
 10  7  1  0  0  0  0
 10 13  2  0  0  0  0
 11  2  1  0  0  0  0
 12 19  1  0  0  0  0
 14  3  1  0  0  0  0
 14  2  1  0  0  0  0
 15 12  2  0  0  0  0
 16 11  1  0  0  0  0
 17 18  1  0  0  0  0
 19 21  1  0  0  0  0
 21 20  1  0  0  0  0
 22 23  1  0  0  0  0
 24 22  1  0  0  0  0
 25 21  1  0  0  0  0
 25 23  1  0  0  0  0
 26 24  1  0  0  0  0
 26 25  1  0  0  0  0
 27 26  2  0  0  0  0
 29 24  1  0  0  0  0
 29 28  1  0  0  0  0
 30 31  1  0  0  0  0
 31  1  1  0  0  0  0
 32 31  2  0  0  0  0
 33 34  1  0  0  0  0
 33 35  1  0  0  0  0
 34 37  1  0  0  0  0
 34 36  1  0  0  0  0
 34 35  1  0  0  0  0
 36 35  1  0  0  0  0
 36 30  1  0  0  0  0
 38 37  1  0  0  0  0
 39 38  1  0  0  0  0
 39 40  1  0  0  0  0
 40 41  1  0  0  0  0
 41 46  1  0  0  0  0
 41 43  1  0  0  0  0
 42 41  1  0  0  0  0
 44 43  1  0  0  0  0
 45 46  1  0  0  0  0
 47 40  1  0  0  0  0
 49 48  1  0  0  0  0
 49 47  1  0  0  0  0
 51 52  1  0  0  0  0
 51 50  1  0  0  0  0
 53 51  1  0  0  0  0
 54 53  1  0  0  0  0
 54 55  1  0  0  0  0
 55 56  1  0  0  0  0
 56 60  1  0  0  0  0
 57 67  1  0  0  0  0
 57 58  1  0  0  0  0
 59 60  1  0  0  0  0
 59 61  1  0  0  0  0
 60 65  1  0  0  0  0
 61 63  1  0  0  0  0
 63 57  1  0  0  0  0
 64 66  2  0  0  0  0
 65 63  1  0  0  0  0
 65 66  1  0  0  0  0
 66 67  1  0  0  0  0
 67 62  1  0  0  0  0
M  END
>  <MODEL>
6

>  <REMARK>
 VINA RESULT:      -3.1      4.334     11.185
  Name = 
  24 active torsions:
  status: ('A' for Active; 'I' for Inactive)
    1  A    between atoms: C_3  and  C_15
    2  A    between atoms: C_3  and  C_17
    3  A    between atoms: C_3  and  C_27
    4  A    between atoms: O_7  and  C_20
    5  A    between atoms: O_7  and  C_45
    6  A    between atoms: C_8  and  C_31
    7  A    between atoms: N_11  and  C_61
    8  A    between atoms: C_12  and  C_37
    9  A    between atoms: C_12  and  C_49
   10  A    between atoms: O_18  and  C_29
   11  A    between atoms: C_19  and  C_60
   12  A    between atoms: C_20  and  C_27
   13  A    between atoms: C_23  and  C_45
   14  A    between atoms: C_25  and  C_59
   15  A    between atoms: C_27  and  C_59
   16  A    between atoms: C_30  and  C_31
   17  A    between atoms: C_30  and  S_51
   18  A    between atoms: N_34  and  C_42
   19  A    between atoms: N_34  and  C_54
   20  A    between atoms: C_36  and  C_60
   21  A    between atoms: C_37  and  S_51
   22  A    between atoms: N_43  and  C_55
   23  A    between atoms: C_47  and  C_54
   24  A    between atoms: C_49  and  C_60
                            x       y       z     vdW  Elec       q    Type
                         _______ _______ _______ _____ _____    ______ ____

>  <TORSDO>
F 24

$$$$
=
 OpenBabel11042412143D

 67 75  0  0  1  0  0  0  0  0999 V2000
  187.7540  178.2010  138.2140 C   0  0  1  0  0  3  0  0  0  0  0  0
  190.5420  172.5360  135.0790 N   0  0  0  0  0  0  0  0  0  0  0  0
  191.8990  173.7460  136.6290 C   0  0  0  0  0  3  0  0  0  0  0  0
  187.5840  174.7930  136.6540 C   0  0  1  0  0  3  0  0  0  0  0  0
  188.8620  175.0240  136.8590 C   0  0  1  0  0  3  0  0  0  0  0  0
  192.8660  172.7340  136.5140 C   0  0  0  0  0  3  0  0  0  0  0  0
  186.7980  175.9620  137.1470 C   0  0  1  0  0  3  0  0  0  0  0  0
  189.6260  174.4010  135.8060 C   0  0  1  0  0  3  0  0  0  0  0  0
  187.3370  173.9130  135.4510 C   0  0  0  0  0  2  0  0  0  0  0  0
  187.9340  176.8090  137.6720 C   0  0  0  0  0  0  0  0  0  0  0  0
  189.3040  172.5350  134.6030 N   0  0  0  0  0  2  0  0  0  0  0  0
  192.6510  171.6260  135.6720 C   0  0  0  0  0  0  0  0  0  0  0  0
  189.1010  176.2880  137.4480 N   0  0  0  0  0  0  0  0  0  0  0  0
  190.7500  173.6150  135.8550 C   0  0  2  0  0  3  0  0  0  0  0  0
  191.4410  171.5290  134.9600 C   0  0  0  0  0  3  0  0  0  0  0  0
  188.7540  173.6970  135.0210 C   0  0  2  0  0  3  0  0  0  0  0  0
  186.1840  176.6140  136.0740 O   0  0  0  0  0  0  0  0  0  0  0  0
  187.2030  177.3620  135.4800 C   0  0  0  0  0  1  0  0  0  0  0  0
  193.6590  170.6170  135.5650 N   0  0  0  0  0  2  0  0  0  0  0  0
  195.7620  169.7280  135.1220 O   0  0  0  0  0  1  0  0  0  0  0  0
  195.0570  170.9210  135.2910 C   0  0  2  0  0  3  0  0  0  0  0  0
  197.7470  171.3290  137.3250 C   0  0  0  0  0  2  0  0  0  0  0  0
  196.4030  170.8680  137.2870 O   0  0  0  0  0  0  0  0  0  0  0  0
  197.8830  172.4510  136.4230 N   0  0  0  0  0  0  0  0  0  0  0  0
  195.6580  171.7280  136.4390 C   0  0  1  0  0  3  0  0  0  0  0  0
  196.6070  172.7300  135.9200 C   0  0  0  0  0  0  0  0  0  0  0  0
  196.1540  174.2120  135.3910 S   0  0  0  0  0  0  0  0  0  0  0  0
  199.1730  173.9800  137.8210 C   0  0  0  0  0  1  0  0  0  0  0  0
  199.0090  173.3760  136.4380 C   0  0  0  0  0  2  0  0  0  0  0  0
  185.2350  178.2970  138.2730 N   0  0  0  0  0  2  0  0  0  0  0  0
  186.4720  178.3190  138.9810 C   0  0  0  0  0  0  0  0  0  0  0  0
  186.4880  178.4190  140.2390 O   0  0  0  0  0  0  0  0  0  0  0  0
  182.5470  176.8770  140.2900 C   0  0  0  0  0  2  0  0  0  0  0  0
  183.1320  177.1460  138.9190 C   0  0  2  0  0  0  0  0  0  0  0  0
  183.9060  177.5340  140.1660 C   0  0  1  0  0  3  0  0  0  0  0  0
  183.9490  178.4360  138.9480 C   0  0  1  0  0  3  0  0  0  0  0  0
  183.8260  175.9180  138.3340 C   0  0  0  0  0  2  0  0  0  0  0  0
  183.0460  175.3600  137.3200 O   0  0  0  0  0  0  0  0  0  0  0  0
  182.1180  174.5550  137.9840 C   0  0  0  0  0  2  0  0  0  0  0  0
  181.4770  173.5640  137.0120 C   0  0  1  0  0  3  0  0  0  0  0  0
  180.2280  174.1370  136.2870 C   0  0  0  0  0  0  0  0  0  0  0  0
  180.5540  175.4850  135.6630 C   0  0  0  0  0  1  0  0  0  0  0  0
  179.0580  174.3570  137.2530 C   0  0  0  0  0  2  0  0  0  0  0  0
  179.4830  174.3490  138.5840 O   0  0  0  0  0  1  0  0  0  0  0  0
  180.5260  172.0360  135.1130 O   0  0  0  0  0  1  0  0  0  0  0  0
  179.7730  173.2130  135.1520 C   0  0  0  0  0  2  0  0  0  0  0  0
  182.5360  173.0690  136.0260 C   0  0  0  0  0  2  0  0  0  0  0  0
  184.7340  172.4330  136.7260 O   0  0  0  0  0  1  0  0  0  0  0  0
  183.4100  171.9950  136.6510 C   0  0  0  0  0  2  0  0  0  0  0  0
  188.9380  178.6410  139.0730 C   0  0  0  0  0  2  0  0  0  0  0  0
  189.8390  177.4640  139.4200 C   0  0  1  0  0  3  0  0  0  0  0  0
  190.9020  177.3670  138.5180 O   0  0  0  0  0  1  0  0  0  0  0  0
  190.3630  177.5910  140.8460 C   0  0  0  0  0  2  0  0  0  0  0  0
  189.1960  178.4780  141.9320 S   0  0  0  0  0  0  0  0  0  0  0  0
  188.4080  176.9370  142.4660 C   0  0  0  0  0  2  0  0  0  0  0  0
  189.2390  176.2960  143.5670 C   0  0  0  0  0  2  0  0  0  0  0  0
  188.3040  177.4310  148.1670 C   0  0  2  0  0  3  0  0  0  0  0  0
  188.9560  178.5160  148.7650 O   0  0  0  0  0  1  0  0  0  0  0  0
  191.2130  177.1000  145.3410 S   0  0  0  0  0  0  0  0  0  0  0  0
  189.5060  177.2610  144.7210 C   0  0  2  0  0  3  0  0  0  0  0  0
  190.6390  177.2160  147.0690 C   0  0  0  0  0  2  0  0  0  0  0  0
  186.7330  179.2260  147.6610 O   0  0  0  0  0  1  0  0  0  0  0  0
  189.1980  176.7300  147.1160 C   0  0  2  0  0  3  0  0  0  0  0  0
  186.6600  178.0610  145.0420 O   0  0  0  0  0  0  0  0  0  0  0  0
  188.6060  177.0070  145.8300 N   0  0  0  0  0  0  0  0  0  0  0  0
  187.3740  177.6750  146.0070 C   0  0  0  0  0  0  0  0  0  0  0  0
  187.0250  177.8790  147.4260 C   0  0  1  0  0  3  0  0  0  0  0  0
  1 31  1  0  0  0  0
  1 50  1  1  0  0  0
  2 14  1  0  0  0  0
  4  9  1  6  0  0  0
  4  5  1  0  0  0  0
  4  7  1  0  0  0  0
  5 13  1  6  0  0  0
  6  3  2  0  0  0  0
  7 17  1  6  0  0  0
  7 10  1  0  0  0  0
  8 14  1  0  0  0  0
  8  5  1  0  0  0  0
 10  1  1  0  0  0  0
 11 16  1  0  0  0  0
 11  2  1  0  0  0  0
 12  6  1  0  0  0  0
 13 10  2  0  0  0  0
 14  3  1  0  0  0  0
 15  2  1  0  0  0  0
 15 12  2  0  0  0  0
 16  9  1  0  0  0  0
 16  8  1  0  0  0  0
 18 17  1  0  0  0  0
 19 12  1  0  0  0  0
 20 21  1  0  0  0  0
 21 19  1  0  0  0  0
 21 25  1  0  0  0  0
 23 22  1  0  0  0  0
 24 29  1  0  0  0  0
 24 22  1  0  0  0  0
 25 23  1  0  0  0  0
 26 24  1  0  0  0  0
 26 25  1  0  0  0  0
 27 26  2  0  0  0  0
 29 28  1  0  0  0  0
 30 36  1  0  0  0  0
 30 31  1  0  0  0  0
 31 32  2  0  0  0  0
 34 36  1  0  0  0  0
 34 35  1  0  0  0  0
 34 33  1  0  0  0  0
 35 33  1  0  0  0  0
 36 35  1  0  0  0  0
 37 34  1  0  0  0  0
 38 39  1  0  0  0  0
 38 37  1  0  0  0  0
 40 39  1  0  0  0  0
 41 40  1  0  0  0  0
 41 43  1  0  0  0  0
 42 41  1  0  0  0  0
 43 44  1  0  0  0  0
 45 46  1  0  0  0  0
 46 41  1  0  0  0  0
 47 49  1  0  0  0  0
 47 40  1  0  0  0  0
 49 48  1  0  0  0  0
 50 51  1  0  0  0  0
 51 53  1  0  0  0  0
 52 51  1  0  0  0  0
 53 54  1  0  0  0  0
 54 55  1  0  0  0  0
 55 56  1  0  0  0  0
 56 60  1  0  0  0  0
 57 58  1  0  0  0  0
 59 61  1  0  0  0  0
 60 59  1  0  0  0  0
 60 65  1  0  0  0  0
 61 63  1  0  0  0  0
 63 57  1  0  0  0  0
 64 66  2  0  0  0  0
 65 66  1  0  0  0  0
 65 63  1  0  0  0  0
 66 67  1  0  0  0  0
 67 62  1  0  0  0  0
 67 57  1  0  0  0  0
M  END
>  <MODEL>
7

>  <REMARK>
 VINA RESULT:      -2.8      3.287     11.315
  Name = 
  24 active torsions:
  status: ('A' for Active; 'I' for Inactive)
    1  A    between atoms: C_3  and  C_15
    2  A    between atoms: C_3  and  C_17
    3  A    between atoms: C_3  and  C_27
    4  A    between atoms: O_7  and  C_20
    5  A    between atoms: O_7  and  C_45
    6  A    between atoms: C_8  and  C_31
    7  A    between atoms: N_11  and  C_61
    8  A    between atoms: C_12  and  C_37
    9  A    between atoms: C_12  and  C_49
   10  A    between atoms: O_18  and  C_29
   11  A    between atoms: C_19  and  C_60
   12  A    between atoms: C_20  and  C_27
   13  A    between atoms: C_23  and  C_45
   14  A    between atoms: C_25  and  C_59
   15  A    between atoms: C_27  and  C_59
   16  A    between atoms: C_30  and  C_31
   17  A    between atoms: C_30  and  S_51
   18  A    between atoms: N_34  and  C_42
   19  A    between atoms: N_34  and  C_54
   20  A    between atoms: C_36  and  C_60
   21  A    between atoms: C_37  and  S_51
   22  A    between atoms: N_43  and  C_55
   23  A    between atoms: C_47  and  C_54
   24  A    between atoms: C_49  and  C_60
                            x       y       z     vdW  Elec       q    Type
                         _______ _______ _______ _____ _____    ______ ____

>  <TORSDO>
F 24

$$$$
=
 OpenBabel11042412143D

 67 75  0  0  1  0  0  0  0  0999 V2000
  182.7810  177.6050  140.2840 C   0  0  1  0  0  3  0  0  0  0  0  0
  188.7200  177.5530  136.4880 N   0  0  0  0  0  0  0  0  0  0  0  0
  188.8930  177.2440  138.8500 C   0  0  0  0  0  3  0  0  0  0  0  0
  184.7880  176.9410  137.1850 C   0  0  1  0  0  3  0  0  0  0  0  0
  185.6690  177.1590  138.1350 C   0  0  1  0  0  3  0  0  0  0  0  0
  190.2590  176.9700  138.6770 C   0  0  0  0  0  3  0  0  0  0  0  0
  183.4170  177.0340  137.7670 C   0  0  1  0  0  3  0  0  0  0  0  0
  186.8200  177.8180  137.5660 C   0  0  1  0  0  3  0  0  0  0  0  0
  185.2810  177.3750  135.8240 C   0  0  0  0  0  2  0  0  0  0  0  0
  183.7880  177.3070  139.2060 C   0  0  0  0  0  0  0  0  0  0  0  0
  187.7930  177.6890  135.5490 N   0  0  0  0  0  2  0  0  0  0  0  0
  190.8390  176.9920  137.3940 C   0  0  0  0  0  0  0  0  0  0  0  0
  185.0670  177.4320  139.3860 N   0  0  0  0  0  0  0  0  0  0  0  0
  188.1620  177.5670  137.7120 C   0  0  2  0  0  3  0  0  0  0  0  0
  190.0290  177.2710  136.2780 C   0  0  0  0  0  3  0  0  0  0  0  0
  186.6320  177.8860  136.2130 C   0  0  2  0  0  3  0  0  0  0  0  0
  182.7450  178.1390  137.2380 O   0  0  0  0  0  0  0  0  0  0  0  0
  182.4250  177.7700  135.9300 C   0  0  0  0  0  1  0  0  0  0  0  0
  192.2360  176.7210  137.2480 N   0  0  0  0  0  2  0  0  0  0  0  0
  193.6120  175.4020  138.5820 O   0  0  0  0  0  1  0  0  0  0  0  0
  192.8090  175.3950  137.4410 C   0  0  2  0  0  3  0  0  0  0  0  0
  195.3190  176.2860  135.3340 C   0  0  0  0  0  2  0  0  0  0  0  0
  193.9090  176.1390  135.4330 O   0  0  0  0  0  0  0  0  0  0  0  0
  195.9550  175.2670  136.1390 N   0  0  0  0  0  0  0  0  0  0  0  0
  193.6320  174.9920  136.2210 C   0  0  1  0  0  3  0  0  0  0  0  0
  194.9370  174.4470  136.6400 C   0  0  0  0  0  0  0  0  0  0  0  0
  195.1690  172.8790  137.0540 S   0  0  0  0  0  0  0  0  0  0  0  0
  197.8320  175.0550  134.5950 C   0  0  0  0  0  1  0  0  0  0  0  0
  197.3600  174.9010  136.0290 C   0  0  0  0  0  2  0  0  0  0  0  0
  184.5900  177.9800  142.0010 N   0  0  0  0  0  2  0  0  0  0  0  0
  183.3890  178.4300  141.3760 C   0  0  0  0  0  0  0  0  0  0  0  0
  182.8560  179.5190  141.7270 O   0  0  0  0  0  0  0  0  0  0  0  0
  187.5300  179.5780  143.4520 C   0  0  0  0  0  2  0  0  0  0  0  0
  186.6900  178.3300  143.2770 C   0  0  2  0  0  0  0  0  0  0  0  0
  186.3200  179.6050  142.5420 C   0  0  1  0  0  3  0  0  0  0  0  0
  185.2230  178.7140  143.0900 C   0  0  1  0  0  3  0  0  0  0  0  0
  187.2780  177.3770  142.2380 C   0  0  0  0  0  2  0  0  0  0  0  0
  187.9990  176.3620  142.8690 O   0  0  0  0  0  0  0  0  0  0  0  0
  187.8120  176.5840  144.2340 C   0  0  0  0  0  2  0  0  0  0  0  0
  189.1610  176.7350  144.9400 C   0  0  1  0  0  3  0  0  0  0  0  0
  190.3450  176.9640  143.9600 C   0  0  0  0  0  0  0  0  0  0  0  0
  191.6500  177.0870  144.7310 C   0  0  0  0  0  1  0  0  0  0  0  0
  190.1740  178.2530  143.1500 C   0  0  0  0  0  2  0  0  0  0  0  0
  191.1030  179.2260  143.5290 O   0  0  0  0  0  1  0  0  0  0  0  0
  190.8020  176.2140  141.6990 O   0  0  0  0  0  1  0  0  0  0  0  0
  190.5010  175.7830  142.9940 C   0  0  0  0  0  2  0  0  0  0  0  0
  189.0600  177.8450  145.9870 C   0  0  0  0  0  2  0  0  0  0  0  0
  189.3070  177.9560  148.3650 O   0  0  0  0  0  1  0  0  0  0  0  0
  188.6350  177.2910  147.3370 C   0  0  0  0  0  2  0  0  0  0  0  0
  181.5290  178.2820  139.7300 C   0  0  0  0  0  2  0  0  0  0  0  0
  180.3460  177.3230  139.7010 C   0  0  1  0  0  3  0  0  0  0  0  0
  179.3600  177.7200  140.6090 O   0  0  0  0  0  1  0  0  0  0  0  0
  179.7670  177.2280  138.2940 C   0  0  0  0  0  2  0  0  0  0  0  0
  178.9310  175.6340  138.0000 S   0  0  0  0  0  0  0  0  0  0  0  0
  180.1920  175.1100  136.8090 C   0  0  0  0  0  2  0  0  0  0  0  0
  181.4560  174.7080  137.5510 C   0  0  0  0  0  2  0  0  0  0  0  0
  180.9450  170.9250  134.5940 C   0  0  2  0  0  3  0  0  0  0  0  0
  181.7270  169.7790  134.7840 O   0  0  0  0  0  1  0  0  0  0  0  0
  183.6100  173.2170  136.6430 S   0  0  0  0  0  0  0  0  0  0  0  0
  181.8840  173.2780  137.2260 C   0  0  2  0  0  3  0  0  0  0  0  0
  183.1710  172.0160  135.3420 C   0  0  0  0  0  2  0  0  0  0  0  0
  179.5010  169.6440  136.0840 O   0  0  0  0  0  1  0  0  0  0  0  0
  181.7010  172.2120  135.0030 C   0  0  2  0  0  3  0  0  0  0  0  0
  179.1460  172.1410  137.4480 O   0  0  0  0  0  0  0  0  0  0  0  0
  181.0460  172.7070  136.1890 N   0  0  0  0  0  0  0  0  0  0  0  0
  179.8900  171.9390  136.4510 C   0  0  0  0  0  0  0  0  0  0  0  0
  179.6600  170.8800  135.4490 C   0  0  1  0  0  3  0  0  0  0  0  0
  1 50  1  6  0  0  0
  1 31  1  0  0  0  0
  2 14  1  0  0  0  0
  4  9  1  6  0  0  0
  4  7  1  0  0  0  0
  4  5  1  0  0  0  0
  5 13  1  1  0  0  0
  6  3  2  0  0  0  0
  7 17  1  6  0  0  0
  7 10  1  0  0  0  0
  8 14  1  0  0  0  0
  8  5  1  0  0  0  0
  9 16  1  0  0  0  0
 10 13  2  0  0  0  0
 10  1  1  0  0  0  0
 11 16  1  0  0  0  0
 11  2  1  0  0  0  0
 12  6  1  0  0  0  0
 14  3  1  0  0  0  0
 15  2  1  0  0  0  0
 15 12  2  0  0  0  0
 16  8  1  0  0  0  0
 18 17  1  0  0  0  0
 19 12  1  0  0  0  0
 19 21  1  0  0  0  0
 21 20  1  0  0  0  0
 22 23  1  0  0  0  0
 22 24  1  0  0  0  0
 23 25  1  0  0  0  0
 24 26  1  0  0  0  0
 25 26  1  0  0  0  0
 25 21  1  0  0  0  0
 26 27  2  0  0  0  0
 28 29  1  0  0  0  0
 29 24  1  0  0  0  0
 30 36  1  0  0  0  0
 31 32  2  0  0  0  0
 31 30  1  0  0  0  0
 34 33  1  0  0  0  0
 35 36  1  0  0  0  0
 35 34  1  0  0  0  0
 35 33  1  0  0  0  0
 36 34  1  0  0  0  0
 37 38  1  0  0  0  0
 37 34  1  0  0  0  0
 38 39  1  0  0  0  0
 39 40  1  0  0  0  0
 40 47  1  0  0  0  0
 41 42  1  0  0  0  0
 41 40  1  0  0  0  0
 43 44  1  0  0  0  0
 43 41  1  0  0  0  0
 45 46  1  0  0  0  0
 46 41  1  0  0  0  0
 47 49  1  0  0  0  0
 49 48  1  0  0  0  0
 51 50  1  0  0  0  0
 51 52  1  0  0  0  0
 53 51  1  0  0  0  0
 54 53  1  0  0  0  0
 55 56  1  0  0  0  0
 55 54  1  0  0  0  0
 57 58  1  0  0  0  0
 57 63  1  0  0  0  0
 57 67  1  0  0  0  0
 59 60  1  0  0  0  0
 60 56  1  0  0  0  0
 61 59  1  0  0  0  0
 63 61  1  0  0  0  0
 63 65  1  0  0  0  0
 65 66  1  0  0  0  0
 65 60  1  0  0  0  0
 66 64  2  0  0  0  0
 67 62  1  0  0  0  0
 67 66  1  0  0  0  0
M  END
>  <MODEL>
8

>  <REMARK>
 VINA RESULT:      -2.6      3.469     11.204
  Name = 
  24 active torsions:
  status: ('A' for Active; 'I' for Inactive)
    1  A    between atoms: C_3  and  C_15
    2  A    between atoms: C_3  and  C_17
    3  A    between atoms: C_3  and  C_27
    4  A    between atoms: O_7  and  C_20
    5  A    between atoms: O_7  and  C_45
    6  A    between atoms: C_8  and  C_31
    7  A    between atoms: N_11  and  C_61
    8  A    between atoms: C_12  and  C_37
    9  A    between atoms: C_12  and  C_49
   10  A    between atoms: O_18  and  C_29
   11  A    between atoms: C_19  and  C_60
   12  A    between atoms: C_20  and  C_27
   13  A    between atoms: C_23  and  C_45
   14  A    between atoms: C_25  and  C_59
   15  A    between atoms: C_27  and  C_59
   16  A    between atoms: C_30  and  C_31
   17  A    between atoms: C_30  and  S_51
   18  A    between atoms: N_34  and  C_42
   19  A    between atoms: N_34  and  C_54
   20  A    between atoms: C_36  and  C_60
   21  A    between atoms: C_37  and  S_51
   22  A    between atoms: N_43  and  C_55
   23  A    between atoms: C_47  and  C_54
   24  A    between atoms: C_49  and  C_60
                            x       y       z     vdW  Elec       q    Type
                         _______ _______ _______ _____ _____    ______ ____

>  <TORSDO>
F 24

$$$$
=
 OpenBabel11042412143D

 67 75  0  0  1  0  0  0  0  0999 V2000
  187.6010  177.5030  140.1880 C   0  0  1  0  0  3  0  0  0  0  0  0
  192.1990  175.4780  135.2440 N   0  0  0  0  0  0  0  0  0  0  0  0
  193.0380  175.9710  137.4260 C   0  0  0  0  0  3  0  0  0  0  0  0
  188.6230  175.6000  137.1210 C   0  0  1  0  0  3  0  0  0  0  0  0
  189.7440  176.0230  137.6630 C   0  0  1  0  0  3  0  0  0  0  0  0
  194.2920  175.4970  137.0090 C   0  0  0  0  0  3  0  0  0  0  0  0
  187.4790  176.0430  137.9700 C   0  0  1  0  0  3  0  0  0  0  0  0
  190.6920  176.3110  136.6150 C   0  0  1  0  0  3  0  0  0  0  0  0
  188.7110  175.4870  135.6170 C   0  0  0  0  0  2  0  0  0  0  0  0
  188.2510  176.7430  139.0640 C   0  0  0  0  0  0  0  0  0  0  0  0
  191.0430  175.3950  134.5980 N   0  0  0  0  0  2  0  0  0  0  0  0
  194.4800  175.0160  135.6990 C   0  0  0  0  0  0  0  0  0  0  0  0
  189.5300  176.7730  138.8440 N   0  0  0  0  0  0  0  0  0  0  0  0
  192.0160  175.9710  136.4820 C   0  0  2  0  0  3  0  0  0  0  0  0
  193.3880  174.9920  134.8120 C   0  0  0  0  0  3  0  0  0  0  0  0
  190.1240  175.9390  135.4270 C   0  0  2  0  0  3  0  0  0  0  0  0
  186.7000  176.9730  137.2780 O   0  0  0  0  0  0  0  0  0  0  0  0
  185.6020  176.2450  136.8140 C   0  0  0  0  0  1  0  0  0  0  0  0
  195.7720  174.5510  135.2990 N   0  0  0  0  0  2  0  0  0  0  0  0
  197.9090  174.8210  136.1770 O   0  0  0  0  0  1  0  0  0  0  0  0
  196.7560  174.0370  136.2430 C   0  0  2  0  0  3  0  0  0  0  0  0
  198.4410  171.2610  137.2380 C   0  0  0  0  0  2  0  0  0  0  0  0
  198.4360  172.3130  136.2830 O   0  0  0  0  0  0  0  0  0  0  0  0
  197.0750  170.9090  137.5560 N   0  0  0  0  0  0  0  0  0  0  0  0
  197.0910  172.5840  135.9210 C   0  0  1  0  0  3  0  0  0  0  0  0
  196.2510  171.6740  136.7220 C   0  0  0  0  0  0  0  0  0  0  0  0
  194.7450  171.2080  136.2750 S   0  0  0  0  0  0  0  0  0  0  0  0
  195.2640  169.7900  138.7480 C   0  0  0  0  0  1  0  0  0  0  0  0
  196.6870  169.6790  138.2330 C   0  0  0  0  0  2  0  0  0  0  0  0
  189.2850  178.2420  141.9130 N   0  0  0  0  0  2  0  0  0  0  0  0
  188.5270  178.5420  140.7430 C   0  0  0  0  0  0  0  0  0  0  0  0
  188.6480  179.6610  140.1730 O   0  0  0  0  0  0  0  0  0  0  0  0
  191.8020  179.0820  144.4160 C   0  0  0  0  0  2  0  0  0  0  0  0
  190.3400  178.9910  144.0320 C   0  0  2  0  0  0  0  0  0  0  0  0
  191.4100  178.5050  143.0720 C   0  0  1  0  0  3  0  0  0  0  0  0
  190.1840  179.2110  142.5280 C   0  0  1  0  0  3  0  0  0  0  0  0
  189.6670  177.7470  144.6070 C   0  0  0  0  0  2  0  0  0  0  0  0
  188.2790  177.8650  144.5180 O   0  0  0  0  0  0  0  0  0  0  0  0
  187.7800  176.7650  145.2180 C   0  0  0  0  0  2  0  0  0  0  0  0
  187.0440  177.2220  146.4780 C   0  0  1  0  0  3  0  0  0  0  0  0
  187.9490  177.2520  147.7410 C   0  0  0  0  0  0  0  0  0  0  0  0
  187.1920  176.7110  148.9440 C   0  0  0  0  0  1  0  0  0  0  0  0
  188.3950  178.6760  148.0900 C   0  0  0  0  0  2  0  0  0  0  0  0
  187.6200  179.2200  149.1170 O   0  0  0  0  0  1  0  0  0  0  0  0
  190.2990  177.1200  147.1540 O   0  0  0  0  0  1  0  0  0  0  0  0
  189.1890  176.3700  147.5550 C   0  0  0  0  0  2  0  0  0  0  0  0
  186.3830  178.5750  146.2130 C   0  0  0  0  0  2  0  0  0  0  0  0
  184.2340  178.5700  145.1610 O   0  0  0  0  0  1  0  0  0  0  0  0
  185.6070  178.5630  144.9070 C   0  0  0  0  0  2  0  0  0  0  0  0
  186.2760  178.1350  139.7650 C   0  0  0  0  0  2  0  0  0  0  0  0
  185.3840  178.4110  140.9670 C   0  0  1  0  0  3  0  0  0  0  0  0
  185.6630  179.6660  141.5160 O   0  0  0  0  0  1  0  0  0  0  0  0
  183.9130  178.3160  140.5780 C   0  0  0  0  0  2  0  0  0  0  0  0
  183.5670  176.8530  139.5450 S   0  0  0  0  0  0  0  0  0  0  0  0
  182.6240  177.8320  138.3480 C   0  0  0  0  0  2  0  0  0  0  0  0
  181.5860  178.6680  139.0800 C   0  0  0  0  0  2  0  0  0  0  0  0
  180.5920  182.6300  136.5020 C   0  0  2  0  0  3  0  0  0  0  0  0
  179.4620  182.6600  135.6750 O   0  0  0  0  0  1  0  0  0  0  0  0
  180.6380  178.5610  136.4760 S   0  0  0  0  0  0  0  0  0  0  0  0
  180.6160  179.3520  138.1180 C   0  0  2  0  0  3  0  0  0  0  0  0
  180.5930  180.1860  135.6480 C   0  0  0  0  0  2  0  0  0  0  0  0
  178.9310  183.5180  138.0520 O   0  0  0  0  0  1  0  0  0  0  0  0
  181.2000  181.2100  136.5940 C   0  0  2  0  0  3  0  0  0  0  0  0
  180.0660  181.6570  139.9140 O   0  0  0  0  0  0  0  0  0  0  0  0
  180.9590  180.7510  137.9400 N   0  0  0  0  0  0  0  0  0  0  0  0
  180.4020  181.7970  138.7080 C   0  0  0  0  0  0  0  0  0  0  0  0
  180.2450  183.0530  137.9470 C   0  0  1  0  0  3  0  0  0  0  0  0
  1 50  1  6  0  0  0
  1 31  1  0  0  0  0
  2 14  1  0  0  0  0
  4  9  1  6  0  0  0
  4  5  1  0  0  0  0
  4  7  1  0  0  0  0
  5 13  1  6  0  0  0
  6  3  2  0  0  0  0
  7 17  1  6  0  0  0
  7 10  1  0  0  0  0
  8  5  1  0  0  0  0
 10  1  1  0  0  0  0
 11  2  1  0  0  0  0
 11 16  1  0  0  0  0
 12  6  1  0  0  0  0
 13 10  2  0  0  0  0
 14  8  1  0  0  0  0
 14  3  1  0  0  0  0
 15  2  1  0  0  0  0
 15 12  2  0  0  0  0
 16  9  1  0  0  0  0
 16  8  1  0  0  0  0
 18 17  1  0  0  0  0
 19 12  1  0  0  0  0
 19 21  1  0  0  0  0
 20 21  1  0  0  0  0
 22 24  1  0  0  0  0
 23 22  1  0  0  0  0
 24 29  1  0  0  0  0
 25 21  1  0  0  0  0
 25 23  1  0  0  0  0
 25 26  1  0  0  0  0
 26 24  1  0  0  0  0
 27 26  2  0  0  0  0
 29 28  1  0  0  0  0
 30 36  1  0  0  0  0
 31 30  1  0  0  0  0
 32 31  2  0  0  0  0
 34 33  1  0  0  0  0
 34 37  1  0  0  0  0
 35 34  1  0  0  0  0
 35 33  1  0  0  0  0
 36 35  1  0  0  0  0
 36 34  1  0  0  0  0
 38 37  1  0  0  0  0
 38 39  1  0  0  0  0
 39 40  1  0  0  0  0
 40 41  1  0  0  0  0
 41 43  1  0  0  0  0
 41 42  1  0  0  0  0
 43 44  1  0  0  0  0
 45 46  1  0  0  0  0
 46 41  1  0  0  0  0
 47 40  1  0  0  0  0
 49 48  1  0  0  0  0
 49 47  1  0  0  0  0
 50 51  1  0  0  0  0
 51 52  1  0  0  0  0
 53 51  1  0  0  0  0
 54 53  1  0  0  0  0
 55 56  1  0  0  0  0
 55 54  1  0  0  0  0
 57 63  1  0  0  0  0
 57 67  1  0  0  0  0
 58 57  1  0  0  0  0
 59 60  1  0  0  0  0
 60 56  1  0  0  0  0
 61 59  1  0  0  0  0
 61 63  1  0  0  0  0
 63 65  1  0  0  0  0
 65 60  1  0  0  0  0
 65 66  1  0  0  0  0
 66 64  2  0  0  0  0
 67 62  1  0  0  0  0
 67 66  1  0  0  0  0
M  END
>  <MODEL>
9

>  <REMARK>
 VINA RESULT:      -2.4      2.857     11.605
  Name = 
  24 active torsions:
  status: ('A' for Active; 'I' for Inactive)
    1  A    between atoms: C_3  and  C_15
    2  A    between atoms: C_3  and  C_17
    3  A    between atoms: C_3  and  C_27
    4  A    between atoms: O_7  and  C_20
    5  A    between atoms: O_7  and  C_45
    6  A    between atoms: C_8  and  C_31
    7  A    between atoms: N_11  and  C_61
    8  A    between atoms: C_12  and  C_37
    9  A    between atoms: C_12  and  C_49
   10  A    between atoms: O_18  and  C_29
   11  A    between atoms: C_19  and  C_60
   12  A    between atoms: C_20  and  C_27
   13  A    between atoms: C_23  and  C_45
   14  A    between atoms: C_25  and  C_59
   15  A    between atoms: C_27  and  C_59
   16  A    between atoms: C_30  and  C_31
   17  A    between atoms: C_30  and  S_51
   18  A    between atoms: N_34  and  C_42
   19  A    between atoms: N_34  and  C_54
   20  A    between atoms: C_36  and  C_60
   21  A    between atoms: C_37  and  S_51
   22  A    between atoms: N_43  and  C_55
   23  A    between atoms: C_47  and  C_54
   24  A    between atoms: C_49  and  C_60
                            x       y       z     vdW  Elec       q    Type
                         _______ _______ _______ _____ _____    ______ ____

>  <TORSDO>
F 24

$$$$
